=
 OpenBabel10232409163D

 67 76  0  0  1  0  0  0  0  0999 V2000
  188.6290  174.8720  135.4390 C   0  0  2  0  0  3  0  0  0  0  0  0
  190.0000  175.1770  136.0190 C   0  0  2  0  0  3  0  0  0  0  0  0
  188.0730  176.2650  135.3160 C   0  0  2  0  0  3  0  0  0  0  0  0
  186.0840  172.8410  137.5950 C   0  0  0  0  0  3  0  0  0  0  0  0
  184.5730  172.9990  137.5250 C   0  0  0  0  0  3  0  0  0  0  0  0
  186.6260  173.7880  136.5770 C   0  0  0  0  0  0  0  0  0  0  0  0
  184.3370  174.0560  136.4950 C   0  0  0  0  0  0  0  0  0  0  0  0
  185.7410  175.9670  136.1070 N   0  0  0  0  0  2  0  0  0  0  0  0
  188.7840  177.0850  136.3650 C   0  0  2  0  0  3  0  0  0  0  0  0
  185.5770  174.5490  135.8450 C   0  0  1  0  0  3  0  0  0  0  0  0
  183.1780  174.5930  136.2450 N   0  0  0  0  0  0  0  0  0  0  0  0
  187.9430  173.9720  136.4350 C   0  0  0  0  0  3  0  0  0  0  0  0
  186.5810  176.4990  135.0470 C   0  0  0  0  0  2  0  0  0  0  0  0
  190.0330  176.4740  136.5950 O   0  0  0  0  0  0  0  0  0  0  0  0
  181.9230  174.1880  136.8160 C   0  0  0  0  0  0  0  0  0  0  0  0
  181.7470  172.9990  137.1920 O   0  0  0  0  0  0  0  0  0  0  0  0
  180.8350  175.1130  136.9290 N   0  0  0  0  0  2  0  0  0  0  0  0
  180.9860  179.7430  136.0930 C   0  0  0  0  0  3  0  0  0  0  0  0
  180.9820  176.2580  140.1400 C   0  0  0  0  0  2  0  0  0  0  0  0
  180.9060  176.5410  136.8470 C   0  0  0  0  0  0  0  0  0  0  0  0
  181.4450  177.2040  137.8590 C   0  0  0  0  0  0  0  0  0  0  0  0
  182.2990  178.2920  139.3810 C   0  0  2  0  0  3  0  0  0  0  0  0
  179.9830  177.1860  140.4630 O   0  0  0  0  0  0  0  0  0  0  0  0
  182.0350  176.8680  139.1960 C   0  0  1  0  0  3  0  0  0  0  0  0
  180.6100  178.1070  141.3050 C   0  0  0  0  0  2  0  0  0  0  0  0
  181.5030  179.0310  140.4800 C   0  0  0  0  0  2  0  0  0  0  0  0
  180.4510  177.2570  135.6370 C   0  0  0  0  0  3  0  0  0  0  0  0
  181.5440  179.7890  137.3040 C   0  0  0  0  0  3  0  0  0  0  0  0
  181.7410  178.6240  138.0850 N   0  0  0  0  0  0  0  0  0  0  0  0
  180.4850  178.5670  135.3360 C   0  0  0  0  0  3  0  0  0  0  0  0
  191.0350  175.0640  134.9990 N   0  0  0  0  0  2  0  0  0  0  0  0
  191.5490  173.7020  135.0110 C   0  0  0  0  0  2  0  0  0  0  0  0
  192.8990  173.6960  135.3900 O   0  0  0  0  0  0  0  0  0  0  0  0
  193.0440  172.5830  136.2170 C   0  0  0  0  0  2  0  0  0  0  0  0
  193.8600  171.5090  135.5050 C   0  0  0  0  0  2  0  0  0  0  0  0
  197.0140  173.0080  136.8020 P   0  0  2  0  0  0  0  0  0  0  0  0
  196.6730  171.8050  137.9230 O   0  0  0  0  0  0  0  0  0  0  0  0
  195.4460  171.3140  137.4700 C   0  0  1  0  0  3  0  0  0  0  0  0
  195.3200  171.5170  135.9490 C   0  0  2  0  0  3  0  0  0  0  0  0
  195.9530  172.6960  135.5390 O   0  0  0  0  0  0  0  0  0  0  0  0
  198.4430  172.8910  136.3230 O   0  0  0  0  0  0  0  0  0  0  0  0
  195.3200  169.8670  137.8120 C   0  0  0  0  0  0  0  0  0  0  0  0
  194.9540  169.4790  139.0950 O   0  0  0  0  0  1  0  0  0  0  0  0
  195.5810  168.9870  136.9450 O   0  0  0  0  0  0  0  0  0  0  0  0
  197.8970  175.3470  137.6030 O   0  0  0  0  0  1  0  0  0  0  0  0
  196.6940  174.6460  137.5160 C   0  0  0  0  0  0  0  0  0  0  0  0
  195.8120  175.3410  136.6860 O   0  0  0  0  0  1  0  0  0  0  0  0
  196.0850  174.4780  138.9040 C   0  0  0  0  0  2  0  0  0  0  0  0
  197.0660  174.8630  140.0020 C   0  0  0  0  0  1  0  0  0  0  0  0
  188.0180  177.1520  137.6790 C   0  0  0  0  0  2  0  0  0  0  0  0
  188.8560  177.6580  138.6770 O   0  0  0  0  0  0  0  0  0  0  0  0
  187.6520  178.4710  140.5760 C   0  0  0  0  0  3  0  0  0  0  0  0
  189.2870  176.7870  140.7590 O   0  0  0  0  0  0  0  0  0  0  0  0
  189.4310  177.6040  141.8540 C   0  0  0  0  0  0  0  0  0  0  0  0
  190.3390  177.3790  142.7600 N   0  0  0  0  0  0  0  0  0  0  0  0
  188.2760  177.2520  139.8840 C   0  0  2  0  0  3  0  0  0  0  0  0
  188.4680  178.7290  141.8420 C   0  0  0  0  0  3  0  0  0  0  0  0
  190.8640  179.6250  143.8130 C   0  0  0  0  0  2  0  0  0  0  0  0
  192.0350  178.6990  144.1420 C   0  0  0  0  0  2  0  0  0  0  0  0
  190.6380  178.1370  143.9830 C   0  0  0  0  0  0  0  0  0  0  0  0
  188.5620  177.9180  145.3630 C   0  0  0  0  0  3  0  0  0  0  0  0
  189.9410  177.7050  145.2330 C   0  0  0  0  0  0  0  0  0  0  0  0
  191.9660  176.7610  146.1210 F   0  0  0  0  0  0  0  0  0  0  0  0
  188.5810  176.8040  147.5120 C   0  0  0  0  0  3  0  0  0  0  0  0
  187.8860  177.4740  146.5040 C   0  0  0  0  0  3  0  0  0  0  0  0
  190.6360  177.0110  146.2430 C   0  0  0  0  0  0  0  0  0  0  0  0
  189.9550  176.5690  147.3810 C   0  0  0  0  0  3  0  0  0  0  0  0
  1  2  1  0  0  0  0
  1 12  1  1  0  0  0
  2 31  1  6  0  0  0
  2 14  1  0  0  0  0
  3 13  1  1  0  0  0
  3  1  1  0  0  0  0
  3  9  1  0  0  0  0
  5  4  2  0  0  0  0
  6  4  1  0  0  0  0
  7  5  1  0  0  0  0
  9 14  1  0  0  0  0
  9 50  1  1  0  0  0
 10  8  1  1  0  0  0
 10  7  1  0  0  0  0
 10  6  1  0  0  0  0
 11  7  2  0  0  0  0
 11 15  1  0  0  0  0
 12  6  2  0  0  0  0
 13  8  1  0  0  0  0
 15 17  1  0  0  0  0
 15 16  2  0  0  0  0
 18 28  2  0  0  0  0
 19 23  1  0  0  0  0
 20 17  1  0  0  0  0
 20 21  2  0  0  0  0
 21 29  1  0  0  0  0
 21 24  1  0  0  0  0
 22 26  1  1  0  0  0
 23 25  1  0  0  0  0
 24 22  1  0  0  0  0
 24 19  1  1  0  0  0
 26 25  1  0  0  0  0
 27 20  1  0  0  0  0
 28 29  1  0  0  0  0
 29 22  1  0  0  0  0
 30 27  2  0  0  0  0
 30 18  1  0  0  0  0
 31 32  1  0  0  0  0
 32 33  1  0  0  0  0
 33 34  1  0  0  0  0
 35 34  1  0  0  0  0
 36 41  2  6  0  0  0
 36 46  1  0  0  0  0
 36 37  1  0  0  0  0
 38 42  1  6  0  0  0
 38 37  1  0  0  0  0
 39 35  1  1  0  0  0
 39 38  1  0  0  0  0
 40 39  1  0  0  0  0
 40 36  1  0  0  0  0
 42 43  1  0  0  0  0
 44 42  2  0  0  0  0
 46 45  1  0  0  0  0
 46 48  1  0  0  0  0
 47 46  1  0  0  0  0
 48 49  1  0  0  0  0
 50 51  1  0  0  0  0
 52 57  2  0  0  0  0
 53 54  1  0  0  0  0
 54 55  2  0  0  0  0
 55 60  1  0  0  0  0
 56 51  1  6  0  0  0
 56 52  1  0  0  0  0
 56 53  1  0  0  0  0
 57 54  1  0  0  0  0
 58 60  1  0  0  0  0
 58 59  1  0  0  0  0
 60 59  1  0  0  0  0
 60 62  1  0  0  0  0
 61 65  1  0  0  0  0
 62 61  2  0  0  0  0
 62 66  1  0  0  0  0
 63 66  1  0  0  0  0
 65 64  2  0  0  0  0
 66 67  2  0  0  0  0
 67 64  1  0  0  0  0
M  END
>  <MODEL>
1

>  <REMARK>
 VINA RESULT:      -8.4      0.000      0.000
  Name = 
  16 active torsions:
  status: ('A' for Active; 'I' for Inactive)
    1  A    between atoms: C_3  and  C_31
    2  A    between atoms: C_5  and  N_32
    3  A    between atoms: C_6  and  N_43
    4  A    between atoms: C_7  and  N_32
    5  A    between atoms: C_7  and  O_41
    6  A    between atoms: C_13  and  N_33
    7  A    between atoms: P_16  and  C_62
    8  A    between atoms: C_19  and  C_66
    9  A    between atoms: O_36  and  C_45
   10  A    between atoms: O_36  and  C_57
   11  A    between atoms: C_38  and  C_45
   12  A    between atoms: O_41  and  C_61
   13  A    between atoms: C_44  and  C_67
   14  A    between atoms: N_53  and  C_66
   15  A    between atoms: C_54  and  C_62
   16  A    between atoms: C_61  and  C_67
                            x       y       z     vdW  Elec       q    Type
                         _______ _______ _______ _____ _____    ______ ____

>  <TORSDO>
F 16

$$$$
=
 OpenBabel10232409163D

 67 76  0  0  1  0  0  0  0  0999 V2000
  188.8980  175.6140  135.6240 C   0  0  2  0  0  3  0  0  0  0  0  0
  190.1490  175.9160  136.4340 C   0  0  2  0  0  3  0  0  0  0  0  0
  188.2300  176.9620  135.6480 C   0  0  2  0  0  3  0  0  0  0  0  0
  186.3090  173.0600  137.0470 C   0  0  0  0  0  3  0  0  0  0  0  0
  184.8110  173.1150  136.7900 C   0  0  0  0  0  3  0  0  0  0  0  0
  186.8810  174.2060  136.2800 C   0  0  0  0  0  0  0  0  0  0  0  0
  184.6060  174.3120  135.9190 C   0  0  0  0  0  0  0  0  0  0  0  0
  185.8570  176.3610  136.0430 N   0  0  0  0  0  2  0  0  0  0  0  0
  188.7200  177.6410  136.9030 C   0  0  2  0  0  3  0  0  0  0  0  0
  185.8650  175.0000  135.5380 C   0  0  1  0  0  3  0  0  0  0  0  0
  183.4410  174.7970  135.5970 N   0  0  0  0  0  0  0  0  0  0  0  0
  188.1820  174.5080  136.3570 C   0  0  0  0  0  3  0  0  0  0  0  0
  186.7690  177.1270  135.2100 C   0  0  0  0  0  2  0  0  0  0  0  0
  189.9830  177.0940  137.2070 O   0  0  0  0  0  0  0  0  0  0  0  0
  182.1690  174.2080  135.9120 C   0  0  0  0  0  0  0  0  0  0  0  0
  181.8210  173.1200  135.3810 O   0  0  0  0  0  0  0  0  0  0  0  0
  181.2570  174.8630  136.8000 N   0  0  0  0  0  2  0  0  0  0  0  0
  182.4540  177.9220  140.1720 C   0  0  0  0  0  3  0  0  0  0  0  0
  180.5800  177.7850  135.1730 C   0  0  0  0  0  2  0  0  0  0  0  0
  181.5580  175.9190  137.7210 C   0  0  0  0  0  0  0  0  0  0  0  0
  180.9570  177.0870  137.5570 C   0  0  0  0  0  0  0  0  0  0  0  0
  180.0350  178.9170  137.3800 C   0  0  2  0  0  3  0  0  0  0  0  0
  181.6590  178.6790  135.1290 O   0  0  0  0  0  0  0  0  0  0  0  0
  179.9830  177.6900  136.5900 C   0  0  1  0  0  3  0  0  0  0  0  0
  181.0810  179.9420  135.2720 C   0  0  0  0  0  2  0  0  0  0  0  0
  180.6800  180.1610  136.7290 C   0  0  0  0  0  2  0  0  0  0  0  0
  182.4660  175.6940  138.8650 C   0  0  0  0  0  3  0  0  0  0  0  0
  181.6350  178.7400  139.5090 C   0  0  0  0  0  3  0  0  0  0  0  0
  180.9690  178.3380  138.3260 N   0  0  0  0  0  0  0  0  0  0  0  0
  182.8300  176.5180  139.8630 C   0  0  0  0  0  3  0  0  0  0  0  0
  191.3110  176.0560  135.5650 N   0  0  0  0  0  2  0  0  0  0  0  0
  191.6820  174.7380  135.0730 C   0  0  0  0  0  2  0  0  0  0  0  0
  192.8860  174.8070  134.3590 O   0  0  0  0  0  0  0  0  0  0  0  0
  193.7360  175.5830  135.1470 C   0  0  0  0  0  2  0  0  0  0  0  0
  195.1550  175.0300  135.0840 C   0  0  0  0  0  2  0  0  0  0  0  0
  195.6680  172.1540  137.3960 P   0  0  2  0  0  0  0  0  0  0  0  0
  197.2040  172.8200  137.2660 O   0  0  0  0  0  0  0  0  0  0  0  0
  197.0090  173.8390  136.3310 C   0  0  1  0  0  3  0  0  0  0  0  0
  195.5560  174.3430  136.3860 C   0  0  2  0  0  3  0  0  0  0  0  0
  194.6680  173.3020  136.6880 O   0  0  0  0  0  0  0  0  0  0  0  0
  195.2970  171.9660  138.8490 O   0  0  0  0  0  0  0  0  0  0  0  0
  197.9570  174.9610  136.5980 C   0  0  0  0  0  0  0  0  0  0  0  0
  198.1390  175.4320  137.8920 O   0  0  0  0  0  1  0  0  0  0  0  0
  198.5720  175.5100  135.6420 O   0  0  0  0  0  0  0  0  0  0  0  0
  196.5600  170.5790  135.4950 O   0  0  0  0  0  1  0  0  0  0  0  0
  195.5810  170.5840  136.4890 C   0  0  0  0  0  0  0  0  0  0  0  0
  195.8150  169.5310  137.3760 O   0  0  0  0  0  1  0  0  0  0  0  0
  194.1980  170.4430  135.8620 C   0  0  0  0  0  2  0  0  0  0  0  0
  193.4700  169.2080  136.3740 C   0  0  0  0  0  1  0  0  0  0  0  0
  187.7900  177.4250  138.0890 C   0  0  0  0  0  2  0  0  0  0  0  0
  187.9680  178.4610  139.0110 O   0  0  0  0  0  0  0  0  0  0  0  0
  187.1040  179.1110  141.1440 C   0  0  0  0  0  3  0  0  0  0  0  0
  188.5870  177.3000  140.8940 O   0  0  0  0  0  0  0  0  0  0  0  0
  188.9480  177.9560  142.0460 C   0  0  0  0  0  0  0  0  0  0  0  0
  189.9430  177.5500  142.7810 N   0  0  0  0  0  0  0  0  0  0  0  0
  187.5170  177.9480  140.2320 C   0  0  2  0  0  3  0  0  0  0  0  0
  188.0990  179.1430  142.3030 C   0  0  0  0  0  3  0  0  0  0  0  0
  190.9850  179.5430  143.9530 C   0  0  0  0  0  2  0  0  0  0  0  0
  191.9580  178.3750  144.1170 C   0  0  0  0  0  2  0  0  0  0  0  0
  190.4690  178.1210  144.0290 C   0  0  0  0  0  0  0  0  0  0  0  0
  188.4010  177.9460  145.4280 C   0  0  0  0  0  3  0  0  0  0  0  0
  189.7790  177.7250  145.2960 C   0  0  0  0  0  0  0  0  0  0  0  0
  191.8070  176.8010  146.1970 F   0  0  0  0  0  0  0  0  0  0  0  0
  188.4310  176.8920  147.6070 C   0  0  0  0  0  3  0  0  0  0  0  0
  187.7310  177.5360  146.5850 C   0  0  0  0  0  3  0  0  0  0  0  0
  190.4780  177.0580  146.3200 C   0  0  0  0  0  0  0  0  0  0  0  0
  189.8030  176.6500  147.4740 C   0  0  0  0  0  3  0  0  0  0  0  0
  1  3  1  0  0  0  0
  1 12  1  1  0  0  0
  1  2  1  0  0  0  0
  2 31  1  6  0  0  0
  2 14  1  0  0  0  0
  3 13  1  1  0  0  0
  3  9  1  0  0  0  0
  5  4  2  0  0  0  0
  6 12  2  0  0  0  0
  6  4  1  0  0  0  0
  7  5  1  0  0  0  0
  9 14  1  0  0  0  0
  9 50  1  1  0  0  0
 10  7  1  1  0  0  0
 10  8  1  0  0  0  0
 10  6  1  0  0  0  0
 11 15  1  0  0  0  0
 11  7  2  0  0  0  0
 13  8  1  0  0  0  0
 15 17  1  0  0  0  0
 16 15  2  0  0  0  0
 17 20  1  0  0  0  0
 20 27  1  0  0  0  0
 21 20  2  0  0  0  0
 21 29  1  0  0  0  0
 22 26  1  6  0  0  0
 22 29  1  0  0  0  0
 23 19  1  0  0  0  0
 23 25  1  0  0  0  0
 24 19  1  6  0  0  0
 24 22  1  0  0  0  0
 24 21  1  0  0  0  0
 25 26  1  0  0  0  0
 27 30  2  0  0  0  0
 28 18  2  0  0  0  0
 29 28  1  0  0  0  0
 30 18  1  0  0  0  0
 32 31  1  0  0  0  0
 33 32  1  0  0  0  0
 33 34  1  0  0  0  0
 35 34  1  0  0  0  0
 36 41  2  1  0  0  0
 37 36  1  0  0  0  0
 38 39  1  0  0  0  0
 38 42  1  1  0  0  0
 38 37  1  0  0  0  0
 39 35  1  6  0  0  0
 39 40  1  0  0  0  0
 40 36  1  0  0  0  0
 42 43  1  0  0  0  0
 44 42  2  0  0  0  0
 45 46  1  0  0  0  0
 46 47  1  0  0  0  0
 46 36  1  0  0  0  0
 48 49  1  0  0  0  0
 48 46  1  0  0  0  0
 50 51  1  0  0  0  0
 52 57  2  0  0  0  0
 53 54  1  0  0  0  0
 54 57  1  0  0  0  0
 54 55  2  0  0  0  0
 55 60  1  0  0  0  0
 56 51  1  6  0  0  0
 56 53  1  0  0  0  0
 56 52  1  0  0  0  0
 58 60  1  0  0  0  0
 58 59  1  0  0  0  0
 60 59  1  0  0  0  0
 60 62  1  0  0  0  0
 61 65  1  0  0  0  0
 62 61  2  0  0  0  0
 62 66  1  0  0  0  0
 63 66  1  0  0  0  0
 65 64  2  0  0  0  0
 66 67  2  0  0  0  0
 67 64  1  0  0  0  0
M  END
>  <MODEL>
2

>  <REMARK>
 VINA RESULT:      -8.2      1.369      3.019
  Name = 
  16 active torsions:
  status: ('A' for Active; 'I' for Inactive)
    1  A    between atoms: C_3  and  C_31
    2  A    between atoms: C_5  and  N_32
    3  A    between atoms: C_6  and  N_43
    4  A    between atoms: C_7  and  N_32
    5  A    between atoms: C_7  and  O_41
    6  A    between atoms: C_13  and  N_33
    7  A    between atoms: P_16  and  C_62
    8  A    between atoms: C_19  and  C_66
    9  A    between atoms: O_36  and  C_45
   10  A    between atoms: O_36  and  C_57
   11  A    between atoms: C_38  and  C_45
   12  A    between atoms: O_41  and  C_61
   13  A    between atoms: C_44  and  C_67
   14  A    between atoms: N_53  and  C_66
   15  A    between atoms: C_54  and  C_62
   16  A    between atoms: C_61  and  C_67
                            x       y       z     vdW  Elec       q    Type
                         _______ _______ _______ _____ _____    ______ ____

>  <TORSDO>
F 16

$$$$
=
 OpenBabel10232409163D

 67 76  0  0  1  0  0  0  0  0999 V2000
  190.1400  174.4820  135.4020 C   0  0  2  0  0  3  0  0  0  0  0  0
  191.5060  174.3670  136.0580 C   0  0  2  0  0  3  0  0  0  0  0  0
  189.8430  175.9350  135.6540 C   0  0  2  0  0  3  0  0  0  0  0  0
  187.1570  172.4540  136.8970 C   0  0  0  0  0  3  0  0  0  0  0  0
  185.7040  172.8990  136.8550 C   0  0  0  0  0  3  0  0  0  0  0  0
  187.9150  173.5220  136.1800 C   0  0  0  0  0  0  0  0  0  0  0  0
  185.7160  174.2150  136.1480 C   0  0  0  0  0  0  0  0  0  0  0  0
  187.4510  175.8710  136.3080 N   0  0  0  0  0  2  0  0  0  0  0  0
  190.6200  176.3040  136.8930 C   0  0  2  0  0  3  0  0  0  0  0  0
  187.0600  174.6270  135.6700 C   0  0  1  0  0  3  0  0  0  0  0  0
  184.6850  175.0020  136.0400 N   0  0  0  0  0  0  0  0  0  0  0  0
  189.2510  173.4920  136.1090 C   0  0  0  0  0  3  0  0  0  0  0  0
  188.4330  176.5000  135.4410 C   0  0  0  0  0  2  0  0  0  0  0  0
  191.7290  175.4360  136.9640 O   0  0  0  0  0  0  0  0  0  0  0  0
  183.3460  174.6970  136.4650 C   0  0  0  0  0  0  0  0  0  0  0  0
  182.8690  173.5450  136.2910 O   0  0  0  0  0  0  0  0  0  0  0  0
  182.5160  175.7040  137.0540 N   0  0  0  0  0  2  0  0  0  0  0  0
  184.3190  179.5230  139.1330 C   0  0  0  0  0  3  0  0  0  0  0  0
  180.6400  178.1130  135.5280 C   0  0  0  0  0  2  0  0  0  0  0  0
  182.9390  176.9580  137.6040 C   0  0  0  0  0  0  0  0  0  0  0  0
  182.0950  177.9770  137.5720 C   0  0  0  0  0  0  0  0  0  0  0  0
  180.8210  179.5920  137.5840 C   0  0  2  0  0  3  0  0  0  0  0  0
  181.3940  179.1130  134.9000 O   0  0  0  0  0  0  0  0  0  0  0  0
  180.7080  178.2330  137.0620 C   0  0  1  0  0  3  0  0  0  0  0  0
  180.6760  180.2910  135.1190 C   0  0  0  0  0  2  0  0  0  0  0  0
  180.8690  180.7500  136.5620 C   0  0  0  0  0  2  0  0  0  0  0  0
  184.2610  177.0960  138.2520 C   0  0  0  0  0  3  0  0  0  0  0  0
  183.1500  180.0710  138.7980 C   0  0  0  0  0  3  0  0  0  0  0  0
  182.1580  179.3490  138.0900 N   0  0  0  0  0  0  0  0  0  0  0  0
  184.8200  178.1490  138.8740 C   0  0  0  0  0  3  0  0  0  0  0  0
  192.5660  174.3390  135.0570 N   0  0  0  0  0  2  0  0  0  0  0  0
  193.1230  172.9960  135.0100 C   0  0  0  0  0  2  0  0  0  0  0  0
  192.7490  172.2760  136.1540 O   0  0  0  0  0  0  0  0  0  0  0  0
  193.7380  171.3060  136.3180 C   0  0  0  0  0  2  0  0  0  0  0  0
  194.6550  171.2870  135.1010 C   0  0  0  0  0  2  0  0  0  0  0  0
  197.4930  173.2290  136.5350 P   0  0  2  0  0  0  0  0  0  0  0  0
  197.5220  171.8000  137.4160 O   0  0  0  0  0  0  0  0  0  0  0  0
  196.4020  171.1240  136.9260 C   0  0  1  0  0  3  0  0  0  0  0  0
  196.1080  171.5580  135.4780 C   0  0  2  0  0  3  0  0  0  0  0  0
  196.4260  172.9070  135.2780 O   0  0  0  0  0  0  0  0  0  0  0  0
  198.8660  173.5380  135.9860 O   0  0  0  0  0  0  0  0  0  0  0  0
  196.6320  169.6500  136.9890 C   0  0  0  0  0  0  0  0  0  0  0  0
  195.6140  168.7990  137.3990 O   0  0  0  0  0  1  0  0  0  0  0  0
  197.7660  169.1750  136.7020 O   0  0  0  0  0  0  0  0  0  0  0  0
  197.9300  175.4610  137.8460 O   0  0  0  0  0  1  0  0  0  0  0  0
  196.8750  174.5930  137.5630 C   0  0  0  0  0  0  0  0  0  0  0  0
  195.8840  175.2810  136.8590 O   0  0  0  0  0  1  0  0  0  0  0  0
  196.3010  174.0250  138.8560 C   0  0  0  0  0  2  0  0  0  0  0  0
  196.7190  174.8470  140.0670 C   0  0  0  0  0  1  0  0  0  0  0  0
  189.7990  176.1600  138.1680 C   0  0  0  0  0  2  0  0  0  0  0  0
  189.4060  177.4270  138.6100 O   0  0  0  0  0  0  0  0  0  0  0  0
  188.1080  178.5340  140.2850 C   0  0  0  0  0  3  0  0  0  0  0  0
  189.4150  176.6360  140.7670 O   0  0  0  0  0  0  0  0  0  0  0  0
  189.5420  177.4900  141.8350 C   0  0  0  0  0  0  0  0  0  0  0  0
  190.2750  177.1890  142.8680 N   0  0  0  0  0  0  0  0  0  0  0  0
  188.6150  177.1930  139.7390 C   0  0  2  0  0  3  0  0  0  0  0  0
  188.7800  178.7460  141.6410 C   0  0  0  0  0  3  0  0  0  0  0  0
  190.9850  179.4000  143.8870 C   0  0  0  0  0  2  0  0  0  0  0  0
  191.9600  178.3420  144.4050 C   0  0  0  0  0  2  0  0  0  0  0  0
  190.5270  177.9700  144.0880 C   0  0  0  0  0  0  0  0  0  0  0  0
  188.2440  177.8950  145.1090 C   0  0  0  0  0  3  0  0  0  0  0  0
  189.6260  177.7130  145.2530 C   0  0  0  0  0  0  0  0  0  0  0  0
  191.4720  176.9910  146.6130 F   0  0  0  0  0  0  0  0  0  0  0  0
  187.8960  177.1290  147.3790 C   0  0  0  0  0  3  0  0  0  0  0  0
  187.3820  177.6100  146.1730 C   0  0  0  0  0  3  0  0  0  0  0  0
  190.1390  177.2100  146.4640 C   0  0  0  0  0  0  0  0  0  0  0  0
  189.2730  176.9270  147.5240 C   0  0  0  0  0  3  0  0  0  0  0  0
  1  3  1  0  0  0  0
  1  2  1  0  0  0  0
  1 12  1  1  0  0  0
  2 31  1  6  0  0  0
  2 14  1  0  0  0  0
  3 13  1  1  0  0  0
  3  9  1  0  0  0  0
  5  4  2  0  0  0  0
  6  4  1  0  0  0  0
  7  5  1  0  0  0  0
  9 14  1  0  0  0  0
  9 50  1  1  0  0  0
 10  7  1  1  0  0  0
 10  6  1  0  0  0  0
 10  8  1  0  0  0  0
 11  7  2  0  0  0  0
 11 15  1  0  0  0  0
 12  6  2  0  0  0  0
 13  8  1  0  0  0  0
 15 17  1  0  0  0  0
 16 15  2  0  0  0  0
 17 20  1  0  0  0  0
 20 27  1  0  0  0  0
 21 20  2  0  0  0  0
 21 29  1  0  0  0  0
 22 26  1  6  0  0  0
 22 29  1  0  0  0  0
 23 25  1  0  0  0  0
 23 19  1  0  0  0  0
 24 19  1  6  0  0  0
 24 21  1  0  0  0  0
 24 22  1  0  0  0  0
 25 26  1  0  0  0  0
 27 30  2  0  0  0  0
 28 18  2  0  0  0  0
 29 28  1  0  0  0  0
 30 18  1  0  0  0  0
 32 31  1  0  0  0  0
 32 33  1  0  0  0  0
 33 34  1  0  0  0  0
 35 34  1  0  0  0  0
 36 41  2  6  0  0  0
 36 37  1  0  0  0  0
 36 46  1  0  0  0  0
 38 42  1  6  0  0  0
 38 37  1  0  0  0  0
 39 35  1  1  0  0  0
 39 38  1  0  0  0  0
 40 39  1  0  0  0  0
 40 36  1  0  0  0  0
 42 43  1  0  0  0  0
 44 42  2  0  0  0  0
 46 45  1  0  0  0  0
 46 48  1  0  0  0  0
 47 46  1  0  0  0  0
 48 49  1  0  0  0  0
 50 51  1  0  0  0  0
 52 57  2  0  0  0  0
 53 54  1  0  0  0  0
 54 55  2  0  0  0  0
 55 60  1  0  0  0  0
 56 51  1  6  0  0  0
 56 52  1  0  0  0  0
 56 53  1  0  0  0  0
 57 54  1  0  0  0  0
 58 60  1  0  0  0  0
 58 59  1  0  0  0  0
 60 59  1  0  0  0  0
 60 62  1  0  0  0  0
 61 62  2  0  0  0  0
 61 65  1  0  0  0  0
 62 66  1  0  0  0  0
 64 67  1  0  0  0  0
 65 64  2  0  0  0  0
 66 63  1  0  0  0  0
 66 67  2  0  0  0  0
M  END
>  <MODEL>
3

>  <REMARK>
 VINA RESULT:      -8.2      1.466      2.134
  Name = 
  16 active torsions:
  status: ('A' for Active; 'I' for Inactive)
    1  A    between atoms: C_3  and  C_31
    2  A    between atoms: C_5  and  N_32
    3  A    between atoms: C_6  and  N_43
    4  A    between atoms: C_7  and  N_32
    5  A    between atoms: C_7  and  O_41
    6  A    between atoms: C_13  and  N_33
    7  A    between atoms: P_16  and  C_62
    8  A    between atoms: C_19  and  C_66
    9  A    between atoms: O_36  and  C_45
   10  A    between atoms: O_36  and  C_57
   11  A    between atoms: C_38  and  C_45
   12  A    between atoms: O_41  and  C_61
   13  A    between atoms: C_44  and  C_67
   14  A    between atoms: N_53  and  C_66
   15  A    between atoms: C_54  and  C_62
   16  A    between atoms: C_61  and  C_67
                            x       y       z     vdW  Elec       q    Type
                         _______ _______ _______ _____ _____    ______ ____

>  <TORSDO>
F 16

$$$$
=
 OpenBabel10232409163D

 67 76  0  0  1  0  0  0  0  0999 V2000
  188.7300  175.5780  135.4300 C   0  0  2  0  0  3  0  0  0  0  0  0
  190.0840  175.8840  136.0500 C   0  0  2  0  0  3  0  0  0  0  0  0
  188.1350  176.9590  135.3900 C   0  0  2  0  0  3  0  0  0  0  0  0
  186.2180  173.3370  137.4100 C   0  0  0  0  0  3  0  0  0  0  0  0
  184.7050  173.4550  137.3270 C   0  0  0  0  0  3  0  0  0  0  0  0
  186.7450  174.3650  136.4640 C   0  0  0  0  0  0  0  0  0  0  0  0
  184.4510  174.5710  136.3650 C   0  0  0  0  0  0  0  0  0  0  0  0
  185.8030  176.5430  136.1250 N   0  0  0  0  0  2  0  0  0  0  0  0
  188.8070  177.7290  136.5010 C   0  0  2  0  0  3  0  0  0  0  0  0
  185.6840  175.1410  135.7680 C   0  0  1  0  0  3  0  0  0  0  0  0
  183.2790  175.0900  136.1330 N   0  0  0  0  0  0  0  0  0  0  0  0
  188.0580  174.5950  136.3550 C   0  0  0  0  0  3  0  0  0  0  0  0
  186.6400  177.1670  135.1140 C   0  0  0  0  0  2  0  0  0  0  0  0
  190.0710  177.1400  136.7090 O   0  0  0  0  0  0  0  0  0  0  0  0
  182.0300  174.6120  136.6570 C   0  0  0  0  0  0  0  0  0  0  0  0
  181.8630  173.3850  136.8900 O   0  0  0  0  0  0  0  0  0  0  0  0
  180.9370  175.5100  136.8850 N   0  0  0  0  0  2  0  0  0  0  0  0
  181.0750  180.2070  136.6030 C   0  0  0  0  0  3  0  0  0  0  0  0
  180.9970  176.2700  140.2110 C   0  0  0  0  0  2  0  0  0  0  0  0
  181.0000  176.9390  136.9730 C   0  0  0  0  0  0  0  0  0  0  0  0
  181.5090  177.4790  138.0690 C   0  0  0  0  0  0  0  0  0  0  0  0
  182.3180  178.3850  139.7300 C   0  0  2  0  0  3  0  0  0  0  0  0
  179.9830  177.1500  140.6150 O   0  0  0  0  0  0  0  0  0  0  0  0
  182.0680  176.9910  139.3720 C   0  0  1  0  0  3  0  0  0  0  0  0
  180.5830  177.9680  141.5750 C   0  0  0  0  0  2  0  0  0  0  0  0
  181.4890  178.9860  140.8870 C   0  0  0  0  0  2  0  0  0  0  0  0
  180.5700  177.7900  135.8440 C   0  0  0  0  0  3  0  0  0  0  0  0
  181.6030  180.1120  137.8250 C   0  0  0  0  0  3  0  0  0  0  0  0
  181.7890  178.8650  138.4680 N   0  0  0  0  0  0  0  0  0  0  0  0
  180.6020  179.1260  135.7000 C   0  0  0  0  0  3  0  0  0  0  0  0
  191.1350  175.8680  135.0400 N   0  0  0  0  0  2  0  0  0  0  0  0
  192.4240  175.9080  135.7140 C   0  0  0  0  0  2  0  0  0  0  0  0
  193.4580  176.0500  134.7780 O   0  0  0  0  0  0  0  0  0  0  0  0
  194.5040  175.2660  135.2620 C   0  0  0  0  0  2  0  0  0  0  0  0
  194.7260  175.5500  136.7430 C   0  0  0  0  0  2  0  0  0  0  0  0
  195.3330  171.9390  137.4270 P   0  0  2  0  0  0  0  0  0  0  0  0
  196.8710  172.5330  137.1100 O   0  0  0  0  0  0  0  0  0  0  0  0
  196.6140  173.8630  136.7710 C   0  0  1  0  0  3  0  0  0  0  0  0
  195.3310  174.3520  137.4680 C   0  0  2  0  0  3  0  0  0  0  0  0
  194.3910  173.3200  137.5840 O   0  0  0  0  0  0  0  0  0  0  0  0
  195.3280  171.1550  138.7200 O   0  0  0  0  0  0  0  0  0  0  0  0
  197.7730  174.7190  137.1600 C   0  0  0  0  0  0  0  0  0  0  0  0
  197.8800  175.2090  138.4560 O   0  0  0  0  0  1  0  0  0  0  0  0
  198.6450  175.0300  136.3010 O   0  0  0  0  0  0  0  0  0  0  0  0
  195.7520  170.8560  135.0720 O   0  0  0  0  0  1  0  0  0  0  0  0
  194.7500  170.9210  136.0410 C   0  0  0  0  0  0  0  0  0  0  0  0
  194.4700  169.6340  136.5060 O   0  0  0  0  0  1  0  0  0  0  0  0
  193.4920  171.5500  135.4520 C   0  0  0  0  0  2  0  0  0  0  0  0
  192.4810  170.4950  135.0250 C   0  0  0  0  0  1  0  0  0  0  0  0
  188.0220  177.6870  137.8040 C   0  0  0  0  0  2  0  0  0  0  0  0
  188.9130  177.5920  138.8780 O   0  0  0  0  0  0  0  0  0  0  0  0
  187.8690  178.8690  140.6090 C   0  0  0  0  0  3  0  0  0  0  0  0
  188.8020  176.7450  141.0100 O   0  0  0  0  0  0  0  0  0  0  0  0
  189.1010  177.5250  142.1010 C   0  0  0  0  0  0  0  0  0  0  0  0
  189.7780  177.0580  143.1100 N   0  0  0  0  0  0  0  0  0  0  0  0
  188.1070  177.4750  140.0150 C   0  0  2  0  0  3  0  0  0  0  0  0
  188.5870  178.9070  141.9570 C   0  0  0  0  0  3  0  0  0  0  0  0
  190.8600  179.0850  144.1810 C   0  0  0  0  0  2  0  0  0  0  0  0
  191.6720  177.8670  144.6220 C   0  0  0  0  0  2  0  0  0  0  0  0
  190.1890  177.7370  144.3470 C   0  0  0  0  0  0  0  0  0  0  0  0
  189.8640  177.3860  146.8030 C   0  0  0  0  0  3  0  0  0  0  0  0
  189.2970  177.5750  145.5360 C   0  0  0  0  0  0  0  0  0  0  0  0
  187.3300  177.9140  144.1960 F   0  0  0  0  0  0  0  0  0  0  0  0
  187.6590  177.3830  147.8020 C   0  0  0  0  0  3  0  0  0  0  0  0
  189.0460  177.2830  147.9330 C   0  0  0  0  0  3  0  0  0  0  0  0
  187.8990  177.6940  145.4100 C   0  0  0  0  0  0  0  0  0  0  0  0
  187.0860  177.5910  146.5420 C   0  0  0  0  0  3  0  0  0  0  0  0
  1  2  1  0  0  0  0
  1 12  1  1  0  0  0
  2 31  1  6  0  0  0
  2 14  1  0  0  0  0
  3 13  1  1  0  0  0
  3  1  1  0  0  0  0
  3  9  1  0  0  0  0
  5  4  2  0  0  0  0
  6  4  1  0  0  0  0
  7  5  1  0  0  0  0
  9 14  1  0  0  0  0
  9 50  1  1  0  0  0
 10  8  1  1  0  0  0
 10  7  1  0  0  0  0
 10  6  1  0  0  0  0
 11  7  2  0  0  0  0
 11 15  1  0  0  0  0
 12  6  2  0  0  0  0
 13  8  1  0  0  0  0
 15 17  1  0  0  0  0
 15 16  2  0  0  0  0
 17 20  1  0  0  0  0
 18 28  2  0  0  0  0
 19 23  1  0  0  0  0
 20 21  2  0  0  0  0
 21 29  1  0  0  0  0
 21 24  1  0  0  0  0
 22 26  1  1  0  0  0
 23 25  1  0  0  0  0
 24 22  1  0  0  0  0
 24 19  1  1  0  0  0
 26 25  1  0  0  0  0
 27 20  1  0  0  0  0
 28 29  1  0  0  0  0
 29 22  1  0  0  0  0
 30 27  2  0  0  0  0
 30 18  1  0  0  0  0
 31 32  1  0  0  0  0
 33 34  1  0  0  0  0
 33 32  1  0  0  0  0
 34 35  1  0  0  0  0
 36 40  1  0  0  0  0
 36 41  2  1  0  0  0
 37 36  1  0  0  0  0
 38 37  1  0  0  0  0
 38 42  1  1  0  0  0
 38 39  1  0  0  0  0
 39 35  1  6  0  0  0
 39 40  1  0  0  0  0
 42 43  1  0  0  0  0
 44 42  2  0  0  0  0
 45 46  1  0  0  0  0
 46 47  1  0  0  0  0
 46 36  1  0  0  0  0
 48 46  1  0  0  0  0
 49 48  1  0  0  0  0
 50 51  1  0  0  0  0
 52 57  2  0  0  0  0
 53 54  1  0  0  0  0
 54 55  2  0  0  0  0
 55 60  1  0  0  0  0
 56 51  1  6  0  0  0
 56 52  1  0  0  0  0
 56 53  1  0  0  0  0
 57 54  1  0  0  0  0
 58 60  1  0  0  0  0
 58 59  1  0  0  0  0
 60 59  1  0  0  0  0
 60 62  1  0  0  0  0
 61 65  1  0  0  0  0
 62 61  2  0  0  0  0
 63 66  1  0  0  0  0
 64 65  2  0  0  0  0
 66 62  1  0  0  0  0
 66 67  2  0  0  0  0
 67 64  1  0  0  0  0
M  END
>  <MODEL>
4

>  <REMARK>
 VINA RESULT:      -8.0      1.249      2.603
  Name = 
  16 active torsions:
  status: ('A' for Active; 'I' for Inactive)
    1  A    between atoms: C_3  and  C_31
    2  A    between atoms: C_5  and  N_32
    3  A    between atoms: C_6  and  N_43
    4  A    between atoms: C_7  and  N_32
    5  A    between atoms: C_7  and  O_41
    6  A    between atoms: C_13  and  N_33
    7  A    between atoms: P_16  and  C_62
    8  A    between atoms: C_19  and  C_66
    9  A    between atoms: O_36  and  C_45
   10  A    between atoms: O_36  and  C_57
   11  A    between atoms: C_38  and  C_45
   12  A    between atoms: O_41  and  C_61
   13  A    between atoms: C_44  and  C_67
   14  A    between atoms: N_53  and  C_66
   15  A    between atoms: C_54  and  C_62
   16  A    between atoms: C_61  and  C_67
                            x       y       z     vdW  Elec       q    Type
                         _______ _______ _______ _____ _____    ______ ____

>  <TORSDO>
F 16

$$$$
=
 OpenBabel10232409163D

 67 76  0  0  1  0  0  0  0  0999 V2000
  188.9100  176.6040  137.3500 C   0  0  2  0  0  3  0  0  0  0  0  0
  189.7870  176.4920  138.5860 C   0  0  2  0  0  3  0  0  0  0  0  0
  188.3430  177.9830  137.5470 C   0  0  2  0  0  3  0  0  0  0  0  0
  185.8650  174.1870  136.9770 C   0  0  0  0  0  3  0  0  0  0  0  0
  184.5720  174.5320  136.2560 C   0  0  0  0  0  3  0  0  0  0  0  0
  186.7310  175.3940  136.8290 C   0  0  0  0  0  0  0  0  0  0  0  0
  184.7570  175.9330  135.7670 C   0  0  0  0  0  0  0  0  0  0  0  0
  185.9660  177.6650  136.9150 N   0  0  0  0  0  2  0  0  0  0  0  0
  188.3660  178.2280  139.0360 C   0  0  2  0  0  3  0  0  0  0  0  0
  186.0980  176.4980  136.0600 C   0  0  1  0  0  3  0  0  0  0  0  0
  183.8160  176.6550  135.2300 N   0  0  0  0  0  0  0  0  0  0  0  0
  187.9250  175.4660  137.4300 C   0  0  0  0  0  3  0  0  0  0  0  0
  187.1540  178.4750  136.7110 C   0  0  0  0  0  2  0  0  0  0  0  0
  189.4010  177.4370  139.5720 O   0  0  0  0  0  0  0  0  0  0  0  0
  182.4920  176.2020  134.9040 C   0  0  0  0  0  0  0  0  0  0  0  0
  182.3190  175.0860  134.3460 O   0  0  0  0  0  0  0  0  0  0  0  0
  181.3490  177.0250  135.1660 N   0  0  0  0  0  2  0  0  0  0  0  0
  181.1190  181.0770  137.5520 C   0  0  0  0  0  3  0  0  0  0  0  0
  181.0930  175.7940  138.3380 C   0  0  0  0  0  2  0  0  0  0  0  0
  181.2870  178.1610  136.0380 C   0  0  0  0  0  0  0  0  0  0  0  0
  181.6650  178.0080  137.2980 C   0  0  0  0  0  0  0  0  0  0  0  0
  182.2660  177.8500  139.2580 C   0  0  2  0  0  3  0  0  0  0  0  0
  179.9820  176.2700  139.0490 O   0  0  0  0  0  0  0  0  0  0  0  0
  182.1620  176.8890  138.1630 C   0  0  1  0  0  3  0  0  0  0  0  0
  180.4370  176.4260  140.3600 C   0  0  0  0  0  2  0  0  0  0  0  0
  181.3060  177.6780  140.4560 C   0  0  0  0  0  2  0  0  0  0  0  0
  180.8750  179.4870  135.5310 C   0  0  0  0  0  3  0  0  0  0  0  0
  181.5580  180.3280  138.5650 C   0  0  0  0  0  3  0  0  0  0  0  0
  181.7970  178.9400  138.4250 N   0  0  0  0  0  0  0  0  0  0  0  0
  180.8060  180.6750  136.1560 C   0  0  0  0  0  3  0  0  0  0  0  0
  191.1930  176.6780  138.2470 N   0  0  0  0  0  2  0  0  0  0  0  0
  191.3460  176.5210  136.8090 C   0  0  0  0  0  2  0  0  0  0  0  0
  192.4810  175.7490  136.5230 O   0  0  0  0  0  0  0  0  0  0  0  0
  192.0730  174.8430  135.5450 C   0  0  0  0  0  2  0  0  0  0  0  0
  193.1630  174.6890  134.4900 C   0  0  0  0  0  2  0  0  0  0  0  0
  195.7560  172.9260  136.5020 P   0  0  2  0  0  0  0  0  0  0  0  0
  194.4810  171.8320  136.4760 O   0  0  0  0  0  0  0  0  0  0  0  0
  193.4910  172.5440  135.7940 C   0  0  1  0  0  3  0  0  0  0  0  0
  194.1320  173.5620  134.8340 C   0  0  2  0  0  3  0  0  0  0  0  0
  195.3230  174.0790  135.3600 O   0  0  0  0  0  0  0  0  0  0  0  0
  197.0420  172.2450  136.0920 O   0  0  0  0  0  0  0  0  0  0  0  0
  192.6150  171.5990  135.0400 C   0  0  0  0  0  0  0  0  0  0  0  0
  191.2350  171.7520  135.0630 O   0  0  0  0  0  1  0  0  0  0  0  0
  193.1260  170.6340  134.4060 O   0  0  0  0  0  0  0  0  0  0  0  0
  195.2950  174.9340  138.1290 O   0  0  0  0  0  1  0  0  0  0  0  0
  195.9080  173.6800  138.1460 C   0  0  0  0  0  0  0  0  0  0  0  0
  195.2680  172.8650  139.0830 O   0  0  0  0  0  1  0  0  0  0  0  0
  197.3840  173.8230  138.4980 C   0  0  0  0  0  2  0  0  0  0  0  0
  198.1180  174.7100  137.5010 C   0  0  0  0  0  1  0  0  0  0  0  0
  187.0550  177.8510  139.7140 C   0  0  0  0  0  2  0  0  0  0  0  0
  186.5320  178.9730  140.3640 O   0  0  0  0  0  0  0  0  0  0  0  0
  184.8700  179.6460  141.9460 C   0  0  0  0  0  3  0  0  0  0  0  0
  186.0990  177.6530  142.1930 O   0  0  0  0  0  0  0  0  0  0  0  0
  185.9660  178.1990  143.4470 C   0  0  0  0  0  0  0  0  0  0  0  0
  186.4680  177.6210  144.5010 N   0  0  0  0  0  0  0  0  0  0  0  0
  185.5230  178.4770  141.1970 C   0  0  2  0  0  3  0  0  0  0  0  0
  185.2280  179.4820  143.4230 C   0  0  0  0  0  3  0  0  0  0  0  0
  185.1380  177.7900  146.6530 C   0  0  0  0  0  2  0  0  0  0  0  0
  185.5250  179.2160  146.2600 C   0  0  0  0  0  2  0  0  0  0  0  0
  186.4280  178.0540  145.9050 C   0  0  0  0  0  0  0  0  0  0  0  0
  187.7330  178.3700  148.0170 C   0  0  0  0  0  3  0  0  0  0  0  0
  187.6950  177.9240  146.6880 C   0  0  0  0  0  0  0  0  0  0  0  0
  188.7940  176.8110  144.8630 F   0  0  0  0  0  0  0  0  0  0  0  0
  190.0160  177.5910  148.2230 C   0  0  0  0  0  3  0  0  0  0  0  0
  188.8950  178.2090  148.7800 C   0  0  0  0  0  3  0  0  0  0  0  0
  188.8220  177.2840  146.1370 C   0  0  0  0  0  0  0  0  0  0  0  0
  189.9790  177.1260  146.9040 C   0  0  0  0  0  3  0  0  0  0  0  0
  1 12  1  1  0  0  0
  1  3  1  0  0  0  0
  1  2  1  0  0  0  0
  2 31  1  6  0  0  0
  2 14  1  0  0  0  0
  3 13  1  1  0  0  0
  3  9  1  0  0  0  0
  5  4  2  0  0  0  0
  6  4  1  0  0  0  0
  6 12  2  0  0  0  0
  7  5  1  0  0  0  0
  9 14  1  0  0  0  0
  9 50  1  1  0  0  0
 10  7  1  1  0  0  0
 10  6  1  0  0  0  0
 10  8  1  0  0  0  0
 11  7  2  0  0  0  0
 13  8  1  0  0  0  0
 15 17  1  0  0  0  0
 15 11  1  0  0  0  0
 16 15  2  0  0  0  0
 17 20  1  0  0  0  0
 18 28  2  0  0  0  0
 19 23  1  0  0  0  0
 20 21  2  0  0  0  0
 21 24  1  0  0  0  0
 21 29  1  0  0  0  0
 22 26  1  1  0  0  0
 23 25  1  0  0  0  0
 24 19  1  1  0  0  0
 24 22  1  0  0  0  0
 25 26  1  0  0  0  0
 27 20  1  0  0  0  0
 27 30  2  0  0  0  0
 29 28  1  0  0  0  0
 29 22  1  0  0  0  0
 30 18  1  0  0  0  0
 32 31  1  0  0  0  0
 33 32  1  0  0  0  0
 34 33  1  0  0  0  0
 35 34  1  0  0  0  0
 36 41  2  6  0  0  0
 36 46  1  0  0  0  0
 37 36  1  0  0  0  0
 38 42  1  6  0  0  0
 38 37  1  0  0  0  0
 39 35  1  1  0  0  0
 39 40  1  0  0  0  0
 39 38  1  0  0  0  0
 40 36  1  0  0  0  0
 42 43  1  0  0  0  0
 44 42  2  0  0  0  0
 45 46  1  0  0  0  0
 46 48  1  0  0  0  0
 46 47  1  0  0  0  0
 49 48  1  0  0  0  0
 50 51  1  0  0  0  0
 52 57  2  0  0  0  0
 53 54  1  0  0  0  0
 54 55  2  0  0  0  0
 55 60  1  0  0  0  0
 56 51  1  6  0  0  0
 56 52  1  0  0  0  0
 56 53  1  0  0  0  0
 57 54  1  0  0  0  0
 59 58  1  0  0  0  0
 60 59  1  0  0  0  0
 60 58  1  0  0  0  0
 60 62  1  0  0  0  0
 61 65  1  0  0  0  0
 62 61  2  0  0  0  0
 63 66  1  0  0  0  0
 64 65  2  0  0  0  0
 66 62  1  0  0  0  0
 66 67  2  0  0  0  0
 67 64  1  0  0  0  0
M  END
>  <MODEL>
5

>  <REMARK>
 VINA RESULT:      -7.6      2.038      2.908
  Name = 
  16 active torsions:
  status: ('A' for Active; 'I' for Inactive)
    1  A    between atoms: C_3  and  C_31
    2  A    between atoms: C_5  and  N_32
    3  A    between atoms: C_6  and  N_43
    4  A    between atoms: C_7  and  N_32
    5  A    between atoms: C_7  and  O_41
    6  A    between atoms: C_13  and  N_33
    7  A    between atoms: P_16  and  C_62
    8  A    between atoms: C_19  and  C_66
    9  A    between atoms: O_36  and  C_45
   10  A    between atoms: O_36  and  C_57
   11  A    between atoms: C_38  and  C_45
   12  A    between atoms: O_41  and  C_61
   13  A    between atoms: C_44  and  C_67
   14  A    between atoms: N_53  and  C_66
   15  A    between atoms: C_54  and  C_62
   16  A    between atoms: C_61  and  C_67
                            x       y       z     vdW  Elec       q    Type
                         _______ _______ _______ _____ _____    ______ ____

>  <TORSDO>
F 16

$$$$
=
 OpenBabel10232409163D

 67 76  0  0  1  0  0  0  0  0999 V2000
  190.4490  175.5140  135.2870 C   0  0  2  0  0  3  0  0  0  0  0  0
  191.9180  175.5130  135.6800 C   0  0  2  0  0  3  0  0  0  0  0  0
  189.9580  176.6910  136.0840 C   0  0  2  0  0  3  0  0  0  0  0  0
  188.2280  172.4680  136.3060 C   0  0  0  0  0  3  0  0  0  0  0  0
  186.7410  172.5480  136.6110 C   0  0  0  0  0  3  0  0  0  0  0  0
  188.6280  173.8570  135.9360 C   0  0  0  0  0  0  0  0  0  0  0  0
  186.3800  173.9870  136.4330 C   0  0  0  0  0  0  0  0  0  0  0  0
  187.7950  175.8570  136.9650 N   0  0  0  0  0  2  0  0  0  0  0  0
  190.8900  176.8050  137.2650 C   0  0  2  0  0  3  0  0  0  0  0  0
  187.5080  174.8360  135.9730 C   0  0  1  0  0  3  0  0  0  0  0  0
  185.2260  174.5010  136.7490 N   0  0  0  0  0  0  0  0  0  0  0  0
  189.9070  174.1670  135.6920 C   0  0  0  0  0  3  0  0  0  0  0  0
  188.4570  176.9480  136.2690 C   0  0  0  0  0  2  0  0  0  0  0  0
  192.1250  176.2480  136.8760 O   0  0  0  0  0  0  0  0  0  0  0  0
  184.0750  173.7690  137.1980 C   0  0  0  0  0  0  0  0  0  0  0  0
  184.2130  172.6860  137.8260 O   0  0  0  0  0  0  0  0  0  0  0  0
  182.7510  174.2300  136.9060 N   0  0  0  0  0  2  0  0  0  0  0  0
  181.5260  178.3460  134.9770 C   0  0  0  0  0  3  0  0  0  0  0  0
  182.0550  175.9950  139.7420 C   0  0  0  0  0  2  0  0  0  0  0  0
  182.3700  175.5450  136.4820 C   0  0  0  0  0  0  0  0  0  0  0  0
  182.5160  176.5480  137.3360 C   0  0  0  0  0  0  0  0  0  0  0  0
  182.7440  178.1550  138.5990 C   0  0  2  0  0  3  0  0  0  0  0  0
  180.7750  176.5650  139.7620 O   0  0  0  0  0  0  0  0  0  0  0  0
  182.9810  176.7220  138.7500 C   0  0  1  0  0  3  0  0  0  0  0  0
  180.9440  177.7990  140.3930 C   0  0  0  0  0  2  0  0  0  0  0  0
  181.6030  178.7830  139.4290 C   0  0  0  0  0  2  0  0  0  0  0  0
  181.8910  175.7920  135.1060 C   0  0  0  0  0  3  0  0  0  0  0  0
  181.8580  178.8320  136.1740 C   0  0  0  0  0  3  0  0  0  0  0  0
  182.3030  177.9970  137.2270 N   0  0  0  0  0  0  0  0  0  0  0  0
  181.5450  176.9400  134.4980 C   0  0  0  0  0  3  0  0  0  0  0  0
  192.7440  176.0650  134.6130 N   0  0  0  0  0  2  0  0  0  0  0  0
  193.9890  176.5450  135.1930 C   0  0  0  0  0  2  0  0  0  0  0  0
  195.0840  176.0540  134.4670 O   0  0  0  0  0  0  0  0  0  0  0  0
  195.9620  175.5470  135.4240 C   0  0  0  0  0  2  0  0  0  0  0  0
  196.1620  174.0520  135.2060 C   0  0  0  0  0  2  0  0  0  0  0  0
  196.0800  171.0450  137.4040 P   0  0  2  0  0  0  0  0  0  0  0  0
  196.8180  172.2050  138.3690 O   0  0  0  0  0  0  0  0  0  0  0  0
  196.9190  173.2950  137.5010 C   0  0  1  0  0  3  0  0  0  0  0  0
  195.7980  173.2420  136.4470 C   0  0  2  0  0  3  0  0  0  0  0  0
  195.4880  171.9210  136.1000 O   0  0  0  0  0  0  0  0  0  0  0  0
  194.9420  170.3860  138.1490 O   0  0  0  0  0  0  0  0  0  0  0  0
  196.8430  174.5680  138.2760 C   0  0  0  0  0  0  0  0  0  0  0  0
  197.9560  175.3930  138.3800 O   0  0  0  0  0  0  0  0  0  0  0  0
  195.7740  174.8830  138.8700 O   0  0  0  0  0  1  0  0  0  0  0  0
  198.4790  169.9900  137.5700 O   0  0  0  0  0  1  0  0  0  0  0  0
  197.2980  169.8170  136.8490 C   0  0  0  0  0  0  0  0  0  0  0  0
  196.7930  168.5360  137.0860 O   0  0  0  0  0  1  0  0  0  0  0  0
  197.5600  170.0100  135.3590 C   0  0  0  0  0  2  0  0  0  0  0  0
  198.6910  169.1180  134.8660 C   0  0  0  0  0  1  0  0  0  0  0  0
  190.3790  176.0630  138.4920 C   0  0  0  0  0  2  0  0  0  0  0  0
  190.5500  176.8680  139.6230 O   0  0  0  0  0  0  0  0  0  0  0  0
  189.1470  178.5720  140.5430 C   0  0  0  0  0  3  0  0  0  0  0  0
  189.0380  176.3350  141.2690 O   0  0  0  0  0  0  0  0  0  0  0  0
  188.8950  177.1240  142.3840 C   0  0  0  0  0  0  0  0  0  0  0  0
  188.7310  176.6100  143.5690 N   0  0  0  0  0  0  0  0  0  0  0  0
  189.2570  177.1060  140.1020 C   0  0  2  0  0  3  0  0  0  0  0  0
  188.9730  178.5680  142.0610 C   0  0  0  0  0  3  0  0  0  0  0  0
  189.7120  178.1740  145.3070 C   0  0  0  0  0  2  0  0  0  0  0  0
  189.4430  176.8440  146.0120 C   0  0  0  0  0  2  0  0  0  0  0  0
  188.5660  177.2910  144.8620 C   0  0  0  0  0  0  0  0  0  0  0  0
  186.9140  178.1910  146.5130 C   0  0  0  0  0  3  0  0  0  0  0  0
  187.1880  177.7560  145.2090 C   0  0  0  0  0  0  0  0  0  0  0  0
  186.4400  177.4620  142.9430 F   0  0  0  0  0  0  0  0  0  0  0  0
  184.6480  178.7440  145.8660 C   0  0  0  0  0  3  0  0  0  0  0  0
  185.6450  178.6770  146.8420 C   0  0  0  0  0  3  0  0  0  0  0  0
  186.1860  177.8430  144.2220 C   0  0  0  0  0  0  0  0  0  0  0  0
  184.9190  178.3300  144.5560 C   0  0  0  0  0  3  0  0  0  0  0  0
  1  2  1  0  0  0  0
  1 12  1  1  0  0  0
  1  3  1  0  0  0  0
  2 31  1  6  0  0  0
  2 14  1  0  0  0  0
  3 13  1  1  0  0  0
  3  9  1  0  0  0  0
  4  5  2  0  0  0  0
  6  4  1  0  0  0  0
  7  5  1  0  0  0  0
  7 11  2  0  0  0  0
  9 50  1  1  0  0  0
 10  6  1  1  0  0  0
 10  7  1  0  0  0  0
 10  8  1  0  0  0  0
 11 15  1  0  0  0  0
 12  6  2  0  0  0  0
 13  8  1  0  0  0  0
 14  9  1  0  0  0  0
 15 16  2  0  0  0  0
 17 15  1  0  0  0  0
 18 28  2  0  0  0  0
 19 23  1  0  0  0  0
 20 17  1  0  0  0  0
 20 21  2  0  0  0  0
 21 24  1  0  0  0  0
 22 24  1  0  0  0  0
 22 26  1  1  0  0  0
 23 25  1  0  0  0  0
 24 19  1  1  0  0  0
 26 25  1  0  0  0  0
 27 20  1  0  0  0  0
 28 29  1  0  0  0  0
 29 21  1  0  0  0  0
 29 22  1  0  0  0  0
 30 18  1  0  0  0  0
 30 27  2  0  0  0  0
 31 32  1  0  0  0  0
 33 32  1  0  0  0  0
 33 34  1  0  0  0  0
 35 34  1  0  0  0  0
 36 41  2  1  0  0  0
 36 37  1  0  0  0  0
 38 42  1  1  0  0  0
 38 37  1  0  0  0  0
 39 35  1  6  0  0  0
 39 38  1  0  0  0  0
 40 39  1  0  0  0  0
 40 36  1  0  0  0  0
 42 43  2  0  0  0  0
 42 44  1  0  0  0  0
 46 47  1  0  0  0  0
 46 36  1  0  0  0  0
 46 45  1  0  0  0  0
 48 46  1  0  0  0  0
 49 48  1  0  0  0  0
 50 51  1  0  0  0  0
 52 57  2  0  0  0  0
 53 54  1  0  0  0  0
 54 55  2  0  0  0  0
 55 60  1  0  0  0  0
 56 51  1  1  0  0  0
 56 52  1  0  0  0  0
 56 53  1  0  0  0  0
 57 54  1  0  0  0  0
 58 59  1  0  0  0  0
 60 62  1  0  0  0  0
 60 58  1  0  0  0  0
 60 59  1  0  0  0  0
 61 65  1  0  0  0  0
 62 61  2  0  0  0  0
 63 66  1  0  0  0  0
 64 65  2  0  0  0  0
 66 67  2  0  0  0  0
 66 62  1  0  0  0  0
 67 64  1  0  0  0  0
M  END
>  <MODEL>
6

>  <REMARK>
 VINA RESULT:      -7.5      1.970      3.232
  Name = 
  16 active torsions:
  status: ('A' for Active; 'I' for Inactive)
    1  A    between atoms: C_3  and  C_31
    2  A    between atoms: C_5  and  N_32
    3  A    between atoms: C_6  and  N_43
    4  A    between atoms: C_7  and  N_32
    5  A    between atoms: C_7  and  O_41
    6  A    between atoms: C_13  and  N_33
    7  A    between atoms: P_16  and  C_62
    8  A    between atoms: C_19  and  C_66
    9  A    between atoms: O_36  and  C_45
   10  A    between atoms: O_36  and  C_57
   11  A    between atoms: C_38  and  C_45
   12  A    between atoms: O_41  and  C_61
   13  A    between atoms: C_44  and  C_67
   14  A    between atoms: N_53  and  C_66
   15  A    between atoms: C_54  and  C_62
   16  A    between atoms: C_61  and  C_67
                            x       y       z     vdW  Elec       q    Type
                         _______ _______ _______ _____ _____    ______ ____

>  <TORSDO>
F 16

$$$$
=
 OpenBabel10232409163D

 67 76  0  0  1  0  0  0  0  0999 V2000
  188.7440  176.8660  137.5880 C   0  0  2  0  0  3  0  0  0  0  0  0
  189.5820  176.6820  138.8440 C   0  0  2  0  0  3  0  0  0  0  0  0
  188.1690  178.2310  137.8450 C   0  0  2  0  0  3  0  0  0  0  0  0
  185.7170  174.4750  136.9810 C   0  0  0  0  0  3  0  0  0  0  0  0
  184.4470  174.8610  136.2400 C   0  0  0  0  0  3  0  0  0  0  0  0
  186.5850  175.6880  136.9300 C   0  0  0  0  0  0  0  0  0  0  0  0
  184.6450  176.2870  135.8380 C   0  0  0  0  0  0  0  0  0  0  0  0
  185.8140  177.9500  137.1210 N   0  0  0  0  0  2  0  0  0  0  0  0
  188.1440  178.3910  139.3460 C   0  0  2  0  0  3  0  0  0  0  0  0
  185.9750  176.8340  136.2060 C   0  0  1  0  0  3  0  0  0  0  0  0
  183.7210  177.0390  135.3130 N   0  0  0  0  0  0  0  0  0  0  0  0
  187.7590  175.7250  137.5720 C   0  0  0  0  0  3  0  0  0  0  0  0
  187.0070  178.7710  137.0010 C   0  0  0  0  0  2  0  0  0  0  0  0
  189.1630  177.5700  139.8690 O   0  0  0  0  0  0  0  0  0  0  0  0
  182.4080  176.6060  134.9190 C   0  0  0  0  0  0  0  0  0  0  0  0
  182.2480  175.4960  134.3460 O   0  0  0  0  0  0  0  0  0  0  0  0
  181.2650  177.4430  135.1310 N   0  0  0  0  0  2  0  0  0  0  0  0
  180.9250  181.4780  137.5310 C   0  0  0  0  0  3  0  0  0  0  0  0
  181.1010  176.1970  138.3040 C   0  0  0  0  0  2  0  0  0  0  0  0
  181.1750  178.5730  136.0070 C   0  0  0  0  0  0  0  0  0  0  0  0
  181.5770  178.4320  137.2610 C   0  0  0  0  0  0  0  0  0  0  0  0
  182.2140  178.2910  139.2110 C   0  0  2  0  0  3  0  0  0  0  0  0
  179.9850  176.6300  139.0320 O   0  0  0  0  0  0  0  0  0  0  0  0
  182.1270  177.3300  138.1150 C   0  0  1  0  0  3  0  0  0  0  0  0
  180.4540  176.7990  140.3360 C   0  0  0  0  0  2  0  0  0  0  0  0
  181.2780  178.0820  140.4220 C   0  0  0  0  0  2  0  0  0  0  0  0
  180.7080  179.8850  135.5100 C   0  0  0  0  0  3  0  0  0  0  0  0
  181.4060  180.7440  138.5360 C   0  0  0  0  0  3  0  0  0  0  0  0
  181.6930  179.3650  138.3880 N   0  0  0  0  0  0  0  0  0  0  0  0
  180.6060  181.0680  136.1390 C   0  0  0  0  0  3  0  0  0  0  0  0
  190.9970  176.8870  138.5610 N   0  0  0  0  0  2  0  0  0  0  0  0
  191.2690  176.4300  137.2060 C   0  0  0  0  0  2  0  0  0  0  0  0
  191.1530  175.0350  137.1330 O   0  0  0  0  0  0  0  0  0  0  0  0
  192.4530  174.5500  137.2790 C   0  0  0  0  0  2  0  0  0  0  0  0
  193.3340  175.0760  136.1520 C   0  0  0  0  0  2  0  0  0  0  0  0
  196.8690  174.5610  137.2100 P   0  0  2  0  0  0  0  0  0  0  0  0
  197.0060  175.6330  135.9250 O   0  0  0  0  0  0  0  0  0  0  0  0
  195.6840  175.7460  135.4880 C   0  0  1  0  0  3  0  0  0  0  0  0
  194.7130  175.4930  136.6550 C   0  0  2  0  0  3  0  0  0  0  0  0
  195.2230  174.5370  137.5430 O   0  0  0  0  0  0  0  0  0  0  0  0
  197.6350  175.0740  138.4080 O   0  0  0  0  0  0  0  0  0  0  0  0
  195.4550  177.1020  134.9070 C   0  0  0  0  0  0  0  0  0  0  0  0
  194.2220  177.4310  134.3600 O   0  0  0  0  0  0  0  0  0  0  0  0
  196.3960  177.9440  134.8810 O   0  0  0  0  0  1  0  0  0  0  0  0
  196.9790  172.6280  135.4370 O   0  0  0  0  0  1  0  0  0  0  0  0
  197.4460  172.9100  136.7210 C   0  0  0  0  0  0  0  0  0  0  0  0
  198.8430  172.8980  136.7200 O   0  0  0  0  0  1  0  0  0  0  0  0
  196.9130  171.8800  137.7100 C   0  0  0  0  0  2  0  0  0  0  0  0
  196.0260  170.8480  137.0270 C   0  0  0  0  0  1  0  0  0  0  0  0
  186.8130  177.9760  139.9590 C   0  0  0  0  0  2  0  0  0  0  0  0
  186.1850  179.1010  140.5030 O   0  0  0  0  0  0  0  0  0  0  0  0
  185.1570  179.7480  142.5630 C   0  0  0  0  0  3  0  0  0  0  0  0
  186.1500  177.6330  142.2700 O   0  0  0  0  0  0  0  0  0  0  0  0
  186.4590  178.0470  143.5430 C   0  0  0  0  0  0  0  0  0  0  0  0
  187.1730  177.3130  144.3470 N   0  0  0  0  0  0  0  0  0  0  0  0
  185.4120  178.6130  141.5620 C   0  0  2  0  0  3  0  0  0  0  0  0
  185.9090  179.3890  143.8440 C   0  0  0  0  0  3  0  0  0  0  0  0
  186.5880  177.2970  146.8140 C   0  0  0  0  0  2  0  0  0  0  0  0
  186.9380  178.7410  146.4520 C   0  0  0  0  0  2  0  0  0  0  0  0
  187.6000  177.5900  145.7260 C   0  0  0  0  0  0  0  0  0  0  0  0
  189.3500  176.4930  147.1400 C   0  0  0  0  0  3  0  0  0  0  0  0
  189.0340  177.3230  146.0550 C   0  0  0  0  0  0  0  0  0  0  0  0
  189.7820  178.6020  144.1620 F   0  0  0  0  0  0  0  0  0  0  0  0
  191.7070  176.7080  146.6320 C   0  0  0  0  0  3  0  0  0  0  0  0
  190.6840  176.1930  147.4310 C   0  0  0  0  0  3  0  0  0  0  0  0
  190.0670  177.8250  145.2400 C   0  0  0  0  0  0  0  0  0  0  0  0
  191.3990  177.5210  145.5350 C   0  0  0  0  0  3  0  0  0  0  0  0
  1 12  1  1  0  0  0
  1  3  1  0  0  0  0
  1  2  1  0  0  0  0
  2 31  1  6  0  0  0
  2 14  1  0  0  0  0
  3 13  1  1  0  0  0
  3  9  1  0  0  0  0
  5  4  2  0  0  0  0
  6  4  1  0  0  0  0
  6 12  2  0  0  0  0
  7  5  1  0  0  0  0
  9 14  1  0  0  0  0
  9 50  1  1  0  0  0
 10  7  1  1  0  0  0
 10  6  1  0  0  0  0
 10  8  1  0  0  0  0
 11  7  2  0  0  0  0
 13  8  1  0  0  0  0
 15 17  1  0  0  0  0
 15 11  1  0  0  0  0
 16 15  2  0  0  0  0
 17 20  1  0  0  0  0
 18 28  2  0  0  0  0
 19 23  1  0  0  0  0
 20 21  2  0  0  0  0
 21 24  1  0  0  0  0
 21 29  1  0  0  0  0
 22 26  1  1  0  0  0
 23 25  1  0  0  0  0
 24 19  1  1  0  0  0
 24 22  1  0  0  0  0
 25 26  1  0  0  0  0
 27 20  1  0  0  0  0
 27 30  2  0  0  0  0
 29 28  1  0  0  0  0
 29 22  1  0  0  0  0
 30 18  1  0  0  0  0
 32 31  1  0  0  0  0
 33 32  1  0  0  0  0
 33 34  1  0  0  0  0
 35 34  1  0  0  0  0
 36 40  1  0  0  0  0
 36 41  2  1  0  0  0
 37 36  1  0  0  0  0
 38 42  1  1  0  0  0
 38 37  1  0  0  0  0
 38 39  1  0  0  0  0
 39 35  1  6  0  0  0
 39 40  1  0  0  0  0
 43 42  2  0  0  0  0
 44 42  1  0  0  0  0
 45 46  1  0  0  0  0
 46 36  1  0  0  0  0
 46 48  1  0  0  0  0
 47 46  1  0  0  0  0
 49 48  1  0  0  0  0
 50 51  1  0  0  0  0
 52 57  2  0  0  0  0
 53 54  1  0  0  0  0
 54 57  1  0  0  0  0
 54 55  2  0  0  0  0
 55 60  1  0  0  0  0
 56 51  1  6  0  0  0
 56 53  1  0  0  0  0
 56 52  1  0  0  0  0
 59 58  1  0  0  0  0
 60 62  1  0  0  0  0
 60 59  1  0  0  0  0
 60 58  1  0  0  0  0
 61 65  1  0  0  0  0
 62 61  2  0  0  0  0
 63 66  1  0  0  0  0
 64 65  2  0  0  0  0
 66 67  2  0  0  0  0
 66 62  1  0  0  0  0
 67 64  1  0  0  0  0
M  END
>  <MODEL>
7

>  <REMARK>
 VINA RESULT:      -7.5      2.082      3.512
  Name = 
  16 active torsions:
  status: ('A' for Active; 'I' for Inactive)
    1  A    between atoms: C_3  and  C_31
    2  A    between atoms: C_5  and  N_32
    3  A    between atoms: C_6  and  N_43
    4  A    between atoms: C_7  and  N_32
    5  A    between atoms: C_7  and  O_41
    6  A    between atoms: C_13  and  N_33
    7  A    between atoms: P_16  and  C_62
    8  A    between atoms: C_19  and  C_66
    9  A    between atoms: O_36  and  C_45
   10  A    between atoms: O_36  and  C_57
   11  A    between atoms: C_38  and  C_45
   12  A    between atoms: O_41  and  C_61
   13  A    between atoms: C_44  and  C_67
   14  A    between atoms: N_53  and  C_66
   15  A    between atoms: C_54  and  C_62
   16  A    between atoms: C_61  and  C_67
                            x       y       z     vdW  Elec       q    Type
                         _______ _______ _______ _____ _____    ______ ____

>  <TORSDO>
F 16

$$$$
=
 OpenBabel10232409163D

 67 76  0  0  1  0  0  0  0  0999 V2000
  188.5720  175.8070  135.3760 C   0  0  2  0  0  3  0  0  0  0  0  0
  187.6090  176.9350  135.0450 C   0  0  2  0  0  3  0  0  0  0  0  0
  188.4020  175.7380  136.8690 C   0  0  2  0  0  3  0  0  0  0  0  0
  192.3830  176.3290  134.7070 C   0  0  0  0  0  3  0  0  0  0  0  0
  193.4980  175.6890  135.5200 C   0  0  0  0  0  3  0  0  0  0  0  0
  191.1160  175.8150  135.3060 C   0  0  0  0  0  0  0  0  0  0  0  0
  192.8050  174.8730  136.5620 C   0  0  0  0  0  0  0  0  0  0  0  0
  190.7400  175.4530  137.6470 N   0  0  0  0  0  2  0  0  0  0  0  0
  187.9690  177.1190  137.2970 C   0  0  2  0  0  3  0  0  0  0  0  0
  191.3250  174.8830  136.4460 C   0  0  1  0  0  3  0  0  0  0  0  0
  193.4060  174.2860  137.5570 N   0  0  0  0  0  0  0  0  0  0  0  0
  189.9250  176.2520  134.8830 C   0  0  0  0  0  3  0  0  0  0  0  0
  189.3830  174.9420  137.7390 C   0  0  0  0  0  2  0  0  0  0  0  0
  187.3170  177.7110  136.1970 O   0  0  0  0  0  0  0  0  0  0  0  0
  194.8270  174.2160  137.7570 C   0  0  0  0  0  0  0  0  0  0  0  0
  195.4180  175.0870  138.4480 O   0  0  0  0  0  0  0  0  0  0  0  0
  195.6050  173.1820  137.1410 N   0  0  0  0  0  2  0  0  0  0  0  0
  193.5320  169.4450  135.1670 C   0  0  0  0  0  3  0  0  0  0  0  0
  198.1960  170.9660  137.2790 C   0  0  0  0  0  2  0  0  0  0  0  0
  195.1200  171.9560  136.5810 C   0  0  0  0  0  0  0  0  0  0  0  0
  195.7120  170.8250  136.9340 C   0  0  0  0  0  0  0  0  0  0  0  0
  196.5640  169.0300  137.4650 C   0  0  2  0  0  3  0  0  0  0  0  0
  198.5290  170.3970  136.0420 O   0  0  0  0  0  0  0  0  0  0  0  0
  196.8590  170.4180  137.8100 C   0  0  1  0  0  3  0  0  0  0  0  0
  198.8680  169.0750  136.3370 C   0  0  0  0  0  2  0  0  0  0  0  0
  197.6010  168.2690  136.6100 C   0  0  0  0  0  2  0  0  0  0  0  0
  193.9460  171.9420  135.6830 C   0  0  0  0  0  3  0  0  0  0  0  0
  194.4690  168.7660  135.8310 C   0  0  0  0  0  3  0  0  0  0  0  0
  195.4460  169.4140  136.6250 N   0  0  0  0  0  0  0  0  0  0  0  0
  193.3030  170.9120  135.1060 C   0  0  0  0  0  3  0  0  0  0  0  0
  186.3720  176.4150  134.4730 N   0  0  0  0  0  2  0  0  0  0  0  0
  185.2500  176.9860  135.2040 C   0  0  0  0  0  2  0  0  0  0  0  0
  184.1290  177.0890  134.3690 O   0  0  0  0  0  0  0  0  0  0  0  0
  183.1450  177.6970  135.1480 C   0  0  0  0  0  2  0  0  0  0  0  0
  183.3330  177.3190  136.6120 C   0  0  0  0  0  2  0  0  0  0  0  0
  181.9960  173.8650  137.0140 P   0  0  2  0  0  0  0  0  0  0  0  0
  182.1330  174.4090  138.5960 O   0  0  0  0  0  0  0  0  0  0  0  0
  182.7150  175.6680  138.4300 C   0  0  1  0  0  3  0  0  0  0  0  0
  182.3360  176.2540  137.0580 C   0  0  2  0  0  3  0  0  0  0  0  0
  182.2230  175.2480  136.0890 O   0  0  0  0  0  0  0  0  0  0  0  0
  180.6180  173.2960  136.7700 O   0  0  0  0  0  0  0  0  0  0  0  0
  182.2720  176.5810  139.5250 C   0  0  0  0  0  0  0  0  0  0  0  0
  183.2080  177.2480  140.3050 O   0  0  0  0  0  1  0  0  0  0  0  0
  181.0410  176.7230  139.7680 O   0  0  0  0  0  0  0  0  0  0  0  0
  182.8880  171.4000  137.1590 O   0  0  0  0  0  1  0  0  0  0  0  0
  183.2850  172.6380  136.6540 C   0  0  0  0  0  0  0  0  0  0  0  0
  183.4500  172.5430  135.2700 O   0  0  0  0  0  1  0  0  0  0  0  0
  184.5910  173.0760  137.3070 C   0  0  0  0  0  2  0  0  0  0  0  0
  185.6940  173.2880  136.2790 C   0  0  0  0  0  1  0  0  0  0  0  0
  189.1400  178.0010  137.7090 C   0  0  0  0  0  2  0  0  0  0  0  0
  188.8440  178.6210  138.9270 O   0  0  0  0  0  0  0  0  0  0  0  0
  186.8340  178.5930  140.2220 C   0  0  0  0  0  3  0  0  0  0  0  0
  188.6050  177.0970  140.6300 O   0  0  0  0  0  0  0  0  0  0  0  0
  188.1090  177.4730  141.8550 C   0  0  0  0  0  0  0  0  0  0  0  0
  188.6090  177.0120  142.9650 N   0  0  0  0  0  0  0  0  0  0  0  0
  187.9450  177.7620  139.5680 C   0  0  2  0  0  3  0  0  0  0  0  0
  186.9970  178.4430  141.7340 C   0  0  0  0  0  3  0  0  0  0  0  0
  186.8050  176.9080  144.7440 C   0  0  0  0  0  2  0  0  0  0  0  0
  187.1800  178.3820  144.5810 C   0  0  0  0  0  2  0  0  0  0  0  0
  188.2140  177.3010  144.3510 C   0  0  0  0  0  0  0  0  0  0  0  0
  188.9210  177.2710  146.7520 C   0  0  0  0  0  3  0  0  0  0  0  0
  189.2690  177.1470  145.4000 C   0  0  0  0  0  0  0  0  0  0  0  0
  190.9390  176.6340  143.7480 F   0  0  0  0  0  0  0  0  0  0  0  0
  191.1950  176.7500  147.3970 C   0  0  0  0  0  3  0  0  0  0  0  0
  189.8840  177.0790  147.7480 C   0  0  0  0  0  3  0  0  0  0  0  0
  190.5870  176.7950  145.0510 C   0  0  0  0  0  0  0  0  0  0  0  0
  191.5460  176.6050  146.0500 C   0  0  0  0  0  3  0  0  0  0  0  0
  1 12  1  1  0  0  0
  1  3  1  0  0  0  0
  2 31  1  1  0  0  0
  2  1  1  0  0  0  0
  2 14  1  0  0  0  0
  3  9  1  0  0  0  0
  3 13  1  1  0  0  0
  4  6  1  0  0  0  0
  4  5  2  0  0  0  0
  5  7  1  0  0  0  0
  7 11  2  0  0  0  0
  8 13  1  0  0  0  0
  9 50  1  6  0  0  0
 10  6  1  6  0  0  0
 10  7  1  0  0  0  0
 10  8  1  0  0  0  0
 11 15  1  0  0  0  0
 12  6  2  0  0  0  0
 14  9  1  0  0  0  0
 15 16  2  0  0  0  0
 17 15  1  0  0  0  0
 18 28  2  0  0  0  0
 20 21  2  0  0  0  0
 20 17  1  0  0  0  0
 21 24  1  0  0  0  0
 22 26  1  6  0  0  0
 22 24  1  0  0  0  0
 23 25  1  0  0  0  0
 23 19  1  0  0  0  0
 24 19  1  6  0  0  0
 25 26  1  0  0  0  0
 27 20  1  0  0  0  0
 28 29  1  0  0  0  0
 29 21  1  0  0  0  0
 29 22  1  0  0  0  0
 30 18  1  0  0  0  0
 30 27  2  0  0  0  0
 31 32  1  0  0  0  0
 33 34  1  0  0  0  0
 33 32  1  0  0  0  0
 34 35  1  0  0  0  0
 36 41  2  6  0  0  0
 36 37  1  0  0  0  0
 38 37  1  0  0  0  0
 38 42  1  1  0  0  0
 39 35  1  6  0  0  0
 39 38  1  0  0  0  0
 40 36  1  0  0  0  0
 40 39  1  0  0  0  0
 42 44  2  0  0  0  0
 42 43  1  0  0  0  0
 46 36  1  0  0  0  0
 46 45  1  0  0  0  0
 46 48  1  0  0  0  0
 47 46  1  0  0  0  0
 49 48  1  0  0  0  0
 50 51  1  0  0  0  0
 52 57  2  0  0  0  0
 53 54  1  0  0  0  0
 54 55  2  0  0  0  0
 55 60  1  0  0  0  0
 56 51  1  1  0  0  0
 56 52  1  0  0  0  0
 56 53  1  0  0  0  0
 57 54  1  0  0  0  0
 59 58  1  0  0  0  0
 60 59  1  0  0  0  0
 60 58  1  0  0  0  0
 60 62  1  0  0  0  0
 61 65  1  0  0  0  0
 62 61  2  0  0  0  0
 63 66  1  0  0  0  0
 64 65  2  0  0  0  0
 66 62  1  0  0  0  0
 66 67  2  0  0  0  0
 67 64  1  0  0  0  0
M  END
>  <MODEL>
8

>  <REMARK>
 VINA RESULT:      -7.1      2.943     11.159
  Name = 
  16 active torsions:
  status: ('A' for Active; 'I' for Inactive)
    1  A    between atoms: C_3  and  C_31
    2  A    between atoms: C_5  and  N_32
    3  A    between atoms: C_6  and  N_43
    4  A    between atoms: C_7  and  N_32
    5  A    between atoms: C_7  and  O_41
    6  A    between atoms: C_13  and  N_33
    7  A    between atoms: P_16  and  C_62
    8  A    between atoms: C_19  and  C_66
    9  A    between atoms: O_36  and  C_45
   10  A    between atoms: O_36  and  C_57
   11  A    between atoms: C_38  and  C_45
   12  A    between atoms: O_41  and  C_61
   13  A    between atoms: C_44  and  C_67
   14  A    between atoms: N_53  and  C_66
   15  A    between atoms: C_54  and  C_62
   16  A    between atoms: C_61  and  C_67
                            x       y       z     vdW  Elec       q    Type
                         _______ _______ _______ _____ _____    ______ ____

>  <TORSDO>
F 16

$$$$
=
 OpenBabel10232409163D

 67 76  0  0  1  0  0  0  0  0999 V2000
  189.0300  175.6690  135.6240 C   0  0  2  0  0  3  0  0  0  0  0  0
  188.1170  176.8010  136.0660 C   0  0  2  0  0  3  0  0  0  0  0  0
  189.2010  174.9370  136.9270 C   0  0  2  0  0  3  0  0  0  0  0  0
  192.6180  176.5350  134.3480 C   0  0  0  0  0  3  0  0  0  0  0  0
  193.8300  175.6290  134.5000 C   0  0  0  0  0  3  0  0  0  0  0  0
  191.4820  175.7740  134.9490 C   0  0  0  0  0  0  0  0  0  0  0  0
  193.3270  174.4160  135.2130 C   0  0  0  0  0  0  0  0  0  0  0  0
  191.6220  174.3980  136.9070 N   0  0  0  0  0  2  0  0  0  0  0  0
  188.9980  175.9710  138.0080 C   0  0  2  0  0  3  0  0  0  0  0  0
  191.8660  174.4370  135.4760 C   0  0  1  0  0  3  0  0  0  0  0  0
  194.0870  173.4630  135.6700 N   0  0  0  0  0  0  0  0  0  0  0  0
  190.2680  176.3230  135.0640 C   0  0  0  0  0  3  0  0  0  0  0  0
  190.2840  173.8630  137.0930 C   0  0  0  0  0  2  0  0  0  0  0  0
  188.1640  176.9740  137.4730 O   0  0  0  0  0  0  0  0  0  0  0  0
  195.5050  173.3490  135.4670 C   0  0  0  0  0  0  0  0  0  0  0  0
  196.2240  174.3800  135.3930 O   0  0  0  0  0  0  0  0  0  0  0  0
  196.1220  172.0660  135.3030 N   0  0  0  0  0  2  0  0  0  0  0  0
  193.8340  168.0280  136.0870 C   0  0  0  0  0  3  0  0  0  0  0  0
  198.5320  170.3830  137.0350 C   0  0  0  0  0  2  0  0  0  0  0  0
  195.5630  170.7910  135.6410 C   0  0  0  0  0  0  0  0  0  0  0  0
  196.0560  170.1450  136.6860 C   0  0  0  0  0  0  0  0  0  0  0  0
  196.7530  169.1020  138.3160 C   0  0  2  0  0  3  0  0  0  0  0  0
  198.8590  169.1330  136.4930 O   0  0  0  0  0  0  0  0  0  0  0  0
  197.1420  170.3660  137.6960 C   0  0  1  0  0  3  0  0  0  0  0  0
  199.0880  168.3130  137.6000 C   0  0  0  0  0  2  0  0  0  0  0  0
  197.7560  167.9290  138.2380 C   0  0  0  0  0  2  0  0  0  0  0  0
  194.4190  170.2380  134.8850 C   0  0  0  0  0  3  0  0  0  0  0  0
  194.6960  167.9130  137.0990 C   0  0  0  0  0  3  0  0  0  0  0  0
  195.6940  168.8860  137.3490 N   0  0  0  0  0  0  0  0  0  0  0  0
  193.7190  169.1060  135.0710 C   0  0  0  0  0  3  0  0  0  0  0  0
  186.7430  176.5580  135.6440 N   0  0  0  0  0  2  0  0  0  0  0  0
  185.9850  177.7900  135.8050 C   0  0  0  0  0  2  0  0  0  0  0  0
  185.2030  177.7300  136.9670 O   0  0  0  0  0  0  0  0  0  0  0  0
  184.4190  176.5860  136.8250 C   0  0  0  0  0  2  0  0  0  0  0  0
  183.0320  176.9640  136.3210 C   0  0  0  0  0  2  0  0  0  0  0  0
  182.1080  173.3930  135.7970 P   0  0  2  0  0  0  0  0  0  0  0  0
  181.6770  173.6700  137.3960 O   0  0  0  0  0  0  0  0  0  0  0  0
  182.1100  174.9820  137.5990 C   0  0  1  0  0  3  0  0  0  0  0  0
  182.0970  175.7600  136.2710 C   0  0  2  0  0  3  0  0  0  0  0  0
  182.4220  174.9280  135.1920 O   0  0  0  0  0  0  0  0  0  0  0  0
  180.9600  172.7620  135.0440 O   0  0  0  0  0  0  0  0  0  0  0  0
  181.2330  175.6560  138.6030 C   0  0  0  0  0  0  0  0  0  0  0  0
  181.2090  175.2150  139.9200 O   0  0  0  0  0  1  0  0  0  0  0  0
  180.4830  176.6070  138.2490 O   0  0  0  0  0  0  0  0  0  0  0  0
  183.2800  171.1580  135.0720 O   0  0  0  0  0  1  0  0  0  0  0  0
  183.5960  172.3570  135.7130 C   0  0  0  0  0  0  0  0  0  0  0  0
  184.5790  173.0280  134.9810 O   0  0  0  0  0  1  0  0  0  0  0  0
  184.0950  172.0800  137.1270 C   0  0  0  0  0  2  0  0  0  0  0  0
  185.1450  173.0910  137.5630 C   0  0  0  0  0  1  0  0  0  0  0  0
  190.3030  176.6070  138.4670 C   0  0  0  0  0  2  0  0  0  0  0  0
  190.6070  176.1580  139.7560 O   0  0  0  0  0  0  0  0  0  0  0  0
  191.6130  176.9910  141.7590 C   0  0  0  0  0  3  0  0  0  0  0  0
  189.5080  177.7370  141.0110 O   0  0  0  0  0  0  0  0  0  0  0  0
  189.4320  177.6290  142.3790 C   0  0  0  0  0  0  0  0  0  0  0  0
  188.3410  177.9200  143.0280 N   0  0  0  0  0  0  0  0  0  0  0  0
  190.7690  177.3190  140.5200 C   0  0  2  0  0  3  0  0  0  0  0  0
  190.6970  177.1380  142.9730 C   0  0  0  0  0  3  0  0  0  0  0  0
  189.1650  178.4030  145.3770 C   0  0  0  0  0  2  0  0  0  0  0  0
  188.8970  176.8990  145.3030 C   0  0  0  0  0  2  0  0  0  0  0  0
  188.0770  177.8630  144.4720 C   0  0  0  0  0  0  0  0  0  0  0  0
  186.3700  178.1540  146.2790 C   0  0  0  0  0  3  0  0  0  0  0  0
  186.6660  178.0940  144.9110 C   0  0  0  0  0  0  0  0  0  0  0  0
  185.9200  178.3190  142.6360 F   0  0  0  0  0  0  0  0  0  0  0  0
  184.0540  178.6410  145.7680 C   0  0  0  0  0  3  0  0  0  0  0  0
  185.0650  178.4200  146.7060 C   0  0  0  0  0  3  0  0  0  0  0  0
  185.6480  178.3360  143.9680 C   0  0  0  0  0  0  0  0  0  0  0  0
  184.3460  178.6020  144.4000 C   0  0  0  0  0  3  0  0  0  0  0  0
  1 12  1  1  0  0  0
  1  2  1  0  0  0  0
  1  3  1  0  0  0  0
  2 31  1  1  0  0  0
  2 14  1  0  0  0  0
  3 13  1  6  0  0  0
  3  9  1  0  0  0  0
  4  5  2  0  0  0  0
  4  6  1  0  0  0  0
  5  7  1  0  0  0  0
  6 12  2  0  0  0  0
  7 10  1  0  0  0  0
  7 11  2  0  0  0  0
  8 13  1  0  0  0  0
  9 50  1  6  0  0  0
 10  6  1  1  0  0  0
 10  8  1  0  0  0  0
 14  9  1  0  0  0  0
 15 11  1  0  0  0  0
 16 15  2  0  0  0  0
 17 15  1  0  0  0  0
 17 20  1  0  0  0  0
 18 28  2  0  0  0  0
 20 21  2  0  0  0  0
 21 29  1  0  0  0  0
 21 24  1  0  0  0  0
 22 26  1  6  0  0  0
 23 19  1  0  0  0  0
 23 25  1  0  0  0  0
 24 19  1  6  0  0  0
 24 22  1  0  0  0  0
 25 26  1  0  0  0  0
 27 30  2  0  0  0  0
 27 20  1  0  0  0  0
 28 29  1  0  0  0  0
 29 22  1  0  0  0  0
 30 18  1  0  0  0  0
 31 32  1  0  0  0  0
 32 33  1  0  0  0  0
 34 33  1  0  0  0  0
 35 34  1  0  0  0  0
 36 41  2  6  0  0  0
 36 37  1  0  0  0  0
 37 38  1  0  0  0  0
 38 42  1  1  0  0  0
 39 35  1  1  0  0  0
 39 38  1  0  0  0  0
 40 36  1  0  0  0  0
 40 39  1  0  0  0  0
 42 43  1  0  0  0  0
 44 42  2  0  0  0  0
 45 46  1  0  0  0  0
 46 36  1  0  0  0  0
 46 48  1  0  0  0  0
 47 46  1  0  0  0  0
 48 49  1  0  0  0  0
 50 51  1  0  0  0  0
 52 57  2  0  0  0  0
 53 54  1  0  0  0  0
 54 57  1  0  0  0  0
 54 55  2  0  0  0  0
 55 60  1  0  0  0  0
 56 51  1  6  0  0  0
 56 53  1  0  0  0  0
 56 52  1  0  0  0  0
 59 58  1  0  0  0  0
 60 62  1  0  0  0  0
 60 59  1  0  0  0  0
 60 58  1  0  0  0  0
 61 65  1  0  0  0  0
 62 61  2  0  0  0  0
 63 66  1  0  0  0  0
 64 65  2  0  0  0  0
 66 67  2  0  0  0  0
 66 62  1  0  0  0  0
 67 64  1  0  0  0  0
M  END
>  <MODEL>
9

>  <REMARK>
 VINA RESULT:      -6.9      3.228     11.521
  Name = 
  16 active torsions:
  status: ('A' for Active; 'I' for Inactive)
    1  A    between atoms: C_3  and  C_31
    2  A    between atoms: C_5  and  N_32
    3  A    between atoms: C_6  and  N_43
    4  A    between atoms: C_7  and  N_32
    5  A    between atoms: C_7  and  O_41
    6  A    between atoms: C_13  and  N_33
    7  A    between atoms: P_16  and  C_62
    8  A    between atoms: C_19  and  C_66
    9  A    between atoms: O_36  and  C_45
   10  A    between atoms: O_36  and  C_57
   11  A    between atoms: C_38  and  C_45
   12  A    between atoms: O_41  and  C_61
   13  A    between atoms: C_44  and  C_67
   14  A    between atoms: N_53  and  C_66
   15  A    between atoms: C_54  and  C_62
   16  A    between atoms: C_61  and  C_67
                            x       y       z     vdW  Elec       q    Type
                         _______ _______ _______ _____ _____    ______ ____

>  <TORSDO>
F 16

$$$$
