=
 OpenBabel10232412003D

 41 46  0  0  1  0  0  0  0  0999 V2000
  187.0140  177.9510  143.7280 C   0  0  0  0  0  0  0  0  0  0  0  0
  190.1320  177.2300  146.4490 C   0  0  0  0  0  0  0  0  0  0  0  0
  189.0760  177.4710  145.5490 C   0  0  0  0  0  0  0  0  0  0  0  0
  185.8800  178.1150  142.7460 C   0  0  0  0  0  2  0  0  0  0  0  0
  189.2940  177.4080  144.2110 N   0  0  0  0  0  0  0  0  0  0  0  0
  191.5000  176.8900  145.9630 C   0  0  0  0  0  1  0  0  0  0  0  0
  188.6400  177.6240  148.3130 C   0  0  0  0  0  3  0  0  0  0  0  0
  186.7410  178.0200  145.1160 C   0  0  0  0  0  0  0  0  0  0  0  0
  184.9100  179.1910  143.2180 C   0  0  0  0  0  2  0  0  0  0  0  0
  189.9080  177.3080  147.8240 C   0  0  0  0  0  3  0  0  0  0  0  0
  184.4280  178.8640  144.5520 N   0  0  0  0  0  0  0  0  0  0  0  0
  184.9580  178.1740  146.7190 O   0  0  0  0  0  0  0  0  0  0  0  0
  187.7860  177.7840  146.0380 C   0  0  0  0  0  0  0  0  0  0  0  0
  185.3470  178.3600  145.5340 C   0  0  0  0  0  0  0  0  0  0  0  0
  188.3220  177.6360  143.2890 C   0  0  0  0  0  0  0  0  0  0  0  0
  187.5900  177.8610  147.4260 C   0  0  0  0  0  3  0  0  0  0  0  0
  189.7100  176.7290  141.4370 N   0  0  0  0  0  0  0  0  0  0  0  0
  188.1210  178.2480  140.8630 N   0  0  0  0  0  2  0  0  0  0  0  0
  191.3040  176.1660  136.7310 C   0  0  0  0  0  1  0  0  0  0  0  0
  189.7000  177.9380  137.4530 C   0  0  0  0  0  2  0  0  0  0  0  0
  189.7350  176.9320  140.1110 C   0  0  0  0  0  0  0  0  0  0  0  0
  188.7060  177.5370  141.8590 C   0  0  0  0  0  0  0  0  0  0  0  0
  188.8010  177.8660  139.7710 C   0  0  0  0  0  0  0  0  0  0  0  0
  188.5130  178.2840  138.3630 C   0  0  0  0  0  2  0  0  0  0  0  0
  190.7100  176.3350  139.1460 C   0  0  0  0  0  2  0  0  0  0  0  0
  190.1970  176.5050  137.7070 C   0  0  2  0  0  3  0  0  0  0  0  0
  182.9980  178.9420  144.8140 C   0  0  0  0  0  2  0  0  0  0  0  0
  182.2220  178.9290  143.5080 C   0  0  0  0  0  2  0  0  0  0  0  0
  180.7310  178.8890  143.7820 C   0  0  0  0  0  2  0  0  0  0  0  0
  179.9820  178.4230  142.5460 C   0  0  0  0  0  2  0  0  0  0  0  0
  180.2340  179.2950  141.4870 O   0  0  0  0  0  0  0  0  0  0  0  0
  181.3930  177.2280  138.3350 S   0  0  0  0  0  0  0  0  0  0  0  0
  180.1090  178.5070  140.3380 C   0  0  2  0  0  3  0  0  0  0  0  0
  180.0810  177.0420  140.6970 C   0  0  0  0  0  2  0  0  0  0  0  0
  181.2770  178.7130  139.3830 C   0  0  1  0  0  3  0  0  0  0  0  0
  180.2420  176.2930  139.3940 C   0  0  0  0  0  2  0  0  0  0  0  0
  182.5230  178.8770  140.1160 N   0  0  0  0  0  2  0  0  0  0  0  0
  183.4300  177.8430  139.6420 C   0  0  0  0  0  2  0  0  0  0  0  0
  184.7600  178.4590  139.2550 C   0  0  2  0  0  3  0  0  0  0  0  0
  184.6970  179.8460  139.3950 O   0  0  0  0  0  1  0  0  0  0  0  0
  185.0700  178.1150  137.8140 C   0  0  0  0  0  1  0  0  0  0  0  0
  1  8  1  0  0  0  0
  2 10  2  0  0  0  0
  3 13  1  0  0  0  0
  3  2  1  0  0  0  0
  4  9  1  0  0  0  0
  4  1  1  0  0  0  0
  5  3  2  0  0  0  0
  6  2  1  0  0  0  0
  8 14  1  0  0  0  0
  8 13  2  0  0  0  0
  9 11  1  0  0  0  0
 10  7  1  0  0  0  0
 11 27  1  0  0  0  0
 11 14  1  0  0  0  0
 13 16  1  0  0  0  0
 14 12  2  0  0  0  0
 15  1  2  0  0  0  0
 15  5  1  0  0  0  0
 16  7  2  0  0  0  0
 17 22  2  0  0  0  0
 18 22  1  0  0  0  0
 20 26  1  0  0  0  0
 20 24  1  0  0  0  0
 21 17  1  0  0  0  0
 22 15  1  0  0  0  0
 23 21  2  0  0  0  0
 23 18  1  0  0  0  0
 24 23  1  0  0  0  0
 25 21  1  0  0  0  0
 26 19  1  6  0  0  0
 26 25  1  0  0  0  0
 28 29  1  0  0  0  0
 28 27  1  0  0  0  0
 30 29  1  0  0  0  0
 31 30  1  0  0  0  0
 32 35  1  0  0  0  0
 32 36  1  0  0  0  0
 33 34  1  0  0  0  0
 33 31  1  1  0  0  0
 35 37  1  1  0  0  0
 35 33  1  0  0  0  0
 36 34  1  0  0  0  0
 38 37  1  0  0  0  0
 39 41  1  6  0  0  0
 39 40  1  0  0  0  0
 39 38  1  0  0  0  0
M  END
>  <MODEL>
1

>  <REMARK>
 VINA RESULT:     -10.1      0.000      0.000
  Name = 
  10 active torsions:
  status: ('A' for Active; 'I' for Inactive)
    1  A    between atoms: C_1  and  C_33
    2  A    between atoms: C_4  and  C_21
    3  A    between atoms: C_4  and  C_29
    4  A    between atoms: N_6  and  C_33
    5  A    between atoms: N_6  and  C_40
    6  A    between atoms: C_8  and  O_28
    7  A    between atoms: C_8  and  C_29
    8  A    between atoms: C_11  and  O_28
    9  A    between atoms: C_21  and  N_22
   10  A    between atoms: C_30  and  C_37
                            x       y       z     vdW  Elec       q    Type
                         _______ _______ _______ _____ _____    ______ ____

>  <TORSDO>
F 10

$$$$
=
 OpenBabel10232412003D

 41 46  0  0  1  0  0  0  0  0999 V2000
  187.7860  178.0100  142.4490 C   0  0  0  0  0  0  0  0  0  0  0  0
  186.6300  178.0310  146.4880 C   0  0  0  0  0  0  0  0  0  0  0  0
  187.0340  178.0240  145.1390 C   0  0  0  0  0  0  0  0  0  0  0  0
  188.2090  178.0980  141.0040 C   0  0  0  0  0  2  0  0  0  0  0  0
  186.1230  178.2420  144.1560 N   0  0  0  0  0  0  0  0  0  0  0  0
  185.2120  178.2880  146.8700 C   0  0  0  0  0  1  0  0  0  0  0  0
  188.9000  177.5520  147.1740 C   0  0  0  0  0  3  0  0  0  0  0  0
  188.7690  177.7860  143.4440 C   0  0  0  0  0  0  0  0  0  0  0  0
  189.2970  177.0760  140.6980 C   0  0  0  0  0  2  0  0  0  0  0  0
  187.5650  177.7950  147.4970 C   0  0  0  0  0  3  0  0  0  0  0  0
  190.4200  177.2720  141.6030 N   0  0  0  0  0  0  0  0  0  0  0  0
  191.1380  177.6090  143.8000 O   0  0  0  0  0  0  0  0  0  0  0  0
  188.3870  177.7860  144.8050 C   0  0  0  0  0  0  0  0  0  0  0  0
  190.1720  177.5420  142.9920 C   0  0  0  0  0  0  0  0  0  0  0  0
  186.4440  178.2420  142.8350 C   0  0  0  0  0  0  0  0  0  0  0  0
  189.3060  177.5460  145.8390 C   0  0  0  0  0  3  0  0  0  0  0  0
  184.1340  177.8890  141.9880 N   0  0  0  0  0  0  0  0  0  0  0  0
  185.4490  179.2970  140.7850 N   0  0  0  0  0  2  0  0  0  0  0  0
  180.2200  178.4410  138.9250 C   0  0  0  0  0  1  0  0  0  0  0  0
  182.5110  179.3000  138.4240 C   0  0  0  0  0  2  0  0  0  0  0  0
  183.4470  178.3660  140.9390 C   0  0  0  0  0  0  0  0  0  0  0  0
  185.3450  178.4880  141.8690 C   0  0  0  0  0  0  0  0  0  0  0  0
  184.2460  179.1890  140.2010 C   0  0  0  0  0  0  0  0  0  0  0  0
  183.7810  179.9440  138.9970 C   0  0  0  0  0  2  0  0  0  0  0  0
  182.0570  177.9760  140.5440 C   0  0  0  0  0  2  0  0  0  0  0  0
  181.4940  178.9890  139.5340 C   0  0  2  0  0  3  0  0  0  0  0  0
  191.7650  177.3100  141.0460 C   0  0  0  0  0  2  0  0  0  0  0  0
  191.7040  177.3870  139.5300 C   0  0  0  0  0  2  0  0  0  0  0  0
  192.8720  176.6360  138.9180 C   0  0  0  0  0  2  0  0  0  0  0  0
  192.3670  175.5670  137.9650 C   0  0  0  0  0  2  0  0  0  0  0  0
  191.0690  175.1980  138.3170 O   0  0  0  0  0  0  0  0  0  0  0  0
  189.1620  175.1630  134.8650 S   0  0  0  0  0  0  0  0  0  0  0  0
  190.5200  174.6640  137.1460 C   0  0  2  0  0  3  0  0  0  0  0  0
  191.5450  174.6390  136.0400 C   0  0  0  0  0  2  0  0  0  0  0  0
  189.3420  175.4910  136.6470 C   0  0  1  0  0  3  0  0  0  0  0  0
  190.7810  174.3300  134.7730 C   0  0  0  0  0  2  0  0  0  0  0  0
  189.5830  176.9120  136.8490 N   0  0  0  0  0  2  0  0  0  0  0  0
  188.6350  177.6230  136.0060 C   0  0  0  0  0  2  0  0  0  0  0  0
  187.9570  178.7200  136.8040 C   0  0  2  0  0  3  0  0  0  0  0  0
  188.8710  179.2950  137.6880 O   0  0  0  0  0  1  0  0  0  0  0  0
  186.8050  178.1280  137.5880 C   0  0  0  0  0  1  0  0  0  0  0  0
  1 15  2  0  0  0  0
  1  8  1  0  0  0  0
  2  6  1  0  0  0  0
  2 10  2  0  0  0  0
  3  2  1  0  0  0  0
  4  1  1  0  0  0  0
  5  3  2  0  0  0  0
  7 10  1  0  0  0  0
  8 13  2  0  0  0  0
  9  4  1  0  0  0  0
  9 11  1  0  0  0  0
 11 14  1  0  0  0  0
 13  3  1  0  0  0  0
 13 16  1  0  0  0  0
 14  8  1  0  0  0  0
 14 12  2  0  0  0  0
 15  5  1  0  0  0  0
 16  7  2  0  0  0  0
 18 22  1  0  0  0  0
 20 24  1  0  0  0  0
 20 26  1  0  0  0  0
 21 17  1  0  0  0  0
 22 17  2  0  0  0  0
 22 15  1  0  0  0  0
 23 18  1  0  0  0  0
 23 21  2  0  0  0  0
 24 23  1  0  0  0  0
 25 21  1  0  0  0  0
 26 19  1  6  0  0  0
 26 25  1  0  0  0  0
 27 11  1  0  0  0  0
 28 27  1  0  0  0  0
 29 28  1  0  0  0  0
 30 31  1  0  0  0  0
 30 29  1  0  0  0  0
 32 35  1  0  0  0  0
 33 31  1  1  0  0  0
 34 33  1  0  0  0  0
 35 37  1  6  0  0  0
 35 33  1  0  0  0  0
 36 32  1  0  0  0  0
 36 34  1  0  0  0  0
 38 39  1  0  0  0  0
 38 37  1  0  0  0  0
 39 41  1  1  0  0  0
 39 40  1  0  0  0  0
M  END
>  <MODEL>
2

>  <REMARK>
 VINA RESULT:      -9.5      2.932      7.317
  Name = 
  10 active torsions:
  status: ('A' for Active; 'I' for Inactive)
    1  A    between atoms: C_1  and  C_33
    2  A    between atoms: C_4  and  C_21
    3  A    between atoms: C_4  and  C_29
    4  A    between atoms: N_6  and  C_33
    5  A    between atoms: N_6  and  C_40
    6  A    between atoms: C_8  and  O_28
    7  A    between atoms: C_8  and  C_29
    8  A    between atoms: C_11  and  O_28
    9  A    between atoms: C_21  and  N_22
   10  A    between atoms: C_30  and  C_37
                            x       y       z     vdW  Elec       q    Type
                         _______ _______ _______ _____ _____    ______ ____

>  <TORSDO>
F 10

$$$$
=
 OpenBabel10232412003D

 41 46  0  0  1  0  0  0  0  0999 V2000
  188.5030  177.6500  142.8330 C   0  0  0  0  0  0  0  0  0  0  0  0
  189.2080  177.1520  146.9450 C   0  0  0  0  0  0  0  0  0  0  0  0
  188.9890  177.3190  145.5640 C   0  0  0  0  0  0  0  0  0  0  0  0
  188.2590  177.9230  141.3700 C   0  0  0  0  0  2  0  0  0  0  0  0
  187.7440  177.6050  145.1030 N   0  0  0  0  0  0  0  0  0  0  0  0
  188.0970  177.2950  147.9280 C   0  0  0  0  0  1  0  0  0  0  0  0
  191.5490  176.7040  146.5220 C   0  0  0  0  0  3  0  0  0  0  0  0
  189.8180  177.3600  143.2720 C   0  0  0  0  0  0  0  0  0  0  0  0
  189.1000  176.9960  140.5020 C   0  0  0  0  0  2  0  0  0  0  0  0
  190.4860  176.8450  147.4150 C   0  0  0  0  0  3  0  0  0  0  0  0
  190.5060  177.1390  140.8520 N   0  0  0  0  0  0  0  0  0  0  0  0
  192.1060  177.2540  142.5490 O   0  0  0  0  0  0  0  0  0  0  0  0
  190.0630  177.1850  144.6540 C   0  0  0  0  0  0  0  0  0  0  0  0
  190.8850  177.2350  142.2340 C   0  0  0  0  0  0  0  0  0  0  0  0
  187.4610  177.7720  143.7850 C   0  0  0  0  0  0  0  0  0  0  0  0
  191.3360  176.8720  145.1530 C   0  0  0  0  0  3  0  0  0  0  0  0
  185.1020  178.2940  144.3650 N   0  0  0  0  0  0  0  0  0  0  0  0
  185.5890  178.1380  142.1520 N   0  0  0  0  0  0  0  0  0  0  0  0
  180.2740  179.3020  143.5400 C   0  0  0  0  0  1  0  0  0  0  0  0
  181.8640  178.5620  141.7630 C   0  0  0  0  0  2  0  0  0  0  0  0
  183.9960  178.5240  143.6400 C   0  0  1  0  0  3  0  0  0  0  0  0
  186.0540  178.0760  143.4250 C   0  0  0  0  0  0  0  0  0  0  0  0
  184.2840  178.4010  142.3120 C   0  0  0  0  0  0  0  0  0  0  0  0
  183.2960  178.6570  141.2180 C   0  0  0  0  0  2  0  0  0  0  0  0
  182.6210  178.7580  144.1800 C   0  0  0  0  0  2  0  0  0  0  0  0
  181.7160  179.3390  143.0810 C   0  0  2  0  0  3  0  0  0  0  0  0
  191.4770  177.3050  139.7800 C   0  0  0  0  0  2  0  0  0  0  0  0
  190.8700  176.8880  138.4510 C   0  0  0  0  0  2  0  0  0  0  0  0
  191.4490  175.5600  138.0010 C   0  0  0  0  0  2  0  0  0  0  0  0
  190.7930  175.1130  136.7070 C   0  0  0  0  0  2  0  0  0  0  0  0
  189.4940  175.6150  136.6400 O   0  0  0  0  0  0  0  0  0  0  0  0
  186.1830  173.4860  136.8860 S   0  0  0  0  0  0  0  0  0  0  0  0
  188.6740  174.5290  136.9640 C   0  0  2  0  0  3  0  0  0  0  0  0
  188.6900  173.5010  135.8610 C   0  0  0  0  0  2  0  0  0  0  0  0
  187.2250  174.9550  137.1600 C   0  0  1  0  0  3  0  0  0  0  0  0
  187.5680  172.5380  136.1750 C   0  0  0  0  0  2  0  0  0  0  0  0
  186.8540  175.9870  136.2030 N   0  0  0  0  0  2  0  0  0  0  0  0
  185.9920  176.9240  136.9080 C   0  0  0  0  0  2  0  0  0  0  0  0
  186.8330  177.8830  137.7280 C   0  0  2  0  0  3  0  0  0  0  0  0
  186.0020  178.7360  138.4550 O   0  0  0  0  0  1  0  0  0  0  0  0
  187.7040  178.7040  136.7990 C   0  0  0  0  0  1  0  0  0  0  0  0
  1  8  2  0  0  0  0
  1 15  1  0  0  0  0
  2 10  1  0  0  0  0
  2  6  1  0  0  0  0
  3  2  2  0  0  0  0
  4  1  1  0  0  0  0
  5  3  1  0  0  0  0
  7 10  2  0  0  0  0
  8 13  1  0  0  0  0
  9 11  1  0  0  0  0
  9  4  1  0  0  0  0
 11 14  1  0  0  0  0
 13 16  2  0  0  0  0
 13  3  1  0  0  0  0
 14 12  2  0  0  0  0
 14  8  1  0  0  0  0
 15  5  2  0  0  0  0
 16  7  1  0  0  0  0
 18 23  2  0  0  0  0
 18 22  1  0  0  0  0
 20 26  1  0  0  0  0
 21 25  1  1  0  0  0
 21 17  1  0  0  0  0
 22 15  1  0  0  0  0
 22 17  2  0  0  0  0
 23 21  1  0  0  0  0
 24 20  1  0  0  0  0
 24 23  1  0  0  0  0
 26 19  1  1  0  0  0
 26 25  1  0  0  0  0
 27 11  1  0  0  0  0
 28 27  1  0  0  0  0
 29 28  1  0  0  0  0
 30 29  1  0  0  0  0
 31 30  1  0  0  0  0
 32 35  1  0  0  0  0
 33 31  1  6  0  0  0
 33 35  1  0  0  0  0
 34 36  1  0  0  0  0
 34 33  1  0  0  0  0
 35 37  1  6  0  0  0
 36 32  1  0  0  0  0
 37 38  1  0  0  0  0
 38 39  1  0  0  0  0
 39 41  1  6  0  0  0
 39 40  1  0  0  0  0
M  END
>  <MODEL>
3

>  <REMARK>
 VINA RESULT:      -9.4      2.713      7.007
  Name = 
  10 active torsions:
  status: ('A' for Active; 'I' for Inactive)
    1  A    between atoms: C_1  and  C_33
    2  A    between atoms: C_4  and  C_21
    3  A    between atoms: C_4  and  C_29
    4  A    between atoms: N_6  and  C_33
    5  A    between atoms: N_6  and  C_40
    6  A    between atoms: C_8  and  O_28
    7  A    between atoms: C_8  and  C_29
    8  A    between atoms: C_11  and  O_28
    9  A    between atoms: C_21  and  N_22
   10  A    between atoms: C_30  and  C_37
                            x       y       z     vdW  Elec       q    Type
                         _______ _______ _______ _____ _____    ______ ____

>  <TORSDO>
F 10

$$$$
=
 OpenBabel10232412003D

 41 46  0  0  1  0  0  0  0  0999 V2000
  188.4250  177.6430  143.0290 C   0  0  0  0  0  0  0  0  0  0  0  0
  189.2850  177.1450  147.1100 C   0  0  0  0  0  0  0  0  0  0  0  0
  189.0140  177.3120  145.7390 C   0  0  0  0  0  0  0  0  0  0  0  0
  188.1260  177.9170  141.5760 C   0  0  0  0  0  2  0  0  0  0  0  0
  187.7530  177.6020  145.3260 N   0  0  0  0  0  0  0  0  0  0  0  0
  188.2130  177.2920  148.1350 C   0  0  0  0  0  1  0  0  0  0  0  0
  191.6070  176.6900  146.5990 C   0  0  0  0  0  3  0  0  0  0  0  0
  189.7550  177.3500  143.4170 C   0  0  0  0  0  0  0  0  0  0  0  0
  188.9310  176.9880  140.6760 C   0  0  0  0  0  2  0  0  0  0  0  0
  190.5800  176.8350  147.5320 C   0  0  0  0  0  3  0  0  0  0  0  0
  190.3490  177.1260  140.9730 N   0  0  0  0  0  0  0  0  0  0  0  0
  192.0140  177.2380  142.6070 O   0  0  0  0  0  0  0  0  0  0  0  0
  190.0520  177.1750  144.7890 C   0  0  0  0  0  0  0  0  0  0  0  0
  190.7810  177.2220  142.3390 C   0  0  0  0  0  0  0  0  0  0  0  0
  187.4210  177.7690  144.0190 C   0  0  0  0  0  0  0  0  0  0  0  0
  191.3430  176.8580  145.2390 C   0  0  0  0  0  3  0  0  0  0  0  0
  185.5270  178.0970  142.4430 N   0  0  0  0  0  0  0  0  0  0  0  0
  185.0700  178.3860  144.6490 N   0  0  0  0  0  2  0  0  0  0  0  0
  180.8430  179.1220  141.0270 C   0  0  0  0  0  1  0  0  0  0  0  0
  181.7000  179.4630  143.3460 C   0  0  0  0  0  2  0  0  0  0  0  0
  184.2330  178.4120  142.6000 C   0  0  0  0  0  0  0  0  0  0  0  0
  186.0020  178.0770  143.7130 C   0  0  0  0  0  0  0  0  0  0  0  0
  183.9660  178.6150  143.9220 C   0  0  0  0  0  0  0  0  0  0  0  0
  182.6040  178.9180  144.4610 C   0  0  0  0  0  2  0  0  0  0  0  0
  183.2410  178.6380  141.5030 C   0  0  0  0  0  2  0  0  0  0  0  0
  181.8130  178.6120  142.0710 C   0  0  2  0  0  3  0  0  0  0  0  0
  191.2790  177.2890  139.8650 C   0  0  0  0  0  2  0  0  0  0  0  0
  191.0480  176.2090  138.8210 C   0  0  0  0  0  2  0  0  0  0  0  0
  190.9480  176.8260  137.4380 C   0  0  0  0  0  2  0  0  0  0  0  0
  189.6430  177.5900  137.2980 C   0  0  0  0  0  2  0  0  0  0  0  0
  189.0300  177.2560  136.0900 O   0  0  0  0  0  0  0  0  0  0  0  0
  185.1130  177.0070  136.4730 S   0  0  0  0  0  0  0  0  0  0  0  0
  187.7110  177.7020  136.2240 C   0  0  2  0  0  3  0  0  0  0  0  0
  187.3640  177.9120  137.6760 C   0  0  0  0  0  2  0  0  0  0  0  0
  186.7160  176.6950  135.6650 C   0  0  1  0  0  3  0  0  0  0  0  0
  185.8650  178.1010  137.7210 C   0  0  0  0  0  2  0  0  0  0  0  0
  187.1380  175.3320  135.9550 N   0  0  0  0  0  2  0  0  0  0  0  0
  185.9400  174.5850  136.3020 C   0  0  0  0  0  2  0  0  0  0  0  0
  186.2770  173.5110  137.3190 C   0  0  2  0  0  3  0  0  0  0  0  0
  187.1720  172.5970  136.7620 O   0  0  0  0  0  1  0  0  0  0  0  0
  185.0090  172.7880  137.7210 C   0  0  0  0  0  1  0  0  0  0  0  0
  1  8  2  0  0  0  0
  1 15  1  0  0  0  0
  2 10  1  0  0  0  0
  2  6  1  0  0  0  0
  3  2  2  0  0  0  0
  4  1  1  0  0  0  0
  5  3  1  0  0  0  0
  7 10  2  0  0  0  0
  8 13  1  0  0  0  0
  9 11  1  0  0  0  0
  9  4  1  0  0  0  0
 11 14  1  0  0  0  0
 13 16  2  0  0  0  0
 13  3  1  0  0  0  0
 14 12  2  0  0  0  0
 14  8  1  0  0  0  0
 15  5  2  0  0  0  0
 16  7  1  0  0  0  0
 17 21  1  0  0  0  0
 17 22  2  0  0  0  0
 20 24  1  0  0  0  0
 21 23  2  0  0  0  0
 22 15  1  0  0  0  0
 22 18  1  0  0  0  0
 23 24  1  0  0  0  0
 23 18  1  0  0  0  0
 25 26  1  0  0  0  0
 25 21  1  0  0  0  0
 26 19  1  6  0  0  0
 26 20  1  0  0  0  0
 27 11  1  0  0  0  0
 28 27  1  0  0  0  0
 29 28  1  0  0  0  0
 30 29  1  0  0  0  0
 31 30  1  0  0  0  0
 32 36  1  0  0  0  0
 33 31  1  1  0  0  0
 33 34  1  0  0  0  0
 34 36  1  0  0  0  0
 35 37  1  1  0  0  0
 35 33  1  0  0  0  0
 35 32  1  0  0  0  0
 37 38  1  0  0  0  0
 38 39  1  0  0  0  0
 39 41  1  6  0  0  0
 40 39  1  0  0  0  0
M  END
>  <MODEL>
4

>  <REMARK>
 VINA RESULT:      -9.2      2.901      6.816
  Name = 
  10 active torsions:
  status: ('A' for Active; 'I' for Inactive)
    1  A    between atoms: C_1  and  C_33
    2  A    between atoms: C_4  and  C_21
    3  A    between atoms: C_4  and  C_29
    4  A    between atoms: N_6  and  C_33
    5  A    between atoms: N_6  and  C_40
    6  A    between atoms: C_8  and  O_28
    7  A    between atoms: C_8  and  C_29
    8  A    between atoms: C_11  and  O_28
    9  A    between atoms: C_21  and  N_22
   10  A    between atoms: C_30  and  C_37
                            x       y       z     vdW  Elec       q    Type
                         _______ _______ _______ _____ _____    ______ ____

>  <TORSDO>
F 10

$$$$
=
 OpenBabel10232412003D

 41 46  0  0  1  0  0  0  0  0999 V2000
  188.4230  177.6570  142.8900 C   0  0  0  0  0  0  0  0  0  0  0  0
  189.1480  177.2040  147.0030 C   0  0  0  0  0  0  0  0  0  0  0  0
  188.9220  177.3570  145.6220 C   0  0  0  0  0  0  0  0  0  0  0  0
  188.1720  177.9150  141.4250 C   0  0  0  0  0  2  0  0  0  0  0  0
  187.6740  177.6340  145.1630 N   0  0  0  0  0  0  0  0  0  0  0  0
  188.0410  177.3540  147.9890 C   0  0  0  0  0  1  0  0  0  0  0  0
  191.4880  176.7610  146.5750 C   0  0  0  0  0  3  0  0  0  0  0  0
  189.7410  177.3770  143.3260 C   0  0  0  0  0  0  0  0  0  0  0  0
  189.0120  176.9820  140.5620 C   0  0  0  0  0  2  0  0  0  0  0  0
  190.4290  176.9080  147.4710 C   0  0  0  0  0  3  0  0  0  0  0  0
  190.4190  177.1330  140.9050 N   0  0  0  0  0  0  0  0  0  0  0  0
  192.0260  177.2720  142.5940 O   0  0  0  0  0  0  0  0  0  0  0  0
  189.9920  177.2170  144.7080 C   0  0  0  0  0  0  0  0  0  0  0  0
  190.8040  177.2450  142.2850 C   0  0  0  0  0  0  0  0  0  0  0  0
  187.3850  177.7860  143.8440 C   0  0  0  0  0  0  0  0  0  0  0  0
  191.2690  176.9130  145.2050 C   0  0  0  0  0  3  0  0  0  0  0  0
  185.0310  178.3270  144.4290 N   0  0  0  0  0  0  0  0  0  0  0  0
  185.5000  178.1070  142.2170 N   0  0  0  0  0  2  0  0  0  0  0  0
  180.1980  179.3180  143.6150 C   0  0  0  0  0  1  0  0  0  0  0  0
  181.7720  178.5250  141.8470 C   0  0  0  0  0  2  0  0  0  0  0  0
  183.9200  178.5380  143.7070 C   0  0  0  0  0  0  0  0  0  0  0  0
  185.9760  178.0810  143.4880 C   0  0  0  0  0  0  0  0  0  0  0  0
  184.1960  178.3770  142.3810 C   0  0  0  0  0  0  0  0  0  0  0  0
  183.2000  178.6020  141.2880 C   0  0  0  0  0  2  0  0  0  0  0  0
  182.5490  178.7890  144.2510 C   0  0  0  0  0  2  0  0  0  0  0  0
  181.6360  179.3400  143.1440 C   0  0  2  0  0  3  0  0  0  0  0  0
  191.3850  177.2910  139.8280 C   0  0  0  0  0  2  0  0  0  0  0  0
  190.6780  177.2870  138.4820 C   0  0  0  0  0  2  0  0  0  0  0  0
  191.4320  176.4160  137.4950 C   0  0  0  0  0  2  0  0  0  0  0  0
  192.7510  175.9620  138.0950 C   0  0  0  0  0  2  0  0  0  0  0  0
  193.7950  176.2760  137.2260 O   0  0  0  0  0  0  0  0  0  0  0  0
  195.6710  173.2270  135.5720 S   0  0  0  0  0  0  0  0  0  0  0  0
  193.9630  175.1310  136.4400 C   0  0  2  0  0  3  0  0  0  0  0  0
  193.6360  173.8900  137.2320 C   0  0  0  0  0  2  0  0  0  0  0  0
  195.3990  174.9870  135.9530 C   0  0  1  0  0  3  0  0  0  0  0  0
  194.1270  172.7270  136.4000 C   0  0  0  0  0  2  0  0  0  0  0  0
  196.3400  175.4040  136.9810 N   0  0  0  0  0  2  0  0  0  0  0  0
  197.6200  174.7950  136.6520 C   0  0  0  0  0  2  0  0  0  0  0  0
  198.3390  174.3860  137.9230 C   0  0  2  0  0  3  0  0  0  0  0  0
  198.3620  175.4570  138.8180 O   0  0  0  0  0  1  0  0  0  0  0  0
  199.7600  173.9860  137.5850 C   0  0  0  0  0  1  0  0  0  0  0  0
  1  8  2  0  0  0  0
  1 15  1  0  0  0  0
  2 10  1  0  0  0  0
  2  6  1  0  0  0  0
  3  2  2  0  0  0  0
  4  1  1  0  0  0  0
  5  3  1  0  0  0  0
  7 10  2  0  0  0  0
  8 13  1  0  0  0  0
  9 11  1  0  0  0  0
  9  4  1  0  0  0  0
 11 14  1  0  0  0  0
 13 16  2  0  0  0  0
 13  3  1  0  0  0  0
 14 12  2  0  0  0  0
 14  8  1  0  0  0  0
 15  5  2  0  0  0  0
 16  7  1  0  0  0  0
 18 23  1  0  0  0  0
 18 22  1  0  0  0  0
 20 26  1  0  0  0  0
 21 25  1  0  0  0  0
 21 17  1  0  0  0  0
 22 15  1  0  0  0  0
 22 17  2  0  0  0  0
 23 21  2  0  0  0  0
 24 20  1  0  0  0  0
 24 23  1  0  0  0  0
 26 19  1  1  0  0  0
 26 25  1  0  0  0  0
 27 11  1  0  0  0  0
 28 27  1  0  0  0  0
 29 30  1  0  0  0  0
 29 28  1  0  0  0  0
 31 30  1  0  0  0  0
 32 35  1  0  0  0  0
 32 36  1  0  0  0  0
 33 31  1  1  0  0  0
 33 34  1  0  0  0  0
 35 33  1  0  0  0  0
 35 37  1  1  0  0  0
 36 34  1  0  0  0  0
 38 37  1  0  0  0  0
 38 39  1  0  0  0  0
 39 41  1  6  0  0  0
 39 40  1  0  0  0  0
M  END
>  <MODEL>
5

>  <REMARK>
 VINA RESULT:      -9.1      4.798      9.674
  Name = 
  10 active torsions:
  status: ('A' for Active; 'I' for Inactive)
    1  A    between atoms: C_1  and  C_33
    2  A    between atoms: C_4  and  C_21
    3  A    between atoms: C_4  and  C_29
    4  A    between atoms: N_6  and  C_33
    5  A    between atoms: N_6  and  C_40
    6  A    between atoms: C_8  and  O_28
    7  A    between atoms: C_8  and  C_29
    8  A    between atoms: C_11  and  O_28
    9  A    between atoms: C_21  and  N_22
   10  A    between atoms: C_30  and  C_37
                            x       y       z     vdW  Elec       q    Type
                         _______ _______ _______ _____ _____    ______ ____

>  <TORSDO>
F 10

$$$$
=
 OpenBabel10232412003D

 41 46  0  0  1  0  0  0  0  0999 V2000
  186.8470  178.1090  143.7690 C   0  0  0  0  0  0  0  0  0  0  0  0
  189.8850  177.2910  146.5520 C   0  0  0  0  0  0  0  0  0  0  0  0
  188.8560  177.5650  145.6320 C   0  0  0  0  0  0  0  0  0  0  0  0
  185.7390  178.3090  142.7650 C   0  0  0  0  0  2  0  0  0  0  0  0
  189.0970  177.4870  144.2980 N   0  0  0  0  0  0  0  0  0  0  0  0
  191.2480  176.8990  146.0940 C   0  0  0  0  0  1  0  0  0  0  0  0
  188.3740  177.7490  148.3860 C   0  0  0  0  0  3  0  0  0  0  0  0
  186.5510  178.1960  145.1510 C   0  0  0  0  0  0  0  0  0  0  0  0
  184.8000  179.4220  143.2130 C   0  0  0  0  0  2  0  0  0  0  0  0
  189.6390  177.3850  147.9230 C   0  0  0  0  0  3  0  0  0  0  0  0
  184.2810  179.1200  144.5390 N   0  0  0  0  0  0  0  0  0  0  0  0
  184.7450  178.4220  146.7190 O   0  0  0  0  0  0  0  0  0  0  0  0
  187.5690  177.9270  146.0940 C   0  0  0  0  0  0  0  0  0  0  0  0
  185.1630  178.5880  145.5410 C   0  0  0  0  0  0  0  0  0  0  0  0
  188.1510  177.7450  143.3570 C   0  0  0  0  0  0  0  0  0  0  0  0
  187.3490  178.0190  147.4770 C   0  0  0  0  0  3  0  0  0  0  0  0
  187.8590  178.2150  140.9340 N   0  0  0  0  0  0  0  0  0  0  0  0
  189.6280  176.9100  141.5060 N   0  0  0  0  0  2  0  0  0  0  0  0
  188.8960  178.0050  136.0470 C   0  0  0  0  0  1  0  0  0  0  0  0
  190.0260  176.5960  137.7700 C   0  0  0  0  0  2  0  0  0  0  0  0
  188.5410  177.8670  139.8320 C   0  0  0  0  0  0  0  0  0  0  0  0
  188.5580  177.6250  141.9350 C   0  0  0  0  0  0  0  0  0  0  0  0
  189.5850  177.0590  140.1730 C   0  0  0  0  0  0  0  0  0  0  0  0
  190.5920  176.5400  139.1960 C   0  0  0  0  0  2  0  0  0  0  0  0
  188.1640  178.1960  138.4220 C   0  0  0  0  0  2  0  0  0  0  0  0
  189.3600  177.9520  137.4870 C   0  0  2  0  0  3  0  0  0  0  0  0
  182.8500  179.2510  144.7740 C   0  0  0  0  0  2  0  0  0  0  0  0
  182.0750  178.3910  143.7890 C   0  0  0  0  0  2  0  0  0  0  0  0
  181.3720  179.2650  142.7680 C   0  0  0  0  0  2  0  0  0  0  0  0
  180.9300  178.4300  141.5790 C   0  0  0  0  0  2  0  0  0  0  0  0
  182.0460  178.0250  140.8470 O   0  0  0  0  0  0  0  0  0  0  0  0
  182.1920  178.1260  136.9080 S   0  0  0  0  0  0  0  0  0  0  0  0
  181.8230  178.5130  139.5550 C   0  0  2  0  0  3  0  0  0  0  0  0
  180.5020  178.0190  139.0210 C   0  0  0  0  0  2  0  0  0  0  0  0
  182.9010  178.0510  138.5840 C   0  0  1  0  0  3  0  0  0  0  0  0
  180.5010  178.3530  137.5460 C   0  0  0  0  0  2  0  0  0  0  0  0
  183.3050  176.6830  138.8700 N   0  0  0  0  0  2  0  0  0  0  0  0
  183.6300  176.0640  137.5940 C   0  0  0  0  0  2  0  0  0  0  0  0
  183.4560  174.5610  137.6890 C   0  0  2  0  0  3  0  0  0  0  0  0
  184.7040  173.9380  137.6600 O   0  0  0  0  0  1  0  0  0  0  0  0
  182.6280  174.0780  136.5170 C   0  0  0  0  0  1  0  0  0  0  0  0
  1  8  1  0  0  0  0
  2 10  2  0  0  0  0
  3 13  1  0  0  0  0
  3  2  1  0  0  0  0
  4  9  1  0  0  0  0
  4  1  1  0  0  0  0
  5  3  2  0  0  0  0
  6  2  1  0  0  0  0
  8 14  1  0  0  0  0
  8 13  2  0  0  0  0
  9 11  1  0  0  0  0
 10  7  1  0  0  0  0
 11 27  1  0  0  0  0
 11 14  1  0  0  0  0
 13 16  1  0  0  0  0
 14 12  2  0  0  0  0
 15  1  2  0  0  0  0
 15  5  1  0  0  0  0
 16  7  2  0  0  0  0
 17 22  2  0  0  0  0
 18 22  1  0  0  0  0
 20 24  1  0  0  0  0
 21 23  2  0  0  0  0
 21 17  1  0  0  0  0
 22 15  1  0  0  0  0
 23 18  1  0  0  0  0
 24 23  1  0  0  0  0
 25 21  1  0  0  0  0
 26 19  1  6  0  0  0
 26 20  1  0  0  0  0
 26 25  1  0  0  0  0
 28 27  1  0  0  0  0
 29 28  1  0  0  0  0
 30 29  1  0  0  0  0
 31 30  1  0  0  0  0
 32 36  1  0  0  0  0
 32 35  1  0  0  0  0
 33 31  1  1  0  0  0
 34 33  1  0  0  0  0
 35 37  1  1  0  0  0
 35 33  1  0  0  0  0
 36 34  1  0  0  0  0
 38 39  1  0  0  0  0
 38 37  1  0  0  0  0
 39 41  1  6  0  0  0
 40 39  1  0  0  0  0
M  END
>  <MODEL>
6

>  <REMARK>
 VINA RESULT:      -9.1      1.629      2.070
  Name = 
  10 active torsions:
  status: ('A' for Active; 'I' for Inactive)
    1  A    between atoms: C_1  and  C_33
    2  A    between atoms: C_4  and  C_21
    3  A    between atoms: C_4  and  C_29
    4  A    between atoms: N_6  and  C_33
    5  A    between atoms: N_6  and  C_40
    6  A    between atoms: C_8  and  O_28
    7  A    between atoms: C_8  and  C_29
    8  A    between atoms: C_11  and  O_28
    9  A    between atoms: C_21  and  N_22
   10  A    between atoms: C_30  and  C_37
                            x       y       z     vdW  Elec       q    Type
                         _______ _______ _______ _____ _____    ______ ____

>  <TORSDO>
F 10

$$$$
=
 OpenBabel10232412003D

 41 46  0  0  1  0  0  0  0  0999 V2000
  187.3950  177.9560  143.5490 C   0  0  0  0  0  0  0  0  0  0  0  0
  189.7590  177.2760  146.9540 C   0  0  0  0  0  0  0  0  0  0  0  0
  188.9530  177.5050  145.8220 C   0  0  0  0  0  0  0  0  0  0  0  0
  186.5280  178.1060  142.3230 C   0  0  0  0  0  2  0  0  0  0  0  0
  189.4720  177.3570  144.5760 N   0  0  0  0  0  0  0  0  0  0  0  0
  191.1830  176.8580  146.8170 C   0  0  0  0  0  1  0  0  0  0  0  0
  187.8980  177.8310  148.3970 C   0  0  0  0  0  3  0  0  0  0  0  0
  186.8120  178.1140  144.8300 C   0  0  0  0  0  0  0  0  0  0  0  0
  185.5300  179.2430  142.5040 C   0  0  0  0  0  2  0  0  0  0  0  0
  189.2270  177.4410  148.2340 C   0  0  0  0  0  3  0  0  0  0  0  0
  184.7370  179.0110  143.7020 N   0  0  0  0  0  0  0  0  0  0  0  0
  184.7170  178.4260  145.9630 O   0  0  0  0  0  0  0  0  0  0  0  0
  187.6020  177.8930  145.9810 C   0  0  0  0  0  0  0  0  0  0  0  0
  185.3780  178.5290  144.8950 C   0  0  0  0  0  0  0  0  0  0  0  0
  188.7520  177.5680  143.4430 C   0  0  0  0  0  0  0  0  0  0  0  0
  187.0940  178.0560  147.2790 C   0  0  0  0  0  3  0  0  0  0  0  0
  188.7900  177.0120  141.0210 N   0  0  0  0  0  0  0  0  0  0  0  0
  190.7890  177.5110  141.9770 N   0  0  0  0  0  0  0  0  0  0  0  0
  190.7990  176.2330  136.5090 C   0  0  0  0  0  1  0  0  0  0  0  0
  192.1380  176.5410  138.5930 C   0  0  0  0  0  2  0  0  0  0  0  0
  189.7630  176.9430  140.1000 C   0  0  1  0  0  3  0  0  0  0  0  0
  189.4510  177.3740  142.1490 C   0  0  0  0  0  0  0  0  0  0  0  0
  190.9670  177.2140  140.6810 C   0  0  0  0  0  0  0  0  0  0  0  0
  192.2580  177.2880  139.9290 C   0  0  0  0  0  2  0  0  0  0  0  0
  189.6000  176.5140  138.6760 C   0  0  0  0  0  2  0  0  0  0  0  0
  190.8390  176.9140  137.8600 C   0  0  2  0  0  3  0  0  0  0  0  0
  183.2910  179.1570  143.6190 C   0  0  0  0  0  2  0  0  0  0  0  0
  182.7420  178.3180  142.4770 C   0  0  0  0  0  2  0  0  0  0  0  0
  181.4620  178.9310  141.9410 C   0  0  0  0  0  2  0  0  0  0  0  0
  181.4780  178.9370  140.4230 C   0  0  0  0  0  2  0  0  0  0  0  0
  182.6580  178.3540  139.9630 O   0  0  0  0  0  0  0  0  0  0  0  0
  183.0190  176.1020  136.7450 S   0  0  0  0  0  0  0  0  0  0  0  0
  182.2570  177.5130  138.9180 C   0  0  2  0  0  3  0  0  0  0  0  0
  182.2920  176.0690  139.3540 C   0  0  0  0  0  2  0  0  0  0  0  0
  183.1740  177.6400  137.7090 C   0  0  1  0  0  3  0  0  0  0  0  0
  182.1330  175.2530  138.0920 C   0  0  0  0  0  2  0  0  0  0  0  0
  184.5590  177.8050  138.1230 N   0  0  0  0  0  2  0  0  0  0  0  0
  185.3840  177.5120  136.9610 C   0  0  0  0  0  2  0  0  0  0  0  0
  186.8340  177.8380  137.2610 C   0  0  2  0  0  3  0  0  0  0  0  0
  186.9030  178.7800  138.2890 O   0  0  0  0  0  1  0  0  0  0  0  0
  187.4860  178.4050  136.0180 C   0  0  0  0  0  1  0  0  0  0  0  0
  1  8  1  0  0  0  0
  2 10  2  0  0  0  0
  3 13  1  0  0  0  0
  3  2  1  0  0  0  0
  4  9  1  0  0  0  0
  4  1  1  0  0  0  0
  5  3  2  0  0  0  0
  6  2  1  0  0  0  0
  8 14  1  0  0  0  0
  8 13  2  0  0  0  0
  9 11  1  0  0  0  0
 10  7  1  0  0  0  0
 11 14  1  0  0  0  0
 13 16  1  0  0  0  0
 14 12  2  0  0  0  0
 15  1  2  0  0  0  0
 15  5  1  0  0  0  0
 16  7  2  0  0  0  0
 17 22  2  0  0  0  0
 18 22  1  0  0  0  0
 20 24  1  0  0  0  0
 21 25  1  1  0  0  0
 21 23  1  0  0  0  0
 21 17  1  0  0  0  0
 22 15  1  0  0  0  0
 23 18  2  0  0  0  0
 24 23  1  0  0  0  0
 26 19  1  6  0  0  0
 26 20  1  0  0  0  0
 26 25  1  0  0  0  0
 27 11  1  0  0  0  0
 28 27  1  0  0  0  0
 29 28  1  0  0  0  0
 30 29  1  0  0  0  0
 31 30  1  0  0  0  0
 32 35  1  0  0  0  0
 32 36  1  0  0  0  0
 33 34  1  0  0  0  0
 33 31  1  1  0  0  0
 35 37  1  1  0  0  0
 35 33  1  0  0  0  0
 36 34  1  0  0  0  0
 38 39  1  0  0  0  0
 38 37  1  0  0  0  0
 39 41  1  6  0  0  0
 39 40  1  0  0  0  0
M  END
>  <MODEL>
7

>  <REMARK>
 VINA RESULT:      -9.1      1.442      1.957
  Name = 
  10 active torsions:
  status: ('A' for Active; 'I' for Inactive)
    1  A    between atoms: C_1  and  C_33
    2  A    between atoms: C_4  and  C_21
    3  A    between atoms: C_4  and  C_29
    4  A    between atoms: N_6  and  C_33
    5  A    between atoms: N_6  and  C_40
    6  A    between atoms: C_8  and  O_28
    7  A    between atoms: C_8  and  C_29
    8  A    between atoms: C_11  and  O_28
    9  A    between atoms: C_21  and  N_22
   10  A    between atoms: C_30  and  C_37
                            x       y       z     vdW  Elec       q    Type
                         _______ _______ _______ _____ _____    ______ ____

>  <TORSDO>
F 10

$$$$
=
 OpenBabel10232412003D

 41 46  0  0  1  0  0  0  0  0999 V2000
  187.7530  177.9330  142.6020 C   0  0  0  0  0  0  0  0  0  0  0  0
  186.5610  178.1060  146.6270 C   0  0  0  0  0  0  0  0  0  0  0  0
  186.9770  178.0480  145.2830 C   0  0  0  0  0  0  0  0  0  0  0  0
  188.1930  177.9660  141.1600 C   0  0  0  0  0  2  0  0  0  0  0  0
  186.0840  178.2710  144.2850 N   0  0  0  0  0  0  0  0  0  0  0  0
  185.1500  178.4230  146.9870 C   0  0  0  0  0  1  0  0  0  0  0  0
  188.8060  177.5660  147.3490 C   0  0  0  0  0  3  0  0  0  0  0  0
  188.7180  177.7020  143.6130 C   0  0  0  0  0  0  0  0  0  0  0  0
  189.2460  176.8990  140.8930 C   0  0  0  0  0  2  0  0  0  0  0  0
  187.4780  177.8650  147.6520 C   0  0  0  0  0  3  0  0  0  0  0  0
  190.3670  177.0790  141.8040 N   0  0  0  0  0  0  0  0  0  0  0  0
  191.0760  177.4500  143.9980 O   0  0  0  0  0  0  0  0  0  0  0  0
  188.3240  177.7530  144.9700 C   0  0  0  0  0  0  0  0  0  0  0  0
  190.1160  177.3960  143.1820 C   0  0  0  0  0  0  0  0  0  0  0  0
  186.4170  178.2230  142.9680 C   0  0  0  0  0  0  0  0  0  0  0  0
  189.2240  177.5090  146.0190 C   0  0  0  0  0  3  0  0  0  0  0  0
  184.0980  177.9450  142.1180 N   0  0  0  0  0  0  0  0  0  0  0  0
  185.4850  179.2410  140.8710 N   0  0  0  0  0  0  0  0  0  0  0  0
  180.2330  178.5560  139.0050 C   0  0  0  0  0  1  0  0  0  0  0  0
  182.5640  179.2870  138.4880 C   0  0  0  0  0  2  0  0  0  0  0  0
  183.4400  178.4110  141.0450 C   0  0  1  0  0  3  0  0  0  0  0  0
  185.3360  178.4820  141.9850 C   0  0  0  0  0  0  0  0  0  0  0  0
  184.2820  179.1650  140.2820 C   0  0  0  0  0  0  0  0  0  0  0  0
  183.8590  179.8930  139.0450 C   0  0  0  0  0  2  0  0  0  0  0  0
  182.0360  178.0710  140.6550 C   0  0  0  0  0  2  0  0  0  0  0  0
  181.5270  179.0680  139.6020 C   0  0  2  0  0  3  0  0  0  0  0  0
  191.7170  177.0540  141.2600 C   0  0  0  0  0  2  0  0  0  0  0  0
  191.7160  177.5580  139.8260 C   0  0  0  0  0  2  0  0  0  0  0  0
  191.5640  176.3970  138.8610 C   0  0  0  0  0  2  0  0  0  0  0  0
  191.0500  176.8920  137.5210 C   0  0  0  0  0  2  0  0  0  0  0  0
  190.0240  176.0600  137.0740 O   0  0  0  0  0  0  0  0  0  0  0  0
  186.5120  177.4770  135.9730 S   0  0  0  0  0  0  0  0  0  0  0  0
  189.1110  176.9210  136.4550 C   0  0  2  0  0  3  0  0  0  0  0  0
  188.7570  178.0680  137.3680 C   0  0  0  0  0  2  0  0  0  0  0  0
  187.8120  176.2080  136.1060 C   0  0  1  0  0  3  0  0  0  0  0  0
  187.5700  178.7530  136.7300 C   0  0  0  0  0  2  0  0  0  0  0  0
  187.4450  175.2580  137.1450 N   0  0  0  0  0  2  0  0  0  0  0  0
  186.1720  174.6740  136.7520 C   0  0  0  0  0  2  0  0  0  0  0  0
  186.2270  173.1660  136.9050 C   0  0  2  0  0  3  0  0  0  0  0  0
  185.5970  172.7890  138.0920 O   0  0  0  0  0  1  0  0  0  0  0  0
  187.6730  172.7190  136.9420 C   0  0  0  0  0  1  0  0  0  0  0  0
  1 15  2  0  0  0  0
  1  8  1  0  0  0  0
  2  6  1  0  0  0  0
  2 10  2  0  0  0  0
  3  2  1  0  0  0  0
  4  1  1  0  0  0  0
  5  3  2  0  0  0  0
  7 10  1  0  0  0  0
  8 13  2  0  0  0  0
  9  4  1  0  0  0  0
  9 11  1  0  0  0  0
 11 14  1  0  0  0  0
 13  3  1  0  0  0  0
 13 16  1  0  0  0  0
 14  8  1  0  0  0  0
 14 12  2  0  0  0  0
 15  5  1  0  0  0  0
 16  7  2  0  0  0  0
 18 22  1  0  0  0  0
 20 24  1  0  0  0  0
 20 26  1  0  0  0  0
 21 25  1  6  0  0  0
 21 17  1  0  0  0  0
 22 17  2  0  0  0  0
 22 15  1  0  0  0  0
 23 18  2  0  0  0  0
 23 21  1  0  0  0  0
 24 23  1  0  0  0  0
 26 19  1  6  0  0  0
 26 25  1  0  0  0  0
 27 11  1  0  0  0  0
 28 27  1  0  0  0  0
 29 28  1  0  0  0  0
 30 29  1  0  0  0  0
 31 30  1  0  0  0  0
 32 35  1  0  0  0  0
 32 36  1  0  0  0  0
 33 31  1  1  0  0  0
 33 34  1  0  0  0  0
 35 33  1  0  0  0  0
 35 37  1  1  0  0  0
 36 34  1  0  0  0  0
 38 39  1  0  0  0  0
 38 37  1  0  0  0  0
 39 41  1  1  0  0  0
 39 40  1  0  0  0  0
M  END
>  <MODEL>
8

>  <REMARK>
 VINA RESULT:      -8.9      2.857      6.836
  Name = 
  10 active torsions:
  status: ('A' for Active; 'I' for Inactive)
    1  A    between atoms: C_1  and  C_33
    2  A    between atoms: C_4  and  C_21
    3  A    between atoms: C_4  and  C_29
    4  A    between atoms: N_6  and  C_33
    5  A    between atoms: N_6  and  C_40
    6  A    between atoms: C_8  and  O_28
    7  A    between atoms: C_8  and  C_29
    8  A    between atoms: C_11  and  O_28
    9  A    between atoms: C_21  and  N_22
   10  A    between atoms: C_30  and  C_37
                            x       y       z     vdW  Elec       q    Type
                         _______ _______ _______ _____ _____    ______ ____

>  <TORSDO>
F 10

$$$$
=
 OpenBabel10232412003D

 41 46  0  0  1  0  0  0  0  0999 V2000
  185.0590  178.5790  142.2870 C   0  0  0  0  0  0  0  0  0  0  0  0
  181.2600  179.1840  140.5990 C   0  0  0  0  0  0  0  0  0  0  0  0
  182.5270  178.9860  141.1800 C   0  0  0  0  0  0  0  0  0  0  0  0
  186.4390  178.4550  142.8830 C   0  0  0  0  0  2  0  0  0  0  0  0
  183.6170  178.8050  140.3900 N   0  0  0  0  0  0  0  0  0  0  0  0
  181.0840  179.2140  139.1190 C   0  0  0  0  0  1  0  0  0  0  0  0
  180.2690  179.3350  142.8010 C   0  0  0  0  0  3  0  0  0  0  0  0
  183.9500  178.7710  143.1470 C   0  0  0  0  0  0  0  0  0  0  0  0
  186.4000  177.6400  144.1690 C   0  0  0  0  0  2  0  0  0  0  0  0
  180.1390  179.3580  141.4130 C   0  0  0  0  0  3  0  0  0  0  0  0
  185.4600  178.2440  145.1020 N   0  0  0  0  0  0  0  0  0  0  0  0
  183.3390  179.1630  145.4370 O   0  0  0  0  0  0  0  0  0  0  0  0
  182.6670  178.9700  142.5870 C   0  0  0  0  0  0  0  0  0  0  0  0
  184.1990  178.7350  144.6200 C   0  0  0  0  0  0  0  0  0  0  0  0
  184.8660  178.6020  140.8850 C   0  0  0  0  0  0  0  0  0  0  0  0
  181.5240  179.1410  143.3820 C   0  0  0  0  0  3  0  0  0  0  0  0
  185.7210  178.1920  138.5870 N   0  0  0  0  0  0  0  0  0  0  0  0
  187.2810  178.4180  140.2230 N   0  0  0  0  0  0  0  0  0  0  0  0
  189.1390  177.4770  135.0080 C   0  0  0  0  0  1  0  0  0  0  0  0
  189.6670  177.5160  137.4480 C   0  0  0  0  0  2  0  0  0  0  0  0
  186.9500  178.0750  138.0610 C   0  0  1  0  0  3  0  0  0  0  0  0
  185.9630  178.4130  139.9030 C   0  0  0  0  0  0  0  0  0  0  0  0
  187.8850  178.1820  139.0490 C   0  0  0  0  0  0  0  0  0  0  0  0
  189.3610  178.1640  138.8050 C   0  0  0  0  0  2  0  0  0  0  0  0
  187.2720  177.7530  136.6360 C   0  0  0  0  0  2  0  0  0  0  0  0
  188.7480  178.0680  136.3460 C   0  0  2  0  0  3  0  0  0  0  0  0
  185.8800  178.4450  146.4820 C   0  0  0  0  0  2  0  0  0  0  0  0
  187.2060  177.7480  146.7350 C   0  0  0  0  0  2  0  0  0  0  0  0
  187.5180  177.7350  148.2200 C   0  0  0  0  0  2  0  0  0  0  0  0
  188.9820  178.0670  148.4510 C   0  0  0  0  0  2  0  0  0  0  0  0
  189.6490  178.1310  147.2280 O   0  0  0  0  0  0  0  0  0  0  0  0
  191.9820  175.3690  145.6520 S   0  0  0  0  0  0  0  0  0  0  0  0
  190.2970  176.8970  147.1090 C   0  0  2  0  0  3  0  0  0  0  0  0
  191.6130  176.9140  147.8460 C   0  0  0  0  0  2  0  0  0  0  0  0
  190.6000  176.5560  145.6570 C   0  0  1  0  0  3  0  0  0  0  0  0
  192.3460  175.6650  147.4130 C   0  0  0  0  0  2  0  0  0  0  0  0
  190.9910  177.7450  144.9150 N   0  0  0  0  0  2  0  0  0  0  0  0
  191.6070  177.2880  143.6790 C   0  0  0  0  0  2  0  0  0  0  0  0
  190.7240  177.6440  142.4990 C   0  0  2  0  0  3  0  0  0  0  0  0
  189.7730  178.5880  142.8880 O   0  0  0  0  0  1  0  0  0  0  0  0
  190.0190  176.3960  142.0080 C   0  0  0  0  0  1  0  0  0  0  0  0
  1  4  1  0  0  0  0
  1  8  1  0  0  0  0
  2  3  1  0  0  0  0
  2 10  2  0  0  0  0
  3 13  1  0  0  0  0
  4  9  1  0  0  0  0
  5 15  1  0  0  0  0
  5  3  2  0  0  0  0
  6  2  1  0  0  0  0
  7 16  2  0  0  0  0
  8 14  1  0  0  0  0
  9 11  1  0  0  0  0
 10  7  1  0  0  0  0
 11 27  1  0  0  0  0
 13  8  2  0  0  0  0
 13 16  1  0  0  0  0
 14 11  1  0  0  0  0
 14 12  2  0  0  0  0
 15  1  2  0  0  0  0
 17 22  2  0  0  0  0
 20 24  1  0  0  0  0
 21 25  1  1  0  0  0
 21 17  1  0  0  0  0
 21 23  1  0  0  0  0
 22 18  1  0  0  0  0
 22 15  1  0  0  0  0
 23 18  2  0  0  0  0
 24 23  1  0  0  0  0
 26 19  1  6  0  0  0
 26 25  1  0  0  0  0
 26 20  1  0  0  0  0
 27 28  1  0  0  0  0
 28 29  1  0  0  0  0
 29 30  1  0  0  0  0
 31 30  1  0  0  0  0
 32 35  1  0  0  0  0
 32 36  1  0  0  0  0
 33 31  1  6  0  0  0
 33 34  1  0  0  0  0
 35 37  1  6  0  0  0
 35 33  1  0  0  0  0
 36 34  1  0  0  0  0
 38 37  1  0  0  0  0
 39 41  1  1  0  0  0
 39 40  1  0  0  0  0
 39 38  1  0  0  0  0
M  END
>  <MODEL>
9

>  <REMARK>
 VINA RESULT:      -8.7      2.811      7.627
  Name = 
  10 active torsions:
  status: ('A' for Active; 'I' for Inactive)
    1  A    between atoms: C_1  and  C_33
    2  A    between atoms: C_4  and  C_21
    3  A    between atoms: C_4  and  C_29
    4  A    between atoms: N_6  and  C_33
    5  A    between atoms: N_6  and  C_40
    6  A    between atoms: C_8  and  O_28
    7  A    between atoms: C_8  and  C_29
    8  A    between atoms: C_11  and  O_28
    9  A    between atoms: C_21  and  N_22
   10  A    between atoms: C_30  and  C_37
                            x       y       z     vdW  Elec       q    Type
                         _______ _______ _______ _____ _____    ______ ____

>  <TORSDO>
F 10

$$$$
