=
 OpenBabel10232411353D

 48 50  0  0  1  0  0  0  0  0999 V2000
  189.4360  177.3940  144.9300 C   0  0  0  0  0  3  0  0  0  0  0  0
  187.5470  176.5750  143.6620 C   0  0  0  0  0  3  0  0  0  0  0  0
  187.1760  177.8480  145.7050 C   0  0  0  0  0  0  0  0  0  0  0  0
  188.5650  177.9720  145.8560 C   0  0  0  0  0  3  0  0  0  0  0  0
  186.6770  177.1550  144.5910 C   0  0  0  0  0  3  0  0  0  0  0  0
  188.9350  176.6730  143.8390 C   0  0  0  0  0  0  0  0  0  0  0  0
  189.8980  176.1410  142.8060 C   0  0  2  0  0  3  0  0  0  0  0  0
  191.0450  177.1190  142.4990 C   0  0  0  0  0  0  0  0  0  0  0  0
  189.9080  176.8120  141.5230 C   0  0  2  0  0  3  0  0  0  0  0  0
  192.0670  177.7100  142.8080 O   0  0  0  0  0  0  0  0  0  0  0  0
  189.0570  178.0700  141.3680 C   0  0  0  0  0  2  0  0  0  0  0  0
  188.5780  178.1930  139.9330 C   0  0  0  0  0  2  0  0  0  0  0  0
  189.6820  178.1950  139.0370 O   0  0  0  0  0  0  0  0  0  0  0  0
  188.8630  178.8510  136.9740 O   0  0  0  0  0  0  0  0  0  0  0  0
  189.5380  178.0320  137.6570 C   0  0  0  0  0  0  0  0  0  0  0  0
  190.1520  176.8480  136.9970 C   0  0  0  0  0  2  0  0  0  0  0  0
  190.7170  175.9190  138.0540 C   0  0  0  0  0  2  0  0  0  0  0  0
  190.7790  174.5520  137.5520 N   0  0  0  0  0  2  0  0  0  0  0  0
  191.7580  172.8660  136.2990 O   0  0  0  0  0  0  0  0  0  0  0  0
  191.9010  173.9840  136.8620 C   0  0  0  0  0  0  0  0  0  0  0  0
  195.8550  175.5750  135.4770 C   0  0  0  0  0  3  0  0  0  0  0  0
  193.2040  174.6760  136.7710 C   0  0  0  0  0  0  0  0  0  0  0  0
  194.2210  174.4440  137.8220 C   0  0  0  0  0  3  0  0  0  0  0  0
  194.6030  176.3770  135.5900 C   0  0  0  0  0  2  0  0  0  0  0  0
  195.5520  174.4800  137.6770 C   0  0  0  0  0  3  0  0  0  0  0  0
  196.3050  174.7560  136.4290 C   0  0  0  0  0  0  0  0  0  0  0  0
  193.3990  175.5090  135.7430 C   0  0  0  0  0  3  0  0  0  0  0  0
  197.5550  174.1660  136.2240 O   0  0  0  0  0  0  0  0  0  0  0  0
  198.6060  174.8160  135.5210 C   0  0  0  0  0  1  0  0  0  0  0  0
  185.0260  179.1480  146.2500 N   0  0  0  0  0  2  0  0  0  0  0  0
  186.4880  178.4280  147.8910 O   0  0  0  0  0  0  0  0  0  0  0  0
  186.2270  178.4750  146.6580 C   0  0  0  0  0  0  0  0  0  0  0  0
  184.6370  179.4250  144.8810 C   0  0  0  0  0  2  0  0  0  0  0  0
  183.2960  178.7710  144.6050 C   0  0  0  0  0  2  0  0  0  0  0  0
  183.0070  178.7050  143.1140 C   0  0  1  0  0  3  0  0  0  0  0  0
  182.0400  179.6590  142.8000 O   0  0  0  0  0  1  0  0  0  0  0  0
  184.2780  178.9720  142.3160 C   0  0  0  0  0  2  0  0  0  0  0  0
  184.1910  178.4490  140.8900 C   0  0  0  0  0  2  0  0  0  0  0  0
  182.9850  176.6850  139.5690 C   0  0  0  0  0  0  0  0  0  0  0  0
  183.1960  177.3920  140.7890 N   0  0  0  0  0  2  0  0  0  0  0  0
  181.9980  175.9120  139.4670 O   0  0  0  0  0  0  0  0  0  0  0  0
  183.8960  176.8490  138.4740 N   0  0  0  0  0  2  0  0  0  0  0  0
  183.7670  176.1980  137.1730 C   0  0  1  0  0  3  0  0  0  0  0  0
  184.0250  177.1770  136.0340 C   0  0  0  0  0  2  0  0  0  0  0  0
  185.3740  177.5300  136.0110 O   0  0  0  0  0  1  0  0  0  0  0  0
  184.6970  174.9930  137.0780 C   0  0  0  0  0  2  0  0  0  0  0  0
  184.0080  173.8350  137.4450 O   0  0  0  0  0  0  0  0  0  0  0  0
  184.9990  172.9430  137.8500 C   0  0  0  0  0  1  0  0  0  0  0  0
  1  4  1  0  0  0  0
  2  6  1  0  0  0  0
  2  5  2  0  0  0  0
  3  4  2  0  0  0  0
  3 32  1  0  0  0  0
  5  3  1  0  0  0  0
  6  1  2  0  0  0  0
  7  6  1  1  0  0  0
  8  7  1  0  0  0  0
  8 10  2  0  0  0  0
  9 11  1  1  0  0  0
  9  8  1  0  0  0  0
  9  7  1  0  0  0  0
 12 11  1  0  0  0  0
 13 12  1  0  0  0  0
 14 15  2  0  0  0  0
 15 13  1  0  0  0  0
 16 15  1  0  0  0  0
 16 17  1  0  0  0  0
 18 17  1  0  0  0  0
 19 20  2  0  0  0  0
 20 18  1  0  0  0  0
 21 24  1  0  0  0  0
 21 26  2  0  0  0  0
 22 20  1  0  0  0  0
 22 23  1  0  0  0  0
 24 27  1  0  0  0  0
 25 23  2  0  0  0  0
 26 25  1  0  0  0  0
 27 22  2  0  0  0  0
 28 26  1  0  0  0  0
 29 28  1  0  0  0  0
 30 32  1  0  0  0  0
 32 31  2  0  0  0  0
 33 30  1  0  0  0  0
 34 33  1  0  0  0  0
 35 36  1  6  0  0  0
 35 34  1  0  0  0  0
 37 35  1  0  0  0  0
 38 37  1  0  0  0  0
 39 40  1  0  0  0  0
 40 38  1  0  0  0  0
 41 39  2  0  0  0  0
 42 39  1  0  0  0  0
 43 44  1  6  0  0  0
 43 42  1  0  0  0  0
 45 44  1  0  0  0  0
 46 43  1  0  0  0  0
 46 47  1  0  0  0  0
 47 48  1  0  0  0  0
M  END
>  <MODEL>
1

>  <REMARK>
 VINA RESULT:      -7.2      0.000      0.000
  Name = 
  21 active torsions:
  status: ('A' for Active; 'I' for Inactive)
    1  A    between atoms: C_3  and  O_22
    2  A    between atoms: C_3  and  C_37
    3  A    between atoms: C_4  and  C_19
    4  A    between atoms: C_4  and  C_31
    5  A    between atoms: C_5  and  C_48
    6  A    between atoms: C_7  and  C_37
    7  A    between atoms: O_8  and  C_31
    8  A    between atoms: O_8  and  C_39
    9  A    between atoms: C_11  and  C_21
   10  A    between atoms: C_11  and  C_34
   11  A    between atoms: N_12  and  C_18
   12  A    between atoms: N_14  and  C_45
   13  A    between atoms: N_15  and  C_29
   14  A    between atoms: O_16  and  C_46
   15  A    between atoms: C_17  and  C_43
   16  A    between atoms: C_18  and  C_21
   17  A    between atoms: C_24  and  C_29
   18  A    between atoms: C_24  and  C_39
   19  A    between atoms: C_25  and  C_41
   20  A    between atoms: C_34  and  C_45
   21  A    between atoms: C_37  and  N_44
                            x       y       z     vdW  Elec       q    Type
                         _______ _______ _______ _____ _____    ______ ____

>  <TORSDO>
F 21

$$$$
=
 OpenBabel10232411353D

 48 50  0  0  1  0  0  0  0  0999 V2000
  189.8170  177.1170  144.8750 C   0  0  0  0  0  3  0  0  0  0  0  0
  187.6770  176.6530  143.8500 C   0  0  0  0  0  3  0  0  0  0  0  0
  187.7660  177.6330  146.0770 C   0  0  0  0  0  0  0  0  0  0  0  0
  189.1670  177.6190  146.0050 C   0  0  0  0  0  3  0  0  0  0  0  0
  187.0290  177.1560  144.9820 C   0  0  0  0  0  3  0  0  0  0  0  0
  189.0790  176.6100  143.8000 C   0  0  0  0  0  0  0  0  0  0  0  0
  189.8070  176.1610  142.5560 C   0  0  2  0  0  3  0  0  0  0  0  0
  190.9020  177.1480  142.1160 C   0  0  0  0  0  0  0  0  0  0  0  0
  189.5880  176.9460  141.3590 C   0  0  2  0  0  3  0  0  0  0  0  0
  191.9810  177.6950  142.2690 O   0  0  0  0  0  0  0  0  0  0  0  0
  188.7630  178.2240  141.4830 C   0  0  0  0  0  2  0  0  0  0  0  0
  187.7990  178.3290  140.3140 C   0  0  0  0  0  2  0  0  0  0  0  0
  188.5050  178.5920  139.1080 O   0  0  0  0  0  0  0  0  0  0  0  0
  188.1400  179.2980  136.9350 O   0  0  0  0  0  0  0  0  0  0  0  0
  187.9250  178.4520  137.8450 C   0  0  0  0  0  0  0  0  0  0  0  0
  187.0050  177.3110  137.5920 C   0  0  0  0  0  2  0  0  0  0  0  0
  187.8080  176.0290  137.4850 C   0  0  0  0  0  2  0  0  0  0  0  0
  188.3070  175.8500  136.1280 N   0  0  0  0  0  2  0  0  0  0  0  0
  190.0020  175.8250  134.5480 O   0  0  0  0  0  0  0  0  0  0  0  0
  189.6930  175.7750  135.7680 C   0  0  0  0  0  0  0  0  0  0  0  0
  193.3590  176.4330  138.2610 C   0  0  0  0  0  3  0  0  0  0  0  0
  190.7650  175.6640  136.7800 C   0  0  0  0  0  0  0  0  0  0  0  0
  191.4990  174.3860  136.9200 C   0  0  0  0  0  3  0  0  0  0  0  0
  191.9640  176.7280  138.6970 C   0  0  0  0  0  2  0  0  0  0  0  0
  192.7720  174.2250  137.3060 C   0  0  0  0  0  3  0  0  0  0  0  0
  193.7320  175.2940  137.6760 C   0  0  0  0  0  0  0  0  0  0  0  0
  191.0110  176.7300  137.5490 C   0  0  0  0  0  3  0  0  0  0  0  0
  195.0970  175.1180  137.4360 O   0  0  0  0  0  0  0  0  0  0  0  0
  195.5940  174.2890  136.3930 C   0  0  0  0  0  1  0  0  0  0  0  0
  185.6280  178.3820  147.2910 N   0  0  0  0  0  2  0  0  0  0  0  0
  187.7190  178.5140  148.2710 O   0  0  0  0  0  0  0  0  0  0  0  0
  187.0500  178.1850  147.2530 C   0  0  0  0  0  0  0  0  0  0  0  0
  184.7200  178.1990  146.1760 C   0  0  0  0  0  2  0  0  0  0  0  0
  184.8820  179.3560  145.2080 C   0  0  0  0  0  2  0  0  0  0  0  0
  183.9900  179.1900  143.9880 C   0  0  1  0  0  3  0  0  0  0  0  0
  183.0830  180.2470  143.9470 O   0  0  0  0  0  1  0  0  0  0  0  0
  184.8310  179.1770  142.7160 C   0  0  0  0  0  2  0  0  0  0  0  0
  184.3650  178.1240  141.7220 C   0  0  0  0  0  2  0  0  0  0  0  0
  182.4120  177.8350  140.1680 C   0  0  0  0  0  0  0  0  0  0  0  0
  182.9590  178.3070  141.3980 N   0  0  0  0  0  2  0  0  0  0  0  0
  181.2450  178.1700  139.8430 O   0  0  0  0  0  0  0  0  0  0  0  0
  183.1860  176.9780  139.3180 N   0  0  0  0  0  2  0  0  0  0  0  0
  182.7410  176.4550  138.0280 C   0  0  1  0  0  3  0  0  0  0  0  0
  183.2660  177.3020  136.8750 C   0  0  0  0  0  2  0  0  0  0  0  0
  182.2320  178.0700  136.3430 O   0  0  0  0  0  1  0  0  0  0  0  0
  183.1530  174.9970  137.8660 C   0  0  0  0  0  2  0  0  0  0  0  0
  184.5100  174.9210  137.5470 O   0  0  0  0  0  0  0  0  0  0  0  0
  184.8120  173.5610  137.5870 C   0  0  0  0  0  1  0  0  0  0  0  0
  1  4  1  0  0  0  0
  2  5  2  0  0  0  0
  3 32  1  0  0  0  0
  4  3  2  0  0  0  0
  5  3  1  0  0  0  0
  6  2  1  0  0  0  0
  6  1  2  0  0  0  0
  7  6  1  1  0  0  0
  8 10  2  0  0  0  0
  8  7  1  0  0  0  0
  9 11  1  1  0  0  0
  9  8  1  0  0  0  0
  9  7  1  0  0  0  0
 12 11  1  0  0  0  0
 13 12  1  0  0  0  0
 14 15  2  0  0  0  0
 15 13  1  0  0  0  0
 16 15  1  0  0  0  0
 17 16  1  0  0  0  0
 18 17  1  0  0  0  0
 19 20  2  0  0  0  0
 20 18  1  0  0  0  0
 20 22  1  0  0  0  0
 21 24  1  0  0  0  0
 22 23  1  0  0  0  0
 22 27  2  0  0  0  0
 23 25  2  0  0  0  0
 25 26  1  0  0  0  0
 26 21  2  0  0  0  0
 27 24  1  0  0  0  0
 28 26  1  0  0  0  0
 29 28  1  0  0  0  0
 32 30  1  0  0  0  0
 32 31  2  0  0  0  0
 33 30  1  0  0  0  0
 34 33  1  0  0  0  0
 35 36  1  6  0  0  0
 35 34  1  0  0  0  0
 37 35  1  0  0  0  0
 38 37  1  0  0  0  0
 39 40  1  0  0  0  0
 40 38  1  0  0  0  0
 41 39  2  0  0  0  0
 42 39  1  0  0  0  0
 43 44  1  6  0  0  0
 43 42  1  0  0  0  0
 45 44  1  0  0  0  0
 46 43  1  0  0  0  0
 47 48  1  0  0  0  0
 47 46  1  0  0  0  0
M  END
>  <MODEL>
2

>  <REMARK>
 VINA RESULT:      -7.1      1.522      2.039
  Name = 
  21 active torsions:
  status: ('A' for Active; 'I' for Inactive)
    1  A    between atoms: C_3  and  O_22
    2  A    between atoms: C_3  and  C_37
    3  A    between atoms: C_4  and  C_19
    4  A    between atoms: C_4  and  C_31
    5  A    between atoms: C_5  and  C_48
    6  A    between atoms: C_7  and  C_37
    7  A    between atoms: O_8  and  C_31
    8  A    between atoms: O_8  and  C_39
    9  A    between atoms: C_11  and  C_21
   10  A    between atoms: C_11  and  C_34
   11  A    between atoms: N_12  and  C_18
   12  A    between atoms: N_14  and  C_45
   13  A    between atoms: N_15  and  C_29
   14  A    between atoms: O_16  and  C_46
   15  A    between atoms: C_17  and  C_43
   16  A    between atoms: C_18  and  C_21
   17  A    between atoms: C_24  and  C_29
   18  A    between atoms: C_24  and  C_39
   19  A    between atoms: C_25  and  C_41
   20  A    between atoms: C_34  and  C_45
   21  A    between atoms: C_37  and  N_44
                            x       y       z     vdW  Elec       q    Type
                         _______ _______ _______ _____ _____    ______ ____

>  <TORSDO>
F 21

$$$$
=
 OpenBabel10232411353D

 48 50  0  0  1  0  0  0  0  0999 V2000
  187.5770  176.8340  143.5610 C   0  0  0  0  0  3  0  0  0  0  0  0
  188.8660  177.4440  145.5130 C   0  0  0  0  0  3  0  0  0  0  0  0
  186.5200  178.0810  145.3620 C   0  0  0  0  0  0  0  0  0  0  0  0
  186.4500  177.4500  144.1110 C   0  0  0  0  0  3  0  0  0  0  0  0
  187.7370  178.0600  146.0620 C   0  0  0  0  0  3  0  0  0  0  0  0
  188.7970  176.8450  144.2460 C   0  0  0  0  0  0  0  0  0  0  0  0
  189.9710  176.0920  143.6680 C   0  0  2  0  0  3  0  0  0  0  0  0
  191.1170  177.0190  143.2290 C   0  0  0  0  0  0  0  0  0  0  0  0
  190.2160  176.2620  142.2520 C   0  0  2  0  0  3  0  0  0  0  0  0
  192.0300  177.7910  143.4730 O   0  0  0  0  0  0  0  0  0  0  0  0
  189.3670  177.2820  141.4970 C   0  0  0  0  0  2  0  0  0  0  0  0
  189.7950  177.3300  140.0410 C   0  0  0  0  0  2  0  0  0  0  0  0
  190.7100  176.2790  139.7560 O   0  0  0  0  0  0  0  0  0  0  0  0
  190.4030  174.7740  138.0240 O   0  0  0  0  0  0  0  0  0  0  0  0
  190.9570  175.8220  138.4580 C   0  0  0  0  0  0  0  0  0  0  0  0
  191.9220  176.5580  137.6000 C   0  0  0  0  0  2  0  0  0  0  0  0
  193.1870  175.7360  137.4420 C   0  0  0  0  0  2  0  0  0  0  0  0
  194.0840  175.9570  138.5680 N   0  0  0  0  0  2  0  0  0  0  0  0
  195.7340  175.2750  140.0470 O   0  0  0  0  0  0  0  0  0  0  0  0
  195.1620  175.0870  138.9400 C   0  0  0  0  0  0  0  0  0  0  0  0
  196.7880  171.2010  137.4130 C   0  0  0  0  0  3  0  0  0  0  0  0
  195.6040  173.9690  138.0810 C   0  0  0  0  0  0  0  0  0  0  0  0
  196.5570  174.2350  136.9800 C   0  0  0  0  0  3  0  0  0  0  0  0
  195.3430  171.5610  137.4660 C   0  0  0  0  0  2  0  0  0  0  0  0
  197.4730  173.3920  136.4850 C   0  0  0  0  0  3  0  0  0  0  0  0
  197.7410  172.0030  136.9350 C   0  0  0  0  0  0  0  0  0  0  0  0
  195.0980  172.7550  138.3260 C   0  0  0  0  0  3  0  0  0  0  0  0
  199.0310  171.4770  136.8410 O   0  0  0  0  0  0  0  0  0  0  0  0
  199.3480  170.3570  136.0260 C   0  0  0  0  0  1  0  0  0  0  0  0
  184.2810  179.3360  145.2260 N   0  0  0  0  0  2  0  0  0  0  0  0
  185.2440  178.7350  147.2420 O   0  0  0  0  0  0  0  0  0  0  0  0
  185.3340  178.7190  145.9830 C   0  0  0  0  0  0  0  0  0  0  0  0
  184.2810  179.5400  143.7910 C   0  0  0  0  0  2  0  0  0  0  0  0
  183.0450  178.8900  143.1970 C   0  0  0  0  0  2  0  0  0  0  0  0
  183.3040  178.3920  141.7840 C   0  0  1  0  0  3  0  0  0  0  0  0
  182.2730  178.8350  140.9560 O   0  0  0  0  0  1  0  0  0  0  0  0
  184.6410  178.9180  141.2750 C   0  0  0  0  0  2  0  0  0  0  0  0
  184.6470  179.1310  139.7690 C   0  0  0  0  0  2  0  0  0  0  0  0
  186.0330  177.8980  138.0740 C   0  0  0  0  0  0  0  0  0  0  0  0
  185.9360  178.7670  139.2010 N   0  0  0  0  0  2  0  0  0  0  0  0
  187.1600  177.4610  137.7280 O   0  0  0  0  0  0  0  0  0  0  0  0
  184.8560  177.5360  137.3400 N   0  0  0  0  0  2  0  0  0  0  0  0
  184.8310  176.6360  136.1890 C   0  0  1  0  0  3  0  0  0  0  0  0
  184.6260  175.1890  136.6210 C   0  0  0  0  0  2  0  0  0  0  0  0
  183.9160  175.1500  137.8200 O   0  0  0  0  0  1  0  0  0  0  0  0
  183.7610  177.0660  135.1930 C   0  0  0  0  0  2  0  0  0  0  0  0
  183.1120  175.9400  134.6810 O   0  0  0  0  0  0  0  0  0  0  0  0
  181.7640  176.1410  134.9730 C   0  0  0  0  0  1  0  0  0  0  0  0
  1  4  2  0  0  0  0
  1  6  1  0  0  0  0
  2  5  1  0  0  0  0
  3 32  1  0  0  0  0
  3  5  2  0  0  0  0
  4  3  1  0  0  0  0
  6  2  2  0  0  0  0
  7  6  1  6  0  0  0
  8 10  2  0  0  0  0
  8  7  1  0  0  0  0
  9 11  1  6  0  0  0
  9  8  1  0  0  0  0
  9  7  1  0  0  0  0
 12 11  1  0  0  0  0
 13 12  1  0  0  0  0
 14 15  2  0  0  0  0
 15 13  1  0  0  0  0
 16 15  1  0  0  0  0
 17 16  1  0  0  0  0
 17 18  1  0  0  0  0
 18 20  1  0  0  0  0
 20 19  2  0  0  0  0
 21 24  1  0  0  0  0
 22 27  2  0  0  0  0
 22 20  1  0  0  0  0
 23 22  1  0  0  0  0
 24 27  1  0  0  0  0
 25 26  1  0  0  0  0
 25 23  2  0  0  0  0
 26 21  2  0  0  0  0
 28 26  1  0  0  0  0
 29 28  1  0  0  0  0
 30 32  1  0  0  0  0
 32 31  2  0  0  0  0
 33 30  1  0  0  0  0
 34 33  1  0  0  0  0
 35 36  1  6  0  0  0
 35 34  1  0  0  0  0
 37 35  1  0  0  0  0
 38 37  1  0  0  0  0
 39 40  1  0  0  0  0
 40 38  1  0  0  0  0
 41 39  2  0  0  0  0
 42 39  1  0  0  0  0
 43 46  1  6  0  0  0
 43 44  1  0  0  0  0
 43 42  1  0  0  0  0
 44 45  1  0  0  0  0
 47 48  1  0  0  0  0
 47 46  1  0  0  0  0
M  END
>  <MODEL>
3

>  <REMARK>
 VINA RESULT:      -7.1      1.987      2.935
  Name = 
  21 active torsions:
  status: ('A' for Active; 'I' for Inactive)
    1  A    between atoms: C_3  and  O_22
    2  A    between atoms: C_3  and  C_37
    3  A    between atoms: C_4  and  C_19
    4  A    between atoms: C_4  and  C_31
    5  A    between atoms: C_5  and  C_48
    6  A    between atoms: C_7  and  C_37
    7  A    between atoms: O_8  and  C_31
    8  A    between atoms: O_8  and  C_39
    9  A    between atoms: C_11  and  C_21
   10  A    between atoms: C_11  and  C_34
   11  A    between atoms: N_12  and  C_18
   12  A    between atoms: N_14  and  C_45
   13  A    between atoms: N_15  and  C_29
   14  A    between atoms: O_16  and  C_46
   15  A    between atoms: C_17  and  C_43
   16  A    between atoms: C_18  and  C_21
   17  A    between atoms: C_24  and  C_29
   18  A    between atoms: C_24  and  C_39
   19  A    between atoms: C_25  and  C_41
   20  A    between atoms: C_34  and  C_45
   21  A    between atoms: C_37  and  N_44
                            x       y       z     vdW  Elec       q    Type
                         _______ _______ _______ _____ _____    ______ ____

>  <TORSDO>
F 21

$$$$
=
 OpenBabel10232411353D

 48 50  0  0  1  0  0  0  0  0999 V2000
  189.9770  177.0230  145.1680 C   0  0  0  0  0  3  0  0  0  0  0  0
  187.8800  176.6520  144.0230 C   0  0  0  0  0  3  0  0  0  0  0  0
  187.8900  177.6740  146.2330 C   0  0  0  0  0  0  0  0  0  0  0  0
  189.2890  177.5840  146.2470 C   0  0  0  0  0  3  0  0  0  0  0  0
  187.1940  177.2140  145.1040 C   0  0  0  0  0  3  0  0  0  0  0  0
  189.2780  176.5330  144.0590 C   0  0  0  0  0  0  0  0  0  0  0  0
  190.0530  176.0190  142.8700 C   0  0  2  0  0  3  0  0  0  0  0  0
  191.0460  177.0530  142.3130 C   0  0  0  0  0  0  0  0  0  0  0  0
  189.7640  176.6350  141.5930 C   0  0  2  0  0  3  0  0  0  0  0  0
  192.0660  177.7180  142.3960 O   0  0  0  0  0  0  0  0  0  0  0  0
  188.8150  177.8310  141.5740 C   0  0  0  0  0  2  0  0  0  0  0  0
  188.6460  178.3320  140.1510 C   0  0  0  0  0  2  0  0  0  0  0  0
  189.1190  177.3630  139.2230 O   0  0  0  0  0  0  0  0  0  0  0  0
  189.2970  178.8500  137.4580 O   0  0  0  0  0  0  0  0  0  0  0  0
  189.4180  177.6720  137.8930 C   0  0  0  0  0  0  0  0  0  0  0  0
  189.8400  176.5830  136.9720 C   0  0  0  0  0  2  0  0  0  0  0  0
  190.6600  175.5640  137.7380 C   0  0  0  0  0  2  0  0  0  0  0  0
  190.4170  174.2220  137.2250 N   0  0  0  0  0  2  0  0  0  0  0  0
  190.7780  172.5040  135.7120 O   0  0  0  0  0  0  0  0  0  0  0  0
  191.2070  173.5760  136.2170 C   0  0  0  0  0  0  0  0  0  0  0  0
  195.2670  175.4560  135.9610 C   0  0  0  0  0  3  0  0  0  0  0  0
  192.4880  174.1360  135.7390 C   0  0  0  0  0  0  0  0  0  0  0  0
  192.4720  175.1970  134.7060 C   0  0  0  0  0  3  0  0  0  0  0  0
  194.9830  174.0050  135.7720 C   0  0  0  0  0  2  0  0  0  0  0  0
  193.3660  176.1830  134.5500 C   0  0  0  0  0  3  0  0  0  0  0  0
  194.5700  176.4350  135.3800 C   0  0  0  0  0  0  0  0  0  0  0  0
  193.6180  173.6380  136.2510 C   0  0  0  0  0  3  0  0  0  0  0  0
  195.0330  177.7400  135.5600 O   0  0  0  0  0  0  0  0  0  0  0  0
  196.1420  178.2680  134.8450 C   0  0  0  0  0  1  0  0  0  0  0  0
  185.7010  178.3270  147.4130 N   0  0  0  0  0  2  0  0  0  0  0  0
  187.7800  178.8220  148.2980 O   0  0  0  0  0  0  0  0  0  0  0  0
  187.1360  178.2900  147.3530 C   0  0  0  0  0  0  0  0  0  0  0  0
  184.8000  177.8980  146.3620 C   0  0  0  0  0  2  0  0  0  0  0  0
  184.3810  179.1050  145.5440 C   0  0  0  0  0  2  0  0  0  0  0  0
  183.9530  178.7060  144.1410 C   0  0  1  0  0  3  0  0  0  0  0  0
  182.6060  179.0230  143.9740 O   0  0  0  0  0  1  0  0  0  0  0  0
  184.7920  179.4410  143.1030 C   0  0  0  0  0  2  0  0  0  0  0  0
  185.0870  178.5850  141.8800 C   0  0  0  0  0  2  0  0  0  0  0  0
  184.2190  179.5650  139.7350 C   0  0  0  0  0  0  0  0  0  0  0  0
  185.2600  179.4160  140.6990 N   0  0  0  0  0  2  0  0  0  0  0  0
  184.4660  180.1370  138.6440 O   0  0  0  0  0  0  0  0  0  0  0  0
  182.9020  179.0730  140.0170 N   0  0  0  0  0  2  0  0  0  0  0  0
  181.7670  179.1460  139.0990 C   0  0  1  0  0  3  0  0  0  0  0  0
  181.4690  177.7870  138.4780 C   0  0  0  0  0  2  0  0  0  0  0  0
  182.3420  177.5500  137.4170 O   0  0  0  0  0  1  0  0  0  0  0  0
  180.5380  179.7060  139.8050 C   0  0  0  0  0  2  0  0  0  0  0  0
  180.3140  179.0030  140.9920 O   0  0  0  0  0  0  0  0  0  0  0  0
  179.9850  179.9810  141.9290 C   0  0  0  0  0  1  0  0  0  0  0  0
  1  4  1  0  0  0  0
  2  6  1  0  0  0  0
  2  5  2  0  0  0  0
  3  4  2  0  0  0  0
  3 32  1  0  0  0  0
  5  3  1  0  0  0  0
  6  1  2  0  0  0  0
  7  6  1  1  0  0  0
  8 10  2  0  0  0  0
  8  7  1  0  0  0  0
  9 11  1  1  0  0  0
  9  8  1  0  0  0  0
  9  7  1  0  0  0  0
 12 11  1  0  0  0  0
 13 12  1  0  0  0  0
 14 15  2  0  0  0  0
 15 13  1  0  0  0  0
 16 17  1  0  0  0  0
 16 15  1  0  0  0  0
 18 17  1  0  0  0  0
 19 20  2  0  0  0  0
 20 18  1  0  0  0  0
 22 20  1  0  0  0  0
 22 27  2  0  0  0  0
 23 22  1  0  0  0  0
 24 21  1  0  0  0  0
 24 27  1  0  0  0  0
 25 23  2  0  0  0  0
 25 26  1  0  0  0  0
 26 28  1  0  0  0  0
 26 21  2  0  0  0  0
 29 28  1  0  0  0  0
 32 30  1  0  0  0  0
 32 31  2  0  0  0  0
 33 30  1  0  0  0  0
 34 33  1  0  0  0  0
 35 36  1  6  0  0  0
 35 34  1  0  0  0  0
 37 35  1  0  0  0  0
 38 37  1  0  0  0  0
 39 42  1  0  0  0  0
 39 40  1  0  0  0  0
 40 38  1  0  0  0  0
 41 39  2  0  0  0  0
 43 44  1  1  0  0  0
 43 46  1  0  0  0  0
 43 42  1  0  0  0  0
 45 44  1  0  0  0  0
 46 47  1  0  0  0  0
 47 48  1  0  0  0  0
M  END
>  <MODEL>
4

>  <REMARK>
 VINA RESULT:      -7.0      2.026      2.882
  Name = 
  21 active torsions:
  status: ('A' for Active; 'I' for Inactive)
    1  A    between atoms: C_3  and  O_22
    2  A    between atoms: C_3  and  C_37
    3  A    between atoms: C_4  and  C_19
    4  A    between atoms: C_4  and  C_31
    5  A    between atoms: C_5  and  C_48
    6  A    between atoms: C_7  and  C_37
    7  A    between atoms: O_8  and  C_31
    8  A    between atoms: O_8  and  C_39
    9  A    between atoms: C_11  and  C_21
   10  A    between atoms: C_11  and  C_34
   11  A    between atoms: N_12  and  C_18
   12  A    between atoms: N_14  and  C_45
   13  A    between atoms: N_15  and  C_29
   14  A    between atoms: O_16  and  C_46
   15  A    between atoms: C_17  and  C_43
   16  A    between atoms: C_18  and  C_21
   17  A    between atoms: C_24  and  C_29
   18  A    between atoms: C_24  and  C_39
   19  A    between atoms: C_25  and  C_41
   20  A    between atoms: C_34  and  C_45
   21  A    between atoms: C_37  and  N_44
                            x       y       z     vdW  Elec       q    Type
                         _______ _______ _______ _____ _____    ______ ____

>  <TORSDO>
F 21

$$$$
=
 OpenBabel10232411353D

 48 50  0  0  1  0  0  0  0  0999 V2000
  190.7830  176.8690  144.7010 C   0  0  0  0  0  3  0  0  0  0  0  0
  188.4920  176.6440  143.9600 C   0  0  0  0  0  3  0  0  0  0  0  0
  188.9660  177.4790  146.1990 C   0  0  0  0  0  0  0  0  0  0  0  0
  190.3380  177.3540  145.9330 C   0  0  0  0  0  3  0  0  0  0  0  0
  188.0490  177.1310  145.1940 C   0  0  0  0  0  3  0  0  0  0  0  0
  189.8650  176.4900  143.7140 C   0  0  0  0  0  0  0  0  0  0  0  0
  190.3770  176.0580  142.3620 C   0  0  2  0  0  3  0  0  0  0  0  0
  191.2540  177.1260  141.6870 C   0  0  0  0  0  0  0  0  0  0  0  0
  189.8460  176.7620  141.2140 C   0  0  2  0  0  3  0  0  0  0  0  0
  192.2800  177.7810  141.6070 O   0  0  0  0  0  0  0  0  0  0  0  0
  188.9320  177.9580  141.4680 C   0  0  0  0  0  2  0  0  0  0  0  0
  188.2530  178.3700  140.1750 C   0  0  0  0  0  2  0  0  0  0  0  0
  189.2210  178.6800  139.1800 O   0  0  0  0  0  0  0  0  0  0  0  0
  188.8550  178.9470  136.9100 O   0  0  0  0  0  0  0  0  0  0  0  0
  189.1490  178.1870  137.8740 C   0  0  0  0  0  0  0  0  0  0  0  0
  189.3770  176.7380  137.6310 C   0  0  0  0  0  2  0  0  0  0  0  0
  190.7580  176.5370  137.0370 C   0  0  0  0  0  2  0  0  0  0  0  0
  191.7870  176.8740  138.0120 N   0  0  0  0  0  2  0  0  0  0  0  0
  193.8300  176.5200  139.0490 O   0  0  0  0  0  0  0  0  0  0  0  0
  193.1030  176.3050  138.0430 C   0  0  0  0  0  0  0  0  0  0  0  0
  195.3170  173.2430  135.6320 C   0  0  0  0  0  3  0  0  0  0  0  0
  193.6220  175.4590  136.9470 C   0  0  0  0  0  0  0  0  0  0  0  0
  194.2000  176.1040  135.7470 C   0  0  0  0  0  3  0  0  0  0  0  0
  193.8770  173.1560  136.0090 C   0  0  0  0  0  2  0  0  0  0  0  0
  195.1720  175.6220  134.9610 C   0  0  0  0  0  3  0  0  0  0  0  0
  195.8910  174.3330  135.1220 C   0  0  0  0  0  0  0  0  0  0  0  0
  193.5230  174.1320  137.0820 C   0  0  0  0  0  3  0  0  0  0  0  0
  197.2200  174.2200  134.7070 O   0  0  0  0  0  0  0  0  0  0  0  0
  198.2790  173.9000  135.5990 C   0  0  0  0  0  1  0  0  0  0  0  0
  187.0710  178.1120  147.8160 N   0  0  0  0  0  2  0  0  0  0  0  0
  189.3020  178.4260  148.3380 O   0  0  0  0  0  0  0  0  0  0  0  0
  188.4660  178.0170  147.4870 C   0  0  0  0  0  0  0  0  0  0  0  0
  185.9700  177.8270  146.9160 C   0  0  0  0  0  2  0  0  0  0  0  0
  185.5340  179.1140  146.2420 C   0  0  0  0  0  2  0  0  0  0  0  0
  184.5310  178.8470  145.1310 C   0  0  1  0  0  3  0  0  0  0  0  0
  183.2610  179.2120  145.5750 O   0  0  0  0  0  1  0  0  0  0  0  0
  184.8960  179.6470  143.8850 C   0  0  0  0  0  2  0  0  0  0  0  0
  184.7470  178.8340  142.6080 C   0  0  0  0  0  2  0  0  0  0  0  0
  182.9530  178.3380  140.9200 C   0  0  0  0  0  0  0  0  0  0  0  0
  183.3450  178.7010  142.2430 N   0  0  0  0  0  2  0  0  0  0  0  0
  181.7410  178.4110  140.5940 O   0  0  0  0  0  0  0  0  0  0  0  0
  183.9340  177.8850  139.9770 N   0  0  0  0  0  2  0  0  0  0  0  0
  183.6540  177.5110  138.5930 C   0  0  1  0  0  3  0  0  0  0  0  0
  184.8540  177.7770  137.6930 C   0  0  0  0  0  2  0  0  0  0  0  0
  185.6030  178.8350  138.2050 O   0  0  0  0  0  1  0  0  0  0  0  0
  183.2170  176.0540  138.5050 C   0  0  0  0  0  2  0  0  0  0  0  0
  183.6860  175.4900  137.3160 O   0  0  0  0  0  0  0  0  0  0  0  0
  184.1240  174.2160  137.6730 C   0  0  0  0  0  1  0  0  0  0  0  0
  1  4  1  0  0  0  0
  2  5  2  0  0  0  0
  3 32  1  0  0  0  0
  4  3  2  0  0  0  0
  5  3  1  0  0  0  0
  6  2  1  0  0  0  0
  6  1  2  0  0  0  0
  7  6  1  1  0  0  0
  8  7  1  0  0  0  0
  9 11  1  1  0  0  0
  9  8  1  0  0  0  0
  9  7  1  0  0  0  0
 10  8  2  0  0  0  0
 12 11  1  0  0  0  0
 13 12  1  0  0  0  0
 14 15  2  0  0  0  0
 15 13  1  0  0  0  0
 16 15  1  0  0  0  0
 17 16  1  0  0  0  0
 17 18  1  0  0  0  0
 18 20  1  0  0  0  0
 20 19  2  0  0  0  0
 21 24  1  0  0  0  0
 22 27  2  0  0  0  0
 22 20  1  0  0  0  0
 23 22  1  0  0  0  0
 24 27  1  0  0  0  0
 25 26  1  0  0  0  0
 25 23  2  0  0  0  0
 26 21  2  0  0  0  0
 28 26  1  0  0  0  0
 28 29  1  0  0  0  0
 32 30  1  0  0  0  0
 32 31  2  0  0  0  0
 33 30  1  0  0  0  0
 34 33  1  0  0  0  0
 35 36  1  1  0  0  0
 35 34  1  0  0  0  0
 37 35  1  0  0  0  0
 38 37  1  0  0  0  0
 39 40  1  0  0  0  0
 40 38  1  0  0  0  0
 41 39  2  0  0  0  0
 42 39  1  0  0  0  0
 43 44  1  6  0  0  0
 43 42  1  0  0  0  0
 44 45  1  0  0  0  0
 46 43  1  0  0  0  0
 47 48  1  0  0  0  0
 47 46  1  0  0  0  0
M  END
>  <MODEL>
5

>  <REMARK>
 VINA RESULT:      -7.0      1.609      2.076
  Name = 
  21 active torsions:
  status: ('A' for Active; 'I' for Inactive)
    1  A    between atoms: C_3  and  O_22
    2  A    between atoms: C_3  and  C_37
    3  A    between atoms: C_4  and  C_19
    4  A    between atoms: C_4  and  C_31
    5  A    between atoms: C_5  and  C_48
    6  A    between atoms: C_7  and  C_37
    7  A    between atoms: O_8  and  C_31
    8  A    between atoms: O_8  and  C_39
    9  A    between atoms: C_11  and  C_21
   10  A    between atoms: C_11  and  C_34
   11  A    between atoms: N_12  and  C_18
   12  A    between atoms: N_14  and  C_45
   13  A    between atoms: N_15  and  C_29
   14  A    between atoms: O_16  and  C_46
   15  A    between atoms: C_17  and  C_43
   16  A    between atoms: C_18  and  C_21
   17  A    between atoms: C_24  and  C_29
   18  A    between atoms: C_24  and  C_39
   19  A    between atoms: C_25  and  C_41
   20  A    between atoms: C_34  and  C_45
   21  A    between atoms: C_37  and  N_44
                            x       y       z     vdW  Elec       q    Type
                         _______ _______ _______ _____ _____    ______ ____

>  <TORSDO>
F 21

$$$$
=
 OpenBabel10232411353D

 48 50  0  0  1  0  0  0  0  0999 V2000
  188.9730  177.7780  145.7230 C   0  0  0  0  0  3  0  0  0  0  0  0
  187.9310  176.6730  143.8420 C   0  0  0  0  0  3  0  0  0  0  0  0
  186.5670  177.9480  145.4070 C   0  0  0  0  0  0  0  0  0  0  0  0
  187.7270  178.2620  146.1300 C   0  0  0  0  0  3  0  0  0  0  0  0
  186.6850  177.1580  144.2520 C   0  0  0  0  0  3  0  0  0  0  0  0
  189.0810  176.9620  144.5910 C   0  0  0  0  0  0  0  0  0  0  0  0
  190.4510  176.5320  144.1230 C   0  0  2  0  0  3  0  0  0  0  0  0
  191.3840  177.7210  143.8370 C   0  0  0  0  0  0  0  0  0  0  0  0
  190.7880  176.8290  142.7470 C   0  0  2  0  0  3  0  0  0  0  0  0
  192.0610  178.6690  144.1990 O   0  0  0  0  0  0  0  0  0  0  0  0
  189.8010  177.6620  141.9330 C   0  0  0  0  0  2  0  0  0  0  0  0
  189.6780  177.0900  140.5330 C   0  0  0  0  0  2  0  0  0  0  0  0
  189.7150  178.1300  139.5630 O   0  0  0  0  0  0  0  0  0  0  0  0
  187.4530  178.3710  139.1380 O   0  0  0  0  0  0  0  0  0  0  0  0
  188.6410  178.4140  138.7150 C   0  0  0  0  0  0  0  0  0  0  0  0
  188.9070  178.7230  137.2850 C   0  0  0  0  0  2  0  0  0  0  0  0
  189.7000  177.5910  136.6630 C   0  0  0  0  0  2  0  0  0  0  0  0
  189.2200  176.3030  137.1490 N   0  0  0  0  0  2  0  0  0  0  0  0
  189.4440  174.0220  137.4890 O   0  0  0  0  0  0  0  0  0  0  0  0
  190.0200  175.1170  137.2500 C   0  0  0  0  0  0  0  0  0  0  0  0
  194.3140  173.9620  136.6960 C   0  0  0  0  0  3  0  0  0  0  0  0
  191.4850  175.1350  137.0610 C   0  0  0  0  0  0  0  0  0  0  0  0
  192.3260  175.9090  138.0030 C   0  0  0  0  0  3  0  0  0  0  0  0
  193.4280  174.4980  135.6240 C   0  0  0  0  0  2  0  0  0  0  0  0
  193.5870  175.6370  138.3680 C   0  0  0  0  0  3  0  0  0  0  0  0
  194.4190  174.4960  137.9140 C   0  0  0  0  0  0  0  0  0  0  0  0
  191.9900  174.4630  136.0220 C   0  0  0  0  0  3  0  0  0  0  0  0
  195.3820  173.9530  138.7680 O   0  0  0  0  0  0  0  0  0  0  0  0
  196.7630  174.2730  138.6730 C   0  0  0  0  0  1  0  0  0  0  0  0
  184.3300  179.0970  144.8800 N   0  0  0  0  0  2  0  0  0  0  0  0
  184.8790  178.3730  147.0070 O   0  0  0  0  0  0  0  0  0  0  0  0
  185.2360  178.4700  145.8000 C   0  0  0  0  0  0  0  0  0  0  0  0
  184.6210  179.4230  143.4980 C   0  0  0  0  0  2  0  0  0  0  0  0
  183.9060  178.4380  142.5930 C   0  0  0  0  0  2  0  0  0  0  0  0
  183.4970  179.0850  141.2790 C   0  0  1  0  0  3  0  0  0  0  0  0
  184.6470  179.4350  140.5730 O   0  0  0  0  0  1  0  0  0  0  0  0
  182.6550  178.1190  140.4530 C   0  0  0  0  0  2  0  0  0  0  0  0
  183.4960  177.2880  139.4960 C   0  0  0  0  0  2  0  0  0  0  0  0
  183.1500  175.3080  137.9880 C   0  0  0  0  0  0  0  0  0  0  0  0
  182.8200  176.0420  139.1660 N   0  0  0  0  0  2  0  0  0  0  0  0
  182.4240  174.3410  137.6410 O   0  0  0  0  0  0  0  0  0  0  0  0
  184.3030  175.6660  137.2150 N   0  0  0  0  0  2  0  0  0  0  0  0
  184.7220  175.0040  135.9820 C   0  0  1  0  0  3  0  0  0  0  0  0
  184.5660  175.9240  134.7780 C   0  0  0  0  0  2  0  0  0  0  0  0
  183.2680  176.4310  134.7350 O   0  0  0  0  0  1  0  0  0  0  0  0
  186.1550  174.4990  136.1010 C   0  0  0  0  0  2  0  0  0  0  0  0
  186.2260  173.5040  137.0790 O   0  0  0  0  0  0  0  0  0  0  0  0
  186.5550  172.3420  136.3830 C   0  0  0  0  0  1  0  0  0  0  0  0
  1  4  1  0  0  0  0
  2  5  2  0  0  0  0
  2  6  1  0  0  0  0
  3 32  1  0  0  0  0
  3  4  2  0  0  0  0
  5  3  1  0  0  0  0
  6  1  2  0  0  0  0
  7  6  1  6  0  0  0
  8  7  1  0  0  0  0
  8 10  2  0  0  0  0
  9 11  1  6  0  0  0
  9  8  1  0  0  0  0
  9  7  1  0  0  0  0
 12 11  1  0  0  0  0
 13 12  1  0  0  0  0
 15 14  2  0  0  0  0
 15 13  1  0  0  0  0
 16 15  1  0  0  0  0
 17 18  1  0  0  0  0
 17 16  1  0  0  0  0
 18 20  1  0  0  0  0
 20 19  2  0  0  0  0
 21 26  2  0  0  0  0
 22 20  1  0  0  0  0
 22 23  1  0  0  0  0
 23 25  2  0  0  0  0
 24 27  1  0  0  0  0
 24 21  1  0  0  0  0
 26 25  1  0  0  0  0
 26 28  1  0  0  0  0
 27 22  2  0  0  0  0
 29 28  1  0  0  0  0
 30 32  1  0  0  0  0
 32 31  2  0  0  0  0
 33 30  1  0  0  0  0
 34 33  1  0  0  0  0
 35 36  1  6  0  0  0
 35 34  1  0  0  0  0
 37 35  1  0  0  0  0
 38 37  1  0  0  0  0
 39 40  1  0  0  0  0
 40 38  1  0  0  0  0
 41 39  2  0  0  0  0
 42 39  1  0  0  0  0
 43 44  1  6  0  0  0
 43 46  1  0  0  0  0
 43 42  1  0  0  0  0
 45 44  1  0  0  0  0
 46 47  1  0  0  0  0
 48 47  1  0  0  0  0
M  END
>  <MODEL>
6

>  <REMARK>
 VINA RESULT:      -7.0      1.723      2.050
  Name = 
  21 active torsions:
  status: ('A' for Active; 'I' for Inactive)
    1  A    between atoms: C_3  and  O_22
    2  A    between atoms: C_3  and  C_37
    3  A    between atoms: C_4  and  C_19
    4  A    between atoms: C_4  and  C_31
    5  A    between atoms: C_5  and  C_48
    6  A    between atoms: C_7  and  C_37
    7  A    between atoms: O_8  and  C_31
    8  A    between atoms: O_8  and  C_39
    9  A    between atoms: C_11  and  C_21
   10  A    between atoms: C_11  and  C_34
   11  A    between atoms: N_12  and  C_18
   12  A    between atoms: N_14  and  C_45
   13  A    between atoms: N_15  and  C_29
   14  A    between atoms: O_16  and  C_46
   15  A    between atoms: C_17  and  C_43
   16  A    between atoms: C_18  and  C_21
   17  A    between atoms: C_24  and  C_29
   18  A    between atoms: C_24  and  C_39
   19  A    between atoms: C_25  and  C_41
   20  A    between atoms: C_34  and  C_45
   21  A    between atoms: C_37  and  N_44
                            x       y       z     vdW  Elec       q    Type
                         _______ _______ _______ _____ _____    ______ ____

>  <TORSDO>
F 21

$$$$
=
 OpenBabel10232411353D

 48 50  0  0  1  0  0  0  0  0999 V2000
  184.6720  179.5170  143.4650 C   0  0  0  0  0  3  0  0  0  0  0  0
  184.3390  178.5920  141.2560 C   0  0  0  0  0  3  0  0  0  0  0  0
  182.4530  178.7900  142.7850 C   0  0  0  0  0  0  0  0  0  0  0  0
  183.3140  179.3490  143.7410 C   0  0  0  0  0  3  0  0  0  0  0  0
  182.9780  178.4250  141.5350 C   0  0  0  0  0  3  0  0  0  0  0  0
  185.1990  179.1190  142.2300 C   0  0  0  0  0  0  0  0  0  0  0  0
  186.6510  179.3990  141.9260 C   0  0  2  0  0  3  0  0  0  0  0  0
  187.2350  178.4420  140.8720 C   0  0  0  0  0  0  0  0  0  0  0  0
  187.6060  178.3990  142.3550 C   0  0  2  0  0  3  0  0  0  0  0  0
  187.3180  178.0220  139.7300 O   0  0  0  0  0  0  0  0  0  0  0  0
  187.0650  177.0990  142.9460 C   0  0  0  0  0  2  0  0  0  0  0  0
  187.4320  177.0100  144.4160 C   0  0  0  0  0  2  0  0  0  0  0  0
  186.3690  177.4960  145.2260 O   0  0  0  0  0  0  0  0  0  0  0  0
  185.9990  179.1670  146.7850 O   0  0  0  0  0  0  0  0  0  0  0  0
  186.5780  178.0900  146.4740 C   0  0  0  0  0  0  0  0  0  0  0  0
  187.5330  177.4610  147.4250 C   0  0  0  0  0  2  0  0  0  0  0  0
  188.9160  178.0440  147.2110 C   0  0  0  0  0  2  0  0  0  0  0  0
  189.9260  177.2080  147.8480 N   0  0  0  0  0  2  0  0  0  0  0  0
  191.7010  175.7190  147.7820 O   0  0  0  0  0  0  0  0  0  0  0  0
  191.0170  176.5780  147.1630 C   0  0  0  0  0  0  0  0  0  0  0  0
  190.8900  177.9680  142.9040 C   0  0  0  0  0  3  0  0  0  0  0  0
  191.3480  176.8850  145.7560 C   0  0  0  0  0  0  0  0  0  0  0  0
  191.8220  175.7960  144.8700 C   0  0  0  0  0  3  0  0  0  0  0  0
  191.6470  178.6380  144.0000 C   0  0  0  0  0  2  0  0  0  0  0  0
  191.6400  175.6970  143.5470 C   0  0  0  0  0  3  0  0  0  0  0  0
  190.9180  176.6540  142.6720 C   0  0  0  0  0  0  0  0  0  0  0  0
  191.2240  178.1510  145.3460 C   0  0  0  0  0  3  0  0  0  0  0  0
  190.2520  176.1930  141.5350 O   0  0  0  0  0  0  0  0  0  0  0  0
  190.4730  176.7360  140.2400 C   0  0  0  0  0  1  0  0  0  0  0  0
  179.9820  179.2040  142.2120 N   0  0  0  0  0  2  0  0  0  0  0  0
  180.6360  177.9540  144.0450 O   0  0  0  0  0  0  0  0  0  0  0  0
  181.0020  178.6250  143.0410 C   0  0  0  0  0  0  0  0  0  0  0  0
  180.2080  180.1170  141.1090 C   0  0  0  0  0  2  0  0  0  0  0  0
  180.1120  179.3520  139.8030 C   0  0  0  0  0  2  0  0  0  0  0  0
  180.8610  180.0610  138.6860 C   0  0  1  0  0  3  0  0  0  0  0  0
  181.2930  181.3020  139.1520 O   0  0  0  0  0  1  0  0  0  0  0  0
  182.0570  179.2290  138.2390 C   0  0  0  0  0  2  0  0  0  0  0  0
  181.6420  177.9460  137.5360 C   0  0  0  0  0  2  0  0  0  0  0  0
  183.3090  176.1160  137.9710 C   0  0  0  0  0  0  0  0  0  0  0  0
  182.0870  176.7810  138.2850 N   0  0  0  0  0  2  0  0  0  0  0  0
  183.5680  175.0120  138.5140 O   0  0  0  0  0  0  0  0  0  0  0  0
  184.2350  176.7090  137.0510 N   0  0  0  0  0  2  0  0  0  0  0  0
  185.5010  176.1100  136.6350 C   0  0  1  0  0  3  0  0  0  0  0  0
  185.3860  175.4700  135.2580 C   0  0  0  0  0  2  0  0  0  0  0  0
  184.8600  176.3900  134.3520 O   0  0  0  0  0  1  0  0  0  0  0  0
  186.6210  177.1440  136.6660 C   0  0  0  0  0  2  0  0  0  0  0  0
  187.7290  176.6610  135.9650 O   0  0  0  0  0  0  0  0  0  0  0  0
  188.7550  177.5580  136.2570 C   0  0  0  0  0  1  0  0  0  0  0  0
  1  4  1  0  0  0  0
  2  5  2  0  0  0  0
  2  6  1  0  0  0  0
  3 32  1  0  0  0  0
  3  4  2  0  0  0  0
  5  3  1  0  0  0  0
  6  1  2  0  0  0  0
  7  6  1  1  0  0  0
  7  9  1  0  0  0  0
  8  7  1  0  0  0  0
  8  9  1  0  0  0  0
  9 11  1  1  0  0  0
 10  8  2  0  0  0  0
 11 12  1  0  0  0  0
 12 13  1  0  0  0  0
 13 15  1  0  0  0  0
 15 14  2  0  0  0  0
 15 16  1  0  0  0  0
 17 16  1  0  0  0  0
 17 18  1  0  0  0  0
 20 19  2  0  0  0  0
 20 18  1  0  0  0  0
 21 24  1  0  0  0  0
 22 20  1  0  0  0  0
 23 22  1  0  0  0  0
 24 27  1  0  0  0  0
 25 23  2  0  0  0  0
 26 21  2  0  0  0  0
 26 25  1  0  0  0  0
 27 22  2  0  0  0  0
 28 26  1  0  0  0  0
 29 28  1  0  0  0  0
 30 32  1  0  0  0  0
 32 31  2  0  0  0  0
 33 30  1  0  0  0  0
 34 33  1  0  0  0  0
 35 36  1  1  0  0  0
 35 34  1  0  0  0  0
 37 35  1  0  0  0  0
 38 37  1  0  0  0  0
 38 40  1  0  0  0  0
 39 40  1  0  0  0  0
 39 41  2  0  0  0  0
 42 39  1  0  0  0  0
 43 44  1  6  0  0  0
 43 46  1  0  0  0  0
 43 42  1  0  0  0  0
 45 44  1  0  0  0  0
 47 48  1  0  0  0  0
 47 46  1  0  0  0  0
M  END
>  <MODEL>
7

>  <REMARK>
 VINA RESULT:      -6.7      3.735      6.759
  Name = 
  21 active torsions:
  status: ('A' for Active; 'I' for Inactive)
    1  A    between atoms: C_3  and  O_22
    2  A    between atoms: C_3  and  C_37
    3  A    between atoms: C_4  and  C_19
    4  A    between atoms: C_4  and  C_31
    5  A    between atoms: C_5  and  C_48
    6  A    between atoms: C_7  and  C_37
    7  A    between atoms: O_8  and  C_31
    8  A    between atoms: O_8  and  C_39
    9  A    between atoms: C_11  and  C_21
   10  A    between atoms: C_11  and  C_34
   11  A    between atoms: N_12  and  C_18
   12  A    between atoms: N_14  and  C_45
   13  A    between atoms: N_15  and  C_29
   14  A    between atoms: O_16  and  C_46
   15  A    between atoms: C_17  and  C_43
   16  A    between atoms: C_18  and  C_21
   17  A    between atoms: C_24  and  C_29
   18  A    between atoms: C_24  and  C_39
   19  A    between atoms: C_25  and  C_41
   20  A    between atoms: C_34  and  C_45
   21  A    between atoms: C_37  and  N_44
                            x       y       z     vdW  Elec       q    Type
                         _______ _______ _______ _____ _____    ______ ____

>  <TORSDO>
F 21

$$$$
=
 OpenBabel10232411353D

 48 50  0  0  1  0  0  0  0  0999 V2000
  190.7520  177.5110  139.4240 C   0  0  0  0  0  3  0  0  0  0  0  0
  188.4900  177.9920  140.1280 C   0  0  0  0  0  3  0  0  0  0  0  0
  189.9810  176.7530  141.6030 C   0  0  0  0  0  0  0  0  0  0  0  0
  190.9910  176.8580  140.6360 C   0  0  0  0  0  3  0  0  0  0  0  0
  188.7320  177.3380  141.3410 C   0  0  0  0  0  3  0  0  0  0  0  0
  189.4950  178.0620  139.1520 C   0  0  0  0  0  0  0  0  0  0  0  0
  189.2950  178.8410  137.8740 C   0  0  2  0  0  3  0  0  0  0  0  0
  187.8770  178.6880  137.2970 C   0  0  0  0  0  0  0  0  0  0  0  0
  189.1230  178.0670  136.6640 C   0  0  2  0  0  3  0  0  0  0  0  0
  186.6740  178.8870  137.3330 O   0  0  0  0  0  0  0  0  0  0  0  0
  189.0200  176.5490  136.7950 C   0  0  0  0  0  2  0  0  0  0  0  0
  190.1030  175.8860  135.9630 C   0  0  0  0  0  2  0  0  0  0  0  0
  191.3890  176.1760  136.4980 O   0  0  0  0  0  0  0  0  0  0  0  0
  192.4750  174.4850  135.3510 O   0  0  0  0  0  0  0  0  0  0  0  0
  192.5440  175.4950  136.1030 C   0  0  0  0  0  0  0  0  0  0  0  0
  193.8640  175.9440  136.6200 C   0  0  0  0  0  2  0  0  0  0  0  0
  194.9490  175.5590  135.6340 C   0  0  0  0  0  2  0  0  0  0  0  0
  196.2640  175.8940  136.1660 N   0  0  0  0  0  2  0  0  0  0  0  0
  198.1560  175.4210  137.4180 O   0  0  0  0  0  0  0  0  0  0  0  0
  197.1410  174.9690  136.8240 C   0  0  0  0  0  0  0  0  0  0  0  0
  195.9280  170.7850  135.7700 C   0  0  0  0  0  3  0  0  0  0  0  0
  196.8790  173.5150  136.8460 C   0  0  0  0  0  0  0  0  0  0  0  0
  196.0870  172.9400  137.9570 C   0  0  0  0  0  3  0  0  0  0  0  0
  197.3340  171.2810  135.8230 C   0  0  0  0  0  2  0  0  0  0  0  0
  195.2910  171.8630  137.9060 C   0  0  0  0  0  3  0  0  0  0  0  0
  195.0220  171.0090  136.7230 C   0  0  0  0  0  0  0  0  0  0  0  0
  197.3970  172.7710  135.8630 C   0  0  0  0  0  3  0  0  0  0  0  0
  193.7840  170.3770  136.5870 O   0  0  0  0  0  0  0  0  0  0  0  0
  193.5990  169.2080  135.8010 C   0  0  0  0  0  1  0  0  0  0  0  0
  190.2270  176.7930  144.1610 N   0  0  0  0  0  2  0  0  0  0  0  0
  190.4270  174.8470  142.9270 O   0  0  0  0  0  0  0  0  0  0  0  0
  190.2140  176.0900  142.9090 C   0  0  0  0  0  0  0  0  0  0  0  0
  190.1450  178.2310  144.3230 C   0  0  0  0  0  2  0  0  0  0  0  0
  189.7010  178.5470  145.7380 C   0  0  0  0  0  2  0  0  0  0  0  0
  189.4760  177.2800  146.5470 C   0  0  1  0  0  3  0  0  0  0  0  0
  190.2830  177.3210  147.6830 O   0  0  0  0  0  1  0  0  0  0  0  0
  188.0110  177.1660  146.9550 C   0  0  0  0  0  2  0  0  0  0  0  0
  187.0650  177.3200  145.7740 C   0  0  0  0  0  2  0  0  0  0  0  0
  185.0280  178.6800  145.2130 C   0  0  0  0  0  0  0  0  0  0  0  0
  185.8550  178.0230  146.1720 N   0  0  0  0  0  2  0  0  0  0  0  0
  184.0980  179.4280  145.6100 O   0  0  0  0  0  0  0  0  0  0  0  0
  185.2520  178.4800  143.8110 N   0  0  0  0  0  2  0  0  0  0  0  0
  184.4880  179.1170  142.7420 C   0  0  1  0  0  3  0  0  0  0  0  0
  185.1840  178.9660  141.3960 C   0  0  0  0  0  2  0  0  0  0  0  0
  184.3890  179.5080  140.3880 O   0  0  0  0  0  1  0  0  0  0  0  0
  183.0690  178.5620  142.6890 C   0  0  0  0  0  2  0  0  0  0  0  0
  182.1870  179.4590  143.2960 O   0  0  0  0  0  0  0  0  0  0  0  0
  180.9420  179.1670  142.7420 C   0  0  0  0  0  1  0  0  0  0  0  0
  1  4  1  0  0  0  0
  2  5  2  0  0  0  0
  3 32  1  0  0  0  0
  4  3  2  0  0  0  0
  5  3  1  0  0  0  0
  6  1  2  0  0  0  0
  6  2  1  0  0  0  0
  7  6  1  1  0  0  0
  8 10  2  0  0  0  0
  8  7  1  0  0  0  0
  9 11  1  1  0  0  0
  9  8  1  0  0  0  0
  9  7  1  0  0  0  0
 12 13  1  0  0  0  0
 12 11  1  0  0  0  0
 14 15  2  0  0  0  0
 15 13  1  0  0  0  0
 15 16  1  0  0  0  0
 17 18  1  0  0  0  0
 17 16  1  0  0  0  0
 18 20  1  0  0  0  0
 20 22  1  0  0  0  0
 20 19  2  0  0  0  0
 21 24  1  0  0  0  0
 21 26  2  0  0  0  0
 22 23  1  0  0  0  0
 24 27  1  0  0  0  0
 25 23  2  0  0  0  0
 26 25  1  0  0  0  0
 27 22  2  0  0  0  0
 28 26  1  0  0  0  0
 29 28  1  0  0  0  0
 30 33  1  0  0  0  0
 32 31  2  0  0  0  0
 32 30  1  0  0  0  0
 33 34  1  0  0  0  0
 34 35  1  0  0  0  0
 35 37  1  0  0  0  0
 35 36  1  1  0  0  0
 38 40  1  0  0  0  0
 38 37  1  0  0  0  0
 39 41  2  0  0  0  0
 39 40  1  0  0  0  0
 42 39  1  0  0  0  0
 43 44  1  6  0  0  0
 43 42  1  0  0  0  0
 45 44  1  0  0  0  0
 46 43  1  0  0  0  0
 46 47  1  0  0  0  0
 48 47  1  0  0  0  0
M  END
>  <MODEL>
8

>  <REMARK>
 VINA RESULT:      -6.6      2.682      5.876
  Name = 
  21 active torsions:
  status: ('A' for Active; 'I' for Inactive)
    1  A    between atoms: C_3  and  O_22
    2  A    between atoms: C_3  and  C_37
    3  A    between atoms: C_4  and  C_19
    4  A    between atoms: C_4  and  C_31
    5  A    between atoms: C_5  and  C_48
    6  A    between atoms: C_7  and  C_37
    7  A    between atoms: O_8  and  C_31
    8  A    between atoms: O_8  and  C_39
    9  A    between atoms: C_11  and  C_21
   10  A    between atoms: C_11  and  C_34
   11  A    between atoms: N_12  and  C_18
   12  A    between atoms: N_14  and  C_45
   13  A    between atoms: N_15  and  C_29
   14  A    between atoms: O_16  and  C_46
   15  A    between atoms: C_17  and  C_43
   16  A    between atoms: C_18  and  C_21
   17  A    between atoms: C_24  and  C_29
   18  A    between atoms: C_24  and  C_39
   19  A    between atoms: C_25  and  C_41
   20  A    between atoms: C_34  and  C_45
   21  A    between atoms: C_37  and  N_44
                            x       y       z     vdW  Elec       q    Type
                         _______ _______ _______ _____ _____    ______ ____

>  <TORSDO>
F 21

$$$$
=
 OpenBabel10232411353D

 48 50  0  0  1  0  0  0  0  0999 V2000
  191.0120  176.2740  144.0510 C   0  0  0  0  0  3  0  0  0  0  0  0
  190.3820  178.5980  144.2710 C   0  0  0  0  0  3  0  0  0  0  0  0
  189.8020  177.3700  142.2490 C   0  0  0  0  0  0  0  0  0  0  0  0
  190.4130  176.2300  142.7900 C   0  0  0  0  0  3  0  0  0  0  0  0
  189.7820  178.5510  143.0080 C   0  0  0  0  0  3  0  0  0  0  0  0
  191.0210  177.4620  144.7910 C   0  0  0  0  0  0  0  0  0  0  0  0
  191.5940  177.4550  146.1880 C   0  0  2  0  0  3  0  0  0  0  0  0
  191.7010  176.0390  146.7800 C   0  0  0  0  0  0  0  0  0  0  0  0
  190.6900  177.0830  147.2560 C   0  0  2  0  0  3  0  0  0  0  0  0
  192.1970  174.9250  146.8220 O   0  0  0  0  0  0  0  0  0  0  0  0
  189.2920  176.6030  146.8750 C   0  0  0  0  0  2  0  0  0  0  0  0
  188.2870  177.7180  147.0980 C   0  0  0  0  0  2  0  0  0  0  0  0
  187.0090  177.3470  146.5950 O   0  0  0  0  0  0  0  0  0  0  0  0
  187.0400  176.9000  144.3240 O   0  0  0  0  0  0  0  0  0  0  0  0
  186.6100  177.6020  145.2800 C   0  0  0  0  0  0  0  0  0  0  0  0
  185.7010  178.7470  145.0070 C   0  0  0  0  0  2  0  0  0  0  0  0
  185.0970  178.5930  143.6250 C   0  0  0  0  0  2  0  0  0  0  0  0
  183.6530  178.7870  143.6750 N   0  0  0  0  0  2  0  0  0  0  0  0
  181.5930  179.1530  142.6770 O   0  0  0  0  0  0  0  0  0  0  0  0
  182.7860  178.7720  142.5330 C   0  0  0  0  0  0  0  0  0  0  0  0
  183.5920  178.4900  138.1340 C   0  0  0  0  0  3  0  0  0  0  0  0
  183.2500  178.3480  141.1950 C   0  0  0  0  0  0  0  0  0  0  0  0
  182.9570  176.9730  140.7300 C   0  0  0  0  0  3  0  0  0  0  0  0
  184.5900  178.9050  139.1610 C   0  0  0  0  0  2  0  0  0  0  0  0
  182.7680  176.5730  139.4660 C   0  0  0  0  0  3  0  0  0  0  0  0
  182.8030  177.4200  138.2480 C   0  0  0  0  0  0  0  0  0  0  0  0
  183.9420  179.2290  140.4660 C   0  0  0  0  0  3  0  0  0  0  0  0
  182.0070  177.0940  137.1490 O   0  0  0  0  0  0  0  0  0  0  0  0
  181.6410  178.0420  136.1560 C   0  0  0  0  0  1  0  0  0  0  0  0
  189.8130  177.0120  139.7030 N   0  0  0  0  0  2  0  0  0  0  0  0
  187.9100  177.6420  140.8580 O   0  0  0  0  0  0  0  0  0  0  0  0
  189.1350  177.3450  140.9250 C   0  0  0  0  0  0  0  0  0  0  0  0
  191.2380  176.7860  139.5640 C   0  0  0  0  0  2  0  0  0  0  0  0
  191.4780  175.8250  138.4150 C   0  0  0  0  0  2  0  0  0  0  0  0
  192.1500  176.5190  137.2410 C   0  0  1  0  0  3  0  0  0  0  0  0
  193.4760  176.7890  137.5770 O   0  0  0  0  0  1  0  0  0  0  0  0
  192.0990  175.6320  136.0020 C   0  0  0  0  0  2  0  0  0  0  0  0
  193.3690  175.7210  135.1700 C   0  0  0  0  0  2  0  0  0  0  0  0
  194.9600  173.8320  135.6320 C   0  0  0  0  0  0  0  0  0  0  0  0
  193.8880  174.3940  134.8770 N   0  0  0  0  0  2  0  0  0  0  0  0
  195.5010  172.7680  135.2360 O   0  0  0  0  0  0  0  0  0  0  0  0
  195.4070  174.4720  136.8340 N   0  0  0  0  0  2  0  0  0  0  0  0
  196.5080  174.0030  137.6720 C   0  0  1  0  0  3  0  0  0  0  0  0
  197.8310  174.6290  137.2500 C   0  0  0  0  0  2  0  0  0  0  0  0
  197.6030  175.8900  136.7000 O   0  0  0  0  0  1  0  0  0  0  0  0
  196.2190  174.2750  139.1440 C   0  0  0  0  0  2  0  0  0  0  0  0
  197.4200  174.4200  139.8420 O   0  0  0  0  0  0  0  0  0  0  0  0
  197.1950  175.4740  140.7260 C   0  0  0  0  0  1  0  0  0  0  0  0
  1  6  1  0  0  0  0
  2  6  2  0  0  0  0
  3  4  1  0  0  0  0
  3  5  2  0  0  0  0
  4  1  2  0  0  0  0
  5  2  1  0  0  0  0
  7  6  1  6  0  0  0
  7  8  1  0  0  0  0
  7  9  1  0  0  0  0
  8 10  2  0  0  0  0
  8  9  1  0  0  0  0
  9 11  1  6  0  0  0
 11 12  1  0  0  0  0
 13 12  1  0  0  0  0
 14 15  2  0  0  0  0
 15 13  1  0  0  0  0
 16 15  1  0  0  0  0
 17 18  1  0  0  0  0
 17 16  1  0  0  0  0
 20 19  2  0  0  0  0
 20 18  1  0  0  0  0
 21 26  2  0  0  0  0
 21 24  1  0  0  0  0
 22 20  1  0  0  0  0
 23 22  1  0  0  0  0
 24 27  1  0  0  0  0
 25 23  2  0  0  0  0
 26 25  1  0  0  0  0
 27 22  2  0  0  0  0
 28 26  1  0  0  0  0
 29 28  1  0  0  0  0
 30 32  1  0  0  0  0
 31 32  2  0  0  0  0
 32  3  1  0  0  0  0
 33 30  1  0  0  0  0
 34 33  1  0  0  0  0
 35 36  1  1  0  0  0
 35 34  1  0  0  0  0
 37 35  1  0  0  0  0
 38 37  1  0  0  0  0
 39 42  1  0  0  0  0
 40 38  1  0  0  0  0
 40 39  1  0  0  0  0
 41 39  2  0  0  0  0
 42 43  1  0  0  0  0
 43 44  1  6  0  0  0
 43 46  1  0  0  0  0
 45 44  1  0  0  0  0
 46 47  1  0  0  0  0
 47 48  1  0  0  0  0
M  END
>  <MODEL>
9

>  <REMARK>
 VINA RESULT:      -6.6      2.387     10.400
  Name = 
  21 active torsions:
  status: ('A' for Active; 'I' for Inactive)
    1  A    between atoms: C_3  and  O_22
    2  A    between atoms: C_3  and  C_37
    3  A    between atoms: C_4  and  C_19
    4  A    between atoms: C_4  and  C_31
    5  A    between atoms: C_5  and  C_48
    6  A    between atoms: C_7  and  C_37
    7  A    between atoms: O_8  and  C_31
    8  A    between atoms: O_8  and  C_39
    9  A    between atoms: C_11  and  C_21
   10  A    between atoms: C_11  and  C_34
   11  A    between atoms: N_12  and  C_18
   12  A    between atoms: N_14  and  C_45
   13  A    between atoms: N_15  and  C_29
   14  A    between atoms: O_16  and  C_46
   15  A    between atoms: C_17  and  C_43
   16  A    between atoms: C_18  and  C_21
   17  A    between atoms: C_24  and  C_29
   18  A    between atoms: C_24  and  C_39
   19  A    between atoms: C_25  and  C_41
   20  A    between atoms: C_34  and  C_45
   21  A    between atoms: C_37  and  N_44
                            x       y       z     vdW  Elec       q    Type
                         _______ _______ _______ _____ _____    ______ ____

>  <TORSDO>
F 21

$$$$
