=
 OpenBabel10232411313D

 27 28  0  0  1  0  0  0  0  0999 V2000
  182.5810  179.5840  144.0950 N   0  0  0  0  0  1  0  0  0  0  0  0
  184.4900  178.4100  143.0570 C   0  0  0  0  0  0  0  0  0  0  0  0
  186.3760  177.7460  144.4470 C   0  0  0  0  0  0  0  0  0  0  0  0
  183.8410  178.9260  144.1990 C   0  0  0  0  0  0  0  0  0  0  0  0
  185.7620  177.8350  143.1940 C   0  0  0  0  0  3  0  0  0  0  0  0
  185.7150  178.2450  145.5770 C   0  0  0  0  0  3  0  0  0  0  0  0
  184.4560  178.8340  145.4500 C   0  0  0  0  0  3  0  0  0  0  0  0
  182.0770  178.6770  137.9670 F   0  0  0  0  0  0  0  0  0  0  0  0
  185.9090  179.5240  140.7500 N   0  0  0  0  0  1  0  0  0  0  0  0
  184.5860  179.0120  140.6070 C   0  0  0  0  0  0  0  0  0  0  0  0
  182.5610  178.0530  141.5400 C   0  0  0  0  0  3  0  0  0  0  0  0
  183.9700  179.0720  139.3540 C   0  0  0  0  0  3  0  0  0  0  0  0
  181.9500  178.1160  140.2870 C   0  0  0  0  0  0  0  0  0  0  0  0
  180.6420  177.6780  140.1340 O   0  0  0  0  0  1  0  0  0  0  0  0
  183.8850  178.4870  141.7130 C   0  0  0  0  0  0  0  0  0  0  0  0
  182.6600  178.6200  139.1900 C   0  0  0  0  0  0  0  0  0  0  0  0
  187.7300  177.1110  144.5460 C   0  0  1  0  0  3  0  0  0  0  0  0
  188.3210  176.7880  143.2050 C   0  0  0  0  0  0  0  0  0  0  0  0
  188.5250  177.7850  142.2610 O   0  0  0  0  0  0  0  0  0  0  0  0
  188.6410  175.6010  142.9350 O   0  0  0  0  0  1  0  0  0  0  0  0
  188.6760  177.8700  145.4840 C   0  0  1  0  0  3  0  0  0  0  0  0
  189.2010  176.9390  146.5690 C   0  0  0  0  0  2  0  0  0  0  0  0
  188.3210  177.0120  147.8010 C   0  0  0  0  0  2  0  0  0  0  0  0
  188.5000  178.3600  148.4670 C   0  0  0  0  0  1  0  0  0  0  0  0
  189.7400  178.4420  144.7780 O   0  0  0  0  0  0  0  0  0  0  0  0
  190.8670  177.7170  145.1680 C   0  0  0  0  0  2  0  0  0  0  0  0
  191.7100  177.4010  143.9520 C   0  0  0  0  0  1  0  0  0  0  0  0
  1  4  1  0  0  0  0
  2  5  2  0  0  0  0
  2  4  1  0  0  0  0
  3 17  1  0  0  0  0
  3  6  2  0  0  0  0
  4  7  2  0  0  0  0
  5  3  1  0  0  0  0
  7  6  1  0  0  0  0
  8 16  1  0  0  0  0
 10  9  1  0  0  0  0
 10 15  1  0  0  0  0
 11 15  2  0  0  0  0
 12 10  2  0  0  0  0
 13 11  1  0  0  0  0
 14 13  1  0  0  0  0
 15  2  1  0  0  0  0
 16 12  1  0  0  0  0
 16 13  2  0  0  0  0
 17 18  1  6  0  0  0
 17 21  1  0  0  0  0
 19 18  2  0  0  0  0
 20 18  1  0  0  0  0
 21 22  1  1  0  0  0
 22 23  1  0  0  0  0
 23 24  1  0  0  0  0
 25 26  1  0  0  0  0
 25 21  1  0  0  0  0
 27 26  1  0  0  0  0
M  END
>  <MODEL>
1

>  <REMARK>
 VINA RESULT:      -8.1      0.000      0.000
  Name = 
  8 active torsions:
  status: ('A' for Active; 'I' for Inactive)
    1  A    between atoms: C_2  and  C_25
    2  A    between atoms: C_4  and  C_10
    3  A    between atoms: C_6  and  O_24
    4  A    between atoms: C_8  and  C_18
    5  A    between atoms: C_10  and  C_13
    6  A    between atoms: C_10  and  C_14
    7  A    between atoms: C_13  and  C_18
    8  A    between atoms: C_13  and  O_24
                            x       y       z     vdW  Elec       q    Type
                         _______ _______ _______ _____ _____    ______ ____

>  <TORSDO>
F 8

$$$$
=
 OpenBabel10232411313D

 27 28  0  0  1  0  0  0  0  0999 V2000
  185.6320  179.4170  140.3790 N   0  0  0  0  0  1  0  0  0  0  0  0
  186.0290  178.3520  142.5710 C   0  0  0  0  0  0  0  0  0  0  0  0
  188.2340  177.4490  143.0730 C   0  0  0  0  0  0  0  0  0  0  0  0
  186.5020  178.7880  141.3160 C   0  0  0  0  0  0  0  0  0  0  0  0
  186.9020  177.6720  143.4340 C   0  0  0  0  0  3  0  0  0  0  0  0
  188.6990  177.9020  141.8310 C   0  0  0  0  0  3  0  0  0  0  0  0
  187.8340  178.5640  140.9580 C   0  0  0  0  0  3  0  0  0  0  0  0
  180.6480  179.0950  144.0870 F   0  0  0  0  0  0  0  0  0  0  0  0
  185.3060  179.1660  145.2890 N   0  0  0  0  0  1  0  0  0  0  0  0
  184.2970  178.9660  144.3020 C   0  0  0  0  0  0  0  0  0  0  0  0
  183.6000  178.3120  142.0710 C   0  0  0  0  0  3  0  0  0  0  0  0
  182.9570  179.1430  144.6600 C   0  0  0  0  0  3  0  0  0  0  0  0
  182.2640  178.4900  142.4330 C   0  0  0  0  0  0  0  0  0  0  0  0
  181.2600  178.2450  141.5070 O   0  0  0  0  0  1  0  0  0  0  0  0
  184.6290  178.5590  142.9930 C   0  0  0  0  0  0  0  0  0  0  0  0
  181.9430  178.9130  143.7280 C   0  0  0  0  0  0  0  0  0  0  0  0
  189.1330  176.7310  144.0330 C   0  0  1  0  0  3  0  0  0  0  0  0
  190.3670  176.1840  143.3760 C   0  0  0  0  0  0  0  0  0  0  0  0
  191.4800  176.9880  143.1750 O   0  0  0  0  0  1  0  0  0  0  0  0
  190.3940  174.9800  143.0080 O   0  0  0  0  0  0  0  0  0  0  0  0
  189.4050  177.5350  145.3100 C   0  0  1  0  0  3  0  0  0  0  0  0
  188.5970  176.9690  146.4710 C   0  0  0  0  0  2  0  0  0  0  0  0
  187.8130  178.0700  147.1560 C   0  0  0  0  0  2  0  0  0  0  0  0
  188.1250  178.0620  148.6380 C   0  0  0  0  0  1  0  0  0  0  0  0
  190.7690  177.5430  145.6240 O   0  0  0  0  0  0  0  0  0  0  0  0
  190.8800  176.7610  146.7750 C   0  0  0  0  0  2  0  0  0  0  0  0
  192.1120  175.8870  146.6750 C   0  0  0  0  0  1  0  0  0  0  0  0
  1  4  1  0  0  0  0
  2 15  1  0  0  0  0
  2  5  1  0  0  0  0
  3  5  2  0  0  0  0
  3 17  1  0  0  0  0
  4  2  2  0  0  0  0
  6  3  1  0  0  0  0
  7  4  1  0  0  0  0
  7  6  2  0  0  0  0
 10 12  1  0  0  0  0
 10  9  1  0  0  0  0
 11 13  2  0  0  0  0
 11 15  1  0  0  0  0
 13 16  1  0  0  0  0
 14 13  1  0  0  0  0
 15 10  2  0  0  0  0
 16  8  1  0  0  0  0
 16 12  2  0  0  0  0
 17 18  1  6  0  0  0
 17 21  1  0  0  0  0
 19 18  1  0  0  0  0
 20 18  2  0  0  0  0
 21 25  1  0  0  0  0
 21 22  1  1  0  0  0
 22 23  1  0  0  0  0
 23 24  1  0  0  0  0
 25 26  1  0  0  0  0
 27 26  1  0  0  0  0
M  END
>  <MODEL>
2

>  <REMARK>
 VINA RESULT:      -8.1      2.058      3.211
  Name = 
  8 active torsions:
  status: ('A' for Active; 'I' for Inactive)
    1  A    between atoms: C_2  and  C_25
    2  A    between atoms: C_4  and  C_10
    3  A    between atoms: C_6  and  O_24
    4  A    between atoms: C_8  and  C_18
    5  A    between atoms: C_10  and  C_13
    6  A    between atoms: C_10  and  C_14
    7  A    between atoms: C_13  and  C_18
    8  A    between atoms: C_13  and  O_24
                            x       y       z     vdW  Elec       q    Type
                         _______ _______ _______ _____ _____    ______ ____

>  <TORSDO>
F 8

$$$$
=
 OpenBabel10232411313D

 27 28  0  0  1  0  0  0  0  0999 V2000
  189.3010  178.2140  137.3130 N   0  0  0  0  0  1  0  0  0  0  0  0
  190.2790  176.8300  139.1090 C   0  0  0  0  0  0  0  0  0  0  0  0
  189.5900  177.2100  141.4130 C   0  0  0  0  0  0  0  0  0  0  0  0
  189.3840  177.8340  138.6840 C   0  0  0  0  0  0  0  0  0  0  0  0
  190.3810  176.5380  140.4770 C   0  0  0  0  0  3  0  0  0  0  0  0
  188.6910  178.1940  140.9790 C   0  0  0  0  0  3  0  0  0  0  0  0
  188.5940  178.5040  139.6220 C   0  0  0  0  0  3  0  0  0  0  0  0
  193.6550  174.0880  135.5190 F   0  0  0  0  0  0  0  0  0  0  0  0
  189.3350  174.5070  137.5960 N   0  0  0  0  0  1  0  0  0  0  0  0
  190.6660  174.9890  137.4250 C   0  0  0  0  0  0  0  0  0  0  0  0
  192.4760  176.4990  138.0070 C   0  0  0  0  0  3  0  0  0  0  0  0
  191.5190  174.3200  136.5420 C   0  0  0  0  0  3  0  0  0  0  0  0
  193.3230  175.8270  137.1240 C   0  0  0  0  0  0  0  0  0  0  0  0
  194.6400  176.2410  136.9830 O   0  0  0  0  0  1  0  0  0  0  0  0
  191.1390  176.0970  138.1580 C   0  0  0  0  0  0  0  0  0  0  0  0
  192.8410  174.7410  136.3850 C   0  0  0  0  0  0  0  0  0  0  0  0
  189.7240  176.8540  142.8630 C   0  0  1  0  0  3  0  0  0  0  0  0
  191.1540  176.7610  143.3090 C   0  0  0  0  0  0  0  0  0  0  0  0
  192.0030  177.8540  143.2030 O   0  0  0  0  0  0  0  0  0  0  0  0
  191.5860  175.6820  143.7910 O   0  0  0  0  0  1  0  0  0  0  0  0
  188.8370  177.7140  143.7720 C   0  0  1  0  0  3  0  0  0  0  0  0
  187.5490  176.9720  144.1050 C   0  0  0  0  0  2  0  0  0  0  0  0
  186.3430  177.7930  143.6930 C   0  0  0  0  0  2  0  0  0  0  0  0
  185.6400  178.3080  144.9310 C   0  0  0  0  0  1  0  0  0  0  0  0
  189.5090  178.0740  144.9450 O   0  0  0  0  0  0  0  0  0  0  0  0
  189.0120  177.2150  145.9260 C   0  0  0  0  0  2  0  0  0  0  0  0
  190.0860  176.9530  146.9590 C   0  0  0  0  0  1  0  0  0  0  0  0
  1  4  1  0  0  0  0
  2  5  1  0  0  0  0
  3 17  1  0  0  0  0
  4  2  2  0  0  0  0
  4  7  1  0  0  0  0
  5  3  2  0  0  0  0
  6  3  1  0  0  0  0
  7  6  2  0  0  0  0
  8 16  1  0  0  0  0
 10  9  1  0  0  0  0
 10 15  1  0  0  0  0
 11 15  2  0  0  0  0
 12 10  2  0  0  0  0
 13 11  1  0  0  0  0
 14 13  1  0  0  0  0
 15  2  1  0  0  0  0
 16 12  1  0  0  0  0
 16 13  2  0  0  0  0
 17 18  1  1  0  0  0
 17 21  1  0  0  0  0
 18 20  1  0  0  0  0
 19 18  2  0  0  0  0
 21 22  1  1  0  0  0
 21 25  1  0  0  0  0
 23 22  1  0  0  0  0
 23 24  1  0  0  0  0
 25 26  1  0  0  0  0
 26 27  1  0  0  0  0
M  END
>  <MODEL>
3

>  <REMARK>
 VINA RESULT:      -7.7      5.089      7.373
  Name = 
  8 active torsions:
  status: ('A' for Active; 'I' for Inactive)
    1  A    between atoms: C_2  and  C_25
    2  A    between atoms: C_4  and  C_10
    3  A    between atoms: C_6  and  O_24
    4  A    between atoms: C_8  and  C_18
    5  A    between atoms: C_10  and  C_13
    6  A    between atoms: C_10  and  C_14
    7  A    between atoms: C_13  and  C_18
    8  A    between atoms: C_13  and  O_24
                            x       y       z     vdW  Elec       q    Type
                         _______ _______ _______ _____ _____    ______ ____

>  <TORSDO>
F 8

$$$$
=
 OpenBabel10232411313D

 27 28  0  0  1  0  0  0  0  0999 V2000
  188.3130  178.4630  138.5340 N   0  0  0  0  0  1  0  0  0  0  0  0
  189.6620  177.1830  140.1590 C   0  0  0  0  0  0  0  0  0  0  0  0
  189.2190  177.4420  142.5390 C   0  0  0  0  0  0  0  0  0  0  0  0
  188.6080  178.0760  139.8740 C   0  0  0  0  0  0  0  0  0  0  0  0
  189.9650  176.8850  141.4960 C   0  0  0  0  0  3  0  0  0  0  0  0
  188.1630  178.3140  142.2440 C   0  0  0  0  0  3  0  0  0  0  0  0
  187.8630  178.6300  140.9180 C   0  0  0  0  0  3  0  0  0  0  0  0
  192.6970  174.8360  136.0250 F   0  0  0  0  0  0  0  0  0  0  0  0
  192.5660  177.5310  140.0090 N   0  0  0  0  0  1  0  0  0  0  0  0
  191.8820  176.7390  139.0410 C   0  0  0  0  0  0  0  0  0  0  0  0
  189.8410  175.8400  138.0820 C   0  0  0  0  0  3  0  0  0  0  0  0
  192.6170  176.1520  138.0060 C   0  0  0  0  0  3  0  0  0  0  0  0
  190.5800  175.2560  137.0510 C   0  0  0  0  0  0  0  0  0  0  0  0
  189.9300  174.5290  136.0630 O   0  0  0  0  0  1  0  0  0  0  0  0
  190.4820  176.5750  139.0910 C   0  0  0  0  0  0  0  0  0  0  0  0
  191.9710  175.4060  137.0180 C   0  0  0  0  0  0  0  0  0  0  0  0
  189.5710  177.0840  143.9510 C   0  0  1  0  0  3  0  0  0  0  0  0
  191.0490  177.1230  144.2110 C   0  0  0  0  0  0  0  0  0  0  0  0
  191.7230  175.9930  144.6490 O   0  0  0  0  0  1  0  0  0  0  0  0
  191.6850  178.1930  144.0210 O   0  0  0  0  0  0  0  0  0  0  0  0
  188.7310  177.8440  144.9850 C   0  0  1  0  0  3  0  0  0  0  0  0
  187.5000  177.0310  145.3640 C   0  0  0  0  0  2  0  0  0  0  0  0
  186.2380  177.7450  144.9230 C   0  0  0  0  0  2  0  0  0  0  0  0
  185.7600  178.6550  146.0340 C   0  0  0  0  0  1  0  0  0  0  0  0
  189.4830  178.1490  146.1250 O   0  0  0  0  0  0  0  0  0  0  0  0
  188.9600  177.3360  147.1320 C   0  0  0  0  0  2  0  0  0  0  0  0
  188.8790  178.1200  148.4230 C   0  0  0  0  0  1  0  0  0  0  0  0
  1  4  1  0  0  0  0
  2  5  1  0  0  0  0
  3 17  1  0  0  0  0
  4  2  2  0  0  0  0
  4  7  1  0  0  0  0
  5  3  2  0  0  0  0
  6  3  1  0  0  0  0
  7  6  2  0  0  0  0
  8 16  1  0  0  0  0
 10 15  1  0  0  0  0
 10  9  1  0  0  0  0
 11 15  2  0  0  0  0
 12 10  2  0  0  0  0
 13 11  1  0  0  0  0
 14 13  1  0  0  0  0
 15  2  1  0  0  0  0
 16 13  2  0  0  0  0
 16 12  1  0  0  0  0
 17 18  1  1  0  0  0
 17 21  1  0  0  0  0
 18 19  1  0  0  0  0
 20 18  2  0  0  0  0
 21 22  1  1  0  0  0
 21 25  1  0  0  0  0
 23 22  1  0  0  0  0
 23 24  1  0  0  0  0
 25 26  1  0  0  0  0
 26 27  1  0  0  0  0
M  END
>  <MODEL>
4

>  <REMARK>
 VINA RESULT:      -7.5      4.379      6.389
  Name = 
  8 active torsions:
  status: ('A' for Active; 'I' for Inactive)
    1  A    between atoms: C_2  and  C_25
    2  A    between atoms: C_4  and  C_10
    3  A    between atoms: C_6  and  O_24
    4  A    between atoms: C_8  and  C_18
    5  A    between atoms: C_10  and  C_13
    6  A    between atoms: C_10  and  C_14
    7  A    between atoms: C_13  and  C_18
    8  A    between atoms: C_13  and  O_24
                            x       y       z     vdW  Elec       q    Type
                         _______ _______ _______ _____ _____    ______ ____

>  <TORSDO>
F 8

$$$$
=
 OpenBabel10232411313D

 27 28  0  0  1  0  0  0  0  0999 V2000
  183.5830  179.5240  144.7420 N   0  0  0  0  0  1  0  0  0  0  0  0
  185.2820  178.2950  143.4380 C   0  0  0  0  0  0  0  0  0  0  0  0
  187.2660  177.4490  144.5680 C   0  0  0  0  0  0  0  0  0  0  0  0
  184.8010  178.7880  144.6690 C   0  0  0  0  0  0  0  0  0  0  0  0
  186.5220  177.6390  143.4010 C   0  0  0  0  0  3  0  0  0  0  0  0
  186.7720  177.9280  145.7890 C   0  0  0  0  0  3  0  0  0  0  0  0
  185.5470  178.5960  145.8350 C   0  0  0  0  0  3  0  0  0  0  0  0
  182.3300  178.9610  138.6800 F   0  0  0  0  0  0  0  0  0  0  0  0
  186.4660  179.5410  141.0680 N   0  0  0  0  0  1  0  0  0  0  0  0
  185.1230  179.0640  141.0390 C   0  0  0  0  0  0  0  0  0  0  0  0
  183.1890  178.0790  142.1260 C   0  0  0  0  0  3  0  0  0  0  0  0
  184.3740  179.2240  139.8690 C   0  0  0  0  0  3  0  0  0  0  0  0
  182.4450  178.2410  140.9560 C   0  0  0  0  0  0  0  0  0  0  0  0
  181.1180  177.8380  140.9210 O   0  0  0  0  0  1  0  0  0  0  0  0
  184.5340  178.4760  142.1780 C   0  0  0  0  0  0  0  0  0  0  0  0
  183.0420  178.8070  139.8240 C   0  0  0  0  0  0  0  0  0  0  0  0
  188.5800  176.7320  144.4810 C   0  0  1  0  0  3  0  0  0  0  0  0
  188.8870  176.2490  143.0930 C   0  0  0  0  0  0  0  0  0  0  0  0
  188.5230  176.9980  141.9840 O   0  0  0  0  0  0  0  0  0  0  0  0
  189.4880  175.1540  142.9350 O   0  0  0  0  0  1  0  0  0  0  0  0
  189.7260  177.5030  145.1460 C   0  0  1  0  0  3  0  0  0  0  0  0
  190.0150  178.7840  144.3760 C   0  0  0  0  0  2  0  0  0  0  0  0
  191.5000  178.9100  144.0960 C   0  0  0  0  0  2  0  0  0  0  0  0
  191.8840  177.9540  142.9860 C   0  0  0  0  0  1  0  0  0  0  0  0
  189.4330  177.7940  146.4830 O   0  0  0  0  0  0  0  0  0  0  0  0
  189.8630  176.6760  147.2000 C   0  0  0  0  0  2  0  0  0  0  0  0
  191.3690  176.5590  147.0960 C   0  0  0  0  0  1  0  0  0  0  0  0
  2  4  1  0  0  0  0
  3  6  2  0  0  0  0
  4  1  1  0  0  0  0
  4  7  2  0  0  0  0
  5  2  2  0  0  0  0
  5  3  1  0  0  0  0
  6  7  1  0  0  0  0
  8 16  1  0  0  0  0
 10  9  1  0  0  0  0
 10 15  1  0  0  0  0
 11 15  2  0  0  0  0
 12 10  2  0  0  0  0
 13 11  1  0  0  0  0
 14 13  1  0  0  0  0
 15  2  1  0  0  0  0
 16 12  1  0  0  0  0
 16 13  2  0  0  0  0
 17 18  1  6  0  0  0
 17  3  1  0  0  0  0
 17 21  1  0  0  0  0
 19 18  2  0  0  0  0
 20 18  1  0  0  0  0
 21 22  1  6  0  0  0
 21 25  1  0  0  0  0
 23 22  1  0  0  0  0
 24 23  1  0  0  0  0
 25 26  1  0  0  0  0
 27 26  1  0  0  0  0
M  END
>  <MODEL>
5

>  <REMARK>
 VINA RESULT:      -7.3      1.070      2.072
  Name = 
  8 active torsions:
  status: ('A' for Active; 'I' for Inactive)
    1  A    between atoms: C_2  and  C_25
    2  A    between atoms: C_4  and  C_10
    3  A    between atoms: C_6  and  O_24
    4  A    between atoms: C_8  and  C_18
    5  A    between atoms: C_10  and  C_13
    6  A    between atoms: C_10  and  C_14
    7  A    between atoms: C_13  and  C_18
    8  A    between atoms: C_13  and  O_24
                            x       y       z     vdW  Elec       q    Type
                         _______ _______ _______ _____ _____    ______ ____

>  <TORSDO>
F 8

$$$$
=
 OpenBabel10232411313D

 27 28  0  0  1  0  0  0  0  0999 V2000
  185.0700  178.9500  146.7130 N   0  0  0  0  0  1  0  0  0  0  0  0
  186.2080  178.0300  144.7250 C   0  0  0  0  0  0  0  0  0  0  0  0
  188.4870  177.1990  144.9370 C   0  0  0  0  0  0  0  0  0  0  0  0
  186.1960  178.3240  146.1040 C   0  0  0  0  0  0  0  0  0  0  0  0
  187.3650  177.4810  144.1520 C   0  0  0  0  0  3  0  0  0  0  0  0
  188.4580  177.4780  146.3090 C   0  0  0  0  0  3  0  0  0  0  0  0
  187.3180  178.0400  146.8860 C   0  0  0  0  0  3  0  0  0  0  0  0
  181.7210  179.1360  141.4940 F   0  0  0  0  0  0  0  0  0  0  0  0
  186.4750  178.4870  141.8440 N   0  0  0  0  0  1  0  0  0  0  0  0
  185.1920  178.5190  142.4660 C   0  0  0  0  0  0  0  0  0  0  0  0
  183.7760  178.4190  144.4350 C   0  0  0  0  0  3  0  0  0  0  0  0
  184.0680  178.7940  141.6810 C   0  0  0  0  0  3  0  0  0  0  0  0
  182.6570  178.6950  143.6470 C   0  0  0  0  0  0  0  0  0  0  0  0
  181.4050  178.7880  144.2380 O   0  0  0  0  0  1  0  0  0  0  0  0
  185.0500  178.3160  143.8540 C   0  0  0  0  0  0  0  0  0  0  0  0
  182.8030  178.8750  142.2670 C   0  0  0  0  0  0  0  0  0  0  0  0
  189.6960  176.5990  144.2830 C   0  0  1  0  0  3  0  0  0  0  0  0
  189.5720  176.5250  142.7890 C   0  0  0  0  0  0  0  0  0  0  0  0
  189.4460  177.6790  142.0290 O   0  0  0  0  0  0  0  0  0  0  0  0
  189.5900  175.4030  142.2190 O   0  0  0  0  0  1  0  0  0  0  0  0
  191.0090  177.2200  144.7760 C   0  0  1  0  0  3  0  0  0  0  0  0
  191.8240  176.1870  145.5430 C   0  0  0  0  0  2  0  0  0  0  0  0
  191.8700  176.5370  147.0170 C   0  0  0  0  0  2  0  0  0  0  0  0
  191.6100  175.2910  147.8370 C   0  0  0  0  0  1  0  0  0  0  0  0
  191.7560  177.7380  143.7120 O   0  0  0  0  0  0  0  0  0  0  0  0
  192.0970  179.0330  144.1060 C   0  0  0  0  0  2  0  0  0  0  0  0
  190.8610  179.9050  144.0960 C   0  0  0  0  0  1  0  0  0  0  0  0
  2  4  1  0  0  0  0
  3  6  2  0  0  0  0
  4  1  1  0  0  0  0
  4  7  2  0  0  0  0
  5  2  2  0  0  0  0
  5  3  1  0  0  0  0
  6  7  1  0  0  0  0
  8 16  1  0  0  0  0
  9 10  1  0  0  0  0
 10 15  1  0  0  0  0
 12 16  1  0  0  0  0
 12 10  2  0  0  0  0
 13 14  1  0  0  0  0
 13 11  1  0  0  0  0
 15 11  2  0  0  0  0
 15  2  1  0  0  0  0
 16 13  2  0  0  0  0
 17 18  1  6  0  0  0
 17 21  1  0  0  0  0
 17  3  1  0  0  0  0
 19 18  2  0  0  0  0
 20 18  1  0  0  0  0
 21 22  1  6  0  0  0
 22 23  1  0  0  0  0
 23 24  1  0  0  0  0
 25 26  1  0  0  0  0
 25 21  1  0  0  0  0
 27 26  1  0  0  0  0
M  END
>  <MODEL>
6

>  <REMARK>
 VINA RESULT:      -7.1      1.923      2.799
  Name = 
  8 active torsions:
  status: ('A' for Active; 'I' for Inactive)
    1  A    between atoms: C_2  and  C_25
    2  A    between atoms: C_4  and  C_10
    3  A    between atoms: C_6  and  O_24
    4  A    between atoms: C_8  and  C_18
    5  A    between atoms: C_10  and  C_13
    6  A    between atoms: C_10  and  C_14
    7  A    between atoms: C_13  and  C_18
    8  A    between atoms: C_13  and  O_24
                            x       y       z     vdW  Elec       q    Type
                         _______ _______ _______ _____ _____    ______ ____

>  <TORSDO>
F 8

$$$$
=
 OpenBabel10232411313D

 27 28  0  0  1  0  0  0  0  0999 V2000
  191.3820  178.0310  142.5560 N   0  0  0  0  0  1  0  0  0  0  0  0
  189.7940  177.2860  140.8180 C   0  0  0  0  0  0  0  0  0  0  0  0
  190.6370  176.6960  138.6110 C   0  0  0  0  0  0  0  0  0  0  0  0
  191.1140  177.5430  141.2450 C   0  0  0  0  0  0  0  0  0  0  0  0
  189.5690  176.8760  139.4960 C   0  0  0  0  0  3  0  0  0  0  0  0
  191.9450  176.9360  139.0500 C   0  0  0  0  0  3  0  0  0  0  0  0
  192.1790  177.3600  140.3590 C   0  0  0  0  0  3  0  0  0  0  0  0
  185.3160  178.0500  144.1600 F   0  0  0  0  0  0  0  0  0  0  0  0
  189.3960  175.6750  143.2310 N   0  0  0  0  0  1  0  0  0  0  0  0
  188.4640  176.6960  142.8810 C   0  0  0  0  0  0  0  0  0  0  0  0
  187.6590  178.4190  141.3730 C   0  0  0  0  0  3  0  0  0  0  0  0
  187.3460  176.8980  143.6960 C   0  0  0  0  0  3  0  0  0  0  0  0
  186.5440  178.6170  142.1900 C   0  0  0  0  0  0  0  0  0  0  0  0
  185.5920  179.5640  141.8400 O   0  0  0  0  0  1  0  0  0  0  0  0
  188.6340  177.4690  141.7140 C   0  0  0  0  0  0  0  0  0  0  0  0
  186.3920  177.8590  143.3570 C   0  0  0  0  0  0  0  0  0  0  0  0
  190.3490  176.2430  137.2110 C   0  0  1  0  0  3  0  0  0  0  0  0
  190.9220  174.8890  136.9080 C   0  0  0  0  0  0  0  0  0  0  0  0
  191.6670  174.6750  135.7570 O   0  0  0  0  0  0  0  0  0  0  0  0
  190.7290  173.9390  137.7100 O   0  0  0  0  0  1  0  0  0  0  0  0
  188.8730  176.4020  136.8260 C   0  0  1  0  0  3  0  0  0  0  0  0
  188.6860  177.6390  135.9570 C   0  0  0  0  0  2  0  0  0  0  0  0
  188.1560  178.7930  136.7850 C   0  0  0  0  0  2  0  0  0  0  0  0
  186.8330  178.3980  137.4080 C   0  0  0  0  0  1  0  0  0  0  0  0
  188.3960  175.2650  136.1640 O   0  0  0  0  0  0  0  0  0  0  0  0
  187.2820  174.8580  136.9000 C   0  0  0  0  0  2  0  0  0  0  0  0
  187.2220  173.3460  136.9300 C   0  0  0  0  0  1  0  0  0  0  0  0
  2  4  1  0  0  0  0
  2 15  1  0  0  0  0
  3  6  2  0  0  0  0
  3  5  1  0  0  0  0
  4  1  1  0  0  0  0
  5  2  2  0  0  0  0
  6  7  1  0  0  0  0
  7  4  2  0  0  0  0
 10  9  1  0  0  0  0
 10 12  1  0  0  0  0
 11 15  1  0  0  0  0
 11 13  2  0  0  0  0
 13 16  1  0  0  0  0
 14 13  1  0  0  0  0
 15 10  2  0  0  0  0
 16 12  2  0  0  0  0
 16  8  1  0  0  0  0
 17 18  1  1  0  0  0
 17  3  1  0  0  0  0
 18 20  1  0  0  0  0
 19 18  2  0  0  0  0
 21 22  1  6  0  0  0
 21 17  1  0  0  0  0
 22 23  1  0  0  0  0
 23 24  1  0  0  0  0
 25 21  1  0  0  0  0
 25 26  1  0  0  0  0
 26 27  1  0  0  0  0
M  END
>  <MODEL>
7

>  <REMARK>
 VINA RESULT:      -7.1      4.950      7.753
  Name = 
  8 active torsions:
  status: ('A' for Active; 'I' for Inactive)
    1  A    between atoms: C_2  and  C_25
    2  A    between atoms: C_4  and  C_10
    3  A    between atoms: C_6  and  O_24
    4  A    between atoms: C_8  and  C_18
    5  A    between atoms: C_10  and  C_13
    6  A    between atoms: C_10  and  C_14
    7  A    between atoms: C_13  and  C_18
    8  A    between atoms: C_13  and  O_24
                            x       y       z     vdW  Elec       q    Type
                         _______ _______ _______ _____ _____    ______ ____

>  <TORSDO>
F 8

$$$$
=
 OpenBabel10232411313D

 27 28  0  0  1  0  0  0  0  0999 V2000
  184.0470  178.8140  145.5810 N   0  0  0  0  0  1  0  0  0  0  0  0
  184.7580  178.4100  143.2520 C   0  0  0  0  0  0  0  0  0  0  0  0
  183.1340  178.6490  141.4530 C   0  0  0  0  0  0  0  0  0  0  0  0
  183.7700  178.7910  144.1840 C   0  0  0  0  0  0  0  0  0  0  0  0
  184.4220  178.3300  141.8920 C   0  0  0  0  0  3  0  0  0  0  0  0
  182.1640  179.0430  142.3850 C   0  0  0  0  0  3  0  0  0  0  0  0
  182.4830  179.1100  143.7420 C   0  0  0  0  0  3  0  0  0  0  0  0
  189.9580  177.0290  144.9390 F   0  0  0  0  0  0  0  0  0  0  0  0
  187.0190  178.4120  141.3900 N   0  0  0  0  0  1  0  0  0  0  0  0
  187.2120  178.0790  142.7630 C   0  0  0  0  0  0  0  0  0  0  0  0
  186.3550  177.6630  144.9950 C   0  0  0  0  0  3  0  0  0  0  0  0
  188.4940  177.7300  143.1990 C   0  0  0  0  0  3  0  0  0  0  0  0
  187.6370  177.3150  145.4260 C   0  0  0  0  0  0  0  0  0  0  0  0
  187.8410  176.9310  146.7440 O   0  0  0  0  0  1  0  0  0  0  0  0
  186.1300  178.0580  143.6680 C   0  0  0  0  0  0  0  0  0  0  0  0
  188.7090  177.3570  144.5280 C   0  0  0  0  0  0  0  0  0  0  0  0
  182.8250  178.5620  139.9890 C   0  0  1  0  0  3  0  0  0  0  0  0
  183.1760  179.8180  139.2450 C   0  0  0  0  0  0  0  0  0  0  0  0
  184.4820  180.2870  139.2210 O   0  0  0  0  0  1  0  0  0  0  0  0
  182.2770  180.4490  138.6310 O   0  0  0  0  0  0  0  0  0  0  0  0
  183.3590  177.2790  139.3420 C   0  0  1  0  0  3  0  0  0  0  0  0
  182.4010  176.1230  139.5950 C   0  0  0  0  0  2  0  0  0  0  0  0
  180.9750  176.5420  139.2950 C   0  0  0  0  0  2  0  0  0  0  0  0
  180.0580  176.0160  140.3780 C   0  0  0  0  0  1  0  0  0  0  0  0
  183.5650  177.4490  137.9690 O   0  0  0  0  0  0  0  0  0  0  0  0
  184.6870  176.6740  137.6710 C   0  0  0  0  0  2  0  0  0  0  0  0
  185.9230  177.5460  137.6930 C   0  0  0  0  0  1  0  0  0  0  0  0
  2 15  1  0  0  0  0
  2  4  1  0  0  0  0
  3  5  1  0  0  0  0
  3  6  2  0  0  0  0
  4  1  1  0  0  0  0
  5  2  2  0  0  0  0
  6  7  1  0  0  0  0
  7  4  2  0  0  0  0
  9 10  1  0  0  0  0
 10 12  2  0  0  0  0
 10 15  1  0  0  0  0
 11 13  1  0  0  0  0
 12 16  1  0  0  0  0
 13 14  1  0  0  0  0
 15 11  2  0  0  0  0
 16  8  1  0  0  0  0
 16 13  2  0  0  0  0
 17 18  1  6  0  0  0
 17  3  1  0  0  0  0
 19 18  1  0  0  0  0
 20 18  2  0  0  0  0
 21 22  1  6  0  0  0
 21 17  1  0  0  0  0
 23 22  1  0  0  0  0
 23 24  1  0  0  0  0
 25 21  1  0  0  0  0
 26 27  1  0  0  0  0
 26 25  1  0  0  0  0
M  END
>  <MODEL>
8

>  <REMARK>
 VINA RESULT:      -7.0      2.922      7.149
  Name = 
  8 active torsions:
  status: ('A' for Active; 'I' for Inactive)
    1  A    between atoms: C_2  and  C_25
    2  A    between atoms: C_4  and  C_10
    3  A    between atoms: C_6  and  O_24
    4  A    between atoms: C_8  and  C_18
    5  A    between atoms: C_10  and  C_13
    6  A    between atoms: C_10  and  C_14
    7  A    between atoms: C_13  and  C_18
    8  A    between atoms: C_13  and  O_24
                            x       y       z     vdW  Elec       q    Type
                         _______ _______ _______ _____ _____    ______ ____

>  <TORSDO>
F 8

$$$$
=
 OpenBabel10232411313D

 27 28  0  0  1  0  0  0  0  0999 V2000
  192.3200  177.0390  138.8700 N   0  0  0  0  0  1  0  0  0  0  0  0
  190.0960  177.2880  139.9120 C   0  0  0  0  0  0  0  0  0  0  0  0
  189.9420  177.6670  142.3130 C   0  0  0  0  0  0  0  0  0  0  0  0
  191.5030  177.2880  140.0110 C   0  0  0  0  0  0  0  0  0  0  0  0
  189.3280  177.4650  141.0730 C   0  0  0  0  0  3  0  0  0  0  0  0
  191.3400  177.6830  142.3970 C   0  0  0  0  0  3  0  0  0  0  0  0
  192.1140  177.4910  141.2510 C   0  0  0  0  0  3  0  0  0  0  0  0
  187.4440  176.3550  135.0230 F   0  0  0  0  0  0  0  0  0  0  0  0
  189.0050  179.4910  138.3210 N   0  0  0  0  0  1  0  0  0  0  0  0
  188.8960  178.1450  137.8630 C   0  0  0  0  0  0  0  0  0  0  0  0
  189.2170  175.7590  138.1690 C   0  0  0  0  0  3  0  0  0  0  0  0
  188.2390  177.8940  136.6550 C   0  0  0  0  0  3  0  0  0  0  0  0
  188.5600  175.5130  136.9620 C   0  0  0  0  0  0  0  0  0  0  0  0
  188.3890  174.2080  136.5230 O   0  0  0  0  0  1  0  0  0  0  0  0
  189.4020  177.0730  138.6260 C   0  0  0  0  0  0  0  0  0  0  0  0
  188.0770  176.5840  136.2010 C   0  0  0  0  0  0  0  0  0  0  0  0
  189.0800  177.8650  143.5230 C   0  0  1  0  0  3  0  0  0  0  0  0
  187.8530  177.0010  143.5120 C   0  0  0  0  0  0  0  0  0  0  0  0
  186.5920  177.5550  143.6810 O   0  0  0  0  0  1  0  0  0  0  0  0
  187.9690  175.7590  143.3420 O   0  0  0  0  0  0  0  0  0  0  0  0
  189.8740  177.8130  144.8340 C   0  0  1  0  0  3  0  0  0  0  0  0
  189.0550  178.4110  145.9700 C   0  0  0  0  0  2  0  0  0  0  0  0
  188.4080  177.3140  146.7920 C   0  0  0  0  0  2  0  0  0  0  0  0
  188.4160  177.7090  148.2530 C   0  0  0  0  0  1  0  0  0  0  0  0
  190.2540  176.5020  145.1460 O   0  0  0  0  0  0  0  0  0  0  0  0
  191.6060  176.5880  145.4840 C   0  0  0  0  0  2  0  0  0  0  0  0
  191.8180  176.0120  146.8670 C   0  0  0  0  0  1  0  0  0  0  0  0
  1  4  1  0  0  0  0
  2  4  2  0  0  0  0
  2  5  1  0  0  0  0
  3  6  1  0  0  0  0
  3 17  1  0  0  0  0
  4  7  1  0  0  0  0
  5  3  2  0  0  0  0
  7  6  2  0  0  0  0
  8 16  1  0  0  0  0
 10  9  1  0  0  0  0
 10 15  1  0  0  0  0
 11 15  2  0  0  0  0
 12 10  2  0  0  0  0
 13 11  1  0  0  0  0
 14 13  1  0  0  0  0
 15  2  1  0  0  0  0
 16 12  1  0  0  0  0
 16 13  2  0  0  0  0
 17 18  1  1  0  0  0
 17 21  1  0  0  0  0
 18 19  1  0  0  0  0
 20 18  2  0  0  0  0
 21 25  1  0  0  0  0
 21 22  1  1  0  0  0
 22 23  1  0  0  0  0
 23 24  1  0  0  0  0
 25 26  1  0  0  0  0
 26 27  1  0  0  0  0
M  END
>  <MODEL>
9

>  <REMARK>
 VINA RESULT:      -7.0      4.122      5.583
  Name = 
  8 active torsions:
  status: ('A' for Active; 'I' for Inactive)
    1  A    between atoms: C_2  and  C_25
    2  A    between atoms: C_4  and  C_10
    3  A    between atoms: C_6  and  O_24
    4  A    between atoms: C_8  and  C_18
    5  A    between atoms: C_10  and  C_13
    6  A    between atoms: C_10  and  C_14
    7  A    between atoms: C_13  and  C_18
    8  A    between atoms: C_13  and  O_24
                            x       y       z     vdW  Elec       q    Type
                         _______ _______ _______ _____ _____    ______ ____

>  <TORSDO>
F 8

$$$$
