=
 OpenBabel10232412303D

 29 34  0  0  1  0  0  0  0  0999 V2000
  189.7350  177.2980  139.9710 C   0  0  0  0  0  0  0  0  0  0  0  0
  188.1430  178.6740  140.4270 C   0  0  0  0  0  0  0  0  0  0  0  0
  191.1060  176.7800  138.1000 O   0  0  0  0  0  0  0  0  0  0  0  0
  186.3980  178.7570  141.7090 C   0  0  0  0  0  0  0  0  0  0  0  0
  188.6220  178.2670  141.6220 C   0  0  1  0  0  3  0  0  0  0  0  0
  187.5040  178.2380  142.5990 C   0  0  0  0  0  3  0  0  0  0  0  0
  189.6290  177.3590  141.3540 C   0  0  0  0  0  0  0  0  0  0  0  0
  189.3830  177.9070  136.9010 C   0  0  0  0  0  2  0  0  0  0  0  0
  186.7600  178.9710  140.4780 N   0  0  0  0  0  0  0  0  0  0  0  0
  188.7950  178.0950  139.3960 N   0  0  0  0  0  0  0  0  0  0  0  0
  190.5090  176.2420  139.2410 C   0  0  0  0  0  2  0  0  0  0  0  0
  190.1610  176.6150  137.0830 C   0  0  0  0  0  2  0  0  0  0  0  0
  187.2240  178.4640  137.7010 O   0  0  0  0  0  0  0  0  0  0  0  0
  188.4020  178.1380  138.0100 C   0  0  0  0  0  0  0  0  0  0  0  0
  183.2800  179.0220  143.5100 C   0  0  0  0  0  0  0  0  0  0  0  0
  185.0160  178.9450  142.1690 C   0  0  0  0  0  0  0  0  0  0  0  0
  183.8060  178.3900  141.5200 C   0  0  0  0  0  3  0  0  0  0  0  0
  183.0850  178.6240  144.7550 C   0  0  0  0  0  3  0  0  0  0  0  0
  184.3840  178.8760  145.4300 C   0  0  0  0  0  3  0  0  0  0  0  0
  185.3070  179.2700  144.5990 N   0  0  0  0  0  0  0  0  0  0  0  0
  182.7820  178.4160  142.3280 N   0  0  0  0  0  0  0  0  0  0  0  0
  184.6300  179.3690  143.3610 C   0  0  0  0  0  0  0  0  0  0  0  0
  191.5950  176.4210  145.4260 C   0  0  0  0  0  0  0  0  0  0  0  0
  190.1810  176.3950  142.2590 N   0  0  0  0  0  2  0  0  0  0  0  0
  191.0970  175.7820  144.4000 O   0  0  0  0  0  0  0  0  0  0  0  0
  191.5630  177.7770  145.1830 C   0  0  0  0  0  3  0  0  0  0  0  0
  191.0220  177.9540  143.9590 N   0  0  0  0  0  0  0  0  0  0  0  0
  190.7540  176.7030  143.5340 C   0  0  0  0  0  0  0  0  0  0  0  0
  192.1140  175.7670  146.6570 C   0  0  0  0  0  1  0  0  0  0  0  0
  1  7  2  0  0  0  0
  2  9  2  0  0  0  0
  2  5  1  0  0  0  0
  3 11  1  0  0  0  0
  4 16  1  0  0  0  0
  4  6  2  0  0  0  0
  5  6  1  1  0  0  0
  7  5  1  0  0  0  0
  7 24  1  0  0  0  0
  8 12  1  0  0  0  0
  8 14  1  0  0  0  0
  9  4  1  0  0  0  0
 10  1  1  0  0  0  0
 10  2  1  0  0  0  0
 11  1  1  0  0  0  0
 12  3  1  0  0  0  0
 13 14  2  0  0  0  0
 14 10  1  0  0  0  0
 15 18  1  0  0  0  0
 16 22  1  0  0  0  0
 17 16  2  0  0  0  0
 17 21  1  0  0  0  0
 18 19  2  0  0  0  0
 20 19  1  0  0  0  0
 21 15  2  0  0  0  0
 22 15  1  0  0  0  0
 22 20  2  0  0  0  0
 23 29  1  0  0  0  0
 24 28  1  0  0  0  0
 25 23  1  0  0  0  0
 26 23  2  0  0  0  0
 27 26  1  0  0  0  0
 28 27  2  0  0  0  0
 28 25  1  0  0  0  0
M  END
>  <MODEL>
1

>  <REMARK>
 VINA RESULT:      -9.4      0.000      0.000
  Name = 
  2 active torsions:
  status: ('A' for Active; 'I' for Inactive)
    1  A    between atoms: C_3  and  C_6
    2  A    between atoms: C_10  and  N_15
                            x       y       z     vdW  Elec       q    Type
                         _______ _______ _______ _____ _____    ______ ____

>  <TORSDO>
F 2

$$$$
=
 OpenBabel10232412303D

 29 34  0  0  1  0  0  0  0  0999 V2000
  189.6940  177.3980  140.0540 C   0  0  0  0  0  0  0  0  0  0  0  0
  188.0280  178.6070  140.6860 C   0  0  0  0  0  0  0  0  0  0  0  0
  191.0000  177.1230  138.0880 O   0  0  0  0  0  0  0  0  0  0  0  0
  186.3520  178.4610  142.0520 C   0  0  0  0  0  0  0  0  0  0  0  0
  188.5990  178.1570  141.8240 C   0  0  1  0  0  3  0  0  0  0  0  0
  187.5400  177.9710  142.8470 C   0  0  0  0  0  3  0  0  0  0  0  0
  189.6570  177.3530  141.4430 C   0  0  0  0  0  0  0  0  0  0  0  0
  189.1350  178.1910  137.0580 C   0  0  0  0  0  2  0  0  0  0  0  0
  186.6310  178.7880  140.8240 N   0  0  0  0  0  0  0  0  0  0  0  0
  188.6660  178.1560  139.5860 N   0  0  0  0  0  0  0  0  0  0  0  0
  190.5060  176.4610  139.2130 C   0  0  0  0  0  2  0  0  0  0  0  0
  190.0170  176.9550  137.1070 C   0  0  0  0  0  2  0  0  0  0  0  0
  186.9850  178.5160  137.9990 O   0  0  0  0  0  0  0  0  0  0  0  0
  188.1990  178.2640  138.2270 C   0  0  0  0  0  0  0  0  0  0  0  0
  182.7960  178.6460  142.6500 C   0  0  0  0  0  0  0  0  0  0  0  0
  184.9860  178.5050  142.5890 C   0  0  0  0  0  0  0  0  0  0  0  0
  184.5290  179.3390  143.7240 C   0  0  0  0  0  3  0  0  0  0  0  0
  181.8880  178.9630  141.7430 C   0  0  0  0  0  3  0  0  0  0  0  0
  182.4250  178.4050  140.4750 C   0  0  0  0  0  3  0  0  0  0  0  0
  183.6240  177.9140  140.6170 N   0  0  0  0  0  0  0  0  0  0  0  0
  183.2290  179.4400  143.7440 N   0  0  0  0  0  0  0  0  0  0  0  0
  183.8890  178.0590  141.9980 C   0  0  0  0  0  0  0  0  0  0  0  0
  191.7000  176.2310  145.4290 C   0  0  0  0  0  0  0  0  0  0  0  0
  190.3280  176.3760  142.2460 N   0  0  0  0  0  2  0  0  0  0  0  0
  191.3020  175.6520  144.3260 O   0  0  0  0  0  0  0  0  0  0  0  0
  191.4850  177.5890  145.3370 C   0  0  0  0  0  3  0  0  0  0  0  0
  190.9350  177.8300  144.1290 N   0  0  0  0  0  0  0  0  0  0  0  0
  190.8430  176.6100  143.5600 C   0  0  0  0  0  0  0  0  0  0  0  0
  192.2930  175.5170  146.5900 C   0  0  0  0  0  1  0  0  0  0  0  0
  1  7  2  0  0  0  0
  2  9  2  0  0  0  0
  2  5  1  0  0  0  0
  3 11  1  0  0  0  0
  4 16  1  0  0  0  0
  4  6  2  0  0  0  0
  5  6  1  6  0  0  0
  7  5  1  0  0  0  0
  7 24  1  0  0  0  0
  8 12  1  0  0  0  0
  8 14  1  0  0  0  0
  9  4  1  0  0  0  0
 10  1  1  0  0  0  0
 10  2  1  0  0  0  0
 11  1  1  0  0  0  0
 12  3  1  0  0  0  0
 13 14  2  0  0  0  0
 14 10  1  0  0  0  0
 15 21  1  0  0  0  0
 16 17  1  0  0  0  0
 17 21  2  0  0  0  0
 18 15  2  0  0  0  0
 19 20  2  0  0  0  0
 19 18  1  0  0  0  0
 20 22  1  0  0  0  0
 22 16  2  0  0  0  0
 22 15  1  0  0  0  0
 23 29  1  0  0  0  0
 24 28  1  0  0  0  0
 25 23  1  0  0  0  0
 26 23  2  0  0  0  0
 27 26  1  0  0  0  0
 28 27  2  0  0  0  0
 28 25  1  0  0  0  0
M  END
>  <MODEL>
2

>  <REMARK>
 VINA RESULT:      -9.2      0.808      1.627
  Name = 
  2 active torsions:
  status: ('A' for Active; 'I' for Inactive)
    1  A    between atoms: C_3  and  C_6
    2  A    between atoms: C_10  and  N_15
                            x       y       z     vdW  Elec       q    Type
                         _______ _______ _______ _____ _____    ______ ____

>  <TORSDO>
F 2

$$$$
=
 OpenBabel10232412303D

 29 34  0  0  0  0  0  0  0  0999 V2000
  189.0420  176.7740  137.9310 C   0  0  0  0  0  0  0  0  0  0  0  0
  188.9810  177.9950  139.7040 C   0  0  0  0  0  0  0  0  0  0  0  0
  188.0020  176.7530  135.7940 O   0  0  0  0  0  0  0  0  0  0  0  0
  189.2430  177.7540  141.8410 C   0  0  0  0  0  0  0  0  0  0  0  0
  190.1270  177.2860  139.7920 C   0  0  0  0  0  0  0  0  0  0  0  0
  190.4070  177.0120  141.2250 C   0  0  0  0  0  3  0  0  0  0  0  0
  190.1740  176.4720  138.6770 C   0  0  0  0  0  0  0  0  0  0  0  0
  186.4210  178.1680  136.8790 C   0  0  0  0  0  2  0  0  0  0  0  0
  188.4270  178.2790  140.9740 N   0  0  0  0  0  2  0  0  0  0  0  0
  188.2890  177.7010  138.5820 N   0  0  0  0  0  0  0  0  0  0  0  0
  188.5530  175.9400  136.7860 C   0  0  0  0  0  2  0  0  0  0  0  0
  186.6480  176.8670  136.1280 C   0  0  0  0  0  2  0  0  0  0  0  0
  186.1870  178.5130  139.2110 O   0  0  0  0  0  0  0  0  0  0  0  0
  186.9390  178.1090  138.2850 C   0  0  0  0  0  0  0  0  0  0  0  0
  189.3630  177.6420  145.4480 C   0  0  0  0  0  0  0  0  0  0  0  0
  189.0090  177.8250  143.2890 C   0  0  0  0  0  0  0  0  0  0  0  0
  187.8020  177.3380  143.9960 C   0  0  0  0  0  3  0  0  0  0  0  0
  190.3070  177.0510  146.1590 C   0  0  0  0  0  3  0  0  0  0  0  0
  191.5430  177.2380  145.3560 C   0  0  0  0  0  3  0  0  0  0  0  0
  191.3050  177.7840  144.1970 N   0  0  0  0  0  0  0  0  0  0  0  0
  188.0230  177.2090  145.2740 N   0  0  0  0  0  0  0  0  0  0  0  0
  189.9160  178.0490  144.2260 C   0  0  0  0  0  0  0  0  0  0  0  0
  194.0220  174.5250  137.0260 C   0  0  0  0  0  0  0  0  0  0  0  0
  190.9800  175.3010  138.5000 N   0  0  0  0  0  2  0  0  0  0  0  0
  193.0060  174.2130  137.7870 O   0  0  0  0  0  0  0  0  0  0  0  0
  193.8540  175.8020  136.5370 C   0  0  0  0  0  3  0  0  0  0  0  0
  192.6880  176.2720  137.0280 N   0  0  0  0  0  0  0  0  0  0  0  0
  192.2200  175.2600  137.7870 C   0  0  0  0  0  0  0  0  0  0  0  0
  195.1710  173.6260  136.7410 C   0  0  0  0  0  1  0  0  0  0  0  0
  1 10  1  0  0  0  0
  1  7  2  0  0  0  0
  2  5  2  0  0  0  0
  2  9  1  0  0  0  0
  3 12  1  0  0  0  0
  3 11  1  0  0  0  0
  4 16  1  0  0  0  0
  5  6  1  0  0  0  0
  6  4  2  0  0  0  0
  7  5  1  0  0  0  0
  8 14  1  0  0  0  0
  9  4  1  0  0  0  0
 10  2  1  0  0  0  0
 11  1  1  0  0  0  0
 12  8  1  0  0  0  0
 14 10  1  0  0  0  0
 14 13  2  0  0  0  0
 15 18  1  0  0  0  0
 16 17  2  0  0  0  0
 16 22  1  0  0  0  0
 17 21  1  0  0  0  0
 19 18  2  0  0  0  0
 20 22  2  0  0  0  0
 20 19  1  0  0  0  0
 21 15  2  0  0  0  0
 22 15  1  0  0  0  0
 23 25  1  0  0  0  0
 24  7  1  0  0  0  0
 26 23  2  0  0  0  0
 26 27  1  0  0  0  0
 27 28  2  0  0  0  0
 28 25  1  0  0  0  0
 28 24  1  0  0  0  0
 29 23  1  0  0  0  0
M  END
>  <MODEL>
3

>  <REMARK>
 VINA RESULT:      -8.9      3.018      5.362
  Name = 
  2 active torsions:
  status: ('A' for Active; 'I' for Inactive)
    1  A    between atoms: C_3  and  C_6
    2  A    between atoms: C_10  and  N_15
                            x       y       z     vdW  Elec       q    Type
                         _______ _______ _______ _____ _____    ______ ____

>  <TORSDO>
F 2

$$$$
=
 OpenBabel10232412303D

 29 34  0  0  1  0  0  0  0  0999 V2000
  188.6530  177.7110  141.1190 C   0  0  0  0  0  0  0  0  0  0  0  0
  186.7890  178.7890  141.1610 C   0  0  0  0  0  0  0  0  0  0  0  0
  190.5140  177.5070  139.6560 O   0  0  0  0  0  0  0  0  0  0  0  0
  184.7920  178.5310  141.9590 C   0  0  0  0  0  0  0  0  0  0  0  0
  187.0170  178.4110  142.4370 C   0  0  1  0  0  3  0  0  0  0  0  0
  185.7120  178.1580  143.0980 C   0  0  0  0  0  3  0  0  0  0  0  0
  188.1960  177.6910  142.4310 C   0  0  0  0  0  0  0  0  0  0  0  0
  188.9800  178.3930  138.0620 C   0  0  0  0  0  2  0  0  0  0  0  0
  185.4080  178.8550  140.8600 N   0  0  0  0  0  0  0  0  0  0  0  0
  187.7650  178.3700  140.3270 N   0  0  0  0  0  0  0  0  0  0  0  0
  189.7500  176.8280  140.6070 C   0  0  0  0  0  2  0  0  0  0  0  0
  189.8940  177.2370  138.4320 C   0  0  0  0  0  2  0  0  0  0  0  0
  186.6280  178.5560  138.2900 O   0  0  0  0  0  0  0  0  0  0  0  0
  187.7290  178.4120  138.8870 C   0  0  0  0  0  0  0  0  0  0  0  0
  181.2120  178.7750  141.5500 C   0  0  0  0  0  0  0  0  0  0  0  0
  183.3270  178.4710  142.0540 C   0  0  0  0  0  0  0  0  0  0  0  0
  182.5240  178.7890  143.2570 C   0  0  0  0  0  3  0  0  0  0  0  0
  180.5990  179.5260  140.6510 C   0  0  0  0  0  3  0  0  0  0  0  0
  181.5060  179.5060  139.4750 C   0  0  0  0  0  3  0  0  0  0  0  0
  182.6290  178.8930  139.7240 N   0  0  0  0  0  0  0  0  0  0  0  0
  181.2730  178.9920  142.9510 N   0  0  0  0  0  0  0  0  0  0  0  0
  182.4710  178.4180  141.0470 C   0  0  0  0  0  0  0  0  0  0  0  0
  191.2050  176.7260  145.7980 C   0  0  0  0  0  0  0  0  0  0  0  0
  188.6590  176.7900  143.4430 N   0  0  0  0  0  2  0  0  0  0  0  0
  190.0990  176.2440  145.2940 O   0  0  0  0  0  0  0  0  0  0  0  0
  191.6070  177.8190  145.0610 C   0  0  0  0  0  3  0  0  0  0  0  0
  190.7020  177.9960  144.0760 N   0  0  0  0  0  0  0  0  0  0  0  0
  189.8040  177.0090  144.2730 C   0  0  0  0  0  0  0  0  0  0  0  0
  191.9070  176.1670  146.9830 C   0  0  0  0  0  1  0  0  0  0  0  0
  1  7  2  0  0  0  0
  2  5  1  0  0  0  0
  3 11  1  0  0  0  0
  4 16  1  0  0  0  0
  4  6  2  0  0  0  0
  5  6  1  6  0  0  0
  7  5  1  0  0  0  0
  7 24  1  0  0  0  0
  8 12  1  0  0  0  0
  8 14  1  0  0  0  0
  9  2  2  0  0  0  0
  9  4  1  0  0  0  0
 10  1  1  0  0  0  0
 10  2  1  0  0  0  0
 11  1  1  0  0  0  0
 12  3  1  0  0  0  0
 13 14  2  0  0  0  0
 14 10  1  0  0  0  0
 15 21  1  0  0  0  0
 16 17  1  0  0  0  0
 18 15  2  0  0  0  0
 19 20  2  0  0  0  0
 19 18  1  0  0  0  0
 20 22  1  0  0  0  0
 21 17  2  0  0  0  0
 22 15  1  0  0  0  0
 22 16  2  0  0  0  0
 23 29  1  0  0  0  0
 24 28  1  0  0  0  0
 25 23  1  0  0  0  0
 26 23  2  0  0  0  0
 27 28  2  0  0  0  0
 27 26  1  0  0  0  0
 28 25  1  0  0  0  0
M  END
>  <MODEL>
4

>  <REMARK>
 VINA RESULT:      -8.8      1.526      2.430
  Name = 
  2 active torsions:
  status: ('A' for Active; 'I' for Inactive)
    1  A    between atoms: C_3  and  C_6
    2  A    between atoms: C_10  and  N_15
                            x       y       z     vdW  Elec       q    Type
                         _______ _______ _______ _____ _____    ______ ____

>  <TORSDO>
F 2

$$$$
=
 OpenBabel10232412303D

 29 34  0  0  1  0  0  0  0  0999 V2000
  188.4880  177.8060  141.2270 C   0  0  0  0  0  0  0  0  0  0  0  0
  186.6350  178.8340  140.8400 C   0  0  0  0  0  0  0  0  0  0  0  0
  190.5870  177.5340  140.1480 O   0  0  0  0  0  0  0  0  0  0  0  0
  184.5290  178.5880  141.2820 C   0  0  0  0  0  0  0  0  0  0  0  0
  186.6300  178.5660  142.1630 C   0  0  1  0  0  3  0  0  0  0  0  0
  185.2290  178.3330  142.5960 C   0  0  0  0  0  3  0  0  0  0  0  0
  187.7990  177.8800  142.4320 C   0  0  0  0  0  0  0  0  0  0  0  0
  189.3610  178.2490  138.2340 C   0  0  0  0  0  2  0  0  0  0  0  0
  185.3320  178.8390  140.2890 N   0  0  0  0  0  0  0  0  0  0  0  0
  187.7520  178.3760  140.2350 N   0  0  0  0  0  0  0  0  0  0  0  0
  189.6700  176.9140  140.9980 C   0  0  0  0  0  2  0  0  0  0  0  0
  190.2040  177.1510  138.8580 C   0  0  0  0  0  2  0  0  0  0  0  0
  187.0050  178.3670  138.0180 O   0  0  0  0  0  0  0  0  0  0  0  0
  187.9790  178.3010  138.8140 C   0  0  0  0  0  0  0  0  0  0  0  0
  180.9420  178.3430  141.6230 C   0  0  0  0  0  0  0  0  0  0  0  0
  183.0720  178.4970  141.1150 C   0  0  0  0  0  0  0  0  0  0  0  0
  182.3620  177.5750  140.1990 C   0  0  0  0  0  3  0  0  0  0  0  0
  180.3010  178.0960  142.7520 C   0  0  0  0  0  3  0  0  0  0  0  0
  181.1280  178.7530  143.7960 C   0  0  0  0  0  3  0  0  0  0  0  0
  182.2400  179.2360  143.3180 N   0  0  0  0  0  0  0  0  0  0  0  0
  181.1030  177.4680  140.5180 N   0  0  0  0  0  0  0  0  0  0  0  0
  182.1510  178.9840  141.9300 C   0  0  0  0  0  0  0  0  0  0  0  0
  190.4600  177.0150  146.1060 C   0  0  0  0  0  0  0  0  0  0  0  0
  188.0800  177.0750  143.5830 N   0  0  0  0  0  2  0  0  0  0  0  0
  189.3280  176.6120  145.5890 O   0  0  0  0  0  0  0  0  0  0  0  0
  191.0460  177.9350  145.2640 C   0  0  0  0  0  3  0  0  0  0  0  0
  190.2290  178.0890  144.2010 N   0  0  0  0  0  0  0  0  0  0  0  0
  189.1960  177.2600  144.4590 C   0  0  0  0  0  0  0  0  0  0  0  0
  191.0130  176.5400  147.4010 C   0  0  0  0  0  1  0  0  0  0  0  0
  1  7  2  0  0  0  0
  2  5  1  0  0  0  0
  3 11  1  0  0  0  0
  4  6  2  0  0  0  0
  5  7  1  0  0  0  0
  5  6  1  6  0  0  0
  7 24  1  0  0  0  0
  8 14  1  0  0  0  0
  8 12  1  0  0  0  0
  9  2  2  0  0  0  0
  9  4  1  0  0  0  0
 10  2  1  0  0  0  0
 10  1  1  0  0  0  0
 11  1  1  0  0  0  0
 12  3  1  0  0  0  0
 13 14  2  0  0  0  0
 14 10  1  0  0  0  0
 15 22  1  0  0  0  0
 15 18  1  0  0  0  0
 16  4  1  0  0  0  0
 16 22  1  0  0  0  0
 17 21  1  0  0  0  0
 17 16  2  0  0  0  0
 18 19  2  0  0  0  0
 20 19  1  0  0  0  0
 21 15  2  0  0  0  0
 22 20  2  0  0  0  0
 23 29  1  0  0  0  0
 24 28  1  0  0  0  0
 25 23  1  0  0  0  0
 26 23  2  0  0  0  0
 27 28  2  0  0  0  0
 27 26  1  0  0  0  0
 28 25  1  0  0  0  0
M  END
>  <MODEL>
5

>  <REMARK>
 VINA RESULT:      -8.7      1.624      2.159
  Name = 
  2 active torsions:
  status: ('A' for Active; 'I' for Inactive)
    1  A    between atoms: C_3  and  C_6
    2  A    between atoms: C_10  and  N_15
                            x       y       z     vdW  Elec       q    Type
                         _______ _______ _______ _____ _____    ______ ____

>  <TORSDO>
F 2

$$$$
=
 OpenBabel10232412303D

 29 34  0  0  1  0  0  0  0  0999 V2000
  188.4920  177.6210  144.3930 C   0  0  0  0  0  0  0  0  0  0  0  0
  190.1030  178.1490  143.0650 C   0  0  0  0  0  0  0  0  0  0  0  0
  188.1760  177.3780  146.7360 O   0  0  0  0  0  0  0  0  0  0  0  0
  190.7390  177.7050  141.0420 C   0  0  0  0  0  0  0  0  0  0  0  0
  188.9720  178.3150  142.3460 C   0  0  1  0  0  3  0  0  0  0  0  0
  189.2610  177.9990  140.9240 C   0  0  0  0  0  3  0  0  0  0  0  0
  187.9240  177.9540  143.1710 C   0  0  0  0  0  0  0  0  0  0  0  0
  190.5540  177.2350  146.7430 C   0  0  0  0  0  2  0  0  0  0  0  0
  191.1990  177.7610  142.2570 N   0  0  0  0  0  0  0  0  0  0  0  0
  189.8470  177.7170  144.3180 N   0  0  0  0  0  0  0  0  0  0  0  0
  187.7540  176.9130  145.4890 C   0  0  0  0  0  2  0  0  0  0  0  0
  189.2450  176.5480  147.0900 C   0  0  0  0  0  2  0  0  0  0  0  0
  191.9630  176.8830  144.8700 O   0  0  0  0  0  0  0  0  0  0  0  0
  190.8200  177.2350  145.2670 C   0  0  0  0  0  0  0  0  0  0  0  0
  192.3140  176.1960  138.1640 C   0  0  0  0  0  0  0  0  0  0  0  0
  191.5780  177.3230  139.8980 C   0  0  0  0  0  0  0  0  0  0  0  0
  193.0550  177.2290  139.9020 C   0  0  0  0  0  3  0  0  0  0  0  0
  192.0020  175.0150  137.6590 C   0  0  0  0  0  3  0  0  0  0  0  0
  190.5390  174.8930  137.8850 C   0  0  0  0  0  3  0  0  0  0  0  0
  190.0610  175.8790  138.5900 N   0  0  0  0  0  0  0  0  0  0  0  0
  193.4880  176.5390  138.8830 N   0  0  0  0  0  0  0  0  0  0  0  0
  191.1760  176.7270  138.7870 C   0  0  0  0  0  0  0  0  0  0  0  0
  183.3880  178.7950  143.3780 C   0  0  0  0  0  0  0  0  0  0  0  0
  186.5910  177.6140  142.7690 N   0  0  0  0  0  2  0  0  0  0  0  0
  184.2230  178.0410  142.7120 O   0  0  0  0  0  0  0  0  0  0  0  0
  184.0770  179.5080  144.3350 C   0  0  0  0  0  3  0  0  0  0  0  0
  185.3780  179.1650  144.2350 N   0  0  0  0  0  0  0  0  0  0  0  0
  185.4060  178.2720  143.2250 C   0  0  0  0  0  0  0  0  0  0  0  0
  181.9240  178.8580  143.1290 C   0  0  0  0  0  1  0  0  0  0  0  0
  1 11  1  0  0  0  0
  2 10  1  0  0  0  0
  3 12  1  0  0  0  0
  4  9  1  0  0  0  0
  5  6  1  6  0  0  0
  5  2  1  0  0  0  0
  5  7  1  0  0  0  0
  6  4  2  0  0  0  0
  7  1  2  0  0  0  0
  8 12  1  0  0  0  0
  9  2  2  0  0  0  0
 10  1  1  0  0  0  0
 10 14  1  0  0  0  0
 11  3  1  0  0  0  0
 13 14  2  0  0  0  0
 14  8  1  0  0  0  0
 15 22  1  0  0  0  0
 15 21  1  0  0  0  0
 16 17  1  0  0  0  0
 16  4  1  0  0  0  0
 18 19  1  0  0  0  0
 18 15  2  0  0  0  0
 19 20  2  0  0  0  0
 20 22  1  0  0  0  0
 21 17  2  0  0  0  0
 22 16  2  0  0  0  0
 23 26  2  0  0  0  0
 24  7  1  0  0  0  0
 24 28  1  0  0  0  0
 25 28  1  0  0  0  0
 25 23  1  0  0  0  0
 27 26  1  0  0  0  0
 28 27  2  0  0  0  0
 29 23  1  0  0  0  0
M  END
>  <MODEL>
6

>  <REMARK>
 VINA RESULT:      -8.5      2.378      7.794
  Name = 
  2 active torsions:
  status: ('A' for Active; 'I' for Inactive)
    1  A    between atoms: C_3  and  C_6
    2  A    between atoms: C_10  and  N_15
                            x       y       z     vdW  Elec       q    Type
                         _______ _______ _______ _____ _____    ______ ____

>  <TORSDO>
F 2

$$$$
=
 OpenBabel10232412303D

 29 34  0  0  0  0  0  0  0  0999 V2000
  188.2120  177.8650  140.1700 C   0  0  0  0  0  0  0  0  0  0  0  0
  188.6940  176.9140  142.0410 C   0  0  0  0  0  0  0  0  0  0  0  0
  188.9380  177.7320  137.9110 O   0  0  0  0  0  0  0  0  0  0  0  0
  188.6910  177.4080  144.1510 C   0  0  0  0  0  0  0  0  0  0  0  0
  187.4780  177.4730  142.2220 C   0  0  0  0  0  0  0  0  0  0  0  0
  187.3570  177.8990  143.6390 C   0  0  0  0  0  3  0  0  0  0  0  0
  187.1590  178.1140  141.0410 C   0  0  0  0  0  0  0  0  0  0  0  0
  190.8460  176.6980  138.8960 C   0  0  0  0  0  2  0  0  0  0  0  0
  189.4520  176.8820  143.2360 N   0  0  0  0  0  2  0  0  0  0  0  0
  189.1760  177.1420  140.8000 N   0  0  0  0  0  0  0  0  0  0  0  0
  188.4110  178.5930  138.8750 C   0  0  0  0  0  2  0  0  0  0  0  0
  190.3260  177.8430  138.0440 C   0  0  0  0  0  2  0  0  0  0  0  0
  191.4420  176.7070  141.1890 O   0  0  0  0  0  0  0  0  0  0  0  0
  190.5190  176.8790  140.3480 C   0  0  0  0  0  0  0  0  0  0  0  0
  190.2850  177.2880  147.3880 C   0  0  0  0  0  0  0  0  0  0  0  0
  189.1270  177.5650  145.5450 C   0  0  0  0  0  0  0  0  0  0  0  0
  188.2470  177.5250  146.7360 C   0  0  0  0  0  3  0  0  0  0  0  0
  191.2110  176.4160  147.7480 C   0  0  0  0  0  3  0  0  0  0  0  0
  191.9820  176.1630  146.5030 C   0  0  0  0  0  3  0  0  0  0  0  0
  191.4550  176.7500  145.4650 N   0  0  0  0  0  0  0  0  0  0  0  0
  188.9370  177.3370  147.8260 N   0  0  0  0  0  0  0  0  0  0  0  0
  190.3650  177.4740  146.0010 C   0  0  0  0  0  0  0  0  0  0  0  0
  183.2360  179.5110  139.0440 C   0  0  0  0  0  0  0  0  0  0  0  0
  186.1700  179.1340  140.8550 N   0  0  0  0  0  2  0  0  0  0  0  0
  184.0740  179.9130  139.9640 O   0  0  0  0  0  0  0  0  0  0  0  0
  183.7050  178.3480  138.4740 C   0  0  0  0  0  3  0  0  0  0  0  0
  184.8720  178.0430  139.0800 N   0  0  0  0  0  0  0  0  0  0  0  0
  185.0410  179.0310  139.9830 C   0  0  0  0  0  0  0  0  0  0  0  0
  181.9780  180.2150  138.6810 C   0  0  0  0  0  1  0  0  0  0  0  0
  1 10  1  0  0  0  0
  1  7  2  0  0  0  0
  2  5  2  0  0  0  0
  2  9  1  0  0  0  0
  3 12  1  0  0  0  0
  3 11  1  0  0  0  0
  4 16  1  0  0  0  0
  5  6  1  0  0  0  0
  6  4  2  0  0  0  0
  7  5  1  0  0  0  0
  8 14  1  0  0  0  0
  9  4  1  0  0  0  0
 10  2  1  0  0  0  0
 11  1  1  0  0  0  0
 12  8  1  0  0  0  0
 14 10  1  0  0  0  0
 14 13  2  0  0  0  0
 15 18  2  0  0  0  0
 15 21  1  0  0  0  0
 16 22  2  0  0  0  0
 16 17  1  0  0  0  0
 17 21  2  0  0  0  0
 19 18  1  0  0  0  0
 20 22  1  0  0  0  0
 20 19  2  0  0  0  0
 22 15  1  0  0  0  0
 23 25  1  0  0  0  0
 24  7  1  0  0  0  0
 25 28  1  0  0  0  0
 26 23  2  0  0  0  0
 26 27  1  0  0  0  0
 27 28  2  0  0  0  0
 28 24  1  0  0  0  0
 29 23  1  0  0  0  0
M  END
>  <MODEL>
7

>  <REMARK>
 VINA RESULT:      -8.4      2.261      6.461
  Name = 
  2 active torsions:
  status: ('A' for Active; 'I' for Inactive)
    1  A    between atoms: C_3  and  C_6
    2  A    between atoms: C_10  and  N_15
                            x       y       z     vdW  Elec       q    Type
                         _______ _______ _______ _____ _____    ______ ____

>  <TORSDO>
F 2

$$$$
=
 OpenBabel10232412303D

 29 34  0  0  1  0  0  0  0  0999 V2000
  186.9100  177.9320  145.5720 C   0  0  0  0  0  0  0  0  0  0  0  0
  187.3910  177.1830  143.6110 C   0  0  0  0  0  0  0  0  0  0  0  0
  184.9440  178.4030  146.8220 O   0  0  0  0  0  0  0  0  0  0  0  0
  188.9680  177.4020  142.1420 C   0  0  0  0  0  0  0  0  0  0  0  0
  188.5150  177.0280  144.3440 C   0  0  1  0  0  3  0  0  0  0  0  0
  189.6910  177.1960  143.4530 C   0  0  0  0  0  3  0  0  0  0  0  0
  188.2390  177.5290  145.6020 C   0  0  0  0  0  0  0  0  0  0  0  0
  183.9280  178.3880  144.6670 C   0  0  0  0  0  2  0  0  0  0  0  0
  187.6710  177.4240  142.2450 N   0  0  0  0  0  0  0  0  0  0  0  0
  186.3930  177.7410  144.3290 N   0  0  0  0  0  0  0  0  0  0  0  0
  186.2740  178.7810  146.6310 C   0  0  0  0  0  2  0  0  0  0  0  0
  184.2110  179.1880  145.9270 C   0  0  0  0  0  2  0  0  0  0  0  0
  185.0330  178.4790  142.5730 O   0  0  0  0  0  0  0  0  0  0  0  0
  185.1460  178.2390  143.8050 C   0  0  0  0  0  0  0  0  0  0  0  0
  189.9820  177.8930  138.7110 C   0  0  0  0  0  0  0  0  0  0  0  0
  189.6620  177.6240  140.8660 C   0  0  0  0  0  0  0  0  0  0  0  0
  190.8780  176.9150  140.4070 C   0  0  0  0  0  3  0  0  0  0  0  0
  189.2020  177.7300  137.6570 C   0  0  0  0  0  3  0  0  0  0  0  0
  187.8560  178.1500  138.1270 C   0  0  0  0  0  3  0  0  0  0  0  0
  187.8360  178.4130  139.4030 N   0  0  0  0  0  0  0  0  0  0  0  0
  191.0520  177.0570  139.1230 N   0  0  0  0  0  0  0  0  0  0  0  0
  189.1820  178.2520  139.8050 C   0  0  0  0  0  0  0  0  0  0  0  0
  191.9820  176.5270  148.1140 C   0  0  0  0  0  0  0  0  0  0  0  0
  189.1890  177.9190  146.6000 N   0  0  0  0  0  2  0  0  0  0  0  0
  191.2000  177.5460  147.8700 O   0  0  0  0  0  0  0  0  0  0  0  0
  191.5020  175.4130  147.4580 C   0  0  0  0  0  3  0  0  0  0  0  0
  190.3870  175.7850  146.7950 N   0  0  0  0  0  0  0  0  0  0  0  0
  190.2570  177.0970  147.0790 C   0  0  0  0  0  0  0  0  0  0  0  0
  193.1950  176.5790  148.9710 C   0  0  0  0  0  1  0  0  0  0  0  0
  1  7  2  0  0  0  0
  1 11  1  0  0  0  0
  2 10  1  0  0  0  0
  2  5  1  0  0  0  0
  4  9  1  0  0  0  0
  4  6  2  0  0  0  0
  5  6  1  6  0  0  0
  5  7  1  0  0  0  0
  7 24  1  0  0  0  0
  8 12  1  0  0  0  0
  9  2  2  0  0  0  0
 10  1  1  0  0  0  0
 11  3  1  0  0  0  0
 12  3  1  0  0  0  0
 13 14  2  0  0  0  0
 14 10  1  0  0  0  0
 14  8  1  0  0  0  0
 15 21  1  0  0  0  0
 15 22  1  0  0  0  0
 16  4  1  0  0  0  0
 17 16  1  0  0  0  0
 18 19  1  0  0  0  0
 18 15  2  0  0  0  0
 19 20  2  0  0  0  0
 20 22  1  0  0  0  0
 21 17  2  0  0  0  0
 22 16  2  0  0  0  0
 23 29  1  0  0  0  0
 24 28  1  0  0  0  0
 25 23  1  0  0  0  0
 26 23  2  0  0  0  0
 27 28  2  0  0  0  0
 27 26  1  0  0  0  0
 28 25  1  0  0  0  0
M  END
>  <MODEL>
8

>  <REMARK>
 VINA RESULT:      -8.2      2.577      6.304
  Name = 
  2 active torsions:
  status: ('A' for Active; 'I' for Inactive)
    1  A    between atoms: C_3  and  C_6
    2  A    between atoms: C_10  and  N_15
                            x       y       z     vdW  Elec       q    Type
                         _______ _______ _______ _____ _____    ______ ____

>  <TORSDO>
F 2

$$$$
=
 OpenBabel10232412303D

 29 34  0  0  0  0  0  0  0  0999 V2000
  184.0350  178.6790  141.0260 C   0  0  0  0  0  0  0  0  0  0  0  0
  185.2920  178.9570  142.7530 C   0  0  0  0  0  0  0  0  0  0  0  0
  181.7690  179.0900  140.4380 O   0  0  0  0  0  0  0  0  0  0  0  0
  187.0190  178.0150  143.6610 C   0  0  0  0  0  0  0  0  0  0  0  0
  186.1370  178.8000  141.7110 C   0  0  0  0  0  0  0  0  0  0  0  0
  187.3650  178.1190  142.1930 C   0  0  0  0  0  3  0  0  0  0  0  0
  185.3520  178.5920  140.5940 C   0  0  0  0  0  0  0  0  0  0  0  0
  181.4830  179.1870  142.8020 C   0  0  0  0  0  2  0  0  0  0  0  0
  185.8350  178.4620  143.9620 N   0  0  0  0  0  2  0  0  0  0  0  0
  183.9990  178.8810  142.3710 N   0  0  0  0  0  0  0  0  0  0  0  0
  182.8580  178.2490  140.2040 C   0  0  0  0  0  2  0  0  0  0  0  0
  181.0810  178.5050  141.5060 C   0  0  0  0  0  2  0  0  0  0  0  0
  183.0170  178.4500  144.4510 O   0  0  0  0  0  0  0  0  0  0  0  0
  182.8590  178.7890  143.2480 C   0  0  0  0  0  0  0  0  0  0  0  0
  188.9080  177.0250  146.5740 C   0  0  0  0  0  0  0  0  0  0  0  0
  187.9090  177.4040  144.6570 C   0  0  0  0  0  0  0  0  0  0  0  0
  189.3490  177.1150  144.4690 C   0  0  0  0  0  3  0  0  0  0  0  0
  188.9470  177.6890  147.7170 C   0  0  0  0  0  3  0  0  0  0  0  0
  187.5900  178.2780  147.8460 C   0  0  0  0  0  3  0  0  0  0  0  0
  186.8580  178.0770  146.7870 N   0  0  0  0  0  0  0  0  0  0  0  0
  189.9440  176.9140  145.6120 N   0  0  0  0  0  0  0  0  0  0  0  0
  187.6780  177.2810  145.9540 C   0  0  0  0  0  0  0  0  0  0  0  0
  188.7360  177.6600  137.5930 C   0  0  0  0  0  0  0  0  0  0  0  0
  185.7650  178.0230  139.3460 N   0  0  0  0  0  2  0  0  0  0  0  0
  187.4710  177.3820  137.7720 O   0  0  0  0  0  0  0  0  0  0  0  0
  189.1570  178.5350  138.5710 C   0  0  0  0  0  3  0  0  0  0  0  0
  188.0980  178.7880  139.3690 N   0  0  0  0  0  0  0  0  0  0  0  0
  187.1010  178.0530  138.8340 C   0  0  0  0  0  0  0  0  0  0  0  0
  189.5740  177.1100  136.4950 C   0  0  0  0  0  1  0  0  0  0  0  0
  1 10  1  0  0  0  0
  2  9  1  0  0  0  0
  3 12  1  0  0  0  0
  4  9  1  0  0  0  0
  4 16  1  0  0  0  0
  5  6  1  0  0  0  0
  5  2  2  0  0  0  0
  6  4  2  0  0  0  0
  7  1  2  0  0  0  0
  7  5  1  0  0  0  0
  8 14  1  0  0  0  0
 10  2  1  0  0  0  0
 10 14  1  0  0  0  0
 11  3  1  0  0  0  0
 11  1  1  0  0  0  0
 12  8  1  0  0  0  0
 14 13  2  0  0  0  0
 15 18  1  0  0  0  0
 16 22  1  0  0  0  0
 17 16  2  0  0  0  0
 17 21  1  0  0  0  0
 18 19  2  0  0  0  0
 20 19  1  0  0  0  0
 21 15  2  0  0  0  0
 22 15  1  0  0  0  0
 22 20  2  0  0  0  0
 23 25  1  0  0  0  0
 23 26  2  0  0  0  0
 24  7  1  0  0  0  0
 25 28  1  0  0  0  0
 26 27  1  0  0  0  0
 28 24  1  0  0  0  0
 28 27  2  0  0  0  0
 29 23  1  0  0  0  0
M  END
>  <MODEL>
9

>  <REMARK>
 VINA RESULT:      -8.1      2.663      6.596
  Name = 
  2 active torsions:
  status: ('A' for Active; 'I' for Inactive)
    1  A    between atoms: C_3  and  C_6
    2  A    between atoms: C_10  and  N_15
                            x       y       z     vdW  Elec       q    Type
                         _______ _______ _______ _____ _____    ______ ____

>  <TORSDO>
F 2

$$$$
