=
 OpenBabel10232412053D

 42 49  0  0  1  0  0  0  0  0999 V2000
  190.2570  177.6830  141.4890 C   0  0  0  0  0  0  0  0  0  0  0  0
  188.0430  178.6010  141.7140 C   0  0  0  0  0  3  0  0  0  0  0  0
  189.3200  178.4020  142.2130 C   0  0  0  0  0  3  0  0  0  0  0  0
  186.3710  177.8280  137.5550 C   0  0  1  0  0  3  0  0  0  0  0  0
  186.7790  175.6530  136.9750 C   0  0  0  0  0  0  0  0  0  0  0  0
  184.6380  175.4230  135.3920 C   0  0  1  0  0  3  0  0  0  0  0  0
  185.7260  178.3390  138.7770 C   0  0  0  0  0  0  0  0  0  0  0  0
  190.9100  176.4110  139.4060 C   0  0  0  0  0  1  0  0  0  0  0  0
  187.3780  174.5510  136.8460 O   0  0  0  0  0  0  0  0  0  0  0  0
  184.5420  178.9340  138.8220 C   0  0  0  0  0  3  0  0  0  0  0  0
  185.7070  176.1940  136.1490 C   0  0  1  0  0  0  0  0  0  0  0  0
  187.1020  176.6310  137.9160 N   0  0  0  0  0  0  0  0  0  0  0  0
  187.6270  178.1020  140.4730 C   0  0  0  0  0  0  0  0  0  0  0  0
  188.5800  177.3150  139.7190 C   0  0  0  0  0  0  0  0  0  0  0  0
  186.3610  178.4360  140.0890 C   0  0  1  0  0  3  0  0  0  0  0  0
  185.3450  179.4830  142.3140 C   0  0  0  0  0  1  0  0  0  0  0  0
  185.3180  179.1480  140.8610 C   0  0  0  0  0  0  0  0  0  0  0  0
  185.4110  177.5110  136.5400 O   0  0  0  0  0  0  0  0  0  0  0  0
  188.3080  176.6500  138.6250 N   0  0  0  0  0  2  0  0  0  0  0  0
  185.8470  176.0150  134.6580 C   0  0  0  0  0  2  0  0  0  0  0  0
  184.2830  179.4170  140.1350 N   0  0  0  0  0  0  0  0  0  0  0  0
  189.8970  177.1490  140.2310 C   0  0  0  0  0  0  0  0  0  0  0  0
  183.7500  171.2280  135.7760 N   0  0  1  0  0  0  0  0  0  0  0  0
  184.2140  173.4590  136.8750 C   0  0  0  0  0  2  0  0  0  0  0  0
  183.1380  172.1270  134.7940 C   0  0  0  0  0  2  0  0  0  0  0  0
  184.7900  173.9160  135.5350 C   0  0  1  0  0  3  0  0  0  0  0  0
  184.2850  171.9320  136.9770 C   0  0  1  0  0  3  0  0  0  0  0  0
  184.1250  173.2070  134.3490 C   0  0  0  0  0  2  0  0  0  0  0  0
  182.9450  171.3550  137.0000 C   0  0  0  0  0  2  0  0  0  0  0  0
  191.5580  177.5290  142.0800 N   0  0  0  0  0  2  0  0  0  0  0  0
  191.8390  177.7420  143.4390 N   0  0  0  0  0  2  0  0  0  0  0  0
  191.7530  176.4520  144.1040 C   0  0  0  0  0  2  0  0  0  0  0  0
  191.2480  176.6430  145.4890 C   0  0  0  0  0  0  0  0  0  0  0  0
  189.8730  176.9600  145.7040 N   0  0  0  0  0  2  0  0  0  0  0  0
  192.0300  176.4900  146.4650 O   0  0  0  0  0  0  0  0  0  0  0  0
  189.3320  177.0400  146.9960 N   0  0  0  0  0  2  0  0  0  0  0  0
  186.1150  178.0590  145.3170 C   0  0  0  0  0  2  0  0  0  0  0  0
  187.4450  178.3650  147.7960 C   0  0  0  0  0  2  0  0  0  0  0  0
  187.5740  177.6120  145.4030 C   0  0  0  0  0  2  0  0  0  0  0  0
  187.9010  177.2550  146.8520 C   0  0  0  0  0  3  0  0  0  0  0  0
  185.9970  178.7310  147.4700 C   0  0  0  0  0  2  0  0  0  0  0  0
  185.9070  179.1820  146.1400 O   0  0  0  0  0  0  0  0  0  0  0  0
  1 30  1  0  0  0  0
  1  3  1  0  0  0  0
  2  3  2  0  0  0  0
  4 18  1  6  0  0  0
  4 12  1  0  0  0  0
  4  7  1  0  0  0  0
  5 12  1  0  0  0  0
  6 20  1  6  0  0  0
  6 26  1  0  0  0  0
  6 11  1  0  0  0  0
  7 10  2  0  0  0  0
  8 22  1  0  0  0  0
  9  5  2  0  0  0  0
 10 21  1  0  0  0  0
 11 20  1  6  0  0  0
 11 18  1  0  0  0  0
 11  5  1  0  0  0  0
 12 19  1  0  0  0  0
 13  2  1  0  0  0  0
 14 22  1  0  0  0  0
 14 13  2  0  0  0  0
 15  7  1  6  0  0  0
 15 13  1  0  0  0  0
 15 17  1  0  0  0  0
 17 16  1  0  0  0  0
 19 14  1  0  0  0  0
 21 17  2  0  0  0  0
 22  1  2  0  0  0  0
 23 25  1  6  0  0  0
 23 27  1  0  0  0  0
 23 29  1  0  0  0  0
 26 28  1  6  0  0  0
 26 24  1  0  0  0  0
 27 24  1  6  0  0  0
 27 29  1  0  0  0  0
 28 25  1  0  0  0  0
 30 31  1  0  0  0  0
 31 32  1  0  0  0  0
 32 33  1  0  0  0  0
 33 34  1  0  0  0  0
 33 35  2  0  0  0  0
 34 36  1  0  0  0  0
 37 39  1  0  0  0  0
 37 42  1  0  0  0  0
 39 40  1  0  0  0  0
 40 36  1  0  0  0  0
 40 38  1  0  0  0  0
 41 38  1  0  0  0  0
 42 41  1  0  0  0  0
M  END
>  <MODEL>
1

>  <REMARK>
 VINA RESULT:      -9.1      0.000      0.000
  Name = 
  7 active torsions:
  status: ('A' for Active; 'I' for Inactive)
    1  A    between atoms: N_5  and  N_15
    2  A    between atoms: N_5  and  C_25
    3  A    between atoms: C_6  and  C_20
    4  A    between atoms: C_7  and  N_22
    5  A    between atoms: C_11  and  C_14
    6  A    between atoms: C_14  and  N_35
    7  A    between atoms: N_22  and  N_35
                            x       y       z     vdW  Elec       q    Type
                         _______ _______ _______ _____ _____    ______ ____

>  <TORSDO>
F 7

$$$$
=
 OpenBabel10232412053D

 42 49  0  0  1  0  0  0  0  0999 V2000
  190.8660  177.6960  140.4400 C   0  0  0  0  0  0  0  0  0  0  0  0
  189.5640  177.4710  142.4520 C   0  0  0  0  0  3  0  0  0  0  0  0
  190.7780  177.4000  141.7910 C   0  0  0  0  0  3  0  0  0  0  0  0
  185.5900  179.2240  141.0990 C   0  0  1  0  0  3  0  0  0  0  0  0
  184.9960  178.2790  139.1020 C   0  0  0  0  0  0  0  0  0  0  0  0
  182.3640  178.5210  139.5010 C   0  0  1  0  0  3  0  0  0  0  0  0
  185.9720  178.5450  142.3500 C   0  0  0  0  0  0  0  0  0  0  0  0
  189.7770  178.4450  138.2880 C   0  0  0  0  0  1  0  0  0  0  0  0
  185.0890  177.8130  137.9350 O   0  0  0  0  0  0  0  0  0  0  0  0
  185.2570  178.5460  143.4660 C   0  0  0  0  0  2  0  0  0  0  0  0
  183.8240  178.8640  139.7440 C   0  0  1  0  0  0  0  0  0  0  0  0
  186.0570  178.4050  139.9990 N   0  0  0  0  0  0  0  0  0  0  0  0
  188.3720  177.8390  141.8140 C   0  0  0  0  0  0  0  0  0  0  0  0
  188.4370  178.1150  140.3950 C   0  0  0  0  0  0  0  0  0  0  0  0
  187.2700  177.9270  142.6130 C   0  0  0  0  0  0  0  0  0  0  0  0
  188.1130  176.8190  144.8800 C   0  0  0  0  0  1  0  0  0  0  0  0
  187.1290  177.5610  144.0400 C   0  0  0  0  0  0  0  0  0  0  0  0
  184.1720  179.3940  140.9980 O   0  0  0  0  0  0  0  0  0  0  0  0
  187.4000  178.3170  139.6200 N   0  0  0  0  0  2  0  0  0  0  0  0
  182.9830  179.7890  138.9000 C   0  0  0  0  0  2  0  0  0  0  0  0
  185.9780  177.9070  144.5130 N   0  0  0  0  0  0  0  0  0  0  0  0
  189.6980  178.0700  139.7390 C   0  0  0  0  0  0  0  0  0  0  0  0
  180.7360  175.3110  137.1370 N   0  0  1  0  0  0  0  0  0  0  0  0
  182.1980  176.0690  139.0580 C   0  0  0  0  0  2  0  0  0  0  0  0
  179.9860  176.4900  137.5780 C   0  0  0  0  0  2  0  0  0  0  0  0
  182.1820  177.4600  138.4250 C   0  0  1  0  0  3  0  0  0  0  0  0
  181.9240  175.0080  137.9870 C   0  0  1  0  0  3  0  0  0  0  0  0
  180.8900  177.7230  137.6420 C   0  0  0  0  0  2  0  0  0  0  0  0
  180.6510  174.3410  138.2390 C   0  0  0  0  0  2  0  0  0  0  0  0
  192.1660  177.6000  139.8360 N   0  0  0  0  0  2  0  0  0  0  0  0
  192.7410  176.4040  139.3810 N   0  0  0  0  0  2  0  0  0  0  0  0
  192.7230  176.4440  137.9270 C   0  0  0  0  0  2  0  0  0  0  0  0
  192.1910  175.1590  137.4030 C   0  0  0  0  0  0  0  0  0  0  0  0
  190.9330  174.6700  137.8710 N   0  0  0  0  0  2  0  0  0  0  0  0
  192.8360  174.5270  136.5250 O   0  0  0  0  0  0  0  0  0  0  0  0
  190.3430  173.5210  137.3250 N   0  0  0  0  0  2  0  0  0  0  0  0
  187.2190  175.5500  136.7550 C   0  0  0  0  0  2  0  0  0  0  0  0
  188.0520  172.8460  136.8250 C   0  0  0  0  0  2  0  0  0  0  0  0
  188.6230  175.2490  137.2810 C   0  0  0  0  0  2  0  0  0  0  0  0
  189.1110  173.9360  136.6740 C   0  0  0  0  0  3  0  0  0  0  0  0
  186.7080  173.3900  136.3390 C   0  0  0  0  0  2  0  0  0  0  0  0
  186.3400  174.5090  137.1080 O   0  0  0  0  0  0  0  0  0  0  0  0
  1  3  1  0  0  0  0
  3  2  2  0  0  0  0
  4 18  1  6  0  0  0
  4  7  1  0  0  0  0
  5 11  1  0  0  0  0
  5 12  1  0  0  0  0
  6 20  1  6  0  0  0
  6 11  1  0  0  0  0
  7 15  2  0  0  0  0
  7 10  1  0  0  0  0
  8 22  1  0  0  0  0
  9  5  2  0  0  0  0
 10 21  1  0  0  0  0
 11 20  1  6  0  0  0
 11 18  1  0  0  0  0
 12  4  1  0  0  0  0
 13  2  1  0  0  0  0
 13 15  1  0  0  0  0
 14 13  2  0  0  0  0
 15 17  1  0  0  0  0
 17 21  2  0  0  0  0
 17 16  1  0  0  0  0
 19 12  1  0  0  0  0
 19 14  1  0  0  0  0
 22 14  1  0  0  0  0
 22  1  2  0  0  0  0
 23 25  1  1  0  0  0
 23 27  1  0  0  0  0
 23 29  1  0  0  0  0
 25 28  1  0  0  0  0
 26 28  1  1  0  0  0
 26 24  1  0  0  0  0
 26  6  1  0  0  0  0
 27 29  1  1  0  0  0
 27 24  1  0  0  0  0
 30  1  1  0  0  0  0
 31 30  1  0  0  0  0
 32 31  1  0  0  0  0
 33 34  1  0  0  0  0
 33 32  1  0  0  0  0
 35 33  2  0  0  0  0
 36 34  1  0  0  0  0
 37 42  1  0  0  0  0
 37 39  1  0  0  0  0
 40 38  1  0  0  0  0
 40 39  1  0  0  0  0
 40 36  1  0  0  0  0
 41 38  1  0  0  0  0
 41 42  1  0  0  0  0
M  END
>  <MODEL>
2

>  <REMARK>
 VINA RESULT:      -8.2      3.002      6.121
  Name = 
  7 active torsions:
  status: ('A' for Active; 'I' for Inactive)
    1  A    between atoms: N_5  and  N_15
    2  A    between atoms: N_5  and  C_25
    3  A    between atoms: C_6  and  C_20
    4  A    between atoms: C_7  and  N_22
    5  A    between atoms: C_11  and  C_14
    6  A    between atoms: C_14  and  N_35
    7  A    between atoms: N_22  and  N_35
                            x       y       z     vdW  Elec       q    Type
                         _______ _______ _______ _____ _____    ______ ____

>  <TORSDO>
F 7

$$$$
=
 OpenBabel10232412053D

 42 49  0  0  1  0  0  0  0  0999 V2000
  183.9270  178.9870  144.4350 C   0  0  0  0  0  0  0  0  0  0  0  0
  182.2590  178.5840  142.7460 C   0  0  0  0  0  3  0  0  0  0  0  0
  182.6080  178.7630  144.0740 C   0  0  0  0  0  3  0  0  0  0  0  0
  184.6940  179.2550  138.9630 C   0  0  1  0  0  3  0  0  0  0  0  0
  186.6480  178.0740  139.1100 C   0  0  0  0  0  0  0  0  0  0  0  0
  186.9020  177.7080  136.4750 C   0  0  1  0  0  3  0  0  0  0  0  0
  183.3170  178.7660  139.1530 C   0  0  0  0  0  0  0  0  0  0  0  0
  186.3470  179.3200  143.7900 C   0  0  0  0  0  1  0  0  0  0  0  0
  187.6980  177.5720  139.5940 O   0  0  0  0  0  0  0  0  0  0  0  0
  182.4060  178.6660  138.1960 C   0  0  0  0  0  3  0  0  0  0  0  0
  186.3700  178.4020  137.7170 C   0  0  1  0  0  0  0  0  0  0  0  0
  185.5510  178.5040  139.8570 N   0  0  0  0  0  0  0  0  0  0  0  0
  183.1950  178.6180  141.7040 C   0  0  0  0  0  0  0  0  0  0  0  0
  184.5830  178.8130  142.0650 C   0  0  0  0  0  0  0  0  0  0  0  0
  182.6900  178.4910  140.4430 C   0  0  1  0  0  3  0  0  0  0  0  0
  180.1740  177.7590  140.9050 C   0  0  0  0  0  1  0  0  0  0  0  0
  181.3010  178.1920  140.0290 C   0  0  0  0  0  0  0  0  0  0  0  0
  185.1400  179.0770  137.6130 O   0  0  0  0  0  0  0  0  0  0  0  0
  185.5950  178.7150  141.2390 N   0  0  0  0  0  2  0  0  0  0  0  0
  187.4880  179.0470  136.9380 C   0  0  0  0  0  2  0  0  0  0  0  0
  181.1520  178.2830  138.7480 N   0  0  0  0  0  0  0  0  0  0  0  0
  184.9190  179.0280  143.4300 C   0  0  0  0  0  0  0  0  0  0  0  0
  189.3080  174.1510  136.1620 N   0  0  1  0  0  0  0  0  0  0  0  0
  187.1080  175.2370  136.7760 C   0  0  0  0  0  2  0  0  0  0  0  0
  189.2680  175.2260  135.1660 C   0  0  0  0  0  2  0  0  0  0  0  0
  187.8570  176.5690  136.8030 C   0  0  1  0  0  3  0  0  0  0  0  0
  188.0880  174.0850  137.0160 C   0  0  1  0  0  3  0  0  0  0  0  0
  189.0440  176.5830  135.8320 C   0  0  0  0  0  2  0  0  0  0  0  0
  188.1970  173.2470  135.8270 C   0  0  0  0  0  2  0  0  0  0  0  0
  184.1980  179.1660  145.8350 N   0  0  0  0  0  2  0  0  0  0  0  0
  184.9110  178.2510  146.6250 N   0  0  0  0  0  2  0  0  0  0  0  0
  185.9130  179.0070  147.3590 C   0  0  0  0  0  2  0  0  0  0  0  0
  187.1460  178.1900  147.4990 C   0  0  0  0  0  0  0  0  0  0  0  0
  187.7480  177.6130  146.3400 N   0  0  0  0  0  2  0  0  0  0  0  0
  187.6700  178.0380  148.6340 O   0  0  0  0  0  0  0  0  0  0  0  0
  188.9700  176.9280  146.4110 N   0  0  0  0  0  2  0  0  0  0  0  0
  190.5060  178.4620  143.3310 C   0  0  0  0  0  2  0  0  0  0  0  0
  188.5340  176.5590  144.0380 C   0  0  0  0  0  2  0  0  0  0  0  0
  190.0950  178.3730  144.8010 C   0  0  0  0  0  2  0  0  0  0  0  0
  189.5670  176.9700  145.0860 C   0  0  0  0  0  3  0  0  0  0  0  0
  189.1060  176.8270  142.6470 C   0  0  0  0  0  2  0  0  0  0  0  0
  189.3970  178.1970  142.5050 O   0  0  0  0  0  0  0  0  0  0  0  0
  1 30  1  0  0  0  0
  2  3  2  0  0  0  0
  3  1  1  0  0  0  0
  4 18  1  6  0  0  0
  4  7  1  0  0  0  0
  4 12  1  0  0  0  0
  5  9  2  0  0  0  0
  5 12  1  0  0  0  0
  6 26  1  0  0  0  0
  6 20  1  6  0  0  0
  6 11  1  0  0  0  0
 10 21  1  0  0  0  0
 10  7  2  0  0  0  0
 11 20  1  6  0  0  0
 11  5  1  0  0  0  0
 12 19  1  0  0  0  0
 13 14  2  0  0  0  0
 13  2  1  0  0  0  0
 14 22  1  0  0  0  0
 15  7  1  6  0  0  0
 15 13  1  0  0  0  0
 17 15  1  0  0  0  0
 17 16  1  0  0  0  0
 18 11  1  0  0  0  0
 19 14  1  0  0  0  0
 21 17  2  0  0  0  0
 22  8  1  0  0  0  0
 22  1  2  0  0  0  0
 23 25  1  6  0  0  0
 23 27  1  0  0  0  0
 24 26  1  0  0  0  0
 24 27  1  0  0  0  0
 25 28  1  0  0  0  0
 26 28  1  6  0  0  0
 27 29  1  6  0  0  0
 29 23  1  0  0  0  0
 30 31  1  0  0  0  0
 31 32  1  0  0  0  0
 32 33  1  0  0  0  0
 33 35  2  0  0  0  0
 34 36  1  0  0  0  0
 34 33  1  0  0  0  0
 37 39  1  0  0  0  0
 38 40  1  0  0  0  0
 39 40  1  0  0  0  0
 40 36  1  0  0  0  0
 41 38  1  0  0  0  0
 42 41  1  0  0  0  0
 42 37  1  0  0  0  0
M  END
>  <MODEL>
3

>  <REMARK>
 VINA RESULT:      -8.2      2.954      4.916
  Name = 
  7 active torsions:
  status: ('A' for Active; 'I' for Inactive)
    1  A    between atoms: N_5  and  N_15
    2  A    between atoms: N_5  and  C_25
    3  A    between atoms: C_6  and  C_20
    4  A    between atoms: C_7  and  N_22
    5  A    between atoms: C_11  and  C_14
    6  A    between atoms: C_14  and  N_35
    7  A    between atoms: N_22  and  N_35
                            x       y       z     vdW  Elec       q    Type
                         _______ _______ _______ _____ _____    ______ ____

>  <TORSDO>
F 7

$$$$
=
 OpenBabel10232412053D

 42 49  0  0  1  0  0  0  0  0999 V2000
  188.4240  178.4210  140.9640 C   0  0  0  0  0  0  0  0  0  0  0  0
  186.3740  178.5740  142.2160 C   0  0  0  0  0  3  0  0  0  0  0  0
  187.7580  178.5480  142.1720 C   0  0  0  0  0  3  0  0  0  0  0  0
  183.3430  178.9770  138.8480 C   0  0  1  0  0  3  0  0  0  0  0  0
  183.7440  177.3580  137.2820 C   0  0  0  0  0  0  0  0  0  0  0  0
  181.2030  177.1740  136.4760 C   0  0  1  0  0  3  0  0  0  0  0  0
  183.1590  178.8130  140.3000 C   0  0  0  0  0  0  0  0  0  0  0  0
  188.3750  178.2260  138.4460 C   0  0  0  0  0  1  0  0  0  0  0  0
  184.3690  176.5810  136.5110 O   0  0  0  0  0  0  0  0  0  0  0  0
  182.0220  179.0150  140.9510 C   0  0  0  0  0  3  0  0  0  0  0  0
  182.3840  177.8630  137.1370 C   0  0  1  0  0  0  0  0  0  0  0  0
  184.2880  177.9690  138.4120 N   0  0  0  0  0  0  0  0  0  0  0  0
  185.5760  178.4760  141.0690 C   0  0  0  0  0  0  0  0  0  0  0  0
  186.2530  178.3040  139.8010 C   0  0  0  0  0  0  0  0  0  0  0  0
  184.2300  178.5830  141.2660 C   0  0  1  0  0  3  0  0  0  0  0  0
  184.0260  178.4300  143.9150 C   0  0  0  0  0  1  0  0  0  0  0  0
  183.4860  178.6590  142.5440 C   0  0  0  0  0  0  0  0  0  0  0  0
  182.1120  178.8160  138.1340 O   0  0  0  0  0  0  0  0  0  0  0  0
  185.6620  178.0410  138.6630 N   0  0  0  0  0  2  0  0  0  0  0  0
  181.9660  178.2900  135.7520 C   0  0  0  0  0  2  0  0  0  0  0  0
  182.2290  178.8940  142.3540 N   0  0  0  0  0  0  0  0  0  0  0  0
  187.6750  178.3130  139.7710 C   0  0  0  0  0  0  0  0  0  0  0  0
  180.9870  173.0780  135.1660 N   0  0  1  0  0  0  0  0  0  0  0  0
  181.5290  174.7510  136.9850 C   0  0  0  0  0  2  0  0  0  0  0  0
  179.9820  174.1040  134.8760 C   0  0  0  0  0  2  0  0  0  0  0  0
  181.5680  175.8170  135.8910 C   0  0  1  0  0  3  0  0  0  0  0  0
  181.8070  173.3720  136.3770 C   0  0  1  0  0  3  0  0  0  0  0  0
  180.6320  175.4800  134.7240 C   0  0  0  0  0  2  0  0  0  0  0  0
  180.6280  172.5180  136.4790 C   0  0  0  0  0  2  0  0  0  0  0  0
  189.8600  178.4070  141.0110 N   0  0  0  0  0  2  0  0  0  0  0  0
  190.6420  177.2420  140.9830 N   0  0  0  0  0  2  0  0  0  0  0  0
  191.6240  177.3570  142.0490 C   0  0  0  0  0  2  0  0  0  0  0  0
  191.1250  176.6560  143.2600 C   0  0  0  0  0  0  0  0  0  0  0  0
  191.2590  177.2730  144.5410 N   0  0  0  0  0  2  0  0  0  0  0  0
  190.5580  175.5370  143.1460 O   0  0  0  0  0  0  0  0  0  0  0  0
  190.7050  176.6980  145.6940 N   0  0  0  0  0  2  0  0  0  0  0  0
  188.2390  178.2110  148.1090 C   0  0  0  0  0  2  0  0  0  0  0  0
  188.3460  177.2710  145.4420 C   0  0  0  0  0  2  0  0  0  0  0  0
  189.4890  177.4480  147.6720 C   0  0  0  0  0  2  0  0  0  0  0  0
  189.6560  177.5900  146.1610 C   0  0  0  0  0  3  0  0  0  0  0  0
  187.2140  178.0560  146.1030 C   0  0  0  0  0  2  0  0  0  0  0  0
  187.1060  177.6900  147.4570 O   0  0  0  0  0  0  0  0  0  0  0  0
  1 30  1  0  0  0  0
  1  3  1  0  0  0  0
  3  2  2  0  0  0  0
  4 18  1  6  0  0  0
  4  7  1  0  0  0  0
  5 12  1  0  0  0  0
  6 20  1  6  0  0  0
  6 11  1  0  0  0  0
  7 10  2  0  0  0  0
  8 22  1  0  0  0  0
  9  5  2  0  0  0  0
 10 21  1  0  0  0  0
 11 20  1  6  0  0  0
 11  5  1  0  0  0  0
 11 18  1  0  0  0  0
 12 19  1  0  0  0  0
 12  4  1  0  0  0  0
 13 15  1  0  0  0  0
 13  2  1  0  0  0  0
 14 13  2  0  0  0  0
 15  7  1  6  0  0  0
 15 17  1  0  0  0  0
 17 16  1  0  0  0  0
 19 14  1  0  0  0  0
 21 17  2  0  0  0  0
 22 14  1  0  0  0  0
 22  1  2  0  0  0  0
 23 25  1  1  0  0  0
 23 27  1  0  0  0  0
 23 29  1  0  0  0  0
 26 28  1  6  0  0  0
 26  6  1  0  0  0  0
 26 24  1  0  0  0  0
 27 29  1  1  0  0  0
 27 24  1  0  0  0  0
 28 25  1  0  0  0  0
 31 30  1  0  0  0  0
 31 32  1  0  0  0  0
 32 33  1  0  0  0  0
 33 34  1  0  0  0  0
 34 36  1  0  0  0  0
 35 33  2  0  0  0  0
 36 40  1  0  0  0  0
 38 41  1  0  0  0  0
 38 40  1  0  0  0  0
 39 37  1  0  0  0  0
 40 39  1  0  0  0  0
 41 42  1  0  0  0  0
 42 37  1  0  0  0  0
M  END
>  <MODEL>
4

>  <REMARK>
 VINA RESULT:      -8.0      2.345      2.991
  Name = 
  7 active torsions:
  status: ('A' for Active; 'I' for Inactive)
    1  A    between atoms: N_5  and  N_15
    2  A    between atoms: N_5  and  C_25
    3  A    between atoms: C_6  and  C_20
    4  A    between atoms: C_7  and  N_22
    5  A    between atoms: C_11  and  C_14
    6  A    between atoms: C_14  and  N_35
    7  A    between atoms: N_22  and  N_35
                            x       y       z     vdW  Elec       q    Type
                         _______ _______ _______ _____ _____    ______ ____

>  <TORSDO>
F 7

$$$$
=
 OpenBabel10232412053D

 42 49  0  0  1  0  0  0  0  0999 V2000
  183.2210  178.7960  142.3110 C   0  0  0  0  0  0  0  0  0  0  0  0
  182.3650  177.8080  140.2900 C   0  0  0  0  0  3  0  0  0  0  0  0
  182.1730  178.2500  141.5880 C   0  0  0  0  0  3  0  0  0  0  0  0
  185.8960  178.4080  137.4840 C   0  0  1  0  0  3  0  0  0  0  0  0
  187.8070  177.6980  138.5220 C   0  0  0  0  0  0  0  0  0  0  0  0
  189.0600  177.0080  136.2650 C   0  0  1  0  0  3  0  0  0  0  0  0
  184.6310  177.6740  137.3040 C   0  0  0  0  0  0  0  0  0  0  0  0
  185.6340  179.5310  142.4550 C   0  0  0  0  0  1  0  0  0  0  0  0
  188.6670  177.5040  139.4230 O   0  0  0  0  0  0  0  0  0  0  0  0
  184.1580  177.2440  136.1420 C   0  0  0  0  0  3  0  0  0  0  0  0
  188.0150  177.7510  137.0800 C   0  0  1  0  0  0  0  0  0  0  0  0
  186.4630  177.9940  138.7510 N   0  0  0  0  0  0  0  0  0  0  0  0
  183.6030  177.8830  139.6380 C   0  0  0  0  0  0  0  0  0  0  0  0
  184.7190  178.4150  140.3910 C   0  0  0  0  0  0  0  0  0  0  0  0
  183.6200  177.4680  138.3380 C   0  0  1  0  0  3  0  0  0  0  0  0
  181.2430  176.3000  138.0790 C   0  0  0  0  0  1  0  0  0  0  0  0
  182.5380  176.8260  137.5580 C   0  0  0  0  0  0  0  0  0  0  0  0
  186.8260  178.1300  136.4320 O   0  0  0  0  0  0  0  0  0  0  0  0
  185.9660  178.4110  139.9900 N   0  0  0  0  0  2  0  0  0  0  0  0
  189.2370  178.4940  136.6000 C   0  0  0  0  0  2  0  0  0  0  0  0
  182.8580  176.6930  136.3130 N   0  0  0  0  0  0  0  0  0  0  0  0
  184.4960  178.8960  141.7100 C   0  0  0  0  0  0  0  0  0  0  0  0
  192.3920  174.6330  137.6040 N   0  0  1  0  0  0  0  0  0  0  0  0
  190.1050  174.7550  136.5290 C   0  0  0  0  0  2  0  0  0  0  0  0
  192.5050  175.9190  136.9110 C   0  0  0  0  0  2  0  0  0  0  0  0
  189.9800  176.1560  137.1270 C   0  0  1  0  0  3  0  0  0  0  0  0
  191.1030  173.9290  137.3460 C   0  0  1  0  0  3  0  0  0  0  0  0
  191.3430  176.8430  137.2770 C   0  0  0  0  0  2  0  0  0  0  0  0
  192.2840  173.6130  136.5490 C   0  0  0  0  0  2  0  0  0  0  0  0
  182.9310  179.2330  143.6490 N   0  0  0  0  0  2  0  0  0  0  0  0
  183.8990  179.6810  144.5620 N   0  0  0  0  0  2  0  0  0  0  0  0
  184.0290  178.6570  145.5870 C   0  0  0  0  0  2  0  0  0  0  0  0
  185.3850  178.7320  146.1910 C   0  0  0  0  0  0  0  0  0  0  0  0
  186.4360  177.9150  145.6730 N   0  0  0  0  0  2  0  0  0  0  0  0
  185.6070  179.5380  147.1320 O   0  0  0  0  0  0  0  0  0  0  0  0
  187.7540  178.0320  146.1400 N   0  0  0  0  0  2  0  0  0  0  0  0
  190.6180  177.3090  143.7990 C   0  0  0  0  0  2  0  0  0  0  0  0
  187.8240  176.8920  143.9820 C   0  0  0  0  0  2  0  0  0  0  0  0
  189.8590  178.0390  144.9070 C   0  0  0  0  0  2  0  0  0  0  0  0
  188.5980  177.2500  145.2500 C   0  0  0  0  0  3  0  0  0  0  0  0
  188.7890  176.2740  142.9710 C   0  0  0  0  0  2  0  0  0  0  0  0
  189.8050  177.1940  142.6550 O   0  0  0  0  0  0  0  0  0  0  0  0
  1 30  1  0  0  0  0
  2  3  1  0  0  0  0
  3  1  2  0  0  0  0
  4 18  1  6  0  0  0
  4 12  1  0  0  0  0
  5 12  1  0  0  0  0
  5  9  2  0  0  0  0
  6 20  1  1  0  0  0
  6 11  1  0  0  0  0
  6 26  1  0  0  0  0
  7  4  1  0  0  0  0
 10 21  1  0  0  0  0
 10  7  2  0  0  0  0
 11 20  1  6  0  0  0
 11  5  1  0  0  0  0
 12 19  1  0  0  0  0
 13  2  2  0  0  0  0
 13 14  1  0  0  0  0
 14 22  2  0  0  0  0
 15  7  1  6  0  0  0
 15 13  1  0  0  0  0
 17 16  1  0  0  0  0
 17 15  1  0  0  0  0
 18 11  1  0  0  0  0
 19 14  1  0  0  0  0
 21 17  2  0  0  0  0
 22  1  1  0  0  0  0
 22  8  1  0  0  0  0
 23 29  1  6  0  0  0
 25 28  1  0  0  0  0
 25 23  1  0  0  0  0
 26 24  1  6  0  0  0
 26 28  1  0  0  0  0
 27 24  1  6  0  0  0
 27 23  1  0  0  0  0
 29 27  1  0  0  0  0
 30 31  1  0  0  0  0
 31 32  1  0  0  0  0
 32 33  1  0  0  0  0
 33 35  2  0  0  0  0
 34 36  1  0  0  0  0
 34 33  1  0  0  0  0
 37 39  1  0  0  0  0
 38 40  1  0  0  0  0
 39 40  1  0  0  0  0
 40 36  1  0  0  0  0
 41 38  1  0  0  0  0
 42 41  1  0  0  0  0
 42 37  1  0  0  0  0
M  END
>  <MODEL>
5

>  <REMARK>
 VINA RESULT:      -7.9      2.930      5.742
  Name = 
  7 active torsions:
  status: ('A' for Active; 'I' for Inactive)
    1  A    between atoms: N_5  and  N_15
    2  A    between atoms: N_5  and  C_25
    3  A    between atoms: C_6  and  C_20
    4  A    between atoms: C_7  and  N_22
    5  A    between atoms: C_11  and  C_14
    6  A    between atoms: C_14  and  N_35
    7  A    between atoms: N_22  and  N_35
                            x       y       z     vdW  Elec       q    Type
                         _______ _______ _______ _____ _____    ______ ____

>  <TORSDO>
F 7

$$$$
=
 OpenBabel10232412053D

 42 49  0  0  1  0  0  0  0  0999 V2000
  190.8340  177.6240  140.0740 C   0  0  0  0  0  0  0  0  0  0  0  0
  189.5460  177.4700  142.1020 C   0  0  0  0  0  3  0  0  0  0  0  0
  190.7530  177.3610  141.4320 C   0  0  0  0  0  3  0  0  0  0  0  0
  185.5930  179.2640  140.7430 C   0  0  1  0  0  3  0  0  0  0  0  0
  184.9630  178.2850  138.7740 C   0  0  0  0  0  0  0  0  0  0  0  0
  182.3400  178.5840  139.1890 C   0  0  1  0  0  3  0  0  0  0  0  0
  185.9740  178.6070  142.0060 C   0  0  0  0  0  0  0  0  0  0  0  0
  189.7390  178.3430  137.9140 C   0  0  0  0  0  1  0  0  0  0  0  0
  185.0380  177.7900  137.6170 O   0  0  0  0  0  0  0  0  0  0  0  0
  185.2690  178.6470  143.1280 C   0  0  0  0  0  2  0  0  0  0  0  0
  183.8080  178.9050  139.4120 C   0  0  1  0  0  0  0  0  0  0  0  0
  186.0350  178.4110  139.6590 N   0  0  0  0  0  0  0  0  0  0  0  0
  188.3560  177.8450  141.4660 C   0  0  0  0  0  0  0  0  0  0  0  0
  188.4130  178.0870  140.0400 C   0  0  0  0  0  0  0  0  0  0  0  0
  187.2620  177.9720  142.2720 C   0  0  0  0  0  0  0  0  0  0  0  0
  188.1060  176.9010  144.5560 C   0  0  0  0  0  1  0  0  0  0  0  0
  187.1280  177.6410  143.7080 C   0  0  0  0  0  0  0  0  0  0  0  0
  184.1770  179.4580  140.6510 O   0  0  0  0  0  0  0  0  0  0  0  0
  187.3730  178.2900  139.2700 N   0  0  0  0  0  2  0  0  0  0  0  0
  182.9770  179.8260  138.5540 C   0  0  0  0  0  2  0  0  0  0  0  0
  185.9870  178.0190  144.1830 N   0  0  0  0  0  0  0  0  0  0  0  0
  189.6670  178.0030  139.3740 C   0  0  0  0  0  0  0  0  0  0  0  0
  180.8100  175.1570  137.0800 N   0  0  1  0  0  0  0  0  0  0  0  0
  182.4590  176.1320  138.7310 C   0  0  0  0  0  2  0  0  0  0  0  0
  179.9850  176.2150  137.6690 C   0  0  0  0  0  2  0  0  0  0  0  0
  182.1290  177.5020  138.1400 C   0  0  1  0  0  3  0  0  0  0  0  0
  182.1590  175.0360  137.7040 C   0  0  1  0  0  3  0  0  0  0  0  0
  180.6950  177.5670  137.6000 C   0  0  0  0  0  2  0  0  0  0  0  0
  181.0610  174.1900  138.1600 C   0  0  0  0  0  2  0  0  0  0  0  0
  192.1270  177.4910  139.4610 N   0  0  0  0  0  2  0  0  0  0  0  0
  192.6470  176.2850  138.9670 N   0  0  0  0  0  2  0  0  0  0  0  0
  193.0090  176.5100  137.5770 C   0  0  0  0  0  2  0  0  0  0  0  0
  194.0710  175.5490  137.1800 C   0  0  0  0  0  0  0  0  0  0  0  0
  194.4080  174.4670  138.0490 N   0  0  0  0  0  2  0  0  0  0  0  0
  194.6440  175.6760  136.0650 O   0  0  0  0  0  0  0  0  0  0  0  0
  195.3240  173.4770  137.6660 N   0  0  0  0  0  2  0  0  0  0  0  0
  197.5740  175.0390  140.2540 C   0  0  0  0  0  2  0  0  0  0  0  0
  197.6410  174.2350  137.5410 C   0  0  0  0  0  2  0  0  0  0  0  0
  196.2520  174.6490  139.5930 C   0  0  0  0  0  2  0  0  0  0  0  0
  196.5360  173.6870  138.4420 C   0  0  0  0  0  3  0  0  0  0  0  0
  198.8230  174.6610  138.4100 C   0  0  0  0  0  2  0  0  0  0  0  0
  198.4170  175.6610  139.3130 O   0  0  0  0  0  0  0  0  0  0  0  0
  1  3  1  0  0  0  0
  3  2  2  0  0  0  0
  4 18  1  1  0  0  0
  4  7  1  0  0  0  0
  5 11  1  0  0  0  0
  5 12  1  0  0  0  0
  6 20  1  6  0  0  0
  6 11  1  0  0  0  0
  7 15  2  0  0  0  0
  7 10  1  0  0  0  0
  8 22  1  0  0  0  0
  9  5  2  0  0  0  0
 10 21  1  0  0  0  0
 11 20  1  6  0  0  0
 11 18  1  0  0  0  0
 12  4  1  0  0  0  0
 13  2  1  0  0  0  0
 13 15  1  0  0  0  0
 14 13  2  0  0  0  0
 15 17  1  0  0  0  0
 17 21  2  0  0  0  0
 17 16  1  0  0  0  0
 19 12  1  0  0  0  0
 19 14  1  0  0  0  0
 22 14  1  0  0  0  0
 22  1  2  0  0  0  0
 23 25  1  1  0  0  0
 23 27  1  0  0  0  0
 23 29  1  0  0  0  0
 26 28  1  1  0  0  0
 26 24  1  0  0  0  0
 26  6  1  0  0  0  0
 27 29  1  1  0  0  0
 27 24  1  0  0  0  0
 28 25  1  0  0  0  0
 30  1  1  0  0  0  0
 31 30  1  0  0  0  0
 32 31  1  0  0  0  0
 33 32  1  0  0  0  0
 33 34  1  0  0  0  0
 35 33  2  0  0  0  0
 36 34  1  0  0  0  0
 36 40  1  0  0  0  0
 38 41  1  0  0  0  0
 38 40  1  0  0  0  0
 39 37  1  0  0  0  0
 40 39  1  0  0  0  0
 41 42  1  0  0  0  0
 42 37  1  0  0  0  0
M  END
>  <MODEL>
6

>  <REMARK>
 VINA RESULT:      -7.8      4.092      7.041
  Name = 
  7 active torsions:
  status: ('A' for Active; 'I' for Inactive)
    1  A    between atoms: N_5  and  N_15
    2  A    between atoms: N_5  and  C_25
    3  A    between atoms: C_6  and  C_20
    4  A    between atoms: C_7  and  N_22
    5  A    between atoms: C_11  and  C_14
    6  A    between atoms: C_14  and  N_35
    7  A    between atoms: N_22  and  N_35
                            x       y       z     vdW  Elec       q    Type
                         _______ _______ _______ _____ _____    ______ ____

>  <TORSDO>
F 7

$$$$
=
 OpenBabel10232412053D

 42 49  0  0  1  0  0  0  0  0999 V2000
  189.6050  177.5710  140.2290 C   0  0  0  0  0  0  0  0  0  0  0  0
  188.9810  176.7100  138.0690 C   0  0  0  0  0  3  0  0  0  0  0  0
  188.6370  177.2960  139.2760 C   0  0  0  0  0  3  0  0  0  0  0  0
  193.0760  176.0200  136.2100 C   0  0  1  0  0  3  0  0  0  0  0  0
  194.3880  174.8740  137.6920 C   0  0  0  0  0  0  0  0  0  0  0  0
  195.8590  173.6630  135.8180 C   0  0  1  0  0  3  0  0  0  0  0  0
  191.7260  175.6740  135.7320 C   0  0  0  0  0  0  0  0  0  0  0  0
  192.0250  177.5810  140.9540 C   0  0  0  0  0  1  0  0  0  0  0  0
  194.9160  174.5140  138.7790 O   0  0  0  0  0  0  0  0  0  0  0  0
  191.4270  175.3060  134.4940 C   0  0  0  0  0  3  0  0  0  0  0  0
  194.9300  174.7430  136.3450 C   0  0  1  0  0  0  0  0  0  0  0  0
  193.1820  175.5660  137.5820 N   0  0  0  0  0  0  0  0  0  0  0  0
  190.2990  176.3670  137.7400 C   0  0  0  0  0  0  0  0  0  0  0  0
  191.3180  176.6120  138.7390 C   0  0  0  0  0  0  0  0  0  0  0  0
  190.4900  175.8580  136.4890 C   0  0  1  0  0  3  0  0  0  0  0  0
  187.9990  175.4150  135.6650 C   0  0  0  0  0  1  0  0  0  0  0  0
  189.4750  175.4960  135.4730 C   0  0  0  0  0  0  0  0  0  0  0  0
  194.0950  175.3970  135.4210 O   0  0  0  0  0  0  0  0  0  0  0  0
  192.5630  176.2120  138.6570 N   0  0  0  0  0  2  0  0  0  0  0  0
  196.3950  175.0560  136.1730 C   0  0  0  0  0  2  0  0  0  0  0  0
  190.0190  175.1730  134.3460 N   0  0  0  0  0  0  0  0  0  0  0  0
  190.9520  177.2450  139.9580 C   0  0  0  0  0  0  0  0  0  0  0  0
  196.9610  170.0040  137.8020 N   0  0  1  0  0  0  0  0  0  0  0  0
  195.1540  171.6050  137.0440 C   0  0  0  0  0  2  0  0  0  0  0  0
  197.5620  170.4980  136.5600 C   0  0  0  0  0  2  0  0  0  0  0  0
  196.2540  172.6560  136.8880 C   0  0  1  0  0  3  0  0  0  0  0  0
  195.5920  170.5410  138.0560 C   0  0  1  0  0  3  0  0  0  0  0  0
  197.6080  172.0260  136.5430 C   0  0  0  0  0  2  0  0  0  0  0  0
  195.7640  169.2490  137.4010 C   0  0  0  0  0  2  0  0  0  0  0  0
  189.1590  178.1830  141.4500 N   0  0  0  0  0  2  0  0  0  0  0  0
  188.3150  177.5630  142.3840 N   0  0  0  0  0  2  0  0  0  0  0  0
  186.9920  178.1420  142.2190 C   0  0  0  0  0  2  0  0  0  0  0  0
  186.2690  178.1030  143.5170 C   0  0  0  0  0  0  0  0  0  0  0  0
  186.9390  177.6300  144.6870 N   0  0  0  0  0  2  0  0  0  0  0  0
  185.0820  178.5170  143.5840 O   0  0  0  0  0  0  0  0  0  0  0  0
  186.3320  177.6790  145.9500 N   0  0  0  0  0  2  0  0  0  0  0  0
  188.5470  178.0390  148.9780 C   0  0  0  0  0  2  0  0  0  0  0  0
  188.7150  177.2570  146.2630 C   0  0  0  0  0  2  0  0  0  0  0  0
  187.3370  178.3070  148.0820 C   0  0  0  0  0  2  0  0  0  0  0  0
  187.3410  177.3070  146.9280 C   0  0  0  0  0  3  0  0  0  0  0  0
  189.7840  177.0900  147.3440 C   0  0  0  0  0  2  0  0  0  0  0  0
  189.7350  178.1780  148.2360 O   0  0  0  0  0  0  0  0  0  0  0  0
  1 30  1  0  0  0  0
  2  3  1  0  0  0  0
  3  1  2  0  0  0  0
  4 18  1  6  0  0  0
  4 12  1  0  0  0  0
  5  9  2  0  0  0  0
  6 20  1  1  0  0  0
  6 11  1  0  0  0  0
  6 26  1  0  0  0  0
  7  4  1  0  0  0  0
  7 15  1  0  0  0  0
 10  7  2  0  0  0  0
 11 20  1  1  0  0  0
 11  5  1  0  0  0  0
 12  5  1  0  0  0  0
 12 19  1  0  0  0  0
 13  2  2  0  0  0  0
 13 14  1  0  0  0  0
 14 22  2  0  0  0  0
 15 17  1  6  0  0  0
 15 13  1  0  0  0  0
 17 16  1  0  0  0  0
 18 11  1  0  0  0  0
 19 14  1  0  0  0  0
 21 10  1  0  0  0  0
 21 17  2  0  0  0  0
 22  1  1  0  0  0  0
 22  8  1  0  0  0  0
 23 25  1  6  0  0  0
 23 27  1  0  0  0  0
 26 28  1  6  0  0  0
 26 24  1  0  0  0  0
 27 24  1  6  0  0  0
 28 25  1  0  0  0  0
 29 23  1  0  0  0  0
 29 27  1  0  0  0  0
 30 31  1  0  0  0  0
 32 31  1  0  0  0  0
 32 33  1  0  0  0  0
 33 35  2  0  0  0  0
 33 34  1  0  0  0  0
 34 36  1  0  0  0  0
 36 40  1  0  0  0  0
 38 40  1  0  0  0  0
 38 41  1  0  0  0  0
 39 37  1  0  0  0  0
 40 39  1  0  0  0  0
 41 42  1  0  0  0  0
 42 37  1  0  0  0  0
M  END
>  <MODEL>
7

>  <REMARK>
 VINA RESULT:      -7.7      4.782      7.641
  Name = 
  7 active torsions:
  status: ('A' for Active; 'I' for Inactive)
    1  A    between atoms: N_5  and  N_15
    2  A    between atoms: N_5  and  C_25
    3  A    between atoms: C_6  and  C_20
    4  A    between atoms: C_7  and  N_22
    5  A    between atoms: C_11  and  C_14
    6  A    between atoms: C_14  and  N_35
    7  A    between atoms: N_22  and  N_35
                            x       y       z     vdW  Elec       q    Type
                         _______ _______ _______ _____ _____    ______ ____

>  <TORSDO>
F 7

$$$$
=
 OpenBabel10232412053D

 42 49  0  0  1  0  0  0  0  0999 V2000
  189.7790  177.7220  141.2870 C   0  0  0  0  0  0  0  0  0  0  0  0
  188.5600  177.2700  139.2610 C   0  0  0  0  0  3  0  0  0  0  0  0
  188.5870  177.6870  140.5810 C   0  0  0  0  0  3  0  0  0  0  0  0
  191.9800  176.5230  136.3550 C   0  0  1  0  0  3  0  0  0  0  0  0
  193.4520  175.0460  137.2950 C   0  0  0  0  0  0  0  0  0  0  0  0
  194.2760  174.0200  134.9690 C   0  0  1  0  0  3  0  0  0  0  0  0
  190.5230  176.3770  136.1920 C   0  0  0  0  0  0  0  0  0  0  0  0
  192.2830  177.4040  141.3720 C   0  0  0  0  0  1  0  0  0  0  0  0
  194.1740  174.4740  138.1570 O   0  0  0  0  0  0  0  0  0  0  0  0
  189.8970  176.2360  135.0320 C   0  0  0  0  0  3  0  0  0  0  0  0
  193.6400  175.0820  135.8500 C   0  0  1  0  0  0  0  0  0  0  0  0
  192.3500  175.8510  137.5840 N   0  0  0  0  0  0  0  0  0  0  0  0
  189.7090  176.8680  138.5680 C   0  0  0  0  0  0  0  0  0  0  0  0
  190.9580  176.8620  139.3000 C   0  0  0  0  0  0  0  0  0  0  0  0
  189.5330  176.5480  137.2530 C   0  0  1  0  0  3  0  0  0  0  0  0
  186.8830  176.4620  137.0340 C   0  0  0  0  0  1  0  0  0  0  0  0
  188.2710  176.4420  136.4880 C   0  0  0  0  0  0  0  0  0  0  0  0
  192.6980  175.9440  135.2600 O   0  0  0  0  0  0  0  0  0  0  0  0
  192.0880  176.3710  138.8550 N   0  0  0  0  0  2  0  0  0  0  0  0
  195.0500  175.2870  135.3560 C   0  0  0  0  0  2  0  0  0  0  0  0
  188.4870  176.2530  135.2280 N   0  0  0  0  0  0  0  0  0  0  0  0
  190.9730  177.3250  140.6450 C   0  0  0  0  0  0  0  0  0  0  0  0
  195.4890  170.0370  136.0650 N   0  0  1  0  0  0  0  0  0  0  0  0
  193.6710  171.7890  135.9130 C   0  0  0  0  0  2  0  0  0  0  0  0
  195.9090  170.7350  134.8460 C   0  0  0  0  0  2  0  0  0  0  0  0
  194.7840  172.8260  135.7630 C   0  0  1  0  0  3  0  0  0  0  0  0
  194.2090  170.5490  136.6330 C   0  0  1  0  0  3  0  0  0  0  0  0
  196.0310  172.2400  135.0910 C   0  0  0  0  0  2  0  0  0  0  0  0
  194.2060  169.3950  135.7410 C   0  0  0  0  0  2  0  0  0  0  0  0
  189.7150  178.1710  142.6500 N   0  0  0  0  0  2  0  0  0  0  0  0
  190.0700  177.3870  143.7590 N   0  0  0  0  0  2  0  0  0  0  0  0
  188.9050  176.5920  144.1140 C   0  0  0  0  0  2  0  0  0  0  0  0
  187.9300  177.4420  144.8450 C   0  0  0  0  0  0  0  0  0  0  0  0
  186.6260  177.6530  144.3010 N   0  0  0  0  0  2  0  0  0  0  0  0
  188.2480  177.9450  145.9560 O   0  0  0  0  0  0  0  0  0  0  0  0
  185.6410  178.3560  145.0090 N   0  0  0  0  0  2  0  0  0  0  0  0
  182.3710  179.2140  143.3420 C   0  0  0  0  0  2  0  0  0  0  0  0
  184.9630  178.2980  142.6650 C   0  0  0  0  0  2  0  0  0  0  0  0
  183.2990  178.7930  144.4810 C   0  0  0  0  0  2  0  0  0  0  0  0
  184.7490  178.9530  144.0280 C   0  0  0  0  0  3  0  0  0  0  0  0
  183.8690  178.7740  141.7090 C   0  0  0  0  0  2  0  0  0  0  0  0
  182.6050  178.4100  142.2100 O   0  0  0  0  0  0  0  0  0  0  0  0
  1 30  1  0  0  0  0
  2  3  1  0  0  0  0
  3  1  2  0  0  0  0
  4 18  1  6  0  0  0
  4 12  1  0  0  0  0
  5 12  1  0  0  0  0
  5  9  2  0  0  0  0
  6 20  1  1  0  0  0
  6 26  1  0  0  0  0
  6 11  1  0  0  0  0
  7  4  1  0  0  0  0
 10 21  1  0  0  0  0
 10  7  2  0  0  0  0
 11 20  1  6  0  0  0
 11  5  1  0  0  0  0
 12 19  1  0  0  0  0
 13  2  2  0  0  0  0
 13 14  1  0  0  0  0
 14 22  2  0  0  0  0
 15  7  1  6  0  0  0
 15 13  1  0  0  0  0
 17 16  1  0  0  0  0
 17 15  1  0  0  0  0
 18 11  1  0  0  0  0
 19 14  1  0  0  0  0
 21 17  2  0  0  0  0
 22  1  1  0  0  0  0
 22  8  1  0  0  0  0
 23 25  1  6  0  0  0
 23 27  1  0  0  0  0
 24 27  1  0  0  0  0
 25 28  1  0  0  0  0
 26 28  1  6  0  0  0
 26 24  1  0  0  0  0
 27 29  1  6  0  0  0
 29 23  1  0  0  0  0
 30 31  1  0  0  0  0
 31 32  1  0  0  0  0
 32 33  1  0  0  0  0
 33 35  2  0  0  0  0
 34 33  1  0  0  0  0
 34 36  1  0  0  0  0
 37 39  1  0  0  0  0
 38 40  1  0  0  0  0
 40 39  1  0  0  0  0
 40 36  1  0  0  0  0
 41 42  1  0  0  0  0
 41 38  1  0  0  0  0
 42 37  1  0  0  0  0
M  END
>  <MODEL>
8

>  <REMARK>
 VINA RESULT:      -7.6      4.466      6.635
  Name = 
  7 active torsions:
  status: ('A' for Active; 'I' for Inactive)
    1  A    between atoms: N_5  and  N_15
    2  A    between atoms: N_5  and  C_25
    3  A    between atoms: C_6  and  C_20
    4  A    between atoms: C_7  and  N_22
    5  A    between atoms: C_11  and  C_14
    6  A    between atoms: C_14  and  N_35
    7  A    between atoms: N_22  and  N_35
                            x       y       z     vdW  Elec       q    Type
                         _______ _______ _______ _____ _____    ______ ____

>  <TORSDO>
F 7

$$$$
=
 OpenBabel10232412053D

 42 49  0  0  1  0  0  0  0  0999 V2000
  191.0630  177.5120  139.9860 C   0  0  0  0  0  0  0  0  0  0  0  0
  189.9000  177.3150  142.0840 C   0  0  0  0  0  3  0  0  0  0  0  0
  191.0620  177.2150  141.3390 C   0  0  0  0  0  3  0  0  0  0  0  0
  185.8880  179.1750  141.0150 C   0  0  1  0  0  3  0  0  0  0  0  0
  185.1300  178.2520  139.0630 C   0  0  0  0  0  0  0  0  0  0  0  0
  182.5400  178.5600  139.6450 C   0  0  1  0  0  3  0  0  0  0  0  0
  186.3390  178.4820  142.2350 C   0  0  0  0  0  0  0  0  0  0  0  0
  189.8450  178.2950  137.9150 C   0  0  0  0  0  1  0  0  0  0  0  0
  185.1300  177.7860  137.8920 O   0  0  0  0  0  0  0  0  0  0  0  0
  185.7030  178.4980  143.3980 C   0  0  0  0  0  2  0  0  0  0  0  0
  184.0220  178.8640  139.7860 C   0  0  1  0  0  0  0  0  0  0  0  0
  186.2550  178.3470  139.8840 N   0  0  0  0  0  0  0  0  0  0  0  0
  188.6760  177.7160  141.5310 C   0  0  0  0  0  0  0  0  0  0  0  0
  188.6480  177.9940  140.1110 C   0  0  0  0  0  0  0  0  0  0  0  0
  187.6350  177.8300  142.4050 C   0  0  0  0  0  0  0  0  0  0  0  0
  188.6060  176.6940  144.6060 C   0  0  0  0  0  1  0  0  0  0  0  0
  187.5850  177.4640  143.8380 C   0  0  0  0  0  0  0  0  0  0  0  0
  184.4700  179.3820  141.0140 O   0  0  0  0  0  0  0  0  0  0  0  0
  187.5660  178.2260  139.4120 N   0  0  0  0  0  2  0  0  0  0  0  0
  183.1490  179.8140  139.0040 C   0  0  0  0  0  2  0  0  0  0  0  0
  186.4790  177.8380  144.3920 N   0  0  0  0  0  0  0  0  0  0  0  0
  189.8580  177.9180  139.3680 C   0  0  0  0  0  0  0  0  0  0  0  0
  180.6690  175.3990  137.4000 N   0  0  1  0  0  0  0  0  0  0  0  0
  182.2830  176.1140  139.2120 C   0  0  0  0  0  2  0  0  0  0  0  0
  179.9820  176.5940  137.8950 C   0  0  0  0  0  2  0  0  0  0  0  0
  182.2560  177.5080  138.5840 C   0  0  1  0  0  3  0  0  0  0  0  0
  181.9070  175.0640  138.1630 C   0  0  1  0  0  3  0  0  0  0  0  0
  180.9170  177.8040  137.8960 C   0  0  0  0  0  2  0  0  0  0  0  0
  180.6390  174.4270  138.5040 C   0  0  0  0  0  2  0  0  0  0  0  0
  192.3140  177.3850  139.2910 N   0  0  0  0  0  2  0  0  0  0  0  0
  192.7550  176.2090  138.6650 N   0  0  0  0  0  2  0  0  0  0  0  0
  192.6510  176.4210  137.2300 C   0  0  0  0  0  2  0  0  0  0  0  0
  193.9660  176.1520  136.5930 C   0  0  0  0  0  0  0  0  0  0  0  0
  194.9340  175.3540  137.2760 N   0  0  0  0  0  2  0  0  0  0  0  0
  194.2070  176.6020  135.4410 O   0  0  0  0  0  0  0  0  0  0  0  0
  196.1420  174.9840  136.6670 N   0  0  0  0  0  2  0  0  0  0  0  0
  195.9320  171.3540  137.6550 C   0  0  0  0  0  2  0  0  0  0  0  0
  197.4710  173.0510  135.9930 C   0  0  0  0  0  2  0  0  0  0  0  0
  195.7360  172.8620  137.8000 C   0  0  0  0  0  2  0  0  0  0  0  0
  196.1100  173.5420  136.4850 C   0  0  0  0  0  3  0  0  0  0  0  0
  197.4880  171.5230  136.0270 C   0  0  0  0  0  2  0  0  0  0  0  0
  197.2750  171.0710  137.3420 O   0  0  0  0  0  0  0  0  0  0  0  0
  1  3  1  0  0  0  0
  3  2  2  0  0  0  0
  4 18  1  1  0  0  0
  4  7  1  0  0  0  0
  5 11  1  0  0  0  0
  5 12  1  0  0  0  0
  6 20  1  6  0  0  0
  6 11  1  0  0  0  0
  7 15  2  0  0  0  0
  7 10  1  0  0  0  0
  8 22  1  0  0  0  0
  9  5  2  0  0  0  0
 10 21  1  0  0  0  0
 11 20  1  6  0  0  0
 11 18  1  0  0  0  0
 12  4  1  0  0  0  0
 13  2  1  0  0  0  0
 13 15  1  0  0  0  0
 14 13  2  0  0  0  0
 15 17  1  0  0  0  0
 17 21  2  0  0  0  0
 17 16  1  0  0  0  0
 19 12  1  0  0  0  0
 19 14  1  0  0  0  0
 22  1  2  0  0  0  0
 22 14  1  0  0  0  0
 23 25  1  1  0  0  0
 23 27  1  0  0  0  0
 23 29  1  0  0  0  0
 25 28  1  0  0  0  0
 26 28  1  1  0  0  0
 26 24  1  0  0  0  0
 26  6  1  0  0  0  0
 27 29  1  1  0  0  0
 27 24  1  0  0  0  0
 30  1  1  0  0  0  0
 31 30  1  0  0  0  0
 32 31  1  0  0  0  0
 33 32  1  0  0  0  0
 33 34  1  0  0  0  0
 35 33  2  0  0  0  0
 36 34  1  0  0  0  0
 37 39  1  0  0  0  0
 38 41  1  0  0  0  0
 38 40  1  0  0  0  0
 40 36  1  0  0  0  0
 40 39  1  0  0  0  0
 41 42  1  0  0  0  0
 42 37  1  0  0  0  0
M  END
>  <MODEL>
9

>  <REMARK>
 VINA RESULT:      -7.4      4.331      7.628
  Name = 
  7 active torsions:
  status: ('A' for Active; 'I' for Inactive)
    1  A    between atoms: N_5  and  N_15
    2  A    between atoms: N_5  and  C_25
    3  A    between atoms: C_6  and  C_20
    4  A    between atoms: C_7  and  N_22
    5  A    between atoms: C_11  and  C_14
    6  A    between atoms: C_14  and  N_35
    7  A    between atoms: N_22  and  N_35
                            x       y       z     vdW  Elec       q    Type
                         _______ _______ _______ _____ _____    ______ ____

>  <TORSDO>
F 7

$$$$
