=
 OpenBabel10232410353D

 50 57  0  0  1  0  0  0  0  0999 V2000
  187.6880  175.9420  137.5560 C   0  0  0  0  0  2  0  0  0  0  0  0
  187.6570  176.9270  136.3920 C   0  0  1  0  0  0  0  0  0  0  0  0
  187.8410  175.4150  136.1360 C   0  0  1  0  0  0  0  0  0  0  0  0
  186.2680  177.5330  136.2660 C   0  0  0  0  0  1  0  0  0  0  0  0
  192.6660  174.1960  136.0920 C   0  0  0  0  0  0  0  0  0  0  0  0
  191.3080  174.4020  135.5980 C   0  0  0  0  0  0  0  0  0  0  0  0
  191.7630  175.1460  138.2820 C   0  0  0  0  0  3  0  0  0  0  0  0
  190.5600  175.2250  137.7770 N   0  0  0  0  0  0  0  0  0  0  0  0
  190.8400  174.2650  134.3460 N   0  0  0  0  0  0  0  0  0  0  0  0
  193.5260  173.5950  135.3960 O   0  0  0  0  0  0  0  0  0  0  0  0
  190.3210  174.8660  136.4130 C   0  0  0  0  0  0  0  0  0  0  0  0
  189.1900  175.0200  135.7010 N   0  0  0  0  0  0  0  0  0  0  0  0
  189.5370  174.6460  134.4410 C   0  0  0  0  0  3  0  0  0  0  0  0
  192.9830  174.6730  137.4910 C   0  0  0  0  0  2  0  0  0  0  0  0
  186.6690  174.6600  135.4630 C   0  0  0  0  0  2  0  0  0  0  0  0
  184.3410  174.6660  136.1210 C   0  0  2  0  0  3  0  0  0  0  0  0
  184.6320  173.3290  135.5900 N   0  0  0  0  0  2  0  0  0  0  0  0
  185.6270  174.0570  136.4050 C   0  0  1  0  0  3  0  0  0  0  0  0
  183.3770  174.5400  137.2960 C   0  0  0  0  0  2  0  0  0  0  0  0
  182.1820  175.4860  137.1230 C   0  0  0  0  0  2  0  0  0  0  0  0
  181.7600  177.8400  137.8600 C   0  0  0  0  0  2  0  0  0  0  0  0
  183.1890  177.4860  138.2470 C   0  0  2  0  0  3  0  0  0  0  0  0
  182.0980  176.4400  138.3070 C   0  0  2  0  0  3  0  0  0  0  0  0
  183.4340  177.9080  139.6140 N   0  0  0  0  0  2  0  0  0  0  0  0
  184.3700  180.0070  139.1890 O   0  0  0  0  0  0  0  0  0  0  0  0
  184.2500  179.0230  139.9670 C   0  0  0  0  0  0  0  0  0  0  0  0
  184.9650  178.9900  141.2470 C   0  0  0  0  0  0  0  0  0  0  0  0
  186.0790  179.5770  141.3850 O   0  0  0  0  0  0  0  0  0  0  0  0
  184.3930  178.2770  142.3010 O   0  0  0  0  0  0  0  0  0  0  0  0
  184.1670  179.6220  144.2890 C   0  0  0  0  0  1  0  0  0  0  0  0
  183.4420  178.8420  143.2040 C   0  0  0  0  0  2  0  0  0  0  0  0
  188.8780  177.8380  136.4700 C   0  0  0  0  0  2  0  0  0  0  0  0
  188.8380  178.7930  137.6520 C   0  0  0  0  0  2  0  0  0  0  0  0
  189.7670  178.4190  138.6380 O   0  0  0  0  0  0  0  0  0  0  0  0
  189.0180  178.4310  139.8310 C   0  0  0  0  0  2  0  0  0  0  0  0
  189.2900  177.1870  140.6800 C   0  0  0  0  0  2  0  0  0  0  0  0
  186.8730  177.8540  147.1300 N   0  0  0  0  0  0  0  0  0  0  0  0
  189.6640  177.6320  143.1340 C   0  0  0  0  0  0  0  0  0  0  0  0
  191.6660  176.5980  146.0310 C   0  0  0  0  0  1  0  0  0  0  0  0
  190.6510  177.3820  145.3470 N   0  0  0  0  0  0  0  0  0  0  0  0
  189.3630  177.5950  145.9570 C   0  0  0  0  0  0  0  0  0  0  0  0
  188.2000  177.7130  145.1500 C   0  0  0  0  0  0  0  0  0  0  0  0
  188.2530  177.6130  143.6380 C   0  0  0  0  0  3  0  0  0  0  0  0
  186.9580  177.8260  145.7760 C   0  0  0  0  0  2  0  0  0  0  0  0
  190.0810  177.4940  141.8640 N   0  0  0  0  0  0  0  0  0  0  0  0
  189.2400  177.6460  147.3500 C   0  0  0  0  0  3  0  0  0  0  0  0
  187.9780  177.7890  147.9210 C   0  0  0  0  0  3  0  0  0  0  0  0
  191.4300  177.4040  141.9330 C   0  0  0  0  0  3  0  0  0  0  0  0
  190.7620  177.6170  143.9420 C   0  0  0  0  0  0  0  0  0  0  0  0
  191.8810  177.4580  143.2080 N   0  0  0  0  0  0  0  0  0  0  0  0
  2  4  1  6  0  0  0
  2 32  1  0  0  0  0
  2  1  1  0  0  0  0
  3 15  1  6  0  0  0
  3  2  1  0  0  0  0
  3  1  1  0  0  0  0
  5 14  1  0  0  0  0
  6  5  1  0  0  0  0
  6 11  2  0  0  0  0
  8  7  2  0  0  0  0
  9 13  2  0  0  0  0
  9  6  1  0  0  0  0
 10  5  2  0  0  0  0
 11  8  1  0  0  0  0
 12  3  1  0  0  0  0
 12 11  1  0  0  0  0
 13 12  1  0  0  0  0
 14  7  1  0  0  0  0
 16 18  1  0  0  0  0
 16 19  1  1  0  0  0
 17 16  1  0  0  0  0
 17 18  1  0  0  0  0
 18 15  1  6  0  0  0
 20 19  1  0  0  0  0
 21 22  1  0  0  0  0
 21 23  1  0  0  0  0
 22 23  1  0  0  0  0
 22 24  1  1  0  0  0
 23 20  1  6  0  0  0
 24 26  1  0  0  0  0
 25 26  2  0  0  0  0
 26 27  1  0  0  0  0
 27 28  2  0  0  0  0
 27 29  1  0  0  0  0
 29 31  1  0  0  0  0
 31 30  1  0  0  0  0
 32 33  1  0  0  0  0
 33 34  1  0  0  0  0
 34 35  1  0  0  0  0
 35 36  1  0  0  0  0
 36 45  1  0  0  0  0
 37 47  2  0  0  0  0
 38 43  1  0  0  0  0
 38 49  2  0  0  0  0
 40 41  1  0  0  0  0
 40 39  1  0  0  0  0
 41 46  2  0  0  0  0
 42 44  1  0  0  0  0
 42 41  1  0  0  0  0
 43 42  2  0  0  0  0
 44 37  1  0  0  0  0
 45 48  1  0  0  0  0
 45 38  1  0  0  0  0
 46 47  1  0  0  0  0
 48 50  2  0  0  0  0
 49 40  1  0  0  0  0
 50 49  1  0  0  0  0
M  END
>  <MODEL>
1

>  <REMARK>
 VINA RESULT:      -7.9      0.000      0.000
  Name = 
  16 active torsions:
  status: ('A' for Active; 'I' for Inactive)
    1  A    between atoms: N_10  and  C_40
    2  A    between atoms: C_11  and  C_19
    3  A    between atoms: C_15  and  C_25
    4  A    between atoms: C_15  and  C_28
    5  A    between atoms: C_16  and  C_20
    6  A    between atoms: C_16  and  N_38
    7  A    between atoms: O_18  and  C_24
    8  A    between atoms: O_18  and  C_44
    9  A    between atoms: C_19  and  C_34
   10  A    between atoms: C_20  and  O_31
   11  A    between atoms: C_23  and  C_47
   12  A    between atoms: C_24  and  C_29
   13  A    between atoms: C_28  and  O_31
   14  A    between atoms: C_34  and  C_49
   15  A    between atoms: C_35  and  N_36
   16  A    between atoms: C_35  and  C_47
                            x       y       z     vdW  Elec       q    Type
                         _______ _______ _______ _____ _____    ______ ____

>  <TORSDO>
F 16

$$$$
=
 OpenBabel10232410353D

 50 57  0  0  1  0  0  0  0  0999 V2000
  189.3860  178.5040  138.6500 C   0  0  0  0  0  2  0  0  0  0  0  0
  188.4530  177.6440  139.4960 C   0  0  1  0  0  0  0  0  0  0  0  0
  188.9620  177.1370  138.1300 C   0  0  1  0  0  0  0  0  0  0  0  0
  189.1680  177.1990  140.7620 C   0  0  0  0  0  1  0  0  0  0  0  0
  185.1800  175.7710  135.1980 C   0  0  0  0  0  0  0  0  0  0  0  0
  186.2400  176.6050  135.7540 C   0  0  0  0  0  0  0  0  0  0  0  0
  186.0070  174.0200  136.8600 C   0  0  0  0  0  3  0  0  0  0  0  0
  186.8790  174.8630  137.3470 N   0  0  0  0  0  0  0  0  0  0  0  0
  186.6630  177.8120  135.3400 N   0  0  0  0  0  0  0  0  0  0  0  0
  184.3460  176.2400  134.3800 O   0  0  0  0  0  0  0  0  0  0  0  0
  187.0180  176.1700  136.7830 C   0  0  0  0  0  0  0  0  0  0  0  0
  187.9480  177.1010  137.0640 N   0  0  0  0  0  0  0  0  0  0  0  0
  187.7090  178.0910  136.1660 C   0  0  0  0  0  3  0  0  0  0  0  0
  185.0810  174.3440  135.6870 C   0  0  0  0  0  2  0  0  0  0  0  0
  189.9720  175.9630  138.1380 C   0  0  0  0  0  2  0  0  0  0  0  0
  191.4640  174.6270  136.7820 C   0  0  2  0  0  3  0  0  0  0  0  0
  190.5250  175.2840  135.8650 N   0  0  0  0  0  2  0  0  0  0  0  0
  191.0470  175.9910  137.0530 C   0  0  1  0  0  3  0  0  0  0  0  0
  192.8420  174.5690  136.1310 C   0  0  0  0  0  2  0  0  0  0  0  0
  193.3270  173.1190  136.0120 C   0  0  0  0  0  2  0  0  0  0  0  0
  195.1090  171.5740  136.8500 C   0  0  0  0  0  2  0  0  0  0  0  0
  194.7850  172.5540  137.9700 C   0  0  2  0  0  3  0  0  0  0  0  0
  194.7560  173.0050  136.5270 C   0  0  2  0  0  3  0  0  0  0  0  0
  196.0220  173.0600  138.5370 N   0  0  0  0  0  2  0  0  0  0  0  0
  195.3040  175.2050  139.1290 O   0  0  0  0  0  0  0  0  0  0  0  0
  196.2570  174.4360  138.8280 C   0  0  0  0  0  0  0  0  0  0  0  0
  197.6300  174.9450  138.7490 C   0  0  0  0  0  0  0  0  0  0  0  0
  198.2910  174.8690  137.6710 O   0  0  0  0  0  0  0  0  0  0  0  0
  198.1930  175.4970  139.9000 O   0  0  0  0  0  0  0  0  0  0  0  0
  198.6190  175.4680  142.2730 C   0  0  0  0  0  1  0  0  0  0  0  0
  197.5620  175.4530  141.1790 C   0  0  0  0  0  2  0  0  0  0  0  0
  187.0910  178.3240  139.5940 C   0  0  0  0  0  2  0  0  0  0  0  0
  186.6710  178.6220  141.0240 C   0  0  0  0  0  2  0  0  0  0  0  0
  185.2730  178.6930  141.1390 O   0  0  0  0  0  0  0  0  0  0  0  0
  185.0090  178.1470  142.4110 C   0  0  0  0  0  2  0  0  0  0  0  0
  185.2350  179.1730  143.5240 C   0  0  0  0  0  2  0  0  0  0  0  0
  191.5000  176.6540  145.0380 N   0  0  0  0  0  0  0  0  0  0  0  0
  186.8230  178.0420  145.1240 C   0  0  0  0  0  0  0  0  0  0  0  0
  188.1670  178.2100  148.5340 C   0  0  0  0  0  1  0  0  0  0  0  0
  188.0350  177.6490  147.2000 N   0  0  0  0  0  0  0  0  0  0  0  0
  189.2050  177.2600  146.4550 C   0  0  0  0  0  0  0  0  0  0  0  0
  189.2220  177.3700  145.0400 C   0  0  0  0  0  0  0  0  0  0  0  0
  188.0370  177.9030  144.2570 C   0  0  0  0  0  3  0  0  0  0  0  0
  190.4030  177.0730  144.3580 C   0  0  0  0  0  2  0  0  0  0  0  0
  185.6250  178.5430  144.7790 N   0  0  0  0  0  0  0  0  0  0  0  0
  190.3490  176.8080  147.1230 C   0  0  0  0  0  3  0  0  0  0  0  0
  191.4910  176.4960  146.3890 C   0  0  0  0  0  3  0  0  0  0  0  0
  184.9190  178.6190  145.9300 C   0  0  0  0  0  3  0  0  0  0  0  0
  186.8190  177.8300  146.4700 C   0  0  0  0  0  0  0  0  0  0  0  0
  185.6370  178.2030  146.9990 N   0  0  0  0  0  0  0  0  0  0  0  0
  1  2  1  0  0  0  0
  2 32  1  0  0  0  0
  2  4  1  1  0  0  0
  3 15  1  1  0  0  0
  3  1  1  0  0  0  0
  3  2  1  0  0  0  0
  5 14  1  0  0  0  0
  5  6  1  0  0  0  0
  6 11  2  0  0  0  0
  7  8  2  0  0  0  0
  9  6  1  0  0  0  0
  9 13  2  0  0  0  0
 10  5  2  0  0  0  0
 11 12  1  0  0  0  0
 11  8  1  0  0  0  0
 12  3  1  0  0  0  0
 13 12  1  0  0  0  0
 14  7  1  0  0  0  0
 16 19  1  6  0  0  0
 16 18  1  0  0  0  0
 17 16  1  0  0  0  0
 17 18  1  0  0  0  0
 18 15  1  1  0  0  0
 20 19  1  0  0  0  0
 21 22  1  0  0  0  0
 22 24  1  1  0  0  0
 23 20  1  6  0  0  0
 23 21  1  0  0  0  0
 23 22  1  0  0  0  0
 24 26  1  0  0  0  0
 26 25  2  0  0  0  0
 27 26  1  0  0  0  0
 27 29  1  0  0  0  0
 28 27  2  0  0  0  0
 29 31  1  0  0  0  0
 31 30  1  0  0  0  0
 32 33  1  0  0  0  0
 33 34  1  0  0  0  0
 34 35  1  0  0  0  0
 35 36  1  0  0  0  0
 36 45  1  0  0  0  0
 37 47  2  0  0  0  0
 38 49  2  0  0  0  0
 40 39  1  0  0  0  0
 41 46  2  0  0  0  0
 41 40  1  0  0  0  0
 42 41  1  0  0  0  0
 43 42  2  0  0  0  0
 43 38  1  0  0  0  0
 44 37  1  0  0  0  0
 44 42  1  0  0  0  0
 45 38  1  0  0  0  0
 45 48  1  0  0  0  0
 47 46  1  0  0  0  0
 48 50  2  0  0  0  0
 49 50  1  0  0  0  0
 49 40  1  0  0  0  0
M  END
>  <MODEL>
2

>  <REMARK>
 VINA RESULT:      -7.7      2.864      8.039
  Name = 
  16 active torsions:
  status: ('A' for Active; 'I' for Inactive)
    1  A    between atoms: N_10  and  C_40
    2  A    between atoms: C_11  and  C_19
    3  A    between atoms: C_15  and  C_25
    4  A    between atoms: C_15  and  C_28
    5  A    between atoms: C_16  and  C_20
    6  A    between atoms: C_16  and  N_38
    7  A    between atoms: O_18  and  C_24
    8  A    between atoms: O_18  and  C_44
    9  A    between atoms: C_19  and  C_34
   10  A    between atoms: C_20  and  O_31
   11  A    between atoms: C_23  and  C_47
   12  A    between atoms: C_24  and  C_29
   13  A    between atoms: C_28  and  O_31
   14  A    between atoms: C_34  and  C_49
   15  A    between atoms: C_35  and  N_36
   16  A    between atoms: C_35  and  C_47
                            x       y       z     vdW  Elec       q    Type
                         _______ _______ _______ _____ _____    ______ ____

>  <TORSDO>
F 16

$$$$
=
 OpenBabel10232410353D

 50 57  0  0  1  0  0  0  0  0999 V2000
  189.3690  178.3950  137.6060 C   0  0  0  0  0  2  0  0  0  0  0  0
  189.9180  177.1550  138.3040 C   0  0  1  0  0  0  0  0  0  0  0  0
  189.2420  177.0420  136.9200 C   0  0  1  0  0  0  0  0  0  0  0  0
  191.4350  177.2340  138.3790 C   0  0  0  0  0  1  0  0  0  0  0  0
  185.5810  173.6750  137.1070 C   0  0  0  0  0  0  0  0  0  0  0  0
  186.2300  174.9810  137.0700 C   0  0  0  0  0  0  0  0  0  0  0  0
  187.9510  172.7530  136.8830 C   0  0  0  0  0  3  0  0  0  0  0  0
  188.4480  173.9600  136.9330 N   0  0  0  0  0  0  0  0  0  0  0  0
  185.6640  176.1980  137.0090 N   0  0  0  0  0  0  0  0  0  0  0  0
  184.3500  173.5670  137.3490 O   0  0  0  0  0  0  0  0  0  0  0  0
  187.5850  175.0980  137.0110 C   0  0  0  0  0  0  0  0  0  0  0  0
  187.9180  176.4000  136.9280 N   0  0  0  0  0  0  0  0  0  0  0  0
  186.7240  177.0480  136.9270 C   0  0  0  0  0  3  0  0  0  0  0  0
  186.4510  172.4540  136.9080 C   0  0  0  0  0  2  0  0  0  0  0  0
  190.1470  176.7020  135.7110 C   0  0  0  0  0  2  0  0  0  0  0  0
  191.3820  174.6900  135.1870 C   0  0  2  0  0  3  0  0  0  0  0  0
  192.2260  175.8250  134.7920 N   0  0  0  0  0  2  0  0  0  0  0  0
  191.3990  175.8820  136.0160 C   0  0  1  0  0  3  0  0  0  0  0  0
  192.2650  173.5840  135.7580 C   0  0  0  0  0  2  0  0  0  0  0  0
  192.9230  174.0350  137.0680 C   0  0  0  0  0  2  0  0  0  0  0  0
  194.6080  172.1910  136.9230 C   0  0  0  0  0  2  0  0  0  0  0  0
  194.7830  172.8700  138.2750 C   0  0  2  0  0  3  0  0  0  0  0  0
  194.4040  173.6800  137.0550 C   0  0  2  0  0  3  0  0  0  0  0  0
  196.1960  173.1130  138.5090 N   0  0  0  0  0  2  0  0  0  0  0  0
  196.0220  175.0250  139.8430 O   0  0  0  0  0  0  0  0  0  0  0  0
  196.7120  174.3250  139.0540 C   0  0  0  0  0  0  0  0  0  0  0  0
  198.0580  174.7540  138.6580 C   0  0  0  0  0  0  0  0  0  0  0  0
  198.5560  175.8300  139.1020 O   0  0  0  0  0  0  0  0  0  0  0  0
  198.7650  173.9500  137.7620 O   0  0  0  0  0  0  0  0  0  0  0  0
  198.4320  173.1560  135.5110 C   0  0  0  0  0  1  0  0  0  0  0  0
  198.9500  174.2850  136.3870 C   0  0  0  0  0  2  0  0  0  0  0  0
  189.1100  176.8880  139.5690 C   0  0  0  0  0  2  0  0  0  0  0  0
  189.8400  177.2850  140.8410 C   0  0  0  0  0  2  0  0  0  0  0  0
  190.6590  176.2420  141.3030 O   0  0  0  0  0  0  0  0  0  0  0  0
  191.3180  176.7950  142.4180 C   0  0  0  0  0  2  0  0  0  0  0  0
  191.1400  175.9290  143.6670 C   0  0  0  0  0  2  0  0  0  0  0  0
  184.7500  178.3880  144.6770 N   0  0  0  0  0  0  0  0  0  0  0  0
  189.4690  177.2050  145.0600 C   0  0  0  0  0  0  0  0  0  0  0  0
  188.0360  177.4500  148.4290 C   0  0  0  0  0  1  0  0  0  0  0  0
  188.1860  177.8290  147.0350 N   0  0  0  0  0  0  0  0  0  0  0  0
  187.0240  178.0680  146.2170 C   0  0  0  0  0  0  0  0  0  0  0  0
  187.0510  177.7660  144.8290 C   0  0  0  0  0  0  0  0  0  0  0  0
  188.2750  177.1780  144.1550 C   0  0  0  0  0  3  0  0  0  0  0  0
  185.8800  177.9230  144.0860 C   0  0  0  0  0  2  0  0  0  0  0  0
  190.6930  176.7080  144.8150 N   0  0  0  0  0  0  0  0  0  0  0  0
  185.8470  178.5620  146.7890 C   0  0  0  0  0  3  0  0  0  0  0  0
  184.7150  178.7270  145.9940 C   0  0  0  0  0  3  0  0  0  0  0  0
  191.3680  176.8160  145.9820 C   0  0  0  0  0  3  0  0  0  0  0  0
  189.4270  177.5970  146.3650 C   0  0  0  0  0  0  0  0  0  0  0  0
  190.6060  177.3450  146.9670 N   0  0  0  0  0  0  0  0  0  0  0  0
  1  2  1  0  0  0  0
  2  4  1  1  0  0  0
  2 32  1  0  0  0  0
  3 15  1  6  0  0  0
  3 12  1  0  0  0  0
  3  1  1  0  0  0  0
  3  2  1  0  0  0  0
  5 10  2  0  0  0  0
  6  5  1  0  0  0  0
  7 14  1  0  0  0  0
  7  8  2  0  0  0  0
  8 11  1  0  0  0  0
  9  6  1  0  0  0  0
 11  6  2  0  0  0  0
 12 11  1  0  0  0  0
 13 12  1  0  0  0  0
 13  9  2  0  0  0  0
 14  5  1  0  0  0  0
 16 19  1  1  0  0  0
 16 18  1  0  0  0  0
 17 16  1  0  0  0  0
 17 18  1  0  0  0  0
 18 15  1  6  0  0  0
 19 20  1  0  0  0  0
 21 23  1  0  0  0  0
 21 22  1  0  0  0  0
 22 24  1  6  0  0  0
 23 20  1  1  0  0  0
 23 22  1  0  0  0  0
 24 26  1  0  0  0  0
 26 25  2  0  0  0  0
 27 26  1  0  0  0  0
 27 28  2  0  0  0  0
 29 27  1  0  0  0  0
 30 31  1  0  0  0  0
 31 29  1  0  0  0  0
 32 33  1  0  0  0  0
 33 34  1  0  0  0  0
 34 35  1  0  0  0  0
 35 36  1  0  0  0  0
 36 45  1  0  0  0  0
 37 47  2  0  0  0  0
 38 49  2  0  0  0  0
 40 39  1  0  0  0  0
 41 46  2  0  0  0  0
 41 40  1  0  0  0  0
 42 41  1  0  0  0  0
 43 42  2  0  0  0  0
 43 38  1  0  0  0  0
 44 37  1  0  0  0  0
 44 42  1  0  0  0  0
 45 38  1  0  0  0  0
 45 48  1  0  0  0  0
 47 46  1  0  0  0  0
 48 50  2  0  0  0  0
 49 50  1  0  0  0  0
 49 40  1  0  0  0  0
M  END
>  <MODEL>
3

>  <REMARK>
 VINA RESULT:      -7.4      2.917      8.028
  Name = 
  16 active torsions:
  status: ('A' for Active; 'I' for Inactive)
    1  A    between atoms: N_10  and  C_40
    2  A    between atoms: C_11  and  C_19
    3  A    between atoms: C_15  and  C_25
    4  A    between atoms: C_15  and  C_28
    5  A    between atoms: C_16  and  C_20
    6  A    between atoms: C_16  and  N_38
    7  A    between atoms: O_18  and  C_24
    8  A    between atoms: O_18  and  C_44
    9  A    between atoms: C_19  and  C_34
   10  A    between atoms: C_20  and  O_31
   11  A    between atoms: C_23  and  C_47
   12  A    between atoms: C_24  and  C_29
   13  A    between atoms: C_28  and  O_31
   14  A    between atoms: C_34  and  C_49
   15  A    between atoms: C_35  and  N_36
   16  A    between atoms: C_35  and  C_47
                            x       y       z     vdW  Elec       q    Type
                         _______ _______ _______ _____ _____    ______ ____

>  <TORSDO>
F 16

$$$$
=
 OpenBabel10232410353D

 50 57  0  0  1  0  0  0  0  0999 V2000
  188.5920  179.1290  141.4070 C   0  0  0  0  0  2  0  0  0  0  0  0
  187.6250  177.9710  141.1790 C   0  0  1  0  0  0  0  0  0  0  0  0
  189.0740  177.8980  140.6500 C   0  0  1  0  0  0  0  0  0  0  0  0
  187.2890  177.3100  142.5070 C   0  0  0  0  0  1  0  0  0  0  0  0
  189.6830  176.8310  135.8280 C   0  0  0  0  0  0  0  0  0  0  0  0
  189.4010  177.6180  137.0240 C   0  0  0  0  0  0  0  0  0  0  0  0
  190.1690  174.9400  137.4710 C   0  0  0  0  0  3  0  0  0  0  0  0
  189.8250  175.6980  138.4780 N   0  0  0  0  0  0  0  0  0  0  0  0
  189.1450  178.9330  137.1220 N   0  0  0  0  0  0  0  0  0  0  0  0
  189.4570  177.2930  134.6780 O   0  0  0  0  0  0  0  0  0  0  0  0
  189.4490  177.0620  138.2650 C   0  0  0  0  0  0  0  0  0  0  0  0
  189.2070  178.0090  139.1890 N   0  0  0  0  0  0  0  0  0  0  0  0
  189.0260  179.1430  138.4630 C   0  0  0  0  0  3  0  0  0  0  0  0
  190.1960  175.4220  136.0200 C   0  0  0  0  0  2  0  0  0  0  0  0
  190.0330  176.8970  141.3390 C   0  0  0  0  0  2  0  0  0  0  0  0
  191.0740  176.1360  143.3850 C   0  0  2  0  0  3  0  0  0  0  0  0
  192.0320  177.0310  142.7250 N   0  0  0  0  0  2  0  0  0  0  0  0
  190.5820  177.3180  142.7010 C   0  0  1  0  0  3  0  0  0  0  0  0
  191.1540  176.3410  144.8950 C   0  0  0  0  0  2  0  0  0  0  0  0
  191.0590  177.8300  145.2470 C   0  0  0  0  0  2  0  0  0  0  0  0
  189.9390  176.8120  147.2390 C   0  0  0  0  0  2  0  0  0  0  0  0
  188.8600  177.1120  146.2080 C   0  0  2  0  0  3  0  0  0  0  0  0
  190.0470  178.0370  146.3660 C   0  0  2  0  0  3  0  0  0  0  0  0
  187.7390  177.7630  146.8630 N   0  0  0  0  0  2  0  0  0  0  0  0
  185.9970  176.8540  145.5970 O   0  0  0  0  0  0  0  0  0  0  0  0
  186.4160  177.7880  146.3330 C   0  0  0  0  0  0  0  0  0  0  0  0
  185.5580  178.9370  146.6420 C   0  0  0  0  0  0  0  0  0  0  0  0
  185.9300  179.8240  147.4650 O   0  0  0  0  0  0  0  0  0  0  0  0
  184.3130  179.0140  146.0170 O   0  0  0  0  0  0  0  0  0  0  0  0
  182.9320  178.7740  144.0560 C   0  0  0  0  0  1  0  0  0  0  0  0
  184.1360  179.4650  144.6750 C   0  0  0  0  0  2  0  0  0  0  0  0
  186.5010  178.4280  140.2550 C   0  0  0  0  0  2  0  0  0  0  0  0
  185.2750  178.9260  141.0020 C   0  0  0  0  0  2  0  0  0  0  0  0
  184.1560  178.1200  140.7370 O   0  0  0  0  0  0  0  0  0  0  0  0
  183.1670  179.0360  140.3280 C   0  0  0  0  0  2  0  0  0  0  0  0
  183.2840  179.3640  138.8380 C   0  0  0  0  0  2  0  0  0  0  0  0
  186.7860  174.0260  136.1690 N   0  0  0  0  0  0  0  0  0  0  0  0
  183.3620  177.2540  137.4590 C   0  0  0  0  0  0  0  0  0  0  0  0
  181.7850  173.9690  137.0310 C   0  0  0  0  0  1  0  0  0  0  0  0
  182.7380  175.0200  136.7170 N   0  0  0  0  0  0  0  0  0  0  0  0
  184.1230  174.7000  136.4820 C   0  0  1  0  0  3  0  0  0  0  0  0
  185.1420  175.6200  136.8440 C   0  0  0  0  0  0  0  0  0  0  0  0
  184.8300  176.9550  137.4940 C   0  0  0  0  0  3  0  0  0  0  0  0
  186.4750  175.2400  136.6890 C   0  0  0  0  0  3  0  0  0  0  0  0
  182.7300  178.3100  137.9990 N   0  0  0  0  0  0  0  0  0  0  0  0
  184.4790  173.4630  135.9330 C   0  0  0  0  0  3  0  0  0  0  0  0
  185.8260  173.1470  135.7720 C   0  0  0  0  0  3  0  0  0  0  0  0
  181.4090  178.0520  137.8580 C   0  0  0  0  0  3  0  0  0  0  0  0
  182.4170  176.3820  137.0100 C   0  0  0  0  0  0  0  0  0  0  0  0
  181.1820  176.8560  137.2670 N   0  0  0  0  0  0  0  0  0  0  0  0
  2  1  1  0  0  0  0
  2  4  1  1  0  0  0
  3  2  1  0  0  0  0
  3 15  1  1  0  0  0
  3  1  1  0  0  0  0
  5 14  1  0  0  0  0
  5  6  1  0  0  0  0
  6  9  1  0  0  0  0
  6 11  2  0  0  0  0
  7  8  2  0  0  0  0
  9 13  2  0  0  0  0
 10  5  2  0  0  0  0
 11  8  1  0  0  0  0
 11 12  1  0  0  0  0
 12  3  1  0  0  0  0
 13 12  1  0  0  0  0
 14  7  1  0  0  0  0
 16 19  1  1  0  0  0
 17 16  1  0  0  0  0
 18 15  1  6  0  0  0
 18 17  1  0  0  0  0
 18 16  1  0  0  0  0
 19 20  1  0  0  0  0
 22 23  1  0  0  0  0
 22 24  1  1  0  0  0
 22 21  1  0  0  0  0
 23 20  1  6  0  0  0
 23 21  1  0  0  0  0
 25 26  2  0  0  0  0
 26 27  1  0  0  0  0
 26 24  1  0  0  0  0
 27 28  2  0  0  0  0
 29 27  1  0  0  0  0
 30 31  1  0  0  0  0
 31 29  1  0  0  0  0
 32 33  1  0  0  0  0
 32  2  1  0  0  0  0
 34 33  1  0  0  0  0
 35 34  1  0  0  0  0
 36 35  1  0  0  0  0
 37 44  2  0  0  0  0
 38 43  1  0  0  0  0
 38 45  1  0  0  0  0
 40 49  1  0  0  0  0
 40 39  1  0  0  0  0
 41 46  1  1  0  0  0
 41 40  1  0  0  0  0
 41 42  1  0  0  0  0
 42 43  2  0  0  0  0
 44 42  1  0  0  0  0
 45 36  1  0  0  0  0
 47 46  2  0  0  0  0
 47 37  1  0  0  0  0
 48 45  1  0  0  0  0
 49 50  1  0  0  0  0
 49 38  2  0  0  0  0
 50 48  2  0  0  0  0
M  END
>  <MODEL>
4

>  <REMARK>
 VINA RESULT:      -7.3      1.965      8.240
  Name = 
  16 active torsions:
  status: ('A' for Active; 'I' for Inactive)
    1  A    between atoms: N_10  and  C_40
    2  A    between atoms: C_11  and  C_19
    3  A    between atoms: C_15  and  C_25
    4  A    between atoms: C_15  and  C_28
    5  A    between atoms: C_16  and  C_20
    6  A    between atoms: C_16  and  N_38
    7  A    between atoms: O_18  and  C_24
    8  A    between atoms: O_18  and  C_44
    9  A    between atoms: C_19  and  C_34
   10  A    between atoms: C_20  and  O_31
   11  A    between atoms: C_23  and  C_47
   12  A    between atoms: C_24  and  C_29
   13  A    between atoms: C_28  and  O_31
   14  A    between atoms: C_34  and  C_49
   15  A    between atoms: C_35  and  N_36
   16  A    between atoms: C_35  and  C_47
                            x       y       z     vdW  Elec       q    Type
                         _______ _______ _______ _____ _____    ______ ____

>  <TORSDO>
F 16

$$$$
=
 OpenBabel10232410353D

 50 57  0  0  1  0  0  0  0  0999 V2000
  189.5450  175.7900  138.4210 C   0  0  0  0  0  2  0  0  0  0  0  0
  190.3460  177.0130  138.8540 C   0  0  1  0  0  0  0  0  0  0  0  0
  190.3660  176.5430  137.3830 C   0  0  1  0  0  0  0  0  0  0  0  0
  189.4000  178.1330  139.2580 C   0  0  0  0  0  1  0  0  0  0  0  0
  193.7230  173.5170  135.3000 C   0  0  0  0  0  0  0  0  0  0  0  0
  193.1840  174.6810  135.9960 C   0  0  0  0  0  0  0  0  0  0  0  0
  191.3130  172.6770  135.3290 C   0  0  0  0  0  3  0  0  0  0  0  0
  190.9100  173.7880  135.8860 N   0  0  0  0  0  0  0  0  0  0  0  0
  193.8480  175.7120  136.5440 N   0  0  0  0  0  0  0  0  0  0  0  0
  194.9190  173.4900  134.9070 O   0  0  0  0  0  0  0  0  0  0  0  0
  191.8520  174.8040  136.2440 C   0  0  0  0  0  0  0  0  0  0  0  0
  191.6300  175.9320  136.9440 N   0  0  0  0  0  0  0  0  0  0  0  0
  192.8680  176.4650  137.1140 C   0  0  0  0  0  3  0  0  0  0  0  0
  192.7770  172.3720  135.0120 C   0  0  0  0  0  2  0  0  0  0  0  0
  189.6540  177.4390  136.3400 C   0  0  0  0  0  2  0  0  0  0  0  0
  187.3920  177.6940  135.5240 C   0  0  2  0  0  3  0  0  0  0  0  0
  188.2630  177.6040  134.3470 N   0  0  0  0  0  2  0  0  0  0  0  0
  188.5230  176.7850  135.5490 C   0  0  1  0  0  3  0  0  0  0  0  0
  186.0810  176.9680  135.2350 C   0  0  0  0  0  2  0  0  0  0  0  0
  185.8680  175.8150  136.2230 C   0  0  0  0  0  2  0  0  0  0  0  0
  183.8130  177.1480  136.7310 C   0  0  0  0  0  2  0  0  0  0  0  0
  184.9460  177.7080  137.5800 C   0  0  2  0  0  3  0  0  0  0  0  0
  184.8650  176.2250  137.2920 C   0  0  2  0  0  3  0  0  0  0  0  0
  184.4790  177.8910  138.9420 N   0  0  0  0  0  2  0  0  0  0  0  0
  184.2110  180.2140  138.9290 O   0  0  0  0  0  0  0  0  0  0  0  0
  184.4030  179.1590  139.5920 C   0  0  0  0  0  0  0  0  0  0  0  0
  184.5770  179.2120  141.0470 C   0  0  0  0  0  0  0  0  0  0  0  0
  185.7130  179.4360  141.5590 O   0  0  0  0  0  0  0  0  0  0  0  0
  183.4580  178.9890  141.8500 O   0  0  0  0  0  0  0  0  0  0  0  0
  181.0610  179.1400  142.0570 C   0  0  0  0  0  1  0  0  0  0  0  0
  182.2270  178.4670  141.3510 C   0  0  0  0  0  2  0  0  0  0  0  0
  191.4560  176.5780  139.8050 C   0  0  0  0  0  2  0  0  0  0  0  0
  191.4660  177.3580  141.1090 C   0  0  0  0  0  2  0  0  0  0  0  0
  190.9890  176.5750  142.1730 O   0  0  0  0  0  0  0  0  0  0  0  0
  191.7010  177.0510  143.2910 C   0  0  0  0  0  2  0  0  0  0  0  0
  191.5060  176.1480  144.5120 C   0  0  0  0  0  2  0  0  0  0  0  0
  184.9610  178.3720  144.8260 N   0  0  0  0  0  0  0  0  0  0  0  0
  189.6340  177.3080  145.7400 C   0  0  0  0  0  0  0  0  0  0  0  0
  187.7910  177.3530  148.9130 C   0  0  0  0  0  1  0  0  0  0  0  0
  188.0980  177.8010  147.5650 N   0  0  0  0  0  0  0  0  0  0  0  0
  187.0380  178.0460  146.6200 C   0  0  0  0  0  0  0  0  0  0  0  0
  187.2450  177.8100  145.2350 C   0  0  0  0  0  0  0  0  0  0  0  0
  188.5620  177.2900  144.6930 C   0  0  0  0  0  3  0  0  0  0  0  0
  186.1700  177.9680  144.3600 C   0  0  0  0  0  2  0  0  0  0  0  0
  190.8950  176.8580  145.6270 N   0  0  0  0  0  0  0  0  0  0  0  0
  185.7830  178.4780  147.0630 C   0  0  0  0  0  3  0  0  0  0  0  0
  184.7530  178.6480  146.1410 C   0  0  0  0  0  3  0  0  0  0  0  0
  191.4180  176.9310  146.8730 C   0  0  0  0  0  3  0  0  0  0  0  0
  189.4190  177.6370  147.0450 C   0  0  0  0  0  0  0  0  0  0  0  0
  190.5230  177.3910  147.7780 N   0  0  0  0  0  0  0  0  0  0  0  0
  1  2  1  0  0  0  0
  2  4  1  1  0  0  0
  2 32  1  0  0  0  0
  3 15  1  6  0  0  0
  3  1  1  0  0  0  0
  3  2  1  0  0  0  0
  5  6  1  0  0  0  0
  6 11  2  0  0  0  0
  6  9  1  0  0  0  0
  7  8  2  0  0  0  0
  8 11  1  0  0  0  0
  9 13  2  0  0  0  0
 10  5  2  0  0  0  0
 11 12  1  0  0  0  0
 12 13  1  0  0  0  0
 12  3  1  0  0  0  0
 14  5  1  0  0  0  0
 14  7  1  0  0  0  0
 16 19  1  6  0  0  0
 16 18  1  0  0  0  0
 17 16  1  0  0  0  0
 17 18  1  0  0  0  0
 18 15  1  1  0  0  0
 19 20  1  0  0  0  0
 21 23  1  0  0  0  0
 21 22  1  0  0  0  0
 22 24  1  1  0  0  0
 23 20  1  6  0  0  0
 23 22  1  0  0  0  0
 24 26  1  0  0  0  0
 25 26  2  0  0  0  0
 26 27  1  0  0  0  0
 27 28  2  0  0  0  0
 27 29  1  0  0  0  0
 31 29  1  0  0  0  0
 31 30  1  0  0  0  0
 32 33  1  0  0  0  0
 33 34  1  0  0  0  0
 34 35  1  0  0  0  0
 35 36  1  0  0  0  0
 36 45  1  0  0  0  0
 37 47  2  0  0  0  0
 38 49  2  0  0  0  0
 40 39  1  0  0  0  0
 41 46  2  0  0  0  0
 41 40  1  0  0  0  0
 42 41  1  0  0  0  0
 43 42  2  0  0  0  0
 43 38  1  0  0  0  0
 44 37  1  0  0  0  0
 44 42  1  0  0  0  0
 45 38  1  0  0  0  0
 45 48  1  0  0  0  0
 47 46  1  0  0  0  0
 48 50  2  0  0  0  0
 49 40  1  0  0  0  0
 49 50  1  0  0  0  0
M  END
>  <MODEL>
5

>  <REMARK>
 VINA RESULT:      -7.3      1.893      3.339
  Name = 
  16 active torsions:
  status: ('A' for Active; 'I' for Inactive)
    1  A    between atoms: N_10  and  C_40
    2  A    between atoms: C_11  and  C_19
    3  A    between atoms: C_15  and  C_25
    4  A    between atoms: C_15  and  C_28
    5  A    between atoms: C_16  and  C_20
    6  A    between atoms: C_16  and  N_38
    7  A    between atoms: O_18  and  C_24
    8  A    between atoms: O_18  and  C_44
    9  A    between atoms: C_19  and  C_34
   10  A    between atoms: C_20  and  O_31
   11  A    between atoms: C_23  and  C_47
   12  A    between atoms: C_24  and  C_29
   13  A    between atoms: C_28  and  O_31
   14  A    between atoms: C_34  and  C_49
   15  A    between atoms: C_35  and  N_36
   16  A    between atoms: C_35  and  C_47
                            x       y       z     vdW  Elec       q    Type
                         _______ _______ _______ _____ _____    ______ ____

>  <TORSDO>
F 16

$$$$
=
 OpenBabel10232410353D

 50 57  0  0  1  0  0  0  0  0999 V2000
  190.1520  176.4880  136.1220 C   0  0  0  0  0  2  0  0  0  0  0  0
  189.7420  176.0450  137.5220 C   0  0  1  0  0  0  0  0  0  0  0  0
  189.2790  175.2510  136.2820 C   0  0  1  0  0  0  0  0  0  0  0  0
  190.9630  175.5670  138.2910 C   0  0  0  0  0  1  0  0  0  0  0  0
  184.3290  174.7280  136.2680 C   0  0  0  0  0  0  0  0  0  0  0  0
  185.6440  175.2630  135.9290 C   0  0  0  0  0  0  0  0  0  0  0  0
  185.6370  173.0500  137.6790 C   0  0  0  0  0  3  0  0  0  0  0  0
  186.7620  173.6420  137.3790 N   0  0  0  0  0  0  0  0  0  0  0  0
  185.9570  176.2140  135.0320 N   0  0  0  0  0  0  0  0  0  0  0  0
  183.2750  175.3150  135.9080 O   0  0  0  0  0  0  0  0  0  0  0  0
  186.7800  174.7550  136.4800 C   0  0  0  0  0  0  0  0  0  0  0  0
  187.8490  175.3830  135.9590 N   0  0  0  0  0  0  0  0  0  0  0  0
  187.3160  176.2680  135.0760 C   0  0  0  0  0  3  0  0  0  0  0  0
  184.2790  173.4800  137.1210 C   0  0  0  0  0  2  0  0  0  0  0  0
  189.8890  173.8440  136.0690 C   0  0  0  0  0  2  0  0  0  0  0  0
  192.0230  172.7300  135.8350 C   0  0  2  0  0  3  0  0  0  0  0  0
  191.2720  172.4820  134.5970 N   0  0  0  0  0  2  0  0  0  0  0  0
  191.1980  173.7890  135.2830 C   0  0  1  0  0  3  0  0  0  0  0  0
  193.4980  172.9190  135.4970 C   0  0  0  0  0  2  0  0  0  0  0  0
  194.2940  171.6440  135.7990 C   0  0  0  0  0  2  0  0  0  0  0  0
  195.6510  170.8470  137.7450 C   0  0  0  0  0  2  0  0  0  0  0  0
  194.9490  172.1300  138.1670 C   0  0  2  0  0  3  0  0  0  0  0  0
  195.4420  171.9600  136.7480 C   0  0  2  0  0  3  0  0  0  0  0  0
  195.9020  173.0000  138.8340 N   0  0  0  0  0  2  0  0  0  0  0  0
  194.9910  175.0680  138.2360 O   0  0  0  0  0  0  0  0  0  0  0  0
  196.0000  174.4020  138.5940 C   0  0  0  0  0  0  0  0  0  0  0  0
  197.3070  175.0500  138.7480 C   0  0  0  0  0  0  0  0  0  0  0  0
  197.7840  175.2870  139.8970 O   0  0  0  0  0  0  0  0  0  0  0  0
  198.0000  175.4130  137.5930 O   0  0  0  0  0  0  0  0  0  0  0  0
  199.7510  173.8130  137.1640 C   0  0  0  0  0  1  0  0  0  0  0  0
  198.4830  174.4680  136.6390 C   0  0  0  0  0  2  0  0  0  0  0  0
  188.8250  177.0980  138.1360 C   0  0  0  0  0  2  0  0  0  0  0  0
  189.4920  177.9050  139.2370 C   0  0  0  0  0  2  0  0  0  0  0  0
  188.5780  178.7760  139.8530 O   0  0  0  0  0  0  0  0  0  0  0  0
  188.2440  178.1220  141.0550 C   0  0  0  0  0  2  0  0  0  0  0  0
  186.8710  178.5570  141.5720 C   0  0  0  0  0  2  0  0  0  0  0  0
  191.7020  176.7640  146.1910 N   0  0  0  0  0  0  0  0  0  0  0  0
  187.5240  177.7400  143.8670 C   0  0  0  0  0  0  0  0  0  0  0  0
  187.0590  178.3760  147.4510 C   0  0  0  0  0  1  0  0  0  0  0  0
  187.5990  177.6710  146.3010 N   0  0  0  0  0  0  0  0  0  0  0  0
  188.9930  177.3100  146.2580 C   0  0  0  0  0  0  0  0  0  0  0  0
  189.6860  177.2750  145.0190 C   0  0  0  0  0  0  0  0  0  0  0  0
  189.0090  177.6190  143.7060 C   0  0  0  0  0  3  0  0  0  0  0  0
  191.0560  177.0130  145.0230 C   0  0  0  0  0  2  0  0  0  0  0  0
  186.6270  178.0960  142.9330 N   0  0  0  0  0  0  0  0  0  0  0  0
  189.6870  177.0320  147.4410 C   0  0  0  0  0  3  0  0  0  0  0  0
  191.0500  176.7470  147.3840 C   0  0  0  0  0  3  0  0  0  0  0  0
  185.4520  178.2290  143.5920 C   0  0  0  0  0  3  0  0  0  0  0  0
  186.8790  177.6690  145.0660 C   0  0  0  0  0  0  0  0  0  0  0  0
  185.5790  177.9900  144.9170 N   0  0  0  0  0  0  0  0  0  0  0  0
  1  3  1  0  0  0  0
  1  2  1  0  0  0  0
  2 32  1  0  0  0  0
  2  4  1  1  0  0  0
  3 15  1  6  0  0  0
  3  2  1  0  0  0  0
  5 14  1  0  0  0  0
  6  5  1  0  0  0  0
  6 11  2  0  0  0  0
  8  7  2  0  0  0  0
  9 13  2  0  0  0  0
  9  6  1  0  0  0  0
 10  5  2  0  0  0  0
 11  8  1  0  0  0  0
 12  3  1  0  0  0  0
 12 11  1  0  0  0  0
 13 12  1  0  0  0  0
 14  7  1  0  0  0  0
 16 19  1  6  0  0  0
 17 18  1  0  0  0  0
 17 16  1  0  0  0  0
 18 16  1  0  0  0  0
 18 15  1  1  0  0  0
 19 20  1  0  0  0  0
 21 22  1  0  0  0  0
 22 24  1  1  0  0  0
 23 20  1  6  0  0  0
 23 21  1  0  0  0  0
 23 22  1  0  0  0  0
 25 26  2  0  0  0  0
 26 27  1  0  0  0  0
 26 24  1  0  0  0  0
 27 28  2  0  0  0  0
 29 27  1  0  0  0  0
 31 30  1  0  0  0  0
 31 29  1  0  0  0  0
 32 33  1  0  0  0  0
 33 34  1  0  0  0  0
 34 35  1  0  0  0  0
 35 36  1  0  0  0  0
 36 45  1  0  0  0  0
 37 47  2  0  0  0  0
 38 49  2  0  0  0  0
 40 39  1  0  0  0  0
 41 40  1  0  0  0  0
 41 46  2  0  0  0  0
 42 44  1  0  0  0  0
 42 41  1  0  0  0  0
 43 38  1  0  0  0  0
 43 42  2  0  0  0  0
 44 37  1  0  0  0  0
 45 48  1  0  0  0  0
 45 38  1  0  0  0  0
 47 46  1  0  0  0  0
 48 50  2  0  0  0  0
 49 40  1  0  0  0  0
 50 49  1  0  0  0  0
M  END
>  <MODEL>
6

>  <REMARK>
 VINA RESULT:      -7.1      2.868      8.190
  Name = 
  16 active torsions:
  status: ('A' for Active; 'I' for Inactive)
    1  A    between atoms: N_10  and  C_40
    2  A    between atoms: C_11  and  C_19
    3  A    between atoms: C_15  and  C_25
    4  A    between atoms: C_15  and  C_28
    5  A    between atoms: C_16  and  C_20
    6  A    between atoms: C_16  and  N_38
    7  A    between atoms: O_18  and  C_24
    8  A    between atoms: O_18  and  C_44
    9  A    between atoms: C_19  and  C_34
   10  A    between atoms: C_20  and  O_31
   11  A    between atoms: C_23  and  C_47
   12  A    between atoms: C_24  and  C_29
   13  A    between atoms: C_28  and  O_31
   14  A    between atoms: C_34  and  C_49
   15  A    between atoms: C_35  and  N_36
   16  A    between atoms: C_35  and  C_47
                            x       y       z     vdW  Elec       q    Type
                         _______ _______ _______ _____ _____    ______ ____

>  <TORSDO>
F 16

$$$$
=
 OpenBabel10232410353D

 50 57  0  0  1  0  0  0  0  0999 V2000
  190.9960  174.1750  137.3370 C   0  0  0  0  0  2  0  0  0  0  0  0
  191.1330  175.0360  136.0850 C   0  0  1  0  0  0  0  0  0  0  0  0
  190.1290  175.4190  137.1940 C   0  0  1  0  0  0  0  0  0  0  0  0
  192.4990  175.7030  136.0650 C   0  0  0  0  0  1  0  0  0  0  0  0
  185.5660  176.0010  135.2950 C   0  0  0  0  0  0  0  0  0  0  0  0
  186.6830  175.3660  135.9870 C   0  0  0  0  0  0  0  0  0  0  0  0
  187.1400  177.9980  135.0780 C   0  0  0  0  0  3  0  0  0  0  0  0
  188.1070  177.3240  135.6420 N   0  0  0  0  0  0  0  0  0  0  0  0
  186.7100  174.1870  136.6320 N   0  0  0  0  0  0  0  0  0  0  0  0
  184.5260  175.3510  135.0080 O   0  0  0  0  0  0  0  0  0  0  0  0
  187.8820  175.9950  136.1220 C   0  0  0  0  0  0  0  0  0  0  0  0
  188.7130  175.2210  136.8440 N   0  0  0  0  0  0  0  0  0  0  0  0
  187.9700  174.1250  137.1430 C   0  0  0  0  0  3  0  0  0  0  0  0
  185.7280  177.4460  134.8790 C   0  0  0  0  0  2  0  0  0  0  0  0
  190.4440  176.6790  138.0360 C   0  0  0  0  0  2  0  0  0  0  0  0
  190.9030  177.4190  140.2920 C   0  0  2  0  0  3  0  0  0  0  0  0
  189.6370  178.0430  139.8870 N   0  0  0  0  0  2  0  0  0  0  0  0
  189.9650  176.6590  139.4860 C   0  0  1  0  0  3  0  0  0  0  0  0
  190.8250  177.0420  141.7680 C   0  0  0  0  0  2  0  0  0  0  0  0
  189.9470  178.0350  142.5380 C   0  0  0  0  0  2  0  0  0  0  0  0
  188.6540  175.9860  143.1640 C   0  0  0  0  0  2  0  0  0  0  0  0
  187.7210  177.1810  143.3090 C   0  0  2  0  0  3  0  0  0  0  0  0
  189.1900  177.3120  143.6440 C   0  0  2  0  0  3  0  0  0  0  0  0
  187.0150  177.0870  144.5740 N   0  0  0  0  0  2  0  0  0  0  0  0
  185.5860  178.9210  144.3330 O   0  0  0  0  0  0  0  0  0  0  0  0
  186.1890  178.1230  145.1010 C   0  0  0  0  0  0  0  0  0  0  0  0
  186.0730  178.2550  146.5570 C   0  0  0  0  0  0  0  0  0  0  0  0
  185.2340  179.0500  147.0740 O   0  0  0  0  0  0  0  0  0  0  0  0
  186.9290  177.4940  147.3550 O   0  0  0  0  0  0  0  0  0  0  0  0
  189.3390  177.5240  147.3820 C   0  0  0  0  0  1  0  0  0  0  0  0
  188.0630  178.0380  148.0290 C   0  0  0  0  0  2  0  0  0  0  0  0
  190.6590  174.2410  134.8730 C   0  0  0  0  0  2  0  0  0  0  0  0
  191.0960  172.7860  134.9020 C   0  0  0  0  0  2  0  0  0  0  0  0
  192.3760  172.6290  134.3460 O   0  0  0  0  0  0  0  0  0  0  0  0
  192.6900  171.2780  134.5920 C   0  0  0  0  0  2  0  0  0  0  0  0
  193.5550  171.1170  135.8440 C   0  0  0  0  0  2  0  0  0  0  0  0
  196.6790  175.3920  140.3000 N   0  0  0  0  0  0  0  0  0  0  0  0
  195.5250  172.5440  136.5100 C   0  0  0  0  0  0  0  0  0  0  0  0
  199.1670  172.4910  136.9610 C   0  0  0  0  0  1  0  0  0  0  0  0
  197.8500  173.1060  136.9720 N   0  0  0  0  0  0  0  0  0  0  0  0
  197.4410  173.9300  138.0820 C   0  0  1  0  0  3  0  0  0  0  0  0
  196.0780  173.9710  138.4780 C   0  0  0  0  0  0  0  0  0  0  0  0
  195.0080  173.1580  137.7750 C   0  0  0  0  0  3  0  0  0  0  0  0
  195.7310  174.7050  139.6130 C   0  0  0  0  0  3  0  0  0  0  0  0
  194.8740  171.7130  135.6780 N   0  0  0  0  0  0  0  0  0  0  0  0
  198.3890  174.6640  138.8040 C   0  0  0  0  0  3  0  0  0  0  0  0
  197.9820  175.4040  139.9110 C   0  0  0  0  0  3  0  0  0  0  0  0
  195.8010  171.2970  134.7840 C   0  0  0  0  0  3  0  0  0  0  0  0
  196.8260  172.6080  136.1080 C   0  0  0  0  0  0  0  0  0  0  0  0
  197.0240  171.8180  135.0350 N   0  0  0  0  0  0  0  0  0  0  0  0
  2  4  1  6  0  0  0
  2  3  1  0  0  0  0
  2  1  1  0  0  0  0
  3  1  1  0  0  0  0
  3 15  1  1  0  0  0
  5  6  1  0  0  0  0
  6 11  2  0  0  0  0
  6  9  1  0  0  0  0
  7  8  2  0  0  0  0
  8 11  1  0  0  0  0
  9 13  2  0  0  0  0
 10  5  2  0  0  0  0
 11 12  1  0  0  0  0
 12 13  1  0  0  0  0
 12  3  1  0  0  0  0
 14  7  1  0  0  0  0
 14  5  1  0  0  0  0
 16 19  1  1  0  0  0
 17 16  1  0  0  0  0
 18 15  1  6  0  0  0
 18 17  1  0  0  0  0
 18 16  1  0  0  0  0
 19 20  1  0  0  0  0
 21 22  1  0  0  0  0
 21 23  1  0  0  0  0
 22 23  1  0  0  0  0
 22 24  1  1  0  0  0
 23 20  1  6  0  0  0
 24 26  1  0  0  0  0
 25 26  2  0  0  0  0
 26 27  1  0  0  0  0
 27 28  2  0  0  0  0
 27 29  1  0  0  0  0
 29 31  1  0  0  0  0
 30 31  1  0  0  0  0
 32 33  1  0  0  0  0
 32  2  1  0  0  0  0
 34 35  1  0  0  0  0
 34 33  1  0  0  0  0
 35 36  1  0  0  0  0
 38 43  1  0  0  0  0
 39 40  1  0  0  0  0
 40 41  1  0  0  0  0
 41 42  1  0  0  0  0
 41 46  1  1  0  0  0
 42 44  1  0  0  0  0
 43 42  2  0  0  0  0
 44 37  2  0  0  0  0
 45 36  1  0  0  0  0
 45 38  1  0  0  0  0
 46 47  2  0  0  0  0
 47 37  1  0  0  0  0
 48 50  2  0  0  0  0
 48 45  1  0  0  0  0
 49 38  2  0  0  0  0
 49 40  1  0  0  0  0
 50 49  1  0  0  0  0
M  END
>  <MODEL>
7

>  <REMARK>
 VINA RESULT:      -6.9      3.346      8.217
  Name = 
  16 active torsions:
  status: ('A' for Active; 'I' for Inactive)
    1  A    between atoms: N_10  and  C_40
    2  A    between atoms: C_11  and  C_19
    3  A    between atoms: C_15  and  C_25
    4  A    between atoms: C_15  and  C_28
    5  A    between atoms: C_16  and  C_20
    6  A    between atoms: C_16  and  N_38
    7  A    between atoms: O_18  and  C_24
    8  A    between atoms: O_18  and  C_44
    9  A    between atoms: C_19  and  C_34
   10  A    between atoms: C_20  and  O_31
   11  A    between atoms: C_23  and  C_47
   12  A    between atoms: C_24  and  C_29
   13  A    between atoms: C_28  and  O_31
   14  A    between atoms: C_34  and  C_49
   15  A    between atoms: C_35  and  N_36
   16  A    between atoms: C_35  and  C_47
                            x       y       z     vdW  Elec       q    Type
                         _______ _______ _______ _____ _____    ______ ____

>  <TORSDO>
F 16

$$$$
=
 OpenBabel10232410353D

 50 57  0  0  1  0  0  0  0  0999 V2000
  187.9340  176.5510  142.2650 C   0  0  0  0  0  2  0  0  0  0  0  0
  187.4880  178.0080  142.2070 C   0  0  1  0  0  0  0  0  0  0  0  0
  188.7570  177.6070  142.9900 C   0  0  1  0  0  0  0  0  0  0  0  0
  187.6340  178.5360  140.7880 C   0  0  0  0  0  1  0  0  0  0  0  0
  189.7530  177.5580  147.8660 C   0  0  0  0  0  0  0  0  0  0  0  0
  188.9970  177.7430  146.6320 C   0  0  0  0  0  0  0  0  0  0  0  0
  191.6030  176.7050  146.3290 C   0  0  0  0  0  3  0  0  0  0  0  0
  190.8800  176.9730  145.2740 N   0  0  0  0  0  0  0  0  0  0  0  0
  187.7080  178.0910  146.4810 N   0  0  0  0  0  0  0  0  0  0  0  0
  189.3080  177.9730  148.9690 O   0  0  0  0  0  0  0  0  0  0  0  0
  189.5510  177.4840  145.4160 C   0  0  0  0  0  0  0  0  0  0  0  0
  188.6300  177.6790  144.4550 N   0  0  0  0  0  0  0  0  0  0  0  0
  187.5130  178.0470  145.1340 C   0  0  0  0  0  3  0  0  0  0  0  0
  191.1160  176.9110  147.7640 C   0  0  0  0  0  2  0  0  0  0  0  0
  190.1220  178.0520  142.4110 C   0  0  0  0  0  2  0  0  0  0  0  0
  190.9800  177.3550  140.2590 C   0  0  2  0  0  3  0  0  0  0  0  0
  192.1410  177.6100  141.1210 N   0  0  0  0  0  2  0  0  0  0  0  0
  190.9160  176.9830  141.6610 C   0  0  1  0  0  3  0  0  0  0  0  0
  191.2740  176.1560  139.3630 C   0  0  0  0  0  2  0  0  0  0  0  0
  191.4620  176.5990  137.9070 C   0  0  0  0  0  2  0  0  0  0  0  0
  193.0350  175.2450  136.5090 C   0  0  0  0  0  2  0  0  0  0  0  0
  193.4350  175.0550  137.9650 C   0  0  2  0  0  3  0  0  0  0  0  0
  192.9100  176.3890  137.4830 C   0  0  2  0  0  3  0  0  0  0  0  0
  194.8740  175.1980  138.0890 N   0  0  0  0  0  2  0  0  0  0  0  0
  195.3530  173.1700  139.1500 O   0  0  0  0  0  0  0  0  0  0  0  0
  195.6870  174.3620  138.9110 C   0  0  0  0  0  0  0  0  0  0  0  0
  196.9080  174.9270  139.4940 C   0  0  0  0  0  0  0  0  0  0  0  0
  196.9840  175.1750  140.7330 O   0  0  0  0  0  0  0  0  0  0  0  0
  197.9770  175.2000  138.6390 O   0  0  0  0  0  0  0  0  0  0  0  0
  198.1070  174.8050  136.2650 C   0  0  0  0  0  1  0  0  0  0  0  0
  198.4450  174.2820  137.6520 C   0  0  0  0  0  2  0  0  0  0  0  0
  186.1590  178.1600  142.9390 C   0  0  0  0  0  2  0  0  0  0  0  0
  184.9530  178.0310  142.0240 C   0  0  0  0  0  2  0  0  0  0  0  0
  184.4100  179.2900  141.7190 O   0  0  0  0  0  0  0  0  0  0  0  0
  183.6380  179.0560  140.5640 C   0  0  0  0  0  2  0  0  0  0  0  0
  184.4770  179.1780  139.2900 C   0  0  0  0  0  2  0  0  0  0  0  0
  189.3570  176.8300  134.9810 N   0  0  0  0  0  0  0  0  0  0  0  0
  185.2970  177.4880  137.6070 C   0  0  0  0  0  0  0  0  0  0  0  0
  185.7760  173.8920  137.0540 C   0  0  0  0  0  1  0  0  0  0  0  0
  185.8340  175.2970  136.6880 N   0  0  0  0  0  0  0  0  0  0  0  0
  187.0140  175.8380  136.0620 C   0  0  0  0  0  0  0  0  0  0  0  0
  187.3990  177.1830  136.3030 C   0  0  0  0  0  0  0  0  0  0  0  0
  186.6110  178.0970  137.2210 C   0  0  0  0  0  3  0  0  0  0  0  0
  188.5970  177.6460  135.7560 C   0  0  0  0  0  2  0  0  0  0  0  0
  184.3820  177.9870  138.4550 N   0  0  0  0  0  0  0  0  0  0  0  0
  187.8130  175.0300  135.2450 C   0  0  0  0  0  3  0  0  0  0  0  0
  188.9830  175.5530  134.7000 C   0  0  0  0  0  3  0  0  0  0  0  0
  183.4610  177.0090  138.6110 C   0  0  0  0  0  3  0  0  0  0  0  0
  184.9150  176.2230  137.2730 C   0  0  0  0  0  0  0  0  0  0  0  0
  183.7730  175.8960  137.9070 N   0  0  0  0  0  0  0  0  0  0  0  0
  1  3  1  0  0  0  0
  2  4  1  6  0  0  0
  2  1  1  0  0  0  0
  2 32  1  0  0  0  0
  2  3  1  0  0  0  0
  3 15  1  6  0  0  0
  3 12  1  0  0  0  0
  5 10  2  0  0  0  0
  6  5  1  0  0  0  0
  7 14  1  0  0  0  0
  8 11  1  0  0  0  0
  8  7  2  0  0  0  0
  9  6  1  0  0  0  0
 11  6  2  0  0  0  0
 12 13  1  0  0  0  0
 12 11  1  0  0  0  0
 13  9  2  0  0  0  0
 14  5  1  0  0  0  0
 16 19  1  6  0  0  0
 16 17  1  0  0  0  0
 16 18  1  0  0  0  0
 17 18  1  0  0  0  0
 18 15  1  1  0  0  0
 20 19  1  0  0  0  0
 21 23  1  0  0  0  0
 21 22  1  0  0  0  0
 22 24  1  6  0  0  0
 23 20  1  1  0  0  0
 23 22  1  0  0  0  0
 24 26  1  0  0  0  0
 26 25  2  0  0  0  0
 26 27  1  0  0  0  0
 27 28  2  0  0  0  0
 29 27  1  0  0  0  0
 30 31  1  0  0  0  0
 31 29  1  0  0  0  0
 33 32  1  0  0  0  0
 34 33  1  0  0  0  0
 35 34  1  0  0  0  0
 36 35  1  0  0  0  0
 37 44  1  0  0  0  0
 38 45  1  0  0  0  0
 40 39  1  0  0  0  0
 40 49  1  0  0  0  0
 41 42  1  0  0  0  0
 41 40  1  0  0  0  0
 42 43  2  0  0  0  0
 43 38  1  0  0  0  0
 44 42  1  0  0  0  0
 45 48  1  0  0  0  0
 45 36  1  0  0  0  0
 46 41  2  0  0  0  0
 47 37  2  0  0  0  0
 47 46  1  0  0  0  0
 49 38  2  0  0  0  0
 49 50  1  0  0  0  0
 50 48  2  0  0  0  0
M  END
>  <MODEL>
8

>  <REMARK>
 VINA RESULT:      -6.9      2.642     10.298
  Name = 
  16 active torsions:
  status: ('A' for Active; 'I' for Inactive)
    1  A    between atoms: N_10  and  C_40
    2  A    between atoms: C_11  and  C_19
    3  A    between atoms: C_15  and  C_25
    4  A    between atoms: C_15  and  C_28
    5  A    between atoms: C_16  and  C_20
    6  A    between atoms: C_16  and  N_38
    7  A    between atoms: O_18  and  C_24
    8  A    between atoms: O_18  and  C_44
    9  A    between atoms: C_19  and  C_34
   10  A    between atoms: C_20  and  O_31
   11  A    between atoms: C_23  and  C_47
   12  A    between atoms: C_24  and  C_29
   13  A    between atoms: C_28  and  O_31
   14  A    between atoms: C_34  and  C_49
   15  A    between atoms: C_35  and  N_36
   16  A    between atoms: C_35  and  C_47
                            x       y       z     vdW  Elec       q    Type
                         _______ _______ _______ _____ _____    ______ ____

>  <TORSDO>
F 16

$$$$
=
 OpenBabel10232410353D

 50 57  0  0  1  0  0  0  0  0999 V2000
  186.1130  176.0080  137.7580 C   0  0  0  0  0  2  0  0  0  0  0  0
  187.0380  177.1530  137.3600 C   0  0  1  0  0  0  0  0  0  0  0  0
  186.5520  176.1350  136.3050 C   0  0  1  0  0  0  0  0  0  0  0  0
  186.3060  178.4790  137.4980 C   0  0  0  0  0  1  0  0  0  0  0  0
  189.0370  172.0000  135.0850 C   0  0  0  0  0  0  0  0  0  0  0  0
  188.7260  173.4220  135.1900 C   0  0  0  0  0  0  0  0  0  0  0  0
  186.9170  171.6740  136.4690 C   0  0  0  0  0  3  0  0  0  0  0  0
  186.6800  172.9590  136.4470 N   0  0  0  0  0  0  0  0  0  0  0  0
  189.4650  174.4730  134.7990 N   0  0  0  0  0  0  0  0  0  0  0  0
  189.9740  171.5920  134.3500 O   0  0  0  0  0  0  0  0  0  0  0  0
  187.5980  173.8560  135.8160 C   0  0  0  0  0  0  0  0  0  0  0  0
  187.5820  175.2020  135.8230 N   0  0  0  0  0  0  0  0  0  0  0  0
  188.7350  175.5520  135.1970 C   0  0  0  0  0  3  0  0  0  0  0  0
  188.1530  171.0310  135.8390 C   0  0  0  0  0  2  0  0  0  0  0  0
  185.5490  176.6400  135.2390 C   0  0  0  0  0  2  0  0  0  0  0  0
  183.2750  177.3000  135.7300 C   0  0  2  0  0  3  0  0  0  0  0  0
  183.2880  176.8110  134.3460 N   0  0  0  0  0  2  0  0  0  0  0  0
  184.1060  176.1600  135.3910 C   0  0  1  0  0  3  0  0  0  0  0  0
  181.9700  176.8780  136.3980 C   0  0  0  0  0  2  0  0  0  0  0  0
  181.6710  177.7610  137.6160 C   0  0  0  0  0  2  0  0  0  0  0  0
  182.6320  176.1880  139.3080 C   0  0  0  0  0  2  0  0  0  0  0  0
  182.1220  177.4130  140.0550 C   0  0  2  0  0  3  0  0  0  0  0  0
  182.7390  177.5560  138.6820 C   0  0  2  0  0  3  0  0  0  0  0  0
  183.1280  177.8460  141.0080 N   0  0  0  0  0  2  0  0  0  0  0  0
  183.6760  179.9070  140.0500 O   0  0  0  0  0  0  0  0  0  0  0  0
  184.0160  178.9380  140.7820 C   0  0  0  0  0  0  0  0  0  0  0  0
  185.3450  178.9010  141.4020 C   0  0  0  0  0  0  0  0  0  0  0  0
  186.3910  178.8070  140.6950 O   0  0  0  0  0  0  0  0  0  0  0  0
  185.4220  178.9530  142.7950 O   0  0  0  0  0  0  0  0  0  0  0  0
  183.7340  179.5410  144.4130 C   0  0  0  0  0  1  0  0  0  0  0  0
  184.4180  178.4140  143.6550 C   0  0  0  0  0  2  0  0  0  0  0  0
  188.3950  176.9630  138.0310 C   0  0  0  0  0  2  0  0  0  0  0  0
  188.9710  178.2520  138.5930 C   0  0  0  0  0  2  0  0  0  0  0  0
  190.2380  178.0370  139.1590 O   0  0  0  0  0  0  0  0  0  0  0  0
  190.0510  176.9180  139.9940 C   0  0  0  0  0  2  0  0  0  0  0  0
  189.2000  177.2640  141.2190 C   0  0  0  0  0  2  0  0  0  0  0  0
  186.8890  177.9630  147.7040 N   0  0  0  0  0  0  0  0  0  0  0  0
  189.6210  177.6740  143.6710 C   0  0  0  0  0  0  0  0  0  0  0  0
  191.6190  176.5450  146.5350 C   0  0  0  0  0  1  0  0  0  0  0  0
  190.6250  177.3700  145.8700 N   0  0  0  0  0  0  0  0  0  0  0  0
  189.3530  177.6240  146.4970 C   0  0  0  0  0  0  0  0  0  0  0  0
  188.1860  177.7910  145.7060 C   0  0  0  0  0  0  0  0  0  0  0  0
  188.2160  177.7020  144.1930 C   0  0  0  0  0  3  0  0  0  0  0  0
  186.9560  177.9430  146.3490 C   0  0  0  0  0  2  0  0  0  0  0  0
  190.0170  177.5320  142.3960 N   0  0  0  0  0  0  0  0  0  0  0  0
  189.2500  177.6670  147.8920 C   0  0  0  0  0  3  0  0  0  0  0  0
  188.0010  177.8510  148.4810 C   0  0  0  0  0  3  0  0  0  0  0  0
  191.3620  177.3930  142.4470 C   0  0  0  0  0  3  0  0  0  0  0  0
  190.7270  177.6130  144.4650 C   0  0  0  0  0  0  0  0  0  0  0  0
  191.8310  177.4200  143.7160 N   0  0  0  0  0  0  0  0  0  0  0  0
  2  4  1  6  0  0  0
  2  1  1  0  0  0  0
  2 32  1  0  0  0  0
  3 15  1  6  0  0  0
  3  2  1  0  0  0  0
  3  1  1  0  0  0  0
  5  6  1  0  0  0  0
  5 14  1  0  0  0  0
  6 11  2  0  0  0  0
  8  7  2  0  0  0  0
  9  6  1  0  0  0  0
  9 13  2  0  0  0  0
 10  5  2  0  0  0  0
 11 12  1  0  0  0  0
 11  8  1  0  0  0  0
 12  3  1  0  0  0  0
 13 12  1  0  0  0  0
 14  7  1  0  0  0  0
 16 19  1  1  0  0  0
 17 18  1  0  0  0  0
 17 16  1  0  0  0  0
 18 15  1  6  0  0  0
 18 16  1  0  0  0  0
 19 20  1  0  0  0  0
 21 22  1  0  0  0  0
 22 24  1  1  0  0  0
 23 20  1  6  0  0  0
 23 21  1  0  0  0  0
 23 22  1  0  0  0  0
 25 26  2  0  0  0  0
 26 24  1  0  0  0  0
 26 27  1  0  0  0  0
 27 29  1  0  0  0  0
 28 27  2  0  0  0  0
 29 31  1  0  0  0  0
 31 30  1  0  0  0  0
 32 33  1  0  0  0  0
 33 34  1  0  0  0  0
 34 35  1  0  0  0  0
 35 36  1  0  0  0  0
 36 45  1  0  0  0  0
 37 47  2  0  0  0  0
 38 43  1  0  0  0  0
 38 49  2  0  0  0  0
 40 41  1  0  0  0  0
 40 39  1  0  0  0  0
 41 46  2  0  0  0  0
 42 44  1  0  0  0  0
 42 41  1  0  0  0  0
 43 42  2  0  0  0  0
 44 37  1  0  0  0  0
 45 48  1  0  0  0  0
 45 38  1  0  0  0  0
 46 47  1  0  0  0  0
 48 50  2  0  0  0  0
 49 40  1  0  0  0  0
 50 49  1  0  0  0  0
M  END
>  <MODEL>
9

>  <REMARK>
 VINA RESULT:      -6.9      1.694      2.249
  Name = 
  16 active torsions:
  status: ('A' for Active; 'I' for Inactive)
    1  A    between atoms: N_10  and  C_40
    2  A    between atoms: C_11  and  C_19
    3  A    between atoms: C_15  and  C_25
    4  A    between atoms: C_15  and  C_28
    5  A    between atoms: C_16  and  C_20
    6  A    between atoms: C_16  and  N_38
    7  A    between atoms: O_18  and  C_24
    8  A    between atoms: O_18  and  C_44
    9  A    between atoms: C_19  and  C_34
   10  A    between atoms: C_20  and  O_31
   11  A    between atoms: C_23  and  C_47
   12  A    between atoms: C_24  and  C_29
   13  A    between atoms: C_28  and  O_31
   14  A    between atoms: C_34  and  C_49
   15  A    between atoms: C_35  and  N_36
   16  A    between atoms: C_35  and  C_47
                            x       y       z     vdW  Elec       q    Type
                         _______ _______ _______ _____ _____    ______ ____

>  <TORSDO>
F 16

$$$$
