=
 OpenBabel10232409083D

 28 31  0  0  1  0  0  0  0  0999 V2000
  189.3450  176.7370  143.2950 C   0  0  2  0  0  3  0  0  0  0  0  0
  185.8640  178.0600  144.3220 C   0  0  0  0  0  0  0  0  0  0  0  0
  186.1670  178.2060  145.7120 C   0  0  0  0  0  0  0  0  0  0  0  0
  186.8730  177.5870  143.4530 C   0  0  0  0  0  3  0  0  0  0  0  0
  189.7080  176.9830  145.5500 N   0  0  0  0  0  0  0  0  0  0  0  0
  185.2140  178.7240  146.6350 N   0  0  0  0  0  1  0  0  0  0  0  0
  188.1270  177.2760  143.9750 C   0  0  0  0  0  0  0  0  0  0  0  0
  188.3890  177.4000  145.2940 C   0  0  0  0  0  0  0  0  0  0  0  0
  190.3490  176.5570  144.3670 N   0  0  0  0  0  2  0  0  0  0  0  0
  187.4410  177.8670  146.2000 C   0  0  0  0  0  3  0  0  0  0  0  0
  182.1860  178.9980  144.0000 C   0  0  0  0  0  3  0  0  0  0  0  0
  180.8000  179.2160  142.0750 F   0  0  0  0  0  0  0  0  0  0  0  0
  182.0120  178.9440  142.6160 C   0  0  0  0  0  0  0  0  0  0  0  0
  184.5300  178.3850  143.7430 C   0  0  0  0  0  0  0  0  0  0  0  0
  183.0860  178.6060  141.7900 C   0  0  0  0  0  3  0  0  0  0  0  0
  183.4360  178.7170  144.5590 C   0  0  0  0  0  3  0  0  0  0  0  0
  184.3350  178.3260  142.3510 C   0  0  0  0  0  3  0  0  0  0  0  0
  190.3310  176.9890  146.8710 C   0  0  0  0  0  2  0  0  0  0  0  0
  191.9870  175.1870  147.2020 C   0  0  0  0  0  2  0  0  0  0  0  0
  191.8060  176.6350  146.7990 C   0  0  0  0  0  3  0  0  0  0  0  0
  192.3040  176.2910  148.1880 C   0  0  0  0  0  2  0  0  0  0  0  0
  189.8820  177.7260  142.2660 C   0  0  0  0  0  2  0  0  0  0  0  0
  191.2960  177.3660  141.8380 C   0  0  0  0  0  2  0  0  0  0  0  0
  191.4270  177.4840  140.3960 N   0  0  0  0  0  2  0  0  0  0  0  0
  190.2240  176.9110  139.8190 C   0  0  0  0  0  2  0  0  0  0  0  0
  189.8480  177.6610  138.5550 C   0  0  0  0  0  2  0  0  0  0  0  0
  187.7030  178.1900  139.2910 C   0  0  0  0  0  1  0  0  0  0  0  0
  188.9680  178.7700  138.8790 N   0  0  0  0  0  2  0  0  0  0  0  0
  1 22  1  6  0  0  0
  1  7  1  0  0  0  0
  1  9  1  0  0  0  0
  2  3  1  0  0  0  0
  3 10  2  0  0  0  0
  3  6  1  0  0  0  0
  4  7  1  0  0  0  0
  4  2  2  0  0  0  0
  5 18  1  0  0  0  0
  7  8  2  0  0  0  0
  8  5  1  0  0  0  0
  8 10  1  0  0  0  0
  9  5  1  0  0  0  0
 11 16  1  0  0  0  0
 12 13  1  0  0  0  0
 13 11  2  0  0  0  0
 14  2  1  0  0  0  0
 14 16  2  0  0  0  0
 15 17  2  0  0  0  0
 15 13  1  0  0  0  0
 17 14  1  0  0  0  0
 19 21  1  0  0  0  0
 20 18  1  0  0  0  0
 20 19  1  0  0  0  0
 20 21  1  0  0  0  0
 23 22  1  0  0  0  0
 24 23  1  0  0  0  0
 25 24  1  0  0  0  0
 26 28  1  0  0  0  0
 26 25  1  0  0  0  0
 28 27  1  0  0  0  0
M  END
>  <MODEL>
1

>  <REMARK>
 VINA RESULT:      -8.6      0.000      0.000
  Name = 
  9 active torsions:
  status: ('A' for Active; 'I' for Inactive)
    1  A    between atoms: C_1  and  C_16
    2  A    between atoms: C_2  and  C_15
    3  A    between atoms: C_6  and  C_10
    4  A    between atoms: C_6  and  N_12
    5  A    between atoms: C_11  and  C_16
    6  A    between atoms: C_11  and  N_27
    7  A    between atoms: C_17  and  C_18
    8  A    between atoms: C_17  and  N_27
    9  A    between atoms: C_18  and  N_22
                            x       y       z     vdW  Elec       q    Type
                         _______ _______ _______ _____ _____    ______ ____

>  <TORSDO>
F 9

$$$$
=
 OpenBabel10232409083D

 28 31  0  0  1  0  0  0  0  0999 V2000
  189.0870  176.7830  143.1280 C   0  0  2  0  0  3  0  0  0  0  0  0
  185.6240  178.0930  144.2310 C   0  0  0  0  0  0  0  0  0  0  0  0
  185.9460  178.2090  145.6190 C   0  0  0  0  0  0  0  0  0  0  0  0
  186.6200  177.6350  143.3380 C   0  0  0  0  0  3  0  0  0  0  0  0
  189.4820  176.9820  145.3820 N   0  0  0  0  0  0  0  0  0  0  0  0
  185.0070  178.7100  146.5660 N   0  0  0  0  0  1  0  0  0  0  0  0
  187.8790  177.3100  143.8360 C   0  0  0  0  0  0  0  0  0  0  0  0
  188.1610  177.4070  145.1530 C   0  0  0  0  0  0  0  0  0  0  0  0
  190.1060  176.5790  144.1820 N   0  0  0  0  0  2  0  0  0  0  0  0
  187.2270  177.8570  146.0820 C   0  0  0  0  0  3  0  0  0  0  0  0
  181.9400  179.0320  143.9810 C   0  0  0  0  0  3  0  0  0  0  0  0
  180.5320  179.3060  142.0790 F   0  0  0  0  0  0  0  0  0  0  0  0
  181.7500  179.0200  142.5980 C   0  0  0  0  0  0  0  0  0  0  0  0
  184.2830  178.4320  143.6770 C   0  0  0  0  0  0  0  0  0  0  0  0
  182.8160  178.7090  141.7490 C   0  0  0  0  0  3  0  0  0  0  0  0
  183.1980  178.7370  144.5150 C   0  0  0  0  0  3  0  0  0  0  0  0
  184.0720  178.4150  142.2870 C   0  0  0  0  0  3  0  0  0  0  0  0
  190.1230  176.9590  146.6940 C   0  0  0  0  0  2  0  0  0  0  0  0
  192.0000  175.3540  146.7220 C   0  0  0  0  0  2  0  0  0  0  0  0
  191.6320  176.8150  146.5810 C   0  0  0  0  0  3  0  0  0  0  0  0
  192.1820  176.2960  147.8930 C   0  0  0  0  0  2  0  0  0  0  0  0
  189.6120  177.7920  142.1120 C   0  0  0  0  0  2  0  0  0  0  0  0
  189.2880  177.3640  140.6890 C   0  0  0  0  0  2  0  0  0  0  0  0
  190.5150  177.1340  139.9460 N   0  0  0  0  0  2  0  0  0  0  0  0
  190.1230  176.7160  138.6110 C   0  0  0  0  0  2  0  0  0  0  0  0
  191.3000  176.0710  137.9040 C   0  0  0  0  0  2  0  0  0  0  0  0
  190.7560  174.1270  136.7430 C   0  0  0  0  0  1  0  0  0  0  0  0
  191.2190  174.6260  138.0250 N   0  0  0  0  0  2  0  0  0  0  0  0
  1 22  1  6  0  0  0
  1  7  1  0  0  0  0
  1  9  1  0  0  0  0
  2  3  1  0  0  0  0
  3 10  2  0  0  0  0
  3  6  1  0  0  0  0
  4  7  1  0  0  0  0
  4  2  2  0  0  0  0
  5 18  1  0  0  0  0
  7  8  2  0  0  0  0
  8  5  1  0  0  0  0
  8 10  1  0  0  0  0
  9  5  1  0  0  0  0
 11 16  1  0  0  0  0
 12 13  1  0  0  0  0
 13 11  2  0  0  0  0
 14  2  1  0  0  0  0
 14 16  2  0  0  0  0
 15 17  2  0  0  0  0
 15 13  1  0  0  0  0
 17 14  1  0  0  0  0
 19 21  1  0  0  0  0
 20 18  1  0  0  0  0
 20 19  1  0  0  0  0
 20 21  1  0  0  0  0
 23 22  1  0  0  0  0
 24 23  1  0  0  0  0
 25 24  1  0  0  0  0
 26 28  1  0  0  0  0
 26 25  1  0  0  0  0
 27 28  1  0  0  0  0
M  END
>  <MODEL>
2

>  <REMARK>
 VINA RESULT:      -8.3      1.215      1.584
  Name = 
  9 active torsions:
  status: ('A' for Active; 'I' for Inactive)
    1  A    between atoms: C_1  and  C_16
    2  A    between atoms: C_2  and  C_15
    3  A    between atoms: C_6  and  C_10
    4  A    between atoms: C_6  and  N_12
    5  A    between atoms: C_11  and  C_16
    6  A    between atoms: C_11  and  N_27
    7  A    between atoms: C_17  and  C_18
    8  A    between atoms: C_17  and  N_27
    9  A    between atoms: C_18  and  N_22
                            x       y       z     vdW  Elec       q    Type
                         _______ _______ _______ _____ _____    ______ ____

>  <TORSDO>
F 9

$$$$
=
 OpenBabel10232409083D

 28 31  0  0  1  0  0  0  0  0999 V2000
  185.9200  177.9450  146.1740 C   0  0  2  0  0  3  0  0  0  0  0  0
  187.4430  178.0750  142.6270 C   0  0  0  0  0  0  0  0  0  0  0  0
  186.2860  178.6200  141.9900 C   0  0  0  0  0  0  0  0  0  0  0  0
  187.4020  177.8320  144.0190 C   0  0  0  0  0  3  0  0  0  0  0  0
  184.1110  178.7920  145.0400 N   0  0  0  0  0  0  0  0  0  0  0  0
  186.2750  178.9360  140.6010 N   0  0  0  0  0  1  0  0  0  0  0  0
  186.2380  178.1280  144.7240 C   0  0  0  0  0  0  0  0  0  0  0  0
  185.1470  178.6250  144.1040 C   0  0  0  0  0  0  0  0  0  0  0  0
  184.5160  178.3880  146.3300 N   0  0  0  0  0  2  0  0  0  0  0  0
  185.1270  178.8930  142.7380 C   0  0  0  0  0  3  0  0  0  0  0  0
  191.0960  177.3200  141.8520 C   0  0  0  0  0  3  0  0  0  0  0  0
  192.1910  176.9000  139.7780 F   0  0  0  0  0  0  0  0  0  0  0  0
  191.0560  177.1780  140.4640 C   0  0  0  0  0  0  0  0  0  0  0  0
  188.6970  177.7470  141.8910 C   0  0  0  0  0  0  0  0  0  0  0  0
  189.8460  177.3250  139.7820 C   0  0  0  0  0  3  0  0  0  0  0  0
  189.9250  177.6060  142.5590 C   0  0  0  0  0  3  0  0  0  0  0  0
  188.6760  177.6100  140.4920 C   0  0  0  0  0  3  0  0  0  0  0  0
  182.7860  179.3160  144.7160 C   0  0  0  0  0  2  0  0  0  0  0  0
  181.3020  179.0970  142.7540 C   0  0  0  0  0  2  0  0  0  0  0  0
  181.9860  178.3390  143.8710 C   0  0  0  0  0  3  0  0  0  0  0  0
  180.5130  178.6800  143.9780 C   0  0  0  0  0  2  0  0  0  0  0  0
  186.8190  178.8130  147.0480 C   0  0  0  0  0  2  0  0  0  0  0  0
  187.5170  177.9860  148.1170 C   0  0  0  0  0  2  0  0  0  0  0  0
  188.9540  178.0120  147.9100 N   0  0  0  0  0  2  0  0  0  0  0  0
  189.2990  176.7800  147.2230 C   0  0  0  0  0  2  0  0  0  0  0  0
  190.5740  176.9720  146.4240 C   0  0  0  0  0  2  0  0  0  0  0  0
  192.3210  175.5730  147.0690 C   0  0  0  0  0  1  0  0  0  0  0  0
  191.7280  176.8780  147.3010 N   0  0  0  0  0  2  0  0  0  0  0  0
  1  9  1  0  0  0  0
  1 22  1  1  0  0  0
  2  4  1  0  0  0  0
  3  2  2  0  0  0  0
  3 10  1  0  0  0  0
  4  7  2  0  0  0  0
  5  9  1  0  0  0  0
  6  3  1  0  0  0  0
  7  1  1  0  0  0  0
  8  7  1  0  0  0  0
  8  5  1  0  0  0  0
 10  8  2  0  0  0  0
 11 16  1  0  0  0  0
 12 13  1  0  0  0  0
 13 11  2  0  0  0  0
 14 16  2  0  0  0  0
 14  2  1  0  0  0  0
 15 13  1  0  0  0  0
 15 17  2  0  0  0  0
 17 14  1  0  0  0  0
 18  5  1  0  0  0  0
 19 20  1  0  0  0  0
 19 21  1  0  0  0  0
 20 21  1  0  0  0  0
 20 18  1  0  0  0  0
 22 23  1  0  0  0  0
 24 23  1  0  0  0  0
 25 24  1  0  0  0  0
 26 25  1  0  0  0  0
 26 28  1  0  0  0  0
 27 28  1  0  0  0  0
M  END
>  <MODEL>
3

>  <REMARK>
 VINA RESULT:      -7.9      2.821      7.507
  Name = 
  9 active torsions:
  status: ('A' for Active; 'I' for Inactive)
    1  A    between atoms: C_1  and  C_16
    2  A    between atoms: C_2  and  C_15
    3  A    between atoms: C_6  and  C_10
    4  A    between atoms: C_6  and  N_12
    5  A    between atoms: C_11  and  C_16
    6  A    between atoms: C_11  and  N_27
    7  A    between atoms: C_17  and  C_18
    8  A    between atoms: C_17  and  N_27
    9  A    between atoms: C_18  and  N_22
                            x       y       z     vdW  Elec       q    Type
                         _______ _______ _______ _____ _____    ______ ____

>  <TORSDO>
F 9

$$$$
=
 OpenBabel10232409083D

 28 31  0  0  1  0  0  0  0  0999 V2000
  188.0110  178.4890  140.5390 C   0  0  2  0  0  3  0  0  0  0  0  0
  188.3670  177.6010  144.2810 C   0  0  0  0  0  0  0  0  0  0  0  0
  186.9750  177.7070  144.5900 C   0  0  0  0  0  0  0  0  0  0  0  0
  188.7880  177.8360  142.9530 C   0  0  0  0  0  3  0  0  0  0  0  0
  185.8060  178.6600  141.1570 N   0  0  0  0  0  0  0  0  0  0  0  0
  186.4760  177.4350  145.8960 N   0  0  0  0  0  1  0  0  0  0  0  0
  187.8380  178.1660  141.9890 C   0  0  0  0  0  0  0  0  0  0  0  0
  186.5300  178.2810  142.3020 C   0  0  0  0  0  0  0  0  0  0  0  0
  186.6550  178.8110  140.0400 N   0  0  0  0  0  2  0  0  0  0  0  0
  186.0510  178.0560  143.5900 C   0  0  0  0  0  3  0  0  0  0  0  0
  190.1490  177.0980  147.6110 C   0  0  0  0  0  3  0  0  0  0  0  0
  192.3510  176.3290  148.0950 F   0  0  0  0  0  0  0  0  0  0  0  0
  191.3930  176.6310  147.1850 C   0  0  0  0  0  0  0  0  0  0  0  0
  189.4000  177.2520  145.2970 C   0  0  0  0  0  0  0  0  0  0  0  0
  191.6520  176.4780  145.8210 C   0  0  0  0  0  3  0  0  0  0  0  0
  189.1610  177.4090  146.6720 C   0  0  0  0  0  3  0  0  0  0  0  0
  190.6630  176.7890  144.8850 C   0  0  0  0  0  3  0  0  0  0  0  0
  184.3600  178.8700  141.1300 C   0  0  0  0  0  2  0  0  0  0  0  0
  183.0160  178.0190  139.2400 C   0  0  0  0  0  2  0  0  0  0  0  0
  183.6260  177.6590  140.5780 C   0  0  0  0  0  3  0  0  0  0  0  0
  182.1480  177.9760  140.4800 C   0  0  0  0  0  2  0  0  0  0  0  0
  188.5570  177.2900  139.7700 C   0  0  0  0  0  2  0  0  0  0  0  0
  190.0350  177.4610  139.4550 C   0  0  0  0  0  2  0  0  0  0  0  0
  190.6430  176.1670  139.1960 N   0  0  0  0  0  2  0  0  0  0  0  0
  191.4660  176.3230  138.0100 C   0  0  0  0  0  2  0  0  0  0  0  0
  192.9170  176.5150  138.4080 C   0  0  0  0  0  2  0  0  0  0  0  0
  194.3840  175.1300  137.2450 C   0  0  0  0  0  1  0  0  0  0  0  0
  193.7680  176.4440  137.2330 N   0  0  0  0  0  2  0  0  0  0  0  0
  1 22  1  6  0  0  0
  1  7  1  0  0  0  0
  2  3  1  0  0  0  0
  2 14  1  0  0  0  0
  3  6  1  0  0  0  0
  4  2  2  0  0  0  0
  5  8  1  0  0  0  0
  7  8  2  0  0  0  0
  7  4  1  0  0  0  0
  8 10  1  0  0  0  0
  9  1  1  0  0  0  0
  9  5  1  0  0  0  0
 10  3  2  0  0  0  0
 13 11  1  0  0  0  0
 13 12  1  0  0  0  0
 14 16  1  0  0  0  0
 15 13  2  0  0  0  0
 16 11  2  0  0  0  0
 17 14  2  0  0  0  0
 17 15  1  0  0  0  0
 18  5  1  0  0  0  0
 19 21  1  0  0  0  0
 19 20  1  0  0  0  0
 20 18  1  0  0  0  0
 21 20  1  0  0  0  0
 23 22  1  0  0  0  0
 24 23  1  0  0  0  0
 25 26  1  0  0  0  0
 25 24  1  0  0  0  0
 28 27  1  0  0  0  0
 28 26  1  0  0  0  0
M  END
>  <MODEL>
4

>  <REMARK>
 VINA RESULT:      -7.8      3.280      6.899
  Name = 
  9 active torsions:
  status: ('A' for Active; 'I' for Inactive)
    1  A    between atoms: C_1  and  C_16
    2  A    between atoms: C_2  and  C_15
    3  A    between atoms: C_6  and  C_10
    4  A    between atoms: C_6  and  N_12
    5  A    between atoms: C_11  and  C_16
    6  A    between atoms: C_11  and  N_27
    7  A    between atoms: C_17  and  C_18
    8  A    between atoms: C_17  and  N_27
    9  A    between atoms: C_18  and  N_22
                            x       y       z     vdW  Elec       q    Type
                         _______ _______ _______ _____ _____    ______ ____

>  <TORSDO>
F 9

$$$$
=
 OpenBabel10232409083D

 28 31  0  0  1  0  0  0  0  0999 V2000
  187.8930  178.4140  140.1250 C   0  0  2  0  0  3  0  0  0  0  0  0
  186.3840  178.2690  143.6780 C   0  0  0  0  0  0  0  0  0  0  0  0
  185.0240  178.4290  143.2660 C   0  0  0  0  0  0  0  0  0  0  0  0
  187.3950  178.2440  142.6900 C   0  0  0  0  0  3  0  0  0  0  0  0
  185.6790  178.6950  139.5840 N   0  0  0  0  0  0  0  0  0  0  0  0
  183.9520  178.4130  144.2040 N   0  0  0  0  0  1  0  0  0  0  0  0
  187.0370  178.3770  141.3500 C   0  0  0  0  0  0  0  0  0  0  0  0
  185.7500  178.5480  140.9810 C   0  0  0  0  0  0  0  0  0  0  0  0
  186.9610  178.6290  138.9960 N   0  0  0  0  0  2  0  0  0  0  0  0
  184.7080  178.5740  141.9040 C   0  0  0  0  0  3  0  0  0  0  0  0
  186.4580  178.5960  147.4730 C   0  0  0  0  0  3  0  0  0  0  0  0
  188.0070  177.7570  149.0750 F   0  0  0  0  0  0  0  0  0  0  0  0
  187.6140  177.8790  147.7850 C   0  0  0  0  0  0  0  0  0  0  0  0
  186.7900  178.1270  145.1050 C   0  0  0  0  0  0  0  0  0  0  0  0
  188.3660  177.2890  146.7660 C   0  0  0  0  0  3  0  0  0  0  0  0
  186.0510  178.7210  146.1410 C   0  0  0  0  0  3  0  0  0  0  0  0
  187.9570  177.4150  145.4360 C   0  0  0  0  0  3  0  0  0  0  0  0
  184.4380  178.8920  138.8380 C   0  0  0  0  0  2  0  0  0  0  0  0
  182.6040  177.7640  137.6280 C   0  0  0  0  0  2  0  0  0  0  0  0
  184.0540  177.6520  138.0480 C   0  0  0  0  0  3  0  0  0  0  0  0
  182.9840  176.8910  138.8060 C   0  0  0  0  0  2  0  0  0  0  0  0
  188.6250  177.0910  139.9260 C   0  0  0  0  0  2  0  0  0  0  0  0
  190.1140  177.2340  140.1990 C   0  0  0  0  0  2  0  0  0  0  0  0
  190.4850  176.4540  141.3660 N   0  0  0  0  0  2  0  0  0  0  0  0
  191.2240  177.3430  142.2460 C   0  0  0  0  0  2  0  0  0  0  0  0
  191.5790  176.6220  143.5320 C   0  0  0  0  0  2  0  0  0  0  0  0
  191.2550  178.8590  144.0930 C   0  0  0  0  0  1  0  0  0  0  0  0
  191.5180  177.5450  144.6510 N   0  0  0  0  0  2  0  0  0  0  0  0
  1 22  1  6  0  0  0
  1  7  1  0  0  0  0
  2 14  1  0  0  0  0
  3  2  1  0  0  0  0
  3  6  1  0  0  0  0
  4  2  2  0  0  0  0
  5  8  1  0  0  0  0
  7  4  1  0  0  0  0
  8  7  2  0  0  0  0
  8 10  1  0  0  0  0
  9  5  1  0  0  0  0
  9  1  1  0  0  0  0
 10  3  2  0  0  0  0
 11 13  1  0  0  0  0
 13 12  1  0  0  0  0
 14 17  2  0  0  0  0
 14 16  1  0  0  0  0
 15 13  2  0  0  0  0
 16 11  2  0  0  0  0
 17 15  1  0  0  0  0
 18  5  1  0  0  0  0
 19 20  1  0  0  0  0
 19 21  1  0  0  0  0
 20 21  1  0  0  0  0
 20 18  1  0  0  0  0
 22 23  1  0  0  0  0
 23 24  1  0  0  0  0
 24 25  1  0  0  0  0
 25 26  1  0  0  0  0
 26 28  1  0  0  0  0
 27 28  1  0  0  0  0
M  END
>  <MODEL>
5

>  <REMARK>
 VINA RESULT:      -7.8      2.810      6.576
  Name = 
  9 active torsions:
  status: ('A' for Active; 'I' for Inactive)
    1  A    between atoms: C_1  and  C_16
    2  A    between atoms: C_2  and  C_15
    3  A    between atoms: C_6  and  C_10
    4  A    between atoms: C_6  and  N_12
    5  A    between atoms: C_11  and  C_16
    6  A    between atoms: C_11  and  N_27
    7  A    between atoms: C_17  and  C_18
    8  A    between atoms: C_17  and  N_27
    9  A    between atoms: C_18  and  N_22
                            x       y       z     vdW  Elec       q    Type
                         _______ _______ _______ _____ _____    ______ ____

>  <TORSDO>
F 9

$$$$
=
 OpenBabel10232409083D

 28 31  0  0  1  0  0  0  0  0999 V2000
  188.0670  178.4990  140.5540 C   0  0  2  0  0  3  0  0  0  0  0  0
  188.3420  177.6190  144.3050 C   0  0  0  0  0  0  0  0  0  0  0  0
  186.9400  177.6910  144.5750 C   0  0  0  0  0  0  0  0  0  0  0  0
  188.7940  177.8660  142.9880 C   0  0  0  0  0  3  0  0  0  0  0  0
  185.8420  178.6140  141.1110 N   0  0  0  0  0  0  0  0  0  0  0  0
  186.4120  177.4050  145.8670 N   0  0  0  0  0  1  0  0  0  0  0  0
  187.8630  178.1710  141.9980 C   0  0  0  0  0  0  0  0  0  0  0  0
  186.5440  178.2540  142.2750 C   0  0  0  0  0  0  0  0  0  0  0  0
  186.7180  178.7860  140.0180 N   0  0  0  0  0  2  0  0  0  0  0  0
  186.0350  178.0160  143.5490 C   0  0  0  0  0  3  0  0  0  0  0  0
  190.0590  177.1990  147.6800 C   0  0  0  0  0  3  0  0  0  0  0  0
  192.2510  176.4450  148.2250 F   0  0  0  0  0  0  0  0  0  0  0  0
  191.3120  176.7240  147.2900 C   0  0  0  0  0  0  0  0  0  0  0  0
  189.3560  177.2970  145.3480 C   0  0  0  0  0  0  0  0  0  0  0  0
  191.5980  176.5390  145.9350 C   0  0  0  0  0  3  0  0  0  0  0  0
  189.0890  177.4860  146.7140 C   0  0  0  0  0  3  0  0  0  0  0  0
  190.6260  176.8260  144.9720 C   0  0  0  0  0  3  0  0  0  0  0  0
  184.3930  178.7880  141.0440 C   0  0  0  0  0  2  0  0  0  0  0  0
  182.4370  179.3190  139.6320 C   0  0  0  0  0  2  0  0  0  0  0  0
  183.9490  179.2890  139.6790 C   0  0  0  0  0  3  0  0  0  0  0  0
  183.1910  178.1870  138.9670 C   0  0  0  0  0  2  0  0  0  0  0  0
  188.6640  177.3140  139.8010 C   0  0  0  0  0  2  0  0  0  0  0  0
  189.8190  177.7480  138.9120 C   0  0  0  0  0  2  0  0  0  0  0  0
  189.4900  177.5170  137.5160 N   0  0  0  0  0  2  0  0  0  0  0  0
  189.0040  178.7780  136.9870 C   0  0  0  0  0  2  0  0  0  0  0  0
  187.5500  178.6410  136.5760 C   0  0  0  0  0  2  0  0  0  0  0  0
  186.0650  176.8900  136.9670 C   0  0  0  0  0  1  0  0  0  0  0  0
  187.2600  177.2600  136.2320 N   0  0  0  0  0  2  0  0  0  0  0  0
  1 22  1  6  0  0  0
  1  7  1  0  0  0  0
  2  3  1  0  0  0  0
  2 14  1  0  0  0  0
  3  6  1  0  0  0  0
  4  2  2  0  0  0  0
  5  8  1  0  0  0  0
  7  8  2  0  0  0  0
  7  4  1  0  0  0  0
  8 10  1  0  0  0  0
  9  1  1  0  0  0  0
  9  5  1  0  0  0  0
 10  3  2  0  0  0  0
 13 11  1  0  0  0  0
 13 12  1  0  0  0  0
 14 16  1  0  0  0  0
 15 13  2  0  0  0  0
 16 11  2  0  0  0  0
 17 14  2  0  0  0  0
 17 15  1  0  0  0  0
 18  5  1  0  0  0  0
 19 20  1  0  0  0  0
 20 18  1  0  0  0  0
 21 19  1  0  0  0  0
 21 20  1  0  0  0  0
 23 22  1  0  0  0  0
 24 23  1  0  0  0  0
 25 24  1  0  0  0  0
 26 25  1  0  0  0  0
 28 26  1  0  0  0  0
 28 27  1  0  0  0  0
M  END
>  <MODEL>
6

>  <REMARK>
 VINA RESULT:      -7.7      3.225      6.843
  Name = 
  9 active torsions:
  status: ('A' for Active; 'I' for Inactive)
    1  A    between atoms: C_1  and  C_16
    2  A    between atoms: C_2  and  C_15
    3  A    between atoms: C_6  and  C_10
    4  A    between atoms: C_6  and  N_12
    5  A    between atoms: C_11  and  C_16
    6  A    between atoms: C_11  and  N_27
    7  A    between atoms: C_17  and  C_18
    8  A    between atoms: C_17  and  N_27
    9  A    between atoms: C_18  and  N_22
                            x       y       z     vdW  Elec       q    Type
                         _______ _______ _______ _____ _____    ______ ____

>  <TORSDO>
F 9

$$$$
=
 OpenBabel10232409083D

 28 31  0  0  1  0  0  0  0  0999 V2000
  188.9050  176.7340  143.3260 C   0  0  2  0  0  3  0  0  0  0  0  0
  185.3250  178.0900  143.8400 C   0  0  0  0  0  0  0  0  0  0  0  0
  185.4330  178.2550  145.2560 C   0  0  0  0  0  0  0  0  0  0  0  0
  186.4420  177.5990  143.1260 C   0  0  0  0  0  3  0  0  0  0  0  0
  188.9540  177.0120  145.6050 N   0  0  0  0  0  0  0  0  0  0  0  0
  184.3650  178.7930  146.0300 N   0  0  0  0  0  1  0  0  0  0  0  0
  187.6080  177.2890  143.8220 C   0  0  0  0  0  0  0  0  0  0  0  0
  187.6860  177.4320  145.1620 C   0  0  0  0  0  0  0  0  0  0  0  0
  189.7500  176.5650  144.5290 N   0  0  0  0  0  2  0  0  0  0  0  0
  186.6250  177.9180  145.9210 C   0  0  0  0  0  3  0  0  0  0  0  0
  181.7460  179.0860  142.9960 C   0  0  0  0  0  3  0  0  0  0  0  0
  180.6280  179.2360  140.8980 F   0  0  0  0  0  0  0  0  0  0  0  0
  181.7510  178.9660  141.6060 C   0  0  0  0  0  0  0  0  0  0  0  0
  184.0870  178.4130  143.0770 C   0  0  0  0  0  0  0  0  0  0  0  0
  182.9140  178.5640  140.9440 C   0  0  0  0  0  3  0  0  0  0  0  0
  182.9060  178.8090  143.7260 C   0  0  0  0  0  3  0  0  0  0  0  0
  184.0720  178.2870  141.6760 C   0  0  0  0  0  3  0  0  0  0  0  0
  189.3870  177.0350  147.0000 C   0  0  0  0  0  2  0  0  0  0  0  0
  189.7300  178.4290  149.0100 C   0  0  0  0  0  2  0  0  0  0  0  0
  189.0010  178.3340  147.6870 C   0  0  0  0  0  3  0  0  0  0  0  0
  188.2730  178.0170  148.9770 C   0  0  0  0  0  2  0  0  0  0  0  0
  189.5870  177.7040  142.3660 C   0  0  0  0  0  2  0  0  0  0  0  0
  190.4950  176.9720  141.3910 C   0  0  0  0  0  2  0  0  0  0  0  0
  190.4960  177.6480  140.1050 N   0  0  0  0  0  2  0  0  0  0  0  0
  189.4980  176.9850  139.2840 C   0  0  0  0  0  2  0  0  0  0  0  0
  188.4000  177.9640  138.9140 C   0  0  0  0  0  2  0  0  0  0  0  0
  188.9620  178.9740  136.8910 C   0  0  0  0  0  1  0  0  0  0  0  0
  188.9790  179.1620  138.3310 N   0  0  0  0  0  2  0  0  0  0  0  0
  1 22  1  6  0  0  0
  1  7  1  0  0  0  0
  1  9  1  0  0  0  0
  2  3  1  0  0  0  0
  3 10  2  0  0  0  0
  3  6  1  0  0  0  0
  4  7  1  0  0  0  0
  4  2  2  0  0  0  0
  5 18  1  0  0  0  0
  7  8  2  0  0  0  0
  8  5  1  0  0  0  0
  8 10  1  0  0  0  0
  9  5  1  0  0  0  0
 11 16  1  0  0  0  0
 12 13  1  0  0  0  0
 13 11  2  0  0  0  0
 14 16  2  0  0  0  0
 14  2  1  0  0  0  0
 15 13  1  0  0  0  0
 15 17  2  0  0  0  0
 17 14  1  0  0  0  0
 18 20  1  0  0  0  0
 20 21  1  0  0  0  0
 20 19  1  0  0  0  0
 21 19  1  0  0  0  0
 23 22  1  0  0  0  0
 24 23  1  0  0  0  0
 25 24  1  0  0  0  0
 26 25  1  0  0  0  0
 27 28  1  0  0  0  0
 28 26  1  0  0  0  0
M  END
>  <MODEL>
7

>  <REMARK>
 VINA RESULT:      -7.7      1.238      1.656
  Name = 
  9 active torsions:
  status: ('A' for Active; 'I' for Inactive)
    1  A    between atoms: C_1  and  C_16
    2  A    between atoms: C_2  and  C_15
    3  A    between atoms: C_6  and  C_10
    4  A    between atoms: C_6  and  N_12
    5  A    between atoms: C_11  and  C_16
    6  A    between atoms: C_11  and  N_27
    7  A    between atoms: C_17  and  C_18
    8  A    between atoms: C_17  and  N_27
    9  A    between atoms: C_18  and  N_22
                            x       y       z     vdW  Elec       q    Type
                         _______ _______ _______ _____ _____    ______ ____

>  <TORSDO>
F 9

$$$$
=
 OpenBabel10232409083D

 28 31  0  0  1  0  0  0  0  0999 V2000
  183.8440  178.4540  142.8630 C   0  0  2  0  0  3  0  0  0  0  0  0
  187.6210  177.9700  142.2150 C   0  0  0  0  0  0  0  0  0  0  0  0
  187.5910  178.3930  140.8500 C   0  0  0  0  0  0  0  0  0  0  0  0
  186.4160  177.9730  142.9540 C   0  0  0  0  0  3  0  0  0  0  0  0
  183.9100  179.0850  140.6560 N   0  0  0  0  0  0  0  0  0  0  0  0
  188.7750  178.4630  140.0620 N   0  0  0  0  0  1  0  0  0  0  0  0
  185.2400  178.3840  142.3310 C   0  0  0  0  0  0  0  0  0  0  0  0
  185.2260  178.7610  141.0350 C   0  0  0  0  0  0  0  0  0  0  0  0
  183.0100  178.9120  141.7290 N   0  0  0  0  0  2  0  0  0  0  0  0
  186.3790  178.7870  140.2560 C   0  0  0  0  0  3  0  0  0  0  0  0
  190.4620  175.7840  143.5040 C   0  0  0  0  0  3  0  0  0  0  0  0
  192.3230  176.3130  144.8950 F   0  0  0  0  0  0  0  0  0  0  0  0
  191.1990  176.7070  144.2490 C   0  0  0  0  0  0  0  0  0  0  0  0
  188.8670  177.5250  142.9010 C   0  0  0  0  0  0  0  0  0  0  0  0
  190.7750  178.0350  144.3310 C   0  0  0  0  0  3  0  0  0  0  0  0
  189.3030  176.1910  142.8380 C   0  0  0  0  0  3  0  0  0  0  0  0
  189.6150  178.4390  143.6630 C   0  0  0  0  0  3  0  0  0  0  0  0
  183.5270  179.5400  139.3210 C   0  0  0  0  0  2  0  0  0  0  0  0
  181.6240  179.7530  137.7620 C   0  0  0  0  0  2  0  0  0  0  0  0
  182.0310  179.7850  139.2190 C   0  0  0  0  0  3  0  0  0  0  0  0
  181.7900  181.0800  138.4700 C   0  0  0  0  0  2  0  0  0  0  0  0
  183.7400  179.4640  144.0020 C   0  0  0  0  0  2  0  0  0  0  0  0
  183.8860  178.7880  145.3560 C   0  0  0  0  0  2  0  0  0  0  0  0
  185.0950  179.2470  146.0160 N   0  0  0  0  0  2  0  0  0  0  0  0
  185.6280  178.1120  146.7490 C   0  0  0  0  0  2  0  0  0  0  0  0
  187.1310  178.0300  146.5530 C   0  0  0  0  0  2  0  0  0  0  0  0
  189.0990  177.1810  147.4650 C   0  0  0  0  0  1  0  0  0  0  0  0
  187.7740  177.6680  147.8040 N   0  0  0  0  0  2  0  0  0  0  0  0
  1 22  1  1  0  0  0
  2 14  1  0  0  0  0
  2  4  1  0  0  0  0
  3  2  2  0  0  0  0
  5  8  1  0  0  0  0
  5  9  1  0  0  0  0
  6  3  1  0  0  0  0
  7  1  1  0  0  0  0
  7  4  2  0  0  0  0
  8  7  1  0  0  0  0
  9  1  1  0  0  0  0
 10  3  1  0  0  0  0
 10  8  2  0  0  0  0
 11 13  1  0  0  0  0
 13 15  2  0  0  0  0
 13 12  1  0  0  0  0
 14 17  2  0  0  0  0
 16 14  1  0  0  0  0
 16 11  2  0  0  0  0
 17 15  1  0  0  0  0
 18  5  1  0  0  0  0
 19 21  1  0  0  0  0
 19 20  1  0  0  0  0
 20 18  1  0  0  0  0
 21 20  1  0  0  0  0
 22 23  1  0  0  0  0
 23 24  1  0  0  0  0
 24 25  1  0  0  0  0
 26 25  1  0  0  0  0
 26 28  1  0  0  0  0
 27 28  1  0  0  0  0
M  END
>  <MODEL>
8

>  <REMARK>
 VINA RESULT:      -7.7      3.306      8.475
  Name = 
  9 active torsions:
  status: ('A' for Active; 'I' for Inactive)
    1  A    between atoms: C_1  and  C_16
    2  A    between atoms: C_2  and  C_15
    3  A    between atoms: C_6  and  C_10
    4  A    between atoms: C_6  and  N_12
    5  A    between atoms: C_11  and  C_16
    6  A    between atoms: C_11  and  N_27
    7  A    between atoms: C_17  and  C_18
    8  A    between atoms: C_17  and  N_27
    9  A    between atoms: C_18  and  N_22
                            x       y       z     vdW  Elec       q    Type
                         _______ _______ _______ _____ _____    ______ ____

>  <TORSDO>
F 9

$$$$
=
 OpenBabel10232409083D

 28 31  0  0  1  0  0  0  0  0999 V2000
  187.8490  176.9480  144.1690 C   0  0  2  0  0  3  0  0  0  0  0  0
  189.4280  177.4690  140.6830 C   0  0  0  0  0  0  0  0  0  0  0  0
  188.3430  178.2280  140.1430 C   0  0  0  0  0  0  0  0  0  0  0  0
  189.3410  177.0170  142.0190 C   0  0  0  0  0  3  0  0  0  0  0  0
  186.1560  178.1490  143.1880 N   0  0  0  0  0  0  0  0  0  0  0  0
  188.3850  178.7570  138.8210 N   0  0  0  0  0  1  0  0  0  0  0  0
  188.2060  177.3210  142.7660 C   0  0  0  0  0  0  0  0  0  0  0  0
  187.1820  178.0220  142.2340 C   0  0  0  0  0  0  0  0  0  0  0  0
  186.4980  177.5070  144.3970 N   0  0  0  0  0  2  0  0  0  0  0  0
  187.2090  178.5010  140.9270 C   0  0  0  0  0  3  0  0  0  0  0  0
  191.7520  175.9750  138.0600 C   0  0  0  0  0  3  0  0  0  0  0  0
  194.1120  176.1540  137.7910 F   0  0  0  0  0  0  0  0  0  0  0  0
  192.9880  176.4700  138.4780 C   0  0  0  0  0  0  0  0  0  0  0  0
  190.6510  177.1300  139.9020 C   0  0  0  0  0  0  0  0  0  0  0  0
  193.0660  177.2880  139.6080 C   0  0  0  0  0  3  0  0  0  0  0  0
  190.5920  176.3010  138.7690 C   0  0  0  0  0  3  0  0  0  0  0  0
  191.9050  177.6130  140.3150 C   0  0  0  0  0  3  0  0  0  0  0  0
  184.8980  178.8550  142.9540 C   0  0  0  0  0  2  0  0  0  0  0  0
  184.0410  178.6570  145.2620 C   0  0  0  0  0  2  0  0  0  0  0  0
  184.4540  179.6340  144.1810 C   0  0  0  0  0  3  0  0  0  0  0  0
  182.9850  179.3630  144.4370 C   0  0  0  0  0  2  0  0  0  0  0  0
  188.8230  177.5670  145.1670 C   0  0  0  0  0  2  0  0  0  0  0  0
  188.2780  177.5020  146.5860 C   0  0  0  0  0  2  0  0  0  0  0  0
  189.3460  177.1800  147.5160 N   0  0  0  0  0  2  0  0  0  0  0  0
  190.5590  177.0480  146.7290 C   0  0  0  0  0  2  0  0  0  0  0  0
  191.6020  176.2710  147.5120 C   0  0  0  0  0  2  0  0  0  0  0  0
  191.9820  175.7890  145.2650 C   0  0  0  0  0  1  0  0  0  0  0  0
  192.3550  175.4110  146.6160 N   0  0  0  0  0  2  0  0  0  0  0  0
  1  9  1  0  0  0  0
  1 22  1  1  0  0  0
  2  4  1  0  0  0  0
  3  2  2  0  0  0  0
  3 10  1  0  0  0  0
  4  7  2  0  0  0  0
  5  9  1  0  0  0  0
  6  3  1  0  0  0  0
  7  1  1  0  0  0  0
  8  7  1  0  0  0  0
  8  5  1  0  0  0  0
 10  8  2  0  0  0  0
 11 13  2  0  0  0  0
 11 16  1  0  0  0  0
 12 13  1  0  0  0  0
 13 15  1  0  0  0  0
 14 17  1  0  0  0  0
 14  2  1  0  0  0  0
 15 17  2  0  0  0  0
 16 14  2  0  0  0  0
 18  5  1  0  0  0  0
 18 20  1  0  0  0  0
 20 21  1  0  0  0  0
 20 19  1  0  0  0  0
 21 19  1  0  0  0  0
 22 23  1  0  0  0  0
 23 24  1  0  0  0  0
 25 26  1  0  0  0  0
 25 24  1  0  0  0  0
 27 28  1  0  0  0  0
 28 26  1  0  0  0  0
M  END
>  <MODEL>
9

>  <REMARK>
 VINA RESULT:      -7.6      3.213      7.786
  Name = 
  9 active torsions:
  status: ('A' for Active; 'I' for Inactive)
    1  A    between atoms: C_1  and  C_16
    2  A    between atoms: C_2  and  C_15
    3  A    between atoms: C_6  and  C_10
    4  A    between atoms: C_6  and  N_12
    5  A    between atoms: C_11  and  C_16
    6  A    between atoms: C_11  and  N_27
    7  A    between atoms: C_17  and  C_18
    8  A    between atoms: C_17  and  N_27
    9  A    between atoms: C_18  and  N_22
                            x       y       z     vdW  Elec       q    Type
                         _______ _______ _______ _____ _____    ______ ____

>  <TORSDO>
F 9

$$$$
