=
 OpenBabel10232412453D

 39 45  0  0  1  0  0  0  0  0999 V2000
  188.3460  177.0840  136.9410 C   0  0  2  0  0  3  0  0  0  0  0  0
  189.6860  177.0970  137.5300 N   0  0  0  0  0  0  0  0  0  0  0  0
  192.0100  174.9860  136.0530 N   0  0  0  0  0  0  0  0  0  0  0  0
  187.3870  177.8090  137.8730 C   0  0  1  0  0  3  0  0  0  0  0  0
  191.0580  175.8040  135.8480 N   0  0  0  0  0  0  0  0  0  0  0  0
  185.8920  178.4480  137.1920 Cl  0  0  0  0  0  0  0  0  0  0  0  0
  191.2250  176.5080  139.3010 C   0  0  0  0  0  3  0  0  0  0  0  0
  187.6360  177.9170  139.2020 C   0  0  0  0  0  0  0  0  0  0  0  0
  192.5730  175.1480  137.3950 C   0  0  2  0  0  3  0  0  0  0  0  0
  190.9110  176.6160  136.9980 C   0  0  0  0  0  0  0  0  0  0  0  0
  191.7810  176.2960  137.9240 C   0  0  0  0  0  0  0  0  0  0  0  0
  188.9200  177.4280  139.7650 C   0  0  0  0  0  3  0  0  0  0  0  0
  189.8830  177.0510  138.9330 C   0  0  0  0  0  0  0  0  0  0  0  0
  186.6260  175.6140  135.8750 C   0  0  1  0  0  3  0  0  0  0  0  0
  187.8720  175.6450  136.7540 C   0  0  1  0  0  3  0  0  0  0  0  0
  188.1850  173.8510  135.2270 O   0  0  0  0  0  1  0  0  0  0  0  0
  187.9960  175.2340  135.3000 C   0  0  1  0  0  3  0  0  0  0  0  0
  183.9910  172.3340  136.8070 C   0  0  0  0  0  3  0  0  0  0  0  0
  184.8090  174.0010  135.2510 C   0  0  0  0  0  3  0  0  0  0  0  0
  184.9030  172.7850  137.7660 C   0  0  0  0  0  3  0  0  0  0  0  0
  183.9420  172.9430  135.5510 C   0  0  0  0  0  3  0  0  0  0  0  0
  185.7400  174.4420  136.2000 C   0  0  0  0  0  0  0  0  0  0  0  0
  185.7700  173.8410  137.4660 C   0  0  0  0  0  3  0  0  0  0  0  0
  186.7330  178.6900  141.4720 C   0  0  0  0  0  0  0  0  0  0  0  0
  186.6490  178.5220  140.0520 N   0  0  0  0  0  2  0  0  0  0  0  0
  187.7800  178.3770  142.1020 O   0  0  0  0  0  0  0  0  0  0  0  0
  185.6020  178.9840  143.5130 O   0  0  0  0  0  0  0  0  0  0  0  0
  185.5660  179.2930  142.1910 C   0  0  2  0  0  3  0  0  0  0  0  0
  184.7290  178.2430  142.7280 N   0  0  2  0  0  0  0  0  0  0  0  0
  182.3370  178.6910  141.8110 C   0  0  0  0  0  1  0  0  0  0  0  0
  183.2430  179.7740  143.8320 O   0  0  0  0  0  0  0  0  0  0  0  0
  182.8530  178.4960  144.2150 N   0  0  0  0  0  2  0  0  0  0  0  0
  183.3800  178.7870  142.9100 C   0  0  2  0  0  0  0  0  0  0  0  0
  194.0360  175.4730  137.3110 C   0  0  0  0  0  0  0  0  0  0  0  0
  194.4280  176.4090  136.6240 O   0  0  0  0  0  0  0  0  0  0  0  0
  196.3240  174.9760  137.7320 O   0  0  0  0  0  1  0  0  0  0  0  0
  195.0150  174.6200  138.0610 C   0  0  2  0  0  3  0  0  0  0  0  0
  194.7840  173.1330  137.8200 C   0  0  0  0  0  2  0  0  0  0  0  0
  195.3010  172.3700  138.8730 O   0  0  0  0  0  1  0  0  0  0  0  0
  1  2  1  1  0  0  0
  1  4  1  0  0  0  0
  2 13  1  0  0  0  0
  3  9  1  0  0  0  0
  4  6  1  1  0  0  0
  4  8  1  0  0  0  0
  5  3  2  0  0  0  0
  5 10  1  0  0  0  0
  8 12  2  0  0  0  0
  8 25  1  0  0  0  0
  9 34  1  6  0  0  0
  9 11  1  0  0  0  0
 10  2  1  0  0  0  0
 10 11  2  0  0  0  0
 11  7  1  0  0  0  0
 13  7  2  0  0  0  0
 13 12  1  0  0  0  0
 14 22  1  1  0  0  0
 14 15  1  0  0  0  0
 15  1  1  6  0  0  0
 17 16  1  1  0  0  0
 17 14  1  0  0  0  0
 17 15  1  0  0  0  0
 18 20  1  0  0  0  0
 19 21  1  0  0  0  0
 19 22  2  0  0  0  0
 21 18  2  0  0  0  0
 22 23  1  0  0  0  0
 23 20  2  0  0  0  0
 24 26  2  0  0  0  0
 25 24  1  0  0  0  0
 28 24  1  6  0  0  0
 28 29  1  0  0  0  0
 28 27  1  0  0  0  0
 29 33  1  0  0  0  0
 29 27  1  1  0  0  0
 31 32  1  0  0  0  0
 33 30  1  6  0  0  0
 33 31  1  0  0  0  0
 33 32  1  0  0  0  0
 34 37  1  0  0  0  0
 35 34  2  0  0  0  0
 37 36  1  6  0  0  0
 38 37  1  0  0  0  0
 38 39  1  0  0  0  0
M  END
>  <MODEL>
1

>  <REMARK>
 VINA RESULT:      -7.4      0.000      0.000
  Name = 
  8 active torsions:
  status: ('A' for Active; 'I' for Inactive)
    1  A    between atoms: C_1  and  C_35
    2  A    between atoms: C_3  and  C_29
    3  A    between atoms: C_4  and  C_8
    4  A    between atoms: C_10  and  C_11
    5  A    between atoms: C_13  and  C_30
    6  A    between atoms: C_13  and  C_35
    7  A    between atoms: N_14  and  C_28
    8  A    between atoms: C_34  and  N_36
                            x       y       z     vdW  Elec       q    Type
                         _______ _______ _______ _____ _____    ______ ____

>  <TORSDO>
F 8

$$$$
=
 OpenBabel10232412453D

 39 45  0  0  1  0  0  0  0  0999 V2000
  189.8630  177.5370  138.7300 C   0  0  2  0  0  3  0  0  0  0  0  0
  188.9270  177.0210  137.7300 N   0  0  0  0  0  0  0  0  0  0  0  0
  185.5960  177.8780  138.1890 N   0  0  0  0  0  0  0  0  0  0  0  0
  191.2010  176.8310  138.5680 C   0  0  1  0  0  3  0  0  0  0  0  0
  186.7990  178.2860  138.2370 N   0  0  0  0  0  0  0  0  0  0  0  0
  192.6390  177.6240  139.2080 Cl  0  0  0  0  0  0  0  0  0  0  0  0
  187.6630  175.2040  136.7530 C   0  0  0  0  0  3  0  0  0  0  0  0
  191.2910  175.6040  138.0000 C   0  0  0  0  0  0  0  0  0  0  0  0
  185.4770  176.6620  137.3810 C   0  0  2  0  0  3  0  0  0  0  0  0
  187.5960  177.4240  137.4460 C   0  0  0  0  0  0  0  0  0  0  0  0
  186.8770  176.4720  136.9030 C   0  0  0  0  0  0  0  0  0  0  0  0
  190.0880  174.9610  137.4110 C   0  0  0  0  0  3  0  0  0  0  0  0
  188.9750  175.6730  137.2900 C   0  0  0  0  0  0  0  0  0  0  0  0
  189.9370  178.2590  141.1230 C   0  0  1  0  0  3  0  0  0  0  0  0
  189.3250  177.2740  140.1340 C   0  0  1  0  0  3  0  0  0  0  0  0
  187.5430  178.0090  141.5250 O   0  0  0  0  0  1  0  0  0  0  0  0
  188.5050  178.4550  140.6130 C   0  0  1  0  0  3  0  0  0  0  0  0
  190.3170  176.6540  145.1050 C   0  0  0  0  0  3  0  0  0  0  0  0
  189.9090  178.5230  143.6170 C   0  0  0  0  0  3  0  0  0  0  0  0
  190.4630  175.8100  143.9990 C   0  0  0  0  0  3  0  0  0  0  0  0
  190.0430  178.0100  144.9140 C   0  0  0  0  0  3  0  0  0  0  0  0
  190.0330  177.6780  142.5080 C   0  0  0  0  0  0  0  0  0  0  0  0
  190.3290  176.3220  142.7040 C   0  0  0  0  0  3  0  0  0  0  0  0
  193.6140  175.1570  137.0150 C   0  0  0  0  0  0  0  0  0  0  0  0
  192.5640  174.9400  137.9650 N   0  0  0  0  0  2  0  0  0  0  0  0
  193.5220  176.0610  136.1410 O   0  0  0  0  0  0  0  0  0  0  0  0
  194.9660  173.7690  138.3480 O   0  0  0  0  0  0  0  0  0  0  0  0
  194.8500  174.3170  137.1110 C   0  0  2  0  0  3  0  0  0  0  0  0
  195.7500  174.8850  138.0900 N   0  0  2  0  0  0  0  0  0  0  0  0
  197.3870  172.9750  137.4300 C   0  0  0  0  0  1  0  0  0  0  0  0
  198.1280  175.1680  138.2780 O   0  0  0  0  0  0  0  0  0  0  0  0
  197.8100  175.3550  136.9380 N   0  0  0  0  0  2  0  0  0  0  0  0
  197.1060  174.4260  137.7790 C   0  0  2  0  0  0  0  0  0  0  0  0
  184.5250  176.8850  136.2410 C   0  0  0  0  0  0  0  0  0  0  0  0
  184.9380  177.2500  135.1480 O   0  0  0  0  0  0  0  0  0  0  0  0
  182.4380  177.8820  136.7970 O   0  0  0  0  0  1  0  0  0  0  0  0
  183.0580  176.6750  136.4680 C   0  0  2  0  0  3  0  0  0  0  0  0
  182.7860  175.6220  137.5360 C   0  0  0  0  0  2  0  0  0  0  0  0
  182.2540  176.2060  138.6900 O   0  0  0  0  0  1  0  0  0  0  0  0
  1  2  1  6  0  0  0
  3  5  2  0  0  0  0
  4  1  1  0  0  0  0
  4  6  1  1  0  0  0
  7 11  1  0  0  0  0
  7 13  2  0  0  0  0
  8  4  1  0  0  0  0
  9 34  1  6  0  0  0
  9  3  1  0  0  0  0
 10  2  1  0  0  0  0
 10  5  1  0  0  0  0
 11  9  1  0  0  0  0
 11 10  2  0  0  0  0
 12  8  2  0  0  0  0
 13 12  1  0  0  0  0
 13  2  1  0  0  0  0
 14 22  1  1  0  0  0
 15  1  1  6  0  0  0
 15 17  1  0  0  0  0
 15 14  1  0  0  0  0
 17 14  1  0  0  0  0
 17 16  1  1  0  0  0
 19 21  2  0  0  0  0
 20 18  2  0  0  0  0
 21 18  1  0  0  0  0
 22 23  2  0  0  0  0
 22 19  1  0  0  0  0
 23 20  1  0  0  0  0
 24 25  1  0  0  0  0
 25  8  1  0  0  0  0
 26 24  2  0  0  0  0
 28 24  1  1  0  0  0
 28 29  1  0  0  0  0
 28 27  1  0  0  0  0
 29 27  1  1  0  0  0
 32 33  1  0  0  0  0
 32 31  1  0  0  0  0
 33 30  1  6  0  0  0
 33 29  1  0  0  0  0
 33 31  1  0  0  0  0
 34 37  1  0  0  0  0
 35 34  2  0  0  0  0
 37 36  1  1  0  0  0
 37 38  1  0  0  0  0
 38 39  1  0  0  0  0
M  END
>  <MODEL>
2

>  <REMARK>
 VINA RESULT:      -7.2      3.248      9.667
  Name = 
  8 active torsions:
  status: ('A' for Active; 'I' for Inactive)
    1  A    between atoms: C_1  and  C_35
    2  A    between atoms: C_3  and  C_29
    3  A    between atoms: C_4  and  C_8
    4  A    between atoms: C_10  and  C_11
    5  A    between atoms: C_13  and  C_30
    6  A    between atoms: C_13  and  C_35
    7  A    between atoms: N_14  and  C_28
    8  A    between atoms: C_34  and  N_36
                            x       y       z     vdW  Elec       q    Type
                         _______ _______ _______ _____ _____    ______ ____

>  <TORSDO>
F 8

$$$$
=
 OpenBabel10232412453D

 39 45  0  0  1  0  0  0  0  0999 V2000
  189.1060  177.0320  136.7850 C   0  0  2  0  0  3  0  0  0  0  0  0
  190.4900  177.0030  137.2630 N   0  0  0  0  0  0  0  0  0  0  0  0
  192.6400  174.8870  135.5490 N   0  0  0  0  0  0  0  0  0  0  0  0
  188.2420  177.7500  137.8110 C   0  0  1  0  0  3  0  0  0  0  0  0
  191.6920  175.7290  135.4430 N   0  0  0  0  0  0  0  0  0  0  0  0
  186.7110  178.4360  137.2710 Cl  0  0  0  0  0  0  0  0  0  0  0  0
  192.1550  176.3380  138.8870 C   0  0  0  0  0  3  0  0  0  0  0  0
  188.6010  177.8180  139.1170 C   0  0  0  0  0  0  0  0  0  0  0  0
  193.3140  175.0030  136.8440 C   0  0  2  0  0  3  0  0  0  0  0  0
  191.6570  176.5130  136.6210 C   0  0  0  0  0  0  0  0  0  0  0  0
  192.5920  176.1520  137.4650 C   0  0  0  0  0  0  0  0  0  0  0  0
  189.9160  177.2900  139.5610 C   0  0  0  0  0  3  0  0  0  0  0  0
  190.7990  176.9160  138.6440 C   0  0  0  0  0  0  0  0  0  0  0  0
  187.3310  175.6140  135.7400 C   0  0  1  0  0  3  0  0  0  0  0  0
  188.5880  175.6070  136.6030 C   0  0  1  0  0  3  0  0  0  0  0  0
  188.8280  173.8080  135.0690 O   0  0  0  0  0  1  0  0  0  0  0  0
  188.6810  175.1960  135.1470 C   0  0  1  0  0  3  0  0  0  0  0  0
  184.6120  172.4110  136.7010 C   0  0  0  0  0  3  0  0  0  0  0  0
  185.4580  174.0590  135.1380 C   0  0  0  0  0  3  0  0  0  0  0  0
  185.5520  172.8320  137.6480 C   0  0  0  0  0  3  0  0  0  0  0  0
  184.5630  173.0260  135.4480 C   0  0  0  0  0  3  0  0  0  0  0  0
  186.4140  174.4680  136.0740 C   0  0  0  0  0  0  0  0  0  0  0  0
  186.4450  173.8630  137.3380 C   0  0  0  0  0  3  0  0  0  0  0  0
  187.5850  178.1040  141.4530 C   0  0  0  0  0  0  0  0  0  0  0  0
  187.6990  178.4190  140.0600 N   0  0  0  0  0  2  0  0  0  0  0  0
  188.3760  177.2870  142.0000 O   0  0  0  0  0  0  0  0  0  0  0  0
  186.4010  178.2210  143.4810 O   0  0  0  0  0  0  0  0  0  0  0  0
  186.5370  178.8020  142.2610 C   0  0  2  0  0  3  0  0  0  0  0  0
  185.4440  177.8950  142.5310 N   0  0  2  0  0  0  0  0  0  0  0  0
  184.1690  179.6230  143.9970 C   0  0  0  0  0  1  0  0  0  0  0  0
  183.0800  178.2350  142.2760 O   0  0  0  0  0  0  0  0  0  0  0  0
  183.7060  179.2750  141.5990 N   0  0  0  0  0  2  0  0  0  0  0  0
  184.2450  178.6940  142.7980 C   0  0  2  0  0  0  0  0  0  0  0  0
  194.7720  175.3020  136.6480 C   0  0  0  0  0  0  0  0  0  0  0  0
  195.1260  176.3100  136.0500 O   0  0  0  0  0  0  0  0  0  0  0  0
  195.6800  174.2210  138.5630 O   0  0  0  0  0  1  0  0  0  0  0  0
  195.7890  174.3350  137.1760 C   0  0  2  0  0  3  0  0  0  0  0  0
  197.2100  174.7210  136.7780 C   0  0  0  0  0  2  0  0  0  0  0  0
  197.8720  175.3490  137.8380 O   0  0  0  0  0  1  0  0  0  0  0  0
  1  2  1  1  0  0  0
  1  4  1  0  0  0  0
  2 13  1  0  0  0  0
  3  9  1  0  0  0  0
  4  6  1  1  0  0  0
  4  8  1  0  0  0  0
  5  3  2  0  0  0  0
  5 10  1  0  0  0  0
  8 12  2  0  0  0  0
  8 25  1  0  0  0  0
  9 34  1  6  0  0  0
  9 11  1  0  0  0  0
 10  2  1  0  0  0  0
 10 11  2  0  0  0  0
 11  7  1  0  0  0  0
 13  7  2  0  0  0  0
 13 12  1  0  0  0  0
 14 22  1  1  0  0  0
 14 15  1  0  0  0  0
 15  1  1  6  0  0  0
 17 16  1  1  0  0  0
 17 14  1  0  0  0  0
 17 15  1  0  0  0  0
 18 20  1  0  0  0  0
 19 21  1  0  0  0  0
 19 22  2  0  0  0  0
 21 18  2  0  0  0  0
 22 23  1  0  0  0  0
 23 20  2  0  0  0  0
 24 26  2  0  0  0  0
 25 24  1  0  0  0  0
 28 24  1  6  0  0  0
 28 29  1  0  0  0  0
 28 27  1  0  0  0  0
 29 33  1  0  0  0  0
 29 27  1  1  0  0  0
 31 33  1  0  0  0  0
 32 31  1  0  0  0  0
 32 33  1  0  0  0  0
 33 30  1  1  0  0  0
 34 37  1  0  0  0  0
 35 34  2  0  0  0  0
 37 36  1  1  0  0  0
 38 37  1  0  0  0  0
 38 39  1  0  0  0  0
M  END
>  <MODEL>
3

>  <REMARK>
 VINA RESULT:      -7.0      1.134      1.393
  Name = 
  8 active torsions:
  status: ('A' for Active; 'I' for Inactive)
    1  A    between atoms: C_1  and  C_35
    2  A    between atoms: C_3  and  C_29
    3  A    between atoms: C_4  and  C_8
    4  A    between atoms: C_10  and  C_11
    5  A    between atoms: C_13  and  C_30
    6  A    between atoms: C_13  and  C_35
    7  A    between atoms: N_14  and  C_28
    8  A    between atoms: C_34  and  N_36
                            x       y       z     vdW  Elec       q    Type
                         _______ _______ _______ _____ _____    ______ ____

>  <TORSDO>
F 8

$$$$
=
 OpenBabel10232412453D

 39 45  0  0  1  0  0  0  0  0999 V2000
  189.3600  176.7410  136.5220 C   0  0  2  0  0  3  0  0  0  0  0  0
  190.7780  176.4230  136.7030 N   0  0  0  0  0  0  0  0  0  0  0  0
  192.1650  174.2880  134.3460 N   0  0  0  0  0  0  0  0  0  0  0  0
  188.8380  177.4170  137.7800 C   0  0  1  0  0  3  0  0  0  0  0  0
  191.3840  175.2740  134.5370 N   0  0  0  0  0  0  0  0  0  0  0  0
  187.3860  178.4090  137.6470 Cl  0  0  0  0  0  0  0  0  0  0  0  0
  192.5540  175.2630  137.8650 C   0  0  0  0  0  3  0  0  0  0  0  0
  189.4290  177.2260  138.9850 C   0  0  0  0  0  0  0  0  0  0  0  0
  193.0680  174.0960  135.4830 C   0  0  2  0  0  3  0  0  0  0  0  0
  191.7020  175.8620  135.7840 C   0  0  0  0  0  0  0  0  0  0  0  0
  192.6900  175.2330  136.3720 C   0  0  0  0  0  0  0  0  0  0  0  0
  190.6830  176.4370  139.0870 C   0  0  0  0  0  3  0  0  0  0  0  0
  191.3060  176.0760  137.9730 C   0  0  0  0  0  0  0  0  0  0  0  0
  187.1400  175.8010  135.8550 C   0  0  1  0  0  3  0  0  0  0  0  0
  188.5660  175.4600  136.2750 C   0  0  1  0  0  3  0  0  0  0  0  0
  188.0440  174.0090  134.4670 O   0  0  0  0  0  1  0  0  0  0  0  0
  188.1740  175.3570  134.8140 C   0  0  1  0  0  3  0  0  0  0  0  0
  184.2710  172.8210  137.0610 C   0  0  0  0  0  3  0  0  0  0  0  0
  184.9420  174.6240  135.5870 C   0  0  0  0  0  3  0  0  0  0  0  0
  185.4810  172.9380  137.7510 C   0  0  0  0  0  3  0  0  0  0  0  0
  184.0000  173.6640  135.9820 C   0  0  0  0  0  3  0  0  0  0  0  0
  186.1640  174.7300  136.2610 C   0  0  0  0  0  0  0  0  0  0  0  0
  186.4230  173.8950  137.3580 C   0  0  0  0  0  3  0  0  0  0  0  0
  189.0380  177.3920  141.5130 C   0  0  0  0  0  0  0  0  0  0  0  0
  188.8350  177.8070  140.1570 N   0  0  0  0  0  2  0  0  0  0  0  0
  189.8690  176.4870  141.7970 O   0  0  0  0  0  0  0  0  0  0  0  0
  188.7690  177.7650  143.8190 O   0  0  0  0  0  0  0  0  0  0  0  0
  188.2760  178.0900  142.5960 C   0  0  2  0  0  3  0  0  0  0  0  0
  187.6060  177.1150  143.4280 N   0  0  2  0  0  0  0  0  0  0  0  0
  185.2290  178.1610  143.3000 C   0  0  0  0  0  1  0  0  0  0  0  0
  186.7450  178.4600  145.2210 O   0  0  0  0  0  0  0  0  0  0  0  0
  186.1790  177.1990  145.3630 N   0  0  0  0  0  2  0  0  0  0  0  0
  186.4740  177.7760  144.0800 C   0  0  2  0  0  0  0  0  0  0  0  0
  194.4980  174.1900  135.0360 C   0  0  0  0  0  0  0  0  0  0  0  0
  194.9950  173.3060  134.3470 O   0  0  0  0  0  0  0  0  0  0  0  0
  195.4650  176.2700  134.4070 O   0  0  0  0  0  1  0  0  0  0  0  0
  195.3180  175.3700  135.4640 C   0  0  2  0  0  3  0  0  0  0  0  0
  196.6790  174.9560  136.0110 C   0  0  0  0  0  2  0  0  0  0  0  0
  197.4860  176.0750  136.2420 O   0  0  0  0  0  1  0  0  0  0  0  0
  1  2  1  1  0  0  0
  1  4  1  0  0  0  0
  2 13  1  0  0  0  0
  3  5  2  0  0  0  0
  3  9  1  0  0  0  0
  4  6  1  1  0  0  0
  4  8  1  0  0  0  0
  5 10  1  0  0  0  0
  7 13  2  0  0  0  0
  8 12  2  0  0  0  0
  8 25  1  0  0  0  0
  9 34  1  6  0  0  0
  9 11  1  0  0  0  0
 10 11  2  0  0  0  0
 10  2  1  0  0  0  0
 11  7  1  0  0  0  0
 13 12  1  0  0  0  0
 14 22  1  1  0  0  0
 14 15  1  0  0  0  0
 15  1  1  6  0  0  0
 17 16  1  1  0  0  0
 17 14  1  0  0  0  0
 17 15  1  0  0  0  0
 18 20  1  0  0  0  0
 19 21  1  0  0  0  0
 19 22  2  0  0  0  0
 21 18  2  0  0  0  0
 22 23  1  0  0  0  0
 23 20  2  0  0  0  0
 24 26  2  0  0  0  0
 25 24  1  0  0  0  0
 28 24  1  6  0  0  0
 28 29  1  0  0  0  0
 28 27  1  0  0  0  0
 29 27  1  1  0  0  0
 29 33  1  0  0  0  0
 31 32  1  0  0  0  0
 33 30  1  6  0  0  0
 33 31  1  0  0  0  0
 33 32  1  0  0  0  0
 34 37  1  0  0  0  0
 35 34  2  0  0  0  0
 37 36  1  6  0  0  0
 37 38  1  0  0  0  0
 38 39  1  0  0  0  0
M  END
>  <MODEL>
4

>  <REMARK>
 VINA RESULT:      -6.9      1.959      2.431
  Name = 
  8 active torsions:
  status: ('A' for Active; 'I' for Inactive)
    1  A    between atoms: C_1  and  C_35
    2  A    between atoms: C_3  and  C_29
    3  A    between atoms: C_4  and  C_8
    4  A    between atoms: C_10  and  C_11
    5  A    between atoms: C_13  and  C_30
    6  A    between atoms: C_13  and  C_35
    7  A    between atoms: N_14  and  C_28
    8  A    between atoms: C_34  and  N_36
                            x       y       z     vdW  Elec       q    Type
                         _______ _______ _______ _____ _____    ______ ____

>  <TORSDO>
F 8

$$$$
=
 OpenBabel10232412453D

 39 45  0  0  1  0  0  0  0  0999 V2000
  189.7850  176.7810  137.7190 C   0  0  2  0  0  3  0  0  0  0  0  0
  188.6510  176.1970  137.0000 N   0  0  0  0  0  0  0  0  0  0  0  0
  185.5610  177.6540  137.6080 N   0  0  0  0  0  0  0  0  0  0  0  0
  190.9850  175.8540  137.5890 C   0  0  1  0  0  3  0  0  0  0  0  0
  186.7990  177.8670  137.4100 N   0  0  0  0  0  0  0  0  0  0  0  0
  192.5910  176.5380  137.8330 Cl  0  0  0  0  0  0  0  0  0  0  0  0
  187.0370  174.4240  136.6750 C   0  0  0  0  0  3  0  0  0  0  0  0
  190.8340  174.5280  137.3480 C   0  0  0  0  0  0  0  0  0  0  0  0
  185.1700  176.3170  137.1580 C   0  0  2  0  0  3  0  0  0  0  0  0
  187.3530  176.7270  136.7790 C   0  0  0  0  0  0  0  0  0  0  0  0
  186.4470  175.8000  136.5850 C   0  0  0  0  0  0  0  0  0  0  0  0
  189.4850  173.9630  137.0870 C   0  0  0  0  0  3  0  0  0  0  0  0
  188.4640  174.7940  136.9180 C   0  0  0  0  0  0  0  0  0  0  0  0
  190.5510  177.7000  139.9150 C   0  0  1  0  0  3  0  0  0  0  0  0
  189.4370  176.9460  139.1960 C   0  0  1  0  0  3  0  0  0  0  0  0
  188.3610  178.5270  140.6070 O   0  0  0  0  0  1  0  0  0  0  0  0
  189.2480  178.4110  139.5320 C   0  0  1  0  0  3  0  0  0  0  0  0
  190.9390  176.5500  144.0500 C   0  0  0  0  0  3  0  0  0  0  0  0
  191.4870  178.0370  142.2170 C   0  0  0  0  0  3  0  0  0  0  0  0
  190.1140  175.8080  143.1980 C   0  0  0  0  0  3  0  0  0  0  0  0
  191.6270  177.6620  143.5600 C   0  0  0  0  0  3  0  0  0  0  0  0
  190.6460  177.3110  141.3660 C   0  0  0  0  0  0  0  0  0  0  0  0
  189.9740  176.1830  141.8580 C   0  0  0  0  0  3  0  0  0  0  0  0
  192.7540  173.2910  136.1860 C   0  0  0  0  0  0  0  0  0  0  0  0
  191.9950  173.6820  137.3360 N   0  0  0  0  0  2  0  0  0  0  0  0
  192.4920  173.7590  135.0450 O   0  0  0  0  0  0  0  0  0  0  0  0
  194.2170  171.7320  135.2050 O   0  0  0  0  0  0  0  0  0  0  0  0
  193.9020  172.3490  136.3740 C   0  0  2  0  0  3  0  0  0  0  0  0
  193.4690  170.9940  136.1130 N   0  0  2  0  0  0  0  0  0  0  0  0
  195.2600  170.5730  137.9500 C   0  0  0  0  0  1  0  0  0  0  0  0
  194.7650  168.9730  136.1410 O   0  0  0  0  0  0  0  0  0  0  0  0
  193.7610  168.8130  137.0880 N   0  0  0  0  0  2  0  0  0  0  0  0
  194.3760  170.0840  136.8160 C   0  0  2  0  0  0  0  0  0  0  0  0
  184.0910  176.4110  136.1180 C   0  0  0  0  0  0  0  0  0  0  0  0
  184.2880  177.0140  135.0700 O   0  0  0  0  0  0  0  0  0  0  0  0
  181.7830  176.7550  136.5790 O   0  0  0  0  0  1  0  0  0  0  0  0
  182.7610  175.7760  136.3910 C   0  0  2  0  0  3  0  0  0  0  0  0
  182.8100  174.8290  137.5840 C   0  0  0  0  0  2  0  0  0  0  0  0
  182.3150  175.4500  138.7360 O   0  0  0  0  0  1  0  0  0  0  0  0
  1  2  1  6  0  0  0
  4  1  1  0  0  0  0
  4  6  1  1  0  0  0
  5  3  2  0  0  0  0
  7 13  2  0  0  0  0
  8  4  1  0  0  0  0
  9 34  1  6  0  0  0
  9  3  1  0  0  0  0
 10  2  1  0  0  0  0
 10  5  1  0  0  0  0
 11  7  1  0  0  0  0
 11 10  2  0  0  0  0
 11  9  1  0  0  0  0
 12  8  2  0  0  0  0
 13  2  1  0  0  0  0
 13 12  1  0  0  0  0
 14 22  1  1  0  0  0
 15  1  1  6  0  0  0
 15 17  1  0  0  0  0
 15 14  1  0  0  0  0
 17 14  1  0  0  0  0
 17 16  1  1  0  0  0
 19 21  2  0  0  0  0
 20 18  2  0  0  0  0
 21 18  1  0  0  0  0
 22 23  2  0  0  0  0
 22 19  1  0  0  0  0
 23 20  1  0  0  0  0
 24 25  1  0  0  0  0
 25  8  1  0  0  0  0
 26 24  2  0  0  0  0
 27 28  1  0  0  0  0
 28 24  1  6  0  0  0
 29 27  1  6  0  0  0
 29 28  1  0  0  0  0
 29 33  1  0  0  0  0
 31 33  1  0  0  0  0
 31 32  1  0  0  0  0
 33 32  1  0  0  0  0
 33 30  1  1  0  0  0
 34 37  1  0  0  0  0
 35 34  2  0  0  0  0
 37 36  1  1  0  0  0
 37 38  1  0  0  0  0
 38 39  1  0  0  0  0
M  END
>  <MODEL>
5

>  <REMARK>
 VINA RESULT:      -6.6      3.424      9.766
  Name = 
  8 active torsions:
  status: ('A' for Active; 'I' for Inactive)
    1  A    between atoms: C_1  and  C_35
    2  A    between atoms: C_3  and  C_29
    3  A    between atoms: C_4  and  C_8
    4  A    between atoms: C_10  and  C_11
    5  A    between atoms: C_13  and  C_30
    6  A    between atoms: C_13  and  C_35
    7  A    between atoms: N_14  and  C_28
    8  A    between atoms: C_34  and  N_36
                            x       y       z     vdW  Elec       q    Type
                         _______ _______ _______ _____ _____    ______ ____

>  <TORSDO>
F 8

$$$$
=
 OpenBabel10232412453D

 39 45  0  0  1  0  0  0  0  0999 V2000
  190.5570  177.3690  137.7240 C   0  0  2  0  0  3  0  0  0  0  0  0
  189.3110  176.7900  137.2180 N   0  0  0  0  0  0  0  0  0  0  0  0
  186.4160  178.5640  137.9330 N   0  0  0  0  0  0  0  0  0  0  0  0
  191.6690  176.3380  137.6020 C   0  0  1  0  0  3  0  0  0  0  0  0
  187.6350  178.6460  137.5780 N   0  0  0  0  0  0  0  0  0  0  0  0
  193.3340  176.9140  137.5770 Cl  0  0  0  0  0  0  0  0  0  0  0  0
  187.5560  175.1280  137.3190 C   0  0  0  0  0  3  0  0  0  0  0  0
  191.4030  175.0090  137.5690 C   0  0  0  0  0  0  0  0  0  0  0  0
  185.8870  177.2150  137.7210 C   0  0  2  0  0  3  0  0  0  0  0  0
  188.0340  177.3900  137.0610 C   0  0  0  0  0  0  0  0  0  0  0  0
  187.0530  176.5230  137.0970 C   0  0  0  0  0  0  0  0  0  0  0  0
  189.9980  174.5270  137.5340 C   0  0  0  0  0  3  0  0  0  0  0  0
  189.0220  175.4080  137.3560 C   0  0  0  0  0  0  0  0  0  0  0  0
  189.9950  176.5390  140.0150 C   0  0  1  0  0  3  0  0  0  0  0  0
  190.3930  177.7580  139.1910 C   0  0  1  0  0  3  0  0  0  0  0  0
  191.7080  177.8380  141.1690 O   0  0  0  0  0  1  0  0  0  0  0  0
  191.4370  177.0600  140.0400 C   0  0  1  0  0  3  0  0  0  0  0  0
  187.5790  177.5200  143.4450 C   0  0  0  0  0  3  0  0  0  0  0  0
  189.2920  176.1670  142.3940 C   0  0  0  0  0  3  0  0  0  0  0  0
  187.4410  178.2580  142.2650 C   0  0  0  0  0  3  0  0  0  0  0  0
  188.5010  176.4740  143.5090 C   0  0  0  0  0  3  0  0  0  0  0  0
  189.1740  176.9170  141.2180 C   0  0  0  0  0  0  0  0  0  0  0  0
  188.2310  177.9530  141.1520 C   0  0  0  0  0  3  0  0  0  0  0  0
  193.1410  173.5340  136.3980 C   0  0  0  0  0  0  0  0  0  0  0  0
  192.4950  174.0760  137.5560 N   0  0  0  0  0  2  0  0  0  0  0  0
  192.8340  173.9270  135.2390 O   0  0  0  0  0  0  0  0  0  0  0  0
  194.8190  172.6780  137.8060 O   0  0  0  0  0  0  0  0  0  0  0  0
  194.2280  172.5230  136.5930 C   0  0  2  0  0  3  0  0  0  0  0  0
  195.5030  173.1950  136.7140 N   0  0  2  0  0  0  0  0  0  0  0  0
  196.5550  171.5590  134.9880 C   0  0  0  0  0  1  0  0  0  0  0  0
  197.2070  171.6320  137.3650 O   0  0  0  0  0  0  0  0  0  0  0  0
  197.8570  172.6950  136.7490 N   0  0  0  0  0  2  0  0  0  0  0  0
  196.5540  172.2440  136.3430 C   0  0  2  0  0  0  0  0  0  0  0  0
  184.7050  177.2580  136.7970 C   0  0  0  0  0  0  0  0  0  0  0  0
  184.8640  177.3210  135.5840 O   0  0  0  0  0  0  0  0  0  0  0  0
  183.0280  178.4820  137.9570 O   0  0  0  0  0  1  0  0  0  0  0  0
  183.3240  177.2460  137.3820 C   0  0  2  0  0  3  0  0  0  0  0  0
  183.1390  176.1220  138.3950 C   0  0  0  0  0  2  0  0  0  0  0  0
  183.3290  174.8720  137.7950 O   0  0  0  0  0  1  0  0  0  0  0  0
  1  2  1  1  0  0  0
  2 13  1  0  0  0  0
  4  6  1  1  0  0  0
  4  1  1  0  0  0  0
  5  3  2  0  0  0  0
  7 13  2  0  0  0  0
  8  4  1  0  0  0  0
  9 34  1  6  0  0  0
  9  3  1  0  0  0  0
 10 11  2  0  0  0  0
 10  2  1  0  0  0  0
 10  5  1  0  0  0  0
 11  7  1  0  0  0  0
 11  9  1  0  0  0  0
 12  8  2  0  0  0  0
 13 12  1  0  0  0  0
 14 17  1  0  0  0  0
 14 22  1  1  0  0  0
 15  1  1  6  0  0  0
 15 14  1  0  0  0  0
 15 17  1  0  0  0  0
 17 16  1  1  0  0  0
 18 21  1  0  0  0  0
 19 21  2  0  0  0  0
 20 18  2  0  0  0  0
 22 19  1  0  0  0  0
 23 22  2  0  0  0  0
 23 20  1  0  0  0  0
 24 25  1  0  0  0  0
 25  8  1  0  0  0  0
 26 24  2  0  0  0  0
 28 24  1  1  0  0  0
 28 29  1  0  0  0  0
 28 27  1  0  0  0  0
 29 27  1  1  0  0  0
 32 31  1  0  0  0  0
 33 30  1  6  0  0  0
 33 29  1  0  0  0  0
 33 32  1  0  0  0  0
 33 31  1  0  0  0  0
 34 37  1  0  0  0  0
 35 34  2  0  0  0  0
 37 36  1  1  0  0  0
 37 38  1  0  0  0  0
 39 38  1  0  0  0  0
M  END
>  <MODEL>
6

>  <REMARK>
 VINA RESULT:      -6.5      3.321      9.559
  Name = 
  8 active torsions:
  status: ('A' for Active; 'I' for Inactive)
    1  A    between atoms: C_1  and  C_35
    2  A    between atoms: C_3  and  C_29
    3  A    between atoms: C_4  and  C_8
    4  A    between atoms: C_10  and  C_11
    5  A    between atoms: C_13  and  C_30
    6  A    between atoms: C_13  and  C_35
    7  A    between atoms: N_14  and  C_28
    8  A    between atoms: C_34  and  N_36
                            x       y       z     vdW  Elec       q    Type
                         _______ _______ _______ _____ _____    ______ ____

>  <TORSDO>
F 8

$$$$
=
 OpenBabel10232412453D

 39 45  0  0  1  0  0  0  0  0999 V2000
  187.9170  176.5810  135.7600 C   0  0  2  0  0  3  0  0  0  0  0  0
  186.9470  175.5140  136.0150 N   0  0  0  0  0  0  0  0  0  0  0  0
  183.8490  176.5360  137.1970 N   0  0  0  0  0  0  0  0  0  0  0  0
  189.2910  175.9620  135.5530 C   0  0  1  0  0  3  0  0  0  0  0  0
  184.7920  176.7820  136.3800 N   0  0  0  0  0  0  0  0  0  0  0  0
  190.4990  176.9020  134.6770 Cl  0  0  0  0  0  0  0  0  0  0  0  0
  186.1350  173.6670  137.3490 C   0  0  0  0  0  3  0  0  0  0  0  0
  189.6080  174.7490  136.0680 C   0  0  0  0  0  0  0  0  0  0  0  0
  183.9000  175.1510  137.6700 C   0  0  2  0  0  3  0  0  0  0  0  0
  185.5410  175.5960  136.1920 C   0  0  0  0  0  0  0  0  0  0  0  0
  185.0560  174.6050  136.9000 C   0  0  0  0  0  0  0  0  0  0  0  0
  188.5740  173.9350  136.7570 C   0  0  0  0  0  3  0  0  0  0  0  0
  187.3080  174.3280  136.7040 C   0  0  0  0  0  0  0  0  0  0  0  0
  189.1700  177.2000  137.8350 C   0  0  1  0  0  3  0  0  0  0  0  0
  187.9710  177.5330  136.9530 C   0  0  1  0  0  3  0  0  0  0  0  0
  188.9680  179.6130  137.5280 O   0  0  0  0  0  1  0  0  0  0  0  0
  189.2140  178.3980  136.8790 C   0  0  1  0  0  3  0  0  0  0  0  0
  188.4640  178.1090  141.9870 C   0  0  0  0  0  3  0  0  0  0  0  0
  189.9260  177.3210  140.2230 C   0  0  0  0  0  3  0  0  0  0  0  0
  187.4520  178.3270  141.0480 C   0  0  0  0  0  3  0  0  0  0  0  0
  189.6990  177.6030  141.5760 C   0  0  0  0  0  3  0  0  0  0  0  0
  188.9240  177.5590  139.2750 C   0  0  0  0  0  0  0  0  0  0  0  0
  187.6780  178.0460  139.6960 C   0  0  0  0  0  3  0  0  0  0  0  0
  191.9740  174.2730  136.9320 C   0  0  0  0  0  0  0  0  0  0  0  0
  190.9510  174.2580  135.9290 N   0  0  0  0  0  2  0  0  0  0  0  0
  191.7280  174.6650  138.1050 O   0  0  0  0  0  0  0  0  0  0  0  0
  194.0950  173.5890  137.6840 O   0  0  0  0  0  0  0  0  0  0  0  0
  193.3360  173.7670  136.5710 C   0  0  2  0  0  3  0  0  0  0  0  0
  194.3350  174.7420  136.9490 N   0  0  2  0  0  0  0  0  0  0  0  0
  195.4300  174.4380  134.6110 C   0  0  0  0  0  1  0  0  0  0  0  0
  196.5750  173.9050  136.7280 O   0  0  0  0  0  0  0  0  0  0  0  0
  196.6500  175.2850  136.5810 N   0  0  0  0  0  2  0  0  0  0  0  0
  195.5240  174.5170  136.1240 C   0  0  2  0  0  0  0  0  0  0  0  0
  182.6220  174.4370  137.3370 C   0  0  0  0  0  0  0  0  0  0  0  0
  181.5740  174.7470  137.8910 O   0  0  0  0  0  0  0  0  0  0  0  0
  181.6840  173.5300  135.3490 O   0  0  0  0  0  1  0  0  0  0  0  0
  182.6510  173.3230  136.3350 C   0  0  2  0  0  3  0  0  0  0  0  0
  182.4720  171.9580  136.9880 C   0  0  0  0  0  2  0  0  0  0  0  0
  183.6640  171.2270  136.9520 O   0  0  0  0  0  1  0  0  0  0  0  0
  1  2  1  1  0  0  0
  2 10  1  0  0  0  0
  2 13  1  0  0  0  0
  3  9  1  0  0  0  0
  4  6  1  1  0  0  0
  4  1  1  0  0  0  0
  4  8  1  0  0  0  0
  5  3  2  0  0  0  0
  8 12  2  0  0  0  0
  9 34  1  6  0  0  0
 10  5  1  0  0  0  0
 10 11  2  0  0  0  0
 11  7  1  0  0  0  0
 11  9  1  0  0  0  0
 13 12  1  0  0  0  0
 13  7  2  0  0  0  0
 14 22  1  1  0  0  0
 15  1  1  6  0  0  0
 15 14  1  0  0  0  0
 17 15  1  0  0  0  0
 17 16  1  1  0  0  0
 17 14  1  0  0  0  0
 19 21  2  0  0  0  0
 20 18  2  0  0  0  0
 21 18  1  0  0  0  0
 22 23  2  0  0  0  0
 22 19  1  0  0  0  0
 23 20  1  0  0  0  0
 24 26  2  0  0  0  0
 25  8  1  0  0  0  0
 25 24  1  0  0  0  0
 28 24  1  1  0  0  0
 28 29  1  0  0  0  0
 28 27  1  0  0  0  0
 29 27  1  1  0  0  0
 32 31  1  0  0  0  0
 33 30  1  6  0  0  0
 33 32  1  0  0  0  0
 33 31  1  0  0  0  0
 33 29  1  0  0  0  0
 34 35  2  0  0  0  0
 37 36  1  6  0  0  0
 37 38  1  0  0  0  0
 37 34  1  0  0  0  0
 39 38  1  0  0  0  0
M  END
>  <MODEL>
7

>  <REMARK>
 VINA RESULT:      -6.4      3.306      9.257
  Name = 
  8 active torsions:
  status: ('A' for Active; 'I' for Inactive)
    1  A    between atoms: C_1  and  C_35
    2  A    between atoms: C_3  and  C_29
    3  A    between atoms: C_4  and  C_8
    4  A    between atoms: C_10  and  C_11
    5  A    between atoms: C_13  and  C_30
    6  A    between atoms: C_13  and  C_35
    7  A    between atoms: N_14  and  C_28
    8  A    between atoms: C_34  and  N_36
                            x       y       z     vdW  Elec       q    Type
                         _______ _______ _______ _____ _____    ______ ____

>  <TORSDO>
F 8

$$$$
=
 OpenBabel10232412453D

 39 45  0  0  1  0  0  0  0  0999 V2000
  187.0700  178.4140  138.9220 C   0  0  2  0  0  3  0  0  0  0  0  0
  185.8300  177.8920  138.3450 N   0  0  0  0  0  0  0  0  0  0  0  0
  183.0260  178.0560  140.3820 N   0  0  0  0  0  0  0  0  0  0  0  0
  188.2410  177.9930  138.0460 C   0  0  1  0  0  3  0  0  0  0  0  0
  184.0710  178.6630  139.9870 N   0  0  0  0  0  0  0  0  0  0  0  0
  189.7320  178.9270  138.1500 Cl  0  0  0  0  0  0  0  0  0  0  0  0
  184.4320  176.0440  137.6510 C   0  0  0  0  0  3  0  0  0  0  0  0
  188.1710  176.9000  137.2470 C   0  0  0  0  0  0  0  0  0  0  0  0
  182.6590  176.9740  139.4660 C   0  0  2  0  0  3  0  0  0  0  0  0
  184.4870  178.0870  138.7630 C   0  0  0  0  0  0  0  0  0  0  0  0
  183.6910  177.1130  138.3970 C   0  0  0  0  0  0  0  0  0  0  0  0
  186.8970  176.1470  137.1180 C   0  0  0  0  0  3  0  0  0  0  0  0
  185.7940  176.6570  137.6500 C   0  0  0  0  0  0  0  0  0  0  0  0
  188.2640  178.7090  141.1000 C   0  0  1  0  0  3  0  0  0  0  0  0
  187.2690  177.8510  140.3280 C   0  0  1  0  0  3  0  0  0  0  0  0
  186.3530  178.1280  142.5030 O   0  0  0  0  0  1  0  0  0  0  0  0
  186.7590  178.8320  141.3640 C   0  0  1  0  0  3  0  0  0  0  0  0
  190.5190  176.4740  144.0130 C   0  0  0  0  0  3  0  0  0  0  0  0
  189.5640  178.5630  143.2400 C   0  0  0  0  0  3  0  0  0  0  0  0
  189.9920  175.8220  142.8940 C   0  0  0  0  0  3  0  0  0  0  0  0
  190.3080  177.8440  144.1850 C   0  0  0  0  0  3  0  0  0  0  0  0
  189.0150  177.9100  142.1300 C   0  0  0  0  0  0  0  0  0  0  0  0
  189.2480  176.5390  141.9510 C   0  0  0  0  0  3  0  0  0  0  0  0
  190.3680  175.6080  136.9810 C   0  0  0  0  0  0  0  0  0  0  0  0
  189.3390  176.4900  136.5180 N   0  0  0  0  0  2  0  0  0  0  0  0
  190.2720  175.0270  138.0970 O   0  0  0  0  0  0  0  0  0  0  0  0
  192.1080  174.1470  136.3750 O   0  0  0  0  0  0  0  0  0  0  0  0
  191.5420  175.3490  136.0900 C   0  0  2  0  0  3  0  0  0  0  0  0
  192.7490  175.2690  136.8840 N   0  0  2  0  0  0  0  0  0  0  0  0
  193.8980  175.1590  134.5540 C   0  0  0  0  0  1  0  0  0  0  0  0
  195.0800  175.7850  136.6250 O   0  0  0  0  0  0  0  0  0  0  0  0
  194.3770  176.9130  136.2210 N   0  0  0  0  0  2  0  0  0  0  0  0
  193.8860  175.5780  136.0130 C   0  0  2  0  0  0  0  0  0  0  0  0
  181.2720  177.1890  138.9330 C   0  0  0  0  0  0  0  0  0  0  0  0
  180.9020  178.3060  138.5930 O   0  0  0  0  0  0  0  0  0  0  0  0
  180.6830  175.0480  139.7850 O   0  0  0  0  0  1  0  0  0  0  0  0
  180.3380  176.0200  138.8430 C   0  0  2  0  0  3  0  0  0  0  0  0
  180.2980  175.4210  137.4420 C   0  0  0  0  0  2  0  0  0  0  0  0
  181.2630  174.4190  137.2990 O   0  0  0  0  0  1  0  0  0  0  0  0
  1  2  1  6  0  0  0
  2 10  1  0  0  0  0
  4  6  1  1  0  0  0
  4  1  1  0  0  0  0
  5  3  2  0  0  0  0
  7 11  1  0  0  0  0
  8  4  1  0  0  0  0
  9 34  1  6  0  0  0
  9  3  1  0  0  0  0
 10  5  1  0  0  0  0
 11 10  2  0  0  0  0
 11  9  1  0  0  0  0
 12  8  2  0  0  0  0
 12 13  1  0  0  0  0
 13  7  2  0  0  0  0
 13  2  1  0  0  0  0
 14 17  1  0  0  0  0
 14 22  1  1  0  0  0
 15  1  1  6  0  0  0
 15 14  1  0  0  0  0
 15 17  1  0  0  0  0
 17 16  1  1  0  0  0
 18 21  1  0  0  0  0
 19 21  2  0  0  0  0
 20 18  2  0  0  0  0
 22 19  1  0  0  0  0
 23 22  2  0  0  0  0
 23 20  1  0  0  0  0
 24 26  2  0  0  0  0
 25 24  1  0  0  0  0
 25  8  1  0  0  0  0
 28 27  1  0  0  0  0
 28 29  1  0  0  0  0
 28 24  1  1  0  0  0
 29 27  1  6  0  0  0
 32 31  1  0  0  0  0
 33 30  1  6  0  0  0
 33 32  1  0  0  0  0
 33 31  1  0  0  0  0
 33 29  1  0  0  0  0
 35 34  2  0  0  0  0
 37 34  1  0  0  0  0
 37 36  1  1  0  0  0
 38 37  1  0  0  0  0
 39 38  1  0  0  0  0
M  END
>  <MODEL>
8

>  <REMARK>
 VINA RESULT:      -6.3      3.217      9.687
  Name = 
  8 active torsions:
  status: ('A' for Active; 'I' for Inactive)
    1  A    between atoms: C_1  and  C_35
    2  A    between atoms: C_3  and  C_29
    3  A    between atoms: C_4  and  C_8
    4  A    between atoms: C_10  and  C_11
    5  A    between atoms: C_13  and  C_30
    6  A    between atoms: C_13  and  C_35
    7  A    between atoms: N_14  and  C_28
    8  A    between atoms: C_34  and  N_36
                            x       y       z     vdW  Elec       q    Type
                         _______ _______ _______ _____ _____    ______ ____

>  <TORSDO>
F 8

$$$$
=
 OpenBabel10232412453D

 39 45  0  0  1  0  0  0  0  0999 V2000
  190.1410  176.9020  136.7040 C   0  0  2  0  0  3  0  0  0  0  0  0
  191.5120  176.4260  136.8990 N   0  0  0  0  0  0  0  0  0  0  0  0
  192.7400  174.3020  134.4460 N   0  0  0  0  0  0  0  0  0  0  0  0
  189.6550  177.5540  137.9900 C   0  0  1  0  0  3  0  0  0  0  0  0
  192.0600  175.3510  134.6790 N   0  0  0  0  0  0  0  0  0  0  0  0
  188.3190  178.6990  137.8850 Cl  0  0  0  0  0  0  0  0  0  0  0  0
  193.1230  175.0180  138.0270 C   0  0  0  0  0  3  0  0  0  0  0  0
  190.1870  177.2300  139.1940 C   0  0  0  0  0  0  0  0  0  0  0  0
  193.5830  173.9470  135.5890 C   0  0  2  0  0  3  0  0  0  0  0  0
  192.4000  175.8260  135.9680 C   0  0  0  0  0  0  0  0  0  0  0  0
  193.3000  175.0630  136.5380 C   0  0  0  0  0  0  0  0  0  0  0  0
  191.3480  176.3070  139.2760 C   0  0  0  0  0  3  0  0  0  0  0  0
  191.9640  175.9500  138.1560 C   0  0  0  0  0  0  0  0  0  0  0  0
  187.7760  176.1980  136.2960 C   0  0  1  0  0  3  0  0  0  0  0  0
  189.2260  175.7300  136.3590 C   0  0  1  0  0  3  0  0  0  0  0  0
  188.2850  174.7130  134.4280 O   0  0  0  0  0  1  0  0  0  0  0  0
  188.5720  175.9520  135.0100 C   0  0  1  0  0  3  0  0  0  0  0  0
  185.0580  172.9860  137.2240 C   0  0  0  0  0  3  0  0  0  0  0  0
  187.3150  173.8510  137.0500 C   0  0  0  0  0  3  0  0  0  0  0  0
  184.5540  174.2230  136.8090 C   0  0  0  0  0  3  0  0  0  0  0  0
  186.4370  172.7990  137.3410 C   0  0  0  0  0  3  0  0  0  0  0  0
  186.8150  175.0980  136.6550 C   0  0  0  0  0  0  0  0  0  0  0  0
  185.4310  175.2740  136.5180 C   0  0  0  0  0  3  0  0  0  0  0  0
  189.5430  177.1790  141.6750 C   0  0  0  0  0  0  0  0  0  0  0  0
  189.6210  177.7990  140.3860 N   0  0  0  0  0  2  0  0  0  0  0  0
  190.0730  176.0540  141.8870 O   0  0  0  0  0  0  0  0  0  0  0  0
  189.7600  178.3640  143.6940 O   0  0  0  0  0  0  0  0  0  0  0  0
  188.8580  177.9160  142.7820 C   0  0  2  0  0  3  0  0  0  0  0  0
  189.0580  177.2150  144.0320 N   0  0  2  0  0  0  0  0  0  0  0  0
  186.5260  177.5870  144.4920 C   0  0  0  0  0  1  0  0  0  0  0  0
  188.3120  178.3980  145.9840 O   0  0  0  0  0  0  0  0  0  0  0  0
  188.1600  177.0440  146.2580 N   0  0  0  0  0  2  0  0  0  0  0  0
  187.9760  177.5950  144.9430 C   0  0  2  0  0  0  0  0  0  0  0  0
  195.0280  173.9160  135.1820 C   0  0  0  0  0  0  0  0  0  0  0  0
  195.4570  174.7030  134.3460 O   0  0  0  0  0  0  0  0  0  0  0  0
  197.0380  172.6610  134.9710 O   0  0  0  0  0  1  0  0  0  0  0  0
  195.9350  172.8920  135.7950 C   0  0  2  0  0  3  0  0  0  0  0  0
  195.2070  171.5870  136.0980 C   0  0  0  0  0  2  0  0  0  0  0  0
  195.0070  171.4340  137.4740 O   0  0  0  0  0  1  0  0  0  0  0  0
  1  2  1  1  0  0  0
  1  4  1  0  0  0  0
  2 13  1  0  0  0  0
  3  5  2  0  0  0  0
  3  9  1  0  0  0  0
  4  6  1  1  0  0  0
  4  8  1  0  0  0  0
  5 10  1  0  0  0  0
  7 13  2  0  0  0  0
  8 12  2  0  0  0  0
  8 25  1  0  0  0  0
  9 34  1  6  0  0  0
  9 11  1  0  0  0  0
 10 11  2  0  0  0  0
 10  2  1  0  0  0  0
 11  7  1  0  0  0  0
 13 12  1  0  0  0  0
 14 15  1  0  0  0  0
 14 22  1  6  0  0  0
 15  1  1  1  0  0  0
 17 16  1  6  0  0  0
 17 14  1  0  0  0  0
 17 15  1  0  0  0  0
 18 21  1  0  0  0  0
 19 21  2  0  0  0  0
 20 18  2  0  0  0  0
 22 19  1  0  0  0  0
 23 22  2  0  0  0  0
 23 20  1  0  0  0  0
 24 26  2  0  0  0  0
 25 24  1  0  0  0  0
 28 24  1  6  0  0  0
 28 27  1  0  0  0  0
 28 29  1  0  0  0  0
 29 27  1  1  0  0  0
 29 33  1  0  0  0  0
 31 32  1  0  0  0  0
 33 30  1  6  0  0  0
 33 31  1  0  0  0  0
 33 32  1  0  0  0  0
 34 37  1  0  0  0  0
 35 34  2  0  0  0  0
 37 36  1  6  0  0  0
 37 38  1  0  0  0  0
 38 39  1  0  0  0  0
M  END
>  <MODEL>
9

>  <REMARK>
 VINA RESULT:      -6.1      2.549      3.011
  Name = 
  8 active torsions:
  status: ('A' for Active; 'I' for Inactive)
    1  A    between atoms: C_1  and  C_35
    2  A    between atoms: C_3  and  C_29
    3  A    between atoms: C_4  and  C_8
    4  A    between atoms: C_10  and  C_11
    5  A    between atoms: C_13  and  C_30
    6  A    between atoms: C_13  and  C_35
    7  A    between atoms: N_14  and  C_28
    8  A    between atoms: C_34  and  N_36
                            x       y       z     vdW  Elec       q    Type
                         _______ _______ _______ _____ _____    ______ ____

>  <TORSDO>
F 8

$$$$
