=
 OpenBabel10232408503D

 25 28  0  0  1  0  0  0  0  0999 V2000
  187.9590  177.9170  145.8640 C   0  0  0  0  0  0  0  0  0  0  0  0
  186.0530  178.1790  144.3360 C   0  0  0  0  0  0  0  0  0  0  0  0
  188.7590  177.5790  144.7710 C   0  0  0  0  0  3  0  0  0  0  0  0
  186.5870  178.2220  145.6470 C   0  0  0  0  0  0  0  0  0  0  0  0
  188.2400  177.5360  143.4740 C   0  0  0  0  0  0  0  0  0  0  0  0
  185.7660  178.5680  146.7160 O   0  0  0  0  0  1  0  0  0  0  0  0
  186.8930  177.8360  143.2700 C   0  0  0  0  0  3  0  0  0  0  0  0
  190.3400  177.1580  139.1830 O   0  0  0  0  0  0  0  0  0  0  0  0
  190.1550  176.2230  142.4040 N   0  0  0  0  0  0  0  0  0  0  0  0
  190.0430  177.0050  140.3950 C   0  0  0  0  0  0  0  0  0  0  0  0
  188.9790  177.6960  141.1020 C   0  0  0  0  0  3  0  0  0  0  0  0
  190.7150  176.1190  141.2700 N   0  0  0  0  0  0  0  0  0  0  0  0
  189.0930  177.1790  142.3270 C   0  0  0  0  0  0  0  0  0  0  0  0
  188.6610  177.9090  147.2050 C   0  0  2  0  0  3  0  0  0  0  0  0
  189.8380  176.9940  147.2070 N   0  0  0  0  0  0  0  0  0  0  0  0
  191.7240  175.4080  147.2550 N   0  0  0  0  0  1  0  0  0  0  0  0
  191.1660  176.6460  146.8330 C   0  0  0  0  0  0  0  0  0  0  0  0
  188.5370  176.7170  147.8910 C   0  0  0  0  0  2  0  0  0  0  0  0
  191.8460  177.4320  146.1240 O   0  0  0  0  0  0  0  0  0  0  0  0
  182.3990  178.9900  144.4140 N   0  0  0  0  0  0  0  0  0  0  0  0
  182.4250  178.9350  143.0670 C   0  0  0  0  0  0  0  0  0  0  0  0
  183.9590  178.5750  142.4920 S   0  0  0  0  0  0  0  0  0  0  0  0
  183.6190  178.7410  144.9620 C   0  0  0  0  0  3  0  0  0  0  0  0
  181.0220  179.2070  142.0570 Cl  0  0  0  0  0  0  0  0  0  0  0  0
  184.6310  178.4830  144.0380 C   0  0  0  0  0  0  0  0  0  0  0  0
  2  4  2  0  0  0  0
  3  1  2  0  0  0  0
  4  1  1  0  0  0  0
  4  6  1  0  0  0  0
  5  3  1  0  0  0  0
  7  5  2  0  0  0  0
  7  2  1  0  0  0  0
  8 10  2  0  0  0  0
 10 11  1  0  0  0  0
 10 12  1  0  0  0  0
 11 13  2  0  0  0  0
 12  9  2  0  0  0  0
 13  9  1  0  0  0  0
 13  5  1  0  0  0  0
 14  1  1  6  0  0  0
 14 15  1  0  0  0  0
 14 18  1  0  0  0  0
 15 18  1  0  0  0  0
 17 15  1  0  0  0  0
 17 16  1  0  0  0  0
 19 17  2  0  0  0  0
 20 23  1  0  0  0  0
 21 20  2  0  0  0  0
 22 21  1  0  0  0  0
 22 25  1  0  0  0  0
 24 21  1  0  0  0  0
 25  2  1  0  0  0  0
 25 23  2  0  0  0  0
M  END
>  <MODEL>
1

>  <REMARK>
 VINA RESULT:      -9.4      0.000      0.000
  Name = 
  3 active torsions:
  status: ('A' for Active; 'I' for Inactive)
    1  A    between atoms: C_3  and  C_4
    2  A    between atoms: C_6  and  C_21
    3  A    between atoms: C_17  and  C_23
                            x       y       z     vdW  Elec       q    Type
                         _______ _______ _______ _____ _____    ______ ____

>  <TORSDO>
F 3

$$$$
=
 OpenBabel10232408503D

 25 28  0  0  1  0  0  0  0  0999 V2000
  188.1610  178.2100  141.3550 C   0  0  0  0  0  0  0  0  0  0  0  0
  188.9780  177.4860  143.5560 C   0  0  0  0  0  0  0  0  0  0  0  0
  186.9070  178.4470  141.9250 C   0  0  0  0  0  3  0  0  0  0  0  0
  189.2120  177.7240  142.1800 C   0  0  0  0  0  0  0  0  0  0  0  0
  186.6690  178.2170  143.2830 C   0  0  0  0  0  0  0  0  0  0  0  0
  190.4730  177.4830  141.6420 O   0  0  0  0  0  1  0  0  0  0  0  0
  187.7060  177.7380  144.0840 C   0  0  0  0  0  3  0  0  0  0  0  0
  181.9910  178.8450  144.1080 O   0  0  0  0  0  0  0  0  0  0  0  0
  185.1470  178.7850  145.2560 N   0  0  0  0  0  0  0  0  0  0  0  0
  183.2370  178.7550  144.2520 C   0  0  0  0  0  0  0  0  0  0  0  0
  184.1900  178.4390  143.2040 C   0  0  0  0  0  3  0  0  0  0  0  0
  183.9100  178.9520  145.4810 N   0  0  0  0  0  0  0  0  0  0  0  0
  185.3440  178.4710  143.8740 C   0  0  0  0  0  0  0  0  0  0  0  0
  188.2600  178.4960  139.8730 C   0  0  2  0  0  3  0  0  0  0  0  0
  186.9770  178.2110  139.1670 N   0  0  0  0  0  0  0  0  0  0  0  0
  184.8960  177.6470  137.9740 N   0  0  0  0  0  1  0  0  0  0  0  0
  185.6240  178.5060  138.8410 C   0  0  0  0  0  0  0  0  0  0  0  0
  188.2070  177.3640  139.0830 C   0  0  0  0  0  2  0  0  0  0  0  0
  185.0710  179.5270  139.3240 O   0  0  0  0  0  0  0  0  0  0  0  0
  191.9570  175.8910  145.1680 N   0  0  0  0  0  0  0  0  0  0  0  0
  191.4880  176.3560  146.3430 C   0  0  0  0  0  0  0  0  0  0  0  0
  190.0570  177.2090  146.1440 S   0  0  0  0  0  0  0  0  0  0  0  0
  191.1540  176.2300  144.1240 C   0  0  0  0  0  3  0  0  0  0  0  0
  192.2850  176.0950  147.8790 Cl  0  0  0  0  0  0  0  0  0  0  0  0
  190.0280  176.9760  144.4730 C   0  0  0  0  0  0  0  0  0  0  0  0
  1  3  2  0  0  0  0
  1  4  1  0  0  0  0
  2  7  1  0  0  0  0
  2 25  1  0  0  0  0
  3  5  1  0  0  0  0
  4  2  2  0  0  0  0
  5 13  1  0  0  0  0
  5  7  2  0  0  0  0
  6  4  1  0  0  0  0
  8 10  2  0  0  0  0
  9 12  2  0  0  0  0
 10 12  1  0  0  0  0
 11 13  2  0  0  0  0
 11 10  1  0  0  0  0
 13  9  1  0  0  0  0
 14  1  1  1  0  0  0
 15 14  1  0  0  0  0
 16 17  1  0  0  0  0
 17 15  1  0  0  0  0
 17 19  2  0  0  0  0
 18 15  1  0  0  0  0
 18 14  1  0  0  0  0
 20 21  2  0  0  0  0
 21 24  1  0  0  0  0
 22 21  1  0  0  0  0
 23 25  2  0  0  0  0
 23 20  1  0  0  0  0
 25 22  1  0  0  0  0
M  END
>  <MODEL>
2

>  <REMARK>
 VINA RESULT:      -9.0      4.056      7.726
  Name = 
  3 active torsions:
  status: ('A' for Active; 'I' for Inactive)
    1  A    between atoms: C_3  and  C_4
    2  A    between atoms: C_6  and  C_21
    3  A    between atoms: C_17  and  C_23
                            x       y       z     vdW  Elec       q    Type
                         _______ _______ _______ _____ _____    ______ ____

>  <TORSDO>
F 3

$$$$
=
 OpenBabel10232408503D

 25 28  0  0  1  0  0  0  0  0999 V2000
  189.9960  177.5310  141.0590 C   0  0  0  0  0  0  0  0  0  0  0  0
  189.6670  177.3610  143.4880 C   0  0  0  0  0  0  0  0  0  0  0  0
  188.6590  177.9140  140.9290 C   0  0  0  0  0  3  0  0  0  0  0  0
  190.5100  177.2510  142.3550 C   0  0  0  0  0  0  0  0  0  0  0  0
  187.8220  178.0260  142.0420 C   0  0  0  0  0  0  0  0  0  0  0  0
  191.8390  176.8730  142.5180 O   0  0  0  0  0  1  0  0  0  0  0  0
  188.3340  177.7480  143.3100 C   0  0  0  0  0  3  0  0  0  0  0  0
  183.1220  178.7870  142.5880 O   0  0  0  0  0  0  0  0  0  0  0  0
  185.9240  179.1790  140.7760 N   0  0  0  0  0  0  0  0  0  0  0  0
  184.2950  178.7780  142.1350 C   0  0  0  0  0  0  0  0  0  0  0  0
  185.4430  178.1550  142.7680 C   0  0  0  0  0  2  0  0  0  0  0  0
  184.6790  179.3840  140.9150 N   0  0  0  0  0  2  0  0  0  0  0  0
  186.4130  178.4310  141.8940 C   0  0  0  0  0  0  0  0  0  0  0  0
  190.7710  177.4440  139.7630 C   0  0  2  0  0  3  0  0  0  0  0  0
  189.8860  177.6170  138.5750 N   0  0  0  0  0  0  0  0  0  0  0  0
  188.4180  177.7990  136.6040 N   0  0  0  0  0  1  0  0  0  0  0  0
  189.0810  178.4050  137.7060 C   0  0  0  0  0  0  0  0  0  0  0  0
  190.4820  176.3180  139.0170 C   0  0  0  0  0  2  0  0  0  0  0  0
  188.9530  179.6390  137.9160 O   0  0  0  0  0  0  0  0  0  0  0  0
  190.0960  176.9320  147.1820 N   0  0  0  0  0  0  0  0  0  0  0  0
  191.3360  176.4730  146.9190 C   0  0  0  0  0  0  0  0  0  0  0  0
  191.6560  176.4660  145.2730 S   0  0  0  0  0  0  0  0  0  0  0  0
  189.4220  177.2720  146.0500 C   0  0  0  0  0  3  0  0  0  0  0  0
  192.4600  175.9520  148.1540 Cl  0  0  0  0  0  0  0  0  0  0  0  0
  190.1370  177.0810  144.8680 C   0  0  0  0  0  0  0  0  0  0  0  0
  1  4  1  0  0  0  0
  2 25  1  0  0  0  0
  3  1  2  0  0  0  0
  3  5  1  0  0  0  0
  4  6  1  0  0  0  0
  4  2  2  0  0  0  0
  5  7  2  0  0  0  0
  7  2  1  0  0  0  0
  9 12  1  0  0  0  0
  9 13  2  0  0  0  0
 10  8  2  0  0  0  0
 10 11  1  0  0  0  0
 12 10  1  0  0  0  0
 13  5  1  0  0  0  0
 13 11  1  0  0  0  0
 14  1  1  1  0  0  0
 15 18  1  0  0  0  0
 15 14  1  0  0  0  0
 16 17  1  0  0  0  0
 17 19  2  0  0  0  0
 17 15  1  0  0  0  0
 18 14  1  0  0  0  0
 21 20  2  0  0  0  0
 21 24  1  0  0  0  0
 22 21  1  0  0  0  0
 23 20  1  0  0  0  0
 25 22  1  0  0  0  0
 25 23  2  0  0  0  0
M  END
>  <MODEL>
3

>  <REMARK>
 VINA RESULT:      -9.0      4.072      7.383
  Name = 
  3 active torsions:
  status: ('A' for Active; 'I' for Inactive)
    1  A    between atoms: C_3  and  C_4
    2  A    between atoms: C_6  and  C_21
    3  A    between atoms: C_17  and  C_23
                            x       y       z     vdW  Elec       q    Type
                         _______ _______ _______ _____ _____    ______ ____

>  <TORSDO>
F 3

$$$$
=
 OpenBabel10232408503D

 25 28  0  0  1  0  0  0  0  0999 V2000
  188.4680  178.2290  140.7130 C   0  0  0  0  0  0  0  0  0  0  0  0
  186.8580  178.2080  142.5680 C   0  0  0  0  0  0  0  0  0  0  0  0
  189.4440  177.7380  141.5840 C   0  0  0  0  0  3  0  0  0  0  0  0
  187.1580  178.4670  141.2080 C   0  0  0  0  0  0  0  0  0  0  0  0
  189.1560  177.4780  142.9270 C   0  0  0  0  0  0  0  0  0  0  0  0
  186.1630  178.9490  140.3630 O   0  0  0  0  0  1  0  0  0  0  0  0
  187.8670  177.7160  143.4050 C   0  0  0  0  0  3  0  0  0  0  0  0
  192.0790  176.5970  146.6210 O   0  0  0  0  0  0  0  0  0  0  0  0
  191.0970  175.9100  143.4830 N   0  0  0  0  0  0  0  0  0  0  0  0
  191.5110  176.5590  145.5000 C   0  0  0  0  0  0  0  0  0  0  0  0
  190.4050  177.4000  145.0790 C   0  0  0  0  0  2  0  0  0  0  0  0
  191.8730  175.6720  144.4580 N   0  0  0  0  0  2  0  0  0  0  0  0
  190.1920  176.9600  143.8380 C   0  0  0  0  0  0  0  0  0  0  0  0
  188.9350  178.4710  139.2930 C   0  0  2  0  0  3  0  0  0  0  0  0
  188.5010  177.3790  138.3740 N   0  0  0  0  0  0  0  0  0  0  0  0
  187.8780  175.5320  136.8670 N   0  0  0  0  0  1  0  0  0  0  0  0
  187.5150  176.6780  137.6260 C   0  0  0  0  0  0  0  0  0  0  0  0
  189.8990  177.5810  138.8650 C   0  0  0  0  0  2  0  0  0  0  0  0
  186.3200  177.0710  137.6380 O   0  0  0  0  0  0  0  0  0  0  0  0
  183.8930  178.8990  144.7460 N   0  0  0  0  0  0  0  0  0  0  0  0
  183.1290  178.7240  143.6490 C   0  0  0  0  0  0  0  0  0  0  0  0
  184.0580  178.3670  142.2990 S   0  0  0  0  0  0  0  0  0  0  0  0
  185.2180  178.7400  144.4810 C   0  0  0  0  0  3  0  0  0  0  0  0
  181.3840  178.8590  143.6500 Cl  0  0  0  0  0  0  0  0  0  0  0  0
  185.5130  178.4360  143.1520 C   0  0  0  0  0  0  0  0  0  0  0  0
  1  4  2  0  0  0  0
  1  3  1  0  0  0  0
  2 25  1  0  0  0  0
  2  7  2  0  0  0  0
  3  5  2  0  0  0  0
  4  2  1  0  0  0  0
  5  7  1  0  0  0  0
  5 13  1  0  0  0  0
  6  4  1  0  0  0  0
  9 13  2  0  0  0  0
  9 12  1  0  0  0  0
 10  8  2  0  0  0  0
 11 10  1  0  0  0  0
 12 10  1  0  0  0  0
 13 11  1  0  0  0  0
 14  1  1  1  0  0  0
 15 18  1  0  0  0  0
 15 14  1  0  0  0  0
 16 17  1  0  0  0  0
 17 19  2  0  0  0  0
 17 15  1  0  0  0  0
 18 14  1  0  0  0  0
 21 24  1  0  0  0  0
 21 20  2  0  0  0  0
 22 25  1  0  0  0  0
 22 21  1  0  0  0  0
 23 20  1  0  0  0  0
 25 23  2  0  0  0  0
M  END
>  <MODEL>
4

>  <REMARK>
 VINA RESULT:      -8.9      2.343      5.613
  Name = 
  3 active torsions:
  status: ('A' for Active; 'I' for Inactive)
    1  A    between atoms: C_3  and  C_4
    2  A    between atoms: C_6  and  C_21
    3  A    between atoms: C_17  and  C_23
                            x       y       z     vdW  Elec       q    Type
                         _______ _______ _______ _____ _____    ______ ____

>  <TORSDO>
F 3

$$$$
=
 OpenBabel10232408503D

 25 28  0  0  1  0  0  0  0  0999 V2000
  188.8430  177.2570  143.7510 C   0  0  0  0  0  0  0  0  0  0  0  0
  188.0380  177.9210  141.5260 C   0  0  0  0  0  0  0  0  0  0  0  0
  187.5910  177.5860  144.2760 C   0  0  0  0  0  3  0  0  0  0  0  0
  189.0720  177.4250  142.3580 C   0  0  0  0  0  0  0  0  0  0  0  0
  186.5660  178.0740  143.4620 C   0  0  0  0  0  0  0  0  0  0  0  0
  190.3070  177.1000  141.8030 O   0  0  0  0  0  1  0  0  0  0  0  0
  186.7990  178.2370  142.0970 C   0  0  0  0  0  3  0  0  0  0  0  0
  181.9150  178.9630  144.2030 O   0  0  0  0  0  0  0  0  0  0  0  0
  185.0530  178.7990  145.3920 N   0  0  0  0  0  0  0  0  0  0  0  0
  183.1540  178.8190  144.3660 C   0  0  0  0  0  0  0  0  0  0  0  0
  184.1020  178.4140  143.3440 C   0  0  0  0  0  3  0  0  0  0  0  0
  183.8230  179.0350  145.5940 N   0  0  0  0  0  0  0  0  0  0  0  0
  185.2480  178.4180  144.0260 C   0  0  0  0  0  0  0  0  0  0  0  0
  189.8530  176.7530  144.7580 C   0  0  2  0  0  3  0  0  0  0  0  0
  189.6380  177.3520  146.1060 N   0  0  0  0  0  0  0  0  0  0  0  0
  189.3550  178.4140  148.3120 N   0  0  0  0  0  1  0  0  0  0  0  0
  188.9180  177.4870  147.3260 C   0  0  0  0  0  0  0  0  0  0  0  0
  190.7510  177.7150  145.1760 C   0  0  0  0  0  2  0  0  0  0  0  0
  187.8910  176.7900  147.5300 O   0  0  0  0  0  0  0  0  0  0  0  0
  189.2690  178.5490  138.0470 N   0  0  0  0  0  0  0  0  0  0  0  0
  187.9970  178.3740  137.6360 C   0  0  0  0  0  0  0  0  0  0  0  0
  186.9720  178.0410  138.9210 S   0  0  0  0  0  0  0  0  0  0  0  0
  189.3970  178.4120  139.3940 C   0  0  0  0  0  3  0  0  0  0  0  0
  187.4940  178.4840  135.9630 Cl  0  0  0  0  0  0  0  0  0  0  0  0
  188.2090  178.1230  140.0660 C   0  0  0  0  0  0  0  0  0  0  0  0
  1  3  1  0  0  0  0
  2  7  2  0  0  0  0
  2  4  1  0  0  0  0
  4  1  2  0  0  0  0
  5 13  1  0  0  0  0
  5  3  2  0  0  0  0
  6  4  1  0  0  0  0
  7  5  1  0  0  0  0
  8 10  2  0  0  0  0
  9 12  2  0  0  0  0
 10 12  1  0  0  0  0
 11 13  2  0  0  0  0
 11 10  1  0  0  0  0
 13  9  1  0  0  0  0
 14  1  1  6  0  0  0
 14 18  1  0  0  0  0
 14 15  1  0  0  0  0
 15 17  1  0  0  0  0
 17 19  2  0  0  0  0
 17 16  1  0  0  0  0
 18 15  1  0  0  0  0
 20 23  1  0  0  0  0
 21 20  2  0  0  0  0
 21 22  1  0  0  0  0
 22 25  1  0  0  0  0
 23 25  2  0  0  0  0
 24 21  1  0  0  0  0
 25  2  1  0  0  0  0
M  END
>  <MODEL>
5

>  <REMARK>
 VINA RESULT:      -8.8      2.861      5.748
  Name = 
  3 active torsions:
  status: ('A' for Active; 'I' for Inactive)
    1  A    between atoms: C_3  and  C_4
    2  A    between atoms: C_6  and  C_21
    3  A    between atoms: C_17  and  C_23
                            x       y       z     vdW  Elec       q    Type
                         _______ _______ _______ _____ _____    ______ ____

>  <TORSDO>
F 3

$$$$
=
 OpenBabel10232408503D

 25 28  0  0  1  0  0  0  0  0999 V2000
  185.8100  178.1370  143.7900 C   0  0  0  0  0  0  0  0  0  0  0  0
  188.0630  177.6320  144.6300 C   0  0  0  0  0  0  0  0  0  0  0  0
  186.3290  178.1810  142.4930 C   0  0  0  0  0  3  0  0  0  0  0  0
  186.6860  177.8580  144.8740 C   0  0  0  0  0  0  0  0  0  0  0  0
  187.6860  177.9570  142.2440 C   0  0  0  0  0  0  0  0  0  0  0  0
  186.1980  177.8010  146.1760 O   0  0  0  0  0  1  0  0  0  0  0  0
  188.5380  177.6860  143.3140 C   0  0  0  0  0  3  0  0  0  0  0  0
  190.3870  177.6570  138.2970 O   0  0  0  0  0  0  0  0  0  0  0  0
  187.4780  178.4950  139.7540 N   0  0  0  0  0  0  0  0  0  0  0  0
  189.4360  177.8720  139.0910 C   0  0  0  0  0  0  0  0  0  0  0  0
  189.4460  177.6060  140.5180 C   0  0  0  0  0  3  0  0  0  0  0  0
  188.1880  178.4170  138.7050 N   0  0  0  0  0  0  0  0  0  0  0  0
  188.2230  178.0060  140.8730 C   0  0  0  0  0  0  0  0  0  0  0  0
  184.3260  178.4100  143.9000 C   0  0  2  0  0  3  0  0  0  0  0  0
  183.7320  178.7810  142.5830 N   0  0  0  0  0  0  0  0  0  0  0  0
  182.7590  179.4930  140.4340 N   0  0  0  0  0  1  0  0  0  0  0  0
  183.2840  178.4690  141.2690 C   0  0  0  0  0  0  0  0  0  0  0  0
  183.9880  179.7350  143.7060 C   0  0  0  0  0  2  0  0  0  0  0  0
  183.3580  177.2870  140.8440 O   0  0  0  0  0  0  0  0  0  0  0  0
  189.9470  177.2770  147.8450 N   0  0  0  0  0  0  0  0  0  0  0  0
  190.9060  176.6470  147.1370 C   0  0  0  0  0  0  0  0  0  0  0  0
  190.5060  176.5400  145.5120 S   0  0  0  0  0  0  0  0  0  0  0  0
  188.9040  177.6650  147.0640 C   0  0  0  0  0  3  0  0  0  0  0  0
  192.3810  176.0220  147.8430 Cl  0  0  0  0  0  0  0  0  0  0  0  0
  189.0330  177.3390  145.7140 C   0  0  0  0  0  0  0  0  0  0  0  0
  1  4  1  0  0  0  0
  2  4  2  0  0  0  0
  2 25  1  0  0  0  0
  3  1  2  0  0  0  0
  4  6  1  0  0  0  0
  5  3  1  0  0  0  0
  5  7  2  0  0  0  0
  7  2  1  0  0  0  0
  8 10  2  0  0  0  0
  9 13  1  0  0  0  0
 10 11  1  0  0  0  0
 11 13  2  0  0  0  0
 12 10  1  0  0  0  0
 12  9  2  0  0  0  0
 13  5  1  0  0  0  0
 14  1  1  6  0  0  0
 15 18  1  0  0  0  0
 15 14  1  0  0  0  0
 16 17  1  0  0  0  0
 17 15  1  0  0  0  0
 18 14  1  0  0  0  0
 19 17  2  0  0  0  0
 21 24  1  0  0  0  0
 21 20  2  0  0  0  0
 22 25  1  0  0  0  0
 22 21  1  0  0  0  0
 23 20  1  0  0  0  0
 25 23  2  0  0  0  0
M  END
>  <MODEL>
6

>  <REMARK>
 VINA RESULT:      -8.7      3.729      6.347
  Name = 
  3 active torsions:
  status: ('A' for Active; 'I' for Inactive)
    1  A    between atoms: C_3  and  C_4
    2  A    between atoms: C_6  and  C_21
    3  A    between atoms: C_17  and  C_23
                            x       y       z     vdW  Elec       q    Type
                         _______ _______ _______ _____ _____    ______ ____

>  <TORSDO>
F 3

$$$$
=
 OpenBabel10232408503D

 25 28  0  0  1  0  0  0  0  0999 V2000
  188.2390  177.2850  144.2420 C   0  0  0  0  0  0  0  0  0  0  0  0
  189.3050  177.4300  142.0340 C   0  0  0  0  0  0  0  0  0  0  0  0
  187.0390  177.7090  143.6650 C   0  0  0  0  0  3  0  0  0  0  0  0
  189.3880  177.1410  143.4180 C   0  0  0  0  0  0  0  0  0  0  0  0
  186.9490  177.9940  142.3000 C   0  0  0  0  0  0  0  0  0  0  0  0
  190.5960  176.7140  143.9620 O   0  0  0  0  0  1  0  0  0  0  0  0
  188.0820  177.8520  141.4990 C   0  0  0  0  0  3  0  0  0  0  0  0
  182.3520  178.7680  141.1900 O   0  0  0  0  0  0  0  0  0  0  0  0
  185.6080  179.3290  140.5810 N   0  0  0  0  0  0  0  0  0  0  0  0
  183.6090  178.7930  141.1970 C   0  0  0  0  0  0  0  0  0  0  0  0
  184.4670  178.0760  142.1230 C   0  0  0  0  0  3  0  0  0  0  0  0
  184.3920  179.5380  140.2830 N   0  0  0  0  0  0  0  0  0  0  0  0
  185.6790  178.4400  141.7010 C   0  0  0  0  0  0  0  0  0  0  0  0
  188.1820  177.0260  145.7320 C   0  0  2  0  0  3  0  0  0  0  0  0
  187.3200  178.0210  146.4340 N   0  0  0  0  0  0  0  0  0  0  0  0
  185.9810  179.7180  147.6170 N   0  0  0  0  0  1  0  0  0  0  0  0
  186.0550  178.5760  146.7730 C   0  0  0  0  0  0  0  0  0  0  0  0
  188.8140  177.9930  146.4890 C   0  0  0  0  0  2  0  0  0  0  0  0
  185.0000  178.0600  146.3220 O   0  0  0  0  0  0  0  0  0  0  0  0
  192.6540  177.4400  140.3600 N   0  0  0  0  0  0  0  0  0  0  0  0
  192.0430  176.9130  139.2800 C   0  0  0  0  0  0  0  0  0  0  0  0
  190.4010  176.6960  139.5430 S   0  0  0  0  0  0  0  0  0  0  0  0
  191.7870  177.6610  141.3850 C   0  0  0  0  0  3  0  0  0  0  0  0
  192.8740  176.5100  137.7940 Cl  0  0  0  0  0  0  0  0  0  0  0  0
  190.4650  177.3050  141.1170 C   0  0  0  0  0  0  0  0  0  0  0  0
  2  4  1  0  0  0  0
  3  1  1  0  0  0  0
  4  6  1  0  0  0  0
  4  1  2  0  0  0  0
  5  3  2  0  0  0  0
  7  2  2  0  0  0  0
  7  5  1  0  0  0  0
  8 10  2  0  0  0  0
  9 13  1  0  0  0  0
 10 11  1  0  0  0  0
 12  9  2  0  0  0  0
 12 10  1  0  0  0  0
 13 11  2  0  0  0  0
 13  5  1  0  0  0  0
 14  1  1  6  0  0  0
 14 15  1  0  0  0  0
 14 18  1  0  0  0  0
 15 18  1  0  0  0  0
 15 17  1  0  0  0  0
 17 16  1  0  0  0  0
 19 17  2  0  0  0  0
 20 23  1  0  0  0  0
 21 22  1  0  0  0  0
 21 20  2  0  0  0  0
 22 25  1  0  0  0  0
 24 21  1  0  0  0  0
 25 23  2  0  0  0  0
 25  2  1  0  0  0  0
M  END
>  <MODEL>
7

>  <REMARK>
 VINA RESULT:      -8.7      3.918      6.449
  Name = 
  3 active torsions:
  status: ('A' for Active; 'I' for Inactive)
    1  A    between atoms: C_3  and  C_4
    2  A    between atoms: C_6  and  C_21
    3  A    between atoms: C_17  and  C_23
                            x       y       z     vdW  Elec       q    Type
                         _______ _______ _______ _____ _____    ______ ____

>  <TORSDO>
F 3

$$$$
=
 OpenBabel10232408503D

 25 28  0  0  1  0  0  0  0  0999 V2000
  187.3380  177.5290  145.9690 C   0  0  0  0  0  0  0  0  0  0  0  0
  189.7390  177.1040  146.2740 C   0  0  0  0  0  0  0  0  0  0  0  0
  187.5600  177.6610  144.5960 C   0  0  0  0  0  3  0  0  0  0  0  0
  188.4400  177.2460  146.8210 C   0  0  0  0  0  0  0  0  0  0  0  0
  188.8380  177.5210  144.0480 C   0  0  0  0  0  0  0  0  0  0  0  0
  188.2500  177.1020  148.1930 O   0  0  0  0  0  1  0  0  0  0  0  0
  189.9140  177.2450  144.8920 C   0  0  0  0  0  3  0  0  0  0  0  0
  188.5870  178.6270  139.3920 O   0  0  0  0  0  0  0  0  0  0  0  0
  190.1610  177.0580  141.9110 N   0  0  0  0  0  0  0  0  0  0  0  0
  188.9530  178.1580  140.4990 C   0  0  0  0  0  0  0  0  0  0  0  0
  188.2790  178.3560  141.7700 C   0  0  0  0  0  3  0  0  0  0  0  0
  190.1000  177.3480  140.6770 N   0  0  0  0  0  0  0  0  0  0  0  0
  189.0610  177.6620  142.5980 C   0  0  0  0  0  0  0  0  0  0  0  0
  185.9040  177.7190  146.4120 C   0  0  2  0  0  3  0  0  0  0  0  0
  185.1560  178.6240  145.4920 N   0  0  0  0  0  0  0  0  0  0  0  0
  183.9390  180.1980  144.0390 N   0  0  0  0  0  1  0  0  0  0  0  0
  184.5110  178.9150  144.2580 C   0  0  0  0  0  0  0  0  0  0  0  0
  185.6250  178.9940  146.8640 C   0  0  0  0  0  2  0  0  0  0  0  0
  184.4510  178.0380  143.3580 O   0  0  0  0  0  0  0  0  0  0  0  0
  192.8830  175.7690  147.8060 N   0  0  0  0  0  0  0  0  0  0  0  0
  192.7390  176.7090  148.7610 C   0  0  0  0  0  0  0  0  0  0  0  0
  191.3710  177.6450  148.5070 S   0  0  0  0  0  0  0  0  0  0  0  0
  191.8850  175.8180  146.8820 C   0  0  0  0  0  3  0  0  0  0  0  0
  193.8520  176.9150  150.0960 Cl  0  0  0  0  0  0  0  0  0  0  0  0
  190.9330  176.8120  147.1050 C   0  0  0  0  0  0  0  0  0  0  0  0
  1  4  1  0  0  0  0
  2  4  2  0  0  0  0
  2 25  1  0  0  0  0
  3  1  2  0  0  0  0
  4  6  1  0  0  0  0
  5  3  1  0  0  0  0
  5  7  2  0  0  0  0
  7  2  1  0  0  0  0
  8 10  2  0  0  0  0
  9 13  1  0  0  0  0
 10 12  1  0  0  0  0
 10 11  1  0  0  0  0
 11 13  2  0  0  0  0
 12  9  2  0  0  0  0
 13  5  1  0  0  0  0
 14  1  1  6  0  0  0
 14 18  1  0  0  0  0
 15 14  1  0  0  0  0
 15 18  1  0  0  0  0
 16 17  1  0  0  0  0
 17 15  1  0  0  0  0
 19 17  2  0  0  0  0
 20 21  2  0  0  0  0
 21 24  1  0  0  0  0
 22 21  1  0  0  0  0
 23 25  2  0  0  0  0
 23 20  1  0  0  0  0
 25 22  1  0  0  0  0
M  END
>  <MODEL>
8

>  <REMARK>
 VINA RESULT:      -8.6      3.998      6.511
  Name = 
  3 active torsions:
  status: ('A' for Active; 'I' for Inactive)
    1  A    between atoms: C_3  and  C_4
    2  A    between atoms: C_6  and  C_21
    3  A    between atoms: C_17  and  C_23
                            x       y       z     vdW  Elec       q    Type
                         _______ _______ _______ _____ _____    ______ ____

>  <TORSDO>
F 3

$$$$
=
 OpenBabel10232408503D

 25 28  0  0  1  0  0  0  0  0999 V2000
  188.3660  177.9570  145.7290 C   0  0  0  0  0  0  0  0  0  0  0  0
  188.3720  177.6630  143.2900 C   0  0  0  0  0  0  0  0  0  0  0  0
  186.9940  178.2150  145.6720 C   0  0  0  0  0  3  0  0  0  0  0  0
  189.0660  177.6760  144.5240 C   0  0  0  0  0  0  0  0  0  0  0  0
  186.3020  178.2030  144.4580 C   0  0  0  0  0  0  0  0  0  0  0  0
  190.4320  177.4080  144.5500 O   0  0  0  0  0  1  0  0  0  0  0  0
  186.9970  177.9280  143.2800 C   0  0  0  0  0  3  0  0  0  0  0  0
  181.7440  178.8940  143.1460 O   0  0  0  0  0  0  0  0  0  0  0  0
  184.0750  178.7980  145.5640 N   0  0  0  0  0  0  0  0  0  0  0  0
  182.7990  178.7880  143.8220 C   0  0  0  0  0  0  0  0  0  0  0  0
  184.1120  178.4570  143.2990 C   0  0  0  0  0  3  0  0  0  0  0  0
  182.8670  178.9820  145.2230 N   0  0  0  0  0  0  0  0  0  0  0  0
  184.8540  178.4770  144.4080 C   0  0  0  0  0  0  0  0  0  0  0  0
  188.9760  178.0180  147.1130 C   0  0  2  0  0  3  0  0  0  0  0  0
  189.9800  176.9350  147.3230 N   0  0  0  0  0  0  0  0  0  0  0  0
  191.5660  175.0900  147.7180 N   0  0  0  0  0  1  0  0  0  0  0  0
  191.2500  176.3330  147.1030 C   0  0  0  0  0  0  0  0  0  0  0  0
  188.6130  176.9640  147.9280 C   0  0  0  0  0  2  0  0  0  0  0  0
  192.0930  176.8980  146.3600 O   0  0  0  0  0  0  0  0  0  0  0  0
  190.5460  176.4610  140.4900 N   0  0  0  0  0  0  0  0  0  0  0  0
  189.8020  177.2300  139.6700 C   0  0  0  0  0  0  0  0  0  0  0  0
  188.5960  178.0400  140.5070 S   0  0  0  0  0  0  0  0  0  0  0  0
  190.1310  176.5380  141.7830 C   0  0  0  0  0  3  0  0  0  0  0  0
  190.0750  177.3560  137.9460 Cl  0  0  0  0  0  0  0  0  0  0  0  0
  189.0400  177.3800  141.9960 C   0  0  0  0  0  0  0  0  0  0  0  0
  2  4  1  0  0  0  0
  3  1  1  0  0  0  0
  4  6  1  0  0  0  0
  4  1  2  0  0  0  0
  5  3  2  0  0  0  0
  7  2  2  0  0  0  0
  7  5  1  0  0  0  0
  8 10  2  0  0  0  0
 10 12  1  0  0  0  0
 11 10  1  0  0  0  0
 11 13  2  0  0  0  0
 12  9  2  0  0  0  0
 13  5  1  0  0  0  0
 13  9  1  0  0  0  0
 14  1  1  6  0  0  0
 14 15  1  0  0  0  0
 14 18  1  0  0  0  0
 15 18  1  0  0  0  0
 17 15  1  0  0  0  0
 17 16  1  0  0  0  0
 19 17  2  0  0  0  0
 20 23  1  0  0  0  0
 21 20  2  0  0  0  0
 21 22  1  0  0  0  0
 22 25  1  0  0  0  0
 23 25  2  0  0  0  0
 24 21  1  0  0  0  0
 25  2  1  0  0  0  0
M  END
>  <MODEL>
9

>  <REMARK>
 VINA RESULT:      -8.5      2.804      5.558
  Name = 
  3 active torsions:
  status: ('A' for Active; 'I' for Inactive)
    1  A    between atoms: C_3  and  C_4
    2  A    between atoms: C_6  and  C_21
    3  A    between atoms: C_17  and  C_23
                            x       y       z     vdW  Elec       q    Type
                         _______ _______ _______ _____ _____    ______ ____

>  <TORSDO>
F 3

$$$$
