=
 OpenBabel10222421353D

 43 46  0  0  1  0  0  0  0  0999 V2000
  187.8710  177.8600  137.7030 C   0  0  0  0  0  0  0  0  0  0  0  0
  186.5530  178.0650  137.6930 C   0  0  0  0  0  3  0  0  0  0  0  0
  190.7200  176.1630  135.6790 C   0  0  0  0  0  0  0  0  0  0  0  0
  191.9710  175.9270  135.9490 N   0  0  0  0  0  0  0  0  0  0  0  0
  187.8370  176.7770  135.5990 O   0  0  0  0  0  0  0  0  0  0  0  0
  188.5200  177.1260  136.6010 C   0  0  0  0  0  0  0  0  0  0  0  0
  190.1290  175.7580  134.3670 C   0  0  0  0  0  1  0  0  0  0  0  0
  189.9270  176.8160  136.6800 N   0  0  0  0  0  2  0  0  0  0  0  0
  195.2790  174.6330  137.3220 C   0  0  0  0  0  1  0  0  0  0  0  0
  194.5210  176.0930  135.1500 S   0  0  0  0  0  0  0  0  0  0  0  0
  194.9460  174.4760  135.8550 C   0  0  2  0  0  3  0  0  0  0  0  0
  192.9060  175.2640  135.0440 C   0  0  1  0  0  3  0  0  0  0  0  0
  193.3490  173.6270  135.7010 S   0  0  0  0  0  0  0  0  0  0  0  0
  185.9180  178.7820  138.7520 N   0  0  0  0  0  2  0  0  0  0  0  0
  184.6270  178.4080  139.3010 C   0  0  1  0  0  3  0  0  0  0  0  0
  185.4710  179.5200  141.3490 O   0  0  0  0  0  0  0  0  0  0  0  0
  184.3150  178.5190  142.9260 C   0  0  0  0  0  3  0  0  0  0  0  0
  183.8990  178.0040  141.7120 C   0  0  0  0  0  3  0  0  0  0  0  0
  185.2960  179.4590  142.6460 C   0  0  0  0  0  3  0  0  0  0  0  0
  184.6570  178.6700  140.7730 C   0  0  0  0  0  0  0  0  0  0  0  0
  183.5170  179.2160  138.6270 C   0  0  0  0  0  2  0  0  0  0  0  0
  182.5590  178.3160  137.9200 C   0  0  0  0  0  0  0  0  0  0  0  0
  182.4080  176.9640  138.3560 N   0  0  0  0  0  2  0  0  0  0  0  0
  181.9210  178.7370  136.9190 O   0  0  0  0  0  0  0  0  0  0  0  0
  181.5660  176.0150  137.6470 C   0  0  0  0  0  1  0  0  0  0  0  0
  188.6960  178.3830  138.8500 C   0  0  0  0  0  2  0  0  0  0  0  0
  189.9410  178.3090  141.9470 C   0  0  2  0  0  3  0  0  0  0  0  0
  190.0320  176.6830  140.2030 C   0  0  0  0  0  2  0  0  0  0  0  0
  188.5650  178.2790  141.3170 C   0  0  0  0  0  2  0  0  0  0  0  0
  190.5870  176.9990  141.5780 C   0  0  0  0  0  2  0  0  0  0  0  0
  188.7080  177.4410  140.0620 C   0  0  1  0  0  3  0  0  0  0  0  0
  190.9250  178.3760  144.3080 C   0  0  0  0  0  0  0  0  0  0  0  0
  192.0230  178.9440  144.0800 O   0  0  0  0  0  0  0  0  0  0  0  0
  189.8390  178.5220  143.3860 N   0  0  0  0  0  2  0  0  0  0  0  0
  190.7030  177.5890  145.5430 C   0  0  0  0  0  0  0  0  0  0  0  0
  189.2600  176.5410  147.3080 C   0  0  0  0  0  2  0  0  0  0  0  0
  187.1540  177.8380  147.8100 N   0  0  0  0  0  0  0  0  0  0  0  0
  187.1790  179.1760  147.9710 O   0  0  0  0  0  1  0  0  0  0  0  0
  186.9350  177.5720  146.3740 C   0  0  0  0  0  2  0  0  0  0  0  0
  188.4300  177.3150  148.3370 C   0  0  0  0  0  2  0  0  0  0  0  0
  188.1660  177.9310  145.5240 C   0  0  0  0  0  2  0  0  0  0  0  0
  189.3840  177.3450  146.0900 N   0  0  0  0  0  0  0  0  0  0  0  0
  191.7210  177.1490  146.1630 O   0  0  0  0  0  0  0  0  0  0  0  0
  1 26  1  0  0  0  0
  2  1  2  0  0  0  0
  2 14  1  0  0  0  0
  3  4  2  0  0  0  0
  3  8  1  0  0  0  0
  5  6  2  0  0  0  0
  6  8  1  0  0  0  0
  6  1  1  0  0  0  0
  7  3  1  0  0  0  0
 10 11  1  0  0  0  0
 11  9  1  1  0  0  0
 12 10  1  0  0  0  0
 12 13  1  0  0  0  0
 12  4  1  1  0  0  0
 13 11  1  0  0  0  0
 14 15  1  0  0  0  0
 15 21  1  6  0  0  0
 15 20  1  0  0  0  0
 16 19  1  0  0  0  0
 18 17  1  0  0  0  0
 19 17  2  0  0  0  0
 20 16  1  0  0  0  0
 20 18  2  0  0  0  0
 22 23  1  0  0  0  0
 22 21  1  0  0  0  0
 24 22  2  0  0  0  0
 25 23  1  0  0  0  0
 27 34  1  1  0  0  0
 28 30  1  0  0  0  0
 29 27  1  0  0  0  0
 30 27  1  0  0  0  0
 31 26  1  6  0  0  0
 31 28  1  0  0  0  0
 31 29  1  0  0  0  0
 32 35  1  0  0  0  0
 33 32  2  0  0  0  0
 34 32  1  0  0  0  0
 35 42  1  0  0  0  0
 35 43  2  0  0  0  0
 36 40  1  0  0  0  0
 37 38  1  0  0  0  0
 37 40  1  0  0  0  0
 39 37  1  0  0  0  0
 41 42  1  0  0  0  0
 41 39  1  0  0  0  0
 42 36  1  0  0  0  0
M  END
>  <MODEL>
1

>  <REMARK>
 VINA RESULT:      -7.9      0.000      0.000
  Name = 
  11 active torsions:
  status: ('A' for Active; 'I' for Inactive)
    1  A    between atoms: C_1  and  C_11
    2  A    between atoms: C_6  and  C_23
    3  A    between atoms: C_7  and  C_11
    4  A    between atoms: C_7  and  N_13
    5  A    between atoms: C_7  and  C_38
    6  A    between atoms: C_8  and  N_40
    7  A    between atoms: N_10  and  C_24
    8  A    between atoms: N_13  and  C_43
    9  A    between atoms: C_17  and  C_32
   10  A    between atoms: C_17  and  C_37
   11  A    between atoms: C_36  and  C_37
                            x       y       z     vdW  Elec       q    Type
                         _______ _______ _______ _____ _____    ______ ____

>  <TORSDO>
F 11

$$$$
=
 OpenBabel10222421353D

 43 46  0  0  1  0  0  0  0  0999 V2000
  187.9510  178.1110  139.3760 C   0  0  0  0  0  0  0  0  0  0  0  0
  186.6570  178.2560  139.6610 C   0  0  0  0  0  3  0  0  0  0  0  0
  190.3250  176.4460  136.7910 C   0  0  0  0  0  0  0  0  0  0  0  0
  191.5780  176.0950  136.8440 N   0  0  0  0  0  0  0  0  0  0  0  0
  187.5230  177.2650  137.2080 O   0  0  0  0  0  0  0  0  0  0  0  0
  188.3700  177.4550  138.1230 C   0  0  0  0  0  0  0  0  0  0  0  0
  189.5200  176.2260  135.5510 C   0  0  0  0  0  1  0  0  0  0  0  0
  189.7420  177.0410  137.9580 N   0  0  0  0  0  2  0  0  0  0  0  0
  194.8780  174.3480  137.5870 C   0  0  0  0  0  1  0  0  0  0  0  0
  194.0080  176.1300  135.7190 S   0  0  0  0  0  0  0  0  0  0  0  0
  194.3450  174.4060  136.1720 C   0  0  2  0  0  3  0  0  0  0  0  0
  192.3130  175.4700  135.7490 C   0  0  1  0  0  3  0  0  0  0  0  0
  192.6610  173.7300  136.1490 S   0  0  0  0  0  0  0  0  0  0  0  0
  186.2420  178.8970  140.8670 N   0  0  0  0  0  2  0  0  0  0  0  0
  184.8480  179.0900  141.2250 C   0  0  1  0  0  3  0  0  0  0  0  0
  183.6020  177.4250  139.8780 O   0  0  0  0  0  0  0  0  0  0  0  0
  182.9390  178.6240  138.1620 C   0  0  0  0  0  3  0  0  0  0  0  0
  183.6240  179.4650  139.0200 C   0  0  0  0  0  3  0  0  0  0  0  0
  182.9530  177.3640  138.7410 C   0  0  0  0  0  3  0  0  0  0  0  0
  184.0080  178.6550  140.0670 C   0  0  0  0  0  0  0  0  0  0  0  0
  184.5120  178.2770  142.4770 C   0  0  0  0  0  2  0  0  0  0  0  0
  183.3490  178.8690  143.2000 C   0  0  0  0  0  0  0  0  0  0  0  0
  182.0500  178.8190  142.6080 N   0  0  0  0  0  2  0  0  0  0  0  0
  183.5230  179.4480  144.3050 O   0  0  0  0  0  0  0  0  0  0  0  0
  180.8990  179.4650  143.2170 C   0  0  0  0  0  1  0  0  0  0  0  0
  188.9870  178.6190  140.3450 C   0  0  0  0  0  2  0  0  0  0  0  0
  190.9400  178.3740  143.0410 C   0  0  2  0  0  3  0  0  0  0  0  0
  190.9900  177.1750  140.9800 C   0  0  0  0  0  2  0  0  0  0  0  0
  189.5010  178.0540  142.6970 C   0  0  0  0  0  2  0  0  0  0  0  0
  191.7750  177.3940  142.2580 C   0  0  0  0  0  2  0  0  0  0  0  0
  189.5300  177.5260  141.2750 C   0  0  1  0  0  3  0  0  0  0  0  0
  191.0230  177.0970  145.2570 C   0  0  0  0  0  0  0  0  0  0  0  0
  191.6150  176.0490  144.8930 O   0  0  0  0  0  0  0  0  0  0  0  0
  191.1490  178.2950  144.4820 N   0  0  0  0  0  2  0  0  0  0  0  0
  190.2300  177.1430  146.5080 C   0  0  0  0  0  0  0  0  0  0  0  0
  188.0820  177.1370  147.8040 C   0  0  0  0  0  2  0  0  0  0  0  0
  186.1550  178.2290  146.5950 N   0  0  0  0  0  0  0  0  0  0  0  0
  186.3070  179.4100  145.9610 O   0  0  0  0  0  1  0  0  0  0  0  0
  186.4740  177.1640  145.6230 C   0  0  0  0  0  2  0  0  0  0  0  0
  187.0380  178.2580  147.7780 C   0  0  0  0  0  2  0  0  0  0  0  0
  187.9760  177.1110  145.2940 C   0  0  0  0  0  2  0  0  0  0  0  0
  188.7820  177.1050  146.5180 N   0  0  0  0  0  0  0  0  0  0  0  0
  190.8540  177.2610  147.6070 O   0  0  0  0  0  0  0  0  0  0  0  0
  1  2  2  0  0  0  0
  1 26  1  0  0  0  0
  2 14  1  0  0  0  0
  3  4  2  0  0  0  0
  3  8  1  0  0  0  0
  5  6  2  0  0  0  0
  6  1  1  0  0  0  0
  7  3  1  0  0  0  0
  8  6  1  0  0  0  0
 10 12  1  0  0  0  0
 10 11  1  0  0  0  0
 11  9  1  1  0  0  0
 12 13  1  0  0  0  0
 12  4  1  1  0  0  0
 13 11  1  0  0  0  0
 14 15  1  0  0  0  0
 15 21  1  1  0  0  0
 16 20  1  0  0  0  0
 17 19  2  0  0  0  0
 17 18  1  0  0  0  0
 18 20  2  0  0  0  0
 19 16  1  0  0  0  0
 20 15  1  0  0  0  0
 21 22  1  0  0  0  0
 22 24  2  0  0  0  0
 23 22  1  0  0  0  0
 23 25  1  0  0  0  0
 27 34  1  1  0  0  0
 28 31  1  0  0  0  0
 28 30  1  0  0  0  0
 29 27  1  0  0  0  0
 30 27  1  0  0  0  0
 31 26  1  6  0  0  0
 31 29  1  0  0  0  0
 32 35  1  0  0  0  0
 33 32  2  0  0  0  0
 34 32  1  0  0  0  0
 35 42  1  0  0  0  0
 35 43  2  0  0  0  0
 37 40  1  0  0  0  0
 38 37  1  0  0  0  0
 39 37  1  0  0  0  0
 40 36  1  0  0  0  0
 41 39  1  0  0  0  0
 41 42  1  0  0  0  0
 42 36  1  0  0  0  0
M  END
>  <MODEL>
2

>  <REMARK>
 VINA RESULT:      -7.8      1.634      2.709
  Name = 
  11 active torsions:
  status: ('A' for Active; 'I' for Inactive)
    1  A    between atoms: C_1  and  C_11
    2  A    between atoms: C_6  and  C_23
    3  A    between atoms: C_7  and  C_11
    4  A    between atoms: C_7  and  N_13
    5  A    between atoms: C_7  and  C_38
    6  A    between atoms: C_8  and  N_40
    7  A    between atoms: N_10  and  C_24
    8  A    between atoms: N_13  and  C_43
    9  A    between atoms: C_17  and  C_32
   10  A    between atoms: C_17  and  C_37
   11  A    between atoms: C_36  and  C_37
                            x       y       z     vdW  Elec       q    Type
                         _______ _______ _______ _____ _____    ______ ____

>  <TORSDO>
F 11

$$$$
=
 OpenBabel10222421353D

 43 46  0  0  1  0  0  0  0  0999 V2000
  186.7880  178.2310  141.1830 C   0  0  0  0  0  0  0  0  0  0  0  0
  186.7190  177.5630  142.3340 C   0  0  0  0  0  3  0  0  0  0  0  0
  183.8330  178.6370  138.6950 C   0  0  0  0  0  0  0  0  0  0  0  0
  183.4070  177.9050  137.7060 N   0  0  0  0  0  0  0  0  0  0  0  0
  185.0690  179.8540  141.0790 O   0  0  0  0  0  0  0  0  0  0  0  0
  185.5720  178.8100  140.5810 C   0  0  0  0  0  0  0  0  0  0  0  0
  183.1450  179.9150  139.0540 C   0  0  0  0  0  1  0  0  0  0  0  0
  184.9740  178.1780  139.4310 N   0  0  0  0  0  2  0  0  0  0  0  0
  181.2830  175.0730  136.3020 C   0  0  0  0  0  1  0  0  0  0  0  0
  182.4050  177.3400  135.2880 S   0  0  0  0  0  0  0  0  0  0  0  0
  180.9470  176.5130  135.9820 C   0  0  2  0  0  3  0  0  0  0  0  0
  182.2560  178.2280  136.8680 C   0  0  1  0  0  3  0  0  0  0  0  0
  180.7620  177.4340  137.5350 S   0  0  0  0  0  0  0  0  0  0  0  0
  187.8920  177.0060  142.9280 N   0  0  0  0  0  2  0  0  0  0  0  0
  188.2150  177.1510  144.3350 C   0  0  1  0  0  3  0  0  0  0  0  0
  190.4940  176.8570  145.2620 O   0  0  0  0  0  0  0  0  0  0  0  0
  191.6160  178.4450  144.2410 C   0  0  0  0  0  3  0  0  0  0  0  0
  190.3160  178.4820  143.7700 C   0  0  0  0  0  3  0  0  0  0  0  0
  191.6750  177.4160  145.1690 C   0  0  0  0  0  3  0  0  0  0  0  0
  189.6720  177.4680  144.4460 C   0  0  0  0  0  0  0  0  0  0  0  0
  187.3680  178.2640  144.9550 C   0  0  0  0  0  2  0  0  0  0  0  0
  187.1060  177.9930  146.3990 C   0  0  0  0  0  0  0  0  0  0  0  0
  188.1840  178.0560  147.3340 N   0  0  0  0  0  2  0  0  0  0  0  0
  185.9510  177.6680  146.7800 O   0  0  0  0  0  0  0  0  0  0  0  0
  188.0110  177.7050  148.7350 C   0  0  0  0  0  1  0  0  0  0  0  0
  188.1200  178.3890  140.4950 C   0  0  0  0  0  2  0  0  0  0  0  0
  190.6260  177.1690  138.6570 C   0  0  2  0  0  3  0  0  0  0  0  0
  188.5340  178.1050  137.9940 C   0  0  0  0  0  2  0  0  0  0  0  0
  189.5870  176.6090  139.6040 C   0  0  0  0  0  2  0  0  0  0  0  0
  189.8640  177.6310  137.4420 C   0  0  0  0  0  2  0  0  0  0  0  0
  188.3220  177.4010  139.3380 C   0  0  1  0  0  3  0  0  0  0  0  0
  193.0450  176.4280  138.2760 C   0  0  0  0  0  0  0  0  0  0  0  0
  193.6230  177.0550  139.2010 O   0  0  0  0  0  0  0  0  0  0  0  0
  191.6400  176.1650  138.3610 N   0  0  0  0  0  2  0  0  0  0  0  0
  193.7950  175.9050  137.1100 C   0  0  0  0  0  0  0  0  0  0  0  0
  195.5610  174.4870  136.0300 C   0  0  0  0  0  2  0  0  0  0  0  0
  197.6300  174.1790  137.4420 N   0  0  0  0  0  0  0  0  0  0  0  0
  198.2020  175.2200  138.0800 O   0  0  0  0  0  1  0  0  0  0  0  0
  196.6270  173.6000  138.3580 C   0  0  0  0  0  2  0  0  0  0  0  0
  197.0710  174.7010  136.1790 C   0  0  0  0  0  2  0  0  0  0  0  0
  195.4070  174.5190  138.5370 C   0  0  0  0  0  2  0  0  0  0  0  0
  194.8890  174.9630  137.2410 N   0  0  0  0  0  0  0  0  0  0  0  0
  193.4850  176.3370  135.9580 O   0  0  0  0  0  0  0  0  0  0  0  0
  1  2  2  0  0  0  0
  2 14  1  0  0  0  0
  3  7  1  0  0  0  0
  3  8  1  0  0  0  0
  4  3  2  0  0  0  0
  6  5  2  0  0  0  0
  6  1  1  0  0  0  0
  8  6  1  0  0  0  0
 10 11  1  0  0  0  0
 10 12  1  0  0  0  0
 11  9  1  1  0  0  0
 11 13  1  0  0  0  0
 12 13  1  0  0  0  0
 12  4  1  1  0  0  0
 14 15  1  0  0  0  0
 15 20  1  0  0  0  0
 15 21  1  6  0  0  0
 17 19  2  0  0  0  0
 18 17  1  0  0  0  0
 18 20  2  0  0  0  0
 19 16  1  0  0  0  0
 20 16  1  0  0  0  0
 21 22  1  0  0  0  0
 22 24  2  0  0  0  0
 22 23  1  0  0  0  0
 23 25  1  0  0  0  0
 26  1  1  0  0  0  0
 27 34  1  6  0  0  0
 27 29  1  0  0  0  0
 28 31  1  0  0  0  0
 30 28  1  0  0  0  0
 30 27  1  0  0  0  0
 31 29  1  0  0  0  0
 31 26  1  1  0  0  0
 32 34  1  0  0  0  0
 32 33  2  0  0  0  0
 35 42  1  0  0  0  0
 35 32  1  0  0  0  0
 36 40  1  0  0  0  0
 36 42  1  0  0  0  0
 37 38  1  0  0  0  0
 37 39  1  0  0  0  0
 39 41  1  0  0  0  0
 40 37  1  0  0  0  0
 42 41  1  0  0  0  0
 43 35  2  0  0  0  0
M  END
>  <MODEL>
3

>  <REMARK>
 VINA RESULT:      -7.7      3.711      9.262
  Name = 
  11 active torsions:
  status: ('A' for Active; 'I' for Inactive)
    1  A    between atoms: C_1  and  C_11
    2  A    between atoms: C_6  and  C_23
    3  A    between atoms: C_7  and  C_11
    4  A    between atoms: C_7  and  N_13
    5  A    between atoms: C_7  and  C_38
    6  A    between atoms: C_8  and  N_40
    7  A    between atoms: N_10  and  C_24
    8  A    between atoms: N_13  and  C_43
    9  A    between atoms: C_17  and  C_32
   10  A    between atoms: C_17  and  C_37
   11  A    between atoms: C_36  and  C_37
                            x       y       z     vdW  Elec       q    Type
                         _______ _______ _______ _____ _____    ______ ____

>  <TORSDO>
F 11

$$$$
=
 OpenBabel10222421353D

 43 46  0  0  1  0  0  0  0  0999 V2000
  187.8240  177.6330  143.7210 C   0  0  0  0  0  0  0  0  0  0  0  0
  188.5180  178.0270  144.7890 C   0  0  0  0  0  3  0  0  0  0  0  0
  184.4040  178.4360  142.0640 C   0  0  0  0  0  0  0  0  0  0  0  0
  184.0260  178.5250  140.8210 N   0  0  0  0  0  0  0  0  0  0  0  0
  185.6880  177.9810  144.6790 O   0  0  0  0  0  0  0  0  0  0  0  0
  186.3790  177.9120  143.6260 C   0  0  0  0  0  0  0  0  0  0  0  0
  183.4330  178.6670  143.1780 C   0  0  0  0  0  1  0  0  0  0  0  0
  185.7730  178.1040  142.3310 N   0  0  0  0  0  2  0  0  0  0  0  0
  182.9840  177.6960  137.2540 C   0  0  0  0  0  1  0  0  0  0  0  0
  182.7550  179.8680  138.8840 S   0  0  0  0  0  0  0  0  0  0  0  0
  182.0100  178.3610  138.2010 C   0  0  2  0  0  3  0  0  0  0  0  0
  182.6700  178.8440  140.3850 C   0  0  1  0  0  3  0  0  0  0  0  0
  181.8720  177.3570  139.7060 S   0  0  0  0  0  0  0  0  0  0  0  0
  189.9190  177.7690  144.8860 N   0  0  0  0  0  2  0  0  0  0  0  0
  190.6020  177.5630  146.1500 C   0  0  1  0  0  3  0  0  0  0  0  0
  188.6870  176.5280  147.3340 O   0  0  0  0  0  0  0  0  0  0  0  0
  188.2690  178.0000  148.9090 C   0  0  0  0  0  3  0  0  0  0  0  0
  189.3620  178.4540  148.1920 C   0  0  0  0  0  3  0  0  0  0  0  0
  187.8850  176.7980  148.3350 C   0  0  0  0  0  3  0  0  0  0  0  0
  189.5690  177.4910  147.2290 C   0  0  0  0  0  0  0  0  0  0  0  0
  191.4250  176.2750  146.0970 C   0  0  0  0  0  2  0  0  0  0  0  0
  191.8820  175.8780  147.4610 C   0  0  0  0  0  0  0  0  0  0  0  0
  192.7080  176.7670  148.2140 N   0  0  0  0  0  2  0  0  0  0  0  0
  191.5750  174.7480  147.9240 O   0  0  0  0  0  0  0  0  0  0  0  0
  193.2640  176.3960  149.5050 C   0  0  0  0  0  1  0  0  0  0  0  0
  188.5260  176.8960  142.6100 C   0  0  0  0  0  2  0  0  0  0  0  0
  189.6600  176.9650  139.4710 C   0  0  2  0  0  3  0  0  0  0  0  0
  190.8000  177.3180  141.5370 C   0  0  0  0  0  2  0  0  0  0  0  0
  188.7450  177.8160  140.3250 C   0  0  0  0  0  2  0  0  0  0  0  0
  191.0400  177.1410  140.0500 C   0  0  0  0  0  2  0  0  0  0  0  0
  189.3620  177.8160  141.7100 C   0  0  1  0  0  3  0  0  0  0  0  0
  189.2450  176.4680  136.9950 C   0  0  0  0  0  0  0  0  0  0  0  0
  188.2420  175.7140  137.0800 O   0  0  0  0  0  0  0  0  0  0  0  0
  189.5630  177.3590  138.0710 N   0  0  0  0  0  2  0  0  0  0  0  0
  190.0910  176.4960  135.7790 C   0  0  0  0  0  0  0  0  0  0  0  0
  192.0790  175.8090  134.4110 C   0  0  0  0  0  2  0  0  0  0  0  0
  194.1420  175.3200  135.7790 N   0  0  0  0  0  0  0  0  0  0  0  0
  194.5300  176.1420  136.7750 O   0  0  0  0  0  1  0  0  0  0  0  0
  193.2240  174.3220  136.3650 C   0  0  0  0  0  2  0  0  0  0  0  0
  193.5320  176.1670  134.7340 C   0  0  0  0  0  2  0  0  0  0  0  0
  191.8710  174.9400  136.7590 C   0  0  0  0  0  2  0  0  0  0  0  0
  191.3160  175.7320  135.6590 N   0  0  0  0  0  0  0  0  0  0  0  0
  189.7390  177.2560  134.8250 O   0  0  0  0  0  0  0  0  0  0  0  0
  1  2  2  0  0  0  0
  2 14  1  0  0  0  0
  3  8  1  0  0  0  0
  3  7  1  0  0  0  0
  4  3  2  0  0  0  0
  6  1  1  0  0  0  0
  6  5  2  0  0  0  0
  8  6  1  0  0  0  0
 10 12  1  0  0  0  0
 11  9  1  6  0  0  0
 11 10  1  0  0  0  0
 11 13  1  0  0  0  0
 12  4  1  6  0  0  0
 13 12  1  0  0  0  0
 14 15  1  0  0  0  0
 15 21  1  6  0  0  0
 15 20  1  0  0  0  0
 16 19  1  0  0  0  0
 18 17  1  0  0  0  0
 19 17  2  0  0  0  0
 20 16  1  0  0  0  0
 20 18  2  0  0  0  0
 21 22  1  0  0  0  0
 22 24  2  0  0  0  0
 22 23  1  0  0  0  0
 23 25  1  0  0  0  0
 26  1  1  0  0  0  0
 27 34  1  6  0  0  0
 27 30  1  0  0  0  0
 27 29  1  0  0  0  0
 28 31  1  0  0  0  0
 29 31  1  0  0  0  0
 30 28  1  0  0  0  0
 31 26  1  1  0  0  0
 32 33  2  0  0  0  0
 32 34  1  0  0  0  0
 35 32  1  0  0  0  0
 36 40  1  0  0  0  0
 36 42  1  0  0  0  0
 37 39  1  0  0  0  0
 37 38  1  0  0  0  0
 39 41  1  0  0  0  0
 40 37  1  0  0  0  0
 42 35  1  0  0  0  0
 42 41  1  0  0  0  0
 43 35  2  0  0  0  0
M  END
>  <MODEL>
4

>  <REMARK>
 VINA RESULT:      -7.7      3.570     10.159
  Name = 
  11 active torsions:
  status: ('A' for Active; 'I' for Inactive)
    1  A    between atoms: C_1  and  C_11
    2  A    between atoms: C_6  and  C_23
    3  A    between atoms: C_7  and  C_11
    4  A    between atoms: C_7  and  N_13
    5  A    between atoms: C_7  and  C_38
    6  A    between atoms: C_8  and  N_40
    7  A    between atoms: N_10  and  C_24
    8  A    between atoms: N_13  and  C_43
    9  A    between atoms: C_17  and  C_32
   10  A    between atoms: C_17  and  C_37
   11  A    between atoms: C_36  and  C_37
                            x       y       z     vdW  Elec       q    Type
                         _______ _______ _______ _____ _____    ______ ____

>  <TORSDO>
F 11

$$$$
=
 OpenBabel10222421353D

 43 46  0  0  1  0  0  0  0  0999 V2000
  190.3050  176.4720  137.4610 C   0  0  0  0  0  0  0  0  0  0  0  0
  191.4570  176.1880  136.8530 C   0  0  0  0  0  3  0  0  0  0  0  0
  186.6140  176.7520  136.2820 C   0  0  0  0  0  0  0  0  0  0  0  0
  185.5060  176.2300  136.7240 N   0  0  0  0  0  0  0  0  0  0  0  0
  189.3230  177.7920  135.7600 O   0  0  0  0  0  0  0  0  0  0  0  0
  189.1480  176.9480  136.6800 C   0  0  0  0  0  0  0  0  0  0  0  0
  186.6140  177.6550  135.0900 C   0  0  0  0  0  1  0  0  0  0  0  0
  187.8300  176.4400  136.9750 N   0  0  0  0  0  2  0  0  0  0  0  0
  182.4030  175.5870  138.8350 C   0  0  0  0  0  1  0  0  0  0  0  0
  183.1960  174.9420  136.3090 S   0  0  0  0  0  0  0  0  0  0  0  0
  182.2710  176.0550  137.4020 C   0  0  2  0  0  3  0  0  0  0  0  0
  184.1890  176.4560  136.1380 C   0  0  1  0  0  3  0  0  0  0  0  0
  183.2260  177.5840  137.1910 S   0  0  0  0  0  0  0  0  0  0  0  0
  192.5810  175.7190  137.6000 N   0  0  0  0  0  2  0  0  0  0  0  0
  193.9530  175.8830  137.1570 C   0  0  1  0  0  3  0  0  0  0  0  0
  196.0040  174.8190  138.0520 O   0  0  0  0  0  0  0  0  0  0  0  0
  195.3910  172.7180  138.2340 C   0  0  0  0  0  3  0  0  0  0  0  0
  194.3010  173.4330  137.7730 C   0  0  0  0  0  3  0  0  0  0  0  0
  196.4270  173.6260  138.3910 C   0  0  0  0  0  3  0  0  0  0  0  0
  194.7500  174.7330  137.6830 C   0  0  0  0  0  0  0  0  0  0  0  0
  194.0070  175.9300  135.6280 C   0  0  0  0  0  2  0  0  0  0  0  0
  195.2470  176.6160  135.1610 C   0  0  0  0  0  0  0  0  0  0  0  0
  195.3430  178.0380  135.2500 N   0  0  0  0  0  2  0  0  0  0  0  0
  196.1830  175.9460  134.6500 O   0  0  0  0  0  0  0  0  0  0  0  0
  196.4820  178.7690  134.7210 C   0  0  0  0  0  1  0  0  0  0  0  0
  190.1920  176.3080  138.9540 C   0  0  0  0  0  2  0  0  0  0  0  0
  189.5760  177.4080  142.0450 C   0  0  2  0  0  3  0  0  0  0  0  0
  188.6700  178.0970  139.9480 C   0  0  0  0  0  2  0  0  0  0  0  0
  190.7360  177.4600  141.0740 C   0  0  0  0  0  2  0  0  0  0  0  0
  188.5020  178.2770  141.4440 C   0  0  0  0  0  2  0  0  0  0  0  0
  190.1130  177.6450  139.7040 C   0  0  1  0  0  3  0  0  0  0  0  0
  190.4270  176.9630  144.4170 C   0  0  0  0  0  0  0  0  0  0  0  0
  191.2980  176.0860  144.1850 O   0  0  0  0  0  0  0  0  0  0  0  0
  190.0020  177.8430  143.3700 N   0  0  0  0  0  2  0  0  0  0  0  0
  189.8560  177.1470  145.7720 C   0  0  0  0  0  0  0  0  0  0  0  0
  187.9560  177.3530  147.3980 C   0  0  0  0  0  2  0  0  0  0  0  0
  185.8970  178.4450  146.4310 N   0  0  0  0  0  0  0  0  0  0  0  0
  185.9850  179.5630  145.6820 O   0  0  0  0  0  1  0  0  0  0  0  0
  186.0090  177.2920  145.5150 C   0  0  0  0  0  2  0  0  0  0  0  0
  186.9660  178.5210  147.4470 C   0  0  0  0  0  2  0  0  0  0  0  0
  187.4320  177.1370  144.9510 C   0  0  0  0  0  2  0  0  0  0  0  0
  188.4290  177.1840  146.0220 N   0  0  0  0  0  0  0  0  0  0  0  0
  190.6590  177.3180  146.7400 O   0  0  0  0  0  0  0  0  0  0  0  0
  1 26  1  0  0  0  0
  2  1  2  0  0  0  0
  2 14  1  0  0  0  0
  3  4  2  0  0  0  0
  3  8  1  0  0  0  0
  5  6  2  0  0  0  0
  6  8  1  0  0  0  0
  6  1  1  0  0  0  0
  7  3  1  0  0  0  0
 10 11  1  0  0  0  0
 11  9  1  1  0  0  0
 12 10  1  0  0  0  0
 12  4  1  1  0  0  0
 12 13  1  0  0  0  0
 13 11  1  0  0  0  0
 15 21  1  6  0  0  0
 15 14  1  0  0  0  0
 15 20  1  0  0  0  0
 16 19  1  0  0  0  0
 17 19  2  0  0  0  0
 18 17  1  0  0  0  0
 20 18  2  0  0  0  0
 20 16  1  0  0  0  0
 22 23  1  0  0  0  0
 22 21  1  0  0  0  0
 24 22  2  0  0  0  0
 25 23  1  0  0  0  0
 27 34  1  1  0  0  0
 28 30  1  0  0  0  0
 29 27  1  0  0  0  0
 30 27  1  0  0  0  0
 31 26  1  1  0  0  0
 31 28  1  0  0  0  0
 31 29  1  0  0  0  0
 32 35  1  0  0  0  0
 33 32  2  0  0  0  0
 34 32  1  0  0  0  0
 35 42  1  0  0  0  0
 35 43  2  0  0  0  0
 36 40  1  0  0  0  0
 37 40  1  0  0  0  0
 38 37  1  0  0  0  0
 39 37  1  0  0  0  0
 41 39  1  0  0  0  0
 41 42  1  0  0  0  0
 42 36  1  0  0  0  0
M  END
>  <MODEL>
5

>  <REMARK>
 VINA RESULT:      -7.6      3.438      7.929
  Name = 
  11 active torsions:
  status: ('A' for Active; 'I' for Inactive)
    1  A    between atoms: C_1  and  C_11
    2  A    between atoms: C_6  and  C_23
    3  A    between atoms: C_7  and  C_11
    4  A    between atoms: C_7  and  N_13
    5  A    between atoms: C_7  and  C_38
    6  A    between atoms: C_8  and  N_40
    7  A    between atoms: N_10  and  C_24
    8  A    between atoms: N_13  and  C_43
    9  A    between atoms: C_17  and  C_32
   10  A    between atoms: C_17  and  C_37
   11  A    between atoms: C_36  and  C_37
                            x       y       z     vdW  Elec       q    Type
                         _______ _______ _______ _____ _____    ______ ____

>  <TORSDO>
F 11

$$$$
=
 OpenBabel10222421353D

 43 46  0  0  1  0  0  0  0  0999 V2000
  187.8030  178.2320  139.8790 C   0  0  0  0  0  0  0  0  0  0  0  0
  187.9190  177.6830  138.6700 C   0  0  0  0  0  3  0  0  0  0  0  0
  184.0250  179.1090  140.1010 C   0  0  0  0  0  0  0  0  0  0  0  0
  183.1380  179.4200  139.2000 N   0  0  0  0  0  0  0  0  0  0  0  0
  186.3230  178.2270  141.7250 O   0  0  0  0  0  0  0  0  0  0  0  0
  186.4730  178.4210  140.4880 C   0  0  0  0  0  0  0  0  0  0  0  0
  183.6550  179.0410  141.5480 C   0  0  0  0  0  1  0  0  0  0  0  0
  185.3610  178.8270  139.6640 N   0  0  0  0  0  2  0  0  0  0  0  0
  180.6690  179.6160  136.3080 C   0  0  0  0  0  1  0  0  0  0  0  0
  181.2310  181.1570  138.4840 S   0  0  0  0  0  0  0  0  0  0  0  0
  180.2070  179.8650  137.7270 C   0  0  2  0  0  3  0  0  0  0  0  0
  181.7390  179.7230  139.4800 C   0  0  1  0  0  3  0  0  0  0  0  0
  180.6690  178.4430  138.7550 S   0  0  0  0  0  0  0  0  0  0  0  0
  189.2030  177.4890  138.0760 N   0  0  0  0  0  2  0  0  0  0  0  0
  189.5150  176.3690  137.2070 C   0  0  1  0  0  3  0  0  0  0  0  0
  188.5050  177.3260  135.1570 O   0  0  0  0  0  0  0  0  0  0  0  0
  186.8650  175.9230  134.7520 C   0  0  0  0  0  3  0  0  0  0  0  0
  187.5400  175.4660  135.8700 C   0  0  0  0  0  3  0  0  0  0  0  0
  187.5050  177.0850  134.3460 C   0  0  0  0  0  3  0  0  0  0  0  0
  188.5480  176.3850  136.0660 C   0  0  0  0  0  0  0  0  0  0  0  0
  190.9550  176.4820  136.7030 C   0  0  0  0  0  2  0  0  0  0  0  0
  191.8490  175.5320  137.4280 C   0  0  0  0  0  0  0  0  0  0  0  0
  193.2650  175.6380  137.2730 N   0  0  0  0  0  2  0  0  0  0  0  0
  191.3530  174.6170  138.1370 O   0  0  0  0  0  0  0  0  0  0  0  0
  194.1800  174.6820  137.8730 C   0  0  0  0  0  1  0  0  0  0  0  0
  189.0410  178.6620  140.6230 C   0  0  0  0  0  2  0  0  0  0  0  0
  191.1330  178.3180  143.2020 C   0  0  2  0  0  3  0  0  0  0  0  0
  191.1290  177.2650  141.0610 C   0  0  0  0  0  2  0  0  0  0  0  0
  189.6930  177.9600  142.9030 C   0  0  0  0  0  2  0  0  0  0  0  0
  191.9660  177.4300  142.3140 C   0  0  0  0  0  2  0  0  0  0  0  0
  189.6720  177.5320  141.4480 C   0  0  1  0  0  3  0  0  0  0  0  0
  191.2140  176.9340  145.3530 C   0  0  0  0  0  0  0  0  0  0  0  0
  191.6750  175.8510  144.9090 O   0  0  0  0  0  0  0  0  0  0  0  0
  191.4150  178.1490  144.6220 N   0  0  0  0  0  2  0  0  0  0  0  0
  190.5030  176.9970  146.6510 C   0  0  0  0  0  0  0  0  0  0  0  0
  188.4420  177.0470  148.0810 C   0  0  0  0  0  2  0  0  0  0  0  0
  186.4740  178.1970  146.9970 N   0  0  0  0  0  0  0  0  0  0  0  0
  186.6180  179.3750  146.3570 O   0  0  0  0  0  1  0  0  0  0  0  0
  186.7010  177.1260  146.0060 C   0  0  0  0  0  2  0  0  0  0  0  0
  187.4300  178.1970  148.1220 C   0  0  0  0  0  2  0  0  0  0  0  0
  188.1770  177.0330  145.5820 C   0  0  0  0  0  2  0  0  0  0  0  0
  189.0580  176.9990  146.7520 N   0  0  0  0  0  0  0  0  0  0  0  0
  191.1980  177.0940  147.7090 O   0  0  0  0  0  0  0  0  0  0  0  0
  1  6  1  0  0  0  0
  1 26  1  0  0  0  0
  2  1  2  0  0  0  0
  3  7  1  0  0  0  0
  4  3  2  0  0  0  0
  6  5  2  0  0  0  0
  8  3  1  0  0  0  0
  8  6  1  0  0  0  0
 10 12  1  0  0  0  0
 11  9  1  6  0  0  0
 11 10  1  0  0  0  0
 11 13  1  0  0  0  0
 12  4  1  6  0  0  0
 13 12  1  0  0  0  0
 14  2  1  0  0  0  0
 15 21  1  6  0  0  0
 15 14  1  0  0  0  0
 16 20  1  0  0  0  0
 17 18  1  0  0  0  0
 18 20  2  0  0  0  0
 19 17  2  0  0  0  0
 19 16  1  0  0  0  0
 20 15  1  0  0  0  0
 21 22  1  0  0  0  0
 22 24  2  0  0  0  0
 23 22  1  0  0  0  0
 23 25  1  0  0  0  0
 27 34  1  1  0  0  0
 28 31  1  0  0  0  0
 28 30  1  0  0  0  0
 29 27  1  0  0  0  0
 30 27  1  0  0  0  0
 31 26  1  6  0  0  0
 31 29  1  0  0  0  0
 32 35  1  0  0  0  0
 33 32  2  0  0  0  0
 34 32  1  0  0  0  0
 35 42  1  0  0  0  0
 35 43  2  0  0  0  0
 36 40  1  0  0  0  0
 37 40  1  0  0  0  0
 38 37  1  0  0  0  0
 39 37  1  0  0  0  0
 41 39  1  0  0  0  0
 41 42  1  0  0  0  0
 42 36  1  0  0  0  0
M  END
>  <MODEL>
6

>  <REMARK>
 VINA RESULT:      -7.5      3.600      7.464
  Name = 
  11 active torsions:
  status: ('A' for Active; 'I' for Inactive)
    1  A    between atoms: C_1  and  C_11
    2  A    between atoms: C_6  and  C_23
    3  A    between atoms: C_7  and  C_11
    4  A    between atoms: C_7  and  N_13
    5  A    between atoms: C_7  and  C_38
    6  A    between atoms: C_8  and  N_40
    7  A    between atoms: N_10  and  C_24
    8  A    between atoms: N_13  and  C_43
    9  A    between atoms: C_17  and  C_32
   10  A    between atoms: C_17  and  C_37
   11  A    between atoms: C_36  and  C_37
                            x       y       z     vdW  Elec       q    Type
                         _______ _______ _______ _____ _____    ______ ____

>  <TORSDO>
F 11

$$$$
=
 OpenBabel10222421353D

 43 46  0  0  1  0  0  0  0  0999 V2000
  186.5160  178.3830  141.4040 C   0  0  0  0  0  0  0  0  0  0  0  0
  186.4360  177.8830  142.6380 C   0  0  0  0  0  3  0  0  0  0  0  0
  183.0780  177.8720  139.6690 C   0  0  0  0  0  0  0  0  0  0  0  0
  182.2700  176.8530  139.5970 N   0  0  0  0  0  0  0  0  0  0  0  0
  185.1320  179.9090  140.2390 O   0  0  0  0  0  0  0  0  0  0  0  0
  185.2910  178.7300  140.6600 C   0  0  0  0  0  0  0  0  0  0  0  0
  182.7430  179.1640  138.9950 C   0  0  0  0  0  1  0  0  0  0  0  0
  184.2900  177.7190  140.4180 N   0  0  0  0  0  2  0  0  0  0  0  0
  181.2030  173.7180  137.7190 C   0  0  0  0  0  1  0  0  0  0  0  0
  181.2880  176.3820  137.1520 S   0  0  0  0  0  0  0  0  0  0  0  0
  180.3250  174.9500  137.7120 C   0  0  2  0  0  3  0  0  0  0  0  0
  180.9960  176.8510  138.8840 C   0  0  1  0  0  3  0  0  0  0  0  0
  179.9850  175.4400  139.4260 S   0  0  0  0  0  0  0  0  0  0  0  0
  187.6170  177.5520  143.3690 N   0  0  0  0  0  2  0  0  0  0  0  0
  187.9570  178.1560  144.6440 C   0  0  1  0  0  3  0  0  0  0  0  0
  185.6430  178.9130  145.1080 O   0  0  0  0  0  0  0  0  0  0  0  0
  185.2810  178.0890  147.1110 C   0  0  0  0  0  3  0  0  0  0  0  0
  186.5480  177.6950  146.7190 C   0  0  0  0  0  3  0  0  0  0  0  0
  184.7600  178.8470  146.0730 C   0  0  0  0  0  3  0  0  0  0  0  0
  186.7090  178.2400  145.4640 C   0  0  0  0  0  0  0  0  0  0  0  0
  189.0200  177.3160  145.3550 C   0  0  0  0  0  2  0  0  0  0  0  0
  190.2360  177.1650  144.5040 C   0  0  0  0  0  0  0  0  0  0  0  0
  190.5450  178.1650  143.5330 N   0  0  0  0  0  2  0  0  0  0  0  0
  190.9580  176.1390  144.6130 O   0  0  0  0  0  0  0  0  0  0  0  0
  191.6580  178.0250  142.6080 C   0  0  0  0  0  1  0  0  0  0  0  0
  187.8680  178.5890  140.7710 C   0  0  0  0  0  2  0  0  0  0  0  0
  190.4670  177.3380  139.0910 C   0  0  2  0  0  3  0  0  0  0  0  0
  188.4900  178.4180  138.3040 C   0  0  0  0  0  2  0  0  0  0  0  0
  189.3210  176.7830  139.9090 C   0  0  0  0  0  2  0  0  0  0  0  0
  189.8400  177.9040  137.8430 C   0  0  0  0  0  2  0  0  0  0  0  0
  188.1250  177.6550  139.5810 C   0  0  1  0  0  3  0  0  0  0  0  0
  192.8390  176.5420  138.5550 C   0  0  0  0  0  0  0  0  0  0  0  0
  193.5060  177.2860  139.3190 O   0  0  0  0  0  0  0  0  0  0  0  0
  191.4540  176.2980  138.8250 N   0  0  0  0  0  2  0  0  0  0  0  0
  193.4650  175.8630  137.3970 C   0  0  0  0  0  0  0  0  0  0  0  0
  195.1430  174.3320  136.3310 C   0  0  0  0  0  2  0  0  0  0  0  0
  197.3730  174.2790  137.5100 N   0  0  0  0  0  0  0  0  0  0  0  0
  197.9780  175.4150  137.9120 O   0  0  0  0  0  1  0  0  0  0  0  0
  196.5070  173.8260  138.6170 C   0  0  0  0  0  2  0  0  0  0  0  0
  196.6510  174.5940  136.2620 C   0  0  0  0  0  2  0  0  0  0  0  0
  195.2830  174.7390  138.8060 C   0  0  0  0  0  2  0  0  0  0  0  0
  194.6000  174.9730  137.5310 N   0  0  0  0  0  0  0  0  0  0  0  0
  193.0060  176.1100  136.2400 O   0  0  0  0  0  0  0  0  0  0  0  0
  1  2  2  0  0  0  0
  2 14  1  0  0  0  0
  3  8  1  0  0  0  0
  4  3  2  0  0  0  0
  5  6  2  0  0  0  0
  6  1  1  0  0  0  0
  7  3  1  0  0  0  0
  8  6  1  0  0  0  0
 10 11  1  0  0  0  0
 10 12  1  0  0  0  0
 11  9  1  1  0  0  0
 11 13  1  0  0  0  0
 12 13  1  0  0  0  0
 12  4  1  1  0  0  0
 14 15  1  0  0  0  0
 15 21  1  1  0  0  0
 15 20  1  0  0  0  0
 16 20  1  0  0  0  0
 16 19  1  0  0  0  0
 18 17  1  0  0  0  0
 19 17  2  0  0  0  0
 20 18  2  0  0  0  0
 22 24  2  0  0  0  0
 22 21  1  0  0  0  0
 23 22  1  0  0  0  0
 25 23  1  0  0  0  0
 26  1  1  0  0  0  0
 27 34  1  6  0  0  0
 27 29  1  0  0  0  0
 28 31  1  0  0  0  0
 30 28  1  0  0  0  0
 30 27  1  0  0  0  0
 31 29  1  0  0  0  0
 31 26  1  1  0  0  0
 32 34  1  0  0  0  0
 32 33  2  0  0  0  0
 35 42  1  0  0  0  0
 35 32  1  0  0  0  0
 36 42  1  0  0  0  0
 37 38  1  0  0  0  0
 37 39  1  0  0  0  0
 39 41  1  0  0  0  0
 40 36  1  0  0  0  0
 40 37  1  0  0  0  0
 42 41  1  0  0  0  0
 43 35  2  0  0  0  0
M  END
>  <MODEL>
7

>  <REMARK>
 VINA RESULT:      -7.4      3.879      9.195
  Name = 
  11 active torsions:
  status: ('A' for Active; 'I' for Inactive)
    1  A    between atoms: C_1  and  C_11
    2  A    between atoms: C_6  and  C_23
    3  A    between atoms: C_7  and  C_11
    4  A    between atoms: C_7  and  N_13
    5  A    between atoms: C_7  and  C_38
    6  A    between atoms: C_8  and  N_40
    7  A    between atoms: N_10  and  C_24
    8  A    between atoms: N_13  and  C_43
    9  A    between atoms: C_17  and  C_32
   10  A    between atoms: C_17  and  C_37
   11  A    between atoms: C_36  and  C_37
                            x       y       z     vdW  Elec       q    Type
                         _______ _______ _______ _____ _____    ______ ____

>  <TORSDO>
F 11

$$$$
=
 OpenBabel10222421353D

 43 46  0  0  1  0  0  0  0  0999 V2000
  188.0170  177.8530  138.2190 C   0  0  0  0  0  0  0  0  0  0  0  0
  188.2790  177.1860  137.0950 C   0  0  0  0  0  3  0  0  0  0  0  0
  184.1390  177.8840  137.9990 C   0  0  0  0  0  0  0  0  0  0  0  0
  183.3000  177.3380  137.1660 N   0  0  0  0  0  0  0  0  0  0  0  0
  186.3950  178.7720  139.6770 O   0  0  0  0  0  0  0  0  0  0  0  0
  186.6240  178.1270  138.6170 C   0  0  0  0  0  0  0  0  0  0  0  0
  183.6530  178.7150  139.1430 C   0  0  0  0  0  1  0  0  0  0  0  0
  185.5390  177.6570  137.7900 N   0  0  0  0  0  2  0  0  0  0  0  0
  181.1190  174.4390  136.0090 C   0  0  0  0  0  1  0  0  0  0  0  0
  181.1320  177.1350  135.6080 S   0  0  0  0  0  0  0  0  0  0  0  0
  180.4870  175.7110  136.5310 C   0  0  2  0  0  3  0  0  0  0  0  0
  181.8480  177.4650  137.2470 C   0  0  1  0  0  3  0  0  0  0  0  0
  181.1540  176.0660  138.1810 S   0  0  0  0  0  0  0  0  0  0  0  0
  189.6250  176.9090  136.7070 N   0  0  0  0  0  2  0  0  0  0  0  0
  190.1230  175.5660  136.4710 C   0  0  1  0  0  3  0  0  0  0  0  0
  192.2830  176.5450  137.1890 O   0  0  0  0  0  0  0  0  0  0  0  0
  193.4860  174.7550  137.6020 C   0  0  0  0  0  3  0  0  0  0  0  0
  192.2240  174.3330  137.2240 C   0  0  0  0  0  3  0  0  0  0  0  0
  193.4710  176.1410  137.5640 C   0  0  0  0  0  3  0  0  0  0  0  0
  191.5260  175.4960  136.9820 C   0  0  0  0  0  0  0  0  0  0  0  0
  189.2330  174.5450  137.1820 C   0  0  0  0  0  2  0  0  0  0  0  0
  188.6790  173.5540  136.2130 C   0  0  0  0  0  0  0  0  0  0  0  0
  187.9590  172.4200  136.6980 N   0  0  0  0  0  2  0  0  0  0  0  0
  188.8860  173.6970  134.9800 O   0  0  0  0  0  0  0  0  0  0  0  0
  187.4830  171.3720  135.8110 C   0  0  0  0  0  1  0  0  0  0  0  0
  189.1560  178.3300  139.0830 C   0  0  0  0  0  2  0  0  0  0  0  0
  190.2650  178.3640  142.2320 C   0  0  2  0  0  3  0  0  0  0  0  0
  191.0660  177.1790  140.3210 C   0  0  0  0  0  2  0  0  0  0  0  0
  189.0430  177.8460  141.5050 C   0  0  0  0  0  2  0  0  0  0  0  0
  191.4120  177.5080  141.7600 C   0  0  0  0  0  2  0  0  0  0  0  0
  189.5480  177.3250  140.1740 C   0  0  1  0  0  3  0  0  0  0  0  0
  189.4770  177.2130  144.3770 C   0  0  0  0  0  0  0  0  0  0  0  0
  189.9040  176.0470  144.1790 O   0  0  0  0  0  0  0  0  0  0  0  0
  190.0600  178.3170  143.6740 N   0  0  0  0  0  2  0  0  0  0  0  0
  188.4070  177.4880  145.3650 C   0  0  0  0  0  0  0  0  0  0  0  0
  186.0280  177.9160  146.0360 C   0  0  0  0  0  2  0  0  0  0  0  0
  184.6850  179.1640  144.3020 N   0  0  0  0  0  0  0  0  0  0  0  0
  185.1880  180.2470  143.6750 O   0  0  0  0  0  1  0  0  0  0  0  0
  185.0620  177.9790  143.5050 C   0  0  0  0  0  2  0  0  0  0  0  0
  185.2260  179.1710  145.6750 C   0  0  0  0  0  2  0  0  0  0  0  0
  186.5680  177.6770  143.5940 C   0  0  0  0  0  2  0  0  0  0  0  0
  187.0190  177.6640  144.9870 N   0  0  0  0  0  0  0  0  0  0  0  0
  188.7380  177.6130  146.5840 O   0  0  0  0  0  0  0  0  0  0  0  0
  1  6  1  0  0  0  0
  1 26  1  0  0  0  0
  2  1  2  0  0  0  0
  3  7  1  0  0  0  0
  4  3  2  0  0  0  0
  6  5  2  0  0  0  0
  8  3  1  0  0  0  0
  8  6  1  0  0  0  0
 10 11  1  0  0  0  0
 10 12  1  0  0  0  0
 11  9  1  6  0  0  0
 11 13  1  0  0  0  0
 12  4  1  6  0  0  0
 12 13  1  0  0  0  0
 14  2  1  0  0  0  0
 15 14  1  0  0  0  0
 15 20  1  0  0  0  0
 15 21  1  1  0  0  0
 16 19  1  0  0  0  0
 18 17  1  0  0  0  0
 19 17  2  0  0  0  0
 20 16  1  0  0  0  0
 20 18  2  0  0  0  0
 22 23  1  0  0  0  0
 22 21  1  0  0  0  0
 24 22  2  0  0  0  0
 25 23  1  0  0  0  0
 27 34  1  1  0  0  0
 28 30  1  0  0  0  0
 29 27  1  0  0  0  0
 30 27  1  0  0  0  0
 31 26  1  6  0  0  0
 31 28  1  0  0  0  0
 31 29  1  0  0  0  0
 32 35  1  0  0  0  0
 33 32  2  0  0  0  0
 34 32  1  0  0  0  0
 35 43  2  0  0  0  0
 37 40  1  0  0  0  0
 38 37  1  0  0  0  0
 39 41  1  0  0  0  0
 39 37  1  0  0  0  0
 40 36  1  0  0  0  0
 41 42  1  0  0  0  0
 42 35  1  0  0  0  0
 42 36  1  0  0  0  0
M  END
>  <MODEL>
8

>  <REMARK>
 VINA RESULT:      -7.3      3.531      7.059
  Name = 
  11 active torsions:
  status: ('A' for Active; 'I' for Inactive)
    1  A    between atoms: C_1  and  C_11
    2  A    between atoms: C_6  and  C_23
    3  A    between atoms: C_7  and  C_11
    4  A    between atoms: C_7  and  N_13
    5  A    between atoms: C_7  and  C_38
    6  A    between atoms: C_8  and  N_40
    7  A    between atoms: N_10  and  C_24
    8  A    between atoms: N_13  and  C_43
    9  A    between atoms: C_17  and  C_32
   10  A    between atoms: C_17  and  C_37
   11  A    between atoms: C_36  and  C_37
                            x       y       z     vdW  Elec       q    Type
                         _______ _______ _______ _____ _____    ______ ____

>  <TORSDO>
F 11

$$$$
=
 OpenBabel10222421353D

 43 46  0  0  1  0  0  0  0  0999 V2000
  187.8270  177.6310  137.6350 C   0  0  0  0  0  0  0  0  0  0  0  0
  188.1330  177.0100  136.4950 C   0  0  0  0  0  3  0  0  0  0  0  0
  183.9560  177.3080  137.5710 C   0  0  0  0  0  0  0  0  0  0  0  0
  183.1530  176.4530  137.0060 N   0  0  0  0  0  0  0  0  0  0  0  0
  186.1550  178.8740  138.7570 O   0  0  0  0  0  0  0  0  0  0  0  0
  186.4210  177.9240  137.9710 C   0  0  0  0  0  0  0  0  0  0  0  0
  183.4200  178.4430  138.3830 C   0  0  0  0  0  1  0  0  0  0  0  0
  185.3670  177.1240  137.3960 N   0  0  0  0  0  2  0  0  0  0  0  0
  181.1670  173.2530  136.4500 C   0  0  0  0  0  1  0  0  0  0  0  0
  180.9870  175.8230  135.5630 S   0  0  0  0  0  0  0  0  0  0  0  0
  180.4540  174.5540  136.7450 C   0  0  2  0  0  3  0  0  0  0  0  0
  181.6970  176.4960  137.0960 C   0  0  1  0  0  3  0  0  0  0  0  0
  181.1130  175.2500  138.2860 S   0  0  0  0  0  0  0  0  0  0  0  0
  189.4900  176.7150  136.1660 N   0  0  0  0  0  2  0  0  0  0  0  0
  190.0230  175.3660  136.1300 C   0  0  1  0  0  3  0  0  0  0  0  0
  192.1170  176.4480  136.8940 O   0  0  0  0  0  0  0  0  0  0  0  0
  193.2390  174.7500  137.7210 C   0  0  0  0  0  3  0  0  0  0  0  0
  192.0140  174.2730  137.2900 C   0  0  0  0  0  3  0  0  0  0  0  0
  193.2540  176.1110  137.4510 C   0  0  0  0  0  3  0  0  0  0  0  0
  191.3660  175.3810  136.7880 C   0  0  0  0  0  0  0  0  0  0  0  0
  189.0740  174.4080  136.8530 C   0  0  0  0  0  2  0  0  0  0  0  0
  188.5980  173.3340  135.9330 C   0  0  0  0  0  0  0  0  0  0  0  0
  188.0790  172.1190  136.4750 N   0  0  0  0  0  2  0  0  0  0  0  0
  188.6960  173.4840  134.6860 O   0  0  0  0  0  0  0  0  0  0  0  0
  187.6940  171.0000  135.6310 C   0  0  0  0  0  1  0  0  0  0  0  0
  188.9290  178.0350  138.5800 C   0  0  0  0  0  2  0  0  0  0  0  0
  189.9800  178.2150  141.7430 C   0  0  2  0  0  3  0  0  0  0  0  0
  190.4600  176.6130  140.0410 C   0  0  0  0  0  2  0  0  0  0  0  0
  188.6710  177.9350  141.0370 C   0  0  0  0  0  2  0  0  0  0  0  0
  190.8680  177.0360  141.4390 C   0  0  0  0  0  2  0  0  0  0  0  0
  189.0350  177.1230  139.8090 C   0  0  1  0  0  3  0  0  0  0  0  0
  190.7950  178.4860  144.1540 C   0  0  0  0  0  0  0  0  0  0  0  0
  191.7820  179.2440  143.9760 O   0  0  0  0  0  0  0  0  0  0  0  0
  189.7570  178.4210  143.1690 N   0  0  0  0  0  2  0  0  0  0  0  0
  190.6470  177.6850  145.3920 C   0  0  0  0  0  0  0  0  0  0  0  0
  189.3100  176.5830  147.2060 C   0  0  0  0  0  2  0  0  0  0  0  0
  187.1880  177.8110  147.8020 N   0  0  0  0  0  0  0  0  0  0  0  0
  187.1790  179.1490  147.9720 O   0  0  0  0  0  1  0  0  0  0  0  0
  186.9190  177.5480  146.3740 C   0  0  0  0  0  2  0  0  0  0  0  0
  188.5000  177.3250  148.2730 C   0  0  0  0  0  2  0  0  0  0  0  0
  188.1030  177.9490  145.4780 C   0  0  0  0  0  2  0  0  0  0  0  0
  189.3590  177.3980  145.9900 N   0  0  0  0  0  0  0  0  0  0  0  0
  191.7020  177.2730  145.9660 O   0  0  0  0  0  0  0  0  0  0  0  0
  1  6  1  0  0  0  0
  1 26  1  0  0  0  0
  2  1  2  0  0  0  0
  3  7  1  0  0  0  0
  4  3  2  0  0  0  0
  6  5  2  0  0  0  0
  8  3  1  0  0  0  0
  8  6  1  0  0  0  0
 10 11  1  0  0  0  0
 10 12  1  0  0  0  0
 11  9  1  6  0  0  0
 11 13  1  0  0  0  0
 12  4  1  6  0  0  0
 12 13  1  0  0  0  0
 14  2  1  0  0  0  0
 15 14  1  0  0  0  0
 15 20  1  0  0  0  0
 15 21  1  1  0  0  0
 16 19  1  0  0  0  0
 18 17  1  0  0  0  0
 19 17  2  0  0  0  0
 20 16  1  0  0  0  0
 20 18  2  0  0  0  0
 22 23  1  0  0  0  0
 22 21  1  0  0  0  0
 24 22  2  0  0  0  0
 25 23  1  0  0  0  0
 27 34  1  1  0  0  0
 28 30  1  0  0  0  0
 29 27  1  0  0  0  0
 30 27  1  0  0  0  0
 31 26  1  6  0  0  0
 31 28  1  0  0  0  0
 31 29  1  0  0  0  0
 32 35  1  0  0  0  0
 33 32  2  0  0  0  0
 34 32  1  0  0  0  0
 35 43  2  0  0  0  0
 35 42  1  0  0  0  0
 36 40  1  0  0  0  0
 37 38  1  0  0  0  0
 37 40  1  0  0  0  0
 39 37  1  0  0  0  0
 41 42  1  0  0  0  0
 41 39  1  0  0  0  0
 42 36  1  0  0  0  0
M  END
>  <MODEL>
9

>  <REMARK>
 VINA RESULT:      -7.3      3.338      6.824
  Name = 
  11 active torsions:
  status: ('A' for Active; 'I' for Inactive)
    1  A    between atoms: C_1  and  C_11
    2  A    between atoms: C_6  and  C_23
    3  A    between atoms: C_7  and  C_11
    4  A    between atoms: C_7  and  N_13
    5  A    between atoms: C_7  and  C_38
    6  A    between atoms: C_8  and  N_40
    7  A    between atoms: N_10  and  C_24
    8  A    between atoms: N_13  and  C_43
    9  A    between atoms: C_17  and  C_32
   10  A    between atoms: C_17  and  C_37
   11  A    between atoms: C_36  and  C_37
                            x       y       z     vdW  Elec       q    Type
                         _______ _______ _______ _____ _____    ______ ____

>  <TORSDO>
F 11

$$$$
