=
 OpenBabel10232410253D

 33 36  0  0  1  0  0  0  0  0999 V2000
  184.5500  178.6430  144.0330 C   0  0  2  0  0  3  0  0  0  0  0  0
  185.8120  178.6920  146.1850 C   0  0  1  0  0  3  0  0  0  0  0  0
  186.0890  179.5500  147.4010 C   0  0  0  0  0  1  0  0  0  0  0  0
  185.9790  178.9940  142.0610 C   0  0  0  0  0  3  0  0  0  0  0  0
  188.4200  175.7650  143.3360 O   0  0  0  0  0  1  0  0  0  0  0  0
  186.3500  176.9170  143.4460 C   0  0  2  0  0  3  0  0  0  0  0  0
  187.8570  177.0070  143.6120 C   0  0  1  0  0  3  0  0  0  0  0  0
  185.0430  179.5250  145.1670 C   0  0  0  0  0  2  0  0  0  0  0  0
  185.6820  178.2350  143.1290 C   0  0  0  0  0  0  0  0  0  0  0  0
  186.9960  176.8920  144.8480 C   0  0  1  0  0  3  0  0  0  0  0  0
  187.1350  178.2220  145.5970 C   0  0  0  0  0  2  0  0  0  0  0  0
  186.5180  178.2950  139.6170 C   0  0  0  0  0  0  0  0  0  0  0  0
  188.2460  178.6160  141.0600 C   0  0  0  0  0  3  0  0  0  0  0  0
  185.3540  178.5260  139.0720 C   0  0  0  0  0  0  0  0  0  0  0  0
  184.2530  178.7490  138.5540 O   0  0  0  0  0  0  0  0  0  0  0  0
  187.7540  178.0590  138.8920 C   0  0  0  0  0  0  0  0  0  0  0  0
  188.7630  178.2190  139.7440 C   0  0  0  0  0  0  0  0  0  0  0  0
  186.9190  178.6860  140.9660 C   0  0  0  0  0  0  0  0  0  0  0  0
  190.6980  176.7460  139.3860 C   0  0  0  0  0  1  0  0  0  0  0  0
  190.1100  178.0380  139.4310 O   0  0  0  0  0  0  0  0  0  0  0  0
  187.8290  177.7180  137.5360 O   0  0  0  0  0  0  0  0  0  0  0  0
  187.7260  176.3850  137.0600 C   0  0  0  0  0  1  0  0  0  0  0  0
  183.5220  179.2740  143.3190 O   0  0  0  0  0  0  0  0  0  0  0  0
  182.3670  179.1120  144.0980 C   0  0  0  0  0  2  0  0  0  0  0  0
  179.9820  178.4010  144.1110 C   0  0  0  0  0  1  0  0  0  0  0  0
  181.1950  178.6550  143.2390 C   0  0  1  0  0  3  0  0  0  0  0  0
  180.8520  179.3420  140.8380 C   0  0  0  0  0  0  0  0  0  0  0  0
  180.8860  179.6550  142.2310 N   0  0  0  0  0  2  0  0  0  0  0  0
  180.2310  178.1620  138.3450 S   0  0  0  0  0  0  0  0  0  0  0  0
  180.6920  179.8600  138.6170 C   0  0  0  0  0  0  0  0  0  0  0  0
  181.1040  180.6400  137.6280 C   0  0  0  0  0  2  0  0  0  0  0  0
  181.0960  177.6630  140.2340 S   0  0  0  0  0  0  0  0  0  0  0  0
  180.7610  180.2890  139.9660 N   0  0  0  0  0  0  0  0  0  0  0  0
  1 23  1  6  0  0  0
  1  8  1  0  0  0  0
  2  3  1  1  0  0  0
  4  9  2  0  0  0  0
  6  9  1  1  0  0  0
  6  7  1  0  0  0  0
  6 10  1  0  0  0  0
  7  5  1  6  0  0  0
  7 10  1  0  0  0  0
  8  2  1  0  0  0  0
  9  1  1  0  0  0  0
 10 11  1  1  0  0  0
 11  2  1  0  0  0  0
 12 18  1  0  0  0  0
 14 12  2  0  0  0  0
 15 14  2  0  0  0  0
 16 12  1  0  0  0  0
 16 17  2  0  0  0  0
 17 13  1  0  0  0  0
 18 13  2  0  0  0  0
 18  4  1  0  0  0  0
 19 20  1  0  0  0  0
 20 17  1  0  0  0  0
 21 16  1  0  0  0  0
 22 21  1  0  0  0  0
 23 24  1  0  0  0  0
 26 24  1  0  0  0  0
 26 25  1  1  0  0  0
 27 28  1  0  0  0  0
 28 26  1  0  0  0  0
 29 30  1  0  0  0  0
 29 32  1  0  0  0  0
 30 33  1  0  0  0  0
 31 30  2  0  0  0  0
 32 27  1  0  0  0  0
 33 27  2  0  0  0  0
M  END
>  <MODEL>
1

>  <REMARK>
 VINA RESULT:      -7.5      0.000      0.000
  Name = 
  7 active torsions:
  status: ('A' for Active; 'I' for Inactive)
    1  A    between atoms: C_1  and  O_15
    2  A    between atoms: N_8  and  C_29
    3  A    between atoms: C_9  and  O_15
    4  A    between atoms: C_9  and  C_29
    5  A    between atoms: C_10  and  C_32
    6  A    between atoms: O_18  and  C_26
    7  A    between atoms: C_27  and  O_33
                            x       y       z     vdW  Elec       q    Type
                         _______ _______ _______ _____ _____    ______ ____

>  <TORSDO>
F 7

$$$$
=
 OpenBabel10232410253D

 33 36  0  0  1  0  0  0  0  0999 V2000
  188.0750  178.4900  140.5280 C   0  0  2  0  0  3  0  0  0  0  0  0
  189.6740  177.1030  139.2090 C   0  0  1  0  0  3  0  0  0  0  0  0
  189.7470  176.0610  138.1130 C   0  0  0  0  0  1  0  0  0  0  0  0
  187.7540  177.6810  142.8290 C   0  0  0  0  0  3  0  0  0  0  0  0
  191.9530  177.8800  143.4150 O   0  0  0  0  0  1  0  0  0  0  0  0
  190.0390  178.5270  142.1720 C   0  0  2  0  0  3  0  0  0  0  0  0
  190.8800  177.3730  142.6900 C   0  0  1  0  0  3  0  0  0  0  0  0
  188.2140  177.2990  139.5960 C   0  0  0  0  0  2  0  0  0  0  0  0
  188.5950  178.1710  141.9030 C   0  0  0  0  0  0  0  0  0  0  0  0
  191.0250  177.7850  141.2440 C   0  0  1  0  0  3  0  0  0  0  0  0
  190.4820  176.6220  140.4050 C   0  0  0  0  0  2  0  0  0  0  0  0
  187.1980  178.0190  145.3440 C   0  0  0  0  0  0  0  0  0  0  0  0
  189.0680  176.8470  144.7950 C   0  0  0  0  0  3  0  0  0  0  0  0
  185.9610  178.4220  145.2320 C   0  0  0  0  0  0  0  0  0  0  0  0
  184.7870  178.7990  145.1270 O   0  0  0  0  0  0  0  0  0  0  0  0
  187.8340  177.5920  146.5770 C   0  0  0  0  0  0  0  0  0  0  0  0
  188.9430  176.9300  146.2560 C   0  0  0  0  0  0  0  0  0  0  0  0
  188.0140  177.4690  144.2660 C   0  0  0  0  0  0  0  0  0  0  0  0
  191.2520  176.4600  146.9580 C   0  0  0  0  0  1  0  0  0  0  0  0
  189.8490  176.3970  147.1720 O   0  0  0  0  0  0  0  0  0  0  0  0
  187.3400  177.8540  147.8620 O   0  0  0  0  0  0  0  0  0  0  0  0
  188.1700  178.1880  148.9620 C   0  0  0  0  0  1  0  0  0  0  0  0
  186.7480  178.9400  140.5710 O   0  0  0  0  0  0  0  0  0  0  0  0
  186.1480  178.4570  139.3990 C   0  0  0  0  0  2  0  0  0  0  0  0
  184.1390  177.9570  140.7810 C   0  0  0  0  0  1  0  0  0  0  0  0
  184.6300  178.5650  139.4820 C   0  0  1  0  0  3  0  0  0  0  0  0
  182.9250  180.3330  138.9140 C   0  0  0  0  0  0  0  0  0  0  0  0
  184.2170  179.9560  139.3930 N   0  0  0  0  0  2  0  0  0  0  0  0
  180.1280  180.5760  138.5820 S   0  0  0  0  0  0  0  0  0  0  0  0
  181.3380  181.8360  138.2430 C   0  0  0  0  0  0  0  0  0  0  0  0
  181.0590  182.8910  137.4920 C   0  0  0  0  0  2  0  0  0  0  0  0
  181.6790  179.1090  138.4760 S   0  0  0  0  0  0  0  0  0  0  0  0
  182.6630  181.5730  138.6720 N   0  0  0  0  0  0  0  0  0  0  0  0
  1 23  1  1  0  0  0
  1  9  1  0  0  0  0
  2  3  1  6  0  0  0
  2  8  1  0  0  0  0
  2 11  1  0  0  0  0
  4 18  1  0  0  0  0
  6  9  1  6  0  0  0
  6  7  1  0  0  0  0
  7  5  1  1  0  0  0
  8  1  1  0  0  0  0
  9  4  2  0  0  0  0
 10 11  1  6  0  0  0
 10  6  1  0  0  0  0
 10  7  1  0  0  0  0
 12 16  1  0  0  0  0
 13 17  1  0  0  0  0
 14 12  2  0  0  0  0
 15 14  2  0  0  0  0
 16 21  1  0  0  0  0
 17 16  2  0  0  0  0
 17 20  1  0  0  0  0
 18 13  2  0  0  0  0
 18 12  1  0  0  0  0
 19 20  1  0  0  0  0
 21 22  1  0  0  0  0
 24 26  1  0  0  0  0
 24 23  1  0  0  0  0
 26 25  1  1  0  0  0
 27 28  1  0  0  0  0
 28 26  1  0  0  0  0
 30 29  1  0  0  0  0
 30 33  1  0  0  0  0
 31 30  2  0  0  0  0
 32 29  1  0  0  0  0
 32 27  1  0  0  0  0
 33 27  2  0  0  0  0
M  END
>  <MODEL>
2

>  <REMARK>
 VINA RESULT:      -7.3      2.496      5.948
  Name = 
  7 active torsions:
  status: ('A' for Active; 'I' for Inactive)
    1  A    between atoms: C_1  and  O_15
    2  A    between atoms: N_8  and  C_29
    3  A    between atoms: C_9  and  O_15
    4  A    between atoms: C_9  and  C_29
    5  A    between atoms: C_10  and  C_32
    6  A    between atoms: O_18  and  C_26
    7  A    between atoms: C_27  and  O_33
                            x       y       z     vdW  Elec       q    Type
                         _______ _______ _______ _____ _____    ______ ____

>  <TORSDO>
F 7

$$$$
=
 OpenBabel10232410253D

 33 36  0  0  1  0  0  0  0  0999 V2000
  188.3270  178.3030  140.2570 C   0  0  2  0  0  3  0  0  0  0  0  0
  190.0850  176.9460  139.1210 C   0  0  1  0  0  3  0  0  0  0  0  0
  190.2910  175.8720  138.0730 C   0  0  0  0  0  1  0  0  0  0  0  0
  187.8560  177.5570  142.5530 C   0  0  0  0  0  3  0  0  0  0  0  0
  191.9810  177.9660  143.4630 O   0  0  0  0  0  1  0  0  0  0  0  0
  190.1480  178.4830  142.0490 C   0  0  2  0  0  3  0  0  0  0  0  0
  190.9930  177.3860  142.6740 C   0  0  1  0  0  3  0  0  0  0  0  0
  188.5920  177.0880  139.3840 C   0  0  0  0  0  2  0  0  0  0  0  0
  188.7470  178.0530  141.6800 C   0  0  0  0  0  0  0  0  0  0  0  0
  191.2370  177.7560  141.2300 C   0  0  1  0  0  3  0  0  0  0  0  0
  190.8140  176.5420  140.3950 C   0  0  0  0  0  2  0  0  0  0  0  0
  187.0750  177.9400  145.0010 C   0  0  0  0  0  0  0  0  0  0  0  0
  189.0460  176.8630  144.6480 C   0  0  0  0  0  3  0  0  0  0  0  0
  185.8310  178.2670  144.7750 C   0  0  0  0  0  0  0  0  0  0  0  0
  184.6510  178.5710  144.5630 O   0  0  0  0  0  0  0  0  0  0  0  0
  187.6290  177.5890  146.2960 C   0  0  0  0  0  0  0  0  0  0  0  0
  188.7960  176.9840  146.0890 C   0  0  0  0  0  0  0  0  0  0  0  0
  188.0070  177.4050  144.0130 C   0  0  0  0  0  0  0  0  0  0  0  0
  191.0630  176.6260  146.9710 C   0  0  0  0  0  1  0  0  0  0  0  0
  189.6510  176.5320  147.0950 O   0  0  0  0  0  0  0  0  0  0  0  0
  187.0170  177.8620  147.5270 O   0  0  0  0  0  0  0  0  0  0  0  0
  187.7260  178.3260  148.6640 C   0  0  0  0  0  1  0  0  0  0  0  0
  186.9830  178.6920  140.1770 O   0  0  0  0  0  0  0  0  0  0  0  0
  186.5790  178.3900  138.8690 C   0  0  0  0  0  2  0  0  0  0  0  0
  184.6090  177.4080  137.7070 C   0  0  0  0  0  1  0  0  0  0  0  0
  185.0600  178.4070  138.7530 C   0  0  1  0  0  3  0  0  0  0  0  0
  183.1680  178.6030  140.4080 C   0  0  0  0  0  0  0  0  0  0  0  0
  184.4520  178.0980  140.0370 N   0  0  0  0  0  2  0  0  0  0  0  0
  180.4100  179.2230  140.4370 S   0  0  0  0  0  0  0  0  0  0  0  0
  181.4420  178.9640  141.8640 C   0  0  0  0  0  0  0  0  0  0  0  0
  181.0780  179.3640  143.0730 C   0  0  0  0  0  2  0  0  0  0  0  0
  182.1670  179.5820  139.2750 S   0  0  0  0  0  0  0  0  0  0  0  0
  182.7460  178.4640  141.6190 N   0  0  0  0  0  0  0  0  0  0  0  0
  1 23  1  1  0  0  0
  1  9  1  0  0  0  0
  2  3  1  6  0  0  0
  2  8  1  0  0  0  0
  2 11  1  0  0  0  0
  4 18  1  0  0  0  0
  6  9  1  6  0  0  0
  6  7  1  0  0  0  0
  7  5  1  1  0  0  0
  8  1  1  0  0  0  0
  9  4  2  0  0  0  0
 10 11  1  6  0  0  0
 10  6  1  0  0  0  0
 10  7  1  0  0  0  0
 12 16  1  0  0  0  0
 13 17  1  0  0  0  0
 14 12  2  0  0  0  0
 15 14  2  0  0  0  0
 16 21  1  0  0  0  0
 17 16  2  0  0  0  0
 17 20  1  0  0  0  0
 18 13  2  0  0  0  0
 18 12  1  0  0  0  0
 19 20  1  0  0  0  0
 21 22  1  0  0  0  0
 24 23  1  0  0  0  0
 26 25  1  6  0  0  0
 26 24  1  0  0  0  0
 26 28  1  0  0  0  0
 27 33  2  0  0  0  0
 28 27  1  0  0  0  0
 29 30  1  0  0  0  0
 30 31  2  0  0  0  0
 32 27  1  0  0  0  0
 32 29  1  0  0  0  0
 33 30  1  0  0  0  0
M  END
>  <MODEL>
3

>  <REMARK>
 VINA RESULT:      -7.1      2.336      6.151
  Name = 
  7 active torsions:
  status: ('A' for Active; 'I' for Inactive)
    1  A    between atoms: C_1  and  O_15
    2  A    between atoms: N_8  and  C_29
    3  A    between atoms: C_9  and  O_15
    4  A    between atoms: C_9  and  C_29
    5  A    between atoms: C_10  and  C_32
    6  A    between atoms: O_18  and  C_26
    7  A    between atoms: C_27  and  O_33
                            x       y       z     vdW  Elec       q    Type
                         _______ _______ _______ _____ _____    ______ ____

>  <TORSDO>
F 7

$$$$
=
 OpenBabel10232410253D

 33 36  0  0  1  0  0  0  0  0999 V2000
  190.4010  177.3290  142.5790 C   0  0  2  0  0  3  0  0  0  0  0  0
  191.5880  175.8760  144.2230 C   0  0  1  0  0  3  0  0  0  0  0  0
  192.2300  174.5140  144.3870 C   0  0  0  0  0  1  0  0  0  0  0  0
  187.9820  177.4890  142.9930 C   0  0  0  0  0  3  0  0  0  0  0  0
  188.8090  178.7540  146.9580 O   0  0  0  0  0  1  0  0  0  0  0  0
  189.5510  178.4330  144.7290 C   0  0  2  0  0  3  0  0  0  0  0  0
  188.9540  177.7890  145.9670 C   0  0  1  0  0  3  0  0  0  0  0  0
  190.8650  175.9150  142.8830 C   0  0  0  0  0  2  0  0  0  0  0  0
  189.2280  177.7140  143.4390 C   0  0  0  0  0  0  0  0  0  0  0  0
  190.4240  177.5910  145.6840 C   0  0  1  0  0  3  0  0  0  0  0  0
  190.6070  176.1030  145.3640 C   0  0  0  0  0  2  0  0  0  0  0  0
  185.7510  178.8200  142.9250 C   0  0  0  0  0  0  0  0  0  0  0  0
  186.2990  177.7170  144.8370 C   0  0  0  0  0  3  0  0  0  0  0  0
  185.6610  179.0110  141.6370 C   0  0  0  0  0  0  0  0  0  0  0  0
  185.5720  179.1890  140.4150 O   0  0  0  0  0  0  0  0  0  0  0  0
  184.6810  179.0300  143.8830 C   0  0  0  0  0  0  0  0  0  0  0  0
  185.0150  178.4080  145.0100 C   0  0  0  0  0  0  0  0  0  0  0  0
  186.7110  177.9430  143.5900 C   0  0  0  0  0  0  0  0  0  0  0  0
  184.8370  178.1410  147.4480 C   0  0  0  0  0  1  0  0  0  0  0  0
  184.2560  178.4130  146.1810 O   0  0  0  0  0  0  0  0  0  0  0  0
  183.5180  179.7700  143.6300 O   0  0  0  0  0  0  0  0  0  0  0  0
  182.2650  179.1750  143.3360 C   0  0  0  0  0  1  0  0  0  0  0  0
  190.1120  177.4780  141.2150 O   0  0  0  0  0  0  0  0  0  0  0  0
  191.3270  177.2680  140.5470 C   0  0  0  0  0  2  0  0  0  0  0  0
  192.2700  176.4240  138.4030 C   0  0  0  0  0  1  0  0  0  0  0  0
  191.1040  177.1490  139.0440 C   0  0  1  0  0  3  0  0  0  0  0  0
  188.8130  177.0270  137.9990 C   0  0  0  0  0  0  0  0  0  0  0  0
  189.8640  176.4430  138.7700 N   0  0  0  0  0  2  0  0  0  0  0  0
  187.3450  178.2540  135.9170 S   0  0  0  0  0  0  0  0  0  0  0  0
  186.7080  177.0950  137.1090 C   0  0  0  0  0  0  0  0  0  0  0  0
  185.4080  176.9580  137.3260 C   0  0  0  0  0  2  0  0  0  0  0  0
  188.9850  178.6470  137.2300 S   0  0  0  0  0  0  0  0  0  0  0  0
  187.6610  176.4500  137.9360 N   0  0  0  0  0  0  0  0  0  0  0  0
  1 23  1  6  0  0  0
  1  8  1  0  0  0  0
  1  9  1  0  0  0  0
  2  3  1  1  0  0  0
  2 11  1  0  0  0  0
  4  9  2  0  0  0  0
  4 18  1  0  0  0  0
  6  9  1  6  0  0  0
  6 10  1  0  0  0  0
  6  7  1  0  0  0  0
  7  5  1  1  0  0  0
  8  2  1  0  0  0  0
 10 11  1  6  0  0  0
 10  7  1  0  0  0  0
 12 18  1  0  0  0  0
 12 16  1  0  0  0  0
 13 17  1  0  0  0  0
 14 12  2  0  0  0  0
 15 14  2  0  0  0  0
 16 17  2  0  0  0  0
 17 20  1  0  0  0  0
 18 13  2  0  0  0  0
 20 19  1  0  0  0  0
 21 16  1  0  0  0  0
 22 21  1  0  0  0  0
 24 23  1  0  0  0  0
 26 25  1  6  0  0  0
 26 24  1  0  0  0  0
 27 28  1  0  0  0  0
 28 26  1  0  0  0  0
 29 30  1  0  0  0  0
 29 32  1  0  0  0  0
 30 31  2  0  0  0  0
 30 33  1  0  0  0  0
 32 27  1  0  0  0  0
 33 27  2  0  0  0  0
M  END
>  <MODEL>
4

>  <REMARK>
 VINA RESULT:      -7.0      3.709      7.077
  Name = 
  7 active torsions:
  status: ('A' for Active; 'I' for Inactive)
    1  A    between atoms: C_1  and  O_15
    2  A    between atoms: N_8  and  C_29
    3  A    between atoms: C_9  and  O_15
    4  A    between atoms: C_9  and  C_29
    5  A    between atoms: C_10  and  C_32
    6  A    between atoms: O_18  and  C_26
    7  A    between atoms: C_27  and  O_33
                            x       y       z     vdW  Elec       q    Type
                         _______ _______ _______ _____ _____    ______ ____

>  <TORSDO>
F 7

$$$$
=
 OpenBabel10232410253D

 33 36  0  0  1  0  0  0  0  0999 V2000
  188.9320  178.1420  139.9750 C   0  0  2  0  0  3  0  0  0  0  0  0
  190.9940  176.8710  139.3780 C   0  0  1  0  0  3  0  0  0  0  0  0
  191.5130  175.7680  138.4790 C   0  0  0  0  0  1  0  0  0  0  0  0
  187.9670  177.4700  142.1360 C   0  0  0  0  0  3  0  0  0  0  0  0
  191.7170  178.2310  143.9720 O   0  0  0  0  0  1  0  0  0  0  0  0
  190.2520  178.5420  142.1340 C   0  0  2  0  0  3  0  0  0  0  0  0
  190.9860  177.5430  143.0090 C   0  0  1  0  0  3  0  0  0  0  0  0
  189.4750  176.9120  139.2680 C   0  0  0  0  0  2  0  0  0  0  0  0
  189.0110  177.9910  141.4700 C   0  0  0  0  0  0  0  0  0  0  0  0
  191.5490  177.8630  141.6450 C   0  0  1  0  0  3  0  0  0  0  0  0
  191.4170  176.5830  140.8110 C   0  0  0  0  0  2  0  0  0  0  0  0
  186.6230  177.9560  144.3050 C   0  0  0  0  0  0  0  0  0  0  0  0
  188.6380  176.9180  144.4880 C   0  0  0  0  0  3  0  0  0  0  0  0
  185.4630  178.2350  143.7740 C   0  0  0  0  0  0  0  0  0  0  0  0
  184.3620  178.4950  143.2720 O   0  0  0  0  0  0  0  0  0  0  0  0
  186.8600  177.6880  145.7120 C   0  0  0  0  0  0  0  0  0  0  0  0
  188.0520  177.1060  145.8210 C   0  0  0  0  0  0  0  0  0  0  0  0
  187.7710  177.3970  143.5970 C   0  0  0  0  0  0  0  0  0  0  0  0
  189.3500  177.6670  147.8320 C   0  0  0  0  0  1  0  0  0  0  0  0
  188.6510  176.7310  147.0230 O   0  0  0  0  0  0  0  0  0  0  0  0
  185.9700  178.0060  146.7460 O   0  0  0  0  0  0  0  0  0  0  0  0
  185.9850  179.2470  147.4330 C   0  0  0  0  0  1  0  0  0  0  0  0
  187.6250  178.4250  139.5530 O   0  0  0  0  0  0  0  0  0  0  0  0
  187.4080  177.6150  138.4290 C   0  0  0  0  0  2  0  0  0  0  0  0
  187.0850  178.4080  136.0920 C   0  0  0  0  0  1  0  0  0  0  0  0
  186.4430  178.2850  137.4590 C   0  0  1  0  0  3  0  0  0  0  0  0
  184.0890  177.7870  138.2110 C   0  0  0  0  0  0  0  0  0  0  0  0
  185.2090  177.5220  137.3650 N   0  0  0  0  0  2  0  0  0  0  0  0
  181.9590  179.0680  139.5590 S   0  0  0  0  0  0  0  0  0  0  0  0
  182.0140  177.3570  139.0710 C   0  0  0  0  0  0  0  0  0  0  0  0
  181.1950  176.4550  139.5910 C   0  0  0  0  0  2  0  0  0  0  0  0
  184.0890  179.1460  139.3920 S   0  0  0  0  0  0  0  0  0  0  0  0
  183.0870  176.9730  138.2280 N   0  0  0  0  0  0  0  0  0  0  0  0
  1 23  1  1  0  0  0
  1  9  1  0  0  0  0
  2  3  1  6  0  0  0
  2 11  1  0  0  0  0
  4 18  1  0  0  0  0
  6  9  1  6  0  0  0
  6  7  1  0  0  0  0
  7  5  1  1  0  0  0
  8  2  1  0  0  0  0
  8  1  1  0  0  0  0
  9  4  2  0  0  0  0
 10 11  1  6  0  0  0
 10  6  1  0  0  0  0
 10  7  1  0  0  0  0
 12 16  1  0  0  0  0
 13 17  1  0  0  0  0
 14 12  2  0  0  0  0
 15 14  2  0  0  0  0
 16 17  2  0  0  0  0
 16 21  1  0  0  0  0
 17 20  1  0  0  0  0
 18 12  1  0  0  0  0
 18 13  2  0  0  0  0
 20 19  1  0  0  0  0
 21 22  1  0  0  0  0
 24 23  1  0  0  0  0
 26 25  1  6  0  0  0
 26 24  1  0  0  0  0
 27 33  2  0  0  0  0
 27 32  1  0  0  0  0
 28 26  1  0  0  0  0
 28 27  1  0  0  0  0
 30 29  1  0  0  0  0
 30 31  2  0  0  0  0
 32 29  1  0  0  0  0
 33 30  1  0  0  0  0
M  END
>  <MODEL>
5

>  <REMARK>
 VINA RESULT:      -6.8      2.520      6.420
  Name = 
  7 active torsions:
  status: ('A' for Active; 'I' for Inactive)
    1  A    between atoms: C_1  and  O_15
    2  A    between atoms: N_8  and  C_29
    3  A    between atoms: C_9  and  O_15
    4  A    between atoms: C_9  and  C_29
    5  A    between atoms: C_10  and  C_32
    6  A    between atoms: O_18  and  C_26
    7  A    between atoms: C_27  and  O_33
                            x       y       z     vdW  Elec       q    Type
                         _______ _______ _______ _____ _____    ______ ____

>  <TORSDO>
F 7

$$$$
=
 OpenBabel10232410253D

 33 36  0  0  1  0  0  0  0  0999 V2000
  187.0990  178.7840  141.6590 C   0  0  2  0  0  3  0  0  0  0  0  0
  187.4210  177.9230  143.9780 C   0  0  1  0  0  3  0  0  0  0  0  0
  188.2030  176.9140  144.7920 C   0  0  0  0  0  1  0  0  0  0  0  0
  185.0090  178.0100  140.6160 C   0  0  0  0  0  3  0  0  0  0  0  0
  182.8590  179.5580  143.9330 O   0  0  0  0  0  1  0  0  0  0  0  0
  184.8460  179.5100  142.6390 C   0  0  2  0  0  3  0  0  0  0  0  0
  183.8500  178.7060  143.4550 C   0  0  1  0  0  3  0  0  0  0  0  0
  187.6800  177.6610  142.5000 C   0  0  0  0  0  2  0  0  0  0  0  0
  185.5970  178.7030  141.6050 C   0  0  0  0  0  0  0  0  0  0  0  0
  185.1680  179.0830  144.0870 C   0  0  1  0  0  3  0  0  0  0  0  0
  185.9400  177.7740  144.2930 C   0  0  0  0  0  2  0  0  0  0  0  0
  182.7900  179.0830  139.7930 C   0  0  0  0  0  0  0  0  0  0  0  0
  182.7590  176.9130  140.4730 C   0  0  0  0  0  3  0  0  0  0  0  0
  183.2750  180.1520  139.2210 C   0  0  0  0  0  0  0  0  0  0  0  0
  183.7330  181.1630  138.6750 O   0  0  0  0  0  0  0  0  0  0  0  0
  181.4360  178.5860  139.6340 C   0  0  0  0  0  0  0  0  0  0  0  0
  181.4120  177.3250  140.0590 C   0  0  0  0  0  0  0  0  0  0  0  0
  183.5720  177.9520  140.2830 C   0  0  0  0  0  0  0  0  0  0  0  0
  180.3570  175.1060  139.9700 C   0  0  0  0  0  1  0  0  0  0  0  0
  180.2750  176.5180  140.1010 O   0  0  0  0  0  0  0  0  0  0  0  0
  180.3660  179.3350  139.1260 O   0  0  0  0  0  0  0  0  0  0  0  0
  179.9970  179.3370  137.7560 C   0  0  0  0  0  1  0  0  0  0  0  0
  187.6600  178.7890  140.3740 O   0  0  0  0  0  0  0  0  0  0  0  0
  188.8310  178.0240  140.4710 C   0  0  0  0  0  2  0  0  0  0  0  0
  190.8350  177.2850  139.1930 C   0  0  0  0  0  1  0  0  0  0  0  0
  189.3810  177.6980  139.0880 C   0  0  1  0  0  3  0  0  0  0  0  0
  187.7300  176.8820  137.3660 C   0  0  0  0  0  0  0  0  0  0  0  0
  188.6020  176.6380  138.4710 N   0  0  0  0  0  2  0  0  0  0  0  0
  186.7060  177.6620  134.8490 S   0  0  0  0  0  0  0  0  0  0  0  0
  186.1320  176.2990  135.8390 C   0  0  0  0  0  0  0  0  0  0  0  0
  184.9540  175.7300  135.6300 C   0  0  0  0  0  2  0  0  0  0  0  0
  187.6030  178.5050  136.5970 S   0  0  0  0  0  0  0  0  0  0  0  0
  186.9190  175.9610  136.9680 N   0  0  0  0  0  0  0  0  0  0  0  0
  1 23  1  6  0  0  0
  1  8  1  0  0  0  0
  2 11  1  0  0  0  0
  2  3  1  1  0  0  0
  4  9  2  0  0  0  0
  6  9  1  6  0  0  0
  6  7  1  0  0  0  0
  6 10  1  0  0  0  0
  7  5  1  1  0  0  0
  7 10  1  0  0  0  0
  8  2  1  0  0  0  0
  9  1  1  0  0  0  0
 10 11  1  6  0  0  0
 12 18  1  0  0  0  0
 14 12  2  0  0  0  0
 15 14  2  0  0  0  0
 16 12  1  0  0  0  0
 16 17  2  0  0  0  0
 17 20  1  0  0  0  0
 17 13  1  0  0  0  0
 18 13  2  0  0  0  0
 18  4  1  0  0  0  0
 19 20  1  0  0  0  0
 21 16  1  0  0  0  0
 22 21  1  0  0  0  0
 23 24  1  0  0  0  0
 26 25  1  1  0  0  0
 26 24  1  0  0  0  0
 27 28  1  0  0  0  0
 28 26  1  0  0  0  0
 29 30  1  0  0  0  0
 29 32  1  0  0  0  0
 30 33  1  0  0  0  0
 31 30  2  0  0  0  0
 32 27  1  0  0  0  0
 33 27  2  0  0  0  0
M  END
>  <MODEL>
6

>  <REMARK>
 VINA RESULT:      -6.8      3.441      6.478
  Name = 
  7 active torsions:
  status: ('A' for Active; 'I' for Inactive)
    1  A    between atoms: C_1  and  O_15
    2  A    between atoms: N_8  and  C_29
    3  A    between atoms: C_9  and  O_15
    4  A    between atoms: C_9  and  C_29
    5  A    between atoms: C_10  and  C_32
    6  A    between atoms: O_18  and  C_26
    7  A    between atoms: C_27  and  O_33
                            x       y       z     vdW  Elec       q    Type
                         _______ _______ _______ _____ _____    ______ ____

>  <TORSDO>
F 7

$$$$
=
 OpenBabel10232410253D

 33 36  0  0  1  0  0  0  0  0999 V2000
  187.8740  176.9830  144.2430 C   0  0  2  0  0  3  0  0  0  0  0  0
  188.9480  177.4090  146.4540 C   0  0  1  0  0  3  0  0  0  0  0  0
  188.9330  178.3490  147.6410 C   0  0  0  0  0  1  0  0  0  0  0  0
  189.2970  177.6040  142.3350 C   0  0  0  0  0  3  0  0  0  0  0  0
  192.3590  175.1110  143.8910 O   0  0  0  0  0  1  0  0  0  0  0  0
  190.0700  175.7280  143.8360 C   0  0  2  0  0  3  0  0  0  0  0  0
  191.4970  176.1860  144.0770 C   0  0  1  0  0  3  0  0  0  0  0  0
  188.0670  177.9960  145.3580 C   0  0  0  0  0  2  0  0  0  0  0  0
  189.1250  176.8320  143.4210 C   0  0  0  0  0  0  0  0  0  0  0  0
  190.6130  175.9070  145.2690 C   0  0  1  0  0  3  0  0  0  0  0  0
  190.3790  177.2550  145.9610 C   0  0  0  0  0  2  0  0  0  0  0  0
  190.1240  177.0670  139.9310 C   0  0  0  0  0  0  0  0  0  0  0  0
  191.6590  177.6710  141.4960 C   0  0  0  0  0  3  0  0  0  0  0  0
  188.9770  177.0910  139.3060 C   0  0  0  0  0  0  0  0  0  0  0  0
  187.8920  177.1180  138.7120 O   0  0  0  0  0  0  0  0  0  0  0  0
  191.4280  177.0780  139.2940 C   0  0  0  0  0  0  0  0  0  0  0  0
  192.3290  177.4040  140.2170 C   0  0  0  0  0  0  0  0  0  0  0  0
  190.3510  177.4980  141.3070 C   0  0  0  0  0  0  0  0  0  0  0  0
  194.5600  176.3700  140.2310 C   0  0  0  0  0  1  0  0  0  0  0  0
  193.7050  177.4800  139.9990 O   0  0  0  0  0  0  0  0  0  0  0  0
  191.6590  176.7850  137.9440 O   0  0  0  0  0  0  0  0  0  0  0  0
  192.1540  175.5360  137.4910 C   0  0  0  0  0  1  0  0  0  0  0  0
  186.7710  177.3200  143.4460 O   0  0  0  0  0  0  0  0  0  0  0  0
  185.8680  177.9630  144.3050 C   0  0  0  0  0  2  0  0  0  0  0  0
  184.1800  179.7930  144.3290 C   0  0  0  0  0  1  0  0  0  0  0  0
  184.7710  178.6620  143.5110 C   0  0  1  0  0  3  0  0  0  0  0  0
  184.7130  178.8450  140.9980 C   0  0  0  0  0  0  0  0  0  0  0  0
  185.3000  179.1730  142.2580 N   0  0  0  0  0  2  0  0  0  0  0  0
  182.8780  178.5140  138.8720 S   0  0  0  0  0  0  0  0  0  0  0  0
  184.6230  178.8260  138.7130 C   0  0  0  0  0  0  0  0  0  0  0  0
  185.2740  178.6030  137.5810 C   0  0  0  0  0  2  0  0  0  0  0  0
  183.2170  177.8500  140.8760 S   0  0  0  0  0  0  0  0  0  0  0  0
  185.3170  179.1620  139.9030 N   0  0  0  0  0  0  0  0  0  0  0  0
  1 23  1  6  0  0  0
  1  8  1  0  0  0  0
  2  3  1  1  0  0  0
  4  9  2  0  0  0  0
  6  9  1  6  0  0  0
  6  7  1  0  0  0  0
  6 10  1  0  0  0  0
  7  5  1  1  0  0  0
  7 10  1  0  0  0  0
  8  2  1  0  0  0  0
  9  1  1  0  0  0  0
 10 11  1  6  0  0  0
 11  2  1  0  0  0  0
 12 18  1  0  0  0  0
 14 12  2  0  0  0  0
 15 14  2  0  0  0  0
 16 12  1  0  0  0  0
 16 17  2  0  0  0  0
 17 13  1  0  0  0  0
 18 13  2  0  0  0  0
 18  4  1  0  0  0  0
 20 17  1  0  0  0  0
 20 19  1  0  0  0  0
 21 16  1  0  0  0  0
 22 21  1  0  0  0  0
 23 24  1  0  0  0  0
 26 24  1  0  0  0  0
 26 25  1  1  0  0  0
 27 28  1  0  0  0  0
 28 26  1  0  0  0  0
 29 32  1  0  0  0  0
 30 29  1  0  0  0  0
 30 33  1  0  0  0  0
 31 30  2  0  0  0  0
 32 27  1  0  0  0  0
 33 27  2  0  0  0  0
M  END
>  <MODEL>
7

>  <REMARK>
 VINA RESULT:      -6.8      2.645      3.808
  Name = 
  7 active torsions:
  status: ('A' for Active; 'I' for Inactive)
    1  A    between atoms: C_1  and  O_15
    2  A    between atoms: N_8  and  C_29
    3  A    between atoms: C_9  and  O_15
    4  A    between atoms: C_9  and  C_29
    5  A    between atoms: C_10  and  C_32
    6  A    between atoms: O_18  and  C_26
    7  A    between atoms: C_27  and  O_33
                            x       y       z     vdW  Elec       q    Type
                         _______ _______ _______ _____ _____    ______ ____

>  <TORSDO>
F 7

$$$$
=
 OpenBabel10232410253D

 33 36  0  0  1  0  0  0  0  0999 V2000
  186.3840  178.6360  142.8830 C   0  0  2  0  0  3  0  0  0  0  0  0
  185.9660  178.1610  145.2960 C   0  0  1  0  0  3  0  0  0  0  0  0
  186.4110  177.2840  146.4470 C   0  0  0  0  0  1  0  0  0  0  0  0
  184.6340  177.7450  141.4000 C   0  0  0  0  0  3  0  0  0  0  0  0
  181.7320  179.8600  143.6620 O   0  0  0  0  0  1  0  0  0  0  0  0
  183.9990  179.5600  143.0340 C   0  0  2  0  0  3  0  0  0  0  0  0
  182.7580  178.9210  143.6310 C   0  0  1  0  0  3  0  0  0  0  0  0
  186.6220  177.6550  144.0180 C   0  0  0  0  0  2  0  0  0  0  0  0
  184.9590  178.5790  142.4020 C   0  0  0  0  0  0  0  0  0  0  0  0
  183.8610  179.3700  144.5600 C   0  0  1  0  0  3  0  0  0  0  0  0
  184.4500  178.0970  145.1790 C   0  0  0  0  0  2  0  0  0  0  0  0
  182.7950  178.7370  139.8570 C   0  0  0  0  0  0  0  0  0  0  0  0
  182.4780  176.6590  140.7250 C   0  0  0  0  0  3  0  0  0  0  0  0
  183.4680  179.7290  139.3400 C   0  0  0  0  0  0  0  0  0  0  0  0
  184.1070  180.6660  138.8460 O   0  0  0  0  0  0  0  0  0  0  0  0
  181.5240  178.2370  139.3640 C   0  0  0  0  0  0  0  0  0  0  0  0
  181.3260  177.0330  139.8950 C   0  0  0  0  0  0  0  0  0  0  0  0
  183.3540  177.6610  140.6710 C   0  0  0  0  0  0  0  0  0  0  0  0
  180.1260  175.2900  138.6430 C   0  0  0  0  0  1  0  0  0  0  0  0
  180.1920  176.2470  139.6910 O   0  0  0  0  0  0  0  0  0  0  0  0
  180.6790  178.9330  138.4890 O   0  0  0  0  0  0  0  0  0  0  0  0
  180.5260  178.5950  137.1200 C   0  0  0  0  0  1  0  0  0  0  0  0
  187.2900  178.4190  141.8360 O   0  0  0  0  0  0  0  0  0  0  0  0
  188.2600  177.5470  142.3520 C   0  0  0  0  0  2  0  0  0  0  0  0
  190.4890  178.2890  143.1770 C   0  0  0  0  0  1  0  0  0  0  0  0
  189.6600  177.9920  141.9440 C   0  0  1  0  0  3  0  0  0  0  0  0
  190.0550  176.8300  139.7420 C   0  0  0  0  0  0  0  0  0  0  0  0
  190.3030  176.9660  141.1420 N   0  0  0  0  0  2  0  0  0  0  0  0
  189.8100  177.3540  136.9740 S   0  0  0  0  0  0  0  0  0  0  0  0
  190.2270  175.7900  137.7130 C   0  0  0  0  0  0  0  0  0  0  0  0
  190.1360  174.6520  137.0400 C   0  0  0  0  0  2  0  0  0  0  0  0
  188.9960  177.9810  138.8480 S   0  0  0  0  0  0  0  0  0  0  0  0
  190.4950  175.7980  139.1050 N   0  0  0  0  0  0  0  0  0  0  0  0
  1 23  1  6  0  0  0
  1  8  1  0  0  0  0
  2  3  1  1  0  0  0
  4  9  2  0  0  0  0
  6  9  1  6  0  0  0
  6  7  1  0  0  0  0
  6 10  1  0  0  0  0
  7  5  1  1  0  0  0
  7 10  1  0  0  0  0
  8  2  1  0  0  0  0
  9  1  1  0  0  0  0
 10 11  1  6  0  0  0
 11  2  1  0  0  0  0
 12 18  1  0  0  0  0
 14 12  2  0  0  0  0
 15 14  2  0  0  0  0
 16 12  1  0  0  0  0
 16 17  2  0  0  0  0
 17 13  1  0  0  0  0
 18 13  2  0  0  0  0
 18  4  1  0  0  0  0
 19 20  1  0  0  0  0
 20 17  1  0  0  0  0
 21 16  1  0  0  0  0
 22 21  1  0  0  0  0
 23 24  1  0  0  0  0
 26 24  1  0  0  0  0
 26 25  1  1  0  0  0
 27 28  1  0  0  0  0
 28 26  1  0  0  0  0
 29 30  1  0  0  0  0
 29 32  1  0  0  0  0
 30 33  1  0  0  0  0
 31 30  2  0  0  0  0
 32 27  1  0  0  0  0
 33 27  2  0  0  0  0
M  END
>  <MODEL>
8

>  <REMARK>
 VINA RESULT:      -6.7      3.985      6.919
  Name = 
  7 active torsions:
  status: ('A' for Active; 'I' for Inactive)
    1  A    between atoms: C_1  and  O_15
    2  A    between atoms: N_8  and  C_29
    3  A    between atoms: C_9  and  O_15
    4  A    between atoms: C_9  and  C_29
    5  A    between atoms: C_10  and  C_32
    6  A    between atoms: O_18  and  C_26
    7  A    between atoms: C_27  and  O_33
                            x       y       z     vdW  Elec       q    Type
                         _______ _______ _______ _____ _____    ______ ____

>  <TORSDO>
F 7

$$$$
=
 OpenBabel10232410253D

 33 36  0  0  1  0  0  0  0  0999 V2000
  186.1440  178.2500  138.1430 C   0  0  2  0  0  3  0  0  0  0  0  0
  184.8220  177.4210  136.1970 C   0  0  1  0  0  3  0  0  0  0  0  0
  183.5930  176.6170  135.8270 C   0  0  0  0  0  1  0  0  0  0  0  0
  188.2380  177.0070  138.4950 C   0  0  0  0  0  3  0  0  0  0  0  0
  189.3340  177.8480  134.4820 O   0  0  0  0  0  1  0  0  0  0  0  0
  187.9920  178.3490  136.3720 C   0  0  2  0  0  3  0  0  0  0  0  0
  188.4190  177.2920  135.3690 C   0  0  1  0  0  3  0  0  0  0  0  0
  185.0610  177.2830  137.6950 C   0  0  0  0  0  2  0  0  0  0  0  0
  187.5040  177.7930  137.6900 C   0  0  0  0  0  0  0  0  0  0  0  0
  187.0820  177.9690  135.1840 C   0  0  1  0  0  3  0  0  0  0  0  0
  186.0150  176.8920  135.4150 C   0  0  0  0  0  2  0  0  0  0  0  0
  190.0710  175.3240  137.7500 C   0  0  0  0  0  0  0  0  0  0  0  0
  190.7190  177.2620  138.7470 C   0  0  0  0  0  3  0  0  0  0  0  0
  189.3500  174.5570  136.9770 C   0  0  0  0  0  0  0  0  0  0  0  0
  188.6680  173.8330  136.2410 O   0  0  0  0  0  0  0  0  0  0  0  0
  191.5220  175.3330  137.8060 C   0  0  0  0  0  0  0  0  0  0  0  0
  191.8990  176.4540  138.4150 C   0  0  0  0  0  0  0  0  0  0  0  0
  189.6450  176.5980  138.3220 C   0  0  0  0  0  0  0  0  0  0  0  0
  193.6090  177.2880  139.9720 C   0  0  0  0  0  1  0  0  0  0  0  0
  193.2200  176.8060  138.6940 O   0  0  0  0  0  0  0  0  0  0  0  0
  192.3460  174.3170  137.3020 O   0  0  0  0  0  0  0  0  0  0  0  0
  193.0180  174.4060  136.0570 C   0  0  0  0  0  1  0  0  0  0  0  0
  186.1000  178.4400  139.5310 O   0  0  0  0  0  0  0  0  0  0  0  0
  184.9170  179.1510  139.7770 C   0  0  0  0  0  2  0  0  0  0  0  0
  183.0640  178.0370  141.0110 C   0  0  0  0  0  1  0  0  0  0  0  0
  184.3580  178.8130  141.1540 C   0  0  1  0  0  3  0  0  0  0  0  0
  185.5140  178.2320  143.3180 C   0  0  0  0  0  0  0  0  0  0  0  0
  185.3240  178.0380  141.9150 N   0  0  0  0  0  2  0  0  0  0  0  0
  185.0750  178.4560  146.1020 S   0  0  0  0  0  0  0  0  0  0  0  0
  186.5700  177.8920  145.3170 C   0  0  0  0  0  0  0  0  0  0  0  0
  187.7240  177.8380  145.9660 C   0  0  0  0  0  2  0  0  0  0  0  0
  184.5040  179.3850  144.2640 S   0  0  0  0  0  0  0  0  0  0  0  0
  186.5040  177.6640  143.9190 N   0  0  0  0  0  0  0  0  0  0  0  0
  1 23  1  1  0  0  0
  2  3  1  6  0  0  0
  2  8  1  0  0  0  0
  6  9  1  1  0  0  0
  7  5  1  6  0  0  0
  7  6  1  0  0  0  0
  8  1  1  0  0  0  0
  9  1  1  0  0  0  0
  9  4  2  0  0  0  0
 10  7  1  0  0  0  0
 10 11  1  1  0  0  0
 10  6  1  0  0  0  0
 11  2  1  0  0  0  0
 12 16  1  0  0  0  0
 12 18  1  0  0  0  0
 14 12  2  0  0  0  0
 15 14  2  0  0  0  0
 16 17  2  0  0  0  0
 17 20  1  0  0  0  0
 17 13  1  0  0  0  0
 18  4  1  0  0  0  0
 18 13  2  0  0  0  0
 20 19  1  0  0  0  0
 21 16  1  0  0  0  0
 22 21  1  0  0  0  0
 23 24  1  0  0  0  0
 24 26  1  0  0  0  0
 26 25  1  6  0  0  0
 26 28  1  0  0  0  0
 27 33  2  0  0  0  0
 27 32  1  0  0  0  0
 28 27  1  0  0  0  0
 30 31  2  0  0  0  0
 30 29  1  0  0  0  0
 32 29  1  0  0  0  0
 33 30  1  0  0  0  0
M  END
>  <MODEL>
9

>  <REMARK>
 VINA RESULT:      -6.7      3.239      6.929
  Name = 
  7 active torsions:
  status: ('A' for Active; 'I' for Inactive)
    1  A    between atoms: C_1  and  O_15
    2  A    between atoms: N_8  and  C_29
    3  A    between atoms: C_9  and  O_15
    4  A    between atoms: C_9  and  C_29
    5  A    between atoms: C_10  and  C_32
    6  A    between atoms: O_18  and  C_26
    7  A    between atoms: C_27  and  O_33
                            x       y       z     vdW  Elec       q    Type
                         _______ _______ _______ _____ _____    ______ ____

>  <TORSDO>
F 7

$$$$
