=
 OpenBabel10232411133D

 33 38  0  0  1  0  0  0  0  0999 V2000
  189.3440  178.0920  142.7840 N   0  0  1  0  0  0  0  0  0  0  0  0
  190.7710  178.3520  142.9770 C   0  0  0  0  0  2  0  0  0  0  0  0
  189.9460  175.8350  136.9440 C   0  0  0  0  0  0  0  0  0  0  0  0
  188.5120  175.9480  136.6370 C   0  0  0  0  0  0  0  0  0  0  0  0
  191.9040  176.3730  138.1590 C   0  0  0  0  0  2  0  0  0  0  0  0
  190.4210  176.3630  138.0620 C   0  0  0  0  0  0  0  0  0  0  0  0
  187.5410  177.7390  141.0710 C   0  0  1  0  0  3  0  0  0  0  0  0
  191.6390  177.2300  142.4140 C   0  0  2  0  0  3  0  0  0  0  0  0
  192.3820  177.6850  141.1810 C   0  0  0  0  0  2  0  0  0  0  0  0
  187.0940  178.4350  139.4680 S   0  0  0  0  0  0  0  0  0  0  0  0
  186.6200  177.8950  143.3330 C   0  0  0  0  0  0  0  0  0  0  0  0
  184.5770  178.8800  146.2250 O   0  0  0  0  0  0  0  0  0  0  0  0
  188.9930  178.1530  141.3530 C   0  0  2  0  0  3  0  0  0  0  0  0
  186.6460  178.2800  142.0900 N   0  0  0  0  0  0  0  0  0  0  0  0
  191.1780  176.7730  141.0290 C   0  0  2  0  0  3  0  0  0  0  0  0
  188.9660  176.7990  143.3680 C   0  0  0  0  0  2  0  0  0  0  0  0
  185.5290  178.3240  145.6190 C   0  0  0  0  0  0  0  0  0  0  0  0
  191.1570  175.2260  135.7890 S   0  0  0  0  0  0  0  0  0  0  0  0
  186.4600  177.5410  146.3590 N   0  0  0  0  0  1  0  0  0  0  0  0
  187.6940  176.7830  137.4660 N   0  0  0  0  0  0  0  0  0  0  0  0
  185.6650  178.5140  144.2050 N   0  0  0  0  0  2  0  0  0  0  0  0
  192.4320  176.1090  136.7530 C   0  0  2  0  0  3  0  0  0  0  0  0
  187.5020  176.7710  143.8340 C   0  0  0  0  0  2  0  0  0  0  0  0
  188.0210  175.3840  135.6250 O   0  0  0  0  0  0  0  0  0  0  0  0
  189.4640  176.7900  139.1620 C   0  0  2  0  0  3  0  0  0  0  0  0
  188.1340  177.2720  138.5910 C   0  0  0  0  0  0  0  0  0  0  0  0
  190.0550  177.5850  140.3560 C   0  0  1  0  0  3  0  0  0  0  0  0
  193.7680  175.3670  136.7600 C   0  0  0  0  0  2  0  0  0  0  0  0
  195.0740  175.4370  138.7710 O   0  0  0  0  0  1  0  0  0  0  0  0
  194.0870  174.7130  138.1020 C   0  0  2  0  0  3  0  0  0  0  0  0
  195.3080  172.6810  138.8650 O   0  0  0  0  0  1  0  0  0  0  0  0
  194.5450  173.3100  137.8890 C   0  0  0  0  0  0  0  0  0  0  0  0
  194.2280  172.6830  136.8440 O   0  0  0  0  0  0  0  0  0  0  0  0
  1  2  1  6  0  0  0
  1 16  1  0  0  0  0
  3  6  2  0  0  0  0
  4  3  1  0  0  0  0
  4 20  1  0  0  0  0
  6  5  1  0  0  0  0
  6 25  1  0  0  0  0
  7 10  1  6  0  0  0
  7 13  1  0  0  0  0
  7 14  1  0  0  0  0
  8  9  1  6  0  0  0
  8  2  1  0  0  0  0
 11 23  1  0  0  0  0
 11 21  1  0  0  0  0
 13  1  1  0  0  0  0
 14 11  2  0  0  0  0
 15  9  1  0  0  0  0
 15  8  1  0  0  0  0
 16 23  1  0  0  0  0
 17 12  2  0  0  0  0
 17 19  1  0  0  0  0
 18 22  1  0  0  0  0
 18  3  1  0  0  0  0
 20 26  2  0  0  0  0
 21 17  1  0  0  0  0
 22 28  1  0  0  0  0
 22  5  1  0  0  0  0
 24  4  2  0  0  0  0
 25 27  1  0  0  0  0
 26 25  1  0  0  0  0
 26 10  1  0  0  0  0
 27 15  1  0  0  0  0
 27 13  1  0  0  0  0
 28 30  1  0  0  0  0
 30 29  1  0  0  0  0
 32 30  1  0  0  0  0
 32 31  1  0  0  0  0
 33 32  2  0  0  0  0
M  END
>  <MODEL>
1

>  <REMARK>
 VINA RESULT:      -8.1      0.000      0.000
  Name = 
  3 active torsions:
  status: ('A' for Active; 'I' for Inactive)
    1  A    between atoms: C_12  and  C_14
    2  A    between atoms: C_12  and  C_31
    3  A    between atoms: C_14  and  C_26
                            x       y       z     vdW  Elec       q    Type
                         _______ _______ _______ _____ _____    ______ ____

>  <TORSDO>
F 3

$$$$
=
 OpenBabel10232411133D

 33 38  0  0  1  0  0  0  0  0999 V2000
  190.7080  177.0100  137.4490 N   0  0  1  0  0  0  0  0  0  0  0  0
  189.4980  177.6210  136.8990 C   0  0  0  0  0  2  0  0  0  0  0  0
  188.7900  177.1980  143.4350 C   0  0  0  0  0  0  0  0  0  0  0  0
  190.1310  176.9540  143.9850 C   0  0  0  0  0  0  0  0  0  0  0  0
  187.2820  177.8730  141.7400 C   0  0  0  0  0  2  0  0  0  0  0  0
  188.6450  177.4320  142.1400 C   0  0  0  0  0  0  0  0  0  0  0  0
  192.0930  176.7190  139.5230 C   0  0  1  0  0  3  0  0  0  0  0  0
  188.2330  177.0920  137.5690 C   0  0  2  0  0  3  0  0  0  0  0  0
  187.5950  178.1490  138.4380 C   0  0  0  0  0  2  0  0  0  0  0  0
  192.6110  177.7450  140.9140 S   0  0  0  0  0  0  0  0  0  0  0  0
  193.2120  175.7950  137.5540 C   0  0  0  0  0  0  0  0  0  0  0  0
  195.7320  175.0370  134.9880 O   0  0  0  0  0  0  0  0  0  0  0  0
  190.9230  177.4440  138.8410 C   0  0  2  0  0  3  0  0  0  0  0  0
  193.2130  176.5690  138.6000 N   0  0  0  0  0  0  0  0  0  0  0  0
  188.3660  177.0160  139.0920 C   0  0  2  0  0  3  0  0  0  0  0  0
  190.6430  175.5460  137.3530 C   0  0  0  0  0  2  0  0  0  0  0  0
  194.5910  175.0510  135.5180 C   0  0  0  0  0  0  0  0  0  0  0  0
  187.3390  177.4340  144.4410 S   0  0  0  0  0  0  0  0  0  0  0  0
  193.5120  174.3950  134.8600 N   0  0  0  0  0  1  0  0  0  0  0  0
  191.2700  177.1540  143.1380 N   0  0  0  0  0  0  0  0  0  0  0  0
  194.4040  175.7460  136.7580 N   0  0  0  0  0  2  0  0  0  0  0  0
  186.5660  178.2850  143.0220 C   0  0  2  0  0  3  0  0  0  0  0  0
  192.0330  174.9030  137.2280 C   0  0  0  0  0  2  0  0  0  0  0  0
  190.2880  176.6480  145.1960 O   0  0  0  0  0  0  0  0  0  0  0  0
  189.7890  177.1340  141.1850 C   0  0  2  0  0  3  0  0  0  0  0  0
  191.1440  177.3400  141.8550 C   0  0  0  0  0  0  0  0  0  0  0  0
  189.6390  177.6150  139.7180 C   0  0  1  0  0  3  0  0  0  0  0  0
  185.0590  178.0440  142.9540 C   0  0  0  0  0  2  0  0  0  0  0  0
  185.0760  180.3080  143.7480 O   0  0  0  0  0  1  0  0  0  0  0  0
  184.2350  179.2600  143.3720 C   0  0  2  0  0  3  0  0  0  0  0  0
  183.8240  178.9290  145.8050 O   0  0  0  0  0  1  0  0  0  0  0  0
  183.3350  178.9010  144.5050 C   0  0  0  0  0  0  0  0  0  0  0  0
  182.1310  178.5960  144.2960 O   0  0  0  0  0  0  0  0  0  0  0  0
  1  2  1  1  0  0  0
  1 13  1  0  0  0  0
  3  4  1  0  0  0  0
  3 18  1  0  0  0  0
  4 24  2  0  0  0  0
  5  6  1  0  0  0  0
  5 22  1  0  0  0  0
  6  3  2  0  0  0  0
  7 14  1  6  0  0  0
  7 10  1  0  0  0  0
  8  2  1  6  0  0  0
  8  9  1  0  0  0  0
  8 15  1  0  0  0  0
  9 15  1  0  0  0  0
 10 26  1  0  0  0  0
 11 14  2  0  0  0  0
 12 17  2  0  0  0  0
 13  7  1  0  0  0  0
 13 27  1  0  0  0  0
 15 27  1  0  0  0  0
 16  1  1  0  0  0  0
 17 21  1  0  0  0  0
 19 17  1  0  0  0  0
 20  4  1  0  0  0  0
 21 11  1  0  0  0  0
 22 18  1  0  0  0  0
 23 16  1  0  0  0  0
 23 11  1  0  0  0  0
 25 26  1  0  0  0  0
 25  6  1  0  0  0  0
 26 20  2  0  0  0  0
 27 25  1  0  0  0  0
 28 22  1  0  0  0  0
 28 30  1  0  0  0  0
 30 29  1  0  0  0  0
 30 32  1  0  0  0  0
 32 31  1  0  0  0  0
 33 32  2  0  0  0  0
M  END
>  <MODEL>
2

>  <REMARK>
 VINA RESULT:      -8.0      3.072      9.258
  Name = 
  3 active torsions:
  status: ('A' for Active; 'I' for Inactive)
    1  A    between atoms: C_12  and  C_14
    2  A    between atoms: C_12  and  C_31
    3  A    between atoms: C_14  and  C_26
                            x       y       z     vdW  Elec       q    Type
                         _______ _______ _______ _____ _____    ______ ____

>  <TORSDO>
F 3

$$$$
=
 OpenBabel10232411133D

 33 38  0  0  1  0  0  0  0  0999 V2000
  190.7740  176.9110  137.2790 N   0  0  1  0  0  0  0  0  0  0  0  0
  189.5140  177.5110  136.8390 C   0  0  0  0  0  2  0  0  0  0  0  0
  189.3960  177.0960  143.4130 C   0  0  0  0  0  0  0  0  0  0  0  0
  190.7830  176.8650  143.8420 C   0  0  0  0  0  0  0  0  0  0  0  0
  187.7370  177.7550  141.8580 C   0  0  0  0  0  2  0  0  0  0  0  0
  189.1340  177.3260  142.1350 C   0  0  0  0  0  0  0  0  0  0  0  0
  192.3410  176.6370  139.2230 C   0  0  1  0  0  3  0  0  0  0  0  0
  188.3190  176.9730  137.6200 C   0  0  2  0  0  3  0  0  0  0  0  0
  187.7530  178.0270  138.5410 C   0  0  0  0  0  2  0  0  0  0  0  0
  192.9730  177.6700  140.5600 S   0  0  0  0  0  0  0  0  0  0  0  0
  193.2880  175.7180  137.1630 C   0  0  0  0  0  0  0  0  0  0  0  0
  195.5750  174.9750  134.3830 O   0  0  0  0  0  0  0  0  0  0  0  0
  191.1090  177.3500  138.6470 C   0  0  2  0  0  3  0  0  0  0  0  0
  193.3760  176.4940  138.2030 N   0  0  0  0  0  0  0  0  0  0  0  0
  188.5890  176.9020  139.1250 C   0  0  2  0  0  3  0  0  0  0  0  0
  190.7140  175.4470  137.1920 C   0  0  0  0  0  2  0  0  0  0  0  0
  194.4860  174.9800  135.0130 C   0  0  0  0  0  0  0  0  0  0  0  0
  188.0390  177.3220  144.5440 S   0  0  0  0  0  0  0  0  0  0  0  0
  193.3580  174.3150  134.4550 N   0  0  0  0  0  1  0  0  0  0  0  0
  191.8400  177.0720  142.8960 N   0  0  0  0  0  0  0  0  0  0  0  0
  194.4040  175.6770  136.2630 N   0  0  0  0  0  2  0  0  0  0  0  0
  187.1350  178.1640  143.1980 C   0  0  2  0  0  3  0  0  0  0  0  0
  192.0920  174.8150  136.9450 C   0  0  0  0  0  2  0  0  0  0  0  0
  191.0500  176.5620  145.0340 O   0  0  0  0  0  0  0  0  0  0  0  0
  190.1910  177.0360  141.0830 C   0  0  2  0  0  3  0  0  0  0  0  0
  191.5980  177.2550  141.6290 C   0  0  0  0  0  0  0  0  0  0  0  0
  189.9070  177.5120  139.6340 C   0  0  1  0  0  3  0  0  0  0  0  0
  185.6310  177.9100  143.2650 C   0  0  0  0  0  2  0  0  0  0  0  0
  183.6510  179.2450  143.5060 O   0  0  0  0  0  1  0  0  0  0  0  0
  184.7990  179.0740  142.7310 C   0  0  2  0  0  3  0  0  0  0  0  0
  184.9230  179.6340  140.3070 O   0  0  0  0  0  0  0  0  0  0  0  0
  184.4180  178.8180  141.3110 C   0  0  0  0  0  0  0  0  0  0  0  0
  183.6600  177.8570  141.0140 O   0  0  0  0  0  1  0  0  0  0  0  0
  1  2  1  1  0  0  0
  1 13  1  0  0  0  0
  3  4  1  0  0  0  0
  3 18  1  0  0  0  0
  4 24  2  0  0  0  0
  5  6  1  0  0  0  0
  5 22  1  0  0  0  0
  6  3  2  0  0  0  0
  7 14  1  6  0  0  0
  7 10  1  0  0  0  0
  8  2  1  6  0  0  0
  8  9  1  0  0  0  0
  8 15  1  0  0  0  0
  9 15  1  0  0  0  0
 10 26  1  0  0  0  0
 11 14  2  0  0  0  0
 12 17  2  0  0  0  0
 13  7  1  0  0  0  0
 13 27  1  0  0  0  0
 15 27  1  0  0  0  0
 16  1  1  0  0  0  0
 17 21  1  0  0  0  0
 19 17  1  0  0  0  0
 20  4  1  0  0  0  0
 21 11  1  0  0  0  0
 22 28  1  0  0  0  0
 22 18  1  0  0  0  0
 23 11  1  0  0  0  0
 23 16  1  0  0  0  0
 25 26  1  0  0  0  0
 25  6  1  0  0  0  0
 26 20  2  0  0  0  0
 27 25  1  0  0  0  0
 30 28  1  0  0  0  0
 30 29  1  0  0  0  0
 31 32  2  0  0  0  0
 32 30  1  0  0  0  0
 33 32  1  0  0  0  0
M  END
>  <MODEL>
3

>  <REMARK>
 VINA RESULT:      -7.9      3.386      9.003
  Name = 
  3 active torsions:
  status: ('A' for Active; 'I' for Inactive)
    1  A    between atoms: C_12  and  C_14
    2  A    between atoms: C_12  and  C_31
    3  A    between atoms: C_14  and  C_26
                            x       y       z     vdW  Elec       q    Type
                         _______ _______ _______ _____ _____    ______ ____

>  <TORSDO>
F 3

$$$$
=
 OpenBabel10232411133D

 33 38  0  0  1  0  0  0  0  0999 V2000
  190.3700  177.2050  137.8130 N   0  0  1  0  0  0  0  0  0  0  0  0
  189.2000  177.8190  137.1850 C   0  0  0  0  0  2  0  0  0  0  0  0
  188.0340  177.3360  143.6520 C   0  0  0  0  0  0  0  0  0  0  0  0
  189.3340  177.0900  144.2930 C   0  0  0  0  0  0  0  0  0  0  0  0
  186.6480  178.0230  141.8610 C   0  0  0  0  0  2  0  0  0  0  0  0
  187.9810  177.5810  142.3510 C   0  0  0  0  0  0  0  0  0  0  0  0
  191.6060  176.8980  139.9780 C   0  0  1  0  0  3  0  0  0  0  0  0
  187.8920  177.2810  137.7610 C   0  0  2  0  0  3  0  0  0  0  0  0
  187.1930  178.3300  138.5910 C   0  0  0  0  0  2  0  0  0  0  0  0
  192.0230  177.9120  141.4110 S   0  0  0  0  0  0  0  0  0  0  0  0
  192.8630  175.9930  138.0840 C   0  0  0  0  0  0  0  0  0  0  0  0
  195.5590  175.2620  135.6950 O   0  0  0  0  0  0  0  0  0  0  0  0
  190.4850  177.6270  139.2220 C   0  0  2  0  0  3  0  0  0  0  0  0
  192.7890  176.7580  139.1350 N   0  0  0  0  0  0  0  0  0  0  0  0
  187.9180  177.1930  139.2880 C   0  0  2  0  0  3  0  0  0  0  0  0
  190.3150  175.7420  137.7010 C   0  0  0  0  0  2  0  0  0  0  0  0
  194.3840  175.2690  136.1440 C   0  0  0  0  0  0  0  0  0  0  0  0
  186.5160  177.5610  144.5550 S   0  0  0  0  0  0  0  0  0  0  0  0
  193.3540  174.6180  135.4060 N   0  0  0  0  0  1  0  0  0  0  0  0
  190.5290  177.2990  143.5300 N   0  0  0  0  0  0  0  0  0  0  0  0
  194.1080  175.9520  137.3730 N   0  0  0  0  0  2  0  0  0  0  0  0
  185.8430  178.4230  143.0920 C   0  0  2  0  0  3  0  0  0  0  0  0
  191.7110  175.1020  137.6680 C   0  0  0  0  0  2  0  0  0  0  0  0
  189.4060  176.7720  145.5090 O   0  0  0  0  0  0  0  0  0  0  0  0
  189.1900  177.2940  141.4770 C   0  0  2  0  0  3  0  0  0  0  0  0
  190.4940  177.4960  142.2420 C   0  0  0  0  0  0  0  0  0  0  0  0
  189.1430  177.7870  140.0080 C   0  0  1  0  0  3  0  0  0  0  0  0
  184.3460  178.1800  142.9170 C   0  0  0  0  0  2  0  0  0  0  0  0
  183.6050  179.0270  145.0370 O   0  0  0  0  0  1  0  0  0  0  0  0
  183.4800  179.1970  143.6570 C   0  0  2  0  0  3  0  0  0  0  0  0
  181.0860  178.8120  144.2280 O   0  0  0  0  0  1  0  0  0  0  0  0
  182.0520  179.0390  143.2560 C   0  0  0  0  0  0  0  0  0  0  0  0
  181.7120  179.1330  142.0470 O   0  0  0  0  0  0  0  0  0  0  0  0
  1  2  1  1  0  0  0
  1 13  1  0  0  0  0
  3  4  1  0  0  0  0
  3 18  1  0  0  0  0
  4 24  2  0  0  0  0
  5  6  1  0  0  0  0
  5 22  1  0  0  0  0
  6  3  2  0  0  0  0
  7 14  1  6  0  0  0
  7 10  1  0  0  0  0
  8  2  1  1  0  0  0
  8  9  1  0  0  0  0
  8 15  1  0  0  0  0
  9 15  1  0  0  0  0
 10 26  1  0  0  0  0
 11 14  2  0  0  0  0
 12 17  2  0  0  0  0
 13  7  1  0  0  0  0
 13 27  1  0  0  0  0
 15 27  1  0  0  0  0
 16  1  1  0  0  0  0
 17 21  1  0  0  0  0
 19 17  1  0  0  0  0
 20  4  1  0  0  0  0
 21 11  1  0  0  0  0
 22 18  1  0  0  0  0
 23 16  1  0  0  0  0
 23 11  1  0  0  0  0
 25 26  1  0  0  0  0
 25  6  1  0  0  0  0
 26 20  2  0  0  0  0
 27 25  1  0  0  0  0
 28 22  1  0  0  0  0
 28 30  1  0  0  0  0
 30 29  1  0  0  0  0
 32 30  1  0  0  0  0
 32 31  1  0  0  0  0
 33 32  2  0  0  0  0
M  END
>  <MODEL>
4

>  <REMARK>
 VINA RESULT:      -7.6      3.078      9.334
  Name = 
  3 active torsions:
  status: ('A' for Active; 'I' for Inactive)
    1  A    between atoms: C_12  and  C_14
    2  A    between atoms: C_12  and  C_31
    3  A    between atoms: C_14  and  C_26
                            x       y       z     vdW  Elec       q    Type
                         _______ _______ _______ _____ _____    ______ ____

>  <TORSDO>
F 3

$$$$
=
 OpenBabel10232411133D

 33 38  0  0  1  0  0  0  0  0999 V2000
  190.5110  176.7630  136.7250 N   0  0  1  0  0  0  0  0  0  0  0  0
  189.4760  177.5260  136.0260 C   0  0  0  0  0  2  0  0  0  0  0  0
  188.0650  177.5870  142.4610 C   0  0  0  0  0  0  0  0  0  0  0  0
  189.2870  177.1660  143.1600 C   0  0  0  0  0  0  0  0  0  0  0  0
  186.8620  178.3950  140.5890 C   0  0  0  0  0  2  0  0  0  0  0  0
  188.0890  177.7680  141.1490 C   0  0  0  0  0  0  0  0  0  0  0  0
  191.6170  176.3750  138.9460 C   0  0  1  0  0  3  0  0  0  0  0  0
  188.0820  177.2410  136.5780 C   0  0  2  0  0  3  0  0  0  0  0  0
  187.5420  178.4320  137.3310 C   0  0  0  0  0  2  0  0  0  0  0  0
  192.1550  177.3830  140.3430 S   0  0  0  0  0  0  0  0  0  0  0  0
  192.7610  175.1770  137.1460 C   0  0  0  0  0  0  0  0  0  0  0  0
  195.3660  173.8890  134.8960 O   0  0  0  0  0  0  0  0  0  0  0  0
  190.6540  177.2360  138.1150 C   0  0  2  0  0  3  0  0  0  0  0  0
  192.7850  175.9990  138.1550 N   0  0  0  0  0  0  0  0  0  0  0  0
  188.0500  177.2310  138.1070 C   0  0  2  0  0  3  0  0  0  0  0  0
  190.2190  175.3250  136.6820 C   0  0  0  0  0  2  0  0  0  0  0  0
  194.1960  174.1110  135.3000 C   0  0  0  0  0  0  0  0  0  0  0  0
  186.5790  178.1040  143.2960 S   0  0  0  0  0  0  0  0  0  0  0  0
  193.0950  173.5990  134.5570 N   0  0  0  0  0  1  0  0  0  0  0  0
  190.5220  177.1360  142.4330 N   0  0  0  0  0  0  0  0  0  0  0  0
  194.0020  174.8960  136.4840 N   0  0  0  0  0  2  0  0  0  0  0  0
  186.0990  178.9860  141.7700 C   0  0  2  0  0  3  0  0  0  0  0  0
  191.4910  174.4650  136.7310 C   0  0  0  0  0  2  0  0  0  0  0  0
  189.2710  176.9070  144.3920 O   0  0  0  0  0  0  0  0  0  0  0  0
  189.2580  177.2400  140.3350 C   0  0  2  0  0  3  0  0  0  0  0  0
  190.5550  177.2670  141.1370 C   0  0  0  0  0  0  0  0  0  0  0  0
  189.3350  177.6550  138.8420 C   0  0  1  0  0  3  0  0  0  0  0  0
  184.5880  178.9820  141.5510 C   0  0  0  0  0  2  0  0  0  0  0  0
  184.3240  180.0150  139.4010 O   0  0  0  0  0  1  0  0  0  0  0  0
  184.1920  178.8070  140.0860 C   0  0  2  0  0  3  0  0  0  0  0  0
  181.7410  179.1840  140.3120 O   0  0  0  0  0  1  0  0  0  0  0  0
  182.7840  178.3240  139.9930 C   0  0  0  0  0  0  0  0  0  0  0  0
  182.5320  177.1520  139.6070 O   0  0  0  0  0  0  0  0  0  0  0  0
  1  2  1  1  0  0  0
  1 13  1  0  0  0  0
  3  4  1  0  0  0  0
  3 18  1  0  0  0  0
  4 24  2  0  0  0  0
  5  6  1  0  0  0  0
  5 22  1  0  0  0  0
  6  3  2  0  0  0  0
  7 14  1  6  0  0  0
  7 10  1  0  0  0  0
  8  2  1  1  0  0  0
  8  9  1  0  0  0  0
  8 15  1  0  0  0  0
  9 15  1  0  0  0  0
 10 26  1  0  0  0  0
 11 14  2  0  0  0  0
 12 17  2  0  0  0  0
 13 27  1  0  0  0  0
 13  7  1  0  0  0  0
 15 27  1  0  0  0  0
 16  1  1  0  0  0  0
 16 23  1  0  0  0  0
 17 21  1  0  0  0  0
 19 17  1  0  0  0  0
 20  4  1  0  0  0  0
 21 11  1  0  0  0  0
 22 18  1  0  0  0  0
 23 11  1  0  0  0  0
 25 26  1  0  0  0  0
 25  6  1  0  0  0  0
 26 20  2  0  0  0  0
 27 25  1  0  0  0  0
 28 22  1  0  0  0  0
 29 30  1  0  0  0  0
 30 28  1  0  0  0  0
 32 30  1  0  0  0  0
 32 31  1  0  0  0  0
 33 32  2  0  0  0  0
M  END
>  <MODEL>
5

>  <REMARK>
 VINA RESULT:      -7.5      3.581      9.030
  Name = 
  3 active torsions:
  status: ('A' for Active; 'I' for Inactive)
    1  A    between atoms: C_12  and  C_14
    2  A    between atoms: C_12  and  C_31
    3  A    between atoms: C_14  and  C_26
                            x       y       z     vdW  Elec       q    Type
                         _______ _______ _______ _____ _____    ______ ____

>  <TORSDO>
F 3

$$$$
=
 OpenBabel10232411133D

 33 38  0  0  1  0  0  0  0  0999 V2000
  183.7280  178.4310  140.0300 N   0  0  1  0  0  0  0  0  0  0  0  0
  183.4990  179.1640  141.2760 C   0  0  0  0  0  2  0  0  0  0  0  0
  189.8550  177.4420  141.0480 C   0  0  0  0  0  0  0  0  0  0  0  0
  190.1360  177.0670  139.6550 C   0  0  0  0  0  0  0  0  0  0  0  0
  188.5750  178.4750  142.7500 C   0  0  0  0  0  2  0  0  0  0  0  0
  188.6680  177.9360  141.3680 C   0  0  0  0  0  0  0  0  0  0  0  0
  185.4700  177.7000  138.3750 C   0  0  1  0  0  3  0  0  0  0  0  0
  184.2370  178.5340  142.4540 C   0  0  2  0  0  3  0  0  0  0  0  0
  185.3840  179.4070  142.9060 C   0  0  0  0  0  2  0  0  0  0  0  0
  186.9390  178.4130  137.6100 S   0  0  0  0  0  0  0  0  0  0  0  0
  183.2100  177.1710  137.6000 C   0  0  0  0  0  0  0  0  0  0  0  0
  180.1920  176.8990  135.5200 O   0  0  0  0  0  0  0  0  0  0  0  0
  185.1290  178.5700  139.5940 C   0  0  2  0  0  3  0  0  0  0  0  0
  184.3750  177.7180  137.4090 N   0  0  0  0  0  0  0  0  0  0  0  0
  185.6760  178.1500  142.1050 C   0  0  2  0  0  3  0  0  0  0  0  0
  183.3570  177.0180  140.1810 C   0  0  0  0  0  2  0  0  0  0  0  0
  180.8810  176.8270  136.5700 C   0  0  0  0  0  0  0  0  0  0  0  0
  191.0960  177.4980  142.3240 S   0  0  0  0  0  0  0  0  0  0  0  0
  180.2800  176.3390  137.7650 N   0  0  0  0  0  1  0  0  0  0  0  0
  189.1820  177.4110  138.6420 N   0  0  0  0  0  0  0  0  0  0  0  0
  182.2470  177.2610  136.5410 N   0  0  0  0  0  2  0  0  0  0  0  0
  190.0070  178.6340  143.2510 C   0  0  2  0  0  3  0  0  0  0  0  0
  182.8980  176.3870  138.8570 C   0  0  0  0  0  2  0  0  0  0  0  0
  191.2240  176.5190  139.3390 O   0  0  0  0  0  0  0  0  0  0  0  0
  187.5110  177.8150  140.3900 C   0  0  2  0  0  3  0  0  0  0  0  0
  187.9940  177.8550  138.9440 C   0  0  0  0  0  0  0  0  0  0  0  0
  186.2070  178.5850  140.7270 C   0  0  1  0  0  3  0  0  0  0  0  0
  190.1230  178.4400  144.7620 C   0  0  0  0  0  2  0  0  0  0  0  0
  188.6510  176.9120  145.8830 O   0  0  0  0  0  1  0  0  0  0  0  0
  189.8680  177.0020  145.2070 C   0  0  2  0  0  3  0  0  0  0  0  0
  190.8810  176.7300  147.4650 O   0  0  0  0  0  1  0  0  0  0  0  0
  190.9750  176.5380  146.0920 C   0  0  0  0  0  0  0  0  0  0  0  0
  191.9820  175.9560  145.6090 O   0  0  0  0  0  0  0  0  0  0  0  0
  1 16  1  1  0  0  0
  1  2  1  0  0  0  0
  3  6  2  0  0  0  0
  3 18  1  0  0  0  0
  4  3  1  0  0  0  0
  5 22  1  0  0  0  0
  6  5  1  0  0  0  0
  7 14  1  6  0  0  0
  7 13  1  0  0  0  0
  8  2  1  6  0  0  0
  8  9  1  0  0  0  0
 10  7  1  0  0  0  0
 10 26  1  0  0  0  0
 11 23  1  0  0  0  0
 12 17  2  0  0  0  0
 13  1  1  0  0  0  0
 13 27  1  0  0  0  0
 14 11  2  0  0  0  0
 15  8  1  0  0  0  0
 15  9  1  0  0  0  0
 17 19  1  0  0  0  0
 18 22  1  0  0  0  0
 20 26  2  0  0  0  0
 20  4  1  0  0  0  0
 21 17  1  0  0  0  0
 21 11  1  0  0  0  0
 22 28  1  0  0  0  0
 23 16  1  0  0  0  0
 24  4  2  0  0  0  0
 25 27  1  0  0  0  0
 25  6  1  0  0  0  0
 26 25  1  0  0  0  0
 27 15  1  0  0  0  0
 28 30  1  0  0  0  0
 30 29  1  0  0  0  0
 30 32  1  0  0  0  0
 32 31  1  0  0  0  0
 33 32  2  0  0  0  0
M  END
>  <MODEL>
6

>  <REMARK>
 VINA RESULT:      -7.2      4.074      7.071
  Name = 
  3 active torsions:
  status: ('A' for Active; 'I' for Inactive)
    1  A    between atoms: C_12  and  C_14
    2  A    between atoms: C_12  and  C_31
    3  A    between atoms: C_14  and  C_26
                            x       y       z     vdW  Elec       q    Type
                         _______ _______ _______ _____ _____    ______ ____

>  <TORSDO>
F 3

$$$$
=
 OpenBabel10232411133D

 33 38  0  0  1  0  0  0  0  0999 V2000
  184.3270  179.1680  142.3140 N   0  0  1  0  0  0  0  0  0  0  0  0
  184.3500  179.5190  143.7340 C   0  0  0  0  0  2  0  0  0  0  0  0
  190.0500  176.5600  142.2660 C   0  0  0  0  0  0  0  0  0  0  0  0
  190.1610  176.5720  140.8000 C   0  0  0  0  0  0  0  0  0  0  0  0
  189.1530  177.2860  144.3320 C   0  0  0  0  0  2  0  0  0  0  0  0
  189.0420  177.1880  142.8530 C   0  0  0  0  0  0  0  0  0  0  0  0
  185.7490  178.6020  140.3230 C   0  0  1  0  0  3  0  0  0  0  0  0
  184.9600  178.4120  144.5890 C   0  0  2  0  0  3  0  0  0  0  0  0
  186.3090  178.8230  145.1280 C   0  0  0  0  0  2  0  0  0  0  0  0
  187.3140  179.1630  139.6210 S   0  0  0  0  0  0  0  0  0  0  0  0
  183.3960  178.8590  139.7080 C   0  0  0  0  0  0  0  0  0  0  0  0
  180.3120  179.9210  138.0140 O   0  0  0  0  0  0  0  0  0  0  0  0
  185.6970  179.1130  141.7710 C   0  0  2  0  0  3  0  0  0  0  0  0
  184.6510  179.1600  139.5410 N   0  0  0  0  0  0  0  0  0  0  0  0
  186.2390  177.8380  143.9750 C   0  0  2  0  0  3  0  0  0  0  0  0
  183.6210  177.8990  142.1010 C   0  0  0  0  0  2  0  0  0  0  0  0
  181.0090  179.3800  138.9090 C   0  0  0  0  0  0  0  0  0  0  0  0
  191.3240  175.9430  143.3470 S   0  0  0  0  0  0  0  0  0  0  0  0
  180.3610  178.7010  139.9800 N   0  0  0  0  0  1  0  0  0  0  0  0
  189.2780  177.4150  140.0500 N   0  0  0  0  0  0  0  0  0  0  0  0
  182.4380  179.4810  138.8410 N   0  0  0  0  0  2  0  0  0  0  0  0
  190.6000  176.9570  144.6820 C   0  0  2  0  0  3  0  0  0  0  0  0
  182.9560  177.8210  140.7190 C   0  0  0  0  0  2  0  0  0  0  0  0
  191.0610  175.9150  140.2140 O   0  0  0  0  0  0  0  0  0  0  0  0
  187.8470  177.6350  142.0270 C   0  0  2  0  0  3  0  0  0  0  0  0
  188.2560  178.0020  140.6050 C   0  0  0  0  0  0  0  0  0  0  0  0
  186.7960  178.5390  142.7230 C   0  0  1  0  0  3  0  0  0  0  0  0
  190.7350  176.2930  146.0510 C   0  0  0  0  0  2  0  0  0  0  0  0
  191.8270  176.8630  148.1100 O   0  0  0  0  0  1  0  0  0  0  0  0
  190.8650  177.2950  147.1960 C   0  0  2  0  0  3  0  0  0  0  0  0
  188.5400  176.5330  147.6590 O   0  0  0  0  0  0  0  0  0  0  0  0
  189.5510  177.4580  147.8830 C   0  0  0  0  0  0  0  0  0  0  0  0
  189.3590  178.4140  148.6800 O   0  0  0  0  0  1  0  0  0  0  0  0
  1 16  1  1  0  0  0
  1  2  1  0  0  0  0
  3  6  2  0  0  0  0
  3 18  1  0  0  0  0
  4  3  1  0  0  0  0
  5 22  1  0  0  0  0
  6  5  1  0  0  0  0
  7 14  1  6  0  0  0
  7 13  1  0  0  0  0
  8  2  1  6  0  0  0
  8  9  1  0  0  0  0
 10  7  1  0  0  0  0
 10 26  1  0  0  0  0
 11 23  1  0  0  0  0
 12 17  2  0  0  0  0
 13  1  1  0  0  0  0
 13 27  1  0  0  0  0
 14 11  2  0  0  0  0
 15  8  1  0  0  0  0
 15  9  1  0  0  0  0
 17 19  1  0  0  0  0
 18 22  1  0  0  0  0
 20 26  2  0  0  0  0
 20  4  1  0  0  0  0
 21 17  1  0  0  0  0
 21 11  1  0  0  0  0
 22 28  1  0  0  0  0
 23 16  1  0  0  0  0
 24  4  2  0  0  0  0
 25 27  1  0  0  0  0
 25  6  1  0  0  0  0
 26 25  1  0  0  0  0
 27 15  1  0  0  0  0
 28 30  1  0  0  0  0
 30 32  1  0  0  0  0
 30 29  1  0  0  0  0
 31 32  2  0  0  0  0
 32 33  1  0  0  0  0
M  END
>  <MODEL>
7

>  <REMARK>
 VINA RESULT:      -7.1      4.036      7.153
  Name = 
  3 active torsions:
  status: ('A' for Active; 'I' for Inactive)
    1  A    between atoms: C_12  and  C_14
    2  A    between atoms: C_12  and  C_31
    3  A    between atoms: C_14  and  C_26
                            x       y       z     vdW  Elec       q    Type
                         _______ _______ _______ _____ _____    ______ ____

>  <TORSDO>
F 3

$$$$
=
 OpenBabel10232411133D

 33 38  0  0  1  0  0  0  0  0999 V2000
  188.8640  178.0770  142.6440 N   0  0  1  0  0  0  0  0  0  0  0  0
  190.3050  178.1710  142.4120 C   0  0  0  0  0  2  0  0  0  0  0  0
  187.3950  176.7420  136.6760 C   0  0  0  0  0  0  0  0  0  0  0  0
  185.9650  177.0340  136.8500 C   0  0  0  0  0  0  0  0  0  0  0  0
  189.6800  176.8970  137.2740 C   0  0  0  0  0  2  0  0  0  0  0  0
  188.2470  177.0380  137.6460 C   0  0  0  0  0  0  0  0  0  0  0  0
  186.6040  178.1710  141.5520 C   0  0  1  0  0  3  0  0  0  0  0  0
  190.8060  177.0790  141.4700 C   0  0  2  0  0  3  0  0  0  0  0  0
  191.2050  177.6560  140.1330 C   0  0  0  0  0  2  0  0  0  0  0  0
  185.8020  179.1540  140.2690 S   0  0  0  0  0  0  0  0  0  0  0  0
  186.4250  178.0450  143.9890 C   0  0  0  0  0  0  0  0  0  0  0  0
  185.4830  178.7350  147.4740 O   0  0  0  0  0  0  0  0  0  0  0  0
  188.1170  178.3990  141.4140 C   0  0  2  0  0  3  0  0  0  0  0  0
  186.1330  178.6210  142.8590 N   0  0  0  0  0  0  0  0  0  0  0  0
  189.8970  176.8950  140.2530 C   0  0  2  0  0  3  0  0  0  0  0  0
  188.5020  176.7480  143.1510 C   0  0  0  0  0  2  0  0  0  0  0  0
  186.1290  178.1990  146.5370 C   0  0  0  0  0  0  0  0  0  0  0  0
  188.1140  176.2190  135.1330 S   0  0  0  0  0  0  0  0  0  0  0  0
  187.1210  177.2260  146.8440 N   0  0  0  0  0  1  0  0  0  0  0  0
  185.5500  177.7960  137.9910 N   0  0  0  0  0  0  0  0  0  0  0  0
  185.8640  178.6010  145.1860 N   0  0  0  0  0  2  0  0  0  0  0  0
  189.7270  176.8140  135.7520 C   0  0  2  0  0  3  0  0  0  0  0  0
  187.2520  176.7790  144.0440 C   0  0  0  0  0  2  0  0  0  0  0  0
  185.1230  176.6870  135.9800 O   0  0  0  0  0  0  0  0  0  0  0  0
  187.7260  177.3690  139.0350 C   0  0  2  0  0  3  0  0  0  0  0  0
  186.3660  178.0560  138.9730 C   0  0  0  0  0  0  0  0  0  0  0  0
  188.7480  177.9040  140.0720 C   0  0  1  0  0  3  0  0  0  0  0  0
  190.8890  175.9620  135.2480 C   0  0  0  0  0  2  0  0  0  0  0  0
  193.0680  175.4250  136.1000 O   0  0  0  0  0  1  0  0  0  0  0  0
  191.7030  175.3260  136.3730 C   0  0  2  0  0  3  0  0  0  0  0  0
  191.8590  172.9410  135.6760 O   0  0  0  0  0  0  0  0  0  0  0  0
  191.3210  173.8930  136.5320 C   0  0  0  0  0  0  0  0  0  0  0  0
  190.5330  173.5370  137.4480 O   0  0  0  0  0  1  0  0  0  0  0  0
  1  2  1  6  0  0  0
  1 16  1  0  0  0  0
  3  4  1  0  0  0  0
  3  6  2  0  0  0  0
  4 20  1  0  0  0  0
  5  6  1  0  0  0  0
  6 25  1  0  0  0  0
  7 10  1  6  0  0  0
  7 14  1  0  0  0  0
  8  9  1  6  0  0  0
  8  2  1  0  0  0  0
  9 15  1  0  0  0  0
 11 23  1  0  0  0  0
 11 21  1  0  0  0  0
 13  7  1  0  0  0  0
 13  1  1  0  0  0  0
 14 11  2  0  0  0  0
 15  8  1  0  0  0  0
 16 23  1  0  0  0  0
 17 19  1  0  0  0  0
 17 12  2  0  0  0  0
 18 22  1  0  0  0  0
 18  3  1  0  0  0  0
 20 26  2  0  0  0  0
 21 17  1  0  0  0  0
 22  5  1  0  0  0  0
 24  4  2  0  0  0  0
 25 27  1  0  0  0  0
 26 25  1  0  0  0  0
 26 10  1  0  0  0  0
 27 15  1  0  0  0  0
 27 13  1  0  0  0  0
 28 22  1  0  0  0  0
 28 30  1  0  0  0  0
 29 30  1  0  0  0  0
 30 32  1  0  0  0  0
 31 32  2  0  0  0  0
 32 33  1  0  0  0  0
M  END
>  <MODEL>
8

>  <REMARK>
 VINA RESULT:      -7.0      1.914      2.278
  Name = 
  3 active torsions:
  status: ('A' for Active; 'I' for Inactive)
    1  A    between atoms: C_12  and  C_14
    2  A    between atoms: C_12  and  C_31
    3  A    between atoms: C_14  and  C_26
                            x       y       z     vdW  Elec       q    Type
                         _______ _______ _______ _____ _____    ______ ____

>  <TORSDO>
F 3

$$$$
=
 OpenBabel10232411133D

 33 38  0  0  1  0  0  0  0  0999 V2000
  188.1180  177.2110  146.6260 N   0  0  1  0  0  0  0  0  0  0  0  0
  186.7700  177.1840  147.1930 C   0  0  0  0  0  2  0  0  0  0  0  0
  186.2630  178.5840  140.7760 C   0  0  0  0  0  0  0  0  0  0  0  0
  187.5530  178.2280  140.1670 C   0  0  0  0  0  0  0  0  0  0  0  0
  184.6370  178.5180  142.4940 C   0  0  0  0  0  2  0  0  0  0  0  0
  186.0410  178.3080  142.0520 C   0  0  0  0  0  0  0  0  0  0  0  0
  189.4500  177.0390  144.5030 C   0  0  1  0  0  3  0  0  0  0  0  0
  185.8970  178.3120  146.6510 C   0  0  2  0  0  3  0  0  0  0  0  0
  184.8250  177.7760  145.7340 C   0  0  0  0  0  2  0  0  0  0  0  0
  189.4050  176.0450  142.9980 S   0  0  0  0  0  0  0  0  0  0  0  0
  190.8980  177.1150  146.4740 C   0  0  0  0  0  0  0  0  0  0  0  0
  193.5100  176.3250  148.9370 O   0  0  0  0  0  0  0  0  0  0  0  0
  188.0850  176.8790  145.1900 C   0  0  2  0  0  3  0  0  0  0  0  0
  190.5200  176.5470  145.3660 N   0  0  0  0  0  0  0  0  0  0  0  0
  186.0310  178.4780  145.1360 C   0  0  2  0  0  3  0  0  0  0  0  0
  188.7540  178.5150  146.8540 C   0  0  0  0  0  2  0  0  0  0  0  0
  192.4910  176.9050  148.4790 C   0  0  0  0  0  0  0  0  0  0  0  0
  184.8600  179.1640  139.8440 S   0  0  0  0  0  0  0  0  0  0  0  0
  191.8580  177.9150  149.2570 N   0  0  0  0  0  1  0  0  0  0  0  0
  188.4730  177.4290  140.9220 N   0  0  0  0  0  0  0  0  0  0  0  0
  191.9820  176.5150  147.1970 N   0  0  0  0  0  2  0  0  0  0  0  0
  183.7950  178.6280  141.2280 C   0  0  2  0  0  3  0  0  0  0  0  0
  190.2840  178.4150  146.9490 C   0  0  0  0  0  2  0  0  0  0  0  0
  187.8200  178.5530  138.9810 O   0  0  0  0  0  0  0  0  0  0  0  0
  187.2020  177.9320  142.9560 C   0  0  2  0  0  3  0  0  0  0  0  0
  188.2900  177.1880  142.1890 C   0  0  0  0  0  0  0  0  0  0  0  0
  186.8620  177.4240  144.3820 C   0  0  1  0  0  3  0  0  0  0  0  0
  182.5820  179.5380  141.4090 C   0  0  0  0  0  2  0  0  0  0  0  0
  180.4190  178.7770  140.7000 O   0  0  0  0  0  1  0  0  0  0  0  0
  181.3090  178.7790  141.7760 C   0  0  2  0  0  3  0  0  0  0  0  0
  180.0770  180.6610  142.8440 O   0  0  0  0  0  0  0  0  0  0  0  0
  180.6640  179.4080  142.9640 C   0  0  0  0  0  0  0  0  0  0  0  0
  180.6280  178.8040  144.0690 O   0  0  0  0  0  1  0  0  0  0  0  0
  1 16  1  6  0  0  0
  1  2  1  0  0  0  0
  3  6  2  0  0  0  0
  4  3  1  0  0  0  0
  4 20  1  0  0  0  0
  6  5  1  0  0  0  0
  6 25  1  0  0  0  0
  7 10  1  6  0  0  0
  7 13  1  0  0  0  0
  7 14  1  0  0  0  0
  8  9  1  6  0  0  0
  8  2  1  0  0  0  0
 11 23  1  0  0  0  0
 11 21  1  0  0  0  0
 13  1  1  0  0  0  0
 14 11  2  0  0  0  0
 15  9  1  0  0  0  0
 15  8  1  0  0  0  0
 16 23  1  0  0  0  0
 17 12  2  0  0  0  0
 17 19  1  0  0  0  0
 18  3  1  0  0  0  0
 18 22  1  0  0  0  0
 20 26  2  0  0  0  0
 21 17  1  0  0  0  0
 22 28  1  0  0  0  0
 22  5  1  0  0  0  0
 24  4  2  0  0  0  0
 25 27  1  0  0  0  0
 26 25  1  0  0  0  0
 26 10  1  0  0  0  0
 27 15  1  0  0  0  0
 27 13  1  0  0  0  0
 28 30  1  0  0  0  0
 29 30  1  0  0  0  0
 30 32  1  0  0  0  0
 31 32  2  0  0  0  0
 32 33  1  0  0  0  0
M  END
>  <MODEL>
9

>  <REMARK>
 VINA RESULT:      -6.6      4.776      8.680
  Name = 
  3 active torsions:
  status: ('A' for Active; 'I' for Inactive)
    1  A    between atoms: C_12  and  C_14
    2  A    between atoms: C_12  and  C_31
    3  A    between atoms: C_14  and  C_26
                            x       y       z     vdW  Elec       q    Type
                         _______ _______ _______ _____ _____    ______ ____

>  <TORSDO>
F 3

$$$$
