=
 OpenBabel10232411013D

 42 46  0  0  1  0  0  0  0  0999 V2000
  194.3410  173.5760  137.5370 C   0  0  0  0  0  0  0  0  0  0  0  0
  189.3900  174.7490  136.9980 C   0  0  0  0  0  0  0  0  0  0  0  0
  191.8510  176.7550  138.7730 O   0  0  0  0  0  0  0  0  0  0  0  0
  192.4840  172.7540  136.2080 C   0  0  0  0  0  3  0  0  0  0  0  0
  188.1480  174.5370  136.9560 O   0  0  0  0  0  0  0  0  0  0  0  0
  191.6780  173.8050  136.6590 C   0  0  0  0  0  0  0  0  0  0  0  0
  189.9320  175.7980  137.8300 N   0  0  0  0  0  0  0  0  0  0  0  0
  193.8040  172.6370  136.6480 C   0  0  0  0  0  3  0  0  0  0  0  0
  192.2060  174.7480  137.5610 C   0  0  0  0  0  0  0  0  0  0  0  0
  191.3480  175.8270  138.0810 C   0  0  0  0  0  0  0  0  0  0  0  0
  190.3430  174.5950  134.7330 C   0  0  0  0  0  1  0  0  0  0  0  0
  193.5340  174.6280  137.9930 C   0  0  0  0  0  3  0  0  0  0  0  0
  190.2880  173.9450  136.1040 C   0  0  2  0  0  3  0  0  0  0  0  0
  195.7400  173.4640  137.9900 C   0  0  0  0  0  0  0  0  0  0  0  0
  196.2290  172.3310  138.2530 O   0  0  0  0  0  0  0  0  0  0  0  0
  196.5470  174.6390  138.1210 N   0  0  0  0  0  2  0  0  0  0  0  0
  197.9180  174.5970  138.6050 C   0  0  0  0  0  2  0  0  0  0  0  0
  198.1450  175.7020  139.6200 C   0  0  0  0  0  2  0  0  0  0  0  0
  197.5310  175.3180  140.9570 C   0  0  0  0  0  2  0  0  0  0  0  0
  198.2070  175.7670  143.2640 O   0  0  0  0  0  0  0  0  0  0  0  0
  198.5410  175.3390  142.0010 N   0  0  0  0  0  0  0  0  0  0  0  0
  199.6680  174.8460  141.7900 O   0  0  0  0  0  0  0  0  0  0  0  0
  189.0800  176.8070  138.4840 C   0  0  2  0  0  3  0  0  0  0  0  0
  189.0070  179.2660  137.4750 C   0  0  0  0  0  2  0  0  0  0  0  0
  189.3640  178.2840  136.3640 C   0  0  0  0  0  2  0  0  0  0  0  0
  188.4840  177.8480  137.5170 C   0  0  0  0  0  0  0  0  0  0  0  0
  184.8180  177.5590  137.4980 O   0  0  0  0  0  0  0  0  0  0  0  0
  187.1000  177.6670  137.0970 N   0  0  0  0  0  2  0  0  0  0  0  0
  185.9580  177.8600  137.9380 C   0  0  0  0  0  0  0  0  0  0  0  0
  186.0950  178.3840  139.3360 C   0  0  0  0  0  2  0  0  0  0  0  0
  184.4810  180.1280  139.1430 O   0  0  0  0  0  0  0  0  0  0  0  0
  184.8560  179.1020  139.7710 C   0  0  0  0  0  0  0  0  0  0  0  0
  183.0320  177.7330  140.7330 O   0  0  0  0  0  0  0  0  0  0  0  0
  184.3490  179.0250  142.0860 O   0  0  0  0  0  1  0  0  0  0  0  0
  184.0760  178.6300  140.9230 C   0  0  0  0  0  0  0  0  0  0  0  0
  189.7630  177.4510  139.6840 C   0  0  0  0  0  2  0  0  0  0  0  0
  189.0700  177.0400  140.9680 C   0  0  0  0  0  2  0  0  0  0  0  0
  190.4570  177.0190  144.3660 C   0  0  2  0  0  3  0  0  0  0  0  0
  191.5600  176.1700  144.4640 O   0  0  0  0  0  1  0  0  0  0  0  0
  190.1000  176.5390  141.9560 C   0  0  2  0  0  3  0  0  0  0  0  0
  189.4820  176.4750  143.3380 C   0  0  2  0  0  3  0  0  0  0  0  0
  190.3950  177.6230  142.9740 C   0  0  1  0  0  3  0  0  0  0  0  0
  1 14  1  0  0  0  0
  1 12  1  0  0  0  0
  2  7  1  0  0  0  0
  4  8  1  0  0  0  0
  4  6  2  0  0  0  0
  5  2  2  0  0  0  0
  6  9  1  0  0  0  0
  7 10  1  0  0  0  0
  7 23  1  0  0  0  0
  8  1  2  0  0  0  0
  9 12  2  0  0  0  0
  9 10  1  0  0  0  0
 10  3  2  0  0  0  0
 13 11  1  6  0  0  0
 13  6  1  0  0  0  0
 13  2  1  0  0  0  0
 14 16  1  0  0  0  0
 14 15  2  0  0  0  0
 16 17  1  0  0  0  0
 17 18  1  0  0  0  0
 18 19  1  0  0  0  0
 19 21  1  0  0  0  0
 21 20  2  0  0  0  0
 22 21  2  0  0  0  0
 23 36  1  1  0  0  0
 24 26  1  0  0  0  0
 25 24  1  0  0  0  0
 25 26  1  0  0  0  0
 26 23  1  0  0  0  0
 27 29  2  0  0  0  0
 28 26  1  0  0  0  0
 28 29  1  0  0  0  0
 29 30  1  0  0  0  0
 30 32  1  0  0  0  0
 31 32  2  0  0  0  0
 32 35  1  0  0  0  0
 33 35  2  0  0  0  0
 35 34  1  0  0  0  0
 36 37  1  0  0  0  0
 37 40  1  0  0  0  0
 38 39  1  0  0  0  0
 40 42  1  0  0  0  0
 40 41  1  0  0  0  0
 41 38  1  0  0  0  0
 42 41  1  0  0  0  0
 42 38  1  0  0  0  0
M  END
>  <MODEL>
1

>  <REMARK>
 VINA RESULT:      -6.9      0.000      0.000
  Name = 
  14 active torsions:
  status: ('A' for Active; 'I' for Inactive)
    1  A    between atoms: C_1  and  C_8
    2  A    between atoms: C_5  and  C_7
    3  A    between atoms: C_5  and  N_20
    4  A    between atoms: C_7  and  C_11
    5  A    between atoms: C_11  and  N_40
    6  A    between atoms: C_13  and  C_36
    7  A    between atoms: N_16  and  C_24
    8  A    between atoms: C_23  and  C_28
    9  A    between atoms: C_23  and  C_35
   10  A    between atoms: C_24  and  C_28
   11  A    between atoms: C_24  and  C_41
   12  A    between atoms: C_25  and  C_36
   13  A    between atoms: C_25  and  C_39
   14  A    between atoms: N_32  and  C_41
                            x       y       z     vdW  Elec       q    Type
                         _______ _______ _______ _____ _____    ______ ____

>  <TORSDO>
F 14

$$$$
=
 OpenBabel10232411013D

 42 46  0  0  1  0  0  0  0  0999 V2000
  183.9650  178.9960  140.6880 C   0  0  0  0  0  0  0  0  0  0  0  0
  187.2040  177.5920  144.3910 C   0  0  0  0  0  0  0  0  0  0  0  0
  188.1360  179.2590  141.2950 O   0  0  0  0  0  0  0  0  0  0  0  0
  183.7700  178.2050  142.9740 C   0  0  0  0  0  3  0  0  0  0  0  0
  187.6880  176.8440  145.2830 O   0  0  0  0  0  0  0  0  0  0  0  0
  185.1590  178.2780  143.1320 C   0  0  0  0  0  0  0  0  0  0  0  0
  188.0430  178.1400  143.3510 N   0  0  0  0  0  0  0  0  0  0  0  0
  183.1780  178.5560  141.7590 C   0  0  0  0  0  3  0  0  0  0  0  0
  185.9590  178.7090  142.0570 C   0  0  0  0  0  0  0  0  0  0  0  0
  187.4250  178.7380  142.2000 C   0  0  0  0  0  0  0  0  0  0  0  0
  185.6010  179.1660  145.3980 C   0  0  0  0  0  1  0  0  0  0  0  0
  185.3560  179.0660  140.8430 C   0  0  0  0  0  3  0  0  0  0  0  0
  185.7540  177.9680  144.4770 C   0  0  2  0  0  3  0  0  0  0  0  0
  183.3400  179.3830  139.4090 C   0  0  0  0  0  0  0  0  0  0  0  0
  183.9100  179.1050  138.3180 O   0  0  0  0  0  0  0  0  0  0  0  0
  182.0810  180.0650  139.4050 N   0  0  0  0  0  2  0  0  0  0  0  0
  181.4370  180.5110  138.1800 C   0  0  0  0  0  2  0  0  0  0  0  0
  181.3310  182.0260  138.1700 C   0  0  0  0  0  2  0  0  0  0  0  0
  180.8340  182.5050  136.8160 C   0  0  0  0  0  2  0  0  0  0  0  0
  182.1920  184.4470  137.4220 O   0  0  0  0  0  0  0  0  0  0  0  0
  181.3090  183.8530  136.5520 N   0  0  0  0  0  0  0  0  0  0  0  0
  181.0240  184.4170  135.4760 O   0  0  0  0  0  0  0  0  0  0  0  0
  189.5140  178.0530  143.3960 C   0  0  2  0  0  3  0  0  0  0  0  0
  189.7650  175.4740  142.8020 C   0  0  0  0  0  2  0  0  0  0  0  0
  189.1410  176.1980  141.6130 C   0  0  0  0  0  2  0  0  0  0  0  0
  190.1030  176.9220  142.5310 C   0  0  0  0  0  0  0  0  0  0  0  0
  192.7260  177.4890  140.0160 O   0  0  0  0  0  0  0  0  0  0  0  0
  191.3850  177.1660  141.8810 N   0  0  0  0  0  2  0  0  0  0  0  0
  191.5590  177.4100  140.4820 C   0  0  0  0  0  0  0  0  0  0  0  0
  190.3860  177.5440  139.5590 C   0  0  0  0  0  2  0  0  0  0  0  0
  191.0800  175.4160  138.7370 O   0  0  0  0  0  0  0  0  0  0  0  0
  190.3460  176.4250  138.5650 C   0  0  0  0  0  0  0  0  0  0  0  0
  190.0140  176.6290  136.1210 O   0  0  0  0  0  0  0  0  0  0  0  0
  188.2170  176.4190  137.5210 O   0  0  0  0  0  1  0  0  0  0  0  0
  189.4660  176.4920  137.3900 C   0  0  0  0  0  0  0  0  0  0  0  0
  190.0500  178.0360  144.8220 C   0  0  0  0  0  2  0  0  0  0  0  0
  190.8920  176.7960  145.0520 C   0  0  0  0  0  2  0  0  0  0  0  0
  192.2910  175.5510  148.2090 C   0  0  2  0  0  3  0  0  0  0  0  0
  193.1420  176.4870  148.7970 O   0  0  0  0  0  1  0  0  0  0  0  0
  191.7720  177.0060  146.2650 C   0  0  2  0  0  3  0  0  0  0  0  0
  192.3570  175.6760  146.6970 C   0  0  2  0  0  3  0  0  0  0  0  0
  191.1860  176.2650  147.4510 C   0  0  1  0  0  3  0  0  0  0  0  0
  1 12  2  0  0  0  0
  1  8  1  0  0  0  0
  2 13  1  0  0  0  0
  2  5  2  0  0  0  0
  3 10  2  0  0  0  0
  4  6  1  0  0  0  0
  6 13  1  0  0  0  0
  7 23  1  0  0  0  0
  7  2  1  0  0  0  0
  8  4  2  0  0  0  0
  9 10  1  0  0  0  0
  9  6  2  0  0  0  0
 10  7  1  0  0  0  0
 12  9  1  0  0  0  0
 13 11  1  1  0  0  0
 14  1  1  0  0  0  0
 15 14  2  0  0  0  0
 16 14  1  0  0  0  0
 17 16  1  0  0  0  0
 18 17  1  0  0  0  0
 19 18  1  0  0  0  0
 21 19  1  0  0  0  0
 21 20  2  0  0  0  0
 22 21  2  0  0  0  0
 23 36  1  1  0  0  0
 25 26  1  0  0  0  0
 25 24  1  0  0  0  0
 26 24  1  0  0  0  0
 26 23  1  0  0  0  0
 27 29  2  0  0  0  0
 28 26  1  0  0  0  0
 29 28  1  0  0  0  0
 30 29  1  0  0  0  0
 32 31  2  0  0  0  0
 32 30  1  0  0  0  0
 33 35  2  0  0  0  0
 35 34  1  0  0  0  0
 35 32  1  0  0  0  0
 36 37  1  0  0  0  0
 37 40  1  0  0  0  0
 38 39  1  0  0  0  0
 40 41  1  0  0  0  0
 40 42  1  0  0  0  0
 41 42  1  0  0  0  0
 41 38  1  0  0  0  0
 42 38  1  0  0  0  0
M  END
>  <MODEL>
2

>  <REMARK>
 VINA RESULT:      -6.7      4.078     10.720
  Name = 
  14 active torsions:
  status: ('A' for Active; 'I' for Inactive)
    1  A    between atoms: C_1  and  C_8
    2  A    between atoms: C_5  and  C_7
    3  A    between atoms: C_5  and  N_20
    4  A    between atoms: C_7  and  C_11
    5  A    between atoms: C_11  and  N_40
    6  A    between atoms: C_13  and  C_36
    7  A    between atoms: N_16  and  C_24
    8  A    between atoms: C_23  and  C_28
    9  A    between atoms: C_23  and  C_35
   10  A    between atoms: C_24  and  C_28
   11  A    between atoms: C_24  and  C_41
   12  A    between atoms: C_25  and  C_36
   13  A    between atoms: C_25  and  C_39
   14  A    between atoms: N_32  and  C_41
                            x       y       z     vdW  Elec       q    Type
                         _______ _______ _______ _____ _____    ______ ____

>  <TORSDO>
F 14

$$$$
=
 OpenBabel10232411013D

 42 46  0  0  1  0  0  0  0  0999 V2000
  184.0190  178.9850  140.6570 C   0  0  0  0  0  0  0  0  0  0  0  0
  187.2690  177.6420  144.3730 C   0  0  0  0  0  0  0  0  0  0  0  0
  188.1900  179.2690  141.2530 O   0  0  0  0  0  0  0  0  0  0  0  0
  183.8310  178.2250  142.9540 C   0  0  0  0  0  3  0  0  0  0  0  0
  187.7570  176.9080  145.2740 O   0  0  0  0  0  0  0  0  0  0  0  0
  185.2190  178.3040  143.1090 C   0  0  0  0  0  0  0  0  0  0  0  0
  188.1050  178.1780  143.3240 N   0  0  0  0  0  0  0  0  0  0  0  0
  183.2350  178.5580  141.7350 C   0  0  0  0  0  3  0  0  0  0  0  0
  186.0160  178.7230  142.0260 C   0  0  0  0  0  0  0  0  0  0  0  0
  187.4820  178.7580  142.1660 C   0  0  0  0  0  0  0  0  0  0  0  0
  185.6620  179.2250  145.3610 C   0  0  0  0  0  1  0  0  0  0  0  0
  185.4110  179.0610  140.8090 C   0  0  0  0  0  3  0  0  0  0  0  0
  185.8180  178.0150  144.4570 C   0  0  2  0  0  3  0  0  0  0  0  0
  183.3910  179.3520  139.3740 C   0  0  0  0  0  0  0  0  0  0  0  0
  183.5620  180.5070  138.8950 O   0  0  0  0  0  0  0  0  0  0  0  0
  182.5930  178.3960  138.6680 N   0  0  0  0  0  2  0  0  0  0  0  0
  181.9120  178.7120  137.4230 C   0  0  0  0  0  2  0  0  0  0  0  0
  182.4400  177.8330  136.3030 C   0  0  0  0  0  2  0  0  0  0  0  0
  183.2410  176.6770  136.8810 C   0  0  0  0  0  2  0  0  0  0  0  0
  184.9040  175.9860  135.2250 O   0  0  0  0  0  0  0  0  0  0  0  0
  184.5990  176.6960  136.3630 N   0  0  0  0  0  0  0  0  0  0  0  0
  185.4510  177.4550  136.8690 O   0  0  0  0  0  0  0  0  0  0  0  0
  189.5750  178.0960  143.3670 C   0  0  2  0  0  3  0  0  0  0  0  0
  189.8220  175.4920  142.8910 C   0  0  0  0  0  2  0  0  0  0  0  0
  189.2020  176.1630  141.6700 C   0  0  0  0  0  2  0  0  0  0  0  0
  190.1640  176.9260  142.5560 C   0  0  0  0  0  0  0  0  0  0  0  0
  192.7810  177.4560  140.0270 O   0  0  0  0  0  0  0  0  0  0  0  0
  191.4470  177.1370  141.8980 N   0  0  0  0  0  2  0  0  0  0  0  0
  191.6170  177.4090  140.5030 C   0  0  0  0  0  0  0  0  0  0  0  0
  190.4400  177.6100  139.5960 C   0  0  0  0  0  2  0  0  0  0  0  0
  190.9070  175.4740  138.6450 O   0  0  0  0  0  0  0  0  0  0  0  0
  190.4580  176.6370  138.4590 C   0  0  0  0  0  0  0  0  0  0  0  0
  189.4260  178.2860  136.9290 O   0  0  0  0  0  1  0  0  0  0  0  0
  190.0320  176.2160  136.1650 O   0  0  0  0  0  0  0  0  0  0  0  0
  189.9650  177.0210  137.1300 C   0  0  0  0  0  0  0  0  0  0  0  0
  190.1170  178.1480  144.7910 C   0  0  0  0  0  2  0  0  0  0  0  0
  190.7860  176.8350  145.1470 C   0  0  0  0  0  2  0  0  0  0  0  0
  192.3380  175.5820  148.2280 C   0  0  2  0  0  3  0  0  0  0  0  0
  193.1970  176.5270  148.7900 O   0  0  0  0  0  1  0  0  0  0  0  0
  191.7120  177.0480  146.3240 C   0  0  2  0  0  3  0  0  0  0  0  0
  192.3380  175.7240  146.7170 C   0  0  2  0  0  3  0  0  0  0  0  0
  191.1900  176.2840  147.5250 C   0  0  1  0  0  3  0  0  0  0  0  0
  1 12  2  0  0  0  0
  1  8  1  0  0  0  0
  2 13  1  0  0  0  0
  2  5  2  0  0  0  0
  3 10  2  0  0  0  0
  4  6  1  0  0  0  0
  6 13  1  0  0  0  0
  7 23  1  0  0  0  0
  7  2  1  0  0  0  0
  8  4  2  0  0  0  0
  9 10  1  0  0  0  0
  9  6  2  0  0  0  0
 10  7  1  0  0  0  0
 12  9  1  0  0  0  0
 13 11  1  1  0  0  0
 14  1  1  0  0  0  0
 15 14  2  0  0  0  0
 16 14  1  0  0  0  0
 17 16  1  0  0  0  0
 18 19  1  0  0  0  0
 18 17  1  0  0  0  0
 20 21  2  0  0  0  0
 21 22  2  0  0  0  0
 21 19  1  0  0  0  0
 23 36  1  1  0  0  0
 25 26  1  0  0  0  0
 25 24  1  0  0  0  0
 26 24  1  0  0  0  0
 26 23  1  0  0  0  0
 27 29  2  0  0  0  0
 28 26  1  0  0  0  0
 29 28  1  0  0  0  0
 30 29  1  0  0  0  0
 32 31  2  0  0  0  0
 32 30  1  0  0  0  0
 33 35  1  0  0  0  0
 34 35  2  0  0  0  0
 35 32  1  0  0  0  0
 36 37  1  0  0  0  0
 37 40  1  0  0  0  0
 38 39  1  0  0  0  0
 40 41  1  0  0  0  0
 40 42  1  0  0  0  0
 41 42  1  0  0  0  0
 41 38  1  0  0  0  0
 42 38  1  0  0  0  0
M  END
>  <MODEL>
3

>  <REMARK>
 VINA RESULT:      -6.7      3.995      9.855
  Name = 
  14 active torsions:
  status: ('A' for Active; 'I' for Inactive)
    1  A    between atoms: C_1  and  C_8
    2  A    between atoms: C_5  and  C_7
    3  A    between atoms: C_5  and  N_20
    4  A    between atoms: C_7  and  C_11
    5  A    between atoms: C_11  and  N_40
    6  A    between atoms: C_13  and  C_36
    7  A    between atoms: N_16  and  C_24
    8  A    between atoms: C_23  and  C_28
    9  A    between atoms: C_23  and  C_35
   10  A    between atoms: C_24  and  C_28
   11  A    between atoms: C_24  and  C_41
   12  A    between atoms: C_25  and  C_36
   13  A    between atoms: C_25  and  C_39
   14  A    between atoms: N_32  and  C_41
                            x       y       z     vdW  Elec       q    Type
                         _______ _______ _______ _____ _____    ______ ____

>  <TORSDO>
F 14

$$$$
=
 OpenBabel10232411013D

 42 46  0  0  1  0  0  0  0  0999 V2000
  182.4510  178.8650  142.7470 C   0  0  0  0  0  0  0  0  0  0  0  0
  186.7550  177.9280  145.3490 C   0  0  0  0  0  0  0  0  0  0  0  0
  186.5800  178.9940  141.8750 O   0  0  0  0  0  0  0  0  0  0  0  0
  183.0420  178.4840  145.0700 C   0  0  0  0  0  3  0  0  0  0  0  0
  187.5150  177.3150  146.1460 O   0  0  0  0  0  0  0  0  0  0  0  0
  184.4020  178.5050  144.7410 C   0  0  0  0  0  0  0  0  0  0  0  0
  187.1920  178.2440  144.0090 N   0  0  0  0  0  0  0  0  0  0  0  0
  182.0730  178.6570  144.0790 C   0  0  0  0  0  3  0  0  0  0  0  0
  184.7900  178.7030  143.4030 C   0  0  0  0  0  0  0  0  0  0  0  0
  186.2180  178.6740  143.0420 C   0  0  0  0  0  0  0  0  0  0  0  0
  185.5780  179.7360  146.5350 C   0  0  0  0  0  1  0  0  0  0  0  0
  183.8120  178.8830  142.4150 C   0  0  0  0  0  3  0  0  0  0  0  0
  185.4170  178.3940  145.8440 C   0  0  2  0  0  3  0  0  0  0  0  0
  181.4290  179.0650  141.7020 C   0  0  0  0  0  0  0  0  0  0  0  0
  180.3820  179.7200  141.9600 O   0  0  0  0  0  0  0  0  0  0  0  0
  181.6290  178.5250  140.3920 N   0  0  0  0  0  2  0  0  0  0  0  0
  180.6400  178.6500  139.3340 C   0  0  0  0  0  2  0  0  0  0  0  0
  181.2010  179.4820  138.1940 C   0  0  0  0  0  2  0  0  0  0  0  0
  181.1870  180.9560  138.5670 C   0  0  0  0  0  2  0  0  0  0  0  0
  182.7660  182.8230  138.5160 O   0  0  0  0  0  0  0  0  0  0  0  0
  182.5440  181.4720  138.6350 N   0  0  0  0  0  0  0  0  0  0  0  0
  183.4870  180.7110  138.9340 O   0  0  0  0  0  0  0  0  0  0  0  0
  188.5910  178.0850  143.5760 C   0  0  2  0  0  3  0  0  0  0  0  0
  189.8590  175.8520  142.8850 C   0  0  0  0  0  2  0  0  0  0  0  0
  188.3770  175.5430  143.0750 C   0  0  0  0  0  2  0  0  0  0  0  0
  188.8180  176.9120  142.6030 C   0  0  0  0  0  0  0  0  0  0  0  0
  189.0420  177.6510  139.0070 O   0  0  0  0  0  0  0  0  0  0  0  0
  188.4920  177.1260  141.1990 N   0  0  0  0  0  2  0  0  0  0  0  0
  189.4510  177.3620  140.1620 C   0  0  0  0  0  0  0  0  0  0  0  0
  190.9240  177.3010  140.4300 C   0  0  0  0  0  2  0  0  0  0  0  0
  191.0440  175.5980  138.7670 O   0  0  0  0  0  0  0  0  0  0  0  0
  191.6400  176.5340  139.3630 C   0  0  0  0  0  0  0  0  0  0  0  0
  193.5250  176.4950  137.7610 O   0  0  0  0  0  0  0  0  0  0  0  0
  193.7740  177.4600  139.8200 O   0  0  0  0  0  1  0  0  0  0  0  0
  193.0290  176.8550  139.0070 C   0  0  0  0  0  0  0  0  0  0  0  0
  189.5610  178.0610  144.7510 C   0  0  0  0  0  2  0  0  0  0  0  0
  190.9770  177.8240  144.2610 C   0  0  0  0  0  2  0  0  0  0  0  0
  191.7590  175.7160  147.1610 C   0  0  2  0  0  3  0  0  0  0  0  0
  192.9160  176.1460  147.8110 O   0  0  0  0  0  1  0  0  0  0  0  0
  191.8680  177.5020  145.4400 C   0  0  2  0  0  3  0  0  0  0  0  0
  191.8680  176.0050  145.6750 C   0  0  2  0  0  3  0  0  0  0  0  0
  191.0350  176.9060  146.5570 C   0  0  1  0  0  3  0  0  0  0  0  0
  1  8  1  0  0  0  0
  2 13  1  0  0  0  0
  2  5  2  0  0  0  0
  3 10  2  0  0  0  0
  6  4  1  0  0  0  0
  6 13  1  0  0  0  0
  7  2  1  0  0  0  0
  8  4  2  0  0  0  0
  9  6  2  0  0  0  0
 10  9  1  0  0  0  0
 10  7  1  0  0  0  0
 12  1  2  0  0  0  0
 12  9  1  0  0  0  0
 13 11  1  6  0  0  0
 14 15  2  0  0  0  0
 14  1  1  0  0  0  0
 16 14  1  0  0  0  0
 17 16  1  0  0  0  0
 18 19  1  0  0  0  0
 18 17  1  0  0  0  0
 19 21  1  0  0  0  0
 20 21  2  0  0  0  0
 21 22  2  0  0  0  0
 23  7  1  0  0  0  0
 23 36  1  1  0  0  0
 24 25  1  0  0  0  0
 26 24  1  0  0  0  0
 26 25  1  0  0  0  0
 26 23  1  0  0  0  0
 27 29  2  0  0  0  0
 28 26  1  0  0  0  0
 29 30  1  0  0  0  0
 29 28  1  0  0  0  0
 31 32  2  0  0  0  0
 32 30  1  0  0  0  0
 33 35  2  0  0  0  0
 35 32  1  0  0  0  0
 35 34  1  0  0  0  0
 37 36  1  0  0  0  0
 37 40  1  0  0  0  0
 38 39  1  0  0  0  0
 40 41  1  0  0  0  0
 40 42  1  0  0  0  0
 41 42  1  0  0  0  0
 41 38  1  0  0  0  0
 42 38  1  0  0  0  0
M  END
>  <MODEL>
4

>  <REMARK>
 VINA RESULT:      -6.6      4.159     10.995
  Name = 
  14 active torsions:
  status: ('A' for Active; 'I' for Inactive)
    1  A    between atoms: C_1  and  C_8
    2  A    between atoms: C_5  and  C_7
    3  A    between atoms: C_5  and  N_20
    4  A    between atoms: C_7  and  C_11
    5  A    between atoms: C_11  and  N_40
    6  A    between atoms: C_13  and  C_36
    7  A    between atoms: N_16  and  C_24
    8  A    between atoms: C_23  and  C_28
    9  A    between atoms: C_23  and  C_35
   10  A    between atoms: C_24  and  C_28
   11  A    between atoms: C_24  and  C_41
   12  A    between atoms: C_25  and  C_36
   13  A    between atoms: C_25  and  C_39
   14  A    between atoms: N_32  and  C_41
                            x       y       z     vdW  Elec       q    Type
                         _______ _______ _______ _____ _____    ______ ____

>  <TORSDO>
F 14

$$$$
=
 OpenBabel10232411013D

 42 46  0  0  1  0  0  0  0  0999 V2000
  189.6660  177.5890  140.8780 C   0  0  0  0  0  0  0  0  0  0  0  0
  185.3790  178.0820  138.1290 C   0  0  0  0  0  0  0  0  0  0  0  0
  186.0130  179.6540  141.3480 O   0  0  0  0  0  0  0  0  0  0  0  0
  188.9610  177.0320  138.6230 C   0  0  0  0  0  3  0  0  0  0  0  0
  184.4260  177.7060  137.3960 O   0  0  0  0  0  0  0  0  0  0  0  0
  187.7490  177.7020  138.8220 C   0  0  0  0  0  0  0  0  0  0  0  0
  185.1290  178.8210  139.3440 N   0  0  0  0  0  0  0  0  0  0  0  0
  189.9110  176.9710  139.6450 C   0  0  0  0  0  3  0  0  0  0  0  0
  187.4900  178.3170  140.0620 C   0  0  0  0  0  0  0  0  0  0  0  0
  186.1950  178.9780  140.2960 C   0  0  0  0  0  0  0  0  0  0  0  0
  187.2260  178.9240  136.7370 C   0  0  0  0  0  1  0  0  0  0  0  0
  188.4510  178.2570  141.0810 C   0  0  0  0  0  3  0  0  0  0  0  0
  186.7840  177.8160  137.6750 C   0  0  2  0  0  3  0  0  0  0  0  0
  190.6750  177.5390  141.9530 C   0  0  0  0  0  0  0  0  0  0  0  0
  191.8350  177.1060  141.7110 O   0  0  0  0  0  0  0  0  0  0  0  0
  190.3410  177.9920  143.2690 N   0  0  0  0  0  2  0  0  0  0  0  0
  191.2780  177.9270  144.3800 C   0  0  0  0  0  2  0  0  0  0  0  0
  191.1980  176.5670  145.0480 C   0  0  0  0  0  2  0  0  0  0  0  0
  191.5780  176.6820  146.5160 C   0  0  0  0  0  2  0  0  0  0  0  0
  189.1610  176.8100  146.8700 O   0  0  0  0  0  0  0  0  0  0  0  0
  190.4320  177.1060  147.3020 N   0  0  0  0  0  0  0  0  0  0  0  0
  190.6010  177.6170  148.4280 O   0  0  0  0  0  0  0  0  0  0  0  0
  183.8020  179.3700  139.6750 C   0  0  2  0  0  3  0  0  0  0  0  0
  182.3050  177.1750  139.7660 C   0  0  0  0  0  2  0  0  0  0  0  0
  183.4660  177.0250  140.7440 C   0  0  0  0  0  2  0  0  0  0  0  0
  182.8910  178.3930  140.4430 C   0  0  0  0  0  0  0  0  0  0  0  0
  181.7710  179.2440  143.8410 O   0  0  0  0  0  0  0  0  0  0  0  0
  182.1360  178.9190  141.5730 N   0  0  0  0  0  2  0  0  0  0  0  0
  182.5620  178.8630  142.9380 C   0  0  0  0  0  0  0  0  0  0  0  0
  183.9120  178.3350  143.3170 C   0  0  0  0  0  2  0  0  0  0  0  0
  184.4700  180.4940  144.1610 O   0  0  0  0  0  0  0  0  0  0  0  0
  184.6020  179.2470  144.2820 C   0  0  0  0  0  0  0  0  0  0  0  0
  186.1150  177.5090  145.1870 O   0  0  0  0  0  0  0  0  0  0  0  0
  185.5470  179.3260  146.4560 O   0  0  0  0  0  1  0  0  0  0  0  0
  185.4360  178.7070  145.3650 C   0  0  0  0  0  0  0  0  0  0  0  0
  183.1100  179.9810  138.4630 C   0  0  0  0  0  2  0  0  0  0  0  0
  181.8790  180.7550  138.8950 C   0  0  0  0  0  2  0  0  0  0  0  0
  180.1900  183.6820  137.4620 C   0  0  2  0  0  3  0  0  0  0  0  0
  179.9830  183.5340  136.0900 O   0  0  0  0  0  1  0  0  0  0  0  0
  181.2900  181.4680  137.6970 C   0  0  2  0  0  3  0  0  0  0  0  0
  181.4650  182.9640  137.8690 C   0  0  2  0  0  3  0  0  0  0  0  0
  180.1220  182.3260  138.1420 C   0  0  1  0  0  3  0  0  0  0  0  0
  1 12  1  0  0  0  0
  1 14  1  0  0  0  0
  2  7  1  0  0  0  0
  4  6  2  0  0  0  0
  4  8  1  0  0  0  0
  5  2  2  0  0  0  0
  6  9  1  0  0  0  0
  7 23  1  0  0  0  0
  7 10  1  0  0  0  0
  8  1  2  0  0  0  0
  9 10  1  0  0  0  0
  9 12  2  0  0  0  0
 10  3  2  0  0  0  0
 13 11  1  6  0  0  0
 13  2  1  0  0  0  0
 13  6  1  0  0  0  0
 14 16  1  0  0  0  0
 15 14  2  0  0  0  0
 16 17  1  0  0  0  0
 17 18  1  0  0  0  0
 18 19  1  0  0  0  0
 19 21  1  0  0  0  0
 20 21  2  0  0  0  0
 21 22  2  0  0  0  0
 23 36  1  6  0  0  0
 23 26  1  0  0  0  0
 24 26  1  0  0  0  0
 24 25  1  0  0  0  0
 26 25  1  0  0  0  0
 26 28  1  0  0  0  0
 28 29  1  0  0  0  0
 29 30  1  0  0  0  0
 29 27  2  0  0  0  0
 30 32  1  0  0  0  0
 31 32  2  0  0  0  0
 32 35  1  0  0  0  0
 33 35  2  0  0  0  0
 35 34  1  0  0  0  0
 36 37  1  0  0  0  0
 38 41  1  0  0  0  0
 38 42  1  0  0  0  0
 39 38  1  0  0  0  0
 40 41  1  0  0  0  0
 40 42  1  0  0  0  0
 40 37  1  0  0  0  0
 41 42  1  0  0  0  0
M  END
>  <MODEL>
5

>  <REMARK>
 VINA RESULT:      -6.5      4.672      8.002
  Name = 
  14 active torsions:
  status: ('A' for Active; 'I' for Inactive)
    1  A    between atoms: C_1  and  C_8
    2  A    between atoms: C_5  and  C_7
    3  A    between atoms: C_5  and  N_20
    4  A    between atoms: C_7  and  C_11
    5  A    between atoms: C_11  and  N_40
    6  A    between atoms: C_13  and  C_36
    7  A    between atoms: N_16  and  C_24
    8  A    between atoms: C_23  and  C_28
    9  A    between atoms: C_23  and  C_35
   10  A    between atoms: C_24  and  C_28
   11  A    between atoms: C_24  and  C_41
   12  A    between atoms: C_25  and  C_36
   13  A    between atoms: C_25  and  C_39
   14  A    between atoms: N_32  and  C_41
                            x       y       z     vdW  Elec       q    Type
                         _______ _______ _______ _____ _____    ______ ____

>  <TORSDO>
F 14

$$$$
=
 OpenBabel10232411013D

 42 46  0  0  1  0  0  0  0  0999 V2000
  192.9770  175.9830  137.1660 C   0  0  0  0  0  0  0  0  0  0  0  0
  188.6540  177.5610  139.4020 C   0  0  0  0  0  0  0  0  0  0  0  0
  191.9670  177.6780  140.8990 O   0  0  0  0  0  0  0  0  0  0  0  0
  190.6930  176.3980  136.4580 C   0  0  0  0  0  3  0  0  0  0  0  0
  187.4370  177.5200  139.7250 O   0  0  0  0  0  0  0  0  0  0  0  0
  190.3850  176.9290  137.7160 C   0  0  0  0  0  0  0  0  0  0  0  0
  189.6780  177.7390  140.4050 N   0  0  0  0  0  0  0  0  0  0  0  0
  191.9780  175.9230  136.1860 C   0  0  0  0  0  3  0  0  0  0  0  0
  191.3810  176.9830  138.7090 C   0  0  0  0  0  0  0  0  0  0  0  0
  191.0500  177.4920  140.0520 C   0  0  0  0  0  0  0  0  0  0  0  0
  188.9330  178.8980  137.3530 C   0  0  0  0  0  1  0  0  0  0  0  0
  192.6690  176.5100  138.4270 C   0  0  0  0  0  3  0  0  0  0  0  0
  189.0150  177.5030  137.9470 C   0  0  2  0  0  3  0  0  0  0  0  0
  194.3390  175.4970  136.8750 C   0  0  0  0  0  0  0  0  0  0  0  0
  195.1270  176.2020  136.1880 O   0  0  0  0  0  0  0  0  0  0  0  0
  194.7700  174.2290  137.3820 N   0  0  0  0  0  2  0  0  0  0  0  0
  196.0830  173.6770  137.0930 C   0  0  0  0  0  2  0  0  0  0  0  0
  196.8080  173.3540  138.3880 C   0  0  0  0  0  2  0  0  0  0  0  0
  197.6100  174.5600  138.8520 C   0  0  0  0  0  2  0  0  0  0  0  0
  197.9610  175.2470  141.1730 O   0  0  0  0  0  0  0  0  0  0  0  0
  197.0980  175.0480  140.1210 N   0  0  0  0  0  0  0  0  0  0  0  0
  195.9080  175.4120  140.2170 O   0  0  0  0  0  0  0  0  0  0  0  0
  189.3640  178.1060  141.7970 C   0  0  2  0  0  3  0  0  0  0  0  0
  188.4160  176.1140  143.2820 C   0  0  0  0  0  2  0  0  0  0  0  0
  189.4240  175.5530  142.2830 C   0  0  0  0  0  2  0  0  0  0  0  0
  189.5740  176.9650  142.8100 C   0  0  0  0  0  0  0  0  0  0  0  0
  191.7010  177.8210  145.6860 O   0  0  0  0  0  0  0  0  0  0  0  0
  190.6980  177.0760  143.7310 N   0  0  0  0  0  2  0  0  0  0  0  0
  190.6370  177.6760  145.0290 C   0  0  0  0  0  0  0  0  0  0  0  0
  189.3420  178.1620  145.6060 C   0  0  0  0  0  2  0  0  0  0  0  0
  189.7010  176.4450  147.2210 O   0  0  0  0  0  0  0  0  0  0  0  0
  188.9980  177.4280  146.8640 C   0  0  0  0  0  0  0  0  0  0  0  0
  187.8840  177.6610  149.0620 O   0  0  0  0  0  1  0  0  0  0  0  0
  186.8310  178.3460  147.1510 O   0  0  0  0  0  0  0  0  0  0  0  0
  187.8490  177.8340  147.6850 C   0  0  0  0  0  0  0  0  0  0  0  0
  187.9930  178.7570  141.9290 C   0  0  0  0  0  2  0  0  0  0  0  0
  187.2640  178.2070  143.1410 C   0  0  0  0  0  2  0  0  0  0  0  0
  183.9110  179.0390  144.3790 C   0  0  2  0  0  3  0  0  0  0  0  0
  182.9350  178.8130  143.4080 O   0  0  0  0  0  1  0  0  0  0  0  0
  185.7720  178.2980  142.9110 C   0  0  2  0  0  3  0  0  0  0  0  0
  185.2100  179.4550  143.7130 C   0  0  2  0  0  3  0  0  0  0  0  0
  185.0420  178.0400  144.2140 C   0  0  1  0  0  3  0  0  0  0  0  0
  1 12  1  0  0  0  0
  2  5  2  0  0  0  0
  2  7  1  0  0  0  0
  4  6  2  0  0  0  0
  6 13  1  0  0  0  0
  6  9  1  0  0  0  0
  7 23  1  0  0  0  0
  8  4  1  0  0  0  0
  8  1  2  0  0  0  0
  9 10  1  0  0  0  0
 10  7  1  0  0  0  0
 10  3  2  0  0  0  0
 12  9  2  0  0  0  0
 13 11  1  1  0  0  0
 13  2  1  0  0  0  0
 14  1  1  0  0  0  0
 14 16  1  0  0  0  0
 15 14  2  0  0  0  0
 17 16  1  0  0  0  0
 17 18  1  0  0  0  0
 18 19  1  0  0  0  0
 19 21  1  0  0  0  0
 21 22  2  0  0  0  0
 21 20  2  0  0  0  0
 23 36  1  6  0  0  0
 23 26  1  0  0  0  0
 25 26  1  0  0  0  0
 25 24  1  0  0  0  0
 26 24  1  0  0  0  0
 26 28  1  0  0  0  0
 28 29  1  0  0  0  0
 29 30  1  0  0  0  0
 29 27  2  0  0  0  0
 30 32  1  0  0  0  0
 32 31  2  0  0  0  0
 32 35  1  0  0  0  0
 34 35  2  0  0  0  0
 35 33  1  0  0  0  0
 36 37  1  0  0  0  0
 39 38  1  0  0  0  0
 40 37  1  0  0  0  0
 40 41  1  0  0  0  0
 40 42  1  0  0  0  0
 41 42  1  0  0  0  0
 41 38  1  0  0  0  0
 42 38  1  0  0  0  0
M  END
>  <MODEL>
6

>  <REMARK>
 VINA RESULT:      -6.3      2.723      5.467
  Name = 
  14 active torsions:
  status: ('A' for Active; 'I' for Inactive)
    1  A    between atoms: C_1  and  C_8
    2  A    between atoms: C_5  and  C_7
    3  A    between atoms: C_5  and  N_20
    4  A    between atoms: C_7  and  C_11
    5  A    between atoms: C_11  and  N_40
    6  A    between atoms: C_13  and  C_36
    7  A    between atoms: N_16  and  C_24
    8  A    between atoms: C_23  and  C_28
    9  A    between atoms: C_23  and  C_35
   10  A    between atoms: C_24  and  C_28
   11  A    between atoms: C_24  and  C_41
   12  A    between atoms: C_25  and  C_36
   13  A    between atoms: C_25  and  C_39
   14  A    between atoms: N_32  and  C_41
                            x       y       z     vdW  Elec       q    Type
                         _______ _______ _______ _____ _____    ______ ____

>  <TORSDO>
F 14

$$$$
=
 OpenBabel10232411013D

 42 46  0  0  1  0  0  0  0  0999 V2000
  190.5610  175.0210  136.7340 C   0  0  0  0  0  0  0  0  0  0  0  0
  188.0930  178.1200  139.9710 C   0  0  0  0  0  0  0  0  0  0  0  0
  190.9300  176.0100  140.8230 O   0  0  0  0  0  0  0  0  0  0  0  0
  188.9110  176.7910  136.5450 C   0  0  0  0  0  3  0  0  0  0  0  0
  187.0980  178.6820  140.5030 O   0  0  0  0  0  0  0  0  0  0  0  0
  189.0380  177.0740  137.9100 C   0  0  0  0  0  0  0  0  0  0  0  0
  189.0810  177.4480  140.7810 N   0  0  0  0  0  0  0  0  0  0  0  0
  189.6630  175.7680  135.9620 C   0  0  0  0  0  3  0  0  0  0  0  0
  189.9310  176.3210  138.6950 C   0  0  0  0  0  0  0  0  0  0  0  0
  190.0310  176.5780  140.1420 C   0  0  0  0  0  0  0  0  0  0  0  0
  188.9860  179.5330  138.1640 C   0  0  0  0  0  1  0  0  0  0  0  0
  190.6870  175.3010  138.1020 C   0  0  0  0  0  3  0  0  0  0  0  0
  188.2730  178.2320  138.4860 C   0  0  2  0  0  3  0  0  0  0  0  0
  191.3680  173.9520  136.1170 C   0  0  0  0  0  0  0  0  0  0  0  0
  190.8670  173.2230  135.2170 O   0  0  0  0  0  0  0  0  0  0  0  0
  192.7230  173.7470  136.5310 N   0  0  0  0  0  2  0  0  0  0  0  0
  193.5530  172.6830  135.9930 C   0  0  0  0  0  2  0  0  0  0  0  0
  194.9950  172.8770  136.4280 C   0  0  0  0  0  2  0  0  0  0  0  0
  195.1780  174.2650  137.0220 C   0  0  0  0  0  2  0  0  0  0  0  0
  195.3600  173.1620  139.1980 O   0  0  0  0  0  0  0  0  0  0  0  0
  195.7540  174.1730  138.3530 N   0  0  0  0  0  0  0  0  0  0  0  0
  196.6960  174.9230  138.6800 O   0  0  0  0  0  0  0  0  0  0  0  0
  189.1160  177.5710  142.2490 C   0  0  2  0  0  3  0  0  0  0  0  0
  191.5390  178.6560  142.3950 C   0  0  0  0  0  2  0  0  0  0  0  0
  190.8550  178.7840  143.7530 C   0  0  0  0  0  2  0  0  0  0  0  0
  190.5370  177.6160  142.8430 C   0  0  0  0  0  0  0  0  0  0  0  0
  192.1420  175.0890  144.9800 O   0  0  0  0  0  0  0  0  0  0  0  0
  191.0970  176.3710  143.3520 N   0  0  0  0  0  2  0  0  0  0  0  0
  191.5700  176.1720  144.6890 C   0  0  0  0  0  0  0  0  0  0  0  0
  191.4250  177.2350  145.7360 C   0  0  0  0  0  2  0  0  0  0  0  0
  191.5390  175.8770  147.6920 O   0  0  0  0  0  0  0  0  0  0  0  0
  190.8530  176.6770  147.0010 C   0  0  0  0  0  0  0  0  0  0  0  0
  189.1020  178.3760  147.4190 O   0  0  0  0  0  0  0  0  0  0  0  0
  188.6970  176.1650  147.8450 O   0  0  0  0  0  1  0  0  0  0  0  0
  189.5020  177.0460  147.4460 C   0  0  0  0  0  0  0  0  0  0  0  0
  188.2300  176.5390  142.9380 C   0  0  0  0  0  2  0  0  0  0  0  0
  187.9000  176.9860  144.3480 C   0  0  0  0  0  2  0  0  0  0  0  0
  185.2160  178.7820  146.0920 C   0  0  2  0  0  3  0  0  0  0  0  0
  184.0270  178.7610  145.3620 O   0  0  0  0  0  1  0  0  0  0  0  0
  186.4650  177.4620  144.4000 C   0  0  2  0  0  3  0  0  0  0  0  0
  186.4000  178.7820  145.1420 C   0  0  2  0  0  3  0  0  0  0  0  0
  185.9960  177.5040  145.8410 C   0  0  1  0  0  3  0  0  0  0  0  0
  1 12  1  0  0  0  0
  2  5  2  0  0  0  0
  2  7  1  0  0  0  0
  4  6  2  0  0  0  0
  6 13  1  0  0  0  0
  6  9  1  0  0  0  0
  7 23  1  0  0  0  0
  8  4  1  0  0  0  0
  8  1  2  0  0  0  0
  9 10  1  0  0  0  0
 10  7  1  0  0  0  0
 10  3  2  0  0  0  0
 12  9  2  0  0  0  0
 13 11  1  1  0  0  0
 13  2  1  0  0  0  0
 14 16  1  0  0  0  0
 14  1  1  0  0  0  0
 15 14  2  0  0  0  0
 17 18  1  0  0  0  0
 17 16  1  0  0  0  0
 18 19  1  0  0  0  0
 19 21  1  0  0  0  0
 21 22  2  0  0  0  0
 21 20  2  0  0  0  0
 23 26  1  0  0  0  0
 23 36  1  1  0  0  0
 24 26  1  0  0  0  0
 24 25  1  0  0  0  0
 26 28  1  0  0  0  0
 26 25  1  0  0  0  0
 28 29  1  0  0  0  0
 29 27  2  0  0  0  0
 29 30  1  0  0  0  0
 30 32  1  0  0  0  0
 32 35  1  0  0  0  0
 32 31  2  0  0  0  0
 33 35  2  0  0  0  0
 35 34  1  0  0  0  0
 36 37  1  0  0  0  0
 37 40  1  0  0  0  0
 39 38  1  0  0  0  0
 40 41  1  0  0  0  0
 40 42  1  0  0  0  0
 41 42  1  0  0  0  0
 41 38  1  0  0  0  0
 42 38  1  0  0  0  0
M  END
>  <MODEL>
7

>  <REMARK>
 VINA RESULT:      -6.1      2.639      6.144
  Name = 
  14 active torsions:
  status: ('A' for Active; 'I' for Inactive)
    1  A    between atoms: C_1  and  C_8
    2  A    between atoms: C_5  and  C_7
    3  A    between atoms: C_5  and  N_20
    4  A    between atoms: C_7  and  C_11
    5  A    between atoms: C_11  and  N_40
    6  A    between atoms: C_13  and  C_36
    7  A    between atoms: N_16  and  C_24
    8  A    between atoms: C_23  and  C_28
    9  A    between atoms: C_23  and  C_35
   10  A    between atoms: C_24  and  C_28
   11  A    between atoms: C_24  and  C_41
   12  A    between atoms: C_25  and  C_36
   13  A    between atoms: C_25  and  C_39
   14  A    between atoms: N_32  and  C_41
                            x       y       z     vdW  Elec       q    Type
                         _______ _______ _______ _____ _____    ______ ____

>  <TORSDO>
F 14

$$$$
=
 OpenBabel10232411013D

 42 46  0  0  1  0  0  0  0  0999 V2000
  191.4160  176.8170  139.2220 C   0  0  0  0  0  0  0  0  0  0  0  0
  188.5940  175.0170  135.3530 C   0  0  0  0  0  0  0  0  0  0  0  0
  187.2870  176.5710  138.3700 O   0  0  0  0  0  0  0  0  0  0  0  0
  191.8390  176.0460  136.9600 C   0  0  0  0  0  3  0  0  0  0  0  0
  188.2570  174.2120  134.4430 O   0  0  0  0  0  0  0  0  0  0  0  0
  190.4630  175.9500  136.7200 C   0  0  0  0  0  0  0  0  0  0  0  0
  187.6350  175.4630  136.3360 N   0  0  0  0  0  0  0  0  0  0  0  0
  192.3120  176.4720  138.2030 C   0  0  0  0  0  3  0  0  0  0  0  0
  189.5550  176.2860  137.7430 C   0  0  0  0  0  0  0  0  0  0  0  0
  188.1080  176.1360  137.5150 C   0  0  0  0  0  0  0  0  0  0  0  0
  190.0520  176.7690  134.4230 C   0  0  0  0  0  1  0  0  0  0  0  0
  190.0380  176.7180  138.9850 C   0  0  0  0  0  3  0  0  0  0  0  0
  189.9900  175.5650  135.3470 C   0  0  2  0  0  3  0  0  0  0  0  0
  191.9130  177.2820  140.5300 C   0  0  0  0  0  0  0  0  0  0  0  0
  193.1040  177.6810  140.6470 O   0  0  0  0  0  0  0  0  0  0  0  0
  191.0420  177.2900  141.6660 N   0  0  0  0  0  2  0  0  0  0  0  0
  191.4860  177.6950  142.9900 C   0  0  0  0  0  2  0  0  0  0  0  0
  190.4660  177.2720  144.0320 C   0  0  0  0  0  2  0  0  0  0  0  0
  189.1230  177.0040  143.3700 C   0  0  0  0  0  2  0  0  0  0  0  0
  188.2270  177.3510  145.6200 O   0  0  0  0  0  0  0  0  0  0  0  0
  188.0380  177.3850  144.2590 N   0  0  0  0  0  0  0  0  0  0  0  0
  186.9860  177.8670  143.7890 O   0  0  0  0  0  0  0  0  0  0  0  0
  186.1910  175.1990  136.2070 C   0  0  2  0  0  3  0  0  0  0  0  0
  186.0170  177.6860  135.2830 C   0  0  0  0  0  2  0  0  0  0  0  0
  185.2550  176.7540  134.3460 C   0  0  0  0  0  2  0  0  0  0  0  0
  185.3580  176.4370  135.8230 C   0  0  0  0  0  0  0  0  0  0  0  0
  182.7530  177.5330  138.1770 O   0  0  0  0  0  0  0  0  0  0  0  0
  184.0840  176.6330  136.5040 N   0  0  0  0  0  2  0  0  0  0  0  0
  183.8680  177.5370  137.5920 C   0  0  0  0  0  0  0  0  0  0  0  0
  184.9470  178.4620  138.0670 C   0  0  0  0  0  2  0  0  0  0  0  0
  183.8950  180.4080  138.9580 O   0  0  0  0  0  0  0  0  0  0  0  0
  184.4720  179.3140  139.2020 C   0  0  0  0  0  0  0  0  0  0  0  0
  185.6220  179.5390  141.3820 O   0  0  0  0  0  1  0  0  0  0  0  0
  183.9910  177.9610  141.0890 O   0  0  0  0  0  0  0  0  0  0  0  0
  184.6740  178.8960  140.5960 C   0  0  0  0  0  0  0  0  0  0  0  0
  185.6250  174.4700  137.4200 C   0  0  0  0  0  2  0  0  0  0  0  0
  185.5760  172.9770  137.1610 C   0  0  0  0  0  2  0  0  0  0  0  0
  183.5010  170.5380  135.3680 C   0  0  2  0  0  3  0  0  0  0  0  0
  182.2900  171.0970  134.9590 O   0  0  0  0  0  1  0  0  0  0  0  0
  184.2980  172.6380  136.4250 C   0  0  2  0  0  3  0  0  0  0  0  0
  183.9510  171.1820  136.6660 C   0  0  2  0  0  3  0  0  0  0  0  0
  184.5860  171.5990  135.3600 C   0  0  1  0  0  3  0  0  0  0  0  0
  1 14  1  0  0  0  0
  2  7  1  0  0  0  0
  4  8  1  0  0  0  0
  5  2  2  0  0  0  0
  6  4  2  0  0  0  0
  6  9  1  0  0  0  0
  7 10  1  0  0  0  0
  8  1  2  0  0  0  0
  9 12  2  0  0  0  0
 10  9  1  0  0  0  0
 10  3  2  0  0  0  0
 12  1  1  0  0  0  0
 13 11  1  6  0  0  0
 13  2  1  0  0  0  0
 13  6  1  0  0  0  0
 14 15  2  0  0  0  0
 14 16  1  0  0  0  0
 16 17  1  0  0  0  0
 17 18  1  0  0  0  0
 19 18  1  0  0  0  0
 19 21  1  0  0  0  0
 21 20  2  0  0  0  0
 22 21  2  0  0  0  0
 23  7  1  0  0  0  0
 23 36  1  1  0  0  0
 24 26  1  0  0  0  0
 25 24  1  0  0  0  0
 25 26  1  0  0  0  0
 26 23  1  0  0  0  0
 26 28  1  0  0  0  0
 28 29  1  0  0  0  0
 29 30  1  0  0  0  0
 29 27  2  0  0  0  0
 30 32  1  0  0  0  0
 31 32  2  0  0  0  0
 32 35  1  0  0  0  0
 35 34  2  0  0  0  0
 35 33  1  0  0  0  0
 37 36  1  0  0  0  0
 38 41  1  0  0  0  0
 39 38  1  0  0  0  0
 40 41  1  0  0  0  0
 40 37  1  0  0  0  0
 42 38  1  0  0  0  0
 42 40  1  0  0  0  0
 42 41  1  0  0  0  0
M  END
>  <MODEL>
8

>  <REMARK>
 VINA RESULT:      -6.0      3.506      6.493
  Name = 
  14 active torsions:
  status: ('A' for Active; 'I' for Inactive)
    1  A    between atoms: C_1  and  C_8
    2  A    between atoms: C_5  and  C_7
    3  A    between atoms: C_5  and  N_20
    4  A    between atoms: C_7  and  C_11
    5  A    between atoms: C_11  and  N_40
    6  A    between atoms: C_13  and  C_36
    7  A    between atoms: N_16  and  C_24
    8  A    between atoms: C_23  and  C_28
    9  A    between atoms: C_23  and  C_35
   10  A    between atoms: C_24  and  C_28
   11  A    between atoms: C_24  and  C_41
   12  A    between atoms: C_25  and  C_36
   13  A    between atoms: C_25  and  C_39
   14  A    between atoms: N_32  and  C_41
                            x       y       z     vdW  Elec       q    Type
                         _______ _______ _______ _____ _____    ______ ____

>  <TORSDO>
F 14

$$$$
=
 OpenBabel10232411013D

 42 46  0  0  1  0  0  0  0  0999 V2000
  185.3560  178.4100  143.4090 C   0  0  0  0  0  0  0  0  0  0  0  0
  189.8860  176.1780  142.5880 C   0  0  0  0  0  0  0  0  0  0  0  0
  188.1100  178.2800  140.2090 O   0  0  0  0  0  0  0  0  0  0  0  0
  187.0080  177.2560  144.7620 C   0  0  0  0  0  3  0  0  0  0  0  0
  190.7470  175.2580  142.6270 O   0  0  0  0  0  0  0  0  0  0  0  0
  187.8860  177.2060  143.6730 C   0  0  0  0  0  0  0  0  0  0  0  0
  189.5650  176.8350  141.3430 N   0  0  0  0  0  0  0  0  0  0  0  0
  185.7510  177.8490  144.6300 C   0  0  0  0  0  3  0  0  0  0  0  0
  187.4940  177.7580  142.4390 C   0  0  0  0  0  0  0  0  0  0  0  0
  188.3910  177.6620  141.2750 C   0  0  0  0  0  0  0  0  0  0  0  0
  190.1590  177.6640  144.5320 C   0  0  0  0  0  1  0  0  0  0  0  0
  186.2320  178.3570  142.3160 C   0  0  0  0  0  3  0  0  0  0  0  0
  189.2610  176.6320  143.8730 C   0  0  2  0  0  3  0  0  0  0  0  0
  184.0350  179.0500  143.2720 C   0  0  0  0  0  0  0  0  0  0  0  0
  183.6700  179.9280  144.1010 O   0  0  0  0  0  0  0  0  0  0  0  0
  183.1700  178.6840  142.1910 N   0  0  0  0  0  2  0  0  0  0  0  0
  181.8400  179.2470  142.0290 C   0  0  0  0  0  2  0  0  0  0  0  0
  181.2780  178.8700  140.6700 C   0  0  0  0  0  2  0  0  0  0  0  0
  182.4090  178.6870  139.6700 C   0  0  0  0  0  2  0  0  0  0  0  0
  184.2050  180.2870  139.2260 O   0  0  0  0  0  0  0  0  0  0  0  0
  182.8660  179.9770  139.1830 N   0  0  0  0  0  0  0  0  0  0  0  0
  182.0690  180.7460  138.6070 O   0  0  0  0  0  0  0  0  0  0  0  0
  190.3630  176.6420  140.1190 C   0  0  2  0  0  3  0  0  0  0  0  0
  192.1740  178.1640  141.3330 C   0  0  0  0  0  2  0  0  0  0  0  0
  192.7200  176.7450  141.2100 C   0  0  0  0  0  2  0  0  0  0  0  0
  191.7600  177.2880  140.1720 C   0  0  0  0  0  0  0  0  0  0  0  0
  193.7010  176.9150  137.0700 O   0  0  0  0  0  0  0  0  0  0  0  0
  192.4330  177.5510  138.9050 N   0  0  0  0  0  2  0  0  0  0  0  0
  193.0470  176.5530  138.0830 C   0  0  0  0  0  0  0  0  0  0  0  0
  192.9550  175.0960  138.4190 C   0  0  0  0  0  2  0  0  0  0  0  0
  194.1890  173.8120  136.8330 O   0  0  0  0  0  0  0  0  0  0  0  0
  194.1750  174.3550  137.9700 C   0  0  0  0  0  0  0  0  0  0  0  0
  196.1060  173.0800  138.8500 O   0  0  0  0  0  0  0  0  0  0  0  0
  195.6980  175.2120  139.5740 O   0  0  0  0  0  1  0  0  0  0  0  0
  195.3550  174.2490  138.8400 C   0  0  0  0  0  0  0  0  0  0  0  0
  189.5930  177.0230  138.8600 C   0  0  0  0  0  2  0  0  0  0  0  0
  189.4090  175.8110  137.9690 C   0  0  0  0  0  2  0  0  0  0  0  0
  186.9540  174.5190  135.5650 C   0  0  2  0  0  3  0  0  0  0  0  0
  185.7030  175.1130  135.7400 O   0  0  0  0  0  1  0  0  0  0  0  0
  188.0030  175.8090  137.4100 C   0  0  2  0  0  3  0  0  0  0  0  0
  187.6660  174.4210  136.9020 C   0  0  2  0  0  3  0  0  0  0  0  0
  188.0480  175.5090  135.9250 C   0  0  1  0  0  3  0  0  0  0  0  0
  1  8  1  0  0  0  0
  2  5  2  0  0  0  0
  2 13  1  0  0  0  0
  3 10  2  0  0  0  0
  6 13  1  0  0  0  0
  6  4  1  0  0  0  0
  7  2  1  0  0  0  0
  8  4  2  0  0  0  0
  9  6  2  0  0  0  0
 10  7  1  0  0  0  0
 10  9  1  0  0  0  0
 12  9  1  0  0  0  0
 12  1  2  0  0  0  0
 13 11  1  6  0  0  0
 14  1  1  0  0  0  0
 14 15  2  0  0  0  0
 16 14  1  0  0  0  0
 17 16  1  0  0  0  0
 18 17  1  0  0  0  0
 19 18  1  0  0  0  0
 21 20  2  0  0  0  0
 21 19  1  0  0  0  0
 22 21  2  0  0  0  0
 23 36  1  6  0  0  0
 23 26  1  0  0  0  0
 23  7  1  0  0  0  0
 25 24  1  0  0  0  0
 26 25  1  0  0  0  0
 26 24  1  0  0  0  0
 27 29  2  0  0  0  0
 28 26  1  0  0  0  0
 29 30  1  0  0  0  0
 29 28  1  0  0  0  0
 31 32  2  0  0  0  0
 32 30  1  0  0  0  0
 32 35  1  0  0  0  0
 35 33  2  0  0  0  0
 35 34  1  0  0  0  0
 37 36  1  0  0  0  0
 38 39  1  0  0  0  0
 38 42  1  0  0  0  0
 38 41  1  0  0  0  0
 40 37  1  0  0  0  0
 41 40  1  0  0  0  0
 42 41  1  0  0  0  0
 42 40  1  0  0  0  0
M  END
>  <MODEL>
9

>  <REMARK>
 VINA RESULT:      -5.8      2.780     10.572
  Name = 
  14 active torsions:
  status: ('A' for Active; 'I' for Inactive)
    1  A    between atoms: C_1  and  C_8
    2  A    between atoms: C_5  and  C_7
    3  A    between atoms: C_5  and  N_20
    4  A    between atoms: C_7  and  C_11
    5  A    between atoms: C_11  and  N_40
    6  A    between atoms: C_13  and  C_36
    7  A    between atoms: N_16  and  C_24
    8  A    between atoms: C_23  and  C_28
    9  A    between atoms: C_23  and  C_35
   10  A    between atoms: C_24  and  C_28
   11  A    between atoms: C_24  and  C_41
   12  A    between atoms: C_25  and  C_36
   13  A    between atoms: C_25  and  C_39
   14  A    between atoms: N_32  and  C_41
                            x       y       z     vdW  Elec       q    Type
                         _______ _______ _______ _____ _____    ______ ____

>  <TORSDO>
F 14

$$$$
