=
 OpenBabel10232409503D

 45 48  0  0  1  0  0  0  0  0999 V2000
  186.0990  177.9930  138.3550 C   0  0  1  0  0  3  0  0  0  0  0  0
  184.9640  179.9460  139.1800 O   0  0  0  0  0  1  0  0  0  0  0  0
  184.7610  178.7420  138.4960 C   0  0  2  0  0  3  0  0  0  0  0  0
  182.6870  177.4340  138.3500 N   0  0  0  0  0  1  0  0  0  0  0  0
  183.7330  177.8830  139.2520 C   0  0  2  0  0  3  0  0  0  0  0  0
  183.1010  178.6670  140.4010 C   0  0  0  0  0  2  0  0  0  0  0  0
  183.0060  177.7990  141.6450 C   0  0  0  0  0  2  0  0  0  0  0  0
  185.0360  178.6350  145.5400 C   0  0  0  0  0  3  0  0  0  0  0  0
  184.1700  179.6110  144.8200 C   0  0  0  0  0  2  0  0  0  0  0  0
  185.3710  178.1450  142.5210 C   0  0  0  0  0  3  0  0  0  0  0  0
  185.9980  177.9230  144.9440 C   0  0  0  0  0  0  0  0  0  0  0  0
  186.7970  177.1550  145.7190 F   0  0  0  0  0  0  0  0  0  0  0  0
  183.3700  178.9530  143.7450 C   0  0  0  0  0  3  0  0  0  0  0  0
  183.9150  178.3230  142.7030 C   0  0  0  0  0  0  0  0  0  0  0  0
  186.2750  177.9720  143.4950 C   0  0  0  0  0  3  0  0  0  0  0  0
  186.6850  178.1310  136.9760 C   0  0  0  0  0  0  0  0  0  0  0  0
  187.2530  179.1700  136.6700 O   0  0  0  0  0  0  0  0  0  0  0  0
  187.8360  173.5870  136.8570 C   0  0  0  0  0  0  0  0  0  0  0  0
  184.5530  172.2140  136.9550 C   0  0  0  0  0  1  0  0  0  0  0  0
  185.8240  174.3590  136.7170 C   0  0  0  0  0  0  0  0  0  0  0  0
  187.1080  174.7080  136.6750 C   0  0  0  0  0  0  0  0  0  0  0  0
  189.7990  174.8720  136.3810 C   0  0  0  0  0  3  0  0  0  0  0  0
  189.2190  173.6200  136.7210 C   0  0  0  0  0  3  0  0  0  0  0  0
  186.5730  177.0100  135.9800 C   0  0  2  0  0  3  0  0  0  0  0  0
  186.9990  172.5340  137.0150 N   0  0  0  0  0  0  0  0  0  0  0  0
  185.7590  173.0260  136.9230 N   0  0  0  0  0  0  0  0  0  0  0  0
  185.1220  176.4760  135.9390 C   0  0  0  0  0  3  0  0  0  0  0  0
  184.7950  175.2560  136.2900 N   0  0  0  0  0  0  0  0  0  0  0  0
  187.5930  175.9230  136.2800 C   0  0  0  0  0  0  0  0  0  0  0  0
  188.9900  176.0210  136.1460 C   0  0  0  0  0  3  0  0  0  0  0  0
  187.1190  178.4410  139.3950 C   0  0  0  0  0  2  0  0  0  0  0  0
  188.2650  177.4850  139.4080 C   0  0  0  0  0  3  0  0  0  0  0  0
  189.5070  177.9350  139.2500 C   0  0  0  0  0  3  0  0  0  0  0  0
  190.6790  177.0040  139.2770 C   0  0  0  0  0  2  0  0  0  0  0  0
  191.6700  177.3950  140.3620 C   0  0  0  0  0  2  0  0  0  0  0  0
  191.0170  177.2990  141.7260 C   0  0  0  0  0  2  0  0  0  0  0  0
  191.9950  177.3220  142.7190 O   0  0  0  0  0  0  0  0  0  0  0  0
  191.6030  178.3460  143.5860 C   0  0  0  0  0  2  0  0  0  0  0  0
  189.6300  177.8180  144.7870 O   0  0  0  0  0  0  0  0  0  0  0  0
  191.0860  176.7550  147.1030 C   0  0  0  0  0  0  0  0  0  0  0  0
  191.8690  176.2860  147.9700 O   0  0  0  0  0  0  0  0  0  0  0  0
  190.8890  177.7860  144.7690 C   0  0  0  0  0  0  0  0  0  0  0  0
  191.6290  177.2730  145.8820 N   0  0  0  0  0  2  0  0  0  0  0  0
  189.6240  176.7850  147.3990 C   0  0  0  0  0  2  0  0  0  0  0  0
  189.2940  177.9970  148.2480 C   0  0  0  0  0  1  0  0  0  0  0  0
  1  3  1  0  0  0  0
  1 31  1  1  0  0  0
  3  2  1  1  0  0  0
  3  5  1  0  0  0  0
  5  4  1  6  0  0  0
  5  6  1  0  0  0  0
  6  7  1  0  0  0  0
  7 14  1  0  0  0  0
  9  8  1  0  0  0  0
 10 14  1  0  0  0  0
 10 15  2  0  0  0  0
 11  8  2  0  0  0  0
 11 12  1  0  0  0  0
 13  9  1  0  0  0  0
 14 13  2  0  0  0  0
 15 11  1  0  0  0  0
 16  1  1  0  0  0  0
 17 16  2  0  0  0  0
 18 25  2  0  0  0  0
 20 26  1  0  0  0  0
 21 20  2  0  0  0  0
 21 18  1  0  0  0  0
 22 23  2  0  0  0  0
 23 18  1  0  0  0  0
 24 29  1  0  0  0  0
 24 16  1  1  0  0  0
 26 19  1  0  0  0  0
 26 25  1  0  0  0  0
 27 24  1  0  0  0  0
 27 28  2  0  0  0  0
 28 20  1  0  0  0  0
 29 21  1  0  0  0  0
 30 29  2  0  0  0  0
 30 22  1  0  0  0  0
 31 32  1  0  0  0  0
 33 34  1  0  0  0  0
 33 32  2  0  0  0  0
 34 35  1  0  0  0  0
 35 36  1  0  0  0  0
 36 37  1  0  0  0  0
 37 38  1  0  0  0  0
 38 42  1  0  0  0  0
 40 44  1  0  0  0  0
 40 41  2  0  0  0  0
 42 39  2  0  0  0  0
 42 43  1  0  0  0  0
 43 40  1  0  0  0  0
 44 45  1  0  0  0  0
M  END
>  <MODEL>
1

>  <REMARK>
 VINA RESULT:      -8.0      0.000      0.000
  Name = 
  16 active torsions:
  status: ('A' for Active; 'I' for Inactive)
    1  A    between atoms: C_1  and  C_22
    2  A    between atoms: C_1  and  C_24
    3  A    between atoms: C_3  and  C_18
    4  A    between atoms: C_3  and  C_40
    5  A    between atoms: C_7  and  C_32
    6  A    between atoms: C_7  and  O_36
    7  A    between atoms: C_11  and  C_31
    8  A    between atoms: C_16  and  C_20
    9  A    between atoms: C_16  and  C_38
   10  A    between atoms: C_19  and  C_40
   11  A    between atoms: C_19  and  C_41
   12  A    between atoms: C_20  and  C_41
   13  A    between atoms: C_21  and  C_22
   14  A    between atoms: C_21  and  O_36
   15  A    between atoms: C_23  and  C_29
   16  A    between atoms: C_29  and  C_40
                            x       y       z     vdW  Elec       q    Type
                         _______ _______ _______ _____ _____    ______ ____

>  <TORSDO>
F 16

$$$$
=
 OpenBabel10232409503D

 45 48  0  0  1  0  0  0  0  0999 V2000
  184.6490  178.5100  142.5020 C   0  0  1  0  0  3  0  0  0  0  0  0
  185.1320  180.4780  143.7990 O   0  0  0  0  0  1  0  0  0  0  0  0
  184.3610  179.3090  143.7860 C   0  0  2  0  0  3  0  0  0  0  0  0
  183.7950  178.8300  146.1280 N   0  0  0  0  0  1  0  0  0  0  0  0
  184.6780  178.4670  145.0340 C   0  0  2  0  0  3  0  0  0  0  0  0
  186.1270  178.6610  145.4750 C   0  0  0  0  0  2  0  0  0  0  0  0
  186.7250  177.3400  145.9300 C   0  0  0  0  0  2  0  0  0  0  0  0
  190.9960  176.6310  147.0460 C   0  0  0  0  0  3  0  0  0  0  0  0
  190.0330  177.4170  147.8700 C   0  0  0  0  0  2  0  0  0  0  0  0
  189.0390  178.0320  145.1300 C   0  0  0  0  0  3  0  0  0  0  0  0
  191.1420  176.7930  145.7280 C   0  0  0  0  0  0  0  0  0  0  0  0
  192.1270  176.1070  145.1050 F   0  0  0  0  0  0  0  0  0  0  0  0
  188.6230  177.2010  147.4300 C   0  0  0  0  0  3  0  0  0  0  0  0
  188.1780  177.5060  146.2090 C   0  0  0  0  0  0  0  0  0  0  0  0
  190.3260  177.7230  144.9210 C   0  0  0  0  0  3  0  0  0  0  0  0
  183.4870  178.5340  141.5460 C   0  0  0  0  0  0  0  0  0  0  0  0
  182.3560  178.6840  141.9850 O   0  0  0  0  0  0  0  0  0  0  0  0
  180.8630  177.3490  137.8450 C   0  0  0  0  0  0  0  0  0  0  0  0
  180.7310  180.5310  136.2570 C   0  0  0  0  0  1  0  0  0  0  0  0
  181.8240  179.2630  138.1200 C   0  0  0  0  0  0  0  0  0  0  0  0
  181.7760  178.0150  138.5820 C   0  0  2  0  0  3  0  0  0  0  0  0
  181.5340  175.3410  138.9650 C   0  0  0  0  0  3  0  0  0  0  0  0
  180.6980  175.9780  138.0080 C   0  0  0  0  0  3  0  0  0  0  0  0
  183.7080  178.3740  140.0670 C   0  0  0  0  0  0  0  0  0  0  0  0
  180.3380  178.1870  136.9210 N   0  0  0  0  0  0  0  0  0  0  0  0
  180.9440  179.3660  137.1010 N   0  0  0  0  0  0  0  0  0  0  0  0
  183.7580  179.7600  139.3820 C   0  0  0  0  0  3  0  0  0  0  0  0
  182.8780  180.1550  138.4940 N   0  0  0  0  0  0  0  0  0  0  0  0
  182.6560  177.4560  139.4650 C   0  0  0  0  0  0  0  0  0  0  0  0
  182.5220  176.0730  139.6850 C   0  0  0  0  0  3  0  0  0  0  0  0
  185.9070  178.9980  141.7940 C   0  0  0  0  0  2  0  0  0  0  0  0
  187.0490  178.1000  142.1400 C   0  0  0  0  0  3  0  0  0  0  0  0
  187.9490  177.7850  141.2130 C   0  0  0  0  0  3  0  0  0  0  0  0
  189.1160  176.9030  141.5340 C   0  0  0  0  0  2  0  0  0  0  0  0
  190.3960  177.4310  140.9060 C   0  0  0  0  0  2  0  0  0  0  0  0
  190.6980  176.6820  139.6240 C   0  0  0  0  0  2  0  0  0  0  0  0
  190.2270  177.4080  138.5330 O   0  0  0  0  0  0  0  0  0  0  0  0
  189.7670  176.4450  137.6300 C   0  0  0  0  0  2  0  0  0  0  0  0
  187.7560  177.6960  137.6010 O   0  0  0  0  0  0  0  0  0  0  0  0
  186.0860  175.3720  136.9450 C   0  0  0  0  0  0  0  0  0  0  0  0
  185.5450  174.2880  136.6060 O   0  0  0  0  0  0  0  0  0  0  0  0
  188.2950  176.5700  137.4330 C   0  0  0  0  0  0  0  0  0  0  0  0
  187.5090  175.4170  137.1110 N   0  0  0  0  0  2  0  0  0  0  0  0
  185.2190  176.5600  137.1960 C   0  0  0  0  0  2  0  0  0  0  0  0
  184.5920  177.0250  135.8970 C   0  0  0  0  0  1  0  0  0  0  0  0
  1 31  1  6  0  0  0
  1  3  1  0  0  0  0
  3  2  1  6  0  0  0
  3  5  1  0  0  0  0
  5  6  1  0  0  0  0
  5  4  1  1  0  0  0
  6  7  1  0  0  0  0
  7 14  1  0  0  0  0
  8  9  1  0  0  0  0
 10 14  1  0  0  0  0
 11  8  2  0  0  0  0
 12 11  1  0  0  0  0
 13  9  1  0  0  0  0
 14 13  2  0  0  0  0
 15 10  2  0  0  0  0
 15 11  1  0  0  0  0
 16 17  2  0  0  0  0
 16  1  1  0  0  0  0
 18 23  1  0  0  0  0
 19 26  1  0  0  0  0
 20 28  2  0  0  0  0
 20 21  1  0  0  0  0
 21 18  1  6  0  0  0
 21 29  1  0  0  0  0
 22 30  1  0  0  0  0
 23 22  2  0  0  0  0
 24 16  1  0  0  0  0
 25 26  1  0  0  0  0
 25 18  2  0  0  0  0
 26 20  1  0  0  0  0
 27 24  2  0  0  0  0
 28 27  1  0  0  0  0
 29 30  2  0  0  0  0
 29 24  1  0  0  0  0
 31 32  1  0  0  0  0
 33 34  1  0  0  0  0
 33 32  2  0  0  0  0
 35 34  1  0  0  0  0
 36 35  1  0  0  0  0
 37 36  1  0  0  0  0
 38 37  1  0  0  0  0
 40 43  1  0  0  0  0
 40 44  1  0  0  0  0
 41 40  2  0  0  0  0
 42 39  2  0  0  0  0
 42 38  1  0  0  0  0
 43 42  1  0  0  0  0
 45 44  1  0  0  0  0
M  END
>  <MODEL>
2

>  <REMARK>
 VINA RESULT:      -7.7      2.825      6.996
  Name = 
  16 active torsions:
  status: ('A' for Active; 'I' for Inactive)
    1  A    between atoms: C_1  and  C_22
    2  A    between atoms: C_1  and  C_24
    3  A    between atoms: C_3  and  C_18
    4  A    between atoms: C_3  and  C_40
    5  A    between atoms: C_7  and  C_32
    6  A    between atoms: C_7  and  O_36
    7  A    between atoms: C_11  and  C_31
    8  A    between atoms: C_16  and  C_20
    9  A    between atoms: C_16  and  C_38
   10  A    between atoms: C_19  and  C_40
   11  A    between atoms: C_19  and  C_41
   12  A    between atoms: C_20  and  C_41
   13  A    between atoms: C_21  and  C_22
   14  A    between atoms: C_21  and  O_36
   15  A    between atoms: C_23  and  C_29
   16  A    between atoms: C_29  and  C_40
                            x       y       z     vdW  Elec       q    Type
                         _______ _______ _______ _____ _____    ______ ____

>  <TORSDO>
F 16

$$$$
=
 OpenBabel10232409503D

 45 48  0  0  1  0  0  0  0  0999 V2000
  184.6000  178.4030  139.6410 C   0  0  1  0  0  3  0  0  0  0  0  0
  186.4700  179.2920  140.8660 O   0  0  0  0  0  1  0  0  0  0  0  0
  185.0870  179.0810  140.9340 C   0  0  2  0  0  3  0  0  0  0  0  0
  183.3750  178.4150  142.5650 N   0  0  0  0  0  1  0  0  0  0  0  0
  184.7560  178.2140  142.1610 C   0  0  2  0  0  3  0  0  0  0  0  0
  185.6740  178.5490  143.3350 C   0  0  0  0  0  2  0  0  0  0  0  0
  186.5060  177.3370  143.7200 C   0  0  0  0  0  2  0  0  0  0  0  0
  188.4270  177.1210  147.7520 C   0  0  0  0  0  3  0  0  0  0  0  0
  187.3160  178.0510  147.4010 C   0  0  0  0  0  2  0  0  0  0  0  0
  188.7450  177.8980  144.7920 C   0  0  0  0  0  3  0  0  0  0  0  0
  189.5090  176.9450  146.9880 C   0  0  0  0  0  0  0  0  0  0  0  0
  190.5060  176.1640  147.4630 F   0  0  0  0  0  0  0  0  0  0  0  0
  186.6590  177.6690  146.1160 C   0  0  0  0  0  3  0  0  0  0  0  0
  187.3000  177.6310  144.9450 C   0  0  0  0  0  0  0  0  0  0  0  0
  189.7040  177.6000  145.6790 C   0  0  0  0  0  3  0  0  0  0  0  0
  183.2650  178.9320  139.1910 C   0  0  0  0  0  0  0  0  0  0  0  0
  183.1020  180.1400  139.0950 O   0  0  0  0  0  0  0  0  0  0  0  0
  182.0290  176.2700  135.5340 C   0  0  0  0  0  0  0  0  0  0  0  0
  182.6800  173.0770  136.9670 C   0  0  0  0  0  1  0  0  0  0  0  0
  182.5350  175.5220  137.4950 C   0  0  0  0  0  0  0  0  0  0  0  0
  182.2430  176.6290  136.8170 C   0  0  2  0  0  3  0  0  0  0  0  0
  181.3280  178.5170  135.0980 C   0  0  0  0  0  3  0  0  0  0  0  0
  181.5650  177.2020  134.6130 C   0  0  0  0  0  3  0  0  0  0  0  0
  182.1380  177.9900  138.8670 C   0  0  0  0  0  0  0  0  0  0  0  0
  182.1920  174.9310  135.4130 N   0  0  0  0  0  0  0  0  0  0  0  0
  182.5010  174.4820  136.6340 N   0  0  0  0  0  0  0  0  0  0  0  0
  182.3590  176.6310  139.5730 C   0  0  0  0  0  3  0  0  0  0  0  0
  182.5480  175.5070  138.9260 N   0  0  0  0  0  0  0  0  0  0  0  0
  181.9710  177.8520  137.3630 C   0  0  0  0  0  0  0  0  0  0  0  0
  181.5170  178.8420  136.4730 C   0  0  0  0  0  3  0  0  0  0  0  0
  185.6120  178.5350  138.5090 C   0  0  0  0  0  2  0  0  0  0  0  0
  185.6570  177.2590  137.7350 C   0  0  0  0  0  3  0  0  0  0  0  0
  185.7360  177.2910  136.4080 C   0  0  0  0  0  3  0  0  0  0  0  0
  185.8020  176.0280  135.6050 C   0  0  0  0  0  2  0  0  0  0  0  0
  186.1230  174.8300  136.4850 C   0  0  0  0  0  2  0  0  0  0  0  0
  187.2950  174.0600  135.9130 C   0  0  0  0  0  2  0  0  0  0  0  0
  188.3040  173.9590  136.8690 O   0  0  0  0  0  0  0  0  0  0  0  0
  189.2830  174.8670  136.4560 C   0  0  0  0  0  2  0  0  0  0  0  0
  190.4820  175.2580  138.4610 O   0  0  0  0  0  0  0  0  0  0  0  0
  189.4640  177.9940  138.7710 C   0  0  0  0  0  0  0  0  0  0  0  0
  188.9790  179.1530  138.7060 O   0  0  0  0  0  0  0  0  0  0  0  0
  189.7060  175.7350  137.5920 C   0  0  0  0  0  0  0  0  0  0  0  0
  189.1920  177.0670  137.7130 N   0  0  0  0  0  2  0  0  0  0  0  0
  190.2730  177.6200  139.9670 C   0  0  0  0  0  2  0  0  0  0  0  0
  189.3560  177.2900  141.1280 C   0  0  0  0  0  1  0  0  0  0  0  0
  1 31  1  6  0  0  0
  1  3  1  0  0  0  0
  3  2  1  6  0  0  0
  3  5  1  0  0  0  0
  5  4  1  1  0  0  0
  5  6  1  0  0  0  0
  6  7  1  0  0  0  0
  7 14  1  0  0  0  0
  9  8  1  0  0  0  0
 10 14  1  0  0  0  0
 10 15  2  0  0  0  0
 11 12  1  0  0  0  0
 11  8  2  0  0  0  0
 13  9  1  0  0  0  0
 14 13  2  0  0  0  0
 15 11  1  0  0  0  0
 16  1  1  0  0  0  0
 17 16  2  0  0  0  0
 20 28  2  0  0  0  0
 21 18  1  1  0  0  0
 21 29  1  0  0  0  0
 21 20  1  0  0  0  0
 22 30  1  0  0  0  0
 23 22  2  0  0  0  0
 23 18  1  0  0  0  0
 24 16  1  0  0  0  0
 24 27  2  0  0  0  0
 25 18  2  0  0  0  0
 25 26  1  0  0  0  0
 26 19  1  0  0  0  0
 26 20  1  0  0  0  0
 28 27  1  0  0  0  0
 29 24  1  0  0  0  0
 30 29  2  0  0  0  0
 32 31  1  0  0  0  0
 33 32  2  0  0  0  0
 34 33  1  0  0  0  0
 34 35  1  0  0  0  0
 36 35  1  0  0  0  0
 36 37  1  0  0  0  0
 38 37  1  0  0  0  0
 38 42  1  0  0  0  0
 40 44  1  0  0  0  0
 41 40  2  0  0  0  0
 42 43  1  0  0  0  0
 42 39  2  0  0  0  0
 43 40  1  0  0  0  0
 44 45  1  0  0  0  0
M  END
>  <MODEL>
3

>  <REMARK>
 VINA RESULT:      -7.6      2.826      5.750
  Name = 
  16 active torsions:
  status: ('A' for Active; 'I' for Inactive)
    1  A    between atoms: C_1  and  C_22
    2  A    between atoms: C_1  and  C_24
    3  A    between atoms: C_3  and  C_18
    4  A    between atoms: C_3  and  C_40
    5  A    between atoms: C_7  and  C_32
    6  A    between atoms: C_7  and  O_36
    7  A    between atoms: C_11  and  C_31
    8  A    between atoms: C_16  and  C_20
    9  A    between atoms: C_16  and  C_38
   10  A    between atoms: C_19  and  C_40
   11  A    between atoms: C_19  and  C_41
   12  A    between atoms: C_20  and  C_41
   13  A    between atoms: C_21  and  C_22
   14  A    between atoms: C_21  and  O_36
   15  A    between atoms: C_23  and  C_29
   16  A    between atoms: C_29  and  C_40
                            x       y       z     vdW  Elec       q    Type
                         _______ _______ _______ _____ _____    ______ ____

>  <TORSDO>
F 16

$$$$
=
 OpenBabel10232409503D

 45 48  0  0  1  0  0  0  0  0999 V2000
  189.4120  177.2520  140.1370 C   0  0  1  0  0  3  0  0  0  0  0  0
  191.7310  177.6520  140.6330 O   0  0  0  0  0  1  0  0  0  0  0  0
  190.8510  176.7090  140.0890 C   0  0  2  0  0  3  0  0  0  0  0  0
  190.8810  175.0310  138.2960 N   0  0  0  0  0  1  0  0  0  0  0  0
  191.2640  176.3880  138.6430 C   0  0  2  0  0  3  0  0  0  0  0  0
  192.7720  176.5460  138.4540 C   0  0  0  0  0  2  0  0  0  0  0  0
  193.1870  176.0630  137.0740 C   0  0  0  0  0  2  0  0  0  0  0  0
  195.7650  172.5170  137.9500 C   0  0  0  0  0  3  0  0  0  0  0  0
  195.8620  173.8210  138.6650 C   0  0  0  0  0  2  0  0  0  0  0  0
  195.0520  174.7440  135.9510 C   0  0  0  0  0  3  0  0  0  0  0  0
  195.6950  172.4100  136.6200 C   0  0  0  0  0  0  0  0  0  0  0  0
  195.7280  171.1710  136.0760 F   0  0  0  0  0  0  0  0  0  0  0  0
  194.6740  174.6860  138.4030 C   0  0  0  0  0  3  0  0  0  0  0  0
  194.3340  175.1200  137.1870 C   0  0  0  0  0  0  0  0  0  0  0  0
  195.6430  173.5670  135.7050 C   0  0  0  0  0  3  0  0  0  0  0  0
  189.0430  177.7630  141.5040 C   0  0  0  0  0  0  0  0  0  0  0  0
  189.0860  178.9650  141.7250 O   0  0  0  0  0  0  0  0  0  0  0  0
  189.9700  177.2350  146.0710 C   0  0  0  0  0  0  0  0  0  0  0  0
  186.7950  178.1930  147.3630 C   0  0  0  0  0  1  0  0  0  0  0  0
  188.0220  177.6650  145.2440 C   0  0  0  0  0  0  0  0  0  0  0  0
  189.2570  177.2830  144.9260 C   0  0  0  0  0  0  0  0  0  0  0  0
  191.7710  176.2700  144.8220 C   0  0  0  0  0  3  0  0  0  0  0  0
  191.2650  176.7280  146.0680 C   0  0  0  0  0  3  0  0  0  0  0  0
  188.6280  176.8100  142.5920 C   0  0  2  0  0  3  0  0  0  0  0  0
  189.1740  177.5910  147.1070 N   0  0  0  0  0  0  0  0  0  0  0  0
  187.9730  177.8520  146.5800 N   0  0  0  0  0  0  0  0  0  0  0  0
  187.2040  177.1550  143.0880 C   0  0  0  0  0  3  0  0  0  0  0  0
  186.9450  177.5550  144.3090 N   0  0  0  0  0  0  0  0  0  0  0  0
  189.6550  176.7970  143.7130 C   0  0  0  0  0  0  0  0  0  0  0  0
  190.9660  176.2900  143.6460 C   0  0  0  0  0  3  0  0  0  0  0  0
  189.1760  178.3440  139.1000 C   0  0  0  0  0  2  0  0  0  0  0  0
  187.9190  178.0500  138.3500 C   0  0  0  0  0  3  0  0  0  0  0  0
  187.6940  176.8240  137.8870 C   0  0  0  0  0  3  0  0  0  0  0  0
  186.4340  176.4940  137.1470 C   0  0  0  0  0  2  0  0  0  0  0  0
  185.5740  177.7320  136.9420 C   0  0  0  0  0  2  0  0  0  0  0  0
  184.2580  177.5820  137.6770 C   0  0  0  0  0  2  0  0  0  0  0  0
  184.2510  178.4040  138.8020 O   0  0  0  0  0  0  0  0  0  0  0  0
  183.5470  177.6820  139.7700 C   0  0  0  0  0  2  0  0  0  0  0  0
  184.6570  178.9030  141.4710 O   0  0  0  0  0  0  0  0  0  0  0  0
  182.2810  179.0550  143.1880 C   0  0  0  0  0  0  0  0  0  0  0  0
  181.1580  179.0750  143.7560 O   0  0  0  0  0  0  0  0  0  0  0  0
  183.5720  178.3970  141.0790 C   0  0  0  0  0  0  0  0  0  0  0  0
  182.3940  178.4550  141.8920 N   0  0  0  0  0  2  0  0  0  0  0  0
  183.4580  179.6270  143.9050 C   0  0  0  0  0  2  0  0  0  0  0  0
  183.7660  178.7980  145.1360 C   0  0  0  0  0  1  0  0  0  0  0  0
  1 31  1  6  0  0  0
  1 16  1  0  0  0  0
  3  1  1  0  0  0  0
  3  2  1  6  0  0  0
  5  4  1  1  0  0  0
  5  3  1  0  0  0  0
  6  5  1  0  0  0  0
  7 14  1  0  0  0  0
  7  6  1  0  0  0  0
  8  9  1  0  0  0  0
 10 14  1  0  0  0  0
 11  8  2  0  0  0  0
 12 11  1  0  0  0  0
 13  9  1  0  0  0  0
 14 13  2  0  0  0  0
 15 10  2  0  0  0  0
 15 11  1  0  0  0  0
 16 17  2  0  0  0  0
 18 25  2  0  0  0  0
 20 26  1  0  0  0  0
 21 20  2  0  0  0  0
 21 18  1  0  0  0  0
 22 23  2  0  0  0  0
 23 18  1  0  0  0  0
 24 16  1  6  0  0  0
 24 27  1  0  0  0  0
 24 29  1  0  0  0  0
 26 25  1  0  0  0  0
 26 19  1  0  0  0  0
 27 28  2  0  0  0  0
 28 20  1  0  0  0  0
 29 21  1  0  0  0  0
 30 29  2  0  0  0  0
 30 22  1  0  0  0  0
 32 31  1  0  0  0  0
 33 32  2  0  0  0  0
 34 33  1  0  0  0  0
 35 34  1  0  0  0  0
 35 36  1  0  0  0  0
 36 37  1  0  0  0  0
 37 38  1  0  0  0  0
 38 42  1  0  0  0  0
 40 41  2  0  0  0  0
 40 44  1  0  0  0  0
 42 39  2  0  0  0  0
 42 43  1  0  0  0  0
 43 40  1  0  0  0  0
 44 45  1  0  0  0  0
M  END
>  <MODEL>
4

>  <REMARK>
 VINA RESULT:      -7.6      3.802      9.412
  Name = 
  16 active torsions:
  status: ('A' for Active; 'I' for Inactive)
    1  A    between atoms: C_1  and  C_22
    2  A    between atoms: C_1  and  C_24
    3  A    between atoms: C_3  and  C_18
    4  A    between atoms: C_3  and  C_40
    5  A    between atoms: C_7  and  C_32
    6  A    between atoms: C_7  and  O_36
    7  A    between atoms: C_11  and  C_31
    8  A    between atoms: C_16  and  C_20
    9  A    between atoms: C_16  and  C_38
   10  A    between atoms: C_19  and  C_40
   11  A    between atoms: C_19  and  C_41
   12  A    between atoms: C_20  and  C_41
   13  A    between atoms: C_21  and  C_22
   14  A    between atoms: C_21  and  O_36
   15  A    between atoms: C_23  and  C_29
   16  A    between atoms: C_29  and  C_40
                            x       y       z     vdW  Elec       q    Type
                         _______ _______ _______ _____ _____    ______ ____

>  <TORSDO>
F 16

$$$$
=
 OpenBabel10232409503D

 45 48  0  0  1  0  0  0  0  0999 V2000
  186.6200  177.9150  138.0810 C   0  0  1  0  0  3  0  0  0  0  0  0
  184.8840  179.4260  138.7790 O   0  0  0  0  0  1  0  0  0  0  0  0
  185.1940  178.4400  137.8350 C   0  0  2  0  0  3  0  0  0  0  0  0
  183.7990  176.8430  136.5960 N   0  0  0  0  0  1  0  0  0  0  0  0
  184.1700  177.2970  137.9250 C   0  0  2  0  0  3  0  0  0  0  0  0
  182.9130  177.7420  138.6700 C   0  0  0  0  0  2  0  0  0  0  0  0
  182.8030  177.0210  140.0040 C   0  0  0  0  0  2  0  0  0  0  0  0
  181.4530  179.0470  143.7540 C   0  0  0  0  0  3  0  0  0  0  0  0
  180.9740  179.4040  142.3890 C   0  0  0  0  0  2  0  0  0  0  0  0
  183.7670  178.5630  141.7850 C   0  0  0  0  0  3  0  0  0  0  0  0
  182.7420  178.8670  144.0580 C   0  0  0  0  0  0  0  0  0  0  0  0
  183.0690  178.6600  145.3550 F   0  0  0  0  0  0  0  0  0  0  0  0
  181.3270  178.3560  141.3860 C   0  0  0  0  0  3  0  0  0  0  0  0
  182.5820  178.0050  141.1000 C   0  0  0  0  0  0  0  0  0  0  0  0
  183.8360  178.9380  143.0700 C   0  0  0  0  0  3  0  0  0  0  0  0
  187.5790  178.3510  137.0070 C   0  0  0  0  0  0  0  0  0  0  0  0
  187.8870  179.5310  136.9240 O   0  0  0  0  0  0  0  0  0  0  0  0
  190.1700  174.4540  137.3120 C   0  0  0  0  0  0  0  0  0  0  0  0
  187.6700  172.0910  136.4000 C   0  0  0  0  0  1  0  0  0  0  0  0
  188.1550  174.5440  136.5420 C   0  0  0  0  0  0  0  0  0  0  0  0
  189.1970  175.2930  136.8970 C   0  0  0  0  0  0  0  0  0  0  0  0
  191.6340  176.3440  137.4540 C   0  0  0  0  0  3  0  0  0  0  0  0
  191.4360  174.9450  137.6130 C   0  0  0  0  0  3  0  0  0  0  0  0
  188.1530  177.3520  136.0400 C   0  0  2  0  0  3  0  0  0  0  0  0
  189.7300  173.1780  137.2150 N   0  0  0  0  0  0  0  0  0  0  0  0
  188.4840  173.2490  136.7340 N   0  0  0  0  0  0  0  0  0  0  0  0
  187.0470  176.3840  135.5560 C   0  0  0  0  0  3  0  0  0  0  0  0
  187.0610  175.0960  135.8030 N   0  0  0  0  0  0  0  0  0  0  0  0
  189.3390  176.6300  136.6570 C   0  0  0  0  0  0  0  0  0  0  0  0
  190.5950  177.1860  136.9640 C   0  0  0  0  0  3  0  0  0  0  0  0
  187.1550  178.3290  139.4470 C   0  0  0  0  0  2  0  0  0  0  0  0
  188.5710  177.8740  139.5820 C   0  0  0  0  0  3  0  0  0  0  0  0
  189.0580  177.5670  140.7810 C   0  0  0  0  0  3  0  0  0  0  0  0
  190.4670  177.0900  140.9460 C   0  0  0  0  0  2  0  0  0  0  0  0
  191.1100  177.6870  142.1890 C   0  0  0  0  0  2  0  0  0  0  0  0
  191.8260  176.6090  142.9760 C   0  0  0  0  0  2  0  0  0  0  0  0
  190.9610  176.0650  143.9240 O   0  0  0  0  0  0  0  0  0  0  0  0
  190.8840  177.0280  144.9340 C   0  0  0  0  0  2  0  0  0  0  0  0
  188.5590  177.1910  144.5060 O   0  0  0  0  0  0  0  0  0  0  0  0
  187.8770  177.7200  147.3110 C   0  0  0  0  0  0  0  0  0  0  0  0
  187.7680  177.8710  148.5560 O   0  0  0  0  0  0  0  0  0  0  0  0
  189.4710  177.2150  145.3740 C   0  0  0  0  0  0  0  0  0  0  0  0
  189.1720  177.4690  146.7510 N   0  0  0  0  0  2  0  0  0  0  0  0
  186.6550  177.8450  146.4640 C   0  0  0  0  0  2  0  0  0  0  0  0
  185.6180  178.6920  147.1750 C   0  0  0  0  0  1  0  0  0  0  0  0
  1 31  1  1  0  0  0
  3  5  1  0  0  0  0
  3  1  1  0  0  0  0
  3  2  1  1  0  0  0
  5  4  1  6  0  0  0
  5  6  1  0  0  0  0
  6  7  1  0  0  0  0
  7 14  1  0  0  0  0
  8 11  2  0  0  0  0
  9  8  1  0  0  0  0
 10 15  2  0  0  0  0
 11 12  1  0  0  0  0
 13  9  1  0  0  0  0
 14 13  2  0  0  0  0
 14 10  1  0  0  0  0
 15 11  1  0  0  0  0
 16  1  1  0  0  0  0
 17 16  2  0  0  0  0
 18 23  1  0  0  0  0
 19 26  1  0  0  0  0
 20 26  1  0  0  0  0
 20 21  2  0  0  0  0
 21 18  1  0  0  0  0
 22 23  2  0  0  0  0
 24 29  1  0  0  0  0
 24 16  1  1  0  0  0
 25 18  2  0  0  0  0
 26 25  1  0  0  0  0
 27 28  2  0  0  0  0
 27 24  1  0  0  0  0
 28 20  1  0  0  0  0
 29 21  1  0  0  0  0
 29 30  2  0  0  0  0
 30 22  1  0  0  0  0
 31 32  1  0  0  0  0
 32 33  2  0  0  0  0
 33 34  1  0  0  0  0
 34 35  1  0  0  0  0
 35 36  1  0  0  0  0
 36 37  1  0  0  0  0
 37 38  1  0  0  0  0
 38 42  1  0  0  0  0
 39 42  2  0  0  0  0
 40 41  2  0  0  0  0
 42 43  1  0  0  0  0
 43 40  1  0  0  0  0
 44 45  1  0  0  0  0
 44 40  1  0  0  0  0
M  END
>  <MODEL>
5

>  <REMARK>
 VINA RESULT:      -7.3      1.756      2.440
  Name = 
  16 active torsions:
  status: ('A' for Active; 'I' for Inactive)
    1  A    between atoms: C_1  and  C_22
    2  A    between atoms: C_1  and  C_24
    3  A    between atoms: C_3  and  C_18
    4  A    between atoms: C_3  and  C_40
    5  A    between atoms: C_7  and  C_32
    6  A    between atoms: C_7  and  O_36
    7  A    between atoms: C_11  and  C_31
    8  A    between atoms: C_16  and  C_20
    9  A    between atoms: C_16  and  C_38
   10  A    between atoms: C_19  and  C_40
   11  A    between atoms: C_19  and  C_41
   12  A    between atoms: C_20  and  C_41
   13  A    between atoms: C_21  and  C_22
   14  A    between atoms: C_21  and  O_36
   15  A    between atoms: C_23  and  C_29
   16  A    between atoms: C_29  and  C_40
                            x       y       z     vdW  Elec       q    Type
                         _______ _______ _______ _____ _____    ______ ____

>  <TORSDO>
F 16

$$$$
=
 OpenBabel10232409503D

 45 48  0  0  1  0  0  0  0  0999 V2000
  186.6310  176.4490  137.3910 C   0  0  1  0  0  3  0  0  0  0  0  0
  186.2180  178.8080  137.6110 O   0  0  0  0  0  1  0  0  0  0  0  0
  185.5930  177.5850  137.3430 C   0  0  2  0  0  3  0  0  0  0  0  0
  183.1750  177.3590  137.7130 N   0  0  0  0  0  1  0  0  0  0  0  0
  184.4710  177.3410  138.3670 C   0  0  2  0  0  3  0  0  0  0  0  0
  184.4920  178.4010  139.4670 C   0  0  0  0  0  2  0  0  0  0  0  0
  183.6370  177.9600  140.6440 C   0  0  0  0  0  2  0  0  0  0  0  0
  184.6600  178.5400  144.9580 C   0  0  0  0  0  3  0  0  0  0  0  0
  183.9560  179.5510  144.1200 C   0  0  0  0  0  2  0  0  0  0  0  0
  185.7150  178.2800  142.0800 C   0  0  0  0  0  3  0  0  0  0  0  0
  185.7590  177.8910  144.5610 C   0  0  0  0  0  0  0  0  0  0  0  0
  186.3780  177.0810  145.4500 F   0  0  0  0  0  0  0  0  0  0  0  0
  183.4540  178.9610  142.8440 C   0  0  0  0  0  3  0  0  0  0  0  0
  184.2520  178.4190  141.9210 C   0  0  0  0  0  0  0  0  0  0  0  0
  186.3690  178.0510  143.2270 C   0  0  0  0  0  3  0  0  0  0  0  0
  186.1940  175.2480  136.5970 C   0  0  0  0  0  0  0  0  0  0  0  0
  185.7300  175.4080  135.4770 O   0  0  0  0  0  0  0  0  0  0  0  0
  184.3890  171.0220  135.6600 C   0  0  0  0  0  0  0  0  0  0  0  0
  187.3300  169.4650  134.3980 C   0  0  0  0  0  1  0  0  0  0  0  0
  186.4850  171.5280  135.5400 C   0  0  0  0  0  0  0  0  0  0  0  0
  185.3050  171.9580  135.9830 C   0  0  2  0  0  3  0  0  0  0  0  0
  182.7850  172.2580  136.9380 C   0  0  0  0  0  3  0  0  0  0  0  0
  183.0820  171.1330  136.1220 C   0  0  0  0  0  3  0  0  0  0  0  0
  186.3220  173.8630  137.1690 C   0  0  0  0  0  0  0  0  0  0  0  0
  185.0020  170.0030  135.0120 N   0  0  0  0  0  0  0  0  0  0  0  0
  186.2970  170.3290  134.9480 N   0  0  0  0  0  0  0  0  0  0  0  0
  187.6500  173.2160  136.7100 C   0  0  0  0  0  3  0  0  0  0  0  0
  187.7060  172.1470  135.9540 N   0  0  0  0  0  0  0  0  0  0  0  0
  185.1060  173.0220  136.8160 C   0  0  0  0  0  0  0  0  0  0  0  0
  183.7950  173.1970  137.2980 C   0  0  0  0  0  3  0  0  0  0  0  0
  188.0040  176.9070  136.9160 C   0  0  0  0  0  2  0  0  0  0  0  0
  189.0100  176.6460  137.9880 C   0  0  0  0  0  3  0  0  0  0  0  0
  189.4880  177.6550  138.7110 C   0  0  0  0  0  3  0  0  0  0  0  0
  190.4830  177.4220  139.8050 C   0  0  0  0  0  2  0  0  0  0  0  0
  189.8490  177.6020  141.1750 C   0  0  0  0  0  2  0  0  0  0  0  0
  190.5690  176.7520  142.2010 C   0  0  0  0  0  2  0  0  0  0  0  0
  191.6620  177.4510  142.7090 O   0  0  0  0  0  0  0  0  0  0  0  0
  191.1070  178.4450  143.5200 C   0  0  0  0  0  2  0  0  0  0  0  0
  189.2990  178.0020  144.9860 O   0  0  0  0  0  0  0  0  0  0  0  0
  190.9710  176.5900  146.9420 C   0  0  0  0  0  0  0  0  0  0  0  0
  191.8220  175.9680  147.6290 O   0  0  0  0  0  0  0  0  0  0  0  0
  190.5280  177.8490  144.7590 C   0  0  0  0  0  0  0  0  0  0  0  0
  191.3710  177.1640  145.6920 N   0  0  0  0  0  2  0  0  0  0  0  0
  189.5850  176.7340  147.4760 C   0  0  0  0  0  2  0  0  0  0  0  0
  189.4560  178.0430  148.2300 C   0  0  0  0  0  1  0  0  0  0  0  0
  1 31  1  6  0  0  0
  3  1  1  0  0  0  0
  3  2  1  1  0  0  0
  3  5  1  0  0  0  0
  5  4  1  6  0  0  0
  5  6  1  0  0  0  0
  6  7  1  0  0  0  0
  7 14  1  0  0  0  0
  9  8  1  0  0  0  0
 10 15  2  0  0  0  0
 11  8  2  0  0  0  0
 11 12  1  0  0  0  0
 13  9  1  0  0  0  0
 14 10  1  0  0  0  0
 14 13  2  0  0  0  0
 15 11  1  0  0  0  0
 16 24  1  0  0  0  0
 16  1  1  0  0  0  0
 17 16  2  0  0  0  0
 18 21  1  0  0  0  0
 18 23  1  0  0  0  0
 19 26  1  0  0  0  0
 20 28  2  0  0  0  0
 21 20  1  1  0  0  0
 21 29  1  0  0  0  0
 22 30  1  0  0  0  0
 23 22  2  0  0  0  0
 25 18  2  0  0  0  0
 26 25  1  0  0  0  0
 26 20  1  0  0  0  0
 27 24  2  0  0  0  0
 28 27  1  0  0  0  0
 29 24  1  0  0  0  0
 29 30  2  0  0  0  0
 31 32  1  0  0  0  0
 32 33  2  0  0  0  0
 33 34  1  0  0  0  0
 34 35  1  0  0  0  0
 35 36  1  0  0  0  0
 36 37  1  0  0  0  0
 37 38  1  0  0  0  0
 38 42  1  0  0  0  0
 40 44  1  0  0  0  0
 40 41  2  0  0  0  0
 42 39  2  0  0  0  0
 42 43  1  0  0  0  0
 43 40  1  0  0  0  0
 44 45  1  0  0  0  0
M  END
>  <MODEL>
6

>  <REMARK>
 VINA RESULT:      -7.0      1.559      2.812
  Name = 
  16 active torsions:
  status: ('A' for Active; 'I' for Inactive)
    1  A    between atoms: C_1  and  C_22
    2  A    between atoms: C_1  and  C_24
    3  A    between atoms: C_3  and  C_18
    4  A    between atoms: C_3  and  C_40
    5  A    between atoms: C_7  and  C_32
    6  A    between atoms: C_7  and  O_36
    7  A    between atoms: C_11  and  C_31
    8  A    between atoms: C_16  and  C_20
    9  A    between atoms: C_16  and  C_38
   10  A    between atoms: C_19  and  C_40
   11  A    between atoms: C_19  and  C_41
   12  A    between atoms: C_20  and  C_41
   13  A    between atoms: C_21  and  C_22
   14  A    between atoms: C_21  and  O_36
   15  A    between atoms: C_23  and  C_29
   16  A    between atoms: C_29  and  C_40
                            x       y       z     vdW  Elec       q    Type
                         _______ _______ _______ _____ _____    ______ ____

>  <TORSDO>
F 16

$$$$
=
 OpenBabel10232409503D

 45 48  0  0  1  0  0  0  0  0999 V2000
  185.3170  178.4370  142.0490 C   0  0  1  0  0  3  0  0  0  0  0  0
  185.3090  180.2840  143.5900 O   0  0  0  0  0  1  0  0  0  0  0  0
  184.6650  179.0780  143.2880 C   0  0  2  0  0  3  0  0  0  0  0  0
  184.2720  178.7980  145.6960 N   0  0  0  0  0  1  0  0  0  0  0  0
  184.7470  178.1310  144.4970 C   0  0  2  0  0  3  0  0  0  0  0  0
  186.1790  177.6530  144.7250 C   0  0  0  0  0  2  0  0  0  0  0  0
  186.4910  177.6010  146.2120 C   0  0  0  0  0  2  0  0  0  0  0  0
  190.7670  176.7800  147.2260 C   0  0  0  0  0  3  0  0  0  0  0  0
  189.8690  177.6580  148.0290 C   0  0  0  0  0  2  0  0  0  0  0  0
  188.8010  178.1400  145.2900 C   0  0  0  0  0  3  0  0  0  0  0  0
  190.8710  176.8510  145.8960 C   0  0  0  0  0  0  0  0  0  0  0  0
  191.8040  176.0850  145.2860 F   0  0  0  0  0  0  0  0  0  0  0  0
  188.4360  177.4760  147.6520 C   0  0  0  0  0  3  0  0  0  0  0  0
  187.9590  177.7210  146.4300 C   0  0  0  0  0  0  0  0  0  0  0  0
  190.0660  177.7620  145.0580 C   0  0  0  0  0  3  0  0  0  0  0  0
  184.3110  178.1360  140.9710 C   0  0  0  0  0  0  0  0  0  0  0  0
  183.5060  177.2320  141.1410 O   0  0  0  0  0  0  0  0  0  0  0  0
  184.1070  177.1700  136.3870 C   0  0  0  0  0  0  0  0  0  0  0  0
  180.8100  178.3510  135.7500 C   0  0  0  0  0  1  0  0  0  0  0  0
  182.6120  178.2730  137.4880 C   0  0  0  0  0  0  0  0  0  0  0  0
  183.8520  177.7910  137.5570 C   0  0  2  0  0  3  0  0  0  0  0  0
  186.3720  176.8940  137.1130 C   0  0  0  0  0  3  0  0  0  0  0  0
  185.3820  176.6890  136.1130 C   0  0  0  0  0  3  0  0  0  0  0  0
  184.2940  178.9320  139.6950 C   0  0  0  0  0  0  0  0  0  0  0  0
  183.0200  177.2650  135.5850 N   0  0  0  0  0  0  0  0  0  0  0  0
  182.1050  177.9520  136.2790 N   0  0  0  0  0  0  0  0  0  0  0  0
  182.8900  179.5380  139.4640 C   0  0  0  0  0  3  0  0  0  0  0  0
  182.1260  179.2170  138.4470 N   0  0  0  0  0  0  0  0  0  0  0  0
  184.7680  178.0820  138.5270 C   0  0  0  0  0  0  0  0  0  0  0  0
  186.0730  177.6010  138.3130 C   0  0  0  0  0  3  0  0  0  0  0  0
  186.4380  179.2990  141.4800 C   0  0  0  0  0  2  0  0  0  0  0  0
  187.7550  178.6970  141.8400 C   0  0  0  0  0  3  0  0  0  0  0  0
  188.0090  177.4270  141.5390 C   0  0  0  0  0  3  0  0  0  0  0  0
  189.3280  176.8000  141.8690 C   0  0  0  0  0  2  0  0  0  0  0  0
  190.4790  177.5790  141.2530 C   0  0  0  0  0  2  0  0  0  0  0  0
  190.3700  177.5690  139.7420 C   0  0  0  0  0  2  0  0  0  0  0  0
  190.8550  176.3610  139.2440 O   0  0  0  0  0  0  0  0  0  0  0  0
  191.4880  176.6960  138.0440 C   0  0  0  0  0  2  0  0  0  0  0  0
  192.7880  175.1160  136.8490 O   0  0  0  0  0  0  0  0  0  0  0  0
  194.9790  175.1450  138.8010 C   0  0  0  0  0  0  0  0  0  0  0  0
  195.8380  175.3330  139.7020 O   0  0  0  0  0  0  0  0  0  0  0  0
  192.7170  175.8750  137.8520 C   0  0  0  0  0  0  0  0  0  0  0  0
  193.7700  175.9130  138.8220 N   0  0  0  0  0  2  0  0  0  0  0  0
  195.2410  174.1020  137.7670 C   0  0  0  0  0  2  0  0  0  0  0  0
  195.1320  172.7230  138.3860 C   0  0  0  0  0  1  0  0  0  0  0  0
  1 31  1  6  0  0  0
  1  3  1  0  0  0  0
  3  2  1  1  0  0  0
  3  5  1  0  0  0  0
  5  6  1  0  0  0  0
  5  4  1  1  0  0  0
  6  7  1  0  0  0  0
  7 14  1  0  0  0  0
  8  9  1  0  0  0  0
 10 14  1  0  0  0  0
 11  8  2  0  0  0  0
 12 11  1  0  0  0  0
 13  9  1  0  0  0  0
 14 13  2  0  0  0  0
 15 10  2  0  0  0  0
 15 11  1  0  0  0  0
 16 17  2  0  0  0  0
 16  1  1  0  0  0  0
 19 26  1  0  0  0  0
 20 21  1  0  0  0  0
 20 28  2  0  0  0  0
 21 18  1  6  0  0  0
 21 29  1  0  0  0  0
 22 30  1  0  0  0  0
 23 18  1  0  0  0  0
 23 22  2  0  0  0  0
 24 16  1  0  0  0  0
 25 26  1  0  0  0  0
 25 18  2  0  0  0  0
 26 20  1  0  0  0  0
 27 24  2  0  0  0  0
 28 27  1  0  0  0  0
 29 24  1  0  0  0  0
 30 29  2  0  0  0  0
 31 32  1  0  0  0  0
 33 32  2  0  0  0  0
 33 34  1  0  0  0  0
 35 34  1  0  0  0  0
 36 35  1  0  0  0  0
 37 36  1  0  0  0  0
 38 37  1  0  0  0  0
 39 42  2  0  0  0  0
 40 43  1  0  0  0  0
 40 41  2  0  0  0  0
 42 38  1  0  0  0  0
 42 43  1  0  0  0  0
 44 45  1  0  0  0  0
 44 40  1  0  0  0  0
M  END
>  <MODEL>
7

>  <REMARK>
 VINA RESULT:      -7.0      3.131      5.978
  Name = 
  16 active torsions:
  status: ('A' for Active; 'I' for Inactive)
    1  A    between atoms: C_1  and  C_22
    2  A    between atoms: C_1  and  C_24
    3  A    between atoms: C_3  and  C_18
    4  A    between atoms: C_3  and  C_40
    5  A    between atoms: C_7  and  C_32
    6  A    between atoms: C_7  and  O_36
    7  A    between atoms: C_11  and  C_31
    8  A    between atoms: C_16  and  C_20
    9  A    between atoms: C_16  and  C_38
   10  A    between atoms: C_19  and  C_40
   11  A    between atoms: C_19  and  C_41
   12  A    between atoms: C_20  and  C_41
   13  A    between atoms: C_21  and  C_22
   14  A    between atoms: C_21  and  O_36
   15  A    between atoms: C_23  and  C_29
   16  A    between atoms: C_29  and  C_40
                            x       y       z     vdW  Elec       q    Type
                         _______ _______ _______ _____ _____    ______ ____

>  <TORSDO>
F 16

$$$$
=
 OpenBabel10232409503D

 45 48  0  0  1  0  0  0  0  0999 V2000
  190.0160  177.5840  140.3260 C   0  0  1  0  0  3  0  0  0  0  0  0
  187.6510  177.9600  140.5520 O   0  0  0  0  0  1  0  0  0  0  0  0
  188.7970  178.4160  139.8880 C   0  0  2  0  0  3  0  0  0  0  0  0
  188.9830  179.5570  137.7220 N   0  0  0  0  0  1  0  0  0  0  0  0
  188.5890  178.3180  138.3680 C   0  0  2  0  0  3  0  0  0  0  0  0
  187.1290  178.0210  138.0310 C   0  0  0  0  0  2  0  0  0  0  0  0
  186.9450  177.8970  136.5270 C   0  0  0  0  0  2  0  0  0  0  0  0
  189.6810  174.4520  135.7270 C   0  0  0  0  0  3  0  0  0  0  0  0
  189.2870  175.4650  134.7060 C   0  0  0  0  0  2  0  0  0  0  0  0
  186.8100  175.3610  136.3580 C   0  0  0  0  0  3  0  0  0  0  0  0
  188.8090  173.8500  136.5420 C   0  0  0  0  0  0  0  0  0  0  0  0
  189.2640  172.8630  137.3480 F   0  0  0  0  0  0  0  0  0  0  0  0
  188.6550  176.6640  135.3310 C   0  0  0  0  0  3  0  0  0  0  0  0
  187.5290  176.6140  136.0460 C   0  0  0  0  0  0  0  0  0  0  0  0
  187.3660  174.1610  136.5720 C   0  0  0  0  0  3  0  0  0  0  0  0
  189.8860  177.0860  141.7400 C   0  0  0  0  0  0  0  0  0  0  0  0
  189.7040  175.8940  141.9390 O   0  0  0  0  0  0  0  0  0  0  0  0
  188.4210  177.1370  146.1940 C   0  0  0  0  0  0  0  0  0  0  0  0
  191.5860  176.8040  147.7890 C   0  0  0  0  0  1  0  0  0  0  0  0
  190.4880  177.1810  145.5700 C   0  0  0  0  0  0  0  0  0  0  0  0
  189.2370  177.3100  145.1330 C   0  0  0  0  0  0  0  0  0  0  0  0
  186.5850  177.7680  144.7920 C   0  0  0  0  0  3  0  0  0  0  0  0
  187.0540  177.3560  146.0700 C   0  0  0  0  0  3  0  0  0  0  0  0
  189.9740  178.0400  142.8990 C   0  0  2  0  0  3  0  0  0  0  0  0
  189.1700  176.8990  147.2970 N   0  0  0  0  0  0  0  0  0  0  0  0
  190.4450  176.9320  146.8960 N   0  0  0  0  0  0  0  0  0  0  0  0
  191.3830  177.9790  143.5340 C   0  0  0  0  0  3  0  0  0  0  0  0
  191.6020  177.5730  144.7620 N   0  0  0  0  0  0  0  0  0  0  0  0
  188.8640  177.7690  143.9020 C   0  0  0  0  0  0  0  0  0  0  0  0
  187.4870  177.9880  143.7110 C   0  0  0  0  0  3  0  0  0  0  0  0
  190.2750  176.4100  139.3890 C   0  0  0  0  0  2  0  0  0  0  0  0
  191.6600  176.5100  138.8420 C   0  0  0  0  0  3  0  0  0  0  0  0
  191.8650  176.4100  137.5320 C   0  0  0  0  0  3  0  0  0  0  0  0
  193.2400  176.5250  136.9510 C   0  0  0  0  0  2  0  0  0  0  0  0
  193.2530  176.1370  135.4810 C   0  0  0  0  0  2  0  0  0  0  0  0
  194.6070  176.4370  134.8710 C   0  0  0  0  0  2  0  0  0  0  0  0
  195.4960  176.8270  135.8710 O   0  0  0  0  0  0  0  0  0  0  0  0
  196.7560  176.4520  135.3970 C   0  0  0  0  0  2  0  0  0  0  0  0
  198.0700  175.4100  137.0700 O   0  0  0  0  0  0  0  0  0  0  0  0
  197.2810  172.6950  136.2800 C   0  0  0  0  0  0  0  0  0  0  0  0
  196.7880  171.6220  135.8460 O   0  0  0  0  0  0  0  0  0  0  0  0
  197.2540  175.2500  136.1250 C   0  0  0  0  0  0  0  0  0  0  0  0
  196.8480  173.9390  135.7150 N   0  0  0  0  0  2  0  0  0  0  0  0
  198.3260  172.6260  137.3440 C   0  0  0  0  0  2  0  0  0  0  0  0
  199.6550  172.2260  136.7350 C   0  0  0  0  0  1  0  0  0  0  0  0
  1 31  1  6  0  0  0
  1 16  1  0  0  0  0
  3  1  1  0  0  0  0
  3  2  1  1  0  0  0
  5  4  1  6  0  0  0
  5  3  1  0  0  0  0
  6  5  1  0  0  0  0
  7  6  1  0  0  0  0
  8 11  2  0  0  0  0
  9 13  1  0  0  0  0
  9  8  1  0  0  0  0
 10 15  2  0  0  0  0
 11 15  1  0  0  0  0
 11 12  1  0  0  0  0
 13 14  2  0  0  0  0
 14 10  1  0  0  0  0
 14  7  1  0  0  0  0
 16 17  2  0  0  0  0
 18 25  2  0  0  0  0
 20 26  1  0  0  0  0
 21 20  2  0  0  0  0
 21 18  1  0  0  0  0
 22 23  2  0  0  0  0
 23 18  1  0  0  0  0
 24 16  1  6  0  0  0
 24 27  1  0  0  0  0
 24 29  1  0  0  0  0
 26 25  1  0  0  0  0
 26 19  1  0  0  0  0
 27 28  2  0  0  0  0
 28 20  1  0  0  0  0
 29 21  1  0  0  0  0
 30 29  2  0  0  0  0
 30 22  1  0  0  0  0
 32 31  1  0  0  0  0
 33 32  2  0  0  0  0
 34 33  1  0  0  0  0
 35 34  1  0  0  0  0
 36 35  1  0  0  0  0
 36 37  1  0  0  0  0
 38 37  1  0  0  0  0
 38 42  1  0  0  0  0
 40 44  1  0  0  0  0
 41 40  2  0  0  0  0
 42 39  2  0  0  0  0
 43 42  1  0  0  0  0
 43 40  1  0  0  0  0
 45 44  1  0  0  0  0
M  END
>  <MODEL>
8

>  <REMARK>
 VINA RESULT:      -6.9      4.575      9.293
  Name = 
  16 active torsions:
  status: ('A' for Active; 'I' for Inactive)
    1  A    between atoms: C_1  and  C_22
    2  A    between atoms: C_1  and  C_24
    3  A    between atoms: C_3  and  C_18
    4  A    between atoms: C_3  and  C_40
    5  A    between atoms: C_7  and  C_32
    6  A    between atoms: C_7  and  O_36
    7  A    between atoms: C_11  and  C_31
    8  A    between atoms: C_16  and  C_20
    9  A    between atoms: C_16  and  C_38
   10  A    between atoms: C_19  and  C_40
   11  A    between atoms: C_19  and  C_41
   12  A    between atoms: C_20  and  C_41
   13  A    between atoms: C_21  and  C_22
   14  A    between atoms: C_21  and  O_36
   15  A    between atoms: C_23  and  C_29
   16  A    between atoms: C_29  and  C_40
                            x       y       z     vdW  Elec       q    Type
                         _______ _______ _______ _____ _____    ______ ____

>  <TORSDO>
F 16

$$$$
=
 OpenBabel10232409503D

 45 48  0  0  1  0  0  0  0  0999 V2000
  185.6460  176.5570  137.4790 C   0  0  1  0  0  3  0  0  0  0  0  0
  186.1800  178.8160  138.1080 O   0  0  0  0  0  1  0  0  0  0  0  0
  185.1260  177.9890  137.7000 C   0  0  2  0  0  3  0  0  0  0  0  0
  182.9530  178.9170  138.3690 N   0  0  0  0  0  1  0  0  0  0  0  0
  184.0130  178.0060  138.7610 C   0  0  2  0  0  3  0  0  0  0  0  0
  184.5590  178.4320  140.1230 C   0  0  0  0  0  2  0  0  0  0  0  0
  183.5930  178.0380  141.2290 C   0  0  0  0  0  2  0  0  0  0  0  0
  184.5130  178.4030  145.5890 C   0  0  0  0  0  3  0  0  0  0  0  0
  183.6250  179.3360  144.8380 C   0  0  0  0  0  2  0  0  0  0  0  0
  185.5800  178.6130  142.7110 C   0  0  0  0  0  3  0  0  0  0  0  0
  185.7130  178.0130  145.1470 C   0  0  0  0  0  0  0  0  0  0  0  0
  186.4800  177.2570  145.9660 F   0  0  0  0  0  0  0  0  0  0  0  0
  183.2370  178.7810  143.5080 C   0  0  0  0  0  3  0  0  0  0  0  0
  184.1170  178.4860  142.5480 C   0  0  0  0  0  0  0  0  0  0  0  0
  186.2730  178.4070  143.8390 C   0  0  0  0  0  3  0  0  0  0  0  0
  184.5790  175.6440  136.9370 C   0  0  0  0  0  0  0  0  0  0  0  0
  184.0760  175.8920  135.8500 O   0  0  0  0  0  0  0  0  0  0  0  0
  181.4300  172.2170  136.3590 C   0  0  0  0  0  0  0  0  0  0  0  0
  183.6870  169.5190  135.8150 C   0  0  0  0  0  1  0  0  0  0  0  0
  183.5650  171.9270  136.4960 C   0  0  0  0  0  0  0  0  0  0  0  0
  182.5940  172.8190  136.6810 C   0  0  2  0  0  3  0  0  0  0  0  0
  180.2880  174.1580  137.1740 C   0  0  0  0  0  3  0  0  0  0  0  0
  180.2210  172.8640  136.5890 C   0  0  0  0  0  3  0  0  0  0  0  0
  184.1310  174.4400  137.7190 C   0  0  0  0  0  0  0  0  0  0  0  0
  181.6780  170.9440  135.9710 N   0  0  0  0  0  0  0  0  0  0  0  0
  183.0020  170.7780  136.0640 N   0  0  0  0  0  0  0  0  0  0  0  0
  185.1610  173.2950  137.5740 C   0  0  0  0  0  3  0  0  0  0  0  0
  184.8860  172.1490  137.0010 N   0  0  0  0  0  0  0  0  0  0  0  0
  182.7270  174.0260  137.3070 C   0  0  0  0  0  0  0  0  0  0  0  0
  181.5360  174.7360  137.5460 C   0  0  0  0  0  3  0  0  0  0  0  0
  186.8640  176.5240  136.5640 C   0  0  0  0  0  2  0  0  0  0  0  0
  188.0220  175.9400  137.3030 C   0  0  0  0  0  3  0  0  0  0  0  0
  189.0170  176.7260  137.7050 C   0  0  0  0  0  3  0  0  0  0  0  0
  190.1820  176.1740  138.4650 C   0  0  0  0  0  2  0  0  0  0  0  0
  190.3800  176.9070  139.7830 C   0  0  0  0  0  2  0  0  0  0  0  0
  189.0480  177.3930  140.3160 C   0  0  0  0  0  2  0  0  0  0  0  0
  188.9380  177.0760  141.6680 O   0  0  0  0  0  0  0  0  0  0  0  0
  189.5130  178.1590  142.3390 C   0  0  0  0  0  2  0  0  0  0  0  0
  191.4980  177.4120  143.3960 O   0  0  0  0  0  0  0  0  0  0  0  0
  190.2030  177.0270  146.0010 C   0  0  0  0  0  0  0  0  0  0  0  0
  189.5010  176.9820  147.0450 O   0  0  0  0  0  0  0  0  0  0  0  0
  190.2780  177.6920  143.5310 C   0  0  0  0  0  0  0  0  0  0  0  0
  189.6160  177.5160  144.7890 N   0  0  0  0  0  2  0  0  0  0  0  0
  191.6100  176.5330  146.0610 C   0  0  0  0  0  2  0  0  0  0  0  0
  191.9310  176.0570  147.4640 C   0  0  0  0  0  1  0  0  0  0  0  0
  1 31  1  6  0  0  0
  1  3  1  0  0  0  0
  3  2  1  1  0  0  0
  3  5  1  0  0  0  0
  5  4  1  6  0  0  0
  5  6  1  0  0  0  0
  6  7  1  0  0  0  0
  7 14  1  0  0  0  0
  9  8  1  0  0  0  0
 10 15  2  0  0  0  0
 11  8  2  0  0  0  0
 11 12  1  0  0  0  0
 13  9  1  0  0  0  0
 14 10  1  0  0  0  0
 14 13  2  0  0  0  0
 15 11  1  0  0  0  0
 16  1  1  0  0  0  0
 16 24  1  0  0  0  0
 17 16  2  0  0  0  0
 18 23  1  0  0  0  0
 19 26  1  0  0  0  0
 20 21  1  0  0  0  0
 20 28  2  0  0  0  0
 21 18  1  1  0  0  0
 21 29  1  0  0  0  0
 22 30  1  0  0  0  0
 23 22  2  0  0  0  0
 25 26  1  0  0  0  0
 25 18  2  0  0  0  0
 26 20  1  0  0  0  0
 27 24  2  0  0  0  0
 28 27  1  0  0  0  0
 29 30  2  0  0  0  0
 29 24  1  0  0  0  0
 31 32  1  0  0  0  0
 32 33  2  0  0  0  0
 33 34  1  0  0  0  0
 34 35  1  0  0  0  0
 35 36  1  0  0  0  0
 36 37  1  0  0  0  0
 37 38  1  0  0  0  0
 38 42  1  0  0  0  0
 39 42  2  0  0  0  0
 40 44  1  0  0  0  0
 40 41  2  0  0  0  0
 42 43  1  0  0  0  0
 43 40  1  0  0  0  0
 44 45  1  0  0  0  0
M  END
>  <MODEL>
9

>  <REMARK>
 VINA RESULT:      -6.9      2.159      3.551
  Name = 
  16 active torsions:
  status: ('A' for Active; 'I' for Inactive)
    1  A    between atoms: C_1  and  C_22
    2  A    between atoms: C_1  and  C_24
    3  A    between atoms: C_3  and  C_18
    4  A    between atoms: C_3  and  C_40
    5  A    between atoms: C_7  and  C_32
    6  A    between atoms: C_7  and  O_36
    7  A    between atoms: C_11  and  C_31
    8  A    between atoms: C_16  and  C_20
    9  A    between atoms: C_16  and  C_38
   10  A    between atoms: C_19  and  C_40
   11  A    between atoms: C_19  and  C_41
   12  A    between atoms: C_20  and  C_41
   13  A    between atoms: C_21  and  C_22
   14  A    between atoms: C_21  and  O_36
   15  A    between atoms: C_23  and  C_29
   16  A    between atoms: C_29  and  C_40
                            x       y       z     vdW  Elec       q    Type
                         _______ _______ _______ _____ _____    ______ ____

>  <TORSDO>
F 16

$$$$
