=
 OpenBabel10232412373D

 37 41  0  0  1  0  0  0  0  0999 V2000
  188.8610  177.1500  140.6870 C   0  0  2  0  0  3  0  0  0  0  0  0
  183.7960  179.1620  139.6310 C   0  0  0  0  0  0  0  0  0  0  0  0
  184.8110  178.7220  141.5640 C   0  0  0  0  0  0  0  0  0  0  0  0
  181.1760  178.8830  140.6880 N   0  0  0  0  0  0  0  0  0  0  0  0
  187.4320  178.3940  142.1760 C   0  0  0  0  0  0  0  0  0  0  0  0
  181.3250  179.1590  139.2820 C   0  0  0  0  0  0  0  0  0  0  0  0
  187.0000  178.7110  140.8100 C   0  0  0  0  0  0  0  0  0  0  0  0
  184.1990  178.2300  144.0000 C   0  0  0  0  0  1  0  0  0  0  0  0
  180.3020  179.1920  138.5500 O   0  0  0  0  0  0  0  0  0  0  0  0
  185.0910  179.1470  139.3510 O   0  0  0  0  0  0  0  0  0  0  0  0
  185.2200  178.3970  142.9260 C   0  0  0  0  0  0  0  0  0  0  0  0
  188.3630  178.5410  141.1330 C   0  0  2  0  0  3  0  0  0  0  0  0
  185.6960  178.8780  140.4830 C   0  0  0  0  0  0  0  0  0  0  0  0
  183.5830  178.8880  140.9670 C   0  0  0  0  0  0  0  0  0  0  0  0
  182.6860  179.3900  138.6540 C   0  0  0  0  0  2  0  0  0  0  0  0
  182.2900  178.7570  141.5350 N   0  0  0  0  0  0  0  0  0  0  0  0
  186.6150  178.2250  143.2720 C   0  0  0  0  0  3  0  0  0  0  0  0
  189.2570  175.7820  142.8090 C   0  0  0  0  0  1  0  0  0  0  0  0
  189.9150  176.5240  141.6460 C   0  0  2  0  0  3  0  0  0  0  0  0
  192.0560  177.6210  141.5330 O   0  0  0  0  0  0  0  0  0  0  0  0
  190.9580  177.4840  142.1510 C   0  0  0  0  0  0  0  0  0  0  0  0
  190.7180  178.1830  143.3410 O   0  0  0  0  0  0  0  0  0  0  0  0
  191.6100  178.1040  144.4520 C   0  0  0  0  0  2  0  0  0  0  0  0
  190.0220  176.9690  147.4640 N   0  0  0  0  0  2  0  0  0  0  0  0
  191.1450  177.0520  145.4540 C   0  0  1  0  0  3  0  0  0  0  0  0
  192.0570  176.9130  146.5020 O   0  0  0  0  0  0  0  0  0  0  0  0
  191.3160  176.4110  147.5330 N   0  0  0  0  0  2  0  0  0  0  0  0
  189.8510  177.4090  146.0970 C   0  0  0  0  0  2  0  0  0  0  0  0
  189.6710  178.3950  138.5490 C   0  0  0  0  0  1  0  0  0  0  0  0
  189.2920  177.0470  139.1760 C   0  0  1  0  0  0  0  0  0  0  0  0
  190.4010  176.0970  138.9790 N   0  0  0  0  0  2  0  0  0  0  0  0
  191.2180  176.4750  137.8290 C   0  0  0  0  0  2  0  0  0  0  0  0
  192.5740  175.8070  137.9310 C   0  0  0  0  0  2  0  0  0  0  0  0
  193.5110  176.7110  138.5760 N   0  0  0  0  0  1  0  0  0  0  0  0
  188.0900  176.5220  138.3920 C   0  0  0  0  0  2  0  0  0  0  0  0
  187.6260  177.4830  137.4880 O   0  0  0  0  0  0  0  0  0  0  0  0
  186.4210  176.9770  137.0040 C   0  0  0  0  0  1  0  0  0  0  0  0
  1 19  1  1  0  0  0
  2 14  2  0  0  0  0
  3 11  1  0  0  0  0
  4 16  2  0  0  0  0
  5 17  1  0  0  0  0
  6  4  1  0  0  0  0
  7 12  1  0  0  0  0
  7  5  2  0  0  0  0
  9  6  2  0  0  0  0
 10  2  1  0  0  0  0
 10 13  1  0  0  0  0
 11 17  2  0  0  0  0
 11  8  1  0  0  0  0
 12  1  1  6  0  0  0
 12  5  1  0  0  0  0
 13  7  1  0  0  0  0
 13  3  2  0  0  0  0
 14 16  1  0  0  0  0
 14  3  1  0  0  0  0
 15  6  1  0  0  0  0
 15  2  1  0  0  0  0
 19 21  1  0  0  0  0
 19 18  1  1  0  0  0
 20 21  2  0  0  0  0
 21 22  1  0  0  0  0
 22 23  1  0  0  0  0
 24 27  1  0  0  0  0
 25 23  1  6  0  0  0
 25 28  1  0  0  0  0
 25 26  1  0  0  0  0
 26 27  1  0  0  0  0
 28 24  1  0  0  0  0
 30 29  1  6  0  0  0
 30  1  1  0  0  0  0
 31 30  1  0  0  0  0
 32 33  1  0  0  0  0
 32 31  1  0  0  0  0
 33 34  1  0  0  0  0
 35 30  1  0  0  0  0
 36 35  1  0  0  0  0
 37 36  1  0  0  0  0
M  END
>  <MODEL>
1

>  <REMARK>
 VINA RESULT:      -7.5      0.000      0.000
  Name = 
  12 active torsions:
  status: ('A' for Active; 'I' for Inactive)
    1  A    between atoms: N_7  and  C_29
    2  A    between atoms: N_7  and  C_36
    3  A    between atoms: C_8  and  C_28
    4  A    between atoms: C_13  and  O_14
    5  A    between atoms: C_13  and  C_29
    6  A    between atoms: O_15  and  C_20
    7  A    between atoms: O_15  and  C_28
    8  A    between atoms: C_16  and  C_23
    9  A    between atoms: C_16  and  C_24
   10  A    between atoms: C_16  and  C_29
   11  A    between atoms: C_18  and  C_36
   12  A    between atoms: C_20  and  C_23
                            x       y       z     vdW  Elec       q    Type
                         _______ _______ _______ _____ _____    ______ ____

>  <TORSDO>
F 12

$$$$
=
 OpenBabel10232412373D

 37 41  0  0  1  0  0  0  0  0999 V2000
  188.6040  177.4260  141.0610 C   0  0  2  0  0  3  0  0  0  0  0  0
  183.5840  179.0780  139.3610 C   0  0  0  0  0  0  0  0  0  0  0  0
  184.3990  178.7830  141.4130 C   0  0  0  0  0  0  0  0  0  0  0  0
  180.8810  178.6850  140.1380 N   0  0  0  0  0  0  0  0  0  0  0  0
  186.9490  178.6410  142.3230 C   0  0  0  0  0  0  0  0  0  0  0  0
  181.1710  178.9100  138.7440 C   0  0  0  0  0  0  0  0  0  0  0  0
  186.6550  178.8740  140.9040 C   0  0  0  0  0  0  0  0  0  0  0  0
  183.5460  178.3570  143.7880 C   0  0  0  0  0  1  0  0  0  0  0  0
  180.2370  178.8500  137.9050 O   0  0  0  0  0  0  0  0  0  0  0  0
  184.9010  179.1310  139.2260 O   0  0  0  0  0  0  0  0  0  0  0  0
  184.6700  178.5410  142.8250 C   0  0  0  0  0  0  0  0  0  0  0  0
  187.9820  178.8010  141.3820 C   0  0  2  0  0  3  0  0  0  0  0  0
  185.3900  178.9480  140.4290 C   0  0  0  0  0  0  0  0  0  0  0  0
  183.2380  178.8480  140.6770 C   0  0  0  0  0  0  0  0  0  0  0  0
  182.5790  179.1980  138.2590 C   0  0  0  0  0  2  0  0  0  0  0  0
  181.8980  178.6630  141.1070 N   0  0  0  0  0  0  0  0  0  0  0  0
  186.0250  178.4700  143.3300 C   0  0  0  0  0  3  0  0  0  0  0  0
  188.8610  175.7510  142.9730 C   0  0  0  0  0  1  0  0  0  0  0  0
  189.5290  176.8780  142.1860 C   0  0  2  0  0  3  0  0  0  0  0  0
  191.0800  178.6210  142.7820 O   0  0  0  0  0  0  0  0  0  0  0  0
  190.0760  177.9240  143.1190 C   0  0  0  0  0  0  0  0  0  0  0  0
  189.4930  178.0800  144.3830 O   0  0  0  0  0  0  0  0  0  0  0  0
  190.1640  177.6750  145.5750 C   0  0  0  0  0  2  0  0  0  0  0  0
  187.3060  178.1440  147.6950 N   0  0  0  0  0  2  0  0  0  0  0  0
  189.1660  177.2690  146.6550 C   0  0  1  0  0  3  0  0  0  0  0  0
  189.5210  177.7950  147.8970 O   0  0  0  0  0  0  0  0  0  0  0  0
  188.3480  177.8410  148.5950 N   0  0  0  0  0  2  0  0  0  0  0  0
  187.7930  177.7780  146.3830 C   0  0  0  0  0  2  0  0  0  0  0  0
  188.5860  176.2690  138.7290 C   0  0  0  0  0  1  0  0  0  0  0  0
  189.2610  177.3060  139.6350 C   0  0  1  0  0  0  0  0  0  0  0  0
  189.3030  178.6010  138.9340 N   0  0  0  0  0  2  0  0  0  0  0  0
  189.1810  178.4200  137.4890 C   0  0  0  0  0  2  0  0  0  0  0  0
  187.8390  178.9510  137.0260 C   0  0  0  0  0  2  0  0  0  0  0  0
  187.4470  178.2710  135.8030 N   0  0  0  0  0  1  0  0  0  0  0  0
  190.7030  176.8410  139.8340 C   0  0  0  0  0  2  0  0  0  0  0  0
  191.0260  175.8210  138.9340 O   0  0  0  0  0  0  0  0  0  0  0  0
  192.1640  176.2700  138.2650 C   0  0  0  0  0  1  0  0  0  0  0  0
  1 19  1  1  0  0  0
  2 14  2  0  0  0  0
  3 11  1  0  0  0  0
  4 16  2  0  0  0  0
  5 17  1  0  0  0  0
  6  4  1  0  0  0  0
  7 12  1  0  0  0  0
  7  5  2  0  0  0  0
  9  6  2  0  0  0  0
 10  2  1  0  0  0  0
 10 13  1  0  0  0  0
 11 17  2  0  0  0  0
 11  8  1  0  0  0  0
 12  1  1  6  0  0  0
 12  5  1  0  0  0  0
 13  7  1  0  0  0  0
 13  3  2  0  0  0  0
 14 16  1  0  0  0  0
 14  3  1  0  0  0  0
 15  6  1  0  0  0  0
 15  2  1  0  0  0  0
 19 18  1  1  0  0  0
 19 21  1  0  0  0  0
 20 21  2  0  0  0  0
 21 22  1  0  0  0  0
 22 23  1  0  0  0  0
 24 27  1  0  0  0  0
 25 23  1  6  0  0  0
 25 26  1  0  0  0  0
 26 27  1  0  0  0  0
 28 25  1  0  0  0  0
 28 24  1  0  0  0  0
 30 29  1  6  0  0  0
 30 35  1  0  0  0  0
 30  1  1  0  0  0  0
 31 30  1  0  0  0  0
 32 31  1  0  0  0  0
 33 32  1  0  0  0  0
 34 33  1  0  0  0  0
 36 35  1  0  0  0  0
 37 36  1  0  0  0  0
M  END
>  <MODEL>
2

>  <REMARK>
 VINA RESULT:      -6.9      1.599      2.433
  Name = 
  12 active torsions:
  status: ('A' for Active; 'I' for Inactive)
    1  A    between atoms: N_7  and  C_29
    2  A    between atoms: N_7  and  C_36
    3  A    between atoms: C_8  and  C_28
    4  A    between atoms: C_13  and  O_14
    5  A    between atoms: C_13  and  C_29
    6  A    between atoms: O_15  and  C_20
    7  A    between atoms: O_15  and  C_28
    8  A    between atoms: C_16  and  C_23
    9  A    between atoms: C_16  and  C_24
   10  A    between atoms: C_16  and  C_29
   11  A    between atoms: C_18  and  C_36
   12  A    between atoms: C_20  and  C_23
                            x       y       z     vdW  Elec       q    Type
                         _______ _______ _______ _____ _____    ______ ____

>  <TORSDO>
F 12

$$$$
=
 OpenBabel10232412373D

 37 41  0  0  1  0  0  0  0  0999 V2000
  188.7050  176.3180  137.0960 C   0  0  2  0  0  3  0  0  0  0  0  0
  186.5720  178.5950  141.6880 C   0  0  0  0  0  0  0  0  0  0  0  0
  188.5490  177.6350  141.3250 C   0  0  0  0  0  0  0  0  0  0  0  0
  186.5770  178.0670  144.4780 N   0  0  0  0  0  0  0  0  0  0  0  0
  189.8960  177.1240  139.0300 C   0  0  0  0  0  0  0  0  0  0  0  0
  185.4260  178.7150  143.9020 C   0  0  0  0  0  0  0  0  0  0  0  0
  188.5970  177.8070  139.0180 C   0  0  0  0  0  0  0  0  0  0  0  0
  190.4200  176.5030  142.6550 C   0  0  0  0  0  1  0  0  0  0  0  0
  184.4290  178.9570  144.6290 O   0  0  0  0  0  0  0  0  0  0  0  0
  186.7500  178.6440  140.3760 O   0  0  0  0  0  0  0  0  0  0  0  0
  189.8340  176.9460  141.3580 C   0  0  0  0  0  0  0  0  0  0  0  0
  189.3030  177.5400  137.8240 C   0  0  2  0  0  3  0  0  0  0  0  0
  187.9080  178.0700  140.1520 C   0  0  0  0  0  0  0  0  0  0  0  0
  187.6380  177.9700  142.3010 C   0  0  0  0  0  0  0  0  0  0  0  0
  185.3750  179.0930  142.4340 C   0  0  0  0  0  2  0  0  0  0  0  0
  187.6850  177.7030  143.6940 N   0  0  0  0  0  0  0  0  0  0  0  0
  190.5710  176.6720  140.1420 C   0  0  0  0  0  3  0  0  0  0  0  0
  190.2420  174.2890  137.3110 C   0  0  0  0  0  1  0  0  0  0  0  0
  189.7680  175.4200  136.4000 C   0  0  2  0  0  3  0  0  0  0  0  0
  190.8300  176.7800  134.7210 O   0  0  0  0  0  0  0  0  0  0  0  0
  190.9410  176.1630  135.8220 C   0  0  0  0  0  0  0  0  0  0  0  0
  192.1700  176.1200  136.4930 O   0  0  0  0  0  0  0  0  0  0  0  0
  193.4100  176.0660  135.7890 C   0  0  0  0  0  2  0  0  0  0  0  0
  195.4020  174.8790  138.5280 N   0  0  0  0  0  2  0  0  0  0  0  0
  194.3890  175.1160  136.4730 C   0  0  1  0  0  3  0  0  0  0  0  0
  195.6930  175.6070  136.4170 O   0  0  0  0  0  0  0  0  0  0  0  0
  196.3260  175.0110  137.4700 N   0  0  0  0  0  2  0  0  0  0  0  0
  194.0910  174.9370  137.9210 C   0  0  0  0  0  2  0  0  0  0  0  0
  187.5120  178.0440  135.5540 C   0  0  0  0  0  1  0  0  0  0  0  0
  187.4810  176.6330  136.1570 C   0  0  1  0  0  0  0  0  0  0  0  0
  187.3480  175.6490  135.0700 N   0  0  0  0  0  2  0  0  0  0  0  0
  186.2890  174.6850  135.3600 C   0  0  0  0  0  2  0  0  0  0  0  0
  186.8940  173.3050  135.5270 C   0  0  0  0  0  2  0  0  0  0  0  0
  186.7290  172.8690  136.9020 N   0  0  0  0  0  1  0  0  0  0  0  0
  186.2150  176.5510  137.0110 C   0  0  0  0  0  2  0  0  0  0  0  0
  185.6250  177.8110  137.1490 O   0  0  0  0  0  0  0  0  0  0  0  0
  184.5480  177.6160  138.0130 C   0  0  0  0  0  1  0  0  0  0  0  0
  1 19  1  6  0  0  0
  2 14  2  0  0  0  0
  2 15  1  0  0  0  0
  3 11  1  0  0  0  0
  3 14  1  0  0  0  0
  5 17  1  0  0  0  0
  6  4  1  0  0  0  0
  6  9  2  0  0  0  0
  7  5  2  0  0  0  0
  7 13  1  0  0  0  0
 10  2  1  0  0  0  0
 11  8  1  0  0  0  0
 12  1  1  6  0  0  0
 12  7  1  0  0  0  0
 12  5  1  0  0  0  0
 13 10  1  0  0  0  0
 13  3  2  0  0  0  0
 14 16  1  0  0  0  0
 15  6  1  0  0  0  0
 16  4  2  0  0  0  0
 17 11  2  0  0  0  0
 19 18  1  1  0  0  0
 20 21  2  0  0  0  0
 21 19  1  0  0  0  0
 21 22  1  0  0  0  0
 23 22  1  0  0  0  0
 25 23  1  1  0  0  0
 25 28  1  0  0  0  0
 26 25  1  0  0  0  0
 26 27  1  0  0  0  0
 27 24  1  0  0  0  0
 28 24  1  0  0  0  0
 30 29  1  6  0  0  0
 30 35  1  0  0  0  0
 30  1  1  0  0  0  0
 31 32  1  0  0  0  0
 31 30  1  0  0  0  0
 32 33  1  0  0  0  0
 33 34  1  0  0  0  0
 35 36  1  0  0  0  0
 36 37  1  0  0  0  0
M  END
>  <MODEL>
3

>  <REMARK>
 VINA RESULT:      -6.6      3.282      6.231
  Name = 
  12 active torsions:
  status: ('A' for Active; 'I' for Inactive)
    1  A    between atoms: N_7  and  C_29
    2  A    between atoms: N_7  and  C_36
    3  A    between atoms: C_8  and  C_28
    4  A    between atoms: C_13  and  O_14
    5  A    between atoms: C_13  and  C_29
    6  A    between atoms: O_15  and  C_20
    7  A    between atoms: O_15  and  C_28
    8  A    between atoms: C_16  and  C_23
    9  A    between atoms: C_16  and  C_24
   10  A    between atoms: C_16  and  C_29
   11  A    between atoms: C_18  and  C_36
   12  A    between atoms: C_20  and  C_23
                            x       y       z     vdW  Elec       q    Type
                         _______ _______ _______ _____ _____    ______ ____

>  <TORSDO>
F 12

$$$$
=
 OpenBabel10232412373D

 37 41  0  0  1  0  0  0  0  0999 V2000
  189.5000  177.7650  145.2210 C   0  0  2  0  0  3  0  0  0  0  0  0
  184.1640  178.2540  143.7710 C   0  0  0  0  0  0  0  0  0  0  0  0
  186.0030  178.1120  142.5210 C   0  0  0  0  0  0  0  0  0  0  0  0
  182.6550  179.6170  141.7900 N   0  0  0  0  0  0  0  0  0  0  0  0
  188.4960  177.2190  143.1000 C   0  0  0  0  0  0  0  0  0  0  0  0
  182.0420  179.3670  143.0700 C   0  0  0  0  0  0  0  0  0  0  0  0
  187.4210  177.1860  144.0990 C   0  0  0  0  0  0  0  0  0  0  0  0
  186.7860  178.7170  140.1610 C   0  0  0  0  0  1  0  0  0  0  0  0
  180.8940  179.8220  143.3020 O   0  0  0  0  0  0  0  0  0  0  0  0
  185.0800  177.7060  144.5550 O   0  0  0  0  0  0  0  0  0  0  0  0
  187.0600  178.1620  141.5180 C   0  0  0  0  0  0  0  0  0  0  0  0
  188.7200  176.7200  144.3960 C   0  0  2  0  0  3  0  0  0  0  0  0
  186.1700  177.6280  143.8310 C   0  0  0  0  0  0  0  0  0  0  0  0
  184.6930  178.5350  142.5270 C   0  0  0  0  0  0  0  0  0  0  0  0
  182.7570  178.5840  144.1560 C   0  0  0  0  0  2  0  0  0  0  0  0
  183.9660  179.1990  141.5060 N   0  0  0  0  0  0  0  0  0  0  0  0
  188.3940  177.6830  141.8070 C   0  0  0  0  0  3  0  0  0  0  0  0
  191.0180  179.4510  144.0470 C   0  0  0  0  0  1  0  0  0  0  0  0
  190.9270  178.0600  144.6730 C   0  0  2  0  0  3  0  0  0  0  0  0
  191.6500  175.8280  144.1300 O   0  0  0  0  0  0  0  0  0  0  0  0
  191.4700  177.0180  143.7330 C   0  0  0  0  0  0  0  0  0  0  0  0
  191.8210  177.3950  142.4300 O   0  0  0  0  0  0  0  0  0  0  0  0
  191.4570  176.6080  141.2970 C   0  0  0  0  0  2  0  0  0  0  0  0
  192.4970  176.5560  137.8620 N   0  0  0  0  0  2  0  0  0  0  0  0
  191.9900  177.2260  140.0070 C   0  0  1  0  0  3  0  0  0  0  0  0
  193.3660  177.0310  139.8840 O   0  0  0  0  0  0  0  0  0  0  0  0
  193.6020  177.1100  138.5410 N   0  0  0  0  0  2  0  0  0  0  0  0
  191.3900  176.6110  138.7900 C   0  0  0  0  0  2  0  0  0  0  0  0
  189.9430  178.7450  147.5920 C   0  0  0  0  0  1  0  0  0  0  0  0
  189.4960  177.5250  146.7770 C   0  0  1  0  0  0  0  0  0  0  0  0
  188.1800  177.0770  147.2650 N   0  0  0  0  0  2  0  0  0  0  0  0
  187.5170  178.1330  148.0280 C   0  0  0  0  0  2  0  0  0  0  0  0
  186.1430  178.3910  147.4420 C   0  0  0  0  0  2  0  0  0  0  0  0
  185.8900  179.8210  147.4190 N   0  0  0  0  0  1  0  0  0  0  0  0
  190.5010  176.4110  147.0710 C   0  0  0  0  0  2  0  0  0  0  0  0
  191.6180  176.9130  147.7450 O   0  0  0  0  0  0  0  0  0  0  0  0
  192.5190  175.8500  147.8010 C   0  0  0  0  0  1  0  0  0  0  0  0
  1 19  1  6  0  0  0
  1 30  1  0  0  0  0
  2 15  1  0  0  0  0
  2 10  1  0  0  0  0
  3 14  1  0  0  0  0
  3 13  1  0  0  0  0
  4  6  1  0  0  0  0
  5  7  1  0  0  0  0
  5 12  1  0  0  0  0
  6  9  2  0  0  0  0
  6 15  1  0  0  0  0
  7 12  1  0  0  0  0
  8 11  1  0  0  0  0
 11 17  1  0  0  0  0
 11  3  2  0  0  0  0
 12  1  1  1  0  0  0
 13  7  2  0  0  0  0
 13 10  1  0  0  0  0
 14  2  2  0  0  0  0
 16  4  2  0  0  0  0
 16 14  1  0  0  0  0
 17  5  2  0  0  0  0
 19 18  1  6  0  0  0
 21 20  2  0  0  0  0
 21 19  1  0  0  0  0
 22 21  1  0  0  0  0
 23 22  1  0  0  0  0
 24 27  1  0  0  0  0
 24 28  1  0  0  0  0
 25 23  1  1  0  0  0
 26 25  1  0  0  0  0
 27 26  1  0  0  0  0
 28 25  1  0  0  0  0
 30 35  1  0  0  0  0
 30 31  1  0  0  0  0
 30 29  1  1  0  0  0
 31 32  1  0  0  0  0
 33 32  1  0  0  0  0
 34 33  1  0  0  0  0
 35 36  1  0  0  0  0
 36 37  1  0  0  0  0
M  END
>  <MODEL>
4

>  <REMARK>
 VINA RESULT:      -6.2      2.460      6.537
  Name = 
  12 active torsions:
  status: ('A' for Active; 'I' for Inactive)
    1  A    between atoms: N_7  and  C_29
    2  A    between atoms: N_7  and  C_36
    3  A    between atoms: C_8  and  C_28
    4  A    between atoms: C_13  and  O_14
    5  A    between atoms: C_13  and  C_29
    6  A    between atoms: O_15  and  C_20
    7  A    between atoms: O_15  and  C_28
    8  A    between atoms: C_16  and  C_23
    9  A    between atoms: C_16  and  C_24
   10  A    between atoms: C_16  and  C_29
   11  A    between atoms: C_18  and  C_36
   12  A    between atoms: C_20  and  C_23
                            x       y       z     vdW  Elec       q    Type
                         _______ _______ _______ _____ _____    ______ ____

>  <TORSDO>
F 12

$$$$
=
 OpenBabel10232412373D

 37 41  0  0  1  0  0  0  0  0999 V2000
  187.1170  177.5080  143.7730 C   0  0  2  0  0  3  0  0  0  0  0  0
  183.4200  178.8590  139.8570 C   0  0  0  0  0  0  0  0  0  0  0  0
  183.2400  178.8280  142.0770 C   0  0  0  0  0  0  0  0  0  0  0  0
  180.6380  178.5180  139.4050 N   0  0  0  0  0  0  0  0  0  0  0  0
  185.1250  178.8400  144.0260 C   0  0  0  0  0  0  0  0  0  0  0  0
  181.5180  178.5770  138.2650 C   0  0  0  0  0  0  0  0  0  0  0  0
  185.4930  178.8940  142.6060 C   0  0  0  0  0  0  0  0  0  0  0  0
  181.4160  178.6790  143.8660 C   0  0  0  0  0  1  0  0  0  0  0  0
  181.0460  178.4000  137.1140 O   0  0  0  0  0  0  0  0  0  0  0  0
  184.6640  178.9170  140.3100 O   0  0  0  0  0  0  0  0  0  0  0  0
  182.8540  178.7640  143.4820 C   0  0  0  0  0  0  0  0  0  0  0  0
  186.4710  178.9020  143.6240 C   0  0  2  0  0  3  0  0  0  0  0  0
  184.5680  178.8880  141.6180 C   0  0  0  0  0  0  0  0  0  0  0  0
  182.5240  178.7840  140.9040 C   0  0  0  0  0  0  0  0  0  0  0  0
  183.0060  178.8270  138.4200 C   0  0  0  0  0  2  0  0  0  0  0  0
  181.1250  178.6300  140.7180 N   0  0  0  0  0  0  0  0  0  0  0  0
  183.8470  178.7760  144.5360 C   0  0  0  0  0  3  0  0  0  0  0  0
  185.9930  176.5280  145.8470 C   0  0  0  0  0  1  0  0  0  0  0  0
  187.2980  177.0540  145.2500 C   0  0  2  0  0  3  0  0  0  0  0  0
  187.2430  179.0810  146.5480 O   0  0  0  0  0  0  0  0  0  0  0  0
  187.9180  178.0830  146.1550 C   0  0  0  0  0  0  0  0  0  0  0  0
  189.2650  177.9490  146.5140 O   0  0  0  0  0  0  0  0  0  0  0  0
  189.8230  176.6880  146.8820 C   0  0  0  0  0  2  0  0  0  0  0  0
  193.0640  175.4710  147.8290 N   0  0  0  0  0  2  0  0  0  0  0  0
  191.3320  176.7940  147.0840 C   0  0  1  0  0  3  0  0  0  0  0  0
  191.6450  177.1220  148.4040 O   0  0  0  0  0  0  0  0  0  0  0  0
  192.9170  176.6580  148.5770 N   0  0  0  0  0  2  0  0  0  0  0  0
  192.0350  175.5100  146.8140 C   0  0  0  0  0  2  0  0  0  0  0  0
  189.1570  175.9780  143.2470 C   0  0  0  0  0  1  0  0  0  0  0  0
  188.4170  177.2800  142.9140 C   0  0  1  0  0  0  0  0  0  0  0  0
  188.1390  177.3180  141.4680 N   0  0  0  0  0  2  0  0  0  0  0  0
  189.3790  177.2820  140.6940 C   0  0  0  0  0  2  0  0  0  0  0  0
  189.2030  178.0870  139.4220 C   0  0  0  0  0  2  0  0  0  0  0  0
  187.8140  178.4900  139.2940 N   0  0  0  0  0  1  0  0  0  0  0  0
  189.3810  178.4240  143.2290 C   0  0  0  0  0  2  0  0  0  0  0  0
  190.6130  177.9310  143.6680 O   0  0  0  0  0  0  0  0  0  0  0  0
  191.3960  179.0600  143.9010 C   0  0  0  0  0  1  0  0  0  0  0  0
  1 19  1  1  0  0  0
  2 10  1  0  0  0  0
  2 14  2  0  0  0  0
  3 11  1  0  0  0  0
  4 16  2  0  0  0  0
  5 17  1  0  0  0  0
  6 15  1  0  0  0  0
  6  4  1  0  0  0  0
  7 12  1  0  0  0  0
  7  5  2  0  0  0  0
  9  6  2  0  0  0  0
 10 13  1  0  0  0  0
 11  8  1  0  0  0  0
 11 17  2  0  0  0  0
 12  1  1  6  0  0  0
 12  5  1  0  0  0  0
 13  3  2  0  0  0  0
 13  7  1  0  0  0  0
 14  3  1  0  0  0  0
 15  2  1  0  0  0  0
 16 14  1  0  0  0  0
 19 18  1  1  0  0  0
 19 21  1  0  0  0  0
 21 22  1  0  0  0  0
 21 20  2  0  0  0  0
 22 23  1  0  0  0  0
 24 27  1  0  0  0  0
 25 23  1  1  0  0  0
 25 26  1  0  0  0  0
 26 27  1  0  0  0  0
 28 25  1  0  0  0  0
 28 24  1  0  0  0  0
 30 35  1  0  0  0  0
 30 29  1  1  0  0  0
 30  1  1  0  0  0  0
 31 30  1  0  0  0  0
 32 31  1  0  0  0  0
 33 32  1  0  0  0  0
 34 33  1  0  0  0  0
 35 36  1  0  0  0  0
 36 37  1  0  0  0  0
M  END
>  <MODEL>
5

>  <REMARK>
 VINA RESULT:      -6.1      2.198      3.764
  Name = 
  12 active torsions:
  status: ('A' for Active; 'I' for Inactive)
    1  A    between atoms: N_7  and  C_29
    2  A    between atoms: N_7  and  C_36
    3  A    between atoms: C_8  and  C_28
    4  A    between atoms: C_13  and  O_14
    5  A    between atoms: C_13  and  C_29
    6  A    between atoms: O_15  and  C_20
    7  A    between atoms: O_15  and  C_28
    8  A    between atoms: C_16  and  C_23
    9  A    between atoms: C_16  and  C_24
   10  A    between atoms: C_16  and  C_29
   11  A    between atoms: C_18  and  C_36
   12  A    between atoms: C_20  and  C_23
                            x       y       z     vdW  Elec       q    Type
                         _______ _______ _______ _____ _____    ______ ____

>  <TORSDO>
F 12

$$$$
=
 OpenBabel10232412373D

 37 41  0  0  1  0  0  0  0  0999 V2000
  185.3740  177.0590  137.8310 C   0  0  2  0  0  3  0  0  0  0  0  0
  184.9880  178.8300  143.0780 C   0  0  0  0  0  0  0  0  0  0  0  0
  186.7730  178.3860  141.8210 C   0  0  0  0  0  0  0  0  0  0  0  0
  186.3320  178.3800  145.5380 N   0  0  0  0  0  0  0  0  0  0  0  0
  187.0630  178.1790  139.1340 C   0  0  0  0  0  0  0  0  0  0  0  0
  184.9290  178.7060  145.5700 C   0  0  0  0  0  0  0  0  0  0  0  0
  185.7690  178.5150  139.7400 C   0  0  0  0  0  0  0  0  0  0  0  0
  189.2440  177.7870  142.1170 C   0  0  0  0  0  1  0  0  0  0  0  0
  184.3230  178.7070  146.6720 O   0  0  0  0  0  0  0  0  0  0  0  0
  184.5600  178.8930  141.8260 O   0  0  0  0  0  0  0  0  0  0  0  0
  188.0650  178.0410  141.2400 C   0  0  0  0  0  0  0  0  0  0  0  0
  185.9250  178.4070  138.3410 C   0  0  2  0  0  3  0  0  0  0  0  0
  185.6030  178.6220  141.0790 C   0  0  0  0  0  0  0  0  0  0  0  0
  186.3280  178.5040  143.1180 C   0  0  0  0  0  0  0  0  0  0  0  0
  184.1560  179.0290  144.3050 C   0  0  0  0  0  2  0  0  0  0  0  0
  187.0380  178.2870  144.3280 N   0  0  0  0  0  0  0  0  0  0  0  0
  188.2400  177.9330  139.8070 C   0  0  0  0  0  3  0  0  0  0  0  0
  186.9560  175.2060  137.0620 C   0  0  0  0  0  1  0  0  0  0  0  0
  186.1840  176.4580  136.6460 C   0  0  2  0  0  3  0  0  0  0  0  0
  186.6440  178.1600  135.0060 O   0  0  0  0  0  0  0  0  0  0  0  0
  187.0900  177.4310  135.9420 C   0  0  0  0  0  0  0  0  0  0  0  0
  188.4430  177.4820  136.3010 O   0  0  0  0  0  0  0  0  0  0  0  0
  189.4470  176.8030  135.5480 C   0  0  0  0  0  2  0  0  0  0  0  0
  190.8950  174.2780  137.6470 N   0  0  0  0  0  2  0  0  0  0  0  0
  190.5180  176.2180  136.4630 C   0  0  1  0  0  3  0  0  0  0  0  0
  190.1970  176.4120  137.8070 O   0  0  0  0  0  0  0  0  0  0  0  0
  190.8760  175.4270  138.4650 N   0  0  0  0  0  2  0  0  0  0  0  0
  190.6670  174.7450  136.2980 C   0  0  0  0  0  2  0  0  0  0  0  0
  183.0280  176.2780  138.6480 C   0  0  0  0  0  1  0  0  0  0  0  0
  183.8210  177.0280  137.5700 C   0  0  1  0  0  0  0  0  0  0  0  0
  183.2590  178.3810  137.4140 N   0  0  0  0  0  2  0  0  0  0  0  0
  182.0870  178.5640  138.2670 C   0  0  0  0  0  2  0  0  0  0  0  0
  181.8850  180.0410  138.5370 C   0  0  0  0  0  2  0  0  0  0  0  0
  183.1660  180.6550  138.8460 N   0  0  0  0  0  1  0  0  0  0  0  0
  183.5920  176.2780  136.2580 C   0  0  0  0  0  2  0  0  0  0  0  0
  182.2760  175.8150  136.1720 O   0  0  0  0  0  0  0  0  0  0  0  0
  181.8500  176.1580  134.8900 C   0  0  0  0  0  1  0  0  0  0  0  0
  1 19  1  6  0  0  0
  2 14  2  0  0  0  0
  2 15  1  0  0  0  0
  3 14  1  0  0  0  0
  4  6  1  0  0  0  0
  5  7  2  0  0  0  0
  5 17  1  0  0  0  0
  6  9  2  0  0  0  0
  7 13  1  0  0  0  0
 10  2  1  0  0  0  0
 11  3  1  0  0  0  0
 11  8  1  0  0  0  0
 12  1  1  1  0  0  0
 12  5  1  0  0  0  0
 12  7  1  0  0  0  0
 13  3  2  0  0  0  0
 13 10  1  0  0  0  0
 14 16  1  0  0  0  0
 15  6  1  0  0  0  0
 16  4  2  0  0  0  0
 17 11  2  0  0  0  0
 19 18  1  1  0  0  0
 20 21  2  0  0  0  0
 21 22  1  0  0  0  0
 21 19  1  0  0  0  0
 23 22  1  0  0  0  0
 24 27  1  0  0  0  0
 25 23  1  6  0  0  0
 25 26  1  0  0  0  0
 26 27  1  0  0  0  0
 28 25  1  0  0  0  0
 28 24  1  0  0  0  0
 30  1  1  0  0  0  0
 30 29  1  1  0  0  0
 31 30  1  0  0  0  0
 31 32  1  0  0  0  0
 32 33  1  0  0  0  0
 33 34  1  0  0  0  0
 35 30  1  0  0  0  0
 36 35  1  0  0  0  0
 37 36  1  0  0  0  0
M  END
>  <MODEL>
6

>  <REMARK>
 VINA RESULT:      -5.8      2.932      6.881
  Name = 
  12 active torsions:
  status: ('A' for Active; 'I' for Inactive)
    1  A    between atoms: N_7  and  C_29
    2  A    between atoms: N_7  and  C_36
    3  A    between atoms: C_8  and  C_28
    4  A    between atoms: C_13  and  O_14
    5  A    between atoms: C_13  and  C_29
    6  A    between atoms: O_15  and  C_20
    7  A    between atoms: O_15  and  C_28
    8  A    between atoms: C_16  and  C_23
    9  A    between atoms: C_16  and  C_24
   10  A    between atoms: C_16  and  C_29
   11  A    between atoms: C_18  and  C_36
   12  A    between atoms: C_20  and  C_23
                            x       y       z     vdW  Elec       q    Type
                         _______ _______ _______ _____ _____    ______ ____

>  <TORSDO>
F 12

$$$$
=
 OpenBabel10232412373D

 37 41  0  0  1  0  0  0  0  0999 V2000
  185.2390  177.0540  137.5590 C   0  0  2  0  0  3  0  0  0  0  0  0
  184.8150  178.8720  142.7870 C   0  0  0  0  0  0  0  0  0  0  0  0
  186.6090  178.4160  141.5470 C   0  0  0  0  0  0  0  0  0  0  0  0
  186.1400  178.4440  145.2610 N   0  0  0  0  0  0  0  0  0  0  0  0
  186.9190  178.1840  138.8640 C   0  0  0  0  0  0  0  0  0  0  0  0
  184.7370  178.7710  145.2800 C   0  0  0  0  0  0  0  0  0  0  0  0
  185.6210  178.5260  139.4570 C   0  0  0  0  0  0  0  0  0  0  0  0
  189.0770  177.8180  141.8670 C   0  0  0  0  0  1  0  0  0  0  0  0
  184.1230  178.7830  146.3770 O   0  0  0  0  0  0  0  0  0  0  0  0
  184.3960  178.9240  141.5310 O   0  0  0  0  0  0  0  0  0  0  0  0
  187.9050  178.0660  140.9790 C   0  0  0  0  0  0  0  0  0  0  0  0
  185.7870  178.4060  138.0600 C   0  0  2  0  0  3  0  0  0  0  0  0
  185.4440  178.6460  140.7940 C   0  0  0  0  0  0  0  0  0  0  0  0
  186.1550  178.5460  142.8400 C   0  0  0  0  0  0  0  0  0  0  0  0
  183.9740  179.0830  144.0060 C   0  0  0  0  0  2  0  0  0  0  0  0
  186.8560  178.3400  144.0560 N   0  0  0  0  0  0  0  0  0  0  0  0
  188.0900  177.9450  139.5480 C   0  0  0  0  0  3  0  0  0  0  0  0
  186.8350  175.1330  137.0190 C   0  0  0  0  0  1  0  0  0  0  0  0
  186.1310  176.3770  136.4780 C   0  0  2  0  0  3  0  0  0  0  0  0
  186.7410  178.0660  134.8740 O   0  0  0  0  0  0  0  0  0  0  0  0
  187.1160  177.2950  135.8070 C   0  0  0  0  0  0  0  0  0  0  0  0
  188.4610  177.2470  136.1940 O   0  0  0  0  0  0  0  0  0  0  0  0
  189.4700  176.7080  135.3400 C   0  0  0  0  0  2  0  0  0  0  0  0
  190.4990  173.9130  137.3430 N   0  0  0  0  0  2  0  0  0  0  0  0
  190.4710  175.8740  136.1340 C   0  0  1  0  0  3  0  0  0  0  0  0
  190.3980  176.1570  137.4980 O   0  0  0  0  0  0  0  0  0  0  0  0
  190.8860  175.0350  138.1050 N   0  0  0  0  0  2  0  0  0  0  0  0
  190.2150  174.4120  136.0160 C   0  0  0  0  0  2  0  0  0  0  0  0
  183.4730  177.0740  135.6450 C   0  0  0  0  0  1  0  0  0  0  0  0
  183.7150  177.0570  137.1600 C   0  0  1  0  0  0  0  0  0  0  0  0
  182.9850  175.9220  137.7500 N   0  0  0  0  0  2  0  0  0  0  0  0
  182.3530  175.1080  136.7140 C   0  0  0  0  0  2  0  0  0  0  0  0
  182.7800  173.6630  136.8760 C   0  0  0  0  0  2  0  0  0  0  0  0
  183.8290  173.3590  135.9190 N   0  0  0  0  0  1  0  0  0  0  0  0
  183.0990  178.3410  137.7160 C   0  0  0  0  0  2  0  0  0  0  0  0
  182.2160  178.0580  138.7620 O   0  0  0  0  0  0  0  0  0  0  0  0
  181.7940  179.3010  139.2300 C   0  0  0  0  0  1  0  0  0  0  0  0
  1 19  1  6  0  0  0
  2 14  2  0  0  0  0
  2 15  1  0  0  0  0
  3 14  1  0  0  0  0
  4  6  1  0  0  0  0
  5  7  2  0  0  0  0
  5 17  1  0  0  0  0
  6  9  2  0  0  0  0
  7 13  1  0  0  0  0
 10  2  1  0  0  0  0
 11  3  1  0  0  0  0
 11  8  1  0  0  0  0
 12  1  1  1  0  0  0
 12  5  1  0  0  0  0
 12  7  1  0  0  0  0
 13 10  1  0  0  0  0
 13  3  2  0  0  0  0
 14 16  1  0  0  0  0
 15  6  1  0  0  0  0
 16  4  2  0  0  0  0
 17 11  2  0  0  0  0
 19 18  1  1  0  0  0
 20 21  2  0  0  0  0
 21 22  1  0  0  0  0
 21 19  1  0  0  0  0
 23 22  1  0  0  0  0
 24 27  1  0  0  0  0
 25 23  1  6  0  0  0
 25 26  1  0  0  0  0
 26 27  1  0  0  0  0
 28 25  1  0  0  0  0
 28 24  1  0  0  0  0
 30 29  1  6  0  0  0
 30  1  1  0  0  0  0
 30 35  1  0  0  0  0
 30 31  1  0  0  0  0
 32 33  1  0  0  0  0
 32 31  1  0  0  0  0
 34 33  1  0  0  0  0
 35 36  1  0  0  0  0
 36 37  1  0  0  0  0
M  END
>  <MODEL>
7

>  <REMARK>
 VINA RESULT:      -5.7      3.077      6.851
  Name = 
  12 active torsions:
  status: ('A' for Active; 'I' for Inactive)
    1  A    between atoms: N_7  and  C_29
    2  A    between atoms: N_7  and  C_36
    3  A    between atoms: C_8  and  C_28
    4  A    between atoms: C_13  and  O_14
    5  A    between atoms: C_13  and  C_29
    6  A    between atoms: O_15  and  C_20
    7  A    between atoms: O_15  and  C_28
    8  A    between atoms: C_16  and  C_23
    9  A    between atoms: C_16  and  C_24
   10  A    between atoms: C_16  and  C_29
   11  A    between atoms: C_18  and  C_36
   12  A    between atoms: C_20  and  C_23
                            x       y       z     vdW  Elec       q    Type
                         _______ _______ _______ _____ _____    ______ ____

>  <TORSDO>
F 12

$$$$
=
 OpenBabel10232412373D

 37 41  0  0  1  0  0  0  0  0999 V2000
  189.6970  177.7370  140.9740 C   0  0  2  0  0  3  0  0  0  0  0  0
  188.1270  177.3120  146.2810 C   0  0  0  0  0  0  0  0  0  0  0  0
  186.9770  177.9050  144.4690 C   0  0  0  0  0  0  0  0  0  0  0  0
  186.4470  178.7250  148.0820 N   0  0  0  0  0  0  0  0  0  0  0  0
  187.4580  177.5000  141.8320 C   0  0  0  0  0  0  0  0  0  0  0  0
  187.5990  178.0390  148.6100 C   0  0  0  0  0  0  0  0  0  0  0  0
  188.3640  176.9800  142.8630 C   0  0  0  0  0  0  0  0  0  0  0  0
  184.8690  179.2250  143.8640 C   0  0  0  0  0  1  0  0  0  0  0  0
  187.8710  178.1460  149.8330 O   0  0  0  0  0  0  0  0  0  0  0  0
  188.8070  176.8180  145.2580 O   0  0  0  0  0  0  0  0  0  0  0  0
  186.0700  178.4390  143.4590 C   0  0  0  0  0  0  0  0  0  0  0  0
  188.6100  176.7700  141.4880 C   0  0  2  0  0  3  0  0  0  0  0  0
  188.1420  177.1720  144.1840 C   0  0  0  0  0  0  0  0  0  0  0  0
  187.0140  177.9980  145.8410 C   0  0  0  0  0  0  0  0  0  0  0  0
  188.5050  177.2050  147.7250 C   0  0  0  0  0  2  0  0  0  0  0  0
  186.1420  178.7030  146.7110 N   0  0  0  0  0  0  0  0  0  0  0  0
  186.3070  178.2260  142.0470 C   0  0  0  0  0  3  0  0  0  0  0  0
  189.0160  178.7890  138.7470 C   0  0  0  0  0  1  0  0  0  0  0  0
  189.8710  177.7200  139.4270 C   0  0  2  0  0  3  0  0  0  0  0  0
  190.5520  175.4850  138.8450 O   0  0  0  0  0  0  0  0  0  0  0  0
  189.6550  176.3780  138.7830 C   0  0  0  0  0  0  0  0  0  0  0  0
  188.4710  176.1490  138.0700 O   0  0  0  0  0  0  0  0  0  0  0  0
  188.4790  175.8630  136.6720 C   0  0  0  0  0  2  0  0  0  0  0  0
  186.4980  172.9690  137.4370 N   0  0  0  0  0  2  0  0  0  0  0  0
  187.8750  174.4900  136.3890 C   0  0  1  0  0  3  0  0  0  0  0  0
  188.6400  173.4730  136.9610 O   0  0  0  0  0  0  0  0  0  0  0  0
  187.7650  172.4370  137.1190 N   0  0  0  0  0  2  0  0  0  0  0  0
  186.5120  174.3370  136.9690 C   0  0  0  0  0  2  0  0  0  0  0  0
  191.2230  178.6850  142.8590 C   0  0  0  0  0  1  0  0  0  0  0  0
  191.0760  177.6550  141.7310 C   0  0  1  0  0  0  0  0  0  0  0  0
  191.3310  176.3100  142.2730 N   0  0  0  0  0  2  0  0  0  0  0  0
  191.6310  176.3670  143.7020 C   0  0  0  0  0  2  0  0  0  0  0  0
  191.9360  174.9730  144.2110 C   0  0  0  0  0  2  0  0  0  0  0  0
  192.3550  175.0470  145.5990 N   0  0  0  0  0  1  0  0  0  0  0  0
  192.1750  177.9600  140.7140 C   0  0  0  0  0  2  0  0  0  0  0  0
  193.1070  176.9200  140.6610 O   0  0  0  0  0  0  0  0  0  0  0  0
  193.5310  176.8770  139.3340 C   0  0  0  0  0  1  0  0  0  0  0  0
  1 19  1  6  0  0  0
  1 30  1  0  0  0  0
  2 15  1  0  0  0  0
  3 14  1  0  0  0  0
  4  6  1  0  0  0  0
  5 17  2  0  0  0  0
  5  7  1  0  0  0  0
  6  9  2  0  0  0  0
  7 13  2  0  0  0  0
 10  2  1  0  0  0  0
 11  8  1  0  0  0  0
 11  3  2  0  0  0  0
 12  1  1  6  0  0  0
 12  5  1  0  0  0  0
 12  7  1  0  0  0  0
 13  3  1  0  0  0  0
 13 10  1  0  0  0  0
 14  2  2  0  0  0  0
 14 16  1  0  0  0  0
 15  6  1  0  0  0  0
 16  4  2  0  0  0  0
 17 11  1  0  0  0  0
 19 18  1  6  0  0  0
 21 20  2  0  0  0  0
 21 19  1  0  0  0  0
 22 21  1  0  0  0  0
 23 22  1  0  0  0  0
 25 23  1  1  0  0  0
 25 26  1  0  0  0  0
 25 28  1  0  0  0  0
 26 27  1  0  0  0  0
 27 24  1  0  0  0  0
 28 24  1  0  0  0  0
 30 31  1  0  0  0  0
 30 29  1  1  0  0  0
 31 32  1  0  0  0  0
 32 33  1  0  0  0  0
 33 34  1  0  0  0  0
 35 30  1  0  0  0  0
 36 35  1  0  0  0  0
 37 36  1  0  0  0  0
M  END
>  <MODEL>
8

>  <REMARK>
 VINA RESULT:      -5.5      3.307      7.011
  Name = 
  12 active torsions:
  status: ('A' for Active; 'I' for Inactive)
    1  A    between atoms: N_7  and  C_29
    2  A    between atoms: N_7  and  C_36
    3  A    between atoms: C_8  and  C_28
    4  A    between atoms: C_13  and  O_14
    5  A    between atoms: C_13  and  C_29
    6  A    between atoms: O_15  and  C_20
    7  A    between atoms: O_15  and  C_28
    8  A    between atoms: C_16  and  C_23
    9  A    between atoms: C_16  and  C_24
   10  A    between atoms: C_16  and  C_29
   11  A    between atoms: C_18  and  C_36
   12  A    between atoms: C_20  and  C_23
                            x       y       z     vdW  Elec       q    Type
                         _______ _______ _______ _____ _____    ______ ____

>  <TORSDO>
F 12

$$$$
=
 OpenBabel10232412373D

 37 41  0  0  1  0  0  0  0  0999 V2000
  187.4590  178.3750  141.6190 C   0  0  2  0  0  3  0  0  0  0  0  0
  190.5260  176.5460  145.8700 C   0  0  0  0  0  0  0  0  0  0  0  0
  188.4360  177.3120  145.8100 C   0  0  0  0  0  0  0  0  0  0  0  0
  190.9330  177.2250  148.5960 N   0  0  0  0  0  0  0  0  0  0  0  0
  186.6840  177.5770  143.7570 C   0  0  0  0  0  0  0  0  0  0  0  0
  192.0290  176.6490  147.8600 C   0  0  0  0  0  0  0  0  0  0  0  0
  188.0220  177.0090  143.5520 C   0  0  0  0  0  0  0  0  0  0  0  0
  186.7120  178.3500  147.3920 C   0  0  0  0  0  1  0  0  0  0  0  0
  193.1510  176.5340  148.4160 O   0  0  0  0  0  0  0  0  0  0  0  0
  190.1390  176.4100  144.6100 O   0  0  0  0  0  0  0  0  0  0  0  0
  187.1140  177.8880  146.0320 C   0  0  0  0  0  0  0  0  0  0  0  0
  187.1070  177.1480  142.4870 C   0  0  2  0  0  3  0  0  0  0  0  0
  188.9120  176.8690  144.5630 C   0  0  0  0  0  0  0  0  0  0  0  0
  189.5220  177.1100  146.6290 C   0  0  0  0  0  0  0  0  0  0  0  0
  191.8720  176.1950  146.4210 C   0  0  0  0  0  2  0  0  0  0  0  0
  189.6820  177.4490  147.9980 N   0  0  0  0  0  0  0  0  0  0  0  0
  186.1640  178.0300  144.9500 C   0  0  0  0  0  3  0  0  0  0  0  0
  185.5910  180.0180  142.2030 C   0  0  0  0  0  1  0  0  0  0  0  0
  186.2160  179.1570  141.1050 C   0  0  2  0  0  3  0  0  0  0  0  0
  185.2340  178.0730  139.1920 O   0  0  0  0  0  0  0  0  0  0  0  0
  185.1690  178.3090  140.4360 C   0  0  0  0  0  0  0  0  0  0  0  0
  184.0950  177.8290  141.1960 O   0  0  0  0  0  0  0  0  0  0  0  0
  182.7590  177.8250  140.6920 C   0  0  0  0  0  2  0  0  0  0  0  0
  181.0020  178.8470  143.6510 N   0  0  0  0  0  2  0  0  0  0  0  0
  181.8600  178.7440  141.5160 C   0  0  1  0  0  3  0  0  0  0  0  0
  180.5410  178.2900  141.5190 O   0  0  0  0  0  0  0  0  0  0  0  0
  180.0020  178.8190  142.6570 N   0  0  0  0  0  2  0  0  0  0  0  0
  182.2650  178.8030  142.9470 C   0  0  0  0  0  2  0  0  0  0  0  0
  188.4380  176.6900  139.8920 C   0  0  0  0  0  1  0  0  0  0  0  0
  188.5100  178.1060  140.4780 C   0  0  1  0  0  0  0  0  0  0  0  0
  188.4010  179.0850  139.3830 N   0  0  0  0  0  2  0  0  0  0  0  0
  189.3550  178.7880  138.3160 C   0  0  0  0  0  2  0  0  0  0  0  0
  188.7010  179.0350  136.9720 C   0  0  0  0  0  2  0  0  0  0  0  0
  187.2570  178.9710  137.1180 N   0  0  0  0  0  1  0  0  0  0  0  0
  189.9010  178.2540  141.0930 C   0  0  0  0  0  2  0  0  0  0  0  0
  190.5740  177.0290  141.1050 O   0  0  0  0  0  0  0  0  0  0  0  0
  191.7970  177.2900  141.7210 C   0  0  0  0  0  1  0  0  0  0  0  0
  1 19  1  6  0  0  0
  2 15  1  0  0  0  0
  2 14  2  0  0  0  0
  3 11  1  0  0  0  0
  3 14  1  0  0  0  0
  5 17  1  0  0  0  0
  6  9  2  0  0  0  0
  6  4  1  0  0  0  0
  7  5  2  0  0  0  0
  7 13  1  0  0  0  0
 10  2  1  0  0  0  0
 11  8  1  0  0  0  0
 12  1  1  6  0  0  0
 12  7  1  0  0  0  0
 12  5  1  0  0  0  0
 13 10  1  0  0  0  0
 13  3  2  0  0  0  0
 14 16  1  0  0  0  0
 15  6  1  0  0  0  0
 16  4  2  0  0  0  0
 17 11  2  0  0  0  0
 19 18  1  1  0  0  0
 20 21  2  0  0  0  0
 21 19  1  0  0  0  0
 21 22  1  0  0  0  0
 23 22  1  0  0  0  0
 25 23  1  6  0  0  0
 25 26  1  0  0  0  0
 25 28  1  0  0  0  0
 26 27  1  0  0  0  0
 27 24  1  0  0  0  0
 28 24  1  0  0  0  0
 30 29  1  6  0  0  0
 30 35  1  0  0  0  0
 30  1  1  0  0  0  0
 31 30  1  0  0  0  0
 32 31  1  0  0  0  0
 33 34  1  0  0  0  0
 33 32  1  0  0  0  0
 35 36  1  0  0  0  0
 36 37  1  0  0  0  0
M  END
>  <MODEL>
9

>  <REMARK>
 VINA RESULT:      -5.4      2.191      7.864
  Name = 
  12 active torsions:
  status: ('A' for Active; 'I' for Inactive)
    1  A    between atoms: N_7  and  C_29
    2  A    between atoms: N_7  and  C_36
    3  A    between atoms: C_8  and  C_28
    4  A    between atoms: C_13  and  O_14
    5  A    between atoms: C_13  and  C_29
    6  A    between atoms: O_15  and  C_20
    7  A    between atoms: O_15  and  C_28
    8  A    between atoms: C_16  and  C_23
    9  A    between atoms: C_16  and  C_24
   10  A    between atoms: C_16  and  C_29
   11  A    between atoms: C_18  and  C_36
   12  A    between atoms: C_20  and  C_23
                            x       y       z     vdW  Elec       q    Type
                         _______ _______ _______ _____ _____    ______ ____

>  <TORSDO>
F 12

$$$$
