=
 OpenBabel10232408343D

 41 40  0  0  1  0  0  0  0  0999 V2000
  191.1130  177.3190  141.1200 C   0  0  0  0  0  0  0  0  0  0  0  0
  190.6070  177.1130  139.7910 N   0  0  0  0  0  0  0  0  0  0  0  0
  192.3530  177.2550  141.3360 O   0  0  0  0  0  0  0  0  0  0  0  0
  191.4950  176.8480  138.7360 N   0  0  0  0  0  2  0  0  0  0  0  0
  191.0550  175.6190  138.0820 C   0  0  0  0  0  2  0  0  0  0  0  0
  192.2150  174.9260  137.3710 C   0  0  1  0  0  3  0  0  0  0  0  0
  192.0760  175.0710  135.8670 C   0  0  0  0  0  1  0  0  0  0  0  0
  193.5710  175.4630  137.8220 C   0  0  0  0  0  2  0  0  0  0  0  0
  194.6890  174.4610  137.5610 C   0  0  0  0  0  2  0  0  0  0  0  0
  195.5040  174.2430  138.7900 C   0  0  0  0  0  0  0  0  0  0  0  0
  195.6410  175.2650  139.7210 O   0  0  0  0  0  1  0  0  0  0  0  0
  196.0460  173.1260  138.9970 O   0  0  0  0  0  0  0  0  0  0  0  0
  190.1950  177.6320  142.2610 C   0  0  0  0  0  2  0  0  0  0  0  0
  190.7910  178.6950  143.1380 C   0  0  0  0  0  3  0  0  0  0  0  0
  190.7490  178.6640  144.4750 C   0  0  0  0  0  3  0  0  0  0  0  0
  190.0640  177.5780  145.2450 C   0  0  0  0  0  2  0  0  0  0  0  0
  191.0690  176.5940  145.7440 C   0  0  0  0  0  0  0  0  0  0  0  0
  191.8420  176.0620  144.9610 O   0  0  0  0  0  0  0  0  0  0  0  0
  191.1020  176.2500  147.2020 C   0  0  2  0  0  3  0  0  0  0  0  0
  190.7570  177.4130  148.0010 N   0  0  0  0  0  1  0  0  0  0  0  0
  193.0200  176.2110  148.5740 O   0  0  0  0  0  0  0  0  0  0  0  0
  192.4460  175.7370  147.6060 C   0  0  0  0  0  3  0  0  0  0  0  0
  189.1770  176.9670  139.5490 C   0  0  0  0  0  2  0  0  0  0  0  0
  187.7810  178.8600  139.9550 O   0  0  0  0  0  1  0  0  0  0  0  0
  188.6010  178.2600  138.9960 C   0  0  2  0  0  3  0  0  0  0  0  0
  187.8230  178.0040  137.7050 C   0  0  2  0  0  3  0  0  0  0  0  0
  188.9130  177.2250  135.5470 C   0  0  0  0  0  0  0  0  0  0  0  0
  188.4170  176.0730  135.6630 O   0  0  0  0  0  1  0  0  0  0  0  0
  189.6910  177.5290  134.4380 O   0  0  0  0  0  0  0  0  0  0  0  0
  188.6850  178.2180  136.5460 N   0  0  0  0  0  2  0  0  0  0  0  0
  186.7100  178.8530  137.6260 O   0  0  0  0  0  0  0  0  0  0  0  0
  183.6260  177.1810  138.2870 O   0  0  0  0  0  0  0  0  0  0  0  0
  185.6380  178.0300  137.5000 N   0  0  0  0  0  2  0  0  0  0  0  0
  184.5610  178.0060  138.4460 C   0  0  0  0  0  0  0  0  0  0  0  0
  184.1670  180.2110  139.2330 O   0  0  0  0  0  1  0  0  0  0  0  0
  184.5190  178.9200  139.6330 C   0  0  1  0  0  3  0  0  0  0  0  0
  183.5750  178.4120  140.6860 C   0  0  0  0  0  3  0  0  0  0  0  0
  183.9100  178.2780  141.9740 C   0  0  0  0  0  3  0  0  0  0  0  0
  185.2700  178.6130  142.4960 C   0  0  0  0  0  2  0  0  0  0  0  0
  185.2710  178.5070  144.0070 C   0  0  0  0  0  2  0  0  0  0  0  0
  186.4480  177.6640  144.4510 C   0  0  0  0  0  1  0  0  0  0  0  0
  1  3  2  0  0  0  0
  1 13  1  0  0  0  0
  2  1  1  0  0  0  0
  4  2  1  0  0  0  0
  5  4  1  0  0  0  0
  6  7  1  6  0  0  0
  6  8  1  0  0  0  0
  6  5  1  0  0  0  0
  9  8  1  0  0  0  0
  9 10  1  0  0  0  0
 10 12  2  0  0  0  0
 10 11  1  0  0  0  0
 13 14  1  0  0  0  0
 14 15  2  0  0  0  0
 15 16  1  0  0  0  0
 16 17  1  0  0  0  0
 17 19  1  0  0  0  0
 18 17  2  0  0  0  0
 19 22  1  0  0  0  0
 19 20  1  1  0  0  0
 22 21  2  0  0  0  0
 23  2  1  0  0  0  0
 25 23  1  0  0  0  0
 25 24  1  1  0  0  0
 26 30  1  6  0  0  0
 26 25  1  0  0  0  0
 27 28  1  0  0  0  0
 27 30  1  0  0  0  0
 29 27  2  0  0  0  0
 31 26  1  0  0  0  0
 32 34  2  0  0  0  0
 33 31  1  0  0  0  0
 33 34  1  0  0  0  0
 34 36  1  0  0  0  0
 36 35  1  6  0  0  0
 36 37  1  0  0  0  0
 37 38  2  0  0  0  0
 38 39  1  0  0  0  0
 39 40  1  0  0  0  0
 40 41  1  0  0  0  0
M  END
>  <MODEL>
1

>  <REMARK>
 VINA RESULT:      -6.8      0.000      0.000
  Name = 
  22 active torsions:
  status: ('A' for Active; 'I' for Inactive)
    1  A    between atoms: C_3  and  N_11
    2  A    between atoms: C_3  and  C_14
    3  A    between atoms: C_4  and  C_7
    4  A    between atoms: C_4  and  C_12
    5  A    between atoms: C_8  and  C_34
    6  A    between atoms: N_10  and  O_33
    7  A    between atoms: N_11  and  N_27
    8  A    between atoms: C_13  and  C_17
    9  A    between atoms: C_13  and  C_38
   10  A    between atoms: C_14  and  C_23
   11  A    between atoms: C_15  and  C_30
   12  A    between atoms: C_15  and  C_32
   13  A    between atoms: C_16  and  C_37
   14  A    between atoms: C_16  and  C_41
   15  A    between atoms: C_17  and  N_27
   16  A    between atoms: C_19  and  C_28
   17  A    between atoms: C_19  and  C_37
   18  A    between atoms: C_21  and  C_35
   19  A    between atoms: C_22  and  C_35
   20  A    between atoms: C_23  and  N_31
   21  A    between atoms: C_23  and  O_33
   22  A    between atoms: C_34  and  C_38
                            x       y       z     vdW  Elec       q    Type
                         _______ _______ _______ _____ _____    ______ ____

>  <TORSDO>
F 22

$$$$
=
 OpenBabel10232408343D

 41 40  0  0  1  0  0  0  0  0999 V2000
  189.6970  176.7020  139.5700 C   0  0  0  0  0  0  0  0  0  0  0  0
  189.3690  177.2290  140.8670 N   0  0  0  0  0  0  0  0  0  0  0  0
  190.6450  175.8790  139.4500 O   0  0  0  0  0  0  0  0  0  0  0  0
  190.0990  176.8210  141.9950 N   0  0  0  0  0  2  0  0  0  0  0  0
  191.2840  177.6670  142.0870 C   0  0  0  0  0  2  0  0  0  0  0  0
  191.6910  177.8900  143.5430 C   0  0  1  0  0  3  0  0  0  0  0  0
  191.1040  179.1890  144.0630 C   0  0  0  0  0  1  0  0  0  0  0  0
  191.2690  176.7310  144.4430 C   0  0  0  0  0  2  0  0  0  0  0  0
  191.6560  176.9770  145.8960 C   0  0  0  0  0  2  0  0  0  0  0  0
  192.1740  175.7290  146.5250 C   0  0  0  0  0  0  0  0  0  0  0  0
  192.4190  174.6070  145.7430 O   0  0  0  0  0  0  0  0  0  0  0  0
  192.4160  175.7000  147.7610 O   0  0  0  0  0  1  0  0  0  0  0  0
  188.9200  177.0950  138.3520 C   0  0  0  0  0  2  0  0  0  0  0  0
  188.7300  175.9110  137.4470 C   0  0  0  0  0  3  0  0  0  0  0  0
  189.5130  175.6470  136.3960 C   0  0  0  0  0  3  0  0  0  0  0  0
  190.6510  176.5300  135.9830 C   0  0  0  0  0  2  0  0  0  0  0  0
  191.9140  175.7390  135.9160 C   0  0  0  0  0  0  0  0  0  0  0  0
  192.0650  174.9060  135.0350 O   0  0  0  0  0  0  0  0  0  0  0  0
  192.9770  175.9610  136.9490 C   0  0  2  0  0  3  0  0  0  0  0  0
  194.1510  176.5620  136.3420 N   0  0  0  0  0  1  0  0  0  0  0  0
  194.4580  174.1920  137.4440 O   0  0  0  0  0  0  0  0  0  0  0  0
  193.3520  174.6800  137.6220 C   0  0  0  0  0  3  0  0  0  0  0  0
  188.4310  178.3350  141.0080 C   0  0  0  0  0  2  0  0  0  0  0  0
  187.5330  176.7960  142.5960 O   0  0  0  0  0  1  0  0  0  0  0  0
  187.5800  178.1490  142.2540 C   0  0  2  0  0  3  0  0  0  0  0  0
  186.1710  178.7010  142.0400 C   0  0  2  0  0  3  0  0  0  0  0  0
  184.8430  178.9120  139.8850 C   0  0  0  0  0  0  0  0  0  0  0  0
  183.9040  178.2120  140.3460 O   0  0  0  0  0  1  0  0  0  0  0  0
  184.7410  179.4430  138.6060 O   0  0  0  0  0  0  0  0  0  0  0  0
  186.0130  179.1610  140.6640 N   0  0  0  0  0  2  0  0  0  0  0  0
  185.9200  179.7620  142.9220 O   0  0  0  0  0  0  0  0  0  0  0  0
  183.2730  178.8390  145.1320 O   0  0  0  0  0  0  0  0  0  0  0  0
  184.6790  179.5320  143.4190 N   0  0  0  0  0  2  0  0  0  0  0  0
  184.4500  179.0780  144.7600 C   0  0  0  0  0  0  0  0  0  0  0  0
  185.1420  179.1420  147.0300 O   0  0  0  0  0  1  0  0  0  0  0  0
  185.5700  178.8570  145.7300 C   0  0  1  0  0  3  0  0  0  0  0  0
  186.1080  177.4570  145.6420 C   0  0  0  0  0  3  0  0  0  0  0  0
  187.3640  177.1280  145.9620 C   0  0  0  0  0  3  0  0  0  0  0  0
  188.3680  178.1300  146.4350 C   0  0  0  0  0  2  0  0  0  0  0  0
  188.9480  177.6780  147.7590 C   0  0  0  0  0  2  0  0  0  0  0  0
  188.0630  178.1620  148.8870 C   0  0  0  0  0  1  0  0  0  0  0  0
  1  2  1  0  0  0  0
  2 23  1  0  0  0  0
  2  4  1  0  0  0  0
  3  1  2  0  0  0  0
  4  5  1  0  0  0  0
  5  6  1  0  0  0  0
  6  7  1  1  0  0  0
  6  8  1  0  0  0  0
  8  9  1  0  0  0  0
  9 10  1  0  0  0  0
 10 12  1  0  0  0  0
 11 10  2  0  0  0  0
 13  1  1  0  0  0  0
 14 13  1  0  0  0  0
 15 14  2  0  0  0  0
 16 15  1  0  0  0  0
 17 16  1  0  0  0  0
 17 19  1  0  0  0  0
 18 17  2  0  0  0  0
 19 20  1  6  0  0  0
 19 22  1  0  0  0  0
 21 22  2  0  0  0  0
 23 25  1  0  0  0  0
 25 24  1  6  0  0  0
 26 30  1  6  0  0  0
 26 25  1  0  0  0  0
 26 31  1  0  0  0  0
 27 28  1  0  0  0  0
 27 30  1  0  0  0  0
 29 27  2  0  0  0  0
 31 33  1  0  0  0  0
 33 34  1  0  0  0  0
 34 32  2  0  0  0  0
 34 36  1  0  0  0  0
 36 35  1  1  0  0  0
 37 36  1  0  0  0  0
 37 38  2  0  0  0  0
 38 39  1  0  0  0  0
 39 40  1  0  0  0  0
 40 41  1  0  0  0  0
M  END
>  <MODEL>
2

>  <REMARK>
 VINA RESULT:      -6.7      2.702      7.065
  Name = 
  22 active torsions:
  status: ('A' for Active; 'I' for Inactive)
    1  A    between atoms: C_3  and  N_11
    2  A    between atoms: C_3  and  C_14
    3  A    between atoms: C_4  and  C_7
    4  A    between atoms: C_4  and  C_12
    5  A    between atoms: C_8  and  C_34
    6  A    between atoms: N_10  and  O_33
    7  A    between atoms: N_11  and  N_27
    8  A    between atoms: C_13  and  C_17
    9  A    between atoms: C_13  and  C_38
   10  A    between atoms: C_14  and  C_23
   11  A    between atoms: C_15  and  C_30
   12  A    between atoms: C_15  and  C_32
   13  A    between atoms: C_16  and  C_37
   14  A    between atoms: C_16  and  C_41
   15  A    between atoms: C_17  and  N_27
   16  A    between atoms: C_19  and  C_28
   17  A    between atoms: C_19  and  C_37
   18  A    between atoms: C_21  and  C_35
   19  A    between atoms: C_22  and  C_35
   20  A    between atoms: C_23  and  N_31
   21  A    between atoms: C_23  and  O_33
   22  A    between atoms: C_34  and  C_38
                            x       y       z     vdW  Elec       q    Type
                         _______ _______ _______ _____ _____    ______ ____

>  <TORSDO>
F 22

$$$$
=
 OpenBabel10232408343D

 41 40  0  0  1  0  0  0  0  0999 V2000
  185.2290  178.9600  139.5460 C   0  0  0  0  0  0  0  0  0  0  0  0
  186.1880  178.7610  140.5970 N   0  0  0  0  0  0  0  0  0  0  0  0
  184.1890  179.6370  139.7670 O   0  0  0  0  0  0  0  0  0  0  0  0
  185.9680  179.3250  141.8640 N   0  0  0  0  0  2  0  0  0  0  0  0
  186.2630  178.3030  142.8630 C   0  0  0  0  0  2  0  0  0  0  0  0
  185.1840  178.2590  143.9430 C   0  0  1  0  0  3  0  0  0  0  0  0
  185.7770  178.6060  145.2970 C   0  0  0  0  0  1  0  0  0  0  0  0
  184.0180  179.1940  143.6310 C   0  0  0  0  0  2  0  0  0  0  0  0
  182.7900  178.8620  144.4690 C   0  0  0  0  0  2  0  0  0  0  0  0
  181.5560  178.8750  143.6310 C   0  0  0  0  0  0  0  0  0  0  0  0
  181.6480  179.1230  142.2680 O   0  0  0  0  0  0  0  0  0  0  0  0
  180.4370  178.6350  144.1550 O   0  0  0  0  0  1  0  0  0  0  0  0
  185.4480  178.3960  138.1760 C   0  0  0  0  0  2  0  0  0  0  0  0
  184.5340  177.2280  137.9380 C   0  0  0  0  0  3  0  0  0  0  0  0
  184.7490  176.2960  137.0020 C   0  0  0  0  0  3  0  0  0  0  0  0
  185.9130  176.3380  136.0610 C   0  0  0  0  0  2  0  0  0  0  0  0
  187.0010  175.4430  136.5520 C   0  0  0  0  0  0  0  0  0  0  0  0
  187.6140  175.7310  137.5700 O   0  0  0  0  0  0  0  0  0  0  0  0
  187.3450  174.2080  135.7760 C   0  0  2  0  0  3  0  0  0  0  0  0
  186.1380  173.5790  135.2690 N   0  0  0  0  0  1  0  0  0  0  0  0
  187.5250  172.3480  137.2160 O   0  0  0  0  0  0  0  0  0  0  0  0
  188.1100  173.2370  136.6160 C   0  0  0  0  0  3  0  0  0  0  0  0
  187.2840  177.8120  140.4400 C   0  0  0  0  0  2  0  0  0  0  0  0
  188.7620  178.8750  138.8970 O   0  0  0  0  0  1  0  0  0  0  0  0
  188.5980  178.5510  140.2450 C   0  0  2  0  0  3  0  0  0  0  0  0
  189.7750  177.7140  140.7470 C   0  0  2  0  0  3  0  0  0  0  0  0
  190.8290  176.1730  139.0250 C   0  0  0  0  0  0  0  0  0  0  0  0
  191.6620  177.0540  138.6850 O   0  0  0  0  0  1  0  0  0  0  0  0
  190.8690  174.9220  138.4250 O   0  0  0  0  0  0  0  0  0  0  0  0
  189.8420  176.4510  140.0170 N   0  0  0  0  0  2  0  0  0  0  0  0
  189.6450  177.4580  142.1190 O   0  0  0  0  0  0  0  0  0  0  0  0
  191.9400  178.8670  144.4630 O   0  0  0  0  0  0  0  0  0  0  0  0
  190.4950  178.3220  142.7290 N   0  0  0  0  0  2  0  0  0  0  0  0
  191.2070  177.9950  143.9290 C   0  0  0  0  0  0  0  0  0  0  0  0
  191.6910  175.6750  143.7870 O   0  0  0  0  0  1  0  0  0  0  0  0
  191.0930  176.6530  144.5860 C   0  0  1  0  0  3  0  0  0  0  0  0
  191.6980  176.6590  145.9610 C   0  0  0  0  0  3  0  0  0  0  0  0
  190.9750  176.6730  147.0850 C   0  0  0  0  0  3  0  0  0  0  0  0
  189.4800  176.6930  147.0860 C   0  0  0  0  0  2  0  0  0  0  0  0
  188.9930  178.0600  147.5200 C   0  0  0  0  0  2  0  0  0  0  0  0
  188.0590  177.9090  148.7020 C   0  0  0  0  0  1  0  0  0  0  0  0
  1  3  2  0  0  0  0
  1  2  1  0  0  0  0
  2  4  1  0  0  0  0
  4  5  1  0  0  0  0
  5  6  1  0  0  0  0
  6  7  1  1  0  0  0
  8  6  1  0  0  0  0
  8  9  1  0  0  0  0
 10 12  1  0  0  0  0
 10  9  1  0  0  0  0
 11 10  2  0  0  0  0
 13  1  1  0  0  0  0
 14 13  1  0  0  0  0
 15 14  2  0  0  0  0
 16 17  1  0  0  0  0
 16 15  1  0  0  0  0
 17 18  2  0  0  0  0
 19 20  1  1  0  0  0
 19 17  1  0  0  0  0
 19 22  1  0  0  0  0
 22 21  2  0  0  0  0
 23  2  1  0  0  0  0
 25 24  1  6  0  0  0
 25 23  1  0  0  0  0
 25 26  1  0  0  0  0
 26 30  1  6  0  0  0
 26 31  1  0  0  0  0
 27 30  1  0  0  0  0
 28 27  1  0  0  0  0
 29 27  2  0  0  0  0
 31 33  1  0  0  0  0
 33 34  1  0  0  0  0
 34 32  2  0  0  0  0
 34 36  1  0  0  0  0
 36 35  1  6  0  0  0
 36 37  1  0  0  0  0
 37 38  2  0  0  0  0
 38 39  1  0  0  0  0
 39 40  1  0  0  0  0
 40 41  1  0  0  0  0
M  END
>  <MODEL>
3

>  <REMARK>
 VINA RESULT:      -6.6      2.721      9.291
  Name = 
  22 active torsions:
  status: ('A' for Active; 'I' for Inactive)
    1  A    between atoms: C_3  and  N_11
    2  A    between atoms: C_3  and  C_14
    3  A    between atoms: C_4  and  C_7
    4  A    between atoms: C_4  and  C_12
    5  A    between atoms: C_8  and  C_34
    6  A    between atoms: N_10  and  O_33
    7  A    between atoms: N_11  and  N_27
    8  A    between atoms: C_13  and  C_17
    9  A    between atoms: C_13  and  C_38
   10  A    between atoms: C_14  and  C_23
   11  A    between atoms: C_15  and  C_30
   12  A    between atoms: C_15  and  C_32
   13  A    between atoms: C_16  and  C_37
   14  A    between atoms: C_16  and  C_41
   15  A    between atoms: C_17  and  N_27
   16  A    between atoms: C_19  and  C_28
   17  A    between atoms: C_19  and  C_37
   18  A    between atoms: C_21  and  C_35
   19  A    between atoms: C_22  and  C_35
   20  A    between atoms: C_23  and  N_31
   21  A    between atoms: C_23  and  O_33
   22  A    between atoms: C_34  and  C_38
                            x       y       z     vdW  Elec       q    Type
                         _______ _______ _______ _____ _____    ______ ____

>  <TORSDO>
F 22

$$$$
=
 OpenBabel10232408343D

 41 40  0  0  1  0  0  0  0  0999 V2000
  191.8070  177.0660  139.8560 C   0  0  0  0  0  0  0  0  0  0  0  0
  190.6340  177.2190  140.6730 N   0  0  0  0  0  0  0  0  0  0  0  0
  192.9210  177.4820  140.2760 O   0  0  0  0  0  0  0  0  0  0  0  0
  190.7330  177.8240  141.9360 N   0  0  0  0  0  2  0  0  0  0  0  0
  190.1590  176.9050  142.9150 C   0  0  0  0  0  2  0  0  0  0  0  0
  188.9700  177.5390  143.6350 C   0  0  1  0  0  3  0  0  0  0  0  0
  187.8120  176.5600  143.7030 C   0  0  0  0  0  1  0  0  0  0  0  0
  189.3330  178.0140  145.0390 C   0  0  0  0  0  2  0  0  0  0  0  0
  188.7990  177.0690  146.1090 C   0  0  0  0  0  2  0  0  0  0  0  0
  187.9350  177.8010  147.0800 C   0  0  0  0  0  0  0  0  0  0  0  0
  186.6920  178.2730  146.6810 O   0  0  0  0  0  0  0  0  0  0  0  0
  188.3220  177.9660  148.2670 O   0  0  0  0  0  1  0  0  0  0  0  0
  191.7400  176.4010  138.5160 C   0  0  0  0  0  2  0  0  0  0  0  0
  193.0370  176.5730  137.7800 C   0  0  0  0  0  3  0  0  0  0  0  0
  193.7850  175.5520  137.3460 C   0  0  0  0  0  3  0  0  0  0  0  0
  193.4240  174.1180  137.5830 C   0  0  0  0  0  2  0  0  0  0  0  0
  194.1960  173.2370  136.6580 C   0  0  0  0  0  0  0  0  0  0  0  0
  193.8220  173.0890  135.5040 O   0  0  0  0  0  0  0  0  0  0  0  0
  195.4120  172.5230  137.1650 C   0  0  2  0  0  3  0  0  0  0  0  0
  195.3310  172.3510  138.6050 N   0  0  0  0  0  1  0  0  0  0  0  0
  197.3100  172.9430  135.8280 O   0  0  0  0  0  0  0  0  0  0  0  0
  196.6610  173.2650  136.8110 C   0  0  0  0  0  3  0  0  0  0  0  0
  189.3070  176.9490  140.1340 C   0  0  0  0  0  2  0  0  0  0  0  0
  187.8200  178.7890  140.4550 O   0  0  0  0  0  1  0  0  0  0  0  0
  188.7100  178.2160  139.5430 C   0  0  2  0  0  3  0  0  0  0  0  0
  188.0090  177.9220  138.2170 C   0  0  2  0  0  3  0  0  0  0  0  0
  188.9730  177.0850  136.0210 C   0  0  0  0  0  0  0  0  0  0  0  0
  188.1800  176.1070  135.9970 O   0  0  0  0  0  1  0  0  0  0  0  0
  189.8670  177.2700  134.9750 O   0  0  0  0  0  0  0  0  0  0  0  0
  188.9620  178.0020  137.1140 N   0  0  0  0  0  2  0  0  0  0  0  0
  186.9640  178.8320  138.0020 O   0  0  0  0  0  0  0  0  0  0  0  0
  183.7180  177.3680  138.2600 O   0  0  0  0  0  0  0  0  0  0  0  0
  185.8710  178.0700  137.7450 N   0  0  0  0  0  2  0  0  0  0  0  0
  184.6720  178.1420  138.5290 C   0  0  0  0  0  0  0  0  0  0  0  0
  184.2550  180.3810  139.2000 O   0  0  0  0  0  1  0  0  0  0  0  0
  184.5230  179.0950  139.6760 C   0  0  1  0  0  3  0  0  0  0  0  0
  183.4520  178.6460  140.6290 C   0  0  0  0  0  3  0  0  0  0  0  0
  183.6490  178.4980  141.9430 C   0  0  0  0  0  3  0  0  0  0  0  0
  184.9670  178.7570  142.5990 C   0  0  0  0  0  2  0  0  0  0  0  0
  184.7400  179.3440  143.9760 C   0  0  0  0  0  2  0  0  0  0  0  0
  183.3850  178.9080  144.4920 C   0  0  0  0  0  1  0  0  0  0  0  0
  1  3  2  0  0  0  0
  1  2  1  0  0  0  0
  2  4  1  0  0  0  0
  4  5  1  0  0  0  0
  5  6  1  0  0  0  0
  6  7  1  1  0  0  0
  6  8  1  0  0  0  0
  8  9  1  0  0  0  0
  9 10  1  0  0  0  0
 10 12  1  0  0  0  0
 11 10  2  0  0  0  0
 13  1  1  0  0  0  0
 14 13  1  0  0  0  0
 15 16  1  0  0  0  0
 15 14  2  0  0  0  0
 17 19  1  0  0  0  0
 17 16  1  0  0  0  0
 18 17  2  0  0  0  0
 19 20  1  1  0  0  0
 21 22  2  0  0  0  0
 22 19  1  0  0  0  0
 23  2  1  0  0  0  0
 25 23  1  0  0  0  0
 25 24  1  1  0  0  0
 26 30  1  6  0  0  0
 26 25  1  0  0  0  0
 27 30  1  0  0  0  0
 28 27  1  0  0  0  0
 29 27  2  0  0  0  0
 31 26  1  0  0  0  0
 32 34  2  0  0  0  0
 33 31  1  0  0  0  0
 33 34  1  0  0  0  0
 34 36  1  0  0  0  0
 36 35  1  6  0  0  0
 36 37  1  0  0  0  0
 37 38  2  0  0  0  0
 38 39  1  0  0  0  0
 39 40  1  0  0  0  0
 40 41  1  0  0  0  0
M  END
>  <MODEL>
4

>  <REMARK>
 VINA RESULT:      -6.6      2.113      6.709
  Name = 
  22 active torsions:
  status: ('A' for Active; 'I' for Inactive)
    1  A    between atoms: C_3  and  N_11
    2  A    between atoms: C_3  and  C_14
    3  A    between atoms: C_4  and  C_7
    4  A    between atoms: C_4  and  C_12
    5  A    between atoms: C_8  and  C_34
    6  A    between atoms: N_10  and  O_33
    7  A    between atoms: N_11  and  N_27
    8  A    between atoms: C_13  and  C_17
    9  A    between atoms: C_13  and  C_38
   10  A    between atoms: C_14  and  C_23
   11  A    between atoms: C_15  and  C_30
   12  A    between atoms: C_15  and  C_32
   13  A    between atoms: C_16  and  C_37
   14  A    between atoms: C_16  and  C_41
   15  A    between atoms: C_17  and  N_27
   16  A    between atoms: C_19  and  C_28
   17  A    between atoms: C_19  and  C_37
   18  A    between atoms: C_21  and  C_35
   19  A    between atoms: C_22  and  C_35
   20  A    between atoms: C_23  and  N_31
   21  A    between atoms: C_23  and  O_33
   22  A    between atoms: C_34  and  C_38
                            x       y       z     vdW  Elec       q    Type
                         _______ _______ _______ _____ _____    ______ ____

>  <TORSDO>
F 22

$$$$
=
 OpenBabel10232408343D

 41 40  0  0  1  0  0  0  0  0999 V2000
  184.0720  178.8350  144.6170 C   0  0  0  0  0  0  0  0  0  0  0  0
  185.4750  178.5530  144.4900 N   0  0  0  0  0  0  0  0  0  0  0  0
  183.6120  179.2420  145.7190 O   0  0  0  0  0  0  0  0  0  0  0  0
  186.3310  178.7390  145.5870 N   0  0  0  0  0  2  0  0  0  0  0  0
  187.2470  177.6030  145.6340 C   0  0  0  0  0  2  0  0  0  0  0  0
  188.4030  177.8660  146.5970 C   0  0  1  0  0  3  0  0  0  0  0  0
  187.8720  178.2170  147.9760 C   0  0  0  0  0  1  0  0  0  0  0  0
  189.3550  176.6770  146.6940 C   0  0  0  0  0  2  0  0  0  0  0  0
  190.7570  177.0390  146.2210 C   0  0  0  0  0  2  0  0  0  0  0  0
  191.7900  176.3930  147.0810 C   0  0  0  0  0  0  0  0  0  0  0  0
  192.3910  175.2090  146.6720 O   0  0  0  0  0  0  0  0  0  0  0  0
  192.1360  176.9340  148.1640 O   0  0  0  0  0  1  0  0  0  0  0  0
  183.1380  178.6750  143.4580 C   0  0  0  0  0  2  0  0  0  0  0  0
  181.7120  178.6780  143.9280 C   0  0  0  0  0  3  0  0  0  0  0  0
  180.6700  178.9600  143.1380 C   0  0  0  0  0  3  0  0  0  0  0  0
  180.8180  179.3430  141.6980 C   0  0  0  0  0  2  0  0  0  0  0  0
  180.8480  178.1190  140.8440 C   0  0  0  0  0  0  0  0  0  0  0  0
  180.0810  177.1960  141.0760 O   0  0  0  0  0  0  0  0  0  0  0  0
  181.8370  178.0280  139.7220 C   0  0  2  0  0  3  0  0  0  0  0  0
  182.9750  177.2180  140.1190 N   0  0  0  0  0  1  0  0  0  0  0  0
  183.4900  179.6020  139.1250 O   0  0  0  0  0  0  0  0  0  0  0  0
  182.3010  179.3850  139.2990 C   0  0  0  0  0  3  0  0  0  0  0  0
  185.9990  177.8810  143.3070 C   0  0  0  0  0  2  0  0  0  0  0  0
  185.7020  179.5790  141.6560 O   0  0  0  0  0  1  0  0  0  0  0  0
  186.6710  178.8850  142.3840 C   0  0  2  0  0  3  0  0  0  0  0  0
  187.6550  178.1880  141.4450 C   0  0  2  0  0  3  0  0  0  0  0  0
  189.7380  177.2990  142.5970 C   0  0  0  0  0  0  0  0  0  0  0  0
  189.1830  176.1950  142.8380 O   0  0  0  0  0  0  0  0  0  0  0  0
  191.0570  177.5030  142.9770 O   0  0  0  0  0  1  0  0  0  0  0  0
  189.0200  178.3440  141.9400 N   0  0  0  0  0  2  0  0  0  0  0  0
  187.5620  178.7220  140.1520 O   0  0  0  0  0  0  0  0  0  0  0  0
  189.8230  177.6040  137.6250 O   0  0  0  0  0  0  0  0  0  0  0  0
  188.7000  178.3380  139.5200 N   0  0  0  0  0  2  0  0  0  0  0  0
  188.7400  177.9990  138.1280 C   0  0  0  0  0  0  0  0  0  0  0  0
  187.3250  179.3950  136.8290 O   0  0  0  0  0  1  0  0  0  0  0  0
  187.5280  178.0790  137.2510 C   0  0  1  0  0  3  0  0  0  0  0  0
  187.6390  177.1540  136.0720 C   0  0  0  0  0  3  0  0  0  0  0  0
  186.8490  176.0900  135.8920 C   0  0  0  0  0  3  0  0  0  0  0  0
  185.7740  175.7070  136.8570 C   0  0  0  0  0  2  0  0  0  0  0  0
  185.2360  174.3370  136.4980 C   0  0  0  0  0  2  0  0  0  0  0  0
  185.7020  173.3280  137.5260 C   0  0  0  0  0  1  0  0  0  0  0  0
  1  3  2  0  0  0  0
  2  1  1  0  0  0  0
  2  4  1  0  0  0  0
  4  5  1  0  0  0  0
  5  6  1  0  0  0  0
  6  8  1  0  0  0  0
  6  7  1  1  0  0  0
  9  8  1  0  0  0  0
  9 10  1  0  0  0  0
 10 12  1  0  0  0  0
 11 10  2  0  0  0  0
 13 14  1  0  0  0  0
 13  1  1  0  0  0  0
 15 14  2  0  0  0  0
 16 15  1  0  0  0  0
 17 18  2  0  0  0  0
 17 16  1  0  0  0  0
 19 20  1  1  0  0  0
 19 17  1  0  0  0  0
 21 22  2  0  0  0  0
 22 19  1  0  0  0  0
 23  2  1  0  0  0  0
 25 24  1  6  0  0  0
 25 23  1  0  0  0  0
 26 31  1  6  0  0  0
 26 30  1  0  0  0  0
 26 25  1  0  0  0  0
 27 28  2  0  0  0  0
 27 29  1  0  0  0  0
 30 27  1  0  0  0  0
 32 34  2  0  0  0  0
 33 31  1  0  0  0  0
 34 33  1  0  0  0  0
 36 35  1  6  0  0  0
 36 34  1  0  0  0  0
 37 36  1  0  0  0  0
 38 37  2  0  0  0  0
 38 39  1  0  0  0  0
 40 39  1  0  0  0  0
 40 41  1  0  0  0  0
M  END
>  <MODEL>
5

>  <REMARK>
 VINA RESULT:      -6.6      3.275      8.588
  Name = 
  22 active torsions:
  status: ('A' for Active; 'I' for Inactive)
    1  A    between atoms: C_3  and  N_11
    2  A    between atoms: C_3  and  C_14
    3  A    between atoms: C_4  and  C_7
    4  A    between atoms: C_4  and  C_12
    5  A    between atoms: C_8  and  C_34
    6  A    between atoms: N_10  and  O_33
    7  A    between atoms: N_11  and  N_27
    8  A    between atoms: C_13  and  C_17
    9  A    between atoms: C_13  and  C_38
   10  A    between atoms: C_14  and  C_23
   11  A    between atoms: C_15  and  C_30
   12  A    between atoms: C_15  and  C_32
   13  A    between atoms: C_16  and  C_37
   14  A    between atoms: C_16  and  C_41
   15  A    between atoms: C_17  and  N_27
   16  A    between atoms: C_19  and  C_28
   17  A    between atoms: C_19  and  C_37
   18  A    between atoms: C_21  and  C_35
   19  A    between atoms: C_22  and  C_35
   20  A    between atoms: C_23  and  N_31
   21  A    between atoms: C_23  and  O_33
   22  A    between atoms: C_34  and  C_38
                            x       y       z     vdW  Elec       q    Type
                         _______ _______ _______ _____ _____    ______ ____

>  <TORSDO>
F 22

$$$$
=
 OpenBabel10232408343D

 41 40  0  0  1  0  0  0  0  0999 V2000
  189.6430  176.8360  139.4170 C   0  0  0  0  0  0  0  0  0  0  0  0
  189.4930  177.2640  140.7800 N   0  0  0  0  0  0  0  0  0  0  0  0
  190.4950  175.9510  139.1280 O   0  0  0  0  0  0  0  0  0  0  0  0
  190.2870  176.6920  141.7870 N   0  0  0  0  0  2  0  0  0  0  0  0
  191.4700  177.5310  141.9500 C   0  0  0  0  0  2  0  0  0  0  0  0
  191.8120  177.7210  143.4270 C   0  0  1  0  0  3  0  0  0  0  0  0
  191.0620  178.9120  143.9940 C   0  0  0  0  0  1  0  0  0  0  0  0
  191.5100  176.4730  144.2530 C   0  0  0  0  0  2  0  0  0  0  0  0
  190.9900  176.8290  145.6410 C   0  0  0  0  0  2  0  0  0  0  0  0
  191.8740  176.2630  146.7000 C   0  0  0  0  0  0  0  0  0  0  0  0
  192.0380  176.9420  147.9010 O   0  0  0  0  0  1  0  0  0  0  0  0
  192.4490  175.1580  146.5170 O   0  0  0  0  0  0  0  0  0  0  0  0
  188.7920  177.4050  138.3240 C   0  0  0  0  0  2  0  0  0  0  0  0
  189.5930  177.5620  137.0630 C   0  0  0  0  0  3  0  0  0  0  0  0
  189.0460  177.6970  135.8490 C   0  0  0  0  0  3  0  0  0  0  0  0
  187.5680  177.6680  135.6120 C   0  0  0  0  0  2  0  0  0  0  0  0
  187.1720  176.3620  135.0100 C   0  0  0  0  0  0  0  0  0  0  0  0
  188.0280  175.5420  134.7140 O   0  0  0  0  0  0  0  0  0  0  0  0
  185.7230  176.0800  134.7520 C   0  0  2  0  0  3  0  0  0  0  0  0
  184.8890  176.9450  135.5680 N   0  0  0  0  0  1  0  0  0  0  0  0
  184.2570  174.3270  135.3400 O   0  0  0  0  0  0  0  0  0  0  0  0
  185.3940  174.6480  135.0290 C   0  0  0  0  0  3  0  0  0  0  0  0
  188.6800  178.4270  141.1140 C   0  0  0  0  0  2  0  0  0  0  0  0
  187.7250  176.7060  142.4650 O   0  0  0  0  0  1  0  0  0  0  0  0
  187.6860  178.0790  142.2100 C   0  0  2  0  0  3  0  0  0  0  0  0
  186.2720  178.5160  141.8240 C   0  0  2  0  0  3  0  0  0  0  0  0
  185.1320  178.6560  139.5580 C   0  0  0  0  0  0  0  0  0  0  0  0
  184.1480  177.9820  139.9650 O   0  0  0  0  0  1  0  0  0  0  0  0
  185.1430  179.1370  138.2560 O   0  0  0  0  0  0  0  0  0  0  0  0
  186.2360  178.9240  140.4230 N   0  0  0  0  0  2  0  0  0  0  0  0
  185.8500  179.5790  142.6340 O   0  0  0  0  0  0  0  0  0  0  0  0
  182.9270  178.6140  144.4430 O   0  0  0  0  0  0  0  0  0  0  0  0
  184.5560  179.3050  142.9400 N   0  0  0  0  0  2  0  0  0  0  0  0
  184.1360  178.8980  144.2490 C   0  0  0  0  0  0  0  0  0  0  0  0
  184.4140  178.9030  146.6070 O   0  0  0  0  0  1  0  0  0  0  0  0
  185.0950  178.7770  145.3940 C   0  0  1  0  0  3  0  0  0  0  0  0
  185.8540  177.4810  145.3430 C   0  0  0  0  0  3  0  0  0  0  0  0
  187.0530  177.3050  145.9100 C   0  0  0  0  0  3  0  0  0  0  0  0
  187.7660  178.3910  146.6490 C   0  0  0  0  0  2  0  0  0  0  0  0
  188.6350  177.7810  147.7290 C   0  0  0  0  0  2  0  0  0  0  0  0
  188.0180  178.0540  149.0850 C   0  0  0  0  0  1  0  0  0  0  0  0
  1  2  1  0  0  0  0
  2 23  1  0  0  0  0
  2  4  1  0  0  0  0
  3  1  2  0  0  0  0
  4  5  1  0  0  0  0
  5  6  1  0  0  0  0
  6  7  1  1  0  0  0
  6  8  1  0  0  0  0
  8  9  1  0  0  0  0
  9 10  1  0  0  0  0
 10 11  1  0  0  0  0
 12 10  2  0  0  0  0
 13  1  1  0  0  0  0
 14 13  1  0  0  0  0
 15 14  2  0  0  0  0
 16 15  1  0  0  0  0
 17 16  1  0  0  0  0
 18 17  2  0  0  0  0
 19 17  1  0  0  0  0
 19 22  1  0  0  0  0
 19 20  1  1  0  0  0
 22 21  2  0  0  0  0
 23 25  1  0  0  0  0
 25 24  1  6  0  0  0
 26 30  1  6  0  0  0
 26 25  1  0  0  0  0
 26 31  1  0  0  0  0
 27 28  1  0  0  0  0
 27 30  1  0  0  0  0
 29 27  2  0  0  0  0
 31 33  1  0  0  0  0
 33 34  1  0  0  0  0
 34 32  2  0  0  0  0
 34 36  1  0  0  0  0
 36 35  1  1  0  0  0
 37 36  1  0  0  0  0
 37 38  2  0  0  0  0
 38 39  1  0  0  0  0
 39 40  1  0  0  0  0
 40 41  1  0  0  0  0
M  END
>  <MODEL>
6

>  <REMARK>
 VINA RESULT:      -6.5      2.852      7.640
  Name = 
  22 active torsions:
  status: ('A' for Active; 'I' for Inactive)
    1  A    between atoms: C_3  and  N_11
    2  A    between atoms: C_3  and  C_14
    3  A    between atoms: C_4  and  C_7
    4  A    between atoms: C_4  and  C_12
    5  A    between atoms: C_8  and  C_34
    6  A    between atoms: N_10  and  O_33
    7  A    between atoms: N_11  and  N_27
    8  A    between atoms: C_13  and  C_17
    9  A    between atoms: C_13  and  C_38
   10  A    between atoms: C_14  and  C_23
   11  A    between atoms: C_15  and  C_30
   12  A    between atoms: C_15  and  C_32
   13  A    between atoms: C_16  and  C_37
   14  A    between atoms: C_16  and  C_41
   15  A    between atoms: C_17  and  N_27
   16  A    between atoms: C_19  and  C_28
   17  A    between atoms: C_19  and  C_37
   18  A    between atoms: C_21  and  C_35
   19  A    between atoms: C_22  and  C_35
   20  A    between atoms: C_23  and  N_31
   21  A    between atoms: C_23  and  O_33
   22  A    between atoms: C_34  and  C_38
                            x       y       z     vdW  Elec       q    Type
                         _______ _______ _______ _____ _____    ______ ____

>  <TORSDO>
F 22

$$$$
=
 OpenBabel10232408343D

 41 40  0  0  1  0  0  0  0  0999 V2000
  184.7300  178.8020  144.5440 C   0  0  0  0  0  0  0  0  0  0  0  0
  184.1170  178.7120  143.2480 N   0  0  0  0  0  0  0  0  0  0  0  0
  184.2130  179.5320  145.4330 O   0  0  0  0  0  0  0  0  0  0  0  0
  182.9410  179.4300  142.9770 N   0  0  0  0  0  2  0  0  0  0  0  0
  181.8250  178.4900  143.0300 C   0  0  0  0  0  2  0  0  0  0  0  0
  180.7230  178.8870  142.0490 C   0  0  1  0  0  3  0  0  0  0  0  0
  179.9830  180.1120  142.5530 C   0  0  0  0  0  1  0  0  0  0  0  0
  181.2660  179.1470  140.6470 C   0  0  0  0  0  2  0  0  0  0  0  0
  181.4030  177.8580  139.8470 C   0  0  0  0  0  2  0  0  0  0  0  0
  182.1380  178.0990  138.5720 C   0  0  0  0  0  0  0  0  0  0  0  0
  182.2060  179.3820  138.0430 O   0  0  0  0  0  1  0  0  0  0  0  0
  182.7200  177.1460  137.9900 O   0  0  0  0  0  0  0  0  0  0  0  0
  185.9690  178.0290  144.8730 C   0  0  0  0  0  2  0  0  0  0  0  0
  186.0950  177.8460  146.3590 C   0  0  0  0  0  3  0  0  0  0  0  0
  187.2480  177.5720  146.9780 C   0  0  0  0  0  3  0  0  0  0  0  0
  188.5410  177.3800  146.2480 C   0  0  0  0  0  2  0  0  0  0  0  0
  189.6760  177.3420  147.2160 C   0  0  0  0  0  0  0  0  0  0  0  0
  189.6220  178.0040  148.2420 O   0  0  0  0  0  0  0  0  0  0  0  0
  190.8820  176.5090  146.9050 C   0  0  2  0  0  3  0  0  0  0  0  0
  191.9500  176.8000  147.8450 N   0  0  0  0  0  1  0  0  0  0  0  0
  191.9130  177.7910  145.2150 O   0  0  0  0  0  0  0  0  0  0  0  0
  191.3560  176.7440  145.5080 C   0  0  0  0  0  3  0  0  0  0  0  0
  184.8010  178.0560  142.1400 C   0  0  0  0  0  2  0  0  0  0  0  0
  184.8520  179.6800  140.3910 O   0  0  0  0  0  1  0  0  0  0  0  0
  185.6380  179.0620  141.3670 C   0  0  2  0  0  3  0  0  0  0  0  0
  186.8550  178.3880  140.7330 C   0  0  2  0  0  3  0  0  0  0  0  0
  188.8230  178.0240  142.2970 C   0  0  0  0  0  0  0  0  0  0  0  0
  188.4050  176.8820  142.6250 O   0  0  0  0  0  0  0  0  0  0  0  0
  190.0150  178.4970  142.8280 O   0  0  0  0  0  1  0  0  0  0  0  0
  188.0790  178.8370  141.3900 N   0  0  0  0  0  2  0  0  0  0  0  0
  186.9210  178.6830  139.3640 O   0  0  0  0  0  0  0  0  0  0  0  0
  189.8020  177.5900  137.5610 O   0  0  0  0  0  0  0  0  0  0  0  0
  188.2130  178.4640  139.0110 N   0  0  0  0  0  2  0  0  0  0  0  0
  188.5850  177.8000  137.7950 C   0  0  0  0  0  0  0  0  0  0  0  0
  187.2750  178.3490  135.8930 O   0  0  0  0  0  1  0  0  0  0  0  0
  187.5700  177.3280  136.8000 C   0  0  1  0  0  3  0  0  0  0  0  0
  188.0360  176.0950  136.0790 C   0  0  0  0  0  3  0  0  0  0  0  0
  187.3390  174.9540  136.0410 C   0  0  0  0  0  3  0  0  0  0  0  0
  186.0200  174.7890  136.7250 C   0  0  0  0  0  2  0  0  0  0  0  0
  185.9720  173.4400  137.4120 C   0  0  0  0  0  2  0  0  0  0  0  0
  186.7600  172.4340  136.6000 C   0  0  0  0  0  1  0  0  0  0  0  0
  1 13  1  0  0  0  0
  1  3  2  0  0  0  0
  2  1  1  0  0  0  0
  4  5  1  0  0  0  0
  4  2  1  0  0  0  0
  6  7  1  1  0  0  0
  6  5  1  0  0  0  0
  8  6  1  0  0  0  0
  9  8  1  0  0  0  0
 10  9  1  0  0  0  0
 11 10  1  0  0  0  0
 12 10  2  0  0  0  0
 13 14  1  0  0  0  0
 14 15  2  0  0  0  0
 16 15  1  0  0  0  0
 16 17  1  0  0  0  0
 17 18  2  0  0  0  0
 19 17  1  0  0  0  0
 19 20  1  1  0  0  0
 21 22  2  0  0  0  0
 22 19  1  0  0  0  0
 23  2  1  0  0  0  0
 25 24  1  6  0  0  0
 25 23  1  0  0  0  0
 26 31  1  6  0  0  0
 26 25  1  0  0  0  0
 26 30  1  0  0  0  0
 27 28  2  0  0  0  0
 27 29  1  0  0  0  0
 30 27  1  0  0  0  0
 32 34  2  0  0  0  0
 33 31  1  0  0  0  0
 34 33  1  0  0  0  0
 36 35  1  6  0  0  0
 36 34  1  0  0  0  0
 37 36  1  0  0  0  0
 38 37  2  0  0  0  0
 38 39  1  0  0  0  0
 39 40  1  0  0  0  0
 41 40  1  0  0  0  0
M  END
>  <MODEL>
7

>  <REMARK>
 VINA RESULT:      -6.3      3.253      7.904
  Name = 
  22 active torsions:
  status: ('A' for Active; 'I' for Inactive)
    1  A    between atoms: C_3  and  N_11
    2  A    between atoms: C_3  and  C_14
    3  A    between atoms: C_4  and  C_7
    4  A    between atoms: C_4  and  C_12
    5  A    between atoms: C_8  and  C_34
    6  A    between atoms: N_10  and  O_33
    7  A    between atoms: N_11  and  N_27
    8  A    between atoms: C_13  and  C_17
    9  A    between atoms: C_13  and  C_38
   10  A    between atoms: C_14  and  C_23
   11  A    between atoms: C_15  and  C_30
   12  A    between atoms: C_15  and  C_32
   13  A    between atoms: C_16  and  C_37
   14  A    between atoms: C_16  and  C_41
   15  A    between atoms: C_17  and  N_27
   16  A    between atoms: C_19  and  C_28
   17  A    between atoms: C_19  and  C_37
   18  A    between atoms: C_21  and  C_35
   19  A    between atoms: C_22  and  C_35
   20  A    between atoms: C_23  and  N_31
   21  A    between atoms: C_23  and  O_33
   22  A    between atoms: C_34  and  C_38
                            x       y       z     vdW  Elec       q    Type
                         _______ _______ _______ _____ _____    ______ ____

>  <TORSDO>
F 22

$$$$
=
 OpenBabel10232408343D

 41 40  0  0  1  0  0  0  0  0999 V2000
  185.2860  178.4420  144.3740 C   0  0  0  0  0  0  0  0  0  0  0  0
  186.6280  178.1250  143.9700 N   0  0  0  0  0  0  0  0  0  0  0  0
  185.0560  178.7920  145.5630 O   0  0  0  0  0  0  0  0  0  0  0  0
  187.6790  178.2140  144.8970 N   0  0  0  0  0  2  0  0  0  0  0  0
  188.3830  176.9350  144.8950 C   0  0  0  0  0  2  0  0  0  0  0  0
  189.8750  177.1260  145.1580 C   0  0  1  0  0  3  0  0  0  0  0  0
  190.3160  178.5100  144.7180 C   0  0  0  0  0  1  0  0  0  0  0  0
  190.2340  176.9080  146.6260 C   0  0  0  0  0  2  0  0  0  0  0  0
  188.9950  176.6750  147.4800 C   0  0  0  0  0  2  0  0  0  0  0  0
  188.6990  177.8690  148.3230 C   0  0  0  0  0  0  0  0  0  0  0  0
  189.7410  178.6000  148.8790 O   0  0  0  0  0  1  0  0  0  0  0  0
  187.5070  178.2290  148.5090 O   0  0  0  0  0  0  0  0  0  0  0  0
  184.1480  178.3840  143.4030 C   0  0  0  0  0  2  0  0  0  0  0  0
  182.9700  179.1540  143.9290 C   0  0  0  0  0  3  0  0  0  0  0  0
  181.7670  179.1620  143.3430 C   0  0  0  0  0  3  0  0  0  0  0  0
  181.4750  178.4300  142.0700 C   0  0  0  0  0  2  0  0  0  0  0  0
  181.0870  179.3960  141.0010 C   0  0  0  0  0  0  0  0  0  0  0  0
  180.2360  180.2440  141.2260 O   0  0  0  0  0  0  0  0  0  0  0  0
  181.7300  179.2980  139.6510 C   0  0  2  0  0  3  0  0  0  0  0  0
  183.1750  179.3800  139.7760 N   0  0  0  0  0  1  0  0  0  0  0  0
  181.7130  181.4970  138.7970 O   0  0  0  0  0  0  0  0  0  0  0  0
  181.2370  180.3740  138.7390 C   0  0  0  0  0  3  0  0  0  0  0  0
  186.8950  177.5140  142.6740 C   0  0  0  0  0  2  0  0  0  0  0  0
  186.4260  179.2480  141.1020 O   0  0  0  0  0  1  0  0  0  0  0  0
  187.4660  178.5430  141.7120 C   0  0  2  0  0  3  0  0  0  0  0  0
  188.3550  177.8750  140.6630 C   0  0  2  0  0  3  0  0  0  0  0  0
  190.5850  177.0510  141.5570 C   0  0  0  0  0  0  0  0  0  0  0  0
  190.0980  175.9290  141.8560 O   0  0  0  0  0  1  0  0  0  0  0  0
  191.9330  177.2960  141.7800 O   0  0  0  0  0  0  0  0  0  0  0  0
  189.7630  178.0730  140.9940 N   0  0  0  0  0  2  0  0  0  0  0  0
  188.0930  178.4040  139.3910 O   0  0  0  0  0  0  0  0  0  0  0  0
  190.0840  177.2930  136.6440 O   0  0  0  0  0  0  0  0  0  0  0  0
  189.1650  178.0630  138.6320 N   0  0  0  0  0  2  0  0  0  0  0  0
  189.0490  177.6400  137.2670 C   0  0  0  0  0  0  0  0  0  0  0  0
  187.8860  177.9350  135.2190 O   0  0  0  0  0  1  0  0  0  0  0  0
  187.7300  177.5770  136.5600 C   0  0  1  0  0  3  0  0  0  0  0  0
  187.1060  176.2150  136.6780 C   0  0  0  0  0  3  0  0  0  0  0  0
  185.8160  176.0170  136.9710 C   0  0  0  0  0  3  0  0  0  0  0  0
  184.8610  177.1390  137.2210 C   0  0  0  0  0  2  0  0  0  0  0  0
  183.4820  176.5770  137.4980 C   0  0  0  0  0  2  0  0  0  0  0  0
  183.5810  175.0800  137.7020 C   0  0  0  0  0  1  0  0  0  0  0  0
  1  3  2  0  0  0  0
  2  1  1  0  0  0  0
  2  4  1  0  0  0  0
  5  4  1  0  0  0  0
  5  6  1  0  0  0  0
  6  7  1  1  0  0  0
  6  8  1  0  0  0  0
  8  9  1  0  0  0  0
  9 10  1  0  0  0  0
 10 12  2  0  0  0  0
 10 11  1  0  0  0  0
 13 14  1  0  0  0  0
 13  1  1  0  0  0  0
 15 14  2  0  0  0  0
 16 15  1  0  0  0  0
 17 18  2  0  0  0  0
 17 16  1  0  0  0  0
 19 20  1  1  0  0  0
 19 17  1  0  0  0  0
 22 21  2  0  0  0  0
 22 19  1  0  0  0  0
 23  2  1  0  0  0  0
 25 24  1  6  0  0  0
 25 23  1  0  0  0  0
 26 31  1  6  0  0  0
 26 30  1  0  0  0  0
 26 25  1  0  0  0  0
 27 29  2  0  0  0  0
 27 28  1  0  0  0  0
 30 27  1  0  0  0  0
 32 34  2  0  0  0  0
 33 31  1  0  0  0  0
 34 33  1  0  0  0  0
 36 35  1  6  0  0  0
 36 37  1  0  0  0  0
 36 34  1  0  0  0  0
 37 38  2  0  0  0  0
 38 39  1  0  0  0  0
 39 40  1  0  0  0  0
 40 41  1  0  0  0  0
M  END
>  <MODEL>
8

>  <REMARK>
 VINA RESULT:      -6.0      3.033      8.543
  Name = 
  22 active torsions:
  status: ('A' for Active; 'I' for Inactive)
    1  A    between atoms: C_3  and  N_11
    2  A    between atoms: C_3  and  C_14
    3  A    between atoms: C_4  and  C_7
    4  A    between atoms: C_4  and  C_12
    5  A    between atoms: C_8  and  C_34
    6  A    between atoms: N_10  and  O_33
    7  A    between atoms: N_11  and  N_27
    8  A    between atoms: C_13  and  C_17
    9  A    between atoms: C_13  and  C_38
   10  A    between atoms: C_14  and  C_23
   11  A    between atoms: C_15  and  C_30
   12  A    between atoms: C_15  and  C_32
   13  A    between atoms: C_16  and  C_37
   14  A    between atoms: C_16  and  C_41
   15  A    between atoms: C_17  and  N_27
   16  A    between atoms: C_19  and  C_28
   17  A    between atoms: C_19  and  C_37
   18  A    between atoms: C_21  and  C_35
   19  A    between atoms: C_22  and  C_35
   20  A    between atoms: C_23  and  N_31
   21  A    between atoms: C_23  and  O_33
   22  A    between atoms: C_34  and  C_38
                            x       y       z     vdW  Elec       q    Type
                         _______ _______ _______ _____ _____    ______ ____

>  <TORSDO>
F 22

$$$$
=
 OpenBabel10232408343D

 41 40  0  0  1  0  0  0  0  0999 V2000
  188.0710  178.3580  140.1570 C   0  0  0  0  0  0  0  0  0  0  0  0
  186.9000  178.4250  139.3270 N   0  0  0  0  0  0  0  0  0  0  0  0
  189.2100  178.2470  139.6270 O   0  0  0  0  0  0  0  0  0  0  0  0
  187.0270  178.3740  137.9300 N   0  0  0  0  0  2  0  0  0  0  0  0
  187.1500  176.9720  137.5450 C   0  0  0  0  0  2  0  0  0  0  0  0
  188.1850  176.7920  136.4370 C   0  0  1  0  0  3  0  0  0  0  0  0
  189.0830  178.0130  136.3500 C   0  0  0  0  0  1  0  0  0  0  0  0
  189.0310  175.5370  136.6360 C   0  0  0  0  0  2  0  0  0  0  0  0
  190.1960  175.7880  137.5860 C   0  0  0  0  0  2  0  0  0  0  0  0
  191.4490  175.1720  137.0620 C   0  0  0  0  0  0  0  0  0  0  0  0
  192.0100  174.0810  137.7140 O   0  0  0  0  0  1  0  0  0  0  0  0
  191.9840  175.6240  136.0160 O   0  0  0  0  0  0  0  0  0  0  0  0
  187.9720  178.4380  141.6490 C   0  0  0  0  0  2  0  0  0  0  0  0
  187.9340  177.0610  142.2470 C   0  0  0  0  0  3  0  0  0  0  0  0
  188.5030  176.7430  143.4150 C   0  0  0  0  0  3  0  0  0  0  0  0
  189.2770  177.7240  144.2400 C   0  0  0  0  0  2  0  0  0  0  0  0
  190.5940  177.1400  144.6290 C   0  0  0  0  0  0  0  0  0  0  0  0
  191.2600  176.5360  143.8020 O   0  0  0  0  0  0  0  0  0  0  0  0
  191.0740  177.2820  146.0410 C   0  0  2  0  0  3  0  0  0  0  0  0
  191.9790  176.1970  146.3760 N   0  0  0  0  0  1  0  0  0  0  0  0
  189.7590  176.3770  147.7780 O   0  0  0  0  0  0  0  0  0  0  0  0
  189.9290  177.3050  147.0020 C   0  0  0  0  0  3  0  0  0  0  0  0
  185.5660  178.3360  139.9070 C   0  0  0  0  0  2  0  0  0  0  0  0
  184.4850  180.3400  139.1900 O   0  0  0  0  0  1  0  0  0  0  0  0
  184.5420  178.9610  138.9740 C   0  0  2  0  0  3  0  0  0  0  0  0
  183.1650  178.3270  139.1710 C   0  0  2  0  0  3  0  0  0  0  0  0
  182.6650  177.0530  137.0300 C   0  0  0  0  0  0  0  0  0  0  0  0
  183.4830  176.1440  137.3310 O   0  0  0  0  0  1  0  0  0  0  0  0
  181.9320  176.9560  135.8550 O   0  0  0  0  0  0  0  0  0  0  0  0
  182.4880  178.1820  137.8850 N   0  0  0  0  0  2  0  0  0  0  0  0
  182.3820  179.1110  140.0280 O   0  0  0  0  0  0  0  0  0  0  0  0
  179.9820  177.5800  142.1830 O   0  0  0  0  0  0  0  0  0  0  0  0
  181.4180  178.2790  140.4980 N   0  0  0  0  0  2  0  0  0  0  0  0
  180.8350  178.4200  141.8000 C   0  0  0  0  0  0  0  0  0  0  0  0
  180.1860  180.4590  142.8300 O   0  0  0  0  0  1  0  0  0  0  0  0
  181.2220  179.5270  142.7330 C   0  0  1  0  0  3  0  0  0  0  0  0
  181.5920  178.9990  144.0900 C   0  0  0  0  0  3  0  0  0  0  0  0
  182.8530  178.7850  144.4800 C   0  0  0  0  0  3  0  0  0  0  0  0
  184.0290  179.0420  143.5940 C   0  0  0  0  0  2  0  0  0  0  0  0
  185.2760  178.4570  144.2250 C   0  0  0  0  0  2  0  0  0  0  0  0
  185.4300  179.0000  145.6300 C   0  0  0  0  0  1  0  0  0  0  0  0
  1 13  1  0  0  0  0
  2 23  1  0  0  0  0
  2  1  1  0  0  0  0
  3  1  2  0  0  0  0
  4  2  1  0  0  0  0
  5  4  1  0  0  0  0
  6  7  1  1  0  0  0
  6  8  1  0  0  0  0
  6  5  1  0  0  0  0
  8  9  1  0  0  0  0
 10  9  1  0  0  0  0
 10 11  1  0  0  0  0
 12 10  2  0  0  0  0
 13 14  1  0  0  0  0
 14 15  2  0  0  0  0
 15 16  1  0  0  0  0
 16 17  1  0  0  0  0
 17 19  1  0  0  0  0
 18 17  2  0  0  0  0
 19 20  1  1  0  0  0
 19 22  1  0  0  0  0
 22 21  2  0  0  0  0
 25 26  1  0  0  0  0
 25 24  1  1  0  0  0
 25 23  1  0  0  0  0
 26 30  1  6  0  0  0
 26 31  1  0  0  0  0
 27 28  1  0  0  0  0
 27 30  1  0  0  0  0
 29 27  2  0  0  0  0
 31 33  1  0  0  0  0
 33 34  1  0  0  0  0
 34 32  2  0  0  0  0
 34 36  1  0  0  0  0
 36 35  1  1  0  0  0
 36 37  1  0  0  0  0
 37 38  2  0  0  0  0
 39 40  1  0  0  0  0
 39 38  1  0  0  0  0
 40 41  1  0  0  0  0
M  END
>  <MODEL>
9

>  <REMARK>
 VINA RESULT:      -5.9      2.485      4.196
  Name = 
  22 active torsions:
  status: ('A' for Active; 'I' for Inactive)
    1  A    between atoms: C_3  and  N_11
    2  A    between atoms: C_3  and  C_14
    3  A    between atoms: C_4  and  C_7
    4  A    between atoms: C_4  and  C_12
    5  A    between atoms: C_8  and  C_34
    6  A    between atoms: N_10  and  O_33
    7  A    between atoms: N_11  and  N_27
    8  A    between atoms: C_13  and  C_17
    9  A    between atoms: C_13  and  C_38
   10  A    between atoms: C_14  and  C_23
   11  A    between atoms: C_15  and  C_30
   12  A    between atoms: C_15  and  C_32
   13  A    between atoms: C_16  and  C_37
   14  A    between atoms: C_16  and  C_41
   15  A    between atoms: C_17  and  N_27
   16  A    between atoms: C_19  and  C_28
   17  A    between atoms: C_19  and  C_37
   18  A    between atoms: C_21  and  C_35
   19  A    between atoms: C_22  and  C_35
   20  A    between atoms: C_23  and  N_31
   21  A    between atoms: C_23  and  O_33
   22  A    between atoms: C_34  and  C_38
                            x       y       z     vdW  Elec       q    Type
                         _______ _______ _______ _____ _____    ______ ____

>  <TORSDO>
F 22

$$$$
