=
 OpenBabel10232409463D

 25 29  0  0  1  0  0  0  0  0999 V2000
  185.1050  178.2690  144.8030 C   0  0  0  0  0  0  0  0  0  0  0  0
  185.3840  178.0010  146.4330 S   0  0  0  0  0  0  0  0  0  0  0  0
  181.9980  179.1760  143.4150 O   0  0  0  0  0  0  0  0  0  0  0  0
  183.9490  178.6260  144.1310 C   0  0  0  0  0  0  0  0  0  0  0  0
  187.0390  177.6670  146.2360 C   0  0  0  0  0  0  0  0  0  0  0  0
  186.3070  178.3350  142.7270 N   0  0  0  0  0  0  0  0  0  0  0  0
  186.2830  178.1170  144.0810 C   0  0  0  0  0  0  0  0  0  0  0  0
  187.3890  177.7790  144.8770 C   0  0  0  0  0  0  0  0  0  0  0  0
  182.7620  179.1690  142.3510 N   0  0  0  0  0  0  0  0  0  0  0  0
  183.9800  178.8270  142.7860 C   0  0  0  0  0  0  0  0  0  0  0  0
  185.1650  178.6880  142.0520 C   0  0  0  0  0  3  0  0  0  0  0  0
  182.6530  178.8580  144.5260 C   0  0  0  0  0  3  0  0  0  0  0  0
  192.0020  179.4300  144.3630 N   0  0  0  0  0  1  0  0  0  0  0  0
  190.8220  175.2090  142.3760 N   0  0  0  0  0  1  0  0  0  0  0  0
  191.0200  178.4330  144.1100 C   0  0  0  0  0  0  0  0  0  0  0  0
  189.7250  178.5900  144.6050 C   0  0  0  0  0  3  0  0  0  0  0  0
  188.7610  177.6060  144.3530 C   0  0  0  0  0  0  0  0  0  0  0  0
  190.4330  176.3530  143.1280 C   0  0  0  0  0  0  0  0  0  0  0  0
  191.3440  177.3280  143.3880 N   0  0  0  0  0  0  0  0  0  0  0  0
  188.2300  175.4720  143.3840 F   0  0  0  0  0  0  0  0  0  0  0  0
  189.1230  176.4700  143.6080 C   0  0  0  0  0  0  0  0  0  0  0  0
  189.8480  178.3420  148.6350 C   0  0  0  0  0  1  0  0  0  0  0  0
  187.4200  177.9090  148.6680 C   0  0  0  0  0  2  0  0  0  0  0  0
  187.9750  177.3590  147.3670 C   0  0  2  0  0  3  0  0  0  0  0  0
  188.5310  178.6450  147.9550 C   0  0  2  0  0  3  0  0  0  0  0  0
  1  2  1  0  0  0  0
  3 12  1  0  0  0  0
  4 12  2  0  0  0  0
  4  1  1  0  0  0  0
  5  2  1  0  0  0  0
  6  7  1  0  0  0  0
  7  1  2  0  0  0  0
  7  8  1  0  0  0  0
  8  5  2  0  0  0  0
  9 10  2  0  0  0  0
  9  3  1  0  0  0  0
 10  4  1  0  0  0  0
 11  6  2  0  0  0  0
 11 10  1  0  0  0  0
 14 18  1  0  0  0  0
 15 13  1  0  0  0  0
 15 16  1  0  0  0  0
 17 16  2  0  0  0  0
 17  8  1  0  0  0  0
 18 19  1  0  0  0  0
 18 21  2  0  0  0  0
 19 15  2  0  0  0  0
 20 21  1  0  0  0  0
 21 17  1  0  0  0  0
 24  5  1  6  0  0  0
 24 25  1  0  0  0  0
 24 23  1  0  0  0  0
 25 22  1  1  0  0  0
 25 23  1  0  0  0  0
M  END
>  <MODEL>
1

>  <REMARK>
 VINA RESULT:      -7.9      0.000      0.000
  Name = 
  2 active torsions:
  status: ('A' for Active; 'I' for Inactive)
    1  A    between atoms: C_11  and  C_12
    2  A    between atoms: C_13  and  C_17
                            x       y       z     vdW  Elec       q    Type
                         _______ _______ _______ _____ _____    ______ ____

>  <TORSDO>
F 2

$$$$
=
 OpenBabel10232409463D

 25 29  0  0  1  0  0  0  0  0999 V2000
  185.5460  178.3390  142.1900 C   0  0  0  0  0  0  0  0  0  0  0  0
  184.9830  178.1220  143.7530 S   0  0  0  0  0  0  0  0  0  0  0  0
  183.5500  179.2640  139.4410 O   0  0  0  0  0  0  0  0  0  0  0  0
  184.8800  178.6970  141.0320 C   0  0  0  0  0  0  0  0  0  0  0  0
  186.5080  177.7450  144.4000 C   0  0  0  0  0  0  0  0  0  0  0  0
  187.6120  178.3060  140.9690 N   0  0  0  0  0  0  0  0  0  0  0  0
  186.9210  178.1360  142.1420 C   0  0  0  0  0  0  0  0  0  0  0  0
  187.4830  177.8030  143.3840 C   0  0  0  0  0  0  0  0  0  0  0  0
  184.7360  179.2020  138.8880 N   0  0  0  0  0  0  0  0  0  0  0  0
  185.5730  178.8500  139.8710 C   0  0  0  0  0  0  0  0  0  0  0  0
  186.9600  178.6600  139.8140 C   0  0  0  0  0  3  0  0  0  0  0  0
  183.5660  178.9700  140.7360 C   0  0  0  0  0  3  0  0  0  0  0  0
  191.9610  179.5700  144.4300 N   0  0  0  0  0  1  0  0  0  0  0  0
  191.4640  174.8490  143.6410 N   0  0  0  0  0  1  0  0  0  0  0  0
  191.1190  178.4680  144.1170 C   0  0  0  0  0  0  0  0  0  0  0  0
  189.7540  178.6700  143.9130 C   0  0  0  0  0  3  0  0  0  0  0  0
  188.9290  177.5820  143.6040 C   0  0  0  0  0  0  0  0  0  0  0  0
  190.8700  176.1390  143.7230 C   0  0  0  0  0  0  0  0  0  0  0  0
  191.6440  177.2180  144.0180 N   0  0  0  0  0  0  0  0  0  0  0  0
  188.7210  175.2110  143.2620 F   0  0  0  0  0  0  0  0  0  0  0  0
  189.4960  176.2990  143.5120 C   0  0  0  0  0  0  0  0  0  0  0  0
  187.8700  178.4110  147.8360 C   0  0  0  0  0  1  0  0  0  0  0  0
  185.6960  178.1210  146.7060 C   0  0  0  0  0  2  0  0  0  0  0  0
  186.7600  177.4570  145.8490 C   0  0  2  0  0  3  0  0  0  0  0  0
  187.0690  178.7440  146.5960 C   0  0  2  0  0  3  0  0  0  0  0  0
  1  2  1  0  0  0  0
  2  5  1  0  0  0  0
  3 12  1  0  0  0  0
  4  1  1  0  0  0  0
  6  7  1  0  0  0  0
  7  1  2  0  0  0  0
  7  8  1  0  0  0  0
  8 17  1  0  0  0  0
  8  5  2  0  0  0  0
  9  3  1  0  0  0  0
  9 10  2  0  0  0  0
 10  4  1  0  0  0  0
 11 10  1  0  0  0  0
 11  6  2  0  0  0  0
 12  4  2  0  0  0  0
 14 18  1  0  0  0  0
 15 13  1  0  0  0  0
 16 15  2  0  0  0  0
 17 16  1  0  0  0  0
 18 19  2  0  0  0  0
 19 15  1  0  0  0  0
 20 21  1  0  0  0  0
 21 17  2  0  0  0  0
 21 18  1  0  0  0  0
 24  5  1  6  0  0  0
 24 25  1  0  0  0  0
 24 23  1  0  0  0  0
 25 23  1  0  0  0  0
 25 22  1  1  0  0  0
M  END
>  <MODEL>
2

>  <REMARK>
 VINA RESULT:      -7.5      1.860      2.301
  Name = 
  2 active torsions:
  status: ('A' for Active; 'I' for Inactive)
    1  A    between atoms: C_11  and  C_12
    2  A    between atoms: C_13  and  C_17
                            x       y       z     vdW  Elec       q    Type
                         _______ _______ _______ _____ _____    ______ ____

>  <TORSDO>
F 2

$$$$
=
 OpenBabel10232409463D

 25 29  0  0  1  0  0  0  0  0999 V2000
  185.7440  178.5560  142.4760 C   0  0  0  0  0  0  0  0  0  0  0  0
  186.1640  178.6710  140.8580 S   0  0  0  0  0  0  0  0  0  0  0  0
  182.4720  178.8840  143.7340 O   0  0  0  0  0  0  0  0  0  0  0  0
  184.5130  178.6630  143.0990 C   0  0  0  0  0  0  0  0  0  0  0  0
  187.8170  178.3760  141.1230 C   0  0  0  0  0  0  0  0  0  0  0  0
  186.7580  178.0900  144.6010 N   0  0  0  0  0  0  0  0  0  0  0  0
  186.8670  178.2760  143.2460 C   0  0  0  0  0  0  0  0  0  0  0  0
  188.0490  178.1680  142.4960 C   0  0  0  0  0  0  0  0  0  0  0  0
  183.1430  178.6290  144.8300 N   0  0  0  0  0  0  0  0  0  0  0  0
  184.4170  178.4890  144.4450 C   0  0  0  0  0  0  0  0  0  0  0  0
  185.5410  178.1950  145.2280 C   0  0  0  0  0  3  0  0  0  0  0  0
  183.2390  178.9180  142.6510 C   0  0  0  0  0  3  0  0  0  0  0  0
  192.3240  179.5960  144.4840 N   0  0  0  0  0  1  0  0  0  0  0  0
  191.4950  174.8890  143.9160 N   0  0  0  0  0  1  0  0  0  0  0  0
  191.4600  178.5530  144.0500 C   0  0  0  0  0  0  0  0  0  0  0  0
  190.2140  178.8630  143.5050 C   0  0  0  0  0  3  0  0  0  0  0  0
  189.3670  177.8330  143.0770 C   0  0  0  0  0  0  0  0  0  0  0  0
  191.0490  176.2320  143.7640 C   0  0  0  0  0  0  0  0  0  0  0  0
  191.8490  177.2560  144.1660 N   0  0  0  0  0  0  0  0  0  0  0  0
  188.9780  175.4710  142.8550 F   0  0  0  0  0  0  0  0  0  0  0  0
  189.7900  176.5000  143.2130 C   0  0  0  0  0  0  0  0  0  0  0  0
  190.3560  176.6910  138.9280 C   0  0  0  0  0  1  0  0  0  0  0  0
  188.1900  177.8560  138.7340 C   0  0  0  0  0  2  0  0  0  0  0  0
  188.8430  178.2960  140.0320 C   0  0  2  0  0  3  0  0  0  0  0  0
  188.9870  176.8620  139.5490 C   0  0  2  0  0  3  0  0  0  0  0  0
  1  4  1  0  0  0  0
  1  7  2  0  0  0  0
  2  5  1  0  0  0  0
  2  1  1  0  0  0  0
  3  9  1  0  0  0  0
  4 10  1  0  0  0  0
  5  8  2  0  0  0  0
  6 11  2  0  0  0  0
  7  6  1  0  0  0  0
  8 17  1  0  0  0  0
  8  7  1  0  0  0  0
 10  9  2  0  0  0  0
 10 11  1  0  0  0  0
 12  4  2  0  0  0  0
 12  3  1  0  0  0  0
 15 19  1  0  0  0  0
 15 13  1  0  0  0  0
 16 15  2  0  0  0  0
 17 21  2  0  0  0  0
 17 16  1  0  0  0  0
 18 14  1  0  0  0  0
 18 19  2  0  0  0  0
 20 21  1  0  0  0  0
 21 18  1  0  0  0  0
 23 25  1  0  0  0  0
 23 24  1  0  0  0  0
 24  5  1  1  0  0  0
 25 22  1  6  0  0  0
 25 24  1  0  0  0  0
M  END
>  <MODEL>
3

>  <REMARK>
 VINA RESULT:      -7.4      2.346      4.186
  Name = 
  2 active torsions:
  status: ('A' for Active; 'I' for Inactive)
    1  A    between atoms: C_11  and  C_12
    2  A    between atoms: C_13  and  C_17
                            x       y       z     vdW  Elec       q    Type
                         _______ _______ _______ _____ _____    ______ ____

>  <TORSDO>
F 2

$$$$
=
 OpenBabel10232409463D

 25 29  0  0  1  0  0  0  0  0999 V2000
  188.2930  177.7090  141.8580 C   0  0  0  0  0  0  0  0  0  0  0  0
  186.7440  177.8560  142.4790 S   0  0  0  0  0  0  0  0  0  0  0  0
  189.1320  177.9990  138.4500 O   0  0  0  0  0  0  0  0  0  0  0  0
  188.7570  177.7990  140.5570 C   0  0  0  0  0  0  0  0  0  0  0  0
  187.2200  177.6260  144.0940 C   0  0  0  0  0  0  0  0  0  0  0  0
  190.5470  177.3880  142.6190 N   0  0  0  0  0  0  0  0  0  0  0  0
  189.2050  177.4930  142.8850 C   0  0  0  0  0  0  0  0  0  0  0  0
  188.6150  177.4460  144.1570 C   0  0  0  0  0  0  0  0  0  0  0  0
  190.3100  177.8070  138.9880 N   0  0  0  0  0  0  0  0  0  0  0  0
  190.0880  177.6810  140.3020 C   0  0  0  0  0  0  0  0  0  0  0  0
  191.0160  177.4750  141.3310 C   0  0  0  0  0  3  0  0  0  0  0  0
  188.1480  178.0060  139.3420 C   0  0  0  0  0  3  0  0  0  0  0  0
  189.2200  178.4130  148.9500 N   0  0  0  0  0  1  0  0  0  0  0  0
  192.3830  175.5250  146.7560 N   0  0  0  0  0  1  0  0  0  0  0  0
  189.6570  177.7590  147.7650 C   0  0  0  0  0  0  0  0  0  0  0  0
  188.9410  177.9170  146.5780 C   0  0  0  0  0  3  0  0  0  0  0  0
  189.3760  177.2720  145.4140 C   0  0  0  0  0  0  0  0  0  0  0  0
  191.2180  176.3380  146.6780 C   0  0  0  0  0  0  0  0  0  0  0  0
  190.7710  176.9810  147.7900 N   0  0  0  0  0  0  0  0  0  0  0  0
  190.9540  175.7880  144.3710 F   0  0  0  0  0  0  0  0  0  0  0  0
  190.5280  176.4690  145.4670 C   0  0  0  0  0  0  0  0  0  0  0  0
  185.5640  179.1590  147.0960 C   0  0  0  0  0  1  0  0  0  0  0  0
  184.9700  178.3210  144.8530 C   0  0  0  0  0  2  0  0  0  0  0  0
  186.2810  177.6730  145.2620 C   0  0  2  0  0  3  0  0  0  0  0  0
  185.9860  179.1140  145.6430 C   0  0  2  0  0  3  0  0  0  0  0  0
  1  2  1  0  0  0  0
  1  7  2  0  0  0  0
  2  5  1  0  0  0  0
  3  9  1  0  0  0  0
  3 12  1  0  0  0  0
  4  1  1  0  0  0  0
  5  8  2  0  0  0  0
  6  7  1  0  0  0  0
  7  8  1  0  0  0  0
  8 17  1  0  0  0  0
  9 10  2  0  0  0  0
 10  4  1  0  0  0  0
 10 11  1  0  0  0  0
 11  6  2  0  0  0  0
 12  4  2  0  0  0  0
 15 19  1  0  0  0  0
 15 13  1  0  0  0  0
 16 15  2  0  0  0  0
 17 21  2  0  0  0  0
 17 16  1  0  0  0  0
 18 14  1  0  0  0  0
 18 19  2  0  0  0  0
 20 21  1  0  0  0  0
 21 18  1  0  0  0  0
 23 24  1  0  0  0  0
 23 25  1  0  0  0  0
 24  5  1  6  0  0  0
 24 25  1  0  0  0  0
 25 22  1  1  0  0  0
M  END
>  <MODEL>
4

>  <REMARK>
 VINA RESULT:      -7.2      3.263      4.806
  Name = 
  2 active torsions:
  status: ('A' for Active; 'I' for Inactive)
    1  A    between atoms: C_11  and  C_12
    2  A    between atoms: C_13  and  C_17
                            x       y       z     vdW  Elec       q    Type
                         _______ _______ _______ _____ _____    ______ ____

>  <TORSDO>
F 2

$$$$
=
 OpenBabel10232409463D

 25 29  0  0  1  0  0  0  0  0999 V2000
  185.9290  178.2750  143.6470 C   0  0  0  0  0  0  0  0  0  0  0  0
  187.1600  178.0170  144.7540 S   0  0  0  0  0  0  0  0  0  0  0  0
  182.5910  179.0210  144.4830 O   0  0  0  0  0  0  0  0  0  0  0  0
  184.5910  178.5720  143.8360 C   0  0  0  0  0  0  0  0  0  0  0  0
  188.3580  177.7720  143.5750 C   0  0  0  0  0  0  0  0  0  0  0  0
  185.6040  178.4120  141.2720 N   0  0  0  0  0  0  0  0  0  0  0  0
  186.4230  178.1890  142.3500 C   0  0  0  0  0  0  0  0  0  0  0  0
  187.7970  177.9080  142.2900 C   0  0  0  0  0  0  0  0  0  0  0  0
  182.5420  179.0580  143.1740 N   0  0  0  0  0  0  0  0  0  0  0  0
  183.7840  178.7800  142.7610 C   0  0  0  0  0  0  0  0  0  0  0  0
  184.2750  178.7070  141.4510 C   0  0  0  0  0  3  0  0  0  0  0  0
  183.8010  178.7340  144.9490 C   0  0  0  0  0  3  0  0  0  0  0  0
  188.7690  179.5390  137.7450 N   0  0  0  0  0  1  0  0  0  0  0  0
  191.2640  175.7880  139.4390 N   0  0  0  0  0  1  0  0  0  0  0  0
  189.0280  178.6230  138.8020 C   0  0  0  0  0  0  0  0  0  0  0  0
  188.3080  178.7140  139.9930 C   0  0  0  0  0  3  0  0  0  0  0  0
  188.5660  177.8090  141.0310 C   0  0  0  0  0  0  0  0  0  0  0  0
  190.2540  176.7710  139.6390 C   0  0  0  0  0  0  0  0  0  0  0  0
  189.9770  177.6620  138.6500 N   0  0  0  0  0  0  0  0  0  0  0  0
  189.8690  175.9640  141.8520 F   0  0  0  0  0  0  0  0  0  0  0  0
  189.5560  176.8280  140.8510 C   0  0  0  0  0  0  0  0  0  0  0  0
  191.9680  178.6750  144.0890 C   0  0  0  0  0  1  0  0  0  0  0  0
  190.0700  177.7430  145.3610 C   0  0  0  0  0  2  0  0  0  0  0  0
  189.8020  177.5110  143.8840 C   0  0  2  0  0  3  0  0  0  0  0  0
  190.4810  178.7880  144.3480 C   0  0  2  0  0  3  0  0  0  0  0  0
  1  4  1  0  0  0  0
  1  2  1  0  0  0  0
  3 12  1  0  0  0  0
  4 12  2  0  0  0  0
  5  2  1  0  0  0  0
  6 11  2  0  0  0  0
  6  7  1  0  0  0  0
  7  1  2  0  0  0  0
  8  7  1  0  0  0  0
  8  5  2  0  0  0  0
  9  3  1  0  0  0  0
 10  9  2  0  0  0  0
 10  4  1  0  0  0  0
 11 10  1  0  0  0  0
 13 15  1  0  0  0  0
 14 18  1  0  0  0  0
 15 16  1  0  0  0  0
 16 17  2  0  0  0  0
 17  8  1  0  0  0  0
 18 21  2  0  0  0  0
 19 15  2  0  0  0  0
 19 18  1  0  0  0  0
 21 17  1  0  0  0  0
 21 20  1  0  0  0  0
 24  5  1  1  0  0  0
 24 25  1  0  0  0  0
 24 23  1  0  0  0  0
 25 22  1  6  0  0  0
 25 23  1  0  0  0  0
M  END
>  <MODEL>
5

>  <REMARK>
 VINA RESULT:      -7.1      2.530      3.408
  Name = 
  2 active torsions:
  status: ('A' for Active; 'I' for Inactive)
    1  A    between atoms: C_11  and  C_12
    2  A    between atoms: C_13  and  C_17
                            x       y       z     vdW  Elec       q    Type
                         _______ _______ _______ _____ _____    ______ ____

>  <TORSDO>
F 2

$$$$
=
 OpenBabel10232409463D

 25 29  0  0  1  0  0  0  0  0999 V2000
  190.0190  176.9630  144.4460 C   0  0  0  0  0  0  0  0  0  0  0  0
  190.5400  176.5960  142.8960 S   0  0  0  0  0  0  0  0  0  0  0  0
  191.9820  176.6630  147.3540 O   0  0  0  0  0  0  0  0  0  0  0  0
  190.6770  176.8920  145.6610 C   0  0  0  0  0  0  0  0  0  0  0  0
  189.0750  177.0290  142.1510 C   0  0  0  0  0  0  0  0  0  0  0  0
  188.0890  177.8460  145.5660 N   0  0  0  0  0  0  0  0  0  0  0  0
  188.7120  177.4360  144.4150 C   0  0  0  0  0  0  0  0  0  0  0  0
  188.1630  177.4840  143.1240 C   0  0  0  0  0  0  0  0  0  0  0  0
  190.8660  177.1420  147.8460 N   0  0  0  0  0  0  0  0  0  0  0  0
  190.0460  177.2880  146.7980 C   0  0  0  0  0  0  0  0  0  0  0  0
  188.7340  177.7780  146.7760 C   0  0  0  0  0  3  0  0  0  0  0  0
  191.9360  176.4890  146.0380 C   0  0  0  0  0  3  0  0  0  0  0  0
  184.9790  179.5400  139.9770 N   0  0  0  0  0  1  0  0  0  0  0  0
  183.4580  178.4130  144.4020 N   0  0  0  0  0  1  0  0  0  0  0  0
  185.2590  179.0020  141.2630 C   0  0  0  0  0  0  0  0  0  0  0  0
  186.5360  178.5180  141.5530 C   0  0  0  0  0  3  0  0  0  0  0  0
  186.8070  177.9910  142.8210 C   0  0  0  0  0  0  0  0  0  0  0  0
  184.5140  178.4480  143.4480 C   0  0  0  0  0  0  0  0  0  0  0  0
  184.2840  178.9580  142.2090 N   0  0  0  0  0  0  0  0  0  0  0  0
  185.9910  177.4030  145.0040 F   0  0  0  0  0  0  0  0  0  0  0  0
  185.7800  177.9520  143.7800 C   0  0  0  0  0  0  0  0  0  0  0  0
  188.9850  178.3900  138.6520 C   0  0  0  0  0  1  0  0  0  0  0  0
  190.1240  176.6270  139.9480 C   0  0  0  0  0  2  0  0  0  0  0  0
  188.8380  176.9810  140.6720 C   0  0  2  0  0  3  0  0  0  0  0  0
  189.6460  178.0610  139.9730 C   0  0  2  0  0  3  0  0  0  0  0  0
  1  4  1  0  0  0  0
  2  1  1  0  0  0  0
  3  9  1  0  0  0  0
  4 12  2  0  0  0  0
  4 10  1  0  0  0  0
  5  2  1  0  0  0  0
  5  8  2  0  0  0  0
  6 11  2  0  0  0  0
  7  1  2  0  0  0  0
  7  6  1  0  0  0  0
  8  7  1  0  0  0  0
 10  9  2  0  0  0  0
 11 10  1  0  0  0  0
 12  3  1  0  0  0  0
 13 15  1  0  0  0  0
 15 16  2  0  0  0  0
 15 19  1  0  0  0  0
 16 17  1  0  0  0  0
 17  8  1  0  0  0  0
 17 21  2  0  0  0  0
 18 21  1  0  0  0  0
 18 14  1  0  0  0  0
 19 18  2  0  0  0  0
 21 20  1  0  0  0  0
 23 25  1  0  0  0  0
 23 24  1  0  0  0  0
 24  5  1  1  0  0  0
 25 22  1  6  0  0  0
 25 24  1  0  0  0  0
M  END
>  <MODEL>
6

>  <REMARK>
 VINA RESULT:      -7.1      3.534      6.889
  Name = 
  2 active torsions:
  status: ('A' for Active; 'I' for Inactive)
    1  A    between atoms: C_11  and  C_12
    2  A    between atoms: C_13  and  C_17
                            x       y       z     vdW  Elec       q    Type
                         _______ _______ _______ _____ _____    ______ ____

>  <TORSDO>
F 2

$$$$
=
 OpenBabel10232409463D

 25 29  0  0  1  0  0  0  0  0999 V2000
  186.7270  178.0970  142.5890 C   0  0  0  0  0  0  0  0  0  0  0  0
  185.7890  178.1140  143.9770 S   0  0  0  0  0  0  0  0  0  0  0  0
  185.6180  179.0930  139.3980 O   0  0  0  0  0  0  0  0  0  0  0  0
  186.4210  178.4570  141.2880 C   0  0  0  0  0  0  0  0  0  0  0  0
  187.0310  177.5500  144.9900 C   0  0  0  0  0  0  0  0  0  0  0  0
  188.9780  177.6180  141.9070 N   0  0  0  0  0  0  0  0  0  0  0  0
  188.0160  177.6680  142.8840 C   0  0  0  0  0  0  0  0  0  0  0  0
  188.2070  177.3570  144.2390 C   0  0  0  0  0  0  0  0  0  0  0  0
  186.8680  178.7890  139.1520 N   0  0  0  0  0  0  0  0  0  0  0  0
  187.3790  178.3910  140.3240 C   0  0  0  0  0  0  0  0  0  0  0  0
  188.6830  177.9720  140.6130 C   0  0  0  0  0  3  0  0  0  0  0  0
  185.2820  178.9150  140.6710 C   0  0  0  0  0  3  0  0  0  0  0  0
  191.5870  177.5950  147.8150 N   0  0  0  0  0  1  0  0  0  0  0  0
  192.3590  174.6390  144.0950 N   0  0  0  0  0  1  0  0  0  0  0  0
  191.1470  177.0520  146.5760 C   0  0  0  0  0  0  0  0  0  0  0  0
  189.9280  177.4570  146.0330 C   0  0  0  0  0  3  0  0  0  0  0  0
  189.4990  176.9210  144.8120 C   0  0  0  0  0  0  0  0  0  0  0  0
  191.5260  175.5990  144.7370 C   0  0  0  0  0  0  0  0  0  0  0  0
  191.9150  176.1410  145.9220 N   0  0  0  0  0  0  0  0  0  0  0  0
  189.9050  175.3980  142.9980 F   0  0  0  0  0  0  0  0  0  0  0  0
  190.3090  175.9760  144.1580 C   0  0  0  0  0  0  0  0  0  0  0  0
  187.6120  178.3200  148.6200 C   0  0  0  0  0  1  0  0  0  0  0  0
  185.7530  178.2120  147.0010 C   0  0  0  0  0  2  0  0  0  0  0  0
  186.8860  177.3530  146.4690 C   0  0  2  0  0  3  0  0  0  0  0  0
  187.1860  178.6480  147.2050 C   0  0  2  0  0  3  0  0  0  0  0  0
  1  7  2  0  0  0  0
  1  2  1  0  0  0  0
  2  5  1  0  0  0  0
  3 12  1  0  0  0  0
  4  1  1  0  0  0  0
  6  7  1  0  0  0  0
  7  8  1  0  0  0  0
  8 17  1  0  0  0  0
  8  5  2  0  0  0  0
  9  3  1  0  0  0  0
  9 10  2  0  0  0  0
 10 11  1  0  0  0  0
 10  4  1  0  0  0  0
 11  6  2  0  0  0  0
 12  4  2  0  0  0  0
 14 18  1  0  0  0  0
 15 13  1  0  0  0  0
 16 15  1  0  0  0  0
 17 16  2  0  0  0  0
 18 19  1  0  0  0  0
 19 15  2  0  0  0  0
 20 21  1  0  0  0  0
 21 18  2  0  0  0  0
 21 17  1  0  0  0  0
 23 25  1  0  0  0  0
 24  5  1  6  0  0  0
 24 23  1  0  0  0  0
 24 25  1  0  0  0  0
 25 22  1  1  0  0  0
M  END
>  <MODEL>
7

>  <REMARK>
 VINA RESULT:      -7.1      2.543      2.973
  Name = 
  2 active torsions:
  status: ('A' for Active; 'I' for Inactive)
    1  A    between atoms: C_11  and  C_12
    2  A    between atoms: C_13  and  C_17
                            x       y       z     vdW  Elec       q    Type
                         _______ _______ _______ _____ _____    ______ ____

>  <TORSDO>
F 2

$$$$
=
 OpenBabel10232409463D

 25 29  0  0  1  0  0  0  0  0999 V2000
  188.8500  177.5880  144.6930 C   0  0  0  0  0  0  0  0  0  0  0  0
  187.2090  177.8020  144.4300 S   0  0  0  0  0  0  0  0  0  0  0  0
  190.3500  177.2190  147.8570 O   0  0  0  0  0  0  0  0  0  0  0  0
  189.5630  177.4320  145.8680 C   0  0  0  0  0  0  0  0  0  0  0  0
  187.3460  177.8540  142.7370 C   0  0  0  0  0  0  0  0  0  0  0  0
  190.8840  177.3250  143.4470 N   0  0  0  0  0  0  0  0  0  0  0  0
  189.5300  177.5410  143.4810 C   0  0  0  0  0  0  0  0  0  0  0  0
  188.6940  177.6860  142.3630 C   0  0  0  0  0  0  0  0  0  0  0  0
  191.3870  177.1000  147.0670 N   0  0  0  0  0  0  0  0  0  0  0  0
  190.9080  177.2310  145.8240 C   0  0  0  0  0  0  0  0  0  0  0  0
  191.6000  177.1700  144.6080 C   0  0  0  0  0  3  0  0  0  0  0  0
  189.2150  177.4210  147.1980 C   0  0  0  0  0  3  0  0  0  0  0  0
  188.8140  179.5720  137.8140 N   0  0  0  0  0  1  0  0  0  0  0  0
  191.2950  175.5480  138.7160 N   0  0  0  0  0  1  0  0  0  0  0  0
  189.2150  178.5670  138.7370 C   0  0  0  0  0  0  0  0  0  0  0  0
  188.7730  178.6200  140.0590 C   0  0  0  0  0  3  0  0  0  0  0  0
  189.1690  177.6270  140.9640 C   0  0  0  0  0  0  0  0  0  0  0  0
  190.4340  176.5800  139.1850 C   0  0  0  0  0  0  0  0  0  0  0  0
  190.0280  177.5570  138.3310 N   0  0  0  0  0  0  0  0  0  0  0  0
  190.4600  175.6430  141.3800 F   0  0  0  0  0  0  0  0  0  0  0  0
  190.0150  176.5960  140.5200 C   0  0  0  0  0  0  0  0  0  0  0  0
  183.7150  177.9630  141.7820 C   0  0  0  0  0  1  0  0  0  0  0  0
  185.6950  179.4360  141.7930 C   0  0  0  0  0  2  0  0  0  0  0  0
  186.1820  177.9980  141.8030 C   0  0  2  0  0  3  0  0  0  0  0  0
  184.9320  178.3890  142.5740 C   0  0  2  0  0  3  0  0  0  0  0  0
  1  4  1  0  0  0  0
  2  1  1  0  0  0  0
  4 12  2  0  0  0  0
  5  2  1  0  0  0  0
  6  7  1  0  0  0  0
  6 11  2  0  0  0  0
  7  1  2  0  0  0  0
  8  5  2  0  0  0  0
  8  7  1  0  0  0  0
  9  3  1  0  0  0  0
 10  4  1  0  0  0  0
 10  9  2  0  0  0  0
 11 10  1  0  0  0  0
 12  3  1  0  0  0  0
 13 15  1  0  0  0  0
 14 18  1  0  0  0  0
 15 16  1  0  0  0  0
 16 17  2  0  0  0  0
 17  8  1  0  0  0  0
 18 21  2  0  0  0  0
 19 15  2  0  0  0  0
 19 18  1  0  0  0  0
 21 17  1  0  0  0  0
 21 20  1  0  0  0  0
 23 24  1  0  0  0  0
 23 25  1  0  0  0  0
 24 25  1  0  0  0  0
 24  5  1  1  0  0  0
 25 22  1  6  0  0  0
M  END
>  <MODEL>
8

>  <REMARK>
 VINA RESULT:      -7.0      3.394      5.922
  Name = 
  2 active torsions:
  status: ('A' for Active; 'I' for Inactive)
    1  A    between atoms: C_11  and  C_12
    2  A    between atoms: C_13  and  C_17
                            x       y       z     vdW  Elec       q    Type
                         _______ _______ _______ _____ _____    ______ ____

>  <TORSDO>
F 2

$$$$
=
 OpenBabel10232409463D

 25 29  0  0  1  0  0  0  0  0999 V2000
  187.4800  178.2250  139.9540 C   0  0  0  0  0  0  0  0  0  0  0  0
  187.3420  178.6580  141.5670 S   0  0  0  0  0  0  0  0  0  0  0  0
  190.4410  177.0980  138.4180 O   0  0  0  0  0  0  0  0  0  0  0  0
  188.5680  177.7710  139.2300 C   0  0  0  0  0  0  0  0  0  0  0  0
  185.6840  179.0200  141.4720 C   0  0  0  0  0  0  0  0  0  0  0  0
  186.1080  177.9920  137.9980 N   0  0  0  0  0  0  0  0  0  0  0  0
  186.2490  178.3400  139.3180 C   0  0  0  0  0  0  0  0  0  0  0  0
  185.2200  178.7850  140.1630 C   0  0  0  0  0  0  0  0  0  0  0  0
  189.5920  177.0240  137.4230 N   0  0  0  0  0  0  0  0  0  0  0  0
  188.4210  177.4410  137.9190 C   0  0  0  0  0  0  0  0  0  0  0  0
  187.1830  177.5420  137.2720 C   0  0  0  0  0  3  0  0  0  0  0  0
  189.8880  177.5420  139.5410 C   0  0  0  0  0  3  0  0  0  0  0  0
  181.6620  181.5200  138.1310 N   0  0  0  0  0  1  0  0  0  0  0  0
  180.5810  177.0890  139.6670 N   0  0  0  0  0  1  0  0  0  0  0  0
  182.0800  180.3040  138.7380 C   0  0  0  0  0  0  0  0  0  0  0  0
  183.4070  180.1450  139.1380 C   0  0  0  0  0  3  0  0  0  0  0  0
  183.8130  178.9460  139.7360 C   0  0  0  0  0  0  0  0  0  0  0  0
  181.5500  178.1190  139.5000 C   0  0  0  0  0  0  0  0  0  0  0  0
  181.1870  179.2970  138.9260 N   0  0  0  0  0  0  0  0  0  0  0  0
  183.2380  176.7230  140.4470 F   0  0  0  0  0  0  0  0  0  0  0  0
  182.8710  177.9180  139.9150 C   0  0  0  0  0  0  0  0  0  0  0  0
  182.9380  178.7440  144.0190 C   0  0  0  0  0  1  0  0  0  0  0  0
  185.4000  178.8730  143.9250 C   0  0  0  0  0  2  0  0  0  0  0  0
  184.8520  179.4620  142.6370 C   0  0  2  0  0  3  0  0  0  0  0  0
  184.1720  178.2670  143.2840 C   0  0  2  0  0  3  0  0  0  0  0  0
  1  2  1  0  0  0  0
  3 12  1  0  0  0  0
  4 12  2  0  0  0  0
  4  1  1  0  0  0  0
  5  2  1  0  0  0  0
  6  7  1  0  0  0  0
  7  1  2  0  0  0  0
  7  8  1  0  0  0  0
  8  5  2  0  0  0  0
  9 10  2  0  0  0  0
  9  3  1  0  0  0  0
 10  4  1  0  0  0  0
 11 10  1  0  0  0  0
 11  6  2  0  0  0  0
 13 15  1  0  0  0  0
 15 19  2  0  0  0  0
 15 16  1  0  0  0  0
 16 17  2  0  0  0  0
 17 21  1  0  0  0  0
 17  8  1  0  0  0  0
 18 14  1  0  0  0  0
 18 21  2  0  0  0  0
 19 18  1  0  0  0  0
 21 20  1  0  0  0  0
 24  5  1  6  0  0  0
 24 25  1  0  0  0  0
 24 23  1  0  0  0  0
 25 23  1  0  0  0  0
 25 22  1  1  0  0  0
M  END
>  <MODEL>
9

>  <REMARK>
 VINA RESULT:      -6.8      4.706      7.786
  Name = 
  2 active torsions:
  status: ('A' for Active; 'I' for Inactive)
    1  A    between atoms: C_11  and  C_12
    2  A    between atoms: C_13  and  C_17
                            x       y       z     vdW  Elec       q    Type
                         _______ _______ _______ _____ _____    ______ ____

>  <TORSDO>
F 2

$$$$
