=
 OpenBabel10232412103D

 39 44  0  0  1  0  0  0  0  0999 V2000
  189.4130  178.2780  143.1000 C   0  0  0  0  0  3  0  0  0  0  0  0
  190.7940  177.3840  140.8700 C   0  0  0  0  0  0  0  0  0  0  0  0
  188.7490  177.2960  139.5670 C   0  0  0  0  0  3  0  0  0  0  0  0
  190.7940  178.0920  143.1330 C   0  0  0  0  0  0  0  0  0  0  0  0
  191.5170  176.9580  139.7530 C   0  0  0  0  0  3  0  0  0  0  0  0
  190.8680  176.6960  138.5440 C   0  0  0  0  0  0  0  0  0  0  0  0
  188.6850  178.0000  141.9340 C   0  0  0  0  0  0  0  0  0  0  0  0
  191.4500  177.6560  142.0270 N   0  0  0  0  0  0  0  0  0  0  0  0
  189.4800  176.8680  138.4550 C   0  0  0  0  0  3  0  0  0  0  0  0
  189.3890  177.5510  140.7900 C   0  0  0  0  0  0  0  0  0  0  0  0
  184.4010  178.5430  142.0220 C   0  0  0  0  0  0  0  0  0  0  0  0
  186.5440  178.8300  140.9000 C   0  0  0  0  0  3  0  0  0  0  0  0
  184.5420  179.6450  139.8020 N   0  0  0  0  0  1  0  0  0  0  0  0
  185.0750  177.9100  143.0760 C   0  0  0  0  0  3  0  0  0  0  0  0
  185.1570  179.0050  140.9180 C   0  0  0  0  0  0  0  0  0  0  0  0
  187.2120  178.2080  141.9620 C   0  0  0  0  0  0  0  0  0  0  0  0
  186.4600  177.7400  143.0470 C   0  0  0  0  0  3  0  0  0  0  0  0
  182.3150  179.2660  143.2750 N   0  0  0  0  0  1  0  0  0  0  0  0
  182.1900  178.3120  141.1760 O   0  0  0  0  0  0  0  0  0  0  0  0
  182.9280  178.6950  142.1230 C   0  0  0  0  0  0  0  0  0  0  0  0
  191.6250  176.2780  137.4480 O   0  0  0  0  0  0  0  0  0  0  0  0
  192.3140  175.0290  137.4170 C   0  0  2  0  0  3  0  0  0  0  0  0
  193.6720  175.1410  136.9490 C   0  0  1  0  0  3  0  0  0  0  0  0
  192.6090  174.6500  135.9630 C   0  0  0  0  0  0  0  0  0  0  0  0
  192.2560  174.2790  134.8560 O   0  0  0  0  0  0  0  0  0  0  0  0
  195.3600  178.1250  135.3540 O   0  0  0  0  0  1  0  0  0  0  0  0
  195.0460  176.8040  135.6370 C   0  0  0  0  0  0  0  0  0  0  0  0
  194.0480  176.5100  136.6140 N   0  0  0  0  0  2  0  0  0  0  0  0
  195.6410  175.8760  135.0280 O   0  0  0  0  0  0  0  0  0  0  0  0
  191.5600  178.4210  144.3700 C   0  0  0  0  0  2  0  0  0  0  0  0
  191.1190  177.5530  145.5000 C   0  0  0  0  0  0  0  0  0  0  0  0
  191.9650  176.5520  145.9860 C   0  0  0  0  0  3  0  0  0  0  0  0
  189.4110  176.8860  147.0940 C   0  0  0  0  0  0  0  0  0  0  0  0
  191.5440  175.7290  147.0340 C   0  0  0  0  0  3  0  0  0  0  0  0
  189.8460  177.7230  146.0560 C   0  0  0  0  0  3  0  0  0  0  0  0
  190.2730  175.8980  147.5900 C   0  0  0  0  0  3  0  0  0  0  0  0
  188.0650  177.0880  147.7180 C   0  0  2  0  0  3  0  0  0  0  0  0
  187.3440  178.1730  147.0520 C   0  0  0  0  0  2  0  0  0  0  0  0
  187.9960  178.4200  148.3450 N   0  0  0  0  0  2  0  0  0  0  0  0
  1  4  1  0  0  0  0
  2  8  1  0  0  0  0
  3 10  2  0  0  0  0
  4 30  1  0  0  0  0
  5  2  2  0  0  0  0
  6  5  1  0  0  0  0
  7 16  1  0  0  0  0
  7  1  2  0  0  0  0
  8  4  2  0  0  0  0
  9  6  2  0  0  0  0
  9  3  1  0  0  0  0
 10  2  1  0  0  0  0
 10  7  1  0  0  0  0
 11 20  1  0  0  0  0
 11 14  1  0  0  0  0
 12 15  1  0  0  0  0
 12 16  2  0  0  0  0
 13 15  1  0  0  0  0
 15 11  2  0  0  0  0
 16 17  1  0  0  0  0
 17 14  2  0  0  0  0
 19 20  2  0  0  0  0
 20 18  1  0  0  0  0
 21  6  1  0  0  0  0
 22 21  1  6  0  0  0
 23 28  1  6  0  0  0
 23 22  1  0  0  0  0
 24 23  1  0  0  0  0
 24 22  1  0  0  0  0
 25 24  2  0  0  0  0
 26 27  1  0  0  0  0
 27 28  1  0  0  0  0
 29 27  2  0  0  0  0
 30 31  1  0  0  0  0
 31 32  2  0  0  0  0
 31 35  1  0  0  0  0
 32 34  1  0  0  0  0
 33 36  1  0  0  0  0
 34 36  2  0  0  0  0
 35 33  2  0  0  0  0
 37 33  1  6  0  0  0
 37 39  1  0  0  0  0
 38 37  1  0  0  0  0
 38 39  1  0  0  0  0
M  END
>  <MODEL>
1

>  <REMARK>
 VINA RESULT:     -10.0      0.000      0.000
  Name = 
  8 active torsions:
  status: ('A' for Active; 'I' for Inactive)
    1  A    between atoms: C_3  and  C_37
    2  A    between atoms: O_5  and  C_7
    3  A    between atoms: O_5  and  C_30
    4  A    between atoms: C_6  and  C_8
    5  A    between atoms: C_11  and  N_25
    6  A    between atoms: C_16  and  C_19
    7  A    between atoms: C_24  and  C_37
    8  A    between atoms: C_29  and  C_31
                            x       y       z     vdW  Elec       q    Type
                         _______ _______ _______ _____ _____    ______ ____

>  <TORSDO>
F 8

$$$$
=
 OpenBabel10232412103D

 39 44  0  0  1  0  0  0  0  0999 V2000
  188.9000  178.0430  143.4520 C   0  0  0  0  0  3  0  0  0  0  0  0
  190.7010  177.3290  141.4710 C   0  0  0  0  0  0  0  0  0  0  0  0
  188.9660  177.4270  139.7780 C   0  0  0  0  0  3  0  0  0  0  0  0
  190.2440  177.8140  143.7460 C   0  0  0  0  0  0  0  0  0  0  0  0
  191.6340  176.9920  140.4870 C   0  0  0  0  0  3  0  0  0  0  0  0
  191.2440  176.8680  139.1510 C   0  0  0  0  0  0  0  0  0  0  0  0
  188.4240  177.9010  142.1410 C   0  0  0  0  0  0  0  0  0  0  0  0
  191.1080  177.4680  142.7580 N   0  0  0  0  0  0  0  0  0  0  0  0
  189.9050  177.0880  138.8000 C   0  0  0  0  0  3  0  0  0  0  0  0
  189.3440  177.5440  141.1240 C   0  0  0  0  0  0  0  0  0  0  0  0
  184.2170  178.5580  141.4170 C   0  0  0  0  0  0  0  0  0  0  0  0
  186.5410  178.7960  140.7280 C   0  0  0  0  0  3  0  0  0  0  0  0
  184.8070  179.6720  139.2790 N   0  0  0  0  0  1  0  0  0  0  0  0
  184.6620  177.8990  142.5720 C   0  0  0  0  0  3  0  0  0  0  0  0
  185.1820  179.0080  140.4830 C   0  0  0  0  0  0  0  0  0  0  0  0
  186.9790  178.1480  141.8900 C   0  0  0  0  0  0  0  0  0  0  0  0
  186.0220  177.6920  142.8060 C   0  0  0  0  0  3  0  0  0  0  0  0
  182.1120  178.4530  140.0020 N   0  0  0  0  0  1  0  0  0  0  0  0
  182.0580  179.1860  142.1920 O   0  0  0  0  0  0  0  0  0  0  0  0
  182.7560  178.7490  141.2370 C   0  0  0  0  0  0  0  0  0  0  0  0
  192.2060  176.5350  138.1950 O   0  0  0  0  0  0  0  0  0  0  0  0
  192.1760  175.3110  137.4630 C   0  0  2  0  0  3  0  0  0  0  0  0
  193.4250  174.5930  137.5060 C   0  0  1  0  0  3  0  0  0  0  0  0
  193.1120  175.4210  136.2570 C   0  0  0  0  0  0  0  0  0  0  0  0
  193.4030  175.8620  135.1580 O   0  0  0  0  0  0  0  0  0  0  0  0
  196.3740  175.2530  139.7780 O   0  0  0  0  0  1  0  0  0  0  0  0
  195.4230  174.5560  139.0480 C   0  0  0  0  0  0  0  0  0  0  0  0
  194.4450  175.2730  138.2950 N   0  0  0  0  0  2  0  0  0  0  0  0
  195.4310  173.2970  139.0550 O   0  0  0  0  0  0  0  0  0  0  0  0
  190.7420  177.9990  145.1390 C   0  0  0  0  0  2  0  0  0  0  0  0
  189.6270  177.8390  146.1160 C   0  0  0  0  0  0  0  0  0  0  0  0
  189.9050  177.5640  147.4590 C   0  0  0  0  0  3  0  0  0  0  0  0
  187.2460  177.7480  146.5900 C   0  0  0  0  0  0  0  0  0  0  0  0
  188.8590  177.3970  148.3700 C   0  0  0  0  0  3  0  0  0  0  0  0
  188.3000  177.9350  145.6840 C   0  0  0  0  0  3  0  0  0  0  0  0
  187.5330  177.4940  147.9380 C   0  0  0  0  0  3  0  0  0  0  0  0
  185.8250  177.8890  146.1400 C   0  0  2  0  0  3  0  0  0  0  0  0
  185.5070  179.2890  145.8580 C   0  0  0  0  0  2  0  0  0  0  0  0
  185.0620  178.6830  147.1200 N   0  0  0  0  0  2  0  0  0  0  0  0
  1  4  1  0  0  0  0
  2  8  1  0  0  0  0
  3 10  2  0  0  0  0
  4 30  1  0  0  0  0
  5  2  2  0  0  0  0
  6  5  1  0  0  0  0
  7  1  2  0  0  0  0
  8  4  2  0  0  0  0
  9  6  2  0  0  0  0
  9  3  1  0  0  0  0
 10  2  1  0  0  0  0
 10  7  1  0  0  0  0
 11 14  1  0  0  0  0
 12 16  2  0  0  0  0
 13 15  1  0  0  0  0
 14 17  2  0  0  0  0
 15 12  1  0  0  0  0
 15 11  2  0  0  0  0
 16  7  1  0  0  0  0
 16 17  1  0  0  0  0
 18 20  1  0  0  0  0
 20 11  1  0  0  0  0
 20 19  2  0  0  0  0
 21  6  1  0  0  0  0
 22 23  1  0  0  0  0
 22 21  1  1  0  0  0
 23 28  1  1  0  0  0
 24 22  1  0  0  0  0
 24 23  1  0  0  0  0
 25 24  2  0  0  0  0
 27 29  2  0  0  0  0
 27 26  1  0  0  0  0
 28 27  1  0  0  0  0
 30 31  1  0  0  0  0
 31 32  1  0  0  0  0
 32 34  2  0  0  0  0
 33 36  2  0  0  0  0
 35 31  2  0  0  0  0
 35 33  1  0  0  0  0
 36 34  1  0  0  0  0
 37 33  1  1  0  0  0
 37 39  1  0  0  0  0
 38 37  1  0  0  0  0
 38 39  1  0  0  0  0
M  END
>  <MODEL>
2

>  <REMARK>
 VINA RESULT:      -9.6      1.651      2.061
  Name = 
  8 active torsions:
  status: ('A' for Active; 'I' for Inactive)
    1  A    between atoms: C_3  and  C_37
    2  A    between atoms: O_5  and  C_7
    3  A    between atoms: O_5  and  C_30
    4  A    between atoms: C_6  and  C_8
    5  A    between atoms: C_11  and  N_25
    6  A    between atoms: C_16  and  C_19
    7  A    between atoms: C_24  and  C_37
    8  A    between atoms: C_29  and  C_31
                            x       y       z     vdW  Elec       q    Type
                         _______ _______ _______ _____ _____    ______ ____

>  <TORSDO>
F 8

$$$$
=
 OpenBabel10232412103D

 39 44  0  0  1  0  0  0  0  0999 V2000
  187.5570  178.3370  142.2850 C   0  0  0  0  0  3  0  0  0  0  0  0
  188.7180  177.7560  139.8370 C   0  0  0  0  0  0  0  0  0  0  0  0
  190.6920  176.8540  140.9220 C   0  0  0  0  0  3  0  0  0  0  0  0
  186.8950  178.6110  141.0890 C   0  0  0  0  0  0  0  0  0  0  0  0
  189.2710  177.4510  138.5910 C   0  0  0  0  0  3  0  0  0  0  0  0
  190.5300  176.8520  138.5000 C   0  0  0  0  0  0  0  0  0  0  0  0
  188.8400  177.7710  142.2760 C   0  0  0  0  0  0  0  0  0  0  0  0
  187.4840  178.3150  139.9020 N   0  0  0  0  0  0  0  0  0  0  0  0
  191.2380  176.5530  139.6720 C   0  0  0  0  0  3  0  0  0  0  0  0
  189.4330  177.4660  141.0260 C   0  0  0  0  0  0  0  0  0  0  0  0
  190.7890  176.9680  146.0450 C   0  0  0  0  0  0  0  0  0  0  0  0
  188.7530  177.2320  144.7340 C   0  0  0  0  0  3  0  0  0  0  0  0
  188.5540  176.6880  147.0880 N   0  0  0  0  0  1  0  0  0  0  0  0
  191.5310  177.2360  144.8850 C   0  0  0  0  0  3  0  0  0  0  0  0
  189.3760  176.9660  145.9570 C   0  0  0  0  0  0  0  0  0  0  0  0
  189.5000  177.5110  143.5830 C   0  0  0  0  0  0  0  0  0  0  0  0
  190.8980  177.4990  143.6700 C   0  0  0  0  0  3  0  0  0  0  0  0
  192.1910  175.4630  147.5330 N   0  0  0  0  0  1  0  0  0  0  0  0
  191.5760  177.5870  148.2020 O   0  0  0  0  0  0  0  0  0  0  0  0
  191.5290  176.7030  147.3040 C   0  0  0  0  0  0  0  0  0  0  0  0
  191.0470  176.5560  137.2370 O   0  0  0  0  0  0  0  0  0  0  0  0
  191.2330  175.2210  136.7720 C   0  0  2  0  0  3  0  0  0  0  0  0
  192.3270  175.0890  135.8430 C   0  0  1  0  0  3  0  0  0  0  0  0
  190.9060  175.1550  135.2780 C   0  0  0  0  0  0  0  0  0  0  0  0
  190.1180  175.1790  134.3470 O   0  0  0  0  0  0  0  0  0  0  0  0
  194.9880  177.7670  135.6390 O   0  0  0  0  0  0  0  0  0  0  0  0
  194.3870  176.5470  135.9100 C   0  0  0  0  0  0  0  0  0  0  0  0
  193.0100  176.3510  135.5860 N   0  0  0  0  0  2  0  0  0  0  0  0
  195.0600  175.6220  136.4360 O   0  0  0  0  0  1  0  0  0  0  0  0
  185.5190  179.1840  141.1150 C   0  0  0  0  0  2  0  0  0  0  0  0
  184.9030  178.9980  142.4600 C   0  0  0  0  0  0  0  0  0  0  0  0
  183.5120  178.9300  142.5910 C   0  0  0  0  0  3  0  0  0  0  0  0
  185.1420  178.7830  144.8680 C   0  0  0  0  0  0  0  0  0  0  0  0
  182.9360  178.7730  143.8550 C   0  0  0  0  0  3  0  0  0  0  0  0
  185.7160  178.9200  143.5960 C   0  0  0  0  0  3  0  0  0  0  0  0
  183.7480  178.6940  144.9890 C   0  0  0  0  0  3  0  0  0  0  0  0
  186.0090  178.6600  146.0830 C   0  0  2  0  0  3  0  0  0  0  0  0
  185.2240  178.2160  147.2350 C   0  0  0  0  0  2  0  0  0  0  0  0
  185.5860  179.6340  147.1050 N   0  0  0  0  0  2  0  0  0  0  0  0
  2  8  2  0  0  0  0
  2 10  1  0  0  0  0
  3 10  1  0  0  0  0
  4 30  1  0  0  0  0
  4  1  2  0  0  0  0
  5  2  1  0  0  0  0
  6  5  2  0  0  0  0
  6  9  1  0  0  0  0
  7  1  1  0  0  0  0
  7 16  1  0  0  0  0
  8  4  1  0  0  0  0
  9  3  2  0  0  0  0
 10  7  2  0  0  0  0
 11 20  1  0  0  0  0
 12 15  2  0  0  0  0
 14 11  2  0  0  0  0
 15 11  1  0  0  0  0
 15 13  1  0  0  0  0
 16 17  2  0  0  0  0
 16 12  1  0  0  0  0
 17 14  1  0  0  0  0
 20 18  1  0  0  0  0
 20 19  2  0  0  0  0
 21  6  1  0  0  0  0
 22 21  1  6  0  0  0
 23 28  1  6  0  0  0
 23 22  1  0  0  0  0
 24 23  1  0  0  0  0
 24 22  1  0  0  0  0
 25 24  2  0  0  0  0
 26 27  2  0  0  0  0
 27 29  1  0  0  0  0
 28 27  1  0  0  0  0
 30 31  1  0  0  0  0
 31 32  2  0  0  0  0
 31 35  1  0  0  0  0
 32 34  1  0  0  0  0
 33 36  1  0  0  0  0
 34 36  2  0  0  0  0
 35 33  2  0  0  0  0
 37 33  1  6  0  0  0
 37 39  1  0  0  0  0
 37 38  1  0  0  0  0
 39 38  1  0  0  0  0
M  END
>  <MODEL>
3

>  <REMARK>
 VINA RESULT:      -9.6      2.371      5.435
  Name = 
  8 active torsions:
  status: ('A' for Active; 'I' for Inactive)
    1  A    between atoms: C_3  and  C_37
    2  A    between atoms: O_5  and  C_7
    3  A    between atoms: O_5  and  C_30
    4  A    between atoms: C_6  and  C_8
    5  A    between atoms: C_11  and  N_25
    6  A    between atoms: C_16  and  C_19
    7  A    between atoms: C_24  and  C_37
    8  A    between atoms: C_29  and  C_31
                            x       y       z     vdW  Elec       q    Type
                         _______ _______ _______ _____ _____    ______ ____

>  <TORSDO>
F 8

$$$$
=
 OpenBabel10232412103D

 39 44  0  0  1  0  0  0  0  0999 V2000
  185.9290  178.3810  144.6490 C   0  0  0  0  0  3  0  0  0  0  0  0
  186.1210  178.5550  141.8900 C   0  0  0  0  0  0  0  0  0  0  0  0
  188.4200  177.7820  141.9430 C   0  0  0  0  0  3  0  0  0  0  0  0
  184.8460  178.7950  143.8740 C   0  0  0  0  0  0  0  0  0  0  0  0
  186.1840  178.6270  140.4960 C   0  0  0  0  0  3  0  0  0  0  0  0
  187.3570  178.2830  139.8190 C   0  0  0  0  0  0  0  0  0  0  0  0
  187.1520  178.0550  144.0460 C   0  0  0  0  0  0  0  0  0  0  0  0
  184.9630  178.8700  142.5240 N   0  0  0  0  0  0  0  0  0  0  0  0
  188.4750  177.8590  140.5490 C   0  0  0  0  0  3  0  0  0  0  0  0
  187.2510  178.1350  142.6340 C   0  0  0  0  0  0  0  0  0  0  0  0
  190.4070  176.8720  146.6250 C   0  0  0  0  0  0  0  0  0  0  0  0
  189.5190  177.2660  144.3920 C   0  0  0  0  0  3  0  0  0  0  0  0
  191.8180  176.5310  144.6120 N   0  0  0  0  0  1  0  0  0  0  0  0
  189.1630  177.2490  147.1520 C   0  0  0  0  0  3  0  0  0  0  0  0
  190.5790  176.8870  145.2200 C   0  0  0  0  0  0  0  0  0  0  0  0
  188.2750  177.6290  144.9240 C   0  0  0  0  0  0  0  0  0  0  0  0
  188.1120  177.6270  146.3160 C   0  0  0  0  0  3  0  0  0  0  0  0
  191.9410  175.1310  147.6570 N   0  0  0  0  0  1  0  0  0  0  0  0
  191.9960  177.3390  148.3330 O   0  0  0  0  0  0  0  0  0  0  0  0
  191.4780  176.4760  147.5740 C   0  0  0  0  0  0  0  0  0  0  0  0
  187.3800  178.3630  138.4250 O   0  0  0  0  0  0  0  0  0  0  0  0
  186.8840  177.3230  137.5840 C   0  0  2  0  0  3  0  0  0  0  0  0
  187.9230  176.6290  136.8660 C   0  0  1  0  0  3  0  0  0  0  0  0
  187.1230  177.7000  136.1190 C   0  0  0  0  0  0  0  0  0  0  0  0
  186.8840  178.3700  135.1290 O   0  0  0  0  0  0  0  0  0  0  0  0
  191.5320  176.8460  137.9710 O   0  0  0  0  0  1  0  0  0  0  0  0
  190.2790  176.3100  137.7140 C   0  0  0  0  0  0  0  0  0  0  0  0
  189.2570  177.1390  137.1610 N   0  0  0  0  0  2  0  0  0  0  0  0
  190.0540  175.0970  137.9670 O   0  0  0  0  0  0  0  0  0  0  0  0
  183.5420  179.1090  144.5270 C   0  0  0  0  0  2  0  0  0  0  0  0
  182.4130  178.8250  143.5950 C   0  0  0  0  0  0  0  0  0  0  0  0
  181.1300  178.5880  144.1010 C   0  0  0  0  0  3  0  0  0  0  0  0
  181.5910  178.4630  141.3380 C   0  0  0  0  0  0  0  0  0  0  0  0
  180.0760  178.3050  143.2280 C   0  0  0  0  0  3  0  0  0  0  0  0
  182.6410  178.7670  142.2160 C   0  0  0  0  0  3  0  0  0  0  0  0
  180.3040  178.2470  141.8500 C   0  0  0  0  0  3  0  0  0  0  0  0
  181.8230  178.4380  139.8590 C   0  0  2  0  0  3  0  0  0  0  0  0
  182.7950  179.4590  139.4700 C   0  0  0  0  0  2  0  0  0  0  0  0
  181.3630  179.7010  139.2550 N   0  0  0  0  0  2  0  0  0  0  0  0
  2  8  2  0  0  0  0
  2 10  1  0  0  0  0
  3 10  1  0  0  0  0
  4 30  1  0  0  0  0
  4  1  2  0  0  0  0
  5  2  1  0  0  0  0
  6  5  2  0  0  0  0
  6  9  1  0  0  0  0
  7  1  1  0  0  0  0
  7 16  1  0  0  0  0
  8  4  1  0  0  0  0
  9  3  2  0  0  0  0
 10  7  2  0  0  0  0
 11 14  1  0  0  0  0
 11 20  1  0  0  0  0
 12 16  2  0  0  0  0
 12 15  1  0  0  0  0
 13 15  1  0  0  0  0
 15 11  2  0  0  0  0
 16 17  1  0  0  0  0
 17 14  2  0  0  0  0
 20 18  1  0  0  0  0
 20 19  2  0  0  0  0
 21  6  1  0  0  0  0
 22 21  1  1  0  0  0
 23 28  1  1  0  0  0
 23 22  1  0  0  0  0
 24 23  1  0  0  0  0
 24 22  1  0  0  0  0
 25 24  2  0  0  0  0
 27 29  2  0  0  0  0
 27 26  1  0  0  0  0
 28 27  1  0  0  0  0
 31 32  1  0  0  0  0
 31 30  1  0  0  0  0
 33 36  2  0  0  0  0
 33 35  1  0  0  0  0
 34 32  2  0  0  0  0
 35 31  2  0  0  0  0
 36 34  1  0  0  0  0
 37 33  1  1  0  0  0
 38 37  1  0  0  0  0
 39 38  1  0  0  0  0
 39 37  1  0  0  0  0
M  END
>  <MODEL>
4

>  <REMARK>
 VINA RESULT:      -9.4      3.010      7.491
  Name = 
  8 active torsions:
  status: ('A' for Active; 'I' for Inactive)
    1  A    between atoms: C_3  and  C_37
    2  A    between atoms: O_5  and  C_7
    3  A    between atoms: O_5  and  C_30
    4  A    between atoms: C_6  and  C_8
    5  A    between atoms: C_11  and  N_25
    6  A    between atoms: C_16  and  C_19
    7  A    between atoms: C_24  and  C_37
    8  A    between atoms: C_29  and  C_31
                            x       y       z     vdW  Elec       q    Type
                         _______ _______ _______ _____ _____    ______ ____

>  <TORSDO>
F 8

$$$$
=
 OpenBabel10232412103D

 39 44  0  0  1  0  0  0  0  0999 V2000
  188.9560  178.0690  141.0560 C   0  0  0  0  0  3  0  0  0  0  0  0
  186.2300  178.5440  140.9100 C   0  0  0  0  0  0  0  0  0  0  0  0
  185.9880  178.2300  143.3030 C   0  0  0  0  0  3  0  0  0  0  0  0
  188.3390  178.3660  139.8410 C   0  0  0  0  0  0  0  0  0  0  0  0
  184.8620  178.8110  140.8120 C   0  0  0  0  0  3  0  0  0  0  0  0
  184.0510  178.7870  141.9500 C   0  0  0  0  0  0  0  0  0  0  0  0
  188.2030  177.9900  142.2360 C   0  0  0  0  0  0  0  0  0  0  0  0
  187.0020  178.5970  139.7950 N   0  0  0  0  0  0  0  0  0  0  0  0
  184.6210  178.4970  143.1970 C   0  0  0  0  0  3  0  0  0  0  0  0
  186.8100  178.2400  142.1660 C   0  0  0  0  0  0  0  0  0  0  0  0
  190.2870  176.9800  145.8810 C   0  0  0  0  0  0  0  0  0  0  0  0
  188.2420  177.6270  144.7280 C   0  0  0  0  0  3  0  0  0  0  0  0
  188.1610  177.2800  147.1250 N   0  0  0  0  0  1  0  0  0  0  0  0
  190.9520  177.0030  144.6460 C   0  0  0  0  0  3  0  0  0  0  0  0
  188.9080  177.2960  145.9110 C   0  0  0  0  0  0  0  0  0  0  0  0
  188.9150  177.6600  143.5000 C   0  0  0  0  0  0  0  0  0  0  0  0
  190.2770  177.3340  143.4710 C   0  0  0  0  0  3  0  0  0  0  0  0
  191.9820  175.5310  147.0970 N   0  0  0  0  0  1  0  0  0  0  0  0
  190.9310  177.2990  148.1480 O   0  0  0  0  0  0  0  0  0  0  0  0
  191.0700  176.6260  147.0920 C   0  0  0  0  0  0  0  0  0  0  0  0
  182.6890  179.0650  141.8140 O   0  0  0  0  0  0  0  0  0  0  0  0
  181.7140  178.6260  142.7580 C   0  0  2  0  0  3  0  0  0  0  0  0
  180.4920  178.1730  142.1430 C   0  0  1  0  0  3  0  0  0  0  0  0
  180.5200  179.5850  142.7350 C   0  0  0  0  0  0  0  0  0  0  0  0
  180.0020  180.6640  142.9710 O   0  0  0  0  0  0  0  0  0  0  0  0
  180.4770  177.2330  138.4810 O   0  0  0  0  0  0  0  0  0  0  0  0
  180.4490  177.0950  139.8610 C   0  0  0  0  0  0  0  0  0  0  0  0
  180.5220  178.2560  140.6880 N   0  0  0  0  0  2  0  0  0  0  0  0
  180.3560  175.9480  140.3720 O   0  0  0  0  0  1  0  0  0  0  0  0
  189.1570  178.4770  138.5990 C   0  0  0  0  0  2  0  0  0  0  0  0
  189.4920  177.1230  138.0730 C   0  0  0  0  0  0  0  0  0  0  0  0
  188.4870  176.3110  137.5370 C   0  0  0  0  0  3  0  0  0  0  0  0
  191.1210  175.3640  137.6840 C   0  0  0  0  0  0  0  0  0  0  0  0
  188.7990  175.0350  137.0600 C   0  0  0  0  0  3  0  0  0  0  0  0
  190.8070  176.6510  138.1420 C   0  0  0  0  0  3  0  0  0  0  0  0
  190.1130  174.5640  137.1290 C   0  0  0  0  0  3  0  0  0  0  0  0
  192.5350  174.8700  137.7210 C   0  0  2  0  0  3  0  0  0  0  0  0
  193.4610  175.9700  137.9880 C   0  0  0  0  0  2  0  0  0  0  0  0
  193.3060  175.4680  136.6170 N   0  0  0  0  0  2  0  0  0  0  0  0
  1  7  1  0  0  0  0
  2 10  1  0  0  0  0
  4  1  2  0  0  0  0
  5  2  1  0  0  0  0
  5  6  2  0  0  0  0
  6  9  1  0  0  0  0
  7 16  1  0  0  0  0
  8  4  1  0  0  0  0
  8  2  2  0  0  0  0
  9  3  2  0  0  0  0
 10  7  2  0  0  0  0
 10  3  1  0  0  0  0
 11 15  1  0  0  0  0
 11 20  1  0  0  0  0
 12 15  2  0  0  0  0
 14 11  2  0  0  0  0
 15 13  1  0  0  0  0
 16 12  1  0  0  0  0
 17 16  2  0  0  0  0
 17 14  1  0  0  0  0
 20 18  1  0  0  0  0
 20 19  2  0  0  0  0
 21  6  1  0  0  0  0
 22 21  1  6  0  0  0
 23 28  1  6  0  0  0
 23 24  1  0  0  0  0
 23 22  1  0  0  0  0
 24 22  1  0  0  0  0
 24 25  2  0  0  0  0
 26 27  2  0  0  0  0
 27 29  1  0  0  0  0
 27 28  1  0  0  0  0
 30  4  1  0  0  0  0
 31 35  1  0  0  0  0
 31 30  1  0  0  0  0
 32 31  2  0  0  0  0
 33 35  2  0  0  0  0
 34 36  2  0  0  0  0
 34 32  1  0  0  0  0
 36 33  1  0  0  0  0
 37 33  1  6  0  0  0
 37 38  1  0  0  0  0
 39 37  1  0  0  0  0
 39 38  1  0  0  0  0
M  END
>  <MODEL>
5

>  <REMARK>
 VINA RESULT:      -9.3      4.369      9.741
  Name = 
  8 active torsions:
  status: ('A' for Active; 'I' for Inactive)
    1  A    between atoms: C_3  and  C_37
    2  A    between atoms: O_5  and  C_7
    3  A    between atoms: O_5  and  C_30
    4  A    between atoms: C_6  and  C_8
    5  A    between atoms: C_11  and  N_25
    6  A    between atoms: C_16  and  C_19
    7  A    between atoms: C_24  and  C_37
    8  A    between atoms: C_29  and  C_31
                            x       y       z     vdW  Elec       q    Type
                         _______ _______ _______ _____ _____    ______ ____

>  <TORSDO>
F 8

$$$$
=
 OpenBabel10232412103D

 39 44  0  0  1  0  0  0  0  0999 V2000
  189.2660  177.8590  141.3820 C   0  0  0  0  0  3  0  0  0  0  0  0
  186.5960  178.5980  141.3360 C   0  0  0  0  0  0  0  0  0  0  0  0
  186.4430  178.4110  143.7500 C   0  0  0  0  0  3  0  0  0  0  0  0
  188.6220  178.1650  140.1830 C   0  0  0  0  0  0  0  0  0  0  0  0
  185.2580  178.9970  141.2880 C   0  0  0  0  0  3  0  0  0  0  0  0
  184.5060  179.1020  142.4610 C   0  0  0  0  0  0  0  0  0  0  0  0
  188.5690  177.9050  142.5970 C   0  0  0  0  0  0  0  0  0  0  0  0
  187.3130  178.5260  140.1870 N   0  0  0  0  0  0  0  0  0  0  0  0
  185.1050  178.8080  143.6940 C   0  0  0  0  0  3  0  0  0  0  0  0
  187.2050  178.2910  142.5780 C   0  0  0  0  0  0  0  0  0  0  0  0
  190.7320  176.8520  146.1830 C   0  0  0  0  0  0  0  0  0  0  0  0
  188.6390  177.3930  145.0620 C   0  0  0  0  0  3  0  0  0  0  0  0
  188.5880  176.8920  147.4330 N   0  0  0  0  0  1  0  0  0  0  0  0
  191.3920  177.0080  144.9550 C   0  0  0  0  0  3  0  0  0  0  0  0
  189.3310  177.0470  146.2260 C   0  0  0  0  0  0  0  0  0  0  0  0
  189.3060  177.5600  143.8420 C   0  0  0  0  0  0  0  0  0  0  0  0
  190.6910  177.3530  143.7990 C   0  0  0  0  0  3  0  0  0  0  0  0
  191.9740  175.1530  147.6040 N   0  0  0  0  0  1  0  0  0  0  0  0
  191.8600  177.3790  148.2100 O   0  0  0  0  0  0  0  0  0  0  0  0
  191.5430  176.4910  147.3730 C   0  0  0  0  0  0  0  0  0  0  0  0
  183.1720  179.5090  142.3740 O   0  0  0  0  0  0  0  0  0  0  0  0
  182.0960  178.7470  142.9160 C   0  0  2  0  0  3  0  0  0  0  0  0
  181.1400  178.3280  141.9210 C   0  0  1  0  0  3  0  0  0  0  0  0
  180.7950  179.5440  142.7840 C   0  0  0  0  0  0  0  0  0  0  0  0
  180.0630  180.4680  143.1000 O   0  0  0  0  0  0  0  0  0  0  0  0
  182.4200  178.3750  138.3640 O   0  0  0  0  0  0  0  0  0  0  0  0
  182.1160  177.9030  139.6330 C   0  0  0  0  0  0  0  0  0  0  0  0
  181.4870  178.7700  140.5760 N   0  0  0  0  0  2  0  0  0  0  0  0
  182.3940  176.7140  139.9400 O   0  0  0  0  0  1  0  0  0  0  0  0
  189.3840  178.1410  138.9020 C   0  0  0  0  0  2  0  0  0  0  0  0
  188.5200  177.6510  137.7910 C   0  0  0  0  0  0  0  0  0  0  0  0
  187.9830  178.5550  136.8690 C   0  0  0  0  0  3  0  0  0  0  0  0
  187.3790  175.8250  136.6660 C   0  0  0  0  0  0  0  0  0  0  0  0
  187.1590  178.0960  135.8380 C   0  0  0  0  0  3  0  0  0  0  0  0
  188.2220  176.2880  137.6860 C   0  0  0  0  0  3  0  0  0  0  0  0
  186.8610  176.7350  135.7330 C   0  0  0  0  0  3  0  0  0  0  0  0
  187.0890  174.3630  136.5260 C   0  0  2  0  0  3  0  0  0  0  0  0
  185.8070  174.1510  135.8520 C   0  0  0  0  0  2  0  0  0  0  0  0
  185.8930  174.0090  137.3120 N   0  0  0  0  0  2  0  0  0  0  0  0
  1  7  1  0  0  0  0
  2 10  1  0  0  0  0
  4  8  1  0  0  0  0
  4  1  2  0  0  0  0
  5  2  1  0  0  0  0
  5  6  2  0  0  0  0
  6  9  1  0  0  0  0
  7 16  1  0  0  0  0
  8  2  2  0  0  0  0
  9  3  2  0  0  0  0
 10  7  2  0  0  0  0
 10  3  1  0  0  0  0
 11 15  1  0  0  0  0
 11 20  1  0  0  0  0
 12 15  2  0  0  0  0
 14 11  2  0  0  0  0
 15 13  1  0  0  0  0
 16 12  1  0  0  0  0
 17 16  2  0  0  0  0
 17 14  1  0  0  0  0
 20 18  1  0  0  0  0
 20 19  2  0  0  0  0
 21  6  1  0  0  0  0
 22 21  1  6  0  0  0
 23 28  1  6  0  0  0
 23 24  1  0  0  0  0
 23 22  1  0  0  0  0
 24 22  1  0  0  0  0
 24 25  2  0  0  0  0
 26 27  2  0  0  0  0
 27 29  1  0  0  0  0
 27 28  1  0  0  0  0
 30  4  1  0  0  0  0
 31 30  1  0  0  0  0
 32 31  2  0  0  0  0
 33 35  2  0  0  0  0
 34 32  1  0  0  0  0
 35 31  1  0  0  0  0
 36 34  2  0  0  0  0
 36 33  1  0  0  0  0
 37 33  1  1  0  0  0
 37 39  1  0  0  0  0
 38 37  1  0  0  0  0
 38 39  1  0  0  0  0
M  END
>  <MODEL>
6

>  <REMARK>
 VINA RESULT:      -9.3      4.676      9.720
  Name = 
  8 active torsions:
  status: ('A' for Active; 'I' for Inactive)
    1  A    between atoms: C_3  and  C_37
    2  A    between atoms: O_5  and  C_7
    3  A    between atoms: O_5  and  C_30
    4  A    between atoms: C_6  and  C_8
    5  A    between atoms: C_11  and  N_25
    6  A    between atoms: C_16  and  C_19
    7  A    between atoms: C_24  and  C_37
    8  A    between atoms: C_29  and  C_31
                            x       y       z     vdW  Elec       q    Type
                         _______ _______ _______ _____ _____    ______ ____

>  <TORSDO>
F 8

$$$$
=
 OpenBabel10232412103D

 39 44  0  0  1  0  0  0  0  0999 V2000
  189.2060  177.8980  141.1560 C   0  0  0  0  0  3  0  0  0  0  0  0
  186.5020  178.4750  140.9760 C   0  0  0  0  0  0  0  0  0  0  0  0
  186.2340  178.2470  143.3760 C   0  0  0  0  0  3  0  0  0  0  0  0
  188.6080  178.1800  139.9280 C   0  0  0  0  0  0  0  0  0  0  0  0
  185.1460  178.7930  140.8600 C   0  0  0  0  0  3  0  0  0  0  0  0
  184.3280  178.8370  141.9920 C   0  0  0  0  0  0  0  0  0  0  0  0
  188.4440  177.8860  142.3320 C   0  0  0  0  0  0  0  0  0  0  0  0
  187.2810  178.4620  139.8650 N   0  0  0  0  0  0  0  0  0  0  0  0
  184.8790  178.5640  143.2520 C   0  0  0  0  0  3  0  0  0  0  0  0
  187.0620  178.1890  142.2450 C   0  0  0  0  0  0  0  0  0  0  0  0
  190.4660  176.9130  146.0220 C   0  0  0  0  0  0  0  0  0  0  0  0
  188.4480  177.5780  144.8320 C   0  0  0  0  0  3  0  0  0  0  0  0
  188.3340  177.2860  147.2360 N   0  0  0  0  0  1  0  0  0  0  0  0
  191.1450  176.8940  144.7950 C   0  0  0  0  0  3  0  0  0  0  0  0
  189.0940  177.2590  146.0300 C   0  0  0  0  0  0  0  0  0  0  0  0
  189.1350  177.5700  143.6110 C   0  0  0  0  0  0  0  0  0  0  0  0
  190.4900  177.2130  143.6050 C   0  0  0  0  0  3  0  0  0  0  0  0
  191.6120  177.5640  148.1920 N   0  0  0  0  0  1  0  0  0  0  0  0
  191.5520  175.3710  147.4710 O   0  0  0  0  0  0  0  0  0  0  0  0
  191.2280  176.5680  147.2490 C   0  0  0  0  0  0  0  0  0  0  0  0
  182.9790  179.1640  141.8380 O   0  0  0  0  0  0  0  0  0  0  0  0
  181.9530  178.6170  142.6650 C   0  0  2  0  0  3  0  0  0  0  0  0
  180.7830  178.2150  141.9260 C   0  0  1  0  0  3  0  0  0  0  0  0
  180.7450  179.5580  142.6600 C   0  0  0  0  0  0  0  0  0  0  0  0
  180.1920  180.6000  142.9700 O   0  0  0  0  0  0  0  0  0  0  0  0
  181.2380  177.6630  138.2140 O   0  0  0  0  0  0  0  0  0  0  0  0
  181.1330  177.3850  139.5690 C   0  0  0  0  0  0  0  0  0  0  0  0
  180.9060  178.4490  140.4930 N   0  0  0  0  0  2  0  0  0  0  0  0
  181.2370  176.1960  139.9720 O   0  0  0  0  0  1  0  0  0  0  0  0
  189.4370  178.2200  138.6890 C   0  0  0  0  0  2  0  0  0  0  0  0
  189.6200  176.8450  138.1410 C   0  0  0  0  0  0  0  0  0  0  0  0
  190.8600  176.2060  138.2510 C   0  0  0  0  0  3  0  0  0  0  0  0
  188.7370  174.9260  136.9420 C   0  0  0  0  0  0  0  0  0  0  0  0
  191.0350  174.9250  137.7230 C   0  0  0  0  0  3  0  0  0  0  0  0
  188.5600  176.2030  137.4920 C   0  0  0  0  0  3  0  0  0  0  0  0
  189.9760  174.2840  137.0750 C   0  0  0  0  0  3  0  0  0  0  0  0
  187.5940  174.2200  136.2810 C   0  0  2  0  0  3  0  0  0  0  0  0
  186.3370  174.5110  136.9710 C   0  0  0  0  0  2  0  0  0  0  0  0
  187.0130  173.2270  137.2020 N   0  0  0  0  0  2  0  0  0  0  0  0
  1  7  1  0  0  0  0
  2 10  1  0  0  0  0
  4  1  2  0  0  0  0
  5  2  1  0  0  0  0
  5  6  2  0  0  0  0
  6  9  1  0  0  0  0
  7 16  1  0  0  0  0
  8  4  1  0  0  0  0
  8  2  2  0  0  0  0
  9  3  2  0  0  0  0
 10  7  2  0  0  0  0
 10  3  1  0  0  0  0
 11 15  1  0  0  0  0
 11 20  1  0  0  0  0
 12 15  2  0  0  0  0
 14 11  2  0  0  0  0
 15 13  1  0  0  0  0
 16 12  1  0  0  0  0
 17 16  2  0  0  0  0
 17 14  1  0  0  0  0
 20 19  2  0  0  0  0
 20 18  1  0  0  0  0
 21  6  1  0  0  0  0
 22 21  1  6  0  0  0
 23 28  1  6  0  0  0
 23 24  1  0  0  0  0
 23 22  1  0  0  0  0
 24 22  1  0  0  0  0
 24 25  2  0  0  0  0
 26 27  2  0  0  0  0
 27 29  1  0  0  0  0
 27 28  1  0  0  0  0
 30  4  1  0  0  0  0
 31 32  1  0  0  0  0
 31 30  1  0  0  0  0
 33 36  2  0  0  0  0
 33 35  1  0  0  0  0
 34 32  2  0  0  0  0
 35 31  2  0  0  0  0
 36 34  1  0  0  0  0
 37 33  1  1  0  0  0
 37 38  1  0  0  0  0
 37 39  1  0  0  0  0
 38 39  1  0  0  0  0
M  END
>  <MODEL>
7

>  <REMARK>
 VINA RESULT:      -9.2      4.424      9.544
  Name = 
  8 active torsions:
  status: ('A' for Active; 'I' for Inactive)
    1  A    between atoms: C_3  and  C_37
    2  A    between atoms: O_5  and  C_7
    3  A    between atoms: O_5  and  C_30
    4  A    between atoms: C_6  and  C_8
    5  A    between atoms: C_11  and  N_25
    6  A    between atoms: C_16  and  C_19
    7  A    between atoms: C_24  and  C_37
    8  A    between atoms: C_29  and  C_31
                            x       y       z     vdW  Elec       q    Type
                         _______ _______ _______ _____ _____    ______ ____

>  <TORSDO>
F 8

$$$$
=
 OpenBabel10232412103D

 39 44  0  0  1  0  0  0  0  0999 V2000
  188.2190  177.9060  140.1050 C   0  0  0  0  0  3  0  0  0  0  0  0
  189.2510  177.6780  142.6670 C   0  0  0  0  0  0  0  0  0  0  0  0
  191.2900  176.6730  141.8180 C   0  0  0  0  0  3  0  0  0  0  0  0
  187.5020  178.3510  141.2150 C   0  0  0  0  0  0  0  0  0  0  0  0
  189.7590  177.5970  143.9660 C   0  0  0  0  0  3  0  0  0  0  0  0
  191.0250  177.0550  144.2010 C   0  0  0  0  0  0  0  0  0  0  0  0
  189.4810  177.3160  140.2630 C   0  0  0  0  0  0  0  0  0  0  0  0
  188.0290  178.2310  142.4600 N   0  0  0  0  0  0  0  0  0  0  0  0
  191.7900  176.5940  143.1210 C   0  0  0  0  0  3  0  0  0  0  0  0
  190.0150  177.2050  141.5710 C   0  0  0  0  0  0  0  0  0  0  0  0
  191.5320  175.9120  136.7320 C   0  0  0  0  0  0  0  0  0  0  0  0
  191.5830  176.9910  138.9140 C   0  0  0  0  0  3  0  0  0  0  0  0
  193.6690  176.7080  137.7120 N   0  0  0  0  0  1  0  0  0  0  0  0
  190.1440  175.7640  136.8730 C   0  0  0  0  0  3  0  0  0  0  0  0
  192.2550  176.5350  137.7770 C   0  0  0  0  0  0  0  0  0  0  0  0
  190.1950  176.8520  139.0440 C   0  0  0  0  0  0  0  0  0  0  0  0
  189.4840  176.2230  138.0140 C   0  0  0  0  0  3  0  0  0  0  0  0
  192.3000  174.0110  135.2330 N   0  0  0  0  0  1  0  0  0  0  0  0
  192.6060  176.2200  134.6320 O   0  0  0  0  0  0  0  0  0  0  0  0
  192.1670  175.4060  135.4890 C   0  0  0  0  0  0  0  0  0  0  0  0
  191.5010  176.9960  145.5130 O   0  0  0  0  0  0  0  0  0  0  0  0
  191.4420  175.8100  146.3030 C   0  0  2  0  0  3  0  0  0  0  0  0
  190.7460  175.9930  147.5520 C   0  0  1  0  0  3  0  0  0  0  0  0
  192.2770  176.0060  147.5710 C   0  0  0  0  0  0  0  0  0  0  0  0
  193.3450  176.1230  148.1490 O   0  0  0  0  0  0  0  0  0  0  0  0
  188.4570  178.9340  148.1880 O   0  0  0  0  0  1  0  0  0  0  0  0
  188.8770  177.6220  148.0210 C   0  0  0  0  0  0  0  0  0  0  0  0
  190.2480  177.3510  147.7320 N   0  0  0  0  0  2  0  0  0  0  0  0
  188.0450  176.6830  148.1290 O   0  0  0  0  0  0  0  0  0  0  0  0
  186.1740  179.0050  141.0290 C   0  0  0  0  0  2  0  0  0  0  0  0
  185.3330  178.8300  142.2470 C   0  0  0  0  0  0  0  0  0  0  0  0
  183.9390  178.8790  142.1490 C   0  0  0  0  0  3  0  0  0  0  0  0
  185.1540  178.5170  144.6490 C   0  0  0  0  0  0  0  0  0  0  0  0
  183.1520  178.7330  143.2950 C   0  0  0  0  0  3  0  0  0  0  0  0
  185.9390  178.6440  143.4950 C   0  0  0  0  0  3  0  0  0  0  0  0
  183.7570  178.5470  144.5410 C   0  0  0  0  0  3  0  0  0  0  0  0
  185.7970  178.2800  145.9810 C   0  0  2  0  0  3  0  0  0  0  0  0
  184.7890  178.2230  147.0400 C   0  0  0  0  0  2  0  0  0  0  0  0
  185.5840  179.4450  146.8590 N   0  0  0  0  0  2  0  0  0  0  0  0
  1  7  2  0  0  0  0
  1  4  1  0  0  0  0
  2  5  1  0  0  0  0
  3  9  2  0  0  0  0
  4  8  2  0  0  0  0
  5  6  2  0  0  0  0
  6 21  1  0  0  0  0
  7 10  1  0  0  0  0
  8  2  1  0  0  0  0
  9  6  1  0  0  0  0
 10  3  1  0  0  0  0
 10  2  2  0  0  0  0
 11 14  2  0  0  0  0
 11 15  1  0  0  0  0
 12 16  1  0  0  0  0
 13 15  1  0  0  0  0
 14 17  1  0  0  0  0
 15 12  2  0  0  0  0
 16  7  1  0  0  0  0
 17 16  2  0  0  0  0
 18 20  1  0  0  0  0
 19 20  2  0  0  0  0
 20 11  1  0  0  0  0
 22 21  1  6  0  0  0
 22 23  1  0  0  0  0
 22 24  1  0  0  0  0
 23 24  1  0  0  0  0
 23 28  1  6  0  0  0
 24 25  2  0  0  0  0
 27 29  2  0  0  0  0
 27 26  1  0  0  0  0
 28 27  1  0  0  0  0
 30  4  1  0  0  0  0
 30 31  1  0  0  0  0
 31 35  1  0  0  0  0
 32 31  2  0  0  0  0
 32 34  1  0  0  0  0
 34 36  2  0  0  0  0
 35 33  2  0  0  0  0
 36 33  1  0  0  0  0
 37 33  1  6  0  0  0
 37 39  1  0  0  0  0
 37 38  1  0  0  0  0
 39 38  1  0  0  0  0
M  END
>  <MODEL>
8

>  <REMARK>
 VINA RESULT:      -9.0      3.393      8.460
  Name = 
  8 active torsions:
  status: ('A' for Active; 'I' for Inactive)
    1  A    between atoms: C_3  and  C_37
    2  A    between atoms: O_5  and  C_7
    3  A    between atoms: O_5  and  C_30
    4  A    between atoms: C_6  and  C_8
    5  A    between atoms: C_11  and  N_25
    6  A    between atoms: C_16  and  C_19
    7  A    between atoms: C_24  and  C_37
    8  A    between atoms: C_29  and  C_31
                            x       y       z     vdW  Elec       q    Type
                         _______ _______ _______ _____ _____    ______ ____

>  <TORSDO>
F 8

$$$$
=
 OpenBabel10232412103D

 39 44  0  0  1  0  0  0  0  0999 V2000
  190.6560  176.9170  142.5390 C   0  0  0  0  0  3  0  0  0  0  0  0
  188.0890  177.9140  142.2330 C   0  0  0  0  0  0  0  0  0  0  0  0
  188.3210  177.9310  139.8180 C   0  0  0  0  0  3  0  0  0  0  0  0
  189.8420  177.1650  143.6430 C   0  0  0  0  0  0  0  0  0  0  0  0
  186.7820  178.3930  142.1050 C   0  0  0  0  0  3  0  0  0  0  0  0
  186.2390  178.6470  140.8430 C   0  0  0  0  0  0  0  0  0  0  0  0
  190.1960  177.1810  141.2410 C   0  0  0  0  0  0  0  0  0  0  0  0
  188.5860  177.6520  143.4680 N   0  0  0  0  0  0  0  0  0  0  0  0
  187.0140  178.4120  139.6990 C   0  0  0  0  0  3  0  0  0  0  0  0
  188.8810  177.6840  141.0810 C   0  0  0  0  0  0  0  0  0  0  0  0
  192.8730  176.4400  137.9340 C   0  0  0  0  0  0  0  0  0  0  0  0
  190.6510  176.3050  138.9240 C   0  0  0  0  0  3  0  0  0  0  0  0
  190.9730  175.4530  136.6780 N   0  0  0  0  0  1  0  0  0  0  0  0
  193.3250  177.0520  139.1120 C   0  0  0  0  0  3  0  0  0  0  0  0
  191.5100  176.0660  137.8480 C   0  0  0  0  0  0  0  0  0  0  0  0
  191.1130  176.9050  140.1030 C   0  0  0  0  0  0  0  0  0  0  0  0
  192.4590  177.2860  140.1810 C   0  0  0  0  0  3  0  0  0  0  0  0
  194.1710  174.9050  136.3840 N   0  0  0  0  0  1  0  0  0  0  0  0
  194.4220  177.1990  136.2980 O   0  0  0  0  0  0  0  0  0  0  0  0
  193.8510  176.2150  136.8410 C   0  0  0  0  0  0  0  0  0  0  0  0
  184.9280  179.1200  140.7550 O   0  0  0  0  0  0  0  0  0  0  0  0
  183.8240  178.2780  140.4290 C   0  0  2  0  0  3  0  0  0  0  0  0
  182.8720  178.9060  139.5480 C   0  0  1  0  0  3  0  0  0  0  0  0
  182.5470  178.8580  141.0430 C   0  0  0  0  0  0  0  0  0  0  0  0
  181.8360  179.1190  141.9990 O   0  0  0  0  0  0  0  0  0  0  0  0
  182.6950  182.5250  138.4700 O   0  0  0  0  0  0  0  0  0  0  0  0
  182.2810  181.2460  138.8100 C   0  0  0  0  0  0  0  0  0  0  0  0
  183.2490  180.2640  139.1770 N   0  0  0  0  0  2  0  0  0  0  0  0
  181.0540  180.9630  138.7950 O   0  0  0  0  0  1  0  0  0  0  0  0
  190.3330  176.8500  145.0150 C   0  0  0  0  0  2  0  0  0  0  0  0
  189.3570  177.3230  146.0390 C   0  0  0  0  0  0  0  0  0  0  0  0
  189.7980  177.6720  147.3190 C   0  0  0  0  0  3  0  0  0  0  0  0
  187.0680  177.7980  146.6970 C   0  0  0  0  0  0  0  0  0  0  0  0
  188.8810  178.0990  148.2830 C   0  0  0  0  0  3  0  0  0  0  0  0
  187.9950  177.3900  145.7280 C   0  0  0  0  0  3  0  0  0  0  0  0
  187.5200  178.1670  147.9720 C   0  0  0  0  0  3  0  0  0  0  0  0
  185.6140  177.9080  146.3570 C   0  0  2  0  0  3  0  0  0  0  0  0
  185.4320  178.6010  145.0810 C   0  0  0  0  0  2  0  0  0  0  0  0
  185.2060  179.3250  146.3390 N   0  0  0  0  0  2  0  0  0  0  0  0
  1  4  1  0  0  0  0
  2  8  1  0  0  0  0
  3 10  1  0  0  0  0
  4 30  1  0  0  0  0
  5  2  1  0  0  0  0
  6  5  2  0  0  0  0
  7  1  2  0  0  0  0
  8  4  2  0  0  0  0
  9  3  2  0  0  0  0
  9  6  1  0  0  0  0
 10  7  1  0  0  0  0
 10  2  2  0  0  0  0
 11 14  1  0  0  0  0
 12 16  2  0  0  0  0
 13 15  1  0  0  0  0
 14 17  2  0  0  0  0
 15 11  2  0  0  0  0
 15 12  1  0  0  0  0
 16 17  1  0  0  0  0
 16  7  1  0  0  0  0
 18 20  1  0  0  0  0
 19 20  2  0  0  0  0
 20 11  1  0  0  0  0
 21  6  1  0  0  0  0
 22 21  1  1  0  0  0
 22 24  1  0  0  0  0
 23 28  1  1  0  0  0
 23 22  1  0  0  0  0
 23 24  1  0  0  0  0
 24 25  2  0  0  0  0
 26 27  2  0  0  0  0
 27 28  1  0  0  0  0
 29 27  1  0  0  0  0
 30 31  1  0  0  0  0
 31 32  1  0  0  0  0
 32 34  2  0  0  0  0
 33 36  2  0  0  0  0
 35 31  2  0  0  0  0
 35 33  1  0  0  0  0
 36 34  1  0  0  0  0
 37 33  1  1  0  0  0
 38 39  1  0  0  0  0
 38 37  1  0  0  0  0
 39 37  1  0  0  0  0
M  END
>  <MODEL>
9

>  <REMARK>
 VINA RESULT:      -9.0      1.984      8.018
  Name = 
  8 active torsions:
  status: ('A' for Active; 'I' for Inactive)
    1  A    between atoms: C_3  and  C_37
    2  A    between atoms: O_5  and  C_7
    3  A    between atoms: O_5  and  C_30
    4  A    between atoms: C_6  and  C_8
    5  A    between atoms: C_11  and  N_25
    6  A    between atoms: C_16  and  C_19
    7  A    between atoms: C_24  and  C_37
    8  A    between atoms: C_29  and  C_31
                            x       y       z     vdW  Elec       q    Type
                         _______ _______ _______ _____ _____    ______ ____

>  <TORSDO>
F 8

$$$$
