=
 OpenBabel10232411003D

 42 47  0  0  1  0  0  0  0  0999 V2000
  187.8430  176.2400  137.4420 N   0  0  0  0  0  2  0  0  0  0  0  0
  192.0830  176.2170  136.8710 C   0  0  0  0  0  0  0  0  0  0  0  0
  190.1150  176.4020  138.5400 C   0  0  2  0  0  3  0  0  0  0  0  0
  191.5920  176.3230  138.2560 C   0  0  0  0  0  0  0  0  0  0  0  0
  189.7970  176.1280  136.1140 N   0  0  0  0  0  0  0  0  0  0  0  0
  191.2110  176.1230  135.8700 C   0  0  0  0  0  3  0  0  0  0  0  0
  192.4040  176.3440  139.2200 O   0  0  0  0  0  0  0  0  0  0  0  0
  189.2660  176.2490  137.2990 C   0  0  0  0  0  0  0  0  0  0  0  0
  193.4920  176.2030  136.5820 C   0  0  0  0  0  0  0  0  0  0  0  0
  194.6250  176.1930  136.3500 N   0  0  0  0  0  0  0  0  0  0  0  0
  187.0190  176.0500  136.3820 O   0  0  0  0  0  0  0  0  0  0  0  0
  185.7390  177.3110  137.8610 C   0  0  2  0  0  3  0  0  0  0  0  0
  186.6660  178.2240  137.1750 N   0  0  0  0  0  2  0  0  0  0  0  0
  186.0800  177.0800  136.4620 C   0  0  1  0  0  3  0  0  0  0  0  0
  184.3540  177.9260  137.9330 C   0  0  0  0  0  2  0  0  0  0  0  0
  183.8630  177.9430  139.3700 C   0  0  0  0  0  2  0  0  0  0  0  0
  184.3600  179.1720  140.0570 C   0  0  0  0  0  0  0  0  0  0  0  0
  184.7120  180.1640  139.3650 O   0  0  0  0  0  0  0  0  0  0  0  0
  184.4700  179.2380  141.4800 N   0  0  0  0  0  2  0  0  0  0  0  0
  185.3770  177.7340  143.2030 C   0  0  0  0  0  2  0  0  0  0  0  0
  182.9840  178.4830  143.3030 C   0  0  2  0  0  3  0  0  0  0  0  0
  185.7580  178.8470  144.1800 C   0  0  0  0  0  2  0  0  0  0  0  0
  183.3760  179.6110  144.2560 C   0  0  0  0  0  2  0  0  0  0  0  0
  184.1490  178.1210  142.3690 C   0  0  1  0  0  3  0  0  0  0  0  0
  181.7440  178.8700  142.5170 C   0  0  0  0  0  1  0  0  0  0  0  0
  184.5800  179.1840  145.0900 C   0  0  0  0  0  2  0  0  0  0  0  0
  189.8160  177.6100  139.1830 O   0  0  0  0  0  0  0  0  0  0  0  0
  188.5020  178.8360  142.0330 C   0  0  0  0  0  2  0  0  0  0  0  0
  189.4870  177.9600  142.6460 N   0  0  0  0  0  0  0  0  0  0  0  0
  188.0930  178.2040  140.7200 C   0  0  0  0  0  2  0  0  0  0  0  0
  189.2030  177.2360  140.3830 C   0  0  2  0  0  3  0  0  0  0  0  0
  190.1920  177.3530  141.5250 C   0  0  0  0  0  2  0  0  0  0  0  0
  190.4360  178.8070  143.3550 C   0  0  0  0  0  2  0  0  0  0  0  0
  191.6180  177.1040  144.7780 C   0  0  0  0  0  2  0  0  0  0  0  0
  190.8470  176.8690  147.1840 C   0  0  0  0  0  2  0  0  0  0  0  0
  188.3350  176.5750  147.3030 C   0  0  0  0  0  2  0  0  0  0  0  0
  187.9100  177.6440  148.2950 C   0  0  0  0  0  2  0  0  0  0  0  0
  189.2970  177.9150  145.3880 C   0  0  0  0  0  2  0  0  0  0  0  0
  191.4400  176.1530  145.9730 C   0  0  0  0  0  2  0  0  0  0  0  0
  190.6420  178.2950  144.7710 C   0  0  2  0  0  3  0  0  0  0  0  0
  189.4730  177.4620  146.8440 C   0  0  0  0  0  0  0  0  0  0  0  0
  189.0560  178.5300  147.8330 C   0  0  0  0  0  2  0  0  0  0  0  0
  2  4  1  0  0  0  0
  3 27  1  6  0  0  0
  4  3  1  0  0  0  0
  4  7  2  0  0  0  0
  5  8  2  0  0  0  0
  6  5  1  0  0  0  0
  6  2  2  0  0  0  0
  8  1  1  0  0  0  0
  8  3  1  0  0  0  0
  9  2  1  0  0  0  0
 10  9  3  0  0  0  0
 11  1  1  0  0  0  0
 12 15  1  6  0  0  0
 13 12  1  0  0  0  0
 14 11  1  1  0  0  0
 14 13  1  0  0  0  0
 14 12  1  0  0  0  0
 15 16  1  0  0  0  0
 16 17  1  0  0  0  0
 17 19  1  0  0  0  0
 18 17  2  0  0  0  0
 20 22  1  0  0  0  0
 21 25  1  6  0  0  0
 21 23  1  0  0  0  0
 22 26  1  0  0  0  0
 23 26  1  0  0  0  0
 24 19  1  1  0  0  0
 24 20  1  0  0  0  0
 24 21  1  0  0  0  0
 28 29  1  0  0  0  0
 29 33  1  0  0  0  0
 30 28  1  0  0  0  0
 31 27  1  6  0  0  0
 31 30  1  0  0  0  0
 31 32  1  0  0  0  0
 32 29  1  0  0  0  0
 34 39  1  0  0  0  0
 36 37  1  0  0  0  0
 38 41  1  0  0  0  0
 39 35  1  0  0  0  0
 40 33  1  6  0  0  0
 40 34  1  0  0  0  0
 40 38  1  0  0  0  0
 41 35  1  0  0  0  0
 41 36  1  0  0  0  0
 41 42  1  0  0  0  0
 42 37  1  0  0  0  0
M  END
>  <MODEL>
1

>  <REMARK>
 VINA RESULT:      -8.9      0.000      0.000
  Name = 
  11 active torsions:
  status: ('A' for Active; 'I' for Inactive)
    1  A    between atoms: C_3  and  C_10
    2  A    between atoms: C_3  and  C_15
    3  A    between atoms: O_4  and  N_7
    4  A    between atoms: O_4  and  C_37
    5  A    between atoms: C_5  and  N_21
    6  A    between atoms: C_5  and  C_31
    7  A    between atoms: O_6  and  C_12
    8  A    between atoms: O_6  and  C_26
    9  A    between atoms: C_9  and  C_22
   10  A    between atoms: C_15  and  C_17
   11  A    between atoms: C_24  and  N_28
                            x       y       z     vdW  Elec       q    Type
                         _______ _______ _______ _____ _____    ______ ____

>  <TORSDO>
F 11

$$$$
=
 OpenBabel10232411003D

 42 47  0  0  1  0  0  0  0  0999 V2000
  187.0020  178.2130  145.2160 N   0  0  0  0  0  2  0  0  0  0  0  0
  190.7120  176.7600  146.7750 C   0  0  0  0  0  0  0  0  0  0  0  0
  189.4550  177.8020  144.7670 C   0  0  2  0  0  3  0  0  0  0  0  0
  190.7290  177.3270  145.4140 C   0  0  0  0  0  0  0  0  0  0  0  0
  188.3520  177.2390  146.8950 N   0  0  0  0  0  0  0  0  0  0  0  0
  189.5710  176.7320  147.4600 C   0  0  0  0  0  3  0  0  0  0  0  0
  191.8140  177.4240  144.7790 O   0  0  0  0  0  0  0  0  0  0  0  0
  188.2610  177.7290  145.6890 C   0  0  0  0  0  0  0  0  0  0  0  0
  191.9100  176.2460  147.3800 C   0  0  0  0  0  0  0  0  0  0  0  0
  192.8740  175.8330  147.8680 N   0  0  0  0  0  0  0  0  0  0  0  0
  185.9000  178.2340  146.0070 O   0  0  0  0  0  0  0  0  0  0  0  0
  184.0030  178.3750  144.6650 C   0  0  2  0  0  3  0  0  0  0  0  0
  183.6820  178.9830  145.9650 N   0  0  0  0  0  2  0  0  0  0  0  0
  185.0240  179.1270  145.3840 C   0  0  1  0  0  3  0  0  0  0  0  0
  183.4650  179.2350  143.5360 C   0  0  0  0  0  2  0  0  0  0  0  0
  183.6360  178.5200  142.2070 C   0  0  0  0  0  2  0  0  0  0  0  0
  182.3750  178.6270  141.4140 C   0  0  0  0  0  0  0  0  0  0  0  0
  181.4220  179.3190  141.8620 O   0  0  0  0  0  0  0  0  0  0  0  0
  182.2150  177.9400  140.1710 N   0  0  0  0  0  2  0  0  0  0  0  0
  182.6160  175.7130  139.2050 C   0  0  0  0  0  2  0  0  0  0  0  0
  183.8820  177.7090  138.3620 C   0  0  2  0  0  3  0  0  0  0  0  0
  181.6170  175.8720  138.0580 C   0  0  0  0  0  2  0  0  0  0  0  0
  182.8640  177.8810  137.2360 C   0  0  0  0  0  2  0  0  0  0  0  0
  183.2340  177.0610  139.5960 C   0  0  1  0  0  3  0  0  0  0  0  0
  184.5100  179.0480  138.7070 C   0  0  0  0  0  1  0  0  0  0  0  0
  182.2900  176.5200  136.8510 C   0  0  0  0  0  2  0  0  0  0  0  0
  189.2090  177.0660  143.6000 O   0  0  0  0  0  0  0  0  0  0  0  0
  188.0530  177.7700  140.5150 C   0  0  0  0  0  2  0  0  0  0  0  0
  189.4690  177.7780  140.1880 N   0  0  0  0  0  0  0  0  0  0  0  0
  187.9220  178.2160  141.9560 C   0  0  0  0  0  2  0  0  0  0  0  0
  189.2890  178.0000  142.5630 C   0  0  2  0  0  3  0  0  0  0  0  0
  190.1410  177.4500  141.4370 C   0  0  0  0  0  2  0  0  0  0  0  0
  189.7030  176.6790  139.2620 C   0  0  0  0  0  2  0  0  0  0  0  0
  188.8820  178.5440  137.7880 C   0  0  0  0  0  2  0  0  0  0  0  0
  187.7880  177.8910  135.5940 C   0  0  0  0  0  2  0  0  0  0  0  0
  185.9810  176.1570  135.9670 C   0  0  0  0  0  2  0  0  0  0  0  0
  186.3510  175.0580  134.9870 C   0  0  0  0  0  2  0  0  0  0  0  0
  187.9480  176.2020  137.5540 C   0  0  0  0  0  2  0  0  0  0  0  0
  187.8310  178.9110  136.7290 C   0  0  0  0  0  2  0  0  0  0  0  0
  189.1850  177.0370  137.8780 C   0  0  2  0  0  3  0  0  0  0  0  0
  187.4480  176.4950  136.1330 C   0  0  0  0  0  0  0  0  0  0  0  0
  187.8220  175.4020  135.1540 C   0  0  0  0  0  2  0  0  0  0  0  0
  1  8  1  0  0  0  0
  1 11  1  0  0  0  0
  2  9  1  0  0  0  0
  2  6  2  0  0  0  0
  3 27  1  6  0  0  0
  3  4  1  0  0  0  0
  3  8  1  0  0  0  0
  4  2  1  0  0  0  0
  5  6  1  0  0  0  0
  7  4  2  0  0  0  0
  8  5  2  0  0  0  0
  9 10  3  0  0  0  0
 12 15  1  6  0  0  0
 12 14  1  0  0  0  0
 12 13  1  0  0  0  0
 14 13  1  0  0  0  0
 14 11  1  1  0  0  0
 16 15  1  0  0  0  0
 17 18  2  0  0  0  0
 17 16  1  0  0  0  0
 19 17  1  0  0  0  0
 20 24  1  0  0  0  0
 21 25  1  1  0  0  0
 21 24  1  0  0  0  0
 22 20  1  0  0  0  0
 23 21  1  0  0  0  0
 24 19  1  6  0  0  0
 26 23  1  0  0  0  0
 26 22  1  0  0  0  0
 28 30  1  0  0  0  0
 29 28  1  0  0  0  0
 29 32  1  0  0  0  0
 30 31  1  0  0  0  0
 31 27  1  1  0  0  0
 32 31  1  0  0  0  0
 33 29  1  0  0  0  0
 34 40  1  0  0  0  0
 35 41  1  0  0  0  0
 35 39  1  0  0  0  0
 36 41  1  0  0  0  0
 37 42  1  0  0  0  0
 37 36  1  0  0  0  0
 38 40  1  0  0  0  0
 39 34  1  0  0  0  0
 40 33  1  1  0  0  0
 41 38  1  0  0  0  0
 42 41  1  0  0  0  0
M  END
>  <MODEL>
2

>  <REMARK>
 VINA RESULT:      -8.5      2.755      7.946
  Name = 
  11 active torsions:
  status: ('A' for Active; 'I' for Inactive)
    1  A    between atoms: C_3  and  C_10
    2  A    between atoms: C_3  and  C_15
    3  A    between atoms: O_4  and  N_7
    4  A    between atoms: O_4  and  C_37
    5  A    between atoms: C_5  and  N_21
    6  A    between atoms: C_5  and  C_31
    7  A    between atoms: O_6  and  C_12
    8  A    between atoms: O_6  and  C_26
    9  A    between atoms: C_9  and  C_22
   10  A    between atoms: C_15  and  C_17
   11  A    between atoms: C_24  and  N_28
                            x       y       z     vdW  Elec       q    Type
                         _______ _______ _______ _____ _____    ______ ____

>  <TORSDO>
F 11

$$$$
=
 OpenBabel10232411003D

 42 47  0  0  1  0  0  0  0  0999 V2000
  187.2470  178.3030  145.2720 N   0  0  0  0  0  2  0  0  0  0  0  0
  190.8860  176.6490  146.7990 C   0  0  0  0  0  0  0  0  0  0  0  0
  189.6660  177.7430  144.7960 C   0  0  2  0  0  3  0  0  0  0  0  0
  190.9190  177.2000  145.4320 C   0  0  0  0  0  0  0  0  0  0  0  0
  188.5610  177.2670  146.9440 N   0  0  0  0  0  0  0  0  0  0  0  0
  189.7550  176.6950  147.4980 C   0  0  0  0  0  3  0  0  0  0  0  0
  191.9990  177.2260  144.7820 O   0  0  0  0  0  0  0  0  0  0  0  0
  188.4820  177.7500  145.7350 C   0  0  0  0  0  0  0  0  0  0  0  0
  192.0610  176.0710  147.3940 C   0  0  0  0  0  0  0  0  0  0  0  0
  193.0050  175.6070  147.8740 N   0  0  0  0  0  0  0  0  0  0  0  0
  186.1590  178.3960  146.0770 O   0  0  0  0  0  0  0  0  0  0  0  0
  184.5510  178.4220  144.3940 C   0  0  2  0  0  3  0  0  0  0  0  0
  183.8890  178.7840  145.6570 N   0  0  0  0  0  2  0  0  0  0  0  0
  185.2660  179.2180  145.3850 C   0  0  1  0  0  3  0  0  0  0  0  0
  184.0850  179.3360  143.2760 C   0  0  0  0  0  2  0  0  0  0  0  0
  183.5910  178.5130  142.0990 C   0  0  0  0  0  2  0  0  0  0  0  0
  184.1810  179.0420  140.8330 C   0  0  0  0  0  0  0  0  0  0  0  0
  185.3000  179.6180  140.8700 O   0  0  0  0  0  0  0  0  0  0  0  0
  183.4910  178.9330  139.5870 N   0  0  0  0  0  2  0  0  0  0  0  0
  181.1290  179.4240  139.1030 C   0  0  0  0  0  2  0  0  0  0  0  0
  182.1540  177.2570  138.3590 C   0  0  2  0  0  3  0  0  0  0  0  0
  181.3860  180.0120  137.7150 C   0  0  0  0  0  2  0  0  0  0  0  0
  182.4350  177.8600  136.9840 C   0  0  0  0  0  2  0  0  0  0  0  0
  182.1600  178.3410  139.4480 C   0  0  1  0  0  3  0  0  0  0  0  0
  183.1610  176.1620  138.6640 C   0  0  0  0  0  1  0  0  0  0  0  0
  181.3760  178.9110  136.6590 C   0  0  0  0  0  2  0  0  0  0  0  0
  189.3610  177.0110  143.6410 O   0  0  0  0  0  0  0  0  0  0  0  0
  188.2780  177.7630  140.5410 C   0  0  0  0  0  2  0  0  0  0  0  0
  189.6900  177.6380  140.2180 N   0  0  0  0  0  0  0  0  0  0  0  0
  188.1850  178.2430  141.9730 C   0  0  0  0  0  2  0  0  0  0  0  0
  189.5260  177.9160  142.5880 C   0  0  2  0  0  3  0  0  0  0  0  0
  190.3280  177.2720  141.4750 C   0  0  0  0  0  2  0  0  0  0  0  0
  189.8260  176.5070  139.3110 C   0  0  0  0  0  2  0  0  0  0  0  0
  189.3950  178.4070  137.7210 C   0  0  0  0  0  2  0  0  0  0  0  0
  188.0500  177.8870  135.6320 C   0  0  0  0  0  2  0  0  0  0  0  0
  185.9040  176.6780  136.2180 C   0  0  0  0  0  2  0  0  0  0  0  0
  185.9410  175.4550  135.3190 C   0  0  0  0  0  2  0  0  0  0  0  0
  187.9120  176.3530  137.7180 C   0  0  0  0  0  2  0  0  0  0  0  0
  188.4030  178.9440  136.6760 C   0  0  0  0  0  2  0  0  0  0  0  0
  189.3300  176.8820  137.9240 C   0  0  2  0  0  3  0  0  0  0  0  0
  187.4160  176.6590  136.2980 C   0  0  0  0  0  0  0  0  0  0  0  0
  187.4590  175.4400  135.4000 C   0  0  0  0  0  2  0  0  0  0  0  0
  1  8  1  0  0  0  0
  1 11  1  0  0  0  0
  2  9  1  0  0  0  0
  2  6  2  0  0  0  0
  3 27  1  6  0  0  0
  3  4  1  0  0  0  0
  3  8  1  0  0  0  0
  4  2  1  0  0  0  0
  5  6  1  0  0  0  0
  7  4  2  0  0  0  0
  8  5  2  0  0  0  0
  9 10  3  0  0  0  0
 12 15  1  6  0  0  0
 12 14  1  0  0  0  0
 12 13  1  0  0  0  0
 14 13  1  0  0  0  0
 14 11  1  1  0  0  0
 16 15  1  0  0  0  0
 17 18  2  0  0  0  0
 17 16  1  0  0  0  0
 19 17  1  0  0  0  0
 20 24  1  0  0  0  0
 21 25  1  1  0  0  0
 21 24  1  0  0  0  0
 22 20  1  0  0  0  0
 23 21  1  0  0  0  0
 24 19  1  6  0  0  0
 26 23  1  0  0  0  0
 26 22  1  0  0  0  0
 28 30  1  0  0  0  0
 29 28  1  0  0  0  0
 29 32  1  0  0  0  0
 30 31  1  0  0  0  0
 31 27  1  1  0  0  0
 32 31  1  0  0  0  0
 33 29  1  0  0  0  0
 34 40  1  0  0  0  0
 35 41  1  0  0  0  0
 35 39  1  0  0  0  0
 36 41  1  0  0  0  0
 37 42  1  0  0  0  0
 37 36  1  0  0  0  0
 38 40  1  0  0  0  0
 39 34  1  0  0  0  0
 40 33  1  1  0  0  0
 41 38  1  0  0  0  0
 42 41  1  0  0  0  0
M  END
>  <MODEL>
3

>  <REMARK>
 VINA RESULT:      -8.4      2.710      7.869
  Name = 
  11 active torsions:
  status: ('A' for Active; 'I' for Inactive)
    1  A    between atoms: C_3  and  C_10
    2  A    between atoms: C_3  and  C_15
    3  A    between atoms: O_4  and  N_7
    4  A    between atoms: O_4  and  C_37
    5  A    between atoms: C_5  and  N_21
    6  A    between atoms: C_5  and  C_31
    7  A    between atoms: O_6  and  C_12
    8  A    between atoms: O_6  and  C_26
    9  A    between atoms: C_9  and  C_22
   10  A    between atoms: C_15  and  C_17
   11  A    between atoms: C_24  and  N_28
                            x       y       z     vdW  Elec       q    Type
                         _______ _______ _______ _____ _____    ______ ____

>  <TORSDO>
F 11

$$$$
=
 OpenBabel10232411003D

 42 47  0  0  1  0  0  0  0  0999 V2000
  186.9220  178.2790  144.6850 N   0  0  0  0  0  2  0  0  0  0  0  0
  190.5240  176.8290  146.4820 C   0  0  0  0  0  0  0  0  0  0  0  0
  189.3900  177.8280  144.3810 C   0  0  2  0  0  3  0  0  0  0  0  0
  190.6220  177.3570  145.1090 C   0  0  0  0  0  0  0  0  0  0  0  0
  188.1680  177.3360  146.4610 N   0  0  0  0  0  0  0  0  0  0  0  0
  189.3480  176.8320  147.1040 C   0  0  0  0  0  3  0  0  0  0  0  0
  191.7410  177.4240  144.5310 O   0  0  0  0  0  0  0  0  0  0  0  0
  188.1480  177.7940  145.2390 C   0  0  0  0  0  0  0  0  0  0  0  0
  191.6820  176.3180  147.1650 C   0  0  0  0  0  0  0  0  0  0  0  0
  192.6140  175.9090  147.7140 N   0  0  0  0  0  0  0  0  0  0  0  0
  185.7790  178.3330  145.4140 O   0  0  0  0  0  0  0  0  0  0  0  0
  183.8930  178.3110  144.0510 C   0  0  2  0  0  3  0  0  0  0  0  0
  183.5670  179.0860  145.2580 N   0  0  0  0  0  2  0  0  0  0  0  0
  184.9150  179.1440  144.6740 C   0  0  1  0  0  3  0  0  0  0  0  0
  183.3700  179.0200  142.8150 C   0  0  0  0  0  2  0  0  0  0  0  0
  183.6800  178.2040  141.5730 C   0  0  0  0  0  2  0  0  0  0  0  0
  184.0120  179.1190  140.4390 C   0  0  0  0  0  0  0  0  0  0  0  0
  185.1710  179.6070  140.3620 O   0  0  0  0  0  0  0  0  0  0  0  0
  183.0360  179.4730  139.4580 N   0  0  0  0  0  2  0  0  0  0  0  0
  180.7200  180.1530  139.9330 C   0  0  0  0  0  2  0  0  0  0  0  0
  181.2090  178.4910  138.1170 C   0  0  2  0  0  3  0  0  0  0  0  0
  180.6810  181.2700  138.8890 C   0  0  0  0  0  2  0  0  0  0  0  0
  181.1980  179.6160  137.0830 C   0  0  0  0  0  2  0  0  0  0  0  0
  181.6480  179.0130  139.4940 C   0  0  1  0  0  3  0  0  0  0  0  0
  182.1010  177.3570  137.6450 C   0  0  0  0  0  1  0  0  0  0  0  0
  180.2440  180.7190  137.5350 C   0  0  0  0  0  2  0  0  0  0  0  0
  189.1980  177.0630  143.2230 O   0  0  0  0  0  0  0  0  0  0  0  0
  188.3450  178.0610  140.1210 C   0  0  0  0  0  2  0  0  0  0  0  0
  189.6820  177.5890  139.8010 N   0  0  0  0  0  0  0  0  0  0  0  0
  188.3700  178.5490  141.5530 C   0  0  0  0  0  2  0  0  0  0  0  0
  189.5860  177.8990  142.1720 C   0  0  2  0  0  3  0  0  0  0  0  0
  190.2050  177.0760  141.0600 C   0  0  0  0  0  2  0  0  0  0  0  0
  189.5360  176.4600  138.8940 C   0  0  0  0  0  2  0  0  0  0  0  0
  190.1790  176.6620  136.4720 C   0  0  0  0  0  2  0  0  0  0  0  0
  192.5340  175.9600  135.8360 C   0  0  0  0  0  2  0  0  0  0  0  0
  193.0620  173.6520  136.7340 C   0  0  0  0  0  2  0  0  0  0  0  0
  194.3700  173.8630  137.4750 C   0  0  0  0  0  2  0  0  0  0  0  0
  191.4330  175.0970  138.0190 C   0  0  0  0  0  2  0  0  0  0  0  0
  191.0810  176.0660  135.3780 C   0  0  0  0  0  2  0  0  0  0  0  0
  190.6900  176.4260  137.9050 C   0  0  2  0  0  3  0  0  0  0  0  0
  192.6460  175.0670  137.0790 C   0  0  0  0  0  0  0  0  0  0  0  0
  193.9510  175.2830  137.8160 C   0  0  0  0  0  2  0  0  0  0  0  0
  1  8  1  0  0  0  0
  1 11  1  0  0  0  0
  2  6  2  0  0  0  0
  2  9  1  0  0  0  0
  3 27  1  6  0  0  0
  3  4  1  0  0  0  0
  3  8  1  0  0  0  0
  4  2  1  0  0  0  0
  5  6  1  0  0  0  0
  7  4  2  0  0  0  0
  8  5  2  0  0  0  0
  9 10  3  0  0  0  0
 12 15  1  6  0  0  0
 12 14  1  0  0  0  0
 12 13  1  0  0  0  0
 14 13  1  0  0  0  0
 14 11  1  1  0  0  0
 16 15  1  0  0  0  0
 17 16  1  0  0  0  0
 18 17  2  0  0  0  0
 19 17  1  0  0  0  0
 21 25  1  6  0  0  0
 21 24  1  0  0  0  0
 22 20  1  0  0  0  0
 23 26  1  0  0  0  0
 23 21  1  0  0  0  0
 24 19  1  6  0  0  0
 24 20  1  0  0  0  0
 26 22  1  0  0  0  0
 28 30  1  0  0  0  0
 29 28  1  0  0  0  0
 29 32  1  0  0  0  0
 30 31  1  0  0  0  0
 31 27  1  1  0  0  0
 32 31  1  0  0  0  0
 33 29  1  0  0  0  0
 34 40  1  0  0  0  0
 35 41  1  0  0  0  0
 36 41  1  0  0  0  0
 36 37  1  0  0  0  0
 37 42  1  0  0  0  0
 39 35  1  0  0  0  0
 39 34  1  0  0  0  0
 40 38  1  0  0  0  0
 40 33  1  1  0  0  0
 41 42  1  0  0  0  0
 41 38  1  0  0  0  0
M  END
>  <MODEL>
4

>  <REMARK>
 VINA RESULT:      -8.4      2.709      7.720
  Name = 
  11 active torsions:
  status: ('A' for Active; 'I' for Inactive)
    1  A    between atoms: C_3  and  C_10
    2  A    between atoms: C_3  and  C_15
    3  A    between atoms: O_4  and  N_7
    4  A    between atoms: O_4  and  C_37
    5  A    between atoms: C_5  and  N_21
    6  A    between atoms: C_5  and  C_31
    7  A    between atoms: O_6  and  C_12
    8  A    between atoms: O_6  and  C_26
    9  A    between atoms: C_9  and  C_22
   10  A    between atoms: C_15  and  C_17
   11  A    between atoms: C_24  and  N_28
                            x       y       z     vdW  Elec       q    Type
                         _______ _______ _______ _____ _____    ______ ____

>  <TORSDO>
F 11

$$$$
=
 OpenBabel10232411003D

 42 47  0  0  1  0  0  0  0  0999 V2000
  189.1030  178.1770  138.1640 N   0  0  0  0  0  2  0  0  0  0  0  0
  185.1830  178.7100  139.7950 C   0  0  0  0  0  0  0  0  0  0  0  0
  187.7160  178.4470  140.2590 C   0  0  2  0  0  3  0  0  0  0  0  0
  186.3110  178.6930  140.7440 C   0  0  0  0  0  0  0  0  0  0  0  0
  186.7550  178.4040  137.9930 N   0  0  0  0  0  0  0  0  0  0  0  0
  185.4200  178.5740  138.4930 C   0  0  0  0  0  3  0  0  0  0  0  0
  186.1110  178.8900  141.9740 O   0  0  0  0  0  0  0  0  0  0  0  0
  187.8120  178.3450  138.7550 C   0  0  0  0  0  0  0  0  0  0  0  0
  183.8310  178.8820  140.2520 C   0  0  0  0  0  0  0  0  0  0  0  0
  182.7440  179.0210  140.6210 N   0  0  0  0  0  0  0  0  0  0  0  0
  189.2730  178.1360  136.8180 O   0  0  0  0  0  0  0  0  0  0  0  0
  190.1740  176.2440  137.8330 C   0  0  2  0  0  3  0  0  0  0  0  0
  188.9930  175.8240  137.0640 N   0  0  0  0  0  2  0  0  0  0  0  0
  189.8660  176.8960  136.5660 C   0  0  1  0  0  3  0  0  0  0  0  0
  191.3150  175.2690  137.6180 C   0  0  0  0  0  2  0  0  0  0  0  0
  192.4770  175.9660  136.9310 C   0  0  0  0  0  2  0  0  0  0  0  0
  193.6130  176.1150  137.8900 C   0  0  0  0  0  0  0  0  0  0  0  0
  193.4900  176.8960  138.8710 O   0  0  0  0  0  0  0  0  0  0  0  0
  194.8430  175.4130  137.7040 N   0  0  0  0  0  2  0  0  0  0  0  0
  195.7910  175.3190  135.4350 C   0  0  0  0  0  2  0  0  0  0  0  0
  195.9960  173.3520  136.9810 C   0  0  2  0  0  3  0  0  0  0  0  0
  197.1910  175.7770  135.8460 C   0  0  0  0  0  2  0  0  0  0  0  0
  197.3820  173.8310  137.4090 C   0  0  0  0  0  2  0  0  0  0  0  0
  195.1090  174.5350  136.5640 C   0  0  1  0  0  3  0  0  0  0  0  0
  195.3550  172.5460  138.0970 C   0  0  0  0  0  1  0  0  0  0  0  0
  198.0450  174.5800  136.2560 C   0  0  0  0  0  2  0  0  0  0  0  0
  188.2310  177.2890  140.8560 O   0  0  0  0  0  0  0  0  0  0  0  0
  190.5970  176.2610  143.0220 C   0  0  0  0  0  2  0  0  0  0  0  0
  190.0310  177.3130  143.8520 N   0  0  0  0  0  0  0  0  0  0  0  0
  190.4200  176.6820  141.5790 C   0  0  0  0  0  2  0  0  0  0  0  0
  189.3280  177.7270  141.6030 C   0  0  2  0  0  3  0  0  0  0  0  0
  188.9390  177.8620  143.0610 C   0  0  0  0  0  2  0  0  0  0  0  0
  189.4480  176.6720  145.0220 C   0  0  0  0  0  2  0  0  0  0  0  0
  188.9800  177.6670  147.2830 C   0  0  0  0  0  2  0  0  0  0  0  0
  186.8700  179.0560  147.5230 C   0  0  0  0  0  2  0  0  0  0  0  0
  184.8560  177.8000  146.6420 C   0  0  0  0  0  2  0  0  0  0  0  0
  184.2300  178.7890  145.6750 C   0  0  0  0  0  2  0  0  0  0  0  0
  187.1130  177.3290  145.6050 C   0  0  0  0  0  2  0  0  0  0  0  0
  187.8530  178.1220  148.2240 C   0  0  0  0  0  2  0  0  0  0  0  0
  188.5910  177.6630  145.7930 C   0  0  2  0  0  3  0  0  0  0  0  0
  186.2260  178.3590  146.3180 C   0  0  0  0  0  0  0  0  0  0  0  0
  185.6060  179.3490  145.3540 C   0  0  0  0  0  2  0  0  0  0  0  0
  1  8  1  0  0  0  0
  2  9  1  0  0  0  0
  2  4  1  0  0  0  0
  3  4  1  0  0  0  0
  3 27  1  1  0  0  0
  4  7  2  0  0  0  0
  5  6  1  0  0  0  0
  5  8  2  0  0  0  0
  6  2  2  0  0  0  0
  8  3  1  0  0  0  0
  9 10  3  0  0  0  0
 11  1  1  0  0  0  0
 12 15  1  6  0  0  0
 13 12  1  0  0  0  0
 14 11  1  1  0  0  0
 14 13  1  0  0  0  0
 14 12  1  0  0  0  0
 16 15  1  0  0  0  0
 16 17  1  0  0  0  0
 17 18  2  0  0  0  0
 19 17  1  0  0  0  0
 20 22  1  0  0  0  0
 20 24  1  0  0  0  0
 21 23  1  0  0  0  0
 21 25  1  1  0  0  0
 22 26  1  0  0  0  0
 24 21  1  0  0  0  0
 24 19  1  1  0  0  0
 26 23  1  0  0  0  0
 28 29  1  0  0  0  0
 29 33  1  0  0  0  0
 30 31  1  0  0  0  0
 30 28  1  0  0  0  0
 31 27  1  6  0  0  0
 31 32  1  0  0  0  0
 32 29  1  0  0  0  0
 34 39  1  0  0  0  0
 35 39  1  0  0  0  0
 37 36  1  0  0  0  0
 38 40  1  0  0  0  0
 38 41  1  0  0  0  0
 40 33  1  6  0  0  0
 40 34  1  0  0  0  0
 41 36  1  0  0  0  0
 41 35  1  0  0  0  0
 42 37  1  0  0  0  0
 42 41  1  0  0  0  0
M  END
>  <MODEL>
5

>  <REMARK>
 VINA RESULT:      -8.1      2.141      8.183
  Name = 
  11 active torsions:
  status: ('A' for Active; 'I' for Inactive)
    1  A    between atoms: C_3  and  C_10
    2  A    between atoms: C_3  and  C_15
    3  A    between atoms: O_4  and  N_7
    4  A    between atoms: O_4  and  C_37
    5  A    between atoms: C_5  and  N_21
    6  A    between atoms: C_5  and  C_31
    7  A    between atoms: O_6  and  C_12
    8  A    between atoms: O_6  and  C_26
    9  A    between atoms: C_9  and  C_22
   10  A    between atoms: C_15  and  C_17
   11  A    between atoms: C_24  and  N_28
                            x       y       z     vdW  Elec       q    Type
                         _______ _______ _______ _____ _____    ______ ____

>  <TORSDO>
F 11

$$$$
=
 OpenBabel10232411003D

 42 47  0  0  1  0  0  0  0  0999 V2000
  185.4600  178.9300  141.9030 N   0  0  0  0  0  2  0  0  0  0  0  0
  182.9300  178.7850  138.4560 C   0  0  0  0  0  0  0  0  0  0  0  0
  185.1970  178.1340  139.5180 C   0  0  2  0  0  3  0  0  0  0  0  0
  184.2210  178.0790  138.3730 C   0  0  0  0  0  0  0  0  0  0  0  0
  183.4800  179.4320  140.7110 N   0  0  0  0  0  0  0  0  0  0  0  0
  182.5980  179.4180  139.5780 C   0  0  0  0  0  3  0  0  0  0  0  0
  184.5200  177.4170  137.3420 O   0  0  0  0  0  0  0  0  0  0  0  0
  184.6540  178.8650  140.7230 C   0  0  0  0  0  0  0  0  0  0  0  0
  182.0150  178.7920  137.3460 C   0  0  0  0  0  0  0  0  0  0  0  0
  181.2810  178.7980  136.4530 N   0  0  0  0  0  0  0  0  0  0  0  0
  185.0150  179.5180  143.0410 O   0  0  0  0  0  0  0  0  0  0  0  0
  185.4580  179.0500  145.2780 C   0  0  2  0  0  3  0  0  0  0  0  0
  184.0280  178.8060  145.0410 N   0  0  0  0  0  2  0  0  0  0  0  0
  185.0190  178.5020  144.0000 C   0  0  1  0  0  3  0  0  0  0  0  0
  186.0510  177.9300  146.1120 C   0  0  0  0  0  2  0  0  0  0  0  0
  187.2840  178.4220  146.8500 C   0  0  0  0  0  2  0  0  0  0  0  0
  188.3140  177.3410  146.8870 C   0  0  0  0  0  0  0  0  0  0  0  0
  188.4210  176.6280  147.9200 O   0  0  0  0  0  0  0  0  0  0  0  0
  189.1970  177.1150  145.7860 N   0  0  0  0  0  2  0  0  0  0  0  0
  190.4660  178.7850  144.5010 C   0  0  0  0  0  2  0  0  0  0  0  0
  189.1050  177.0390  143.3190 C   0  0  2  0  0  3  0  0  0  0  0  0
  191.7140  177.9170  144.3300 C   0  0  0  0  0  2  0  0  0  0  0  0
  190.3490  176.1630  143.1780 C   0  0  0  0  0  2  0  0  0  0  0  0
  189.1960  177.9280  144.5690 C   0  0  1  0  0  3  0  0  0  0  0  0
  187.8580  176.1740  143.3450 C   0  0  0  0  0  1  0  0  0  0  0  0
  191.5910  177.0460  143.0830 C   0  0  0  0  0  2  0  0  0  0  0  0
  186.3960  178.7240  139.0960 O   0  0  0  0  0  0  0  0  0  0  0  0
  189.7150  178.1620  138.9560 C   0  0  0  0  0  2  0  0  0  0  0  0
  189.3040  177.0480  138.1170 N   0  0  0  0  0  0  0  0  0  0  0  0
  188.6000  178.4130  139.9490 C   0  0  0  0  0  2  0  0  0  0  0  0
  187.3780  177.7600  139.3450 C   0  0  2  0  0  3  0  0  0  0  0  0
  187.8540  177.1580  138.0390 C   0  0  0  0  0  2  0  0  0  0  0  0
  189.8350  177.2940  136.7840 C   0  0  0  0  0  2  0  0  0  0  0  0
  189.9150  174.8000  136.4740 C   0  0  0  0  0  2  0  0  0  0  0  0
  192.1840  173.7610  136.0120 C   0  0  0  0  0  2  0  0  0  0  0  0
  193.8910  174.5250  137.7190 C   0  0  0  0  0  2  0  0  0  0  0  0
  195.0340  175.0340  136.8580 C   0  0  0  0  0  2  0  0  0  0  0  0
  191.9910  176.0890  137.1380 C   0  0  0  0  0  2  0  0  0  0  0  0
  190.8080  173.5610  136.6440 C   0  0  0  0  0  2  0  0  0  0  0  0
  190.6920  176.1210  136.3350 C   0  0  2  0  0  3  0  0  0  0  0  0
  192.9050  174.9550  136.6530 C   0  0  0  0  0  0  0  0  0  0  0  0
  194.0410  175.4610  135.7890 C   0  0  0  0  0  2  0  0  0  0  0  0
  1 11  1  0  0  0  0
  2  6  2  0  0  0  0
  3 27  1  6  0  0  0
  3  8  1  0  0  0  0
  4  2  1  0  0  0  0
  4  3  1  0  0  0  0
  5  8  2  0  0  0  0
  6  5  1  0  0  0  0
  7  4  2  0  0  0  0
  8  1  1  0  0  0  0
  9  2  1  0  0  0  0
 10  9  3  0  0  0  0
 12 15  1  1  0  0  0
 13 12  1  0  0  0  0
 14 11  1  6  0  0  0
 14 13  1  0  0  0  0
 14 12  1  0  0  0  0
 15 16  1  0  0  0  0
 16 17  1  0  0  0  0
 17 18  2  0  0  0  0
 19 17  1  0  0  0  0
 20 24  1  0  0  0  0
 21 25  1  1  0  0  0
 21 24  1  0  0  0  0
 22 20  1  0  0  0  0
 23 21  1  0  0  0  0
 24 19  1  1  0  0  0
 26 23  1  0  0  0  0
 26 22  1  0  0  0  0
 28 30  1  0  0  0  0
 29 28  1  0  0  0  0
 31 27  1  6  0  0  0
 31 30  1  0  0  0  0
 32 29  1  0  0  0  0
 32 31  1  0  0  0  0
 33 29  1  0  0  0  0
 34 39  1  0  0  0  0
 35 39  1  0  0  0  0
 35 41  1  0  0  0  0
 37 36  1  0  0  0  0
 40 34  1  0  0  0  0
 40 33  1  1  0  0  0
 40 38  1  0  0  0  0
 41 38  1  0  0  0  0
 41 36  1  0  0  0  0
 42 41  1  0  0  0  0
 42 37  1  0  0  0  0
M  END
>  <MODEL>
6

>  <REMARK>
 VINA RESULT:      -8.1      2.464      8.312
  Name = 
  11 active torsions:
  status: ('A' for Active; 'I' for Inactive)
    1  A    between atoms: C_3  and  C_10
    2  A    between atoms: C_3  and  C_15
    3  A    between atoms: O_4  and  N_7
    4  A    between atoms: O_4  and  C_37
    5  A    between atoms: C_5  and  N_21
    6  A    between atoms: C_5  and  C_31
    7  A    between atoms: O_6  and  C_12
    8  A    between atoms: O_6  and  C_26
    9  A    between atoms: C_9  and  C_22
   10  A    between atoms: C_15  and  C_17
   11  A    between atoms: C_24  and  N_28
                            x       y       z     vdW  Elec       q    Type
                         _______ _______ _______ _____ _____    ______ ____

>  <TORSDO>
F 11

$$$$
=
 OpenBabel10232411003D

 42 47  0  0  1  0  0  0  0  0999 V2000
  185.8130  175.8650  136.9980 N   0  0  0  0  0  2  0  0  0  0  0  0
  182.1250  173.9420  135.9970 C   0  0  0  0  0  0  0  0  0  0  0  0
  183.3050  175.8340  137.3090 C   0  0  2  0  0  3  0  0  0  0  0  0
  182.0490  175.1350  136.8580 C   0  0  0  0  0  0  0  0  0  0  0  0
  184.5190  174.2050  135.9200 N   0  0  0  0  0  0  0  0  0  0  0  0
  183.3090  173.5210  135.5610 C   0  0  0  0  0  3  0  0  0  0  0  0
  180.9300  175.5870  137.2240 O   0  0  0  0  0  0  0  0  0  0  0  0
  184.5570  175.2490  136.7010 C   0  0  0  0  0  0  0  0  0  0  0  0
  180.9370  173.2290  135.6100 C   0  0  0  0  0  0  0  0  0  0  0  0
  179.9820  172.6560  135.2990 N   0  0  0  0  0  0  0  0  0  0  0  0
  186.9720  175.4310  136.4420 O   0  0  0  0  0  0  0  0  0  0  0  0
  189.1100  176.0010  137.1650 C   0  0  2  0  0  3  0  0  0  0  0  0
  189.0330  176.2790  135.7230 N   0  0  0  0  0  2  0  0  0  0  0  0
  187.8650  176.4950  136.5890 C   0  0  1  0  0  3  0  0  0  0  0  0
  189.8040  177.1430  137.8840 C   0  0  0  0  0  2  0  0  0  0  0  0
  189.9350  176.8280  139.3640 C   0  0  0  0  0  2  0  0  0  0  0  0
  189.2830  177.9060  140.1670 C   0  0  0  0  0  0  0  0  0  0  0  0
  188.6070  178.7890  139.5770 O   0  0  0  0  0  0  0  0  0  0  0  0
  189.4320  177.9710  141.5870 N   0  0  0  0  0  2  0  0  0  0  0  0
  191.6000  177.6670  142.7090 C   0  0  0  0  0  2  0  0  0  0  0  0
  189.5250  176.6130  143.6480 C   0  0  2  0  0  3  0  0  0  0  0  0
  191.4290  178.8420  143.6730 C   0  0  0  0  0  2  0  0  0  0  0  0
  189.3430  177.8040  144.5880 C   0  0  0  0  0  2  0  0  0  0  0  0
  190.2480  177.0330  142.3590 C   0  0  1  0  0  3  0  0  0  0  0  0
  188.1790  175.9770  143.3460 C   0  0  0  0  0  1  0  0  0  0  0  0
  190.7070  178.3920  144.9400 C   0  0  0  0  0  2  0  0  0  0  0  0
  183.3910  175.8070  138.7080 O   0  0  0  0  0  0  0  0  0  0  0  0
  184.4450  178.9640  139.2310 C   0  0  0  0  0  2  0  0  0  0  0  0
  183.9230  178.7200  140.5660 N   0  0  0  0  0  0  0  0  0  0  0  0
  183.6200  178.1390  138.2670 C   0  0  0  0  0  2  0  0  0  0  0  0
  182.9650  177.0740  139.1180 C   0  0  2  0  0  3  0  0  0  0  0  0
  183.4400  177.3470  140.5310 C   0  0  0  0  0  2  0  0  0  0  0  0
  185.0510  178.7650  141.4850 C   0  0  0  0  0  2  0  0  0  0  0  0
  183.2400  179.1260  143.1920 C   0  0  0  0  0  2  0  0  0  0  0  0
  183.7360  178.4130  145.5760 C   0  0  0  0  0  2  0  0  0  0  0  0
  185.9410  179.3730  146.3660 C   0  0  0  0  0  2  0  0  0  0  0  0
  186.6830  178.1520  146.8790 C   0  0  0  0  0  2  0  0  0  0  0  0
  185.6590  178.8830  143.9020 C   0  0  0  0  0  2  0  0  0  0  0  0
  182.9820  179.3960  144.6830 C   0  0  0  0  0  2  0  0  0  0  0  0
  184.5920  178.4490  142.8990 C   0  0  2  0  0  3  0  0  0  0  0  0
  185.2470  178.5100  145.3330 C   0  0  0  0  0  0  0  0  0  0  0  0
  185.9830  177.2880  145.8430 C   0  0  0  0  0  2  0  0  0  0  0  0
  2  4  1  0  0  0  0
  3 27  1  1  0  0  0
  4  7  2  0  0  0  0
  4  3  1  0  0  0  0
  5  8  2  0  0  0  0
  6  5  1  0  0  0  0
  6  2  2  0  0  0  0
  8  1  1  0  0  0  0
  8  3  1  0  0  0  0
  9  2  1  0  0  0  0
 10  9  3  0  0  0  0
 11  1  1  0  0  0  0
 12 15  1  1  0  0  0
 13 14  1  0  0  0  0
 13 12  1  0  0  0  0
 14 11  1  6  0  0  0
 14 12  1  0  0  0  0
 15 16  1  0  0  0  0
 16 17  1  0  0  0  0
 17 19  1  0  0  0  0
 18 17  2  0  0  0  0
 20 22  1  0  0  0  0
 21 25  1  6  0  0  0
 21 23  1  0  0  0  0
 22 26  1  0  0  0  0
 23 26  1  0  0  0  0
 24 19  1  1  0  0  0
 24 20  1  0  0  0  0
 24 21  1  0  0  0  0
 28 29  1  0  0  0  0
 29 33  1  0  0  0  0
 30 31  1  0  0  0  0
 30 28  1  0  0  0  0
 31 27  1  6  0  0  0
 31 32  1  0  0  0  0
 32 29  1  0  0  0  0
 34 39  1  0  0  0  0
 36 37  1  0  0  0  0
 38 41  1  0  0  0  0
 39 35  1  0  0  0  0
 40 33  1  6  0  0  0
 40 34  1  0  0  0  0
 40 38  1  0  0  0  0
 41 35  1  0  0  0  0
 41 42  1  0  0  0  0
 41 36  1  0  0  0  0
 42 37  1  0  0  0  0
M  END
>  <MODEL>
7

>  <REMARK>
 VINA RESULT:      -7.8      2.775      6.790
  Name = 
  11 active torsions:
  status: ('A' for Active; 'I' for Inactive)
    1  A    between atoms: C_3  and  C_10
    2  A    between atoms: C_3  and  C_15
    3  A    between atoms: O_4  and  N_7
    4  A    between atoms: O_4  and  C_37
    5  A    between atoms: C_5  and  N_21
    6  A    between atoms: C_5  and  C_31
    7  A    between atoms: O_6  and  C_12
    8  A    between atoms: O_6  and  C_26
    9  A    between atoms: C_9  and  C_22
   10  A    between atoms: C_15  and  C_17
   11  A    between atoms: C_24  and  N_28
                            x       y       z     vdW  Elec       q    Type
                         _______ _______ _______ _____ _____    ______ ____

>  <TORSDO>
F 11

$$$$
=
 OpenBabel10232411003D

 42 47  0  0  1  0  0  0  0  0999 V2000
  186.3170  177.1870  138.0540 N   0  0  0  0  0  2  0  0  0  0  0  0
  182.3470  177.9310  136.6430 C   0  0  0  0  0  0  0  0  0  0  0  0
  184.0460  178.1630  138.5810 C   0  0  2  0  0  3  0  0  0  0  0  0
  182.6910  178.4380  137.9840 C   0  0  0  0  0  0  0  0  0  0  0  0
  184.5880  177.0660  136.4450 N   0  0  0  0  0  0  0  0  0  0  0  0
  183.2660  177.2850  135.9300 C   0  0  0  0  0  3  0  0  0  0  0  0
  181.8530  179.1110  138.6440 O   0  0  0  0  0  0  0  0  0  0  0  0
  184.9760  177.4480  137.6310 C   0  0  0  0  0  0  0  0  0  0  0  0
  181.0360  178.1320  136.0870 C   0  0  0  0  0  0  0  0  0  0  0  0
  179.9820  178.2950  135.6410 N   0  0  0  0  0  0  0  0  0  0  0  0
  187.2250  176.6020  137.2340 O   0  0  0  0  0  0  0  0  0  0  0  0
  189.5290  176.4470  137.5330 C   0  0  2  0  0  3  0  0  0  0  0  0
  189.2850  177.1200  136.2490 N   0  0  0  0  0  2  0  0  0  0  0  0
  188.3940  177.3510  137.3940 C   0  0  1  0  0  3  0  0  0  0  0  0
  190.6300  177.1580  138.2980 C   0  0  0  0  0  2  0  0  0  0  0  0
  190.4100  177.0070  139.7930 C   0  0  0  0  0  2  0  0  0  0  0  0
  191.6850  177.2890  140.5200 C   0  0  0  0  0  0  0  0  0  0  0  0
  192.7570  177.3890  139.8650 O   0  0  0  0  0  0  0  0  0  0  0  0
  191.7190  177.4230  141.9420 N   0  0  0  0  0  2  0  0  0  0  0  0
  190.3600  175.7860  143.1780 C   0  0  0  0  0  2  0  0  0  0  0  0
  190.6720  178.1110  144.0710 C   0  0  2  0  0  3  0  0  0  0  0  0
  191.5020  175.2990  144.0730 C   0  0  0  0  0  2  0  0  0  0  0  0
  191.8310  177.6240  144.9400 C   0  0  0  0  0  2  0  0  0  0  0  0
  190.5430  177.2610  142.7970 C   0  0  1  0  0  3  0  0  0  0  0  0
  190.8520  179.5820  143.7380 C   0  0  0  0  0  1  0  0  0  0  0  0
  191.6050  176.1650  145.3250 C   0  0  0  0  0  2  0  0  0  0  0  0
  183.9060  177.4270  139.7650 O   0  0  0  0  0  0  0  0  0  0  0  0
  186.2420  179.1540  141.4710 C   0  0  0  0  0  2  0  0  0  0  0  0
  185.6210  178.5050  142.6140 N   0  0  0  0  0  0  0  0  0  0  0  0
  185.1680  179.3410  140.4210 C   0  0  0  0  0  2  0  0  0  0  0  0
  184.0780  178.3610  140.7910 C   0  0  2  0  0  3  0  0  0  0  0  0
  184.5760  177.6670  142.0430 C   0  0  0  0  0  2  0  0  0  0  0  0
  186.6180  177.6240  143.2040 C   0  0  0  0  0  2  0  0  0  0  0  0
  185.4120  178.6260  145.1700 C   0  0  0  0  0  2  0  0  0  0  0  0
  186.3790  178.1810  147.4730 C   0  0  0  0  0  2  0  0  0  0  0  0
  188.8490  178.7330  147.5370 C   0  0  0  0  0  2  0  0  0  0  0  0
  189.4700  177.4670  148.1010 C   0  0  0  0  0  2  0  0  0  0  0  0
  187.8490  177.9600  145.3480 C   0  0  0  0  0  2  0  0  0  0  0  0
  185.6060  179.1630  146.5970 C   0  0  0  0  0  2  0  0  0  0  0  0
  186.4960  177.6300  144.7190 C   0  0  2  0  0  3  0  0  0  0  0  0
  187.7670  177.9020  146.8800 C   0  0  0  0  0  0  0  0  0  0  0  0
  188.3800  176.6370  147.4420 C   0  0  0  0  0  2  0  0  0  0  0  0
  2  4  1  0  0  0  0
  3 27  1  1  0  0  0
  4  3  1  0  0  0  0
  4  7  2  0  0  0  0
  5  8  2  0  0  0  0
  6  5  1  0  0  0  0
  6  2  2  0  0  0  0
  8  1  1  0  0  0  0
  8  3  1  0  0  0  0
  9  2  1  0  0  0  0
 10  9  3  0  0  0  0
 11  1  1  0  0  0  0
 12 15  1  1  0  0  0
 13 14  1  0  0  0  0
 13 12  1  0  0  0  0
 14 11  1  6  0  0  0
 14 12  1  0  0  0  0
 15 16  1  0  0  0  0
 16 17  1  0  0  0  0
 17 19  1  0  0  0  0
 18 17  2  0  0  0  0
 20 22  1  0  0  0  0
 21 25  1  6  0  0  0
 21 23  1  0  0  0  0
 22 26  1  0  0  0  0
 23 26  1  0  0  0  0
 24 19  1  6  0  0  0
 24 20  1  0  0  0  0
 24 21  1  0  0  0  0
 28 29  1  0  0  0  0
 29 33  1  0  0  0  0
 30 31  1  0  0  0  0
 30 28  1  0  0  0  0
 31 27  1  6  0  0  0
 31 32  1  0  0  0  0
 32 29  1  0  0  0  0
 34 39  1  0  0  0  0
 36 37  1  0  0  0  0
 38 41  1  0  0  0  0
 39 35  1  0  0  0  0
 40 33  1  6  0  0  0
 40 34  1  0  0  0  0
 40 38  1  0  0  0  0
 41 42  1  0  0  0  0
 41 35  1  0  0  0  0
 41 36  1  0  0  0  0
 42 37  1  0  0  0  0
M  END
>  <MODEL>
8

>  <REMARK>
 VINA RESULT:      -7.8      1.964      6.573
  Name = 
  11 active torsions:
  status: ('A' for Active; 'I' for Inactive)
    1  A    between atoms: C_3  and  C_10
    2  A    between atoms: C_3  and  C_15
    3  A    between atoms: O_4  and  N_7
    4  A    between atoms: O_4  and  C_37
    5  A    between atoms: C_5  and  N_21
    6  A    between atoms: C_5  and  C_31
    7  A    between atoms: O_6  and  C_12
    8  A    between atoms: O_6  and  C_26
    9  A    between atoms: C_9  and  C_22
   10  A    between atoms: C_15  and  C_17
   11  A    between atoms: C_24  and  N_28
                            x       y       z     vdW  Elec       q    Type
                         _______ _______ _______ _____ _____    ______ ____

>  <TORSDO>
F 11

$$$$
=
 OpenBabel10232411003D

 42 47  0  0  1  0  0  0  0  0999 V2000
  187.3580  176.7010  137.6930 N   0  0  0  0  0  2  0  0  0  0  0  0
  191.4980  176.2630  136.7090 C   0  0  0  0  0  0  0  0  0  0  0  0
  189.7190  176.5000  138.5730 C   0  0  2  0  0  3  0  0  0  0  0  0
  191.1450  176.2860  138.1400 C   0  0  0  0  0  0  0  0  0  0  0  0
  189.1600  176.5040  136.1750 N   0  0  0  0  0  0  0  0  0  0  0  0
  190.5370  176.3650  135.7940 C   0  0  0  0  0  3  0  0  0  0  0  0
  192.0360  176.1210  139.0180 O   0  0  0  0  0  0  0  0  0  0  0  0
  188.7530  176.5660  137.4130 C   0  0  0  0  0  0  0  0  0  0  0  0
  192.8650  176.1210  136.2830 C   0  0  0  0  0  0  0  0  0  0  0  0
  193.9630  176.0080  135.9410 N   0  0  0  0  0  0  0  0  0  0  0  0
  186.4270  176.7080  136.7060 O   0  0  0  0  0  0  0  0  0  0  0  0
  185.2340  177.9100  138.3030 C   0  0  2  0  0  3  0  0  0  0  0  0
  186.3810  178.7310  137.8860 N   0  0  0  0  0  2  0  0  0  0  0  0
  185.6840  177.8730  136.9170 C   0  0  1  0  0  3  0  0  0  0  0  0
  183.9820  178.7630  138.3880 C   0  0  0  0  0  2  0  0  0  0  0  0
  182.7470  177.8790  138.4180 C   0  0  0  0  0  2  0  0  0  0  0  0
  182.8230  176.9470  139.5830 C   0  0  0  0  0  0  0  0  0  0  0  0
  182.9350  175.7100  139.3750 O   0  0  0  0  0  0  0  0  0  0  0  0
  182.7430  177.4260  140.9270 N   0  0  0  0  0  2  0  0  0  0  0  0
  181.0500  179.1650  141.3330 C   0  0  0  0  0  2  0  0  0  0  0  0
  183.2020  179.1610  142.6240 C   0  0  2  0  0  3  0  0  0  0  0  0
  180.3660  178.4320  142.4880 C   0  0  0  0  0  2  0  0  0  0  0  0
  182.5200  178.4030  143.7620 C   0  0  0  0  0  2  0  0  0  0  0  0
  182.5470  178.8350  141.2730 C   0  0  1  0  0  3  0  0  0  0  0  0
  184.6890  178.8510  142.6070 C   0  0  0  0  0  1  0  0  0  0  0  0
  181.0410  178.7760  143.8120 C   0  0  0  0  0  2  0  0  0  0  0  0
  189.6240  177.6650  139.3460 O   0  0  0  0  0  0  0  0  0  0  0  0
  188.4540  178.7800  142.3010 C   0  0  0  0  0  2  0  0  0  0  0  0
  189.4780  177.8960  142.8310 N   0  0  0  0  0  0  0  0  0  0  0  0
  187.9800  178.1880  140.9910 C   0  0  0  0  0  2  0  0  0  0  0  0
  189.0810  177.2440  140.5630 C   0  0  2  0  0  3  0  0  0  0  0  0
  190.1280  177.3340  141.6550 C   0  0  0  0  0  2  0  0  0  0  0  0
  190.4550  178.7290  143.5170 C   0  0  0  0  0  2  0  0  0  0  0  0
  191.6420  177.0760  144.9940 C   0  0  0  0  0  2  0  0  0  0  0  0
  190.8330  176.8760  147.3910 C   0  0  0  0  0  2  0  0  0  0  0  0
  188.3250  176.5390  147.4730 C   0  0  0  0  0  2  0  0  0  0  0  0
  187.8640  177.6200  148.4350 C   0  0  0  0  0  2  0  0  0  0  0  0
  189.2970  177.8580  145.5480 C   0  0  0  0  0  2  0  0  0  0  0  0
  191.4600  176.1470  146.2050 C   0  0  0  0  0  2  0  0  0  0  0  0
  190.6460  178.2500  144.9460 C   0  0  2  0  0  3  0  0  0  0  0  0
  189.4550  177.4370  147.0150 C   0  0  0  0  0  0  0  0  0  0  0  0
  189.0020  178.5170  147.9750 C   0  0  0  0  0  2  0  0  0  0  0  0
  2  4  1  0  0  0  0
  3 27  1  6  0  0  0
  4  3  1  0  0  0  0
  4  7  2  0  0  0  0
  5  8  2  0  0  0  0
  6  5  1  0  0  0  0
  6  2  2  0  0  0  0
  8  1  1  0  0  0  0
  8  3  1  0  0  0  0
  9  2  1  0  0  0  0
 10  9  3  0  0  0  0
 11  1  1  0  0  0  0
 12 15  1  6  0  0  0
 13 12  1  0  0  0  0
 14 11  1  1  0  0  0
 14 13  1  0  0  0  0
 14 12  1  0  0  0  0
 15 16  1  0  0  0  0
 16 17  1  0  0  0  0
 17 19  1  0  0  0  0
 18 17  2  0  0  0  0
 20 22  1  0  0  0  0
 21 25  1  6  0  0  0
 21 23  1  0  0  0  0
 22 26  1  0  0  0  0
 23 26  1  0  0  0  0
 24 19  1  1  0  0  0
 24 20  1  0  0  0  0
 24 21  1  0  0  0  0
 28 29  1  0  0  0  0
 29 33  1  0  0  0  0
 30 28  1  0  0  0  0
 31 27  1  6  0  0  0
 31 30  1  0  0  0  0
 31 32  1  0  0  0  0
 32 29  1  0  0  0  0
 34 39  1  0  0  0  0
 36 37  1  0  0  0  0
 38 41  1  0  0  0  0
 39 35  1  0  0  0  0
 40 33  1  6  0  0  0
 40 34  1  0  0  0  0
 40 38  1  0  0  0  0
 41 35  1  0  0  0  0
 41 36  1  0  0  0  0
 41 42  1  0  0  0  0
 42 37  1  0  0  0  0
M  END
>  <MODEL>
9

>  <REMARK>
 VINA RESULT:      -7.7      1.197      1.797
  Name = 
  11 active torsions:
  status: ('A' for Active; 'I' for Inactive)
    1  A    between atoms: C_3  and  C_10
    2  A    between atoms: C_3  and  C_15
    3  A    between atoms: O_4  and  N_7
    4  A    between atoms: O_4  and  C_37
    5  A    between atoms: C_5  and  N_21
    6  A    between atoms: C_5  and  C_31
    7  A    between atoms: O_6  and  C_12
    8  A    between atoms: O_6  and  C_26
    9  A    between atoms: C_9  and  C_22
   10  A    between atoms: C_15  and  C_17
   11  A    between atoms: C_24  and  N_28
                            x       y       z     vdW  Elec       q    Type
                         _______ _______ _______ _____ _____    ______ ____

>  <TORSDO>
F 11

$$$$
