=
 OpenBabel10232412133D

 68 78  0  0  1  0  0  0  0  0999 V2000
  186.3920  175.5260  136.6790 C   0  0  0  0  0  0  0  0  0  0  0  0
  187.2200  170.5500  135.9320 F   0  0  0  0  0  0  0  0  0  0  0  0
  188.6050  176.0740  141.1900 O   0  0  0  0  0  0  0  0  0  0  0  0
  185.5630  174.7130  135.8390 N   0  0  0  0  0  2  0  0  0  0  0  0
  189.1870  177.3540  141.2810 C   0  0  2  0  0  0  0  0  0  0  0  0
  188.4490  175.8090  137.9950 C   0  0  2  0  0  3  0  0  0  0  0  0
  188.2120  177.2550  138.0190 N   0  0  0  0  0  0  0  0  0  0  0  0
  191.4510  174.4240  136.2860 C   0  0  0  0  0  3  0  0  0  0  0  0
  186.8250  179.0110  137.2810 O   0  0  0  0  0  0  0  0  0  0  0  0
  189.1910  179.3660  138.2560 F   0  0  0  0  0  0  0  0  0  0  0  0
  185.8680  176.8480  137.1280 C   0  0  0  0  0  2  0  0  0  0  0  0
  189.1030  178.1130  138.8380 C   0  0  2  0  0  0  0  0  0  0  0  0
  188.4440  176.7500  142.4150 C   0  0  0  0  0  2  0  0  0  0  0  0
  191.2220  177.9800  140.0980 O   0  0  0  0  0  0  0  0  0  0  0  0
  190.5760  177.5770  138.9010 C   0  0  1  0  0  3  0  0  0  0  0  0
  192.2230  175.9530  137.9980 N   0  0  0  0  0  0  0  0  0  0  0  0
  186.9900  177.7730  137.4520 C   0  0  0  0  0  0  0  0  0  0  0  0
  185.1000  172.6680  134.7080 N   0  0  0  0  0  0  0  0  0  0  0  0
  185.7660  171.4990  134.4370 O   0  0  0  0  0  0  0  0  0  0  0  0
  189.8420  175.5650  137.6480 N   0  0  0  0  0  0  0  0  0  0  0  0
  188.5430  178.3110  140.2730 C   0  0  1  0  0  3  0  0  0  0  0  0
  192.4250  174.6340  137.3910 C   0  0  0  0  0  2  0  0  0  0  0  0
  190.8610  176.0870  138.5660 C   0  0  2  0  0  3  0  0  0  0  0  0
  187.5500  175.0960  137.0770 N   0  0  0  0  0  0  0  0  0  0  0  0
  190.7130  177.2330  141.1910 C   0  0  1  0  0  3  0  0  0  0  0  0
  185.9170  173.4110  135.3670 C   0  0  0  0  0  0  0  0  0  0  0  0
  187.0880  171.5260  134.9630 C   0  0  1  0  0  3  0  0  0  0  0  0
  187.1490  172.8080  135.5680 O   0  0  0  0  0  0  0  0  0  0  0  0
  190.2070  174.8520  136.4540 C   0  0  0  0  0  3  0  0  0  0  0  0
  191.2500  175.6400  143.4980 O   0  0  0  0  0  0  0  0  0  0  0  0
  191.3360  177.7080  142.4170 N   0  0  0  0  0  2  0  0  0  0  0  0
  192.1610  177.3910  144.7160 N   0  0  0  0  0  1  0  0  0  0  0  0
  191.5650  176.8580  143.5400 C   0  0  0  0  0  0  0  0  0  0  0  0
  187.0240  178.5140  140.3770 C   0  0  0  0  0  2  0  0  0  0  0  0
  186.6100  179.1760  141.6870 C   0  0  0  0  0  2  0  0  0  0  0  0
  184.7070  179.6010  143.3260 C   0  0  0  0  0  1  0  0  0  0  0  0
  185.1530  178.8910  142.0520 C   0  0  1  0  0  3  0  0  0  0  0  0
  184.2710  179.0860  140.9630 O   0  0  0  0  0  0  0  0  0  0  0  0
  183.1270  178.2730  141.1230 C   0  0  1  0  0  3  0  0  0  0  0  0
  181.9640  179.0470  140.9380 O   0  0  0  0  0  0  0  0  0  0  0  0
  182.3010  178.1820  139.8780 C   0  0  1  0  0  3  0  0  0  0  0  0
  181.8840  179.0390  137.7000 C   0  0  0  0  0  0  0  0  0  0  0  0
  182.8610  178.9580  138.6740 C   0  0  1  0  0  3  0  0  0  0  0  0
  181.1350  178.5150  136.7360 C   0  0  0  0  0  3  0  0  0  0  0  0
  182.2900  180.2000  138.5550 O   0  0  0  0  0  0  0  0  0  0  0  0
  181.2740  177.0810  136.3310 C   0  0  1  0  0  3  0  0  0  0  0  0
  182.6110  176.8180  135.6420 C   0  0  0  0  0  2  0  0  0  0  0  0
  182.9080  177.8370  134.7320 O   0  0  0  0  0  1  0  0  0  0  0  0
  181.9530  175.1500  137.1840 C   0  0  0  0  0  1  0  0  0  0  0  0
  181.1530  176.2620  137.4560 O   0  0  0  0  0  0  0  0  0  0  0  0
  193.2540  176.1590  139.0250 C   0  0  0  0  0  2  0  0  0  0  0  0
  194.6920  176.0290  138.5030 C   0  0  0  0  0  2  0  0  0  0  0  0
  195.4320  174.8790  139.1830 C   0  0  0  0  0  2  0  0  0  0  0  0
  198.7290  169.3410  134.5780 C   0  0  0  0  0  2  0  0  0  0  0  0
  198.2870  170.2060  136.7650 O   0  0  0  0  0  0  0  0  0  0  0  0
  199.5270  171.6780  134.7880 C   0  0  0  0  0  2  0  0  0  0  0  0
  194.9240  172.1440  138.8930 O   0  0  0  0  0  0  0  0  0  0  0  0
  195.7830  172.6420  138.1170 C   0  0  0  0  0  0  0  0  0  0  0  0
  200.2310  172.1030  137.6330 C   0  0  0  0  0  1  0  0  0  0  0  0
  196.1600  174.0190  138.2420 N   0  0  0  0  0  0  0  0  0  0  0  0
  198.3630  170.7940  134.3590 C   0  0  2  0  0  3  0  0  0  0  0  0
  197.8490  171.4360  137.3340 C   0  0  1  0  0  3  0  0  0  0  0  0
  199.0380  172.8800  135.5930 C   0  0  0  0  0  2  0  0  0  0  0  0
  197.7110  169.9900  135.4910 C   0  0  1  0  0  3  0  0  0  0  0  0
  198.8860  172.5650  137.0880 C   0  0  2  0  0  0  0  0  0  0  0  0
  198.5680  173.8530  137.8580 C   0  0  0  0  0  2  0  0  0  0  0  0
  196.3730  171.7880  137.0470 C   0  0  0  0  0  2  0  0  0  0  0  0
  197.2700  174.5320  137.4410 C   0  0  0  0  0  2  0  0  0  0  0  0
  1 24  2  0  0  0  0
  1 11  1  0  0  0  0
  3  5  1  0  0  0  0
  3 13  1  0  0  0  0
  4  1  1  0  0  0  0
  5 13  1  1  0  0  0
  6 24  1  6  0  0  0
  6  7  1  0  0  0  0
  7 12  1  0  0  0  0
  8 29  2  0  0  0  0
  8 22  1  0  0  0  0
  9 17  2  0  0  0  0
 11 17  1  0  0  0  0
 12 10  1  6  0  0  0
 12 15  1  0  0  0  0
 12 21  1  0  0  0  0
 14 25  1  0  0  0  0
 15 14  1  1  0  0  0
 16 23  1  0  0  0  0
 16 51  1  0  0  0  0
 17  7  1  0  0  0  0
 18 26  2  0  0  0  0
 19 18  1  0  0  0  0
 19 27  1  0  0  0  0
 20  6  1  0  0  0  0
 21 34  1  6  0  0  0
 21  5  1  0  0  0  0
 22 16  1  0  0  0  0
 23 20  1  6  0  0  0
 23 15  1  0  0  0  0
 25  5  1  0  0  0  0
 25 31  1  1  0  0  0
 26 28  1  0  0  0  0
 26  4  1  0  0  0  0
 27 28  1  0  0  0  0
 27  2  1  1  0  0  0
 29 20  1  0  0  0  0
 30 33  2  0  0  0  0
 31 33  1  0  0  0  0
 33 32  1  0  0  0  0
 34 35  1  0  0  0  0
 35 37  1  0  0  0  0
 37 36  1  1  0  0  0
 38 37  1  0  0  0  0
 39 38  1  6  0  0  0
 40 39  1  0  0  0  0
 41 40  1  1  0  0  0
 41 39  1  0  0  0  0
 42 45  1  0  0  0  0
 43 42  1  6  0  0  0
 43 41  1  0  0  0  0
 44 42  2  0  0  0  0
 45 43  1  0  0  0  0
 46 47  1  1  0  0  0
 46 44  1  0  0  0  0
 46 50  1  0  0  0  0
 48 47  1  0  0  0  0
 49 50  1  0  0  0  0
 52 51  1  0  0  0  0
 52 53  1  0  0  0  0
 55 62  1  0  0  0  0
 56 63  1  0  0  0  0
 58 60  1  0  0  0  0
 58 57  2  0  0  0  0
 60 53  1  0  0  0  0
 61 54  1  6  0  0  0
 61 56  1  0  0  0  0
 61 64  1  0  0  0  0
 62 67  1  6  0  0  0
 63 65  1  0  0  0  0
 64 54  1  6  0  0  0
 64 55  1  0  0  0  0
 65 62  1  0  0  0  0
 65 59  1  1  0  0  0
 65 66  1  0  0  0  0
 67 58  1  0  0  0  0
 68 66  1  0  0  0  0
 68 60  1  0  0  0  0
M  END
>  <MODEL>
1

>  <REMARK>
 VINA RESULT:      -6.2      0.000      0.000
  Name = 
  14 active torsions:
  status: ('A' for Active; 'I' for Inactive)
    1  A    between atoms: C_3  and  C_31
    2  A    between atoms: C_4  and  O_64
    3  A    between atoms: C_14  and  C_58
    4  A    between atoms: C_18  and  C_31
    5  A    between atoms: C_21  and  C_48
    6  A    between atoms: C_21  and  O_64
    7  A    between atoms: N_26  and  C_47
    8  A    between atoms: O_30  and  C_31
    9  A    between atoms: N_39  and  C_50
   10  A    between atoms: C_43  and  C_48
   11  A    between atoms: C_43  and  C_51
   12  A    between atoms: N_45  and  C_62
   13  A    between atoms: C_47  and  C_49
   14  A    between atoms: C_49  and  C_50
                            x       y       z     vdW  Elec       q    Type
                         _______ _______ _______ _____ _____    ______ ____

>  <TORSDO>
F 14

$$$$
=
 OpenBabel10232412133D

 68 78  0  0  1  0  0  0  0  0999 V2000
  191.3630  177.0980  142.0080 C   0  0  0  0  0  0  0  0  0  0  0  0
  188.5070  176.2430  146.1450 F   0  0  0  0  0  0  0  0  0  0  0  0
  188.6720  174.5260  138.5880 O   0  0  0  0  0  0  0  0  0  0  0  0
  191.8870  177.1370  143.3400 N   0  0  0  0  0  2  0  0  0  0  0  0
  188.7520  175.1710  137.3380 C   0  0  2  0  0  0  0  0  0  0  0  0
  189.4320  176.9980  140.4890 C   0  0  2  0  0  3  0  0  0  0  0  0
  190.3040  177.4070  139.3840 N   0  0  0  0  0  0  0  0  0  0  0  0
  186.6280  179.1890  141.5820 C   0  0  0  0  0  3  0  0  0  0  0  0
  192.4800  178.0660  138.7660 O   0  0  0  0  0  0  0  0  0  0  0  0
  190.4010  178.4070  137.2720 F   0  0  0  0  0  0  0  0  0  0  0  0
  192.3210  176.9870  140.8710 C   0  0  0  0  0  2  0  0  0  0  0  0
  189.7530  177.4290  138.0070 C   0  0  2  0  0  0  0  0  0  0  0  0
  188.8360  173.6940  137.4650 C   0  0  0  0  0  2  0  0  0  0  0  0
  187.5890  177.2500  136.8330 O   0  0  0  0  0  0  0  0  0  0  0  0
  188.2320  177.8130  137.9650 C   0  0  1  0  0  3  0  0  0  0  0  0
  186.2820  178.6690  139.2420 N   0  0  0  0  0  0  0  0  0  0  0  0
  191.7210  177.5420  139.6250 C   0  0  0  0  0  0  0  0  0  0  0  0
  191.5920  177.1210  145.7050 N   0  0  0  0  0  0  0  0  0  0  0  0
  190.5410  177.2010  146.5850 O   0  0  0  0  0  0  0  0  0  0  0  0
  188.2120  177.7930  140.4460 N   0  0  0  0  0  0  0  0  0  0  0  0
  189.9850  176.0770  137.2790 C   0  0  1  0  0  3  0  0  0  0  0  0
  185.6360  178.7710  140.5540 C   0  0  0  0  0  2  0  0  0  0  0  0
  187.3720  177.6650  139.2500 C   0  0  2  0  0  3  0  0  0  0  0  0
  190.0820  177.1090  141.8030 N   0  0  0  0  0  0  0  0  0  0  0  0
  187.4170  175.8550  137.0250 C   0  0  1  0  0  3  0  0  0  0  0  0
  191.0880  177.2010  144.5250 C   0  0  0  0  0  0  0  0  0  0  0  0
  189.3040  177.3450  145.8970 C   0  0  1  0  0  3  0  0  0  0  0  0
  189.7090  177.3420  144.5380 O   0  0  0  0  0  0  0  0  0  0  0  0
  187.8490  178.6730  141.5240 C   0  0  0  0  0  3  0  0  0  0  0  0
  185.7840  173.5140  136.9440 O   0  0  0  0  0  0  0  0  0  0  0  0
  186.8190  175.2850  135.8270 N   0  0  0  0  0  2  0  0  0  0  0  0
  185.4820  173.5870  134.6460 N   0  0  0  0  0  1  0  0  0  0  0  0
  186.0210  174.1020  135.8570 C   0  0  0  0  0  0  0  0  0  0  0  0
  191.3500  175.4140  137.5170 C   0  0  0  0  0  2  0  0  0  0  0  0
  191.8500  174.6500  136.2960 C   0  0  0  0  0  2  0  0  0  0  0  0
  193.5710  176.4260  135.6860 C   0  0  0  0  0  1  0  0  0  0  0  0
  193.3150  174.9510  135.9760 C   0  0  1  0  0  3  0  0  0  0  0  0
  194.2040  174.4040  136.9310 O   0  0  0  0  0  0  0  0  0  0  0  0
  195.4550  174.1490  136.3270 C   0  0  1  0  0  3  0  0  0  0  0  0
  196.4100  173.8510  137.3200 O   0  0  0  0  0  0  0  0  0  0  0  0
  195.9420  172.7540  136.5690 C   0  0  1  0  0  3  0  0  0  0  0  0
  195.6430  170.7020  137.7330 C   0  0  0  0  0  0  0  0  0  0  0  0
  194.9890  171.8720  137.3940 C   0  0  1  0  0  3  0  0  0  0  0  0
  196.1470  169.5080  137.4430 C   0  0  0  0  0  3  0  0  0  0  0  0
  195.3680  171.8020  138.7110 O   0  0  0  0  0  0  0  0  0  0  0  0
  196.0550  168.9360  136.0640 C   0  0  1  0  0  3  0  0  0  0  0  0
  194.6980  169.2220  135.4250 C   0  0  0  0  0  2  0  0  0  0  0  0
  193.7170  168.3720  135.9420 O   0  0  0  0  0  1  0  0  0  0  0  0
  198.2270  169.3820  136.0540 C   0  0  0  0  0  1  0  0  0  0  0  0
  197.0740  169.4640  135.2680 O   0  0  0  0  0  0  0  0  0  0  0  0
  185.2580  178.3390  138.2410 C   0  0  0  0  0  2  0  0  0  0  0  0
  184.0830  179.3260  138.2000 C   0  0  0  0  0  2  0  0  0  0  0  0
  182.8280  178.7270  138.8300 C   0  0  0  0  0  2  0  0  0  0  0  0
  180.6630  171.7440  135.7840 C   0  0  0  0  0  2  0  0  0  0  0  0
  182.3970  173.2700  136.4090 O   0  0  0  0  0  0  0  0  0  0  0  0
  180.3610  173.9380  134.6710 C   0  0  0  0  0  2  0  0  0  0  0  0
  183.2210  176.1020  139.7100 O   0  0  0  0  0  0  0  0  0  0  0  0
  182.5150  176.2490  138.6760 C   0  0  0  0  0  0  0  0  0  0  0  0
  183.0540  175.1250  134.3460 C   0  0  0  0  0  1  0  0  0  0  0  0
  182.3200  177.5520  138.1110 N   0  0  0  0  0  0  0  0  0  0  0  0
  179.9820  173.0930  135.8810 C   0  0  2  0  0  3  0  0  0  0  0  0
  182.5060  174.6530  136.7300 C   0  0  1  0  0  3  0  0  0  0  0  0
  180.6900  175.3710  135.0820 C   0  0  0  0  0  2  0  0  0  0  0  0
  181.1480  172.7410  136.8140 C   0  0  1  0  0  3  0  0  0  0  0  0
  182.1560  175.5400  135.5050 C   0  0  2  0  0  0  0  0  0  0  0  0
  182.4620  177.0260  135.7300 C   0  0  0  0  0  2  0  0  0  0  0  0
  181.8580  175.0550  138.0730 C   0  0  0  0  0  2  0  0  0  0  0  0
  181.6340  177.6800  136.8270 C   0  0  0  0  0  2  0  0  0  0  0  0
  1  4  1  0  0  0  0
  4 26  1  0  0  0  0
  5 13  1  6  0  0  0
  5  3  1  0  0  0  0
  6 24  1  1  0  0  0
  7 17  1  0  0  0  0
  7  6  1  0  0  0  0
  9 17  2  0  0  0  0
 11  1  1  0  0  0  0
 12 10  1  6  0  0  0
 12  7  1  0  0  0  0
 13  3  1  0  0  0  0
 14 25  1  0  0  0  0
 15 14  1  6  0  0  0
 15 12  1  0  0  0  0
 15 23  1  0  0  0  0
 16 22  1  0  0  0  0
 17 11  1  0  0  0  0
 18 19  1  0  0  0  0
 20  6  1  0  0  0  0
 20 29  1  0  0  0  0
 21  5  1  0  0  0  0
 21 34  1  1  0  0  0
 21 12  1  0  0  0  0
 22  8  1  0  0  0  0
 23 16  1  1  0  0  0
 23 20  1  0  0  0  0
 24  1  2  0  0  0  0
 25 31  1  6  0  0  0
 25  5  1  0  0  0  0
 26 28  1  0  0  0  0
 26 18  2  0  0  0  0
 27  2  1  6  0  0  0
 27 19  1  0  0  0  0
 28 27  1  0  0  0  0
 29  8  2  0  0  0  0
 31 33  1  0  0  0  0
 32 33  1  0  0  0  0
 33 30  2  0  0  0  0
 35 34  1  0  0  0  0
 37 36  1  1  0  0  0
 37 35  1  0  0  0  0
 37 38  1  0  0  0  0
 39 41  1  0  0  0  0
 39 38  1  1  0  0  0
 39 40  1  0  0  0  0
 41 40  1  1  0  0  0
 41 43  1  0  0  0  0
 42 45  1  0  0  0  0
 43 42  1  6  0  0  0
 43 45  1  0  0  0  0
 44 42  2  0  0  0  0
 46 47  1  6  0  0  0
 46 44  1  0  0  0  0
 47 48  1  0  0  0  0
 50 49  1  0  0  0  0
 50 46  1  0  0  0  0
 51 16  1  0  0  0  0
 52 51  1  0  0  0  0
 52 53  1  0  0  0  0
 54 61  1  0  0  0  0
 55 62  1  0  0  0  0
 55 64  1  0  0  0  0
 56 63  1  0  0  0  0
 58 57  2  0  0  0  0
 60 58  1  0  0  0  0
 60 53  1  0  0  0  0
 61 56  1  6  0  0  0
 61 64  1  0  0  0  0
 62 67  1  1  0  0  0
 63 65  1  0  0  0  0
 64 54  1  6  0  0  0
 65 59  1  6  0  0  0
 65 66  1  0  0  0  0
 65 62  1  0  0  0  0
 66 68  1  0  0  0  0
 67 58  1  0  0  0  0
 68 60  1  0  0  0  0
M  END
>  <MODEL>
2

>  <REMARK>
 VINA RESULT:      -4.0      2.500     12.129
  Name = 
  14 active torsions:
  status: ('A' for Active; 'I' for Inactive)
    1  A    between atoms: C_3  and  C_31
    2  A    between atoms: C_4  and  O_64
    3  A    between atoms: C_14  and  C_58
    4  A    between atoms: C_18  and  C_31
    5  A    between atoms: C_21  and  C_48
    6  A    between atoms: C_21  and  O_64
    7  A    between atoms: N_26  and  C_47
    8  A    between atoms: O_30  and  C_31
    9  A    between atoms: N_39  and  C_50
   10  A    between atoms: C_43  and  C_48
   11  A    between atoms: C_43  and  C_51
   12  A    between atoms: N_45  and  C_62
   13  A    between atoms: C_47  and  C_49
   14  A    between atoms: C_49  and  C_50
                            x       y       z     vdW  Elec       q    Type
                         _______ _______ _______ _____ _____    ______ ____

>  <TORSDO>
F 14

$$$$
=
 OpenBabel10232412133D

 68 78  0  0  1  0  0  0  0  0999 V2000
  193.6010  175.6920  138.1050 C   0  0  0  0  0  0  0  0  0  0  0  0
  196.7060  174.1960  134.3470 F   0  0  0  0  0  0  0  0  0  0  0  0
  189.7260  177.4130  135.3520 O   0  0  0  0  0  0  0  0  0  0  0  0
  195.0230  175.6070  138.2540 N   0  0  0  0  0  2  0  0  0  0  0  0
  188.5160  177.1710  136.0320 C   0  0  2  0  0  0  0  0  0  0  0  0
  191.5720  175.2210  136.7980 C   0  0  2  0  0  3  0  0  0  0  0  0
  190.7630  175.5160  137.9840 N   0  0  0  0  0  0  0  0  0  0  0  0
  191.5730  171.8030  135.3250 C   0  0  0  0  0  3  0  0  0  0  0  0
  190.7980  176.0910  140.2690 O   0  0  0  0  0  0  0  0  0  0  0  0
  188.7130  175.1670  139.0560 F   0  0  0  0  0  0  0  0  0  0  0  0
  192.8270  176.4810  139.1070 C   0  0  0  0  0  2  0  0  0  0  0  0
  189.2860  175.5460  137.8530 C   0  0  2  0  0  0  0  0  0  0  0  0
  188.7760  178.4510  135.3260 C   0  0  0  0  0  2  0  0  0  0  0  0
  187.5180  174.9590  136.2330 O   0  0  0  0  0  0  0  0  0  0  0  0
  188.7460  174.5240  136.7930 C   0  0  1  0  0  3  0  0  0  0  0  0
  189.2880  172.6060  135.3110 N   0  0  0  0  0  0  0  0  0  0  0  0
  191.4180  176.0020  139.1750 C   0  0  0  0  0  0  0  0  0  0  0  0
  197.1740  174.9640  137.4580 N   0  0  0  0  0  0  0  0  0  0  0  0
  197.6780  174.2150  136.4230 O   0  0  0  0  0  0  0  0  0  0  0  0
  191.0930  173.9840  136.1960 N   0  0  0  0  0  0  0  0  0  0  0  0
  188.7710  176.9760  137.5300 C   0  0  1  0  0  3  0  0  0  0  0  0
  190.3250  171.9300  134.5250 C   0  0  0  0  0  2  0  0  0  0  0  0
  189.7100  173.9700  135.7070 C   0  0  2  0  0  3  0  0  0  0  0  0
  193.0090  175.1360  137.0930 N   0  0  0  0  0  0  0  0  0  0  0  0
  187.7540  176.0350  135.3400 C   0  0  1  0  0  3  0  0  0  0  0  0
  195.8940  174.9220  137.3500 C   0  0  0  0  0  0  0  0  0  0  0  0
  196.6330  173.6720  135.6240 C   0  0  1  0  0  3  0  0  0  0  0  0
  195.4690  174.1610  136.2720 O   0  0  0  0  0  0  0  0  0  0  0  0
  191.9350  172.8230  136.0920 C   0  0  0  0  0  3  0  0  0  0  0  0
  185.6460  177.1300  136.9240 O   0  0  0  0  0  0  0  0  0  0  0  0
  186.4780  176.5130  134.8300 N   0  0  0  0  0  2  0  0  0  0  0  0
  184.2280  177.4720  135.1210 N   0  0  0  0  0  1  0  0  0  0  0  0
  185.4600  177.0390  135.6820 C   0  0  0  0  0  0  0  0  0  0  0  0
  189.4700  178.1230  138.2740 C   0  0  0  0  0  2  0  0  0  0  0  0
  188.4990  179.2180  138.7040 C   0  0  0  0  0  2  0  0  0  0  0  0
  186.4680  178.7120  140.1540 C   0  0  0  0  0  1  0  0  0  0  0  0
  187.9640  179.0040  140.1200 C   0  0  1  0  0  3  0  0  0  0  0  0
  188.7350  178.0740  140.8570 O   0  0  0  0  0  0  0  0  0  0  0  0
  187.8790  177.1960  141.5590 C   0  0  1  0  0  3  0  0  0  0  0  0
  188.6320  176.1420  142.1150 O   0  0  0  0  0  0  0  0  0  0  0  0
  188.1920  177.1270  143.0210 C   0  0  1  0  0  3  0  0  0  0  0  0
  189.9810  177.4410  144.5560 C   0  0  0  0  0  0  0  0  0  0  0  0
  189.3500  178.0310  143.4770 C   0  0  1  0  0  3  0  0  0  0  0  0
  190.0430  177.0870  145.8350 C   0  0  0  0  0  3  0  0  0  0  0  0
  190.5730  177.4840  143.1810 O   0  0  0  0  0  0  0  0  0  0  0  0
  188.9390  177.4150  146.7900 C   0  0  1  0  0  3  0  0  0  0  0  0
  189.4230  178.3200  147.9200 C   0  0  0  0  0  2  0  0  0  0  0  0
  188.4550  178.4210  148.9240 O   0  0  0  0  0  1  0  0  0  0  0  0
  186.7900  177.1950  146.2890 C   0  0  0  0  0  1  0  0  0  0  0  0
  187.8930  178.0340  146.1030 O   0  0  0  0  0  0  0  0  0  0  0  0
  188.0480  172.6370  134.5230 C   0  0  0  0  0  2  0  0  0  0  0  0
  186.8700  171.9060  135.1820 C   0  0  0  0  0  2  0  0  0  0  0  0
  185.5730  172.1220  134.4040 C   0  0  0  0  0  2  0  0  0  0  0  0
  180.9140  176.4740  139.1050 C   0  0  0  0  0  2  0  0  0  0  0  0
  181.6430  174.3240  138.3460 O   0  0  0  0  0  0  0  0  0  0  0  0
  180.6600  176.2640  136.6480 C   0  0  0  0  0  2  0  0  0  0  0  0
  185.4520  172.3910  137.1850 O   0  0  0  0  0  0  0  0  0  0  0  0
  184.6860  173.1330  136.5150 C   0  0  0  0  0  0  0  0  0  0  0  0
  180.2100  173.3970  136.0630 C   0  0  0  0  0  1  0  0  0  0  0  0
  184.6270  173.0130  135.0870 N   0  0  0  0  0  0  0  0  0  0  0  0
  181.5790  176.7340  137.7690 C   0  0  2  0  0  3  0  0  0  0  0  0
  182.3690  173.7980  137.2400 C   0  0  1  0  0  3  0  0  0  0  0  0
  181.4420  175.5030  135.5790 C   0  0  0  0  0  2  0  0  0  0  0  0
  182.0940  175.6210  138.6910 C   0  0  1  0  0  3  0  0  0  0  0  0
  181.5950  174.0130  135.9110 C   0  0  2  0  0  0  0  0  0  0  0  0
  182.2260  173.2800  134.7210 C   0  0  0  0  0  2  0  0  0  0  0  0
  183.8700  174.1590  137.2240 C   0  0  0  0  0  2  0  0  0  0  0  0
  183.6190  173.7690  134.3470 C   0  0  0  0  0  2  0  0  0  0  0  0
  1  4  1  0  0  0  0
  1 11  1  0  0  0  0
  3  5  1  0  0  0  0
  5 13  1  6  0  0  0
  5 21  1  0  0  0  0
  6 24  1  1  0  0  0
  6  7  1  0  0  0  0
  7 17  1  0  0  0  0
  8 29  2  0  0  0  0
 11 17  1  0  0  0  0
 12  7  1  0  0  0  0
 12 10  1  1  0  0  0
 13  3  1  0  0  0  0
 15 14  1  6  0  0  0
 15 12  1  0  0  0  0
 17  9  2  0  0  0  0
 19 18  1  0  0  0  0
 20  6  1  0  0  0  0
 21 12  1  0  0  0  0
 21 34  1  6  0  0  0
 22 16  1  0  0  0  0
 22  8  1  0  0  0  0
 23 16  1  1  0  0  0
 23 20  1  0  0  0  0
 23 15  1  0  0  0  0
 24  1  2  0  0  0  0
 25 31  1  1  0  0  0
 25  5  1  0  0  0  0
 25 14  1  0  0  0  0
 26 18  2  0  0  0  0
 26  4  1  0  0  0  0
 27  2  1  6  0  0  0
 27 28  1  0  0  0  0
 27 19  1  0  0  0  0
 28 26  1  0  0  0  0
 29 20  1  0  0  0  0
 31 33  1  0  0  0  0
 32 33  1  0  0  0  0
 33 30  2  0  0  0  0
 34 35  1  0  0  0  0
 35 37  1  0  0  0  0
 37 36  1  6  0  0  0
 37 38  1  0  0  0  0
 39 38  1  6  0  0  0
 39 40  1  0  0  0  0
 39 41  1  0  0  0  0
 41 40  1  6  0  0  0
 41 43  1  0  0  0  0
 42 44  2  0  0  0  0
 43 45  1  6  0  0  0
 43 42  1  0  0  0  0
 45 42  1  0  0  0  0
 46 44  1  6  0  0  0
 46 47  1  0  0  0  0
 47 48  1  0  0  0  0
 50 49  1  0  0  0  0
 50 46  1  0  0  0  0
 51 52  1  0  0  0  0
 51 16  1  0  0  0  0
 53 60  1  0  0  0  0
 53 52  1  0  0  0  0
 55 64  1  0  0  0  0
 58 57  2  0  0  0  0
 58 67  1  0  0  0  0
 60 58  1  0  0  0  0
 61 56  1  6  0  0  0
 61 64  1  0  0  0  0
 61 54  1  0  0  0  0
 62 67  1  6  0  0  0
 62 55  1  0  0  0  0
 63 65  1  0  0  0  0
 63 56  1  0  0  0  0
 64 54  1  1  0  0  0
 65 59  1  1  0  0  0
 65 62  1  0  0  0  0
 66 65  1  0  0  0  0
 68 66  1  0  0  0  0
 68 60  1  0  0  0  0
M  END
>  <MODEL>
3

>  <REMARK>
 VINA RESULT:      -3.9      2.805     10.465
  Name = 
  14 active torsions:
  status: ('A' for Active; 'I' for Inactive)
    1  A    between atoms: C_3  and  C_31
    2  A    between atoms: C_4  and  O_64
    3  A    between atoms: C_14  and  C_58
    4  A    between atoms: C_18  and  C_31
    5  A    between atoms: C_21  and  C_48
    6  A    between atoms: C_21  and  O_64
    7  A    between atoms: N_26  and  C_47
    8  A    between atoms: O_30  and  C_31
    9  A    between atoms: N_39  and  C_50
   10  A    between atoms: C_43  and  C_48
   11  A    between atoms: C_43  and  C_51
   12  A    between atoms: N_45  and  C_62
   13  A    between atoms: C_47  and  C_49
   14  A    between atoms: C_49  and  C_50
                            x       y       z     vdW  Elec       q    Type
                         _______ _______ _______ _____ _____    ______ ____

>  <TORSDO>
F 14

$$$$
