=
 OpenBabel10232409363D

 33 36  0  0  1  0  0  0  0  0999 V2000
  190.0720  177.1240  140.8150 C   0  0  0  0  0  0  0  0  0  0  0  0
  191.5960  176.8680  139.3410 N   0  0  0  0  0  0  0  0  0  0  0  0
  190.2910  176.7570  139.5430 N   0  0  0  0  0  0  0  0  0  0  0  0
  190.0270  178.3290  143.3950 C   0  0  0  0  0  2  0  0  0  0  0  0
  188.7400  177.2260  141.4880 C   0  0  0  0  0  2  0  0  0  0  0  0
  192.2340  177.3100  140.4510 C   0  0  0  0  0  3  0  0  0  0  0  0
  191.2530  177.5030  141.4010 C   0  0  0  0  0  0  0  0  0  0  0  0
  188.9250  177.3240  143.0120 C   0  0  2  0  0  3  0  0  0  0  0  0
  191.3920  177.9030  142.8340 C   0  0  0  0  0  2  0  0  0  0  0  0
  182.9010  178.7660  142.8330 C   0  0  0  0  0  0  0  0  0  0  0  0
  185.1540  178.3890  144.8920 C   0  0  0  0  0  2  0  0  0  0  0  0
  182.2830  178.7450  140.4010 C   0  0  0  0  0  1  0  0  0  0  0  0
  187.6660  177.6800  143.6520 N   0  0  0  0  0  0  0  0  0  0  0  0
  180.5520  179.2860  142.1170 C   0  0  0  0  0  1  0  0  0  0  0  0
  188.8020  177.6120  146.2020 S   0  0  0  0  0  0  0  0  0  0  0  0
  187.7940  177.9620  147.5120 C   0  0  0  0  0  0  0  0  0  0  0  0
  188.2280  177.9710  148.9330 C   0  0  0  0  0  1  0  0  0  0  0  0
  186.5090  177.8990  142.8780 N   0  0  0  0  0  0  0  0  0  0  0  0
  184.2500  178.4150  142.4900 N   0  0  0  0  0  2  0  0  0  0  0  0
  187.5800  177.8160  145.0680 C   0  0  0  0  0  0  0  0  0  0  0  0
  181.9240  178.9300  141.7960 N   0  0  0  0  0  0  0  0  0  0  0  0
  185.3500  178.2210  143.3900 C   0  0  0  0  0  0  0  0  0  0  0  0
  186.4010  178.1510  145.6830 C   0  0  0  0  0  0  0  0  0  0  0  0
  182.5690  178.9330  144.0380 O   0  0  0  0  0  0  0  0  0  0  0  0
  186.5000  178.2400  147.0750 C   0  0  0  0  0  3  0  0  0  0  0  0
  192.1920  176.5540  138.1380 O   0  0  0  0  0  0  0  0  0  0  0  0
  192.3810  175.2060  137.7250 C   0  0  0  0  0  2  0  0  0  0  0  0
  193.8380  174.9760  137.3740 C   0  0  0  0  0  2  0  0  0  0  0  0
  194.6490  175.3670  138.4400 O   0  0  0  0  0  0  0  0  0  0  0  0
  195.3980  174.2300  138.7470 C   0  0  0  0  0  2  0  0  0  0  0  0
  196.1650  173.7690  137.5210 C   0  0  0  0  0  2  0  0  0  0  0  0
  197.4570  174.5520  137.3860 C   0  0  0  0  0  2  0  0  0  0  0  0
  197.6240  175.1530  135.6840 S   0  0  0  0  0  1  0  0  0  0  0  0
  1  7  1  0  0  0  0
  1  5  1  0  0  0  0
  2  3  1  0  0  0  0
  2  6  1  0  0  0  0
  3  1  2  0  0  0  0
  6  7  2  0  0  0  0
  7  9  1  0  0  0  0
  8  5  1  6  0  0  0
  8  4  1  0  0  0  0
  8 13  1  0  0  0  0
  9  4  1  0  0  0  0
 10 24  2  0  0  0  0
 11 23  1  0  0  0  0
 12 21  1  0  0  0  0
 13 20  1  0  0  0  0
 15 16  1  0  0  0  0
 16 17  1  0  0  0  0
 18 22  2  0  0  0  0
 18 13  1  0  0  0  0
 19 10  1  0  0  0  0
 19 22  1  0  0  0  0
 20 23  2  0  0  0  0
 20 15  1  0  0  0  0
 21 14  1  0  0  0  0
 21 10  1  0  0  0  0
 22 11  1  0  0  0  0
 23 25  1  0  0  0  0
 25 16  2  0  0  0  0
 26  2  1  0  0  0  0
 27 26  1  0  0  0  0
 28 27  1  0  0  0  0
 28 29  1  0  0  0  0
 29 30  1  0  0  0  0
 31 30  1  0  0  0  0
 32 31  1  0  0  0  0
 33 32  1  0  0  0  0
M  END
>  <MODEL>
1

>  <REMARK>
 VINA RESULT:      -8.6      0.000      0.000
  Name = 
  8 active torsions:
  status: ('A' for Active; 'I' for Inactive)
    1  A    between atoms: C_3  and  C_6
    2  A    between atoms: C_3  and  O_23
    3  A    between atoms: N_5  and  C_26
    4  A    between atoms: C_6  and  O_8
    5  A    between atoms: O_8  and  C_15
    6  A    between atoms: N_9  and  O_23
    7  A    between atoms: C_12  and  C_30
    8  A    between atoms: C_15  and  C_30
                            x       y       z     vdW  Elec       q    Type
                         _______ _______ _______ _____ _____    ______ ____

>  <TORSDO>
F 8

$$$$
=
 OpenBabel10232409363D

 33 36  0  0  1  0  0  0  0  0999 V2000
  190.0110  177.1200  140.8070 C   0  0  0  0  0  0  0  0  0  0  0  0
  191.4770  176.8530  139.2770 N   0  0  0  0  0  0  0  0  0  0  0  0
  190.1790  176.7530  139.5260 N   0  0  0  0  0  0  0  0  0  0  0  0
  190.0740  178.3210  143.3880 C   0  0  0  0  0  2  0  0  0  0  0  0
  188.7060  177.2330  141.5290 C   0  0  0  0  0  2  0  0  0  0  0  0
  192.1600  177.2870  140.3620 C   0  0  0  0  0  3  0  0  0  0  0  0
  191.2170  177.4870  141.3480 C   0  0  0  0  0  0  0  0  0  0  0  0
  188.9500  177.3260  143.0450 C   0  0  2  0  0  3  0  0  0  0  0  0
  191.4130  177.8830  142.7760 C   0  0  0  0  0  2  0  0  0  0  0  0
  182.9270  178.7830  143.0980 C   0  0  0  0  0  0  0  0  0  0  0  0
  185.2610  178.4210  145.0670 C   0  0  0  0  0  2  0  0  0  0  0  0
  182.2090  178.7390  140.6940 C   0  0  0  0  0  1  0  0  0  0  0  0
  187.7180  177.6930  143.7330 N   0  0  0  0  0  0  0  0  0  0  0  0
  180.5510  179.3020  142.4740 C   0  0  0  0  0  1  0  0  0  0  0  0
  188.9580  177.6480  146.2350 S   0  0  0  0  0  0  0  0  0  0  0  0
  188.0050  178.0140  147.5800 C   0  0  0  0  0  0  0  0  0  0  0  0
  188.4970  178.0370  148.9820 C   0  0  0  0  0  1  0  0  0  0  0  0
  186.5310  177.9060  143.0050 N   0  0  0  0  0  0  0  0  0  0  0  0
  184.2590  178.4250  142.7030 N   0  0  0  0  0  2  0  0  0  0  0  0
  187.6910  177.8430  145.1490 C   0  0  0  0  0  0  0  0  0  0  0  0
  181.9080  178.9390  142.1010 N   0  0  0  0  0  0  0  0  0  0  0  0
  185.3940  178.2370  143.5600 C   0  0  0  0  0  0  0  0  0  0  0  0
  186.5390  178.1880  145.8080 C   0  0  0  0  0  0  0  0  0  0  0  0
  182.6440  178.9640  144.3140 O   0  0  0  0  0  0  0  0  0  0  0  0
  186.6950  178.2910  147.1950 C   0  0  0  0  0  3  0  0  0  0  0  0
  192.0250  176.5370  138.0510 O   0  0  0  0  0  0  0  0  0  0  0  0
  192.6460  175.2800  137.8110 C   0  0  0  0  0  2  0  0  0  0  0  0
  191.7940  174.4590  136.8620 C   0  0  0  0  0  2  0  0  0  0  0  0
  190.7060  173.9190  137.5500 O   0  0  0  0  0  0  0  0  0  0  0  0
  189.6710  173.9080  136.6140 C   0  0  0  0  0  2  0  0  0  0  0  0
  188.6370  174.9590  136.9740 C   0  0  0  0  0  2  0  0  0  0  0  0
  188.3550  175.8490  135.7800 C   0  0  0  0  0  2  0  0  0  0  0  0
  189.0470  177.4980  136.0790 S   0  0  0  0  0  1  0  0  0  0  0  0
  1  7  1  0  0  0  0
  1  5  1  0  0  0  0
  2  3  1  0  0  0  0
  2  6  1  0  0  0  0
  3  1  2  0  0  0  0
  6  7  2  0  0  0  0
  7  9  1  0  0  0  0
  8  5  1  6  0  0  0
  8  4  1  0  0  0  0
  8 13  1  0  0  0  0
  9  4  1  0  0  0  0
 10 24  2  0  0  0  0
 11 23  1  0  0  0  0
 12 21  1  0  0  0  0
 13 20  1  0  0  0  0
 15 16  1  0  0  0  0
 16 17  1  0  0  0  0
 18 22  2  0  0  0  0
 18 13  1  0  0  0  0
 19 10  1  0  0  0  0
 19 22  1  0  0  0  0
 20 23  2  0  0  0  0
 20 15  1  0  0  0  0
 21 14  1  0  0  0  0
 21 10  1  0  0  0  0
 22 11  1  0  0  0  0
 23 25  1  0  0  0  0
 25 16  2  0  0  0  0
 26  2  1  0  0  0  0
 27 26  1  0  0  0  0
 28 29  1  0  0  0  0
 28 27  1  0  0  0  0
 30 31  1  0  0  0  0
 30 29  1  0  0  0  0
 32 33  1  0  0  0  0
 32 31  1  0  0  0  0
M  END
>  <MODEL>
2

>  <REMARK>
 VINA RESULT:      -8.6      2.049      2.946
  Name = 
  8 active torsions:
  status: ('A' for Active; 'I' for Inactive)
    1  A    between atoms: C_3  and  C_6
    2  A    between atoms: C_3  and  O_23
    3  A    between atoms: N_5  and  C_26
    4  A    between atoms: C_6  and  O_8
    5  A    between atoms: O_8  and  C_15
    6  A    between atoms: N_9  and  O_23
    7  A    between atoms: C_12  and  C_30
    8  A    between atoms: C_15  and  C_30
                            x       y       z     vdW  Elec       q    Type
                         _______ _______ _______ _____ _____    ______ ____

>  <TORSDO>
F 8

$$$$
=
 OpenBabel10232409363D

 33 36  0  0  1  0  0  0  0  0999 V2000
  188.8850  177.2950  143.2570 C   0  0  0  0  0  0  0  0  0  0  0  0
  187.9890  177.3380  145.1960 N   0  0  0  0  0  0  0  0  0  0  0  0
  187.7630  177.0010  143.9340 N   0  0  0  0  0  0  0  0  0  0  0  0
  191.5430  177.7020  142.3210 C   0  0  0  0  0  2  0  0  0  0  0  0
  189.1360  177.0300  141.8070 C   0  0  0  0  0  2  0  0  0  0  0  0
  189.2370  177.8360  145.3610 C   0  0  0  0  0  3  0  0  0  0  0  0
  189.8320  177.7870  144.1180 C   0  0  0  0  0  0  0  0  0  0  0  0
  190.3670  177.8200  141.3330 C   0  0  2  0  0  3  0  0  0  0  0  0
  191.1770  178.2830  143.6950 C   0  0  0  0  0  2  0  0  0  0  0  0
  194.3720  175.1420  137.4340 C   0  0  0  0  0  0  0  0  0  0  0  0
  191.6040  176.4820  137.3860 C   0  0  0  0  0  2  0  0  0  0  0  0
  196.3360  174.4790  138.8470 C   0  0  0  0  0  1  0  0  0  0  0  0
  190.7720  177.3750  140.0050 N   0  0  0  0  0  0  0  0  0  0  0  0
  196.3500  173.9950  136.3970 C   0  0  0  0  0  1  0  0  0  0  0  0
  188.4120  178.3060  138.8390 S   0  0  0  0  0  0  0  0  0  0  0  0
  188.2280  178.0850  137.1750 C   0  0  0  0  0  0  0  0  0  0  0  0
  187.0410  178.5160  136.3920 C   0  0  0  0  0  1  0  0  0  0  0  0
  192.0140  176.7360  139.8150 N   0  0  0  0  0  0  0  0  0  0  0  0
  193.7210  175.6790  138.5950 N   0  0  0  0  0  2  0  0  0  0  0  0
  189.9250  177.5770  138.8780 C   0  0  0  0  0  0  0  0  0  0  0  0
  195.6700  174.5450  137.5580 N   0  0  0  0  0  0  0  0  0  0  0  0
  192.4360  176.3140  138.6510 C   0  0  0  0  0  0  0  0  0  0  0  0
  190.2940  177.1630  137.6240 C   0  0  0  0  0  0  0  0  0  0  0  0
  193.8120  175.1920  136.3040 O   0  0  0  0  0  0  0  0  0  0  0  0
  189.3420  177.4430  136.6380 C   0  0  0  0  0  3  0  0  0  0  0  0
  187.0400  177.1920  146.1860 O   0  0  0  0  0  0  0  0  0  0  0  0
  186.5050  178.3110  146.8820 C   0  0  0  0  0  2  0  0  0  0  0  0
  185.6380  179.1310  145.9460 C   0  0  0  0  0  2  0  0  0  0  0  0
  184.3030  178.7510  146.0850 O   0  0  0  0  0  0  0  0  0  0  0  0
  183.7130  179.0920  144.8670 C   0  0  0  0  0  2  0  0  0  0  0  0
  184.7720  179.1720  143.7840 C   0  0  0  0  0  2  0  0  0  0  0  0
  184.3710  178.3220  142.5940 C   0  0  0  0  0  2  0  0  0  0  0  0
  185.2040  178.9340  141.1050 S   0  0  0  0  0  1  0  0  0  0  0  0
  1  3  2  0  0  0  0
  1  7  1  0  0  0  0
  2  6  1  0  0  0  0
  2 26  1  0  0  0  0
  3  2  1  0  0  0  0
  4  9  1  0  0  0  0
  5  1  1  0  0  0  0
  7  6  2  0  0  0  0
  8 13  1  6  0  0  0
  8  5  1  0  0  0  0
  8  4  1  0  0  0  0
  9  7  1  0  0  0  0
 10 21  1  0  0  0  0
 10 19  1  0  0  0  0
 11 23  1  0  0  0  0
 11 22  1  0  0  0  0
 14 21  1  0  0  0  0
 15 20  1  0  0  0  0
 16 15  1  0  0  0  0
 17 16  1  0  0  0  0
 18 13  1  0  0  0  0
 19 22  1  0  0  0  0
 20 13  1  0  0  0  0
 21 12  1  0  0  0  0
 22 18  2  0  0  0  0
 23 20  2  0  0  0  0
 24 10  2  0  0  0  0
 25 16  2  0  0  0  0
 25 23  1  0  0  0  0
 26 27  1  0  0  0  0
 28 29  1  0  0  0  0
 28 27  1  0  0  0  0
 30 29  1  0  0  0  0
 31 30  1  0  0  0  0
 32 31  1  0  0  0  0
 33 32  1  0  0  0  0
M  END
>  <MODEL>
3

>  <REMARK>
 VINA RESULT:      -8.1      2.960     10.359
  Name = 
  8 active torsions:
  status: ('A' for Active; 'I' for Inactive)
    1  A    between atoms: C_3  and  C_6
    2  A    between atoms: C_3  and  O_23
    3  A    between atoms: N_5  and  C_26
    4  A    between atoms: C_6  and  O_8
    5  A    between atoms: O_8  and  C_15
    6  A    between atoms: N_9  and  O_23
    7  A    between atoms: C_12  and  C_30
    8  A    between atoms: C_15  and  C_30
                            x       y       z     vdW  Elec       q    Type
                         _______ _______ _______ _____ _____    ______ ____

>  <TORSDO>
F 8

$$$$
=
 OpenBabel10232409363D

 33 36  0  0  1  0  0  0  0  0999 V2000
  189.1430  177.2330  143.8440 C   0  0  0  0  0  0  0  0  0  0  0  0
  188.9660  177.4310  145.9630 N   0  0  0  0  0  0  0  0  0  0  0  0
  188.3480  176.9580  144.8900 N   0  0  0  0  0  0  0  0  0  0  0  0
  191.2780  177.6640  142.0100 C   0  0  0  0  0  2  0  0  0  0  0  0
  188.9010  176.8340  142.4230 C   0  0  0  0  0  2  0  0  0  0  0  0
  190.1530  177.9990  145.6430 C   0  0  0  0  0  3  0  0  0  0  0  0
  190.2870  177.8520  144.2780 C   0  0  0  0  0  0  0  0  0  0  0  0
  189.8300  177.6270  141.4880 C   0  0  2  0  0  3  0  0  0  0  0  0
  191.3620  178.3630  143.3740 C   0  0  0  0  0  2  0  0  0  0  0  0
  192.2650  174.3210  136.8460 C   0  0  0  0  0  0  0  0  0  0  0  0
  189.7340  175.9500  137.4790 C   0  0  0  0  0  2  0  0  0  0  0  0
  194.4890  173.5250  137.6910 C   0  0  0  0  0  1  0  0  0  0  0  0
  189.7880  177.0700  140.1420 N   0  0  0  0  0  0  0  0  0  0  0  0
  193.7440  172.9110  135.3880 C   0  0  0  0  0  1  0  0  0  0  0  0
  187.2820  178.1880  139.6240 S   0  0  0  0  0  0  0  0  0  0  0  0
  186.6000  177.8980  138.1060 C   0  0  0  0  0  0  0  0  0  0  0  0
  185.2790  178.4130  137.6620 C   0  0  0  0  0  1  0  0  0  0  0  0
  190.8570  176.2900  139.6590 N   0  0  0  0  0  0  0  0  0  0  0  0
  192.0330  174.9880  138.0960 N   0  0  0  0  0  2  0  0  0  0  0  0
  188.6690  177.3020  139.2910 C   0  0  0  0  0  0  0  0  0  0  0  0
  193.4840  173.5940  136.6450 N   0  0  0  0  0  0  0  0  0  0  0  0
  190.8820  175.7620  138.4630 C   0  0  0  0  0  0  0  0  0  0  0  0
  188.6170  176.7830  138.0220 C   0  0  0  0  0  0  0  0  0  0  0  0
  191.4060  174.3700  135.9240 O   0  0  0  0  0  0  0  0  0  0  0  0
  187.4470  177.1110  137.3300 C   0  0  0  0  0  3  0  0  0  0  0  0
  188.4290  177.3430  147.2310 O   0  0  0  0  0  0  0  0  0  0  0  0
  187.0290  177.4510  147.4590 C   0  0  0  0  0  2  0  0  0  0  0  0
  186.6190  178.9110  147.4530 C   0  0  0  0  0  2  0  0  0  0  0  0
  185.2750  179.0230  147.0960 O   0  0  0  0  0  0  0  0  0  0  0  0
  185.2750  178.9500  145.7020 C   0  0  0  0  0  2  0  0  0  0  0  0
  183.8550  178.7880  145.1920 C   0  0  0  0  0  2  0  0  0  0  0  0
  183.7280  179.3760  143.8000 C   0  0  0  0  0  2  0  0  0  0  0  0
  184.7380  178.4140  142.6430 S   0  0  0  0  0  1  0  0  0  0  0  0
  1  7  1  0  0  0  0
  1  3  2  0  0  0  0
  2 26  1  0  0  0  0
  3  2  1  0  0  0  0
  4  9  1  0  0  0  0
  5  1  1  0  0  0  0
  6  2  1  0  0  0  0
  7  6  2  0  0  0  0
  8 13  1  6  0  0  0
  8  4  1  0  0  0  0
  8  5  1  0  0  0  0
  9  7  1  0  0  0  0
 10 19  1  0  0  0  0
 11 23  1  0  0  0  0
 11 22  1  0  0  0  0
 14 21  1  0  0  0  0
 16 15  1  0  0  0  0
 17 16  1  0  0  0  0
 18 13  1  0  0  0  0
 19 22  1  0  0  0  0
 20 15  1  0  0  0  0
 20 13  1  0  0  0  0
 21 10  1  0  0  0  0
 21 12  1  0  0  0  0
 22 18  2  0  0  0  0
 23 20  2  0  0  0  0
 24 10  2  0  0  0  0
 25 23  1  0  0  0  0
 25 16  2  0  0  0  0
 26 27  1  0  0  0  0
 28 27  1  0  0  0  0
 29 28  1  0  0  0  0
 30 29  1  0  0  0  0
 31 30  1  0  0  0  0
 32 31  1  0  0  0  0
 33 32  1  0  0  0  0
M  END
>  <MODEL>
4

>  <REMARK>
 VINA RESULT:      -7.8      3.353      9.991
  Name = 
  8 active torsions:
  status: ('A' for Active; 'I' for Inactive)
    1  A    between atoms: C_3  and  C_6
    2  A    between atoms: C_3  and  O_23
    3  A    between atoms: N_5  and  C_26
    4  A    between atoms: C_6  and  O_8
    5  A    between atoms: O_8  and  C_15
    6  A    between atoms: N_9  and  O_23
    7  A    between atoms: C_12  and  C_30
    8  A    between atoms: C_15  and  C_30
                            x       y       z     vdW  Elec       q    Type
                         _______ _______ _______ _____ _____    ______ ____

>  <TORSDO>
F 8

$$$$
=
 OpenBabel10232409363D

 33 36  0  0  1  0  0  0  0  0999 V2000
  189.7500  177.9580  142.5910 C   0  0  0  0  0  0  0  0  0  0  0  0
  191.1710  177.6890  144.1620 N   0  0  0  0  0  0  0  0  0  0  0  0
  189.9400  178.1100  143.9110 N   0  0  0  0  0  0  0  0  0  0  0  0
  189.6560  177.1180  139.8720 C   0  0  0  0  0  2  0  0  0  0  0  0
  188.4850  178.2370  141.8440 C   0  0  0  0  0  2  0  0  0  0  0  0
  191.7880  177.2560  143.0370 C   0  0  0  0  0  3  0  0  0  0  0  0
  190.8670  177.4020  142.0210 C   0  0  0  0  0  0  0  0  0  0  0  0
  188.7660  178.2880  140.3320 C   0  0  2  0  0  3  0  0  0  0  0  0
  191.0310  177.1600  140.5550 C   0  0  0  0  0  2  0  0  0  0  0  0
  182.6000  178.7890  139.9770 C   0  0  0  0  0  0  0  0  0  0  0  0
  185.0170  178.3280  138.1340 C   0  0  0  0  0  2  0  0  0  0  0  0
  181.8230  179.1460  142.3370 C   0  0  0  0  0  1  0  0  0  0  0  0
  187.5150  178.3000  139.5850 N   0  0  0  0  0  0  0  0  0  0  0  0
  180.1550  179.0650  140.4800 C   0  0  0  0  0  1  0  0  0  0  0  0
  188.8190  177.8600  137.1550 S   0  0  0  0  0  0  0  0  0  0  0  0
  187.8620  177.7610  135.7670 C   0  0  0  0  0  0  0  0  0  0  0  0
  188.3850  177.5330  134.3950 C   0  0  0  0  0  1  0  0  0  0  0  0
  186.2890  178.4960  140.2510 N   0  0  0  0  0  0  0  0  0  0  0  0
  183.9580  178.7270  140.4370 N   0  0  0  0  0  2  0  0  0  0  0  0
  187.5060  178.1120  138.1730 C   0  0  0  0  0  0  0  0  0  0  0  0
  181.5390  178.9980  140.9200 N   0  0  0  0  0  0  0  0  0  0  0  0
  185.1330  178.5170  139.6410 C   0  0  0  0  0  0  0  0  0  0  0  0
  186.3360  178.1210  137.4590 C   0  0  0  0  0  0  0  0  0  0  0  0
  182.3310  178.6610  138.7520 O   0  0  0  0  0  0  0  0  0  0  0  0
  186.5150  177.9230  136.0860 C   0  0  0  0  0  3  0  0  0  0  0  0
  191.7230  177.7130  145.4260 O   0  0  0  0  0  0  0  0  0  0  0  0
  191.6240  176.6000  146.3070 C   0  0  0  0  0  2  0  0  0  0  0  0
  190.7060  176.9400  147.4640 C   0  0  0  0  0  2  0  0  0  0  0  0
  189.4020  176.5440  147.1660 O   0  0  0  0  0  0  0  0  0  0  0  0
  188.6460  177.7120  147.2800 C   0  0  0  0  0  2  0  0  0  0  0  0
  187.4010  177.6090  146.4190 C   0  0  0  0  0  2  0  0  0  0  0  0
  186.3020  178.4920  146.9780 C   0  0  0  0  0  2  0  0  0  0  0  0
  185.0490  178.7800  145.7000 S   0  0  0  0  0  1  0  0  0  0  0  0
  1  3  2  0  0  0  0
  2 26  1  0  0  0  0
  3  2  1  0  0  0  0
  4  8  1  0  0  0  0
  4  9  1  0  0  0  0
  5  1  1  0  0  0  0
  6  2  1  0  0  0  0
  7  1  1  0  0  0  0
  7  6  2  0  0  0  0
  8 13  1  6  0  0  0
  8  5  1  0  0  0  0
  9  7  1  0  0  0  0
 10 19  1  0  0  0  0
 10 21  1  0  0  0  0
 11 22  1  0  0  0  0
 13 18  1  0  0  0  0
 14 21  1  0  0  0  0
 15 20  1  0  0  0  0
 16 25  2  0  0  0  0
 16 15  1  0  0  0  0
 17 16  1  0  0  0  0
 20 13  1  0  0  0  0
 21 12  1  0  0  0  0
 22 18  2  0  0  0  0
 22 19  1  0  0  0  0
 23 11  1  0  0  0  0
 23 20  2  0  0  0  0
 24 10  2  0  0  0  0
 25 23  1  0  0  0  0
 26 27  1  0  0  0  0
 27 28  1  0  0  0  0
 29 30  1  0  0  0  0
 29 28  1  0  0  0  0
 31 32  1  0  0  0  0
 31 30  1  0  0  0  0
 33 32  1  0  0  0  0
M  END
>  <MODEL>
5

>  <REMARK>
 VINA RESULT:      -7.8      3.907      7.867
  Name = 
  8 active torsions:
  status: ('A' for Active; 'I' for Inactive)
    1  A    between atoms: C_3  and  C_6
    2  A    between atoms: C_3  and  O_23
    3  A    between atoms: N_5  and  C_26
    4  A    between atoms: C_6  and  O_8
    5  A    between atoms: O_8  and  C_15
    6  A    between atoms: N_9  and  O_23
    7  A    between atoms: C_12  and  C_30
    8  A    between atoms: C_15  and  C_30
                            x       y       z     vdW  Elec       q    Type
                         _______ _______ _______ _____ _____    ______ ____

>  <TORSDO>
F 8

$$$$
=
 OpenBabel10232409363D

 33 36  0  0  1  0  0  0  0  0999 V2000
  184.7210  178.6690  143.2150 C   0  0  0  0  0  0  0  0  0  0  0  0
  182.6920  179.1790  143.6430 N   0  0  0  0  0  0  0  0  0  0  0  0
  183.5690  179.0690  142.6550 N   0  0  0  0  0  0  0  0  0  0  0  0
  186.8020  177.4700  144.7450 C   0  0  0  0  0  2  0  0  0  0  0  0
  185.9880  178.3440  142.4900 C   0  0  0  0  0  2  0  0  0  0  0  0
  183.2430  178.8490  144.8350 C   0  0  0  0  0  3  0  0  0  0  0  0
  184.5470  178.4930  144.5640 C   0  0  0  0  0  0  0  0  0  0  0  0
  187.1610  178.2770  143.4830 C   0  0  2  0  0  3  0  0  0  0  0  0
  185.6420  178.1200  145.5120 C   0  0  0  0  0  2  0  0  0  0  0  0
  190.3790  176.5900  138.4630 C   0  0  0  0  0  0  0  0  0  0  0  0
  190.6610  176.6000  141.5250 C   0  0  0  0  0  2  0  0  0  0  0  0
  188.9040  177.1420  136.5090 C   0  0  0  0  0  1  0  0  0  0  0  0
  188.3390  177.7130  142.8370 N   0  0  0  0  0  0  0  0  0  0  0  0
  191.1500  176.1240  136.1190 C   0  0  0  0  0  1  0  0  0  0  0  0
  189.6090  177.2490  145.2800 S   0  0  0  0  0  0  0  0  0  0  0  0
  191.1460  176.5500  145.2360 C   0  0  0  0  0  0  0  0  0  0  0  0
  191.9640  176.2340  146.4360 C   0  0  0  0  0  1  0  0  0  0  0  0
  188.4060  177.6180  141.4320 N   0  0  0  0  0  0  0  0  0  0  0  0
  189.3720  177.0840  139.3580 N   0  0  0  0  0  2  0  0  0  0  0  0
  189.4420  177.2480  143.6080 C   0  0  0  0  0  0  0  0  0  0  0  0
  190.1470  176.6190  137.0480 N   0  0  0  0  0  0  0  0  0  0  0  0
  189.4320  177.1230  140.7910 C   0  0  0  0  0  0  0  0  0  0  0  0
  190.5570  176.7150  143.0120 C   0  0  0  0  0  0  0  0  0  0  0  0
  191.4650  176.1300  138.9090 O   0  0  0  0  0  0  0  0  0  0  0  0
  191.5400  176.3110  143.9220 C   0  0  0  0  0  3  0  0  0  0  0  0
  181.3910  179.5890  143.4410 O   0  0  0  0  0  0  0  0  0  0  0  0
  180.4750  178.8210  142.6700 C   0  0  0  0  0  2  0  0  0  0  0  0
  180.1210  179.5670  141.3980 C   0  0  0  0  0  2  0  0  0  0  0  0
  181.0290  179.2400  140.3900 O   0  0  0  0  0  0  0  0  0  0  0  0
  181.1170  177.8480  140.4370 C   0  0  0  0  0  2  0  0  0  0  0  0
  182.2750  177.3740  139.5780 C   0  0  0  0  0  2  0  0  0  0  0  0
  182.7080  178.4730  138.6270 C   0  0  0  0  0  2  0  0  0  0  0  0
  184.4000  178.9860  139.0260 S   0  0  0  0  0  1  0  0  0  0  0  0
  1  7  1  0  0  0  0
  2  6  1  0  0  0  0
  3  1  2  0  0  0  0
  3  2  1  0  0  0  0
  4  9  1  0  0  0  0
  5  1  1  0  0  0  0
  7  6  2  0  0  0  0
  7  9  1  0  0  0  0
  8  5  1  6  0  0  0
  8  4  1  0  0  0  0
 10 24  2  0  0  0  0
 10 19  1  0  0  0  0
 11 23  1  0  0  0  0
 12 21  1  0  0  0  0
 13  8  1  0  0  0  0
 13 20  1  0  0  0  0
 14 21  1  0  0  0  0
 16 15  1  0  0  0  0
 16 17  1  0  0  0  0
 18 13  1  0  0  0  0
 19 22  1  0  0  0  0
 20 15  1  0  0  0  0
 21 10  1  0  0  0  0
 22 18  2  0  0  0  0
 22 11  1  0  0  0  0
 23 20  2  0  0  0  0
 23 25  1  0  0  0  0
 25 16  2  0  0  0  0
 26  2  1  0  0  0  0
 27 26  1  0  0  0  0
 28 27  1  0  0  0  0
 29 30  1  0  0  0  0
 29 28  1  0  0  0  0
 31 30  1  0  0  0  0
 32 33  1  0  0  0  0
 32 31  1  0  0  0  0
M  END
>  <MODEL>
6

>  <REMARK>
 VINA RESULT:      -7.7      3.311      9.197
  Name = 
  8 active torsions:
  status: ('A' for Active; 'I' for Inactive)
    1  A    between atoms: C_3  and  C_6
    2  A    between atoms: C_3  and  O_23
    3  A    between atoms: N_5  and  C_26
    4  A    between atoms: C_6  and  O_8
    5  A    between atoms: O_8  and  C_15
    6  A    between atoms: N_9  and  O_23
    7  A    between atoms: C_12  and  C_30
    8  A    between atoms: C_15  and  C_30
                            x       y       z     vdW  Elec       q    Type
                         _______ _______ _______ _____ _____    ______ ____

>  <TORSDO>
F 8

$$$$
=
 OpenBabel10232409363D

 33 36  0  0  1  0  0  0  0  0999 V2000
  190.1390  176.6390  139.6880 C   0  0  0  0  0  0  0  0  0  0  0  0
  191.3950  175.9830  138.0900 N   0  0  0  0  0  0  0  0  0  0  0  0
  191.0810  175.7430  139.3550 N   0  0  0  0  0  0  0  0  0  0  0  0
  187.9300  178.4310  139.8310 C   0  0  0  0  0  2  0  0  0  0  0  0
  189.4230  176.7220  140.9980 C   0  0  0  0  0  2  0  0  0  0  0  0
  190.6710  177.0100  137.5850 C   0  0  0  0  0  3  0  0  0  0  0  0
  189.8370  177.4230  138.6030 C   0  0  0  0  0  0  0  0  0  0  0  0
  188.6970  178.0740  141.1180 C   0  0  2  0  0  3  0  0  0  0  0  0
  188.8820  178.5720  138.6340 C   0  0  0  0  0  2  0  0  0  0  0  0
  183.0800  178.6360  143.6740 C   0  0  0  0  0  0  0  0  0  0  0  0
  185.9810  178.0500  144.5100 C   0  0  0  0  0  2  0  0  0  0  0  0
  181.5330  179.1740  141.7730 C   0  0  0  0  0  1  0  0  0  0  0  0
  187.7950  178.0630  142.2620 N   0  0  0  0  0  0  0  0  0  0  0  0
  180.6290  178.9850  144.0930 C   0  0  0  0  0  1  0  0  0  0  0  0
  189.8650  177.4820  144.0440 S   0  0  0  0  0  0  0  0  0  0  0  0
  189.4630  177.3230  145.6770 C   0  0  0  0  0  0  0  0  0  0  0  0
  190.4330  177.0160  146.7590 C   0  0  0  0  0  1  0  0  0  0  0  0
  186.4190  178.3120  142.0880 N   0  0  0  0  0  0  0  0  0  0  0  0
  184.1840  178.5850  142.7570 N   0  0  0  0  0  2  0  0  0  0  0  0
  188.2850  177.8040  143.5740 C   0  0  0  0  0  0  0  0  0  0  0  0
  181.7640  178.9280  143.1850 N   0  0  0  0  0  0  0  0  0  0  0  0
  185.5580  178.3170  143.0720 C   0  0  0  0  0  0  0  0  0  0  0  0
  187.4460  177.7910  144.6600 C   0  0  0  0  0  0  0  0  0  0  0  0
  183.2580  178.4270  144.9050 O   0  0  0  0  0  0  0  0  0  0  0  0
  188.0970  177.5190  145.8680 C   0  0  0  0  0  3  0  0  0  0  0  0
  192.3520  175.2590  137.4110 O   0  0  0  0  0  0  0  0  0  0  0  0
  193.7050  175.6900  137.3390 C   0  0  0  0  0  2  0  0  0  0  0  0
  194.5930  174.7220  138.0970 C   0  0  0  0  0  2  0  0  0  0  0  0
  195.9320  174.9660  137.7880 O   0  0  0  0  0  0  0  0  0  0  0  0
  195.9490  175.1180  136.4000 C   0  0  0  0  0  2  0  0  0  0  0  0
  197.3420  175.5010  135.9390 C   0  0  0  0  0  2  0  0  0  0  0  0
  197.2760  176.2060  134.5980 C   0  0  0  0  0  2  0  0  0  0  0  0
  196.0410  177.5310  134.6720 S   0  0  0  0  0  1  0  0  0  0  0  0
  1  5  1  0  0  0  0
  2  3  1  0  0  0  0
  3  1  2  0  0  0  0
  5  8  1  0  0  0  0
  6  2  1  0  0  0  0
  6  7  2  0  0  0  0
  7  9  1  0  0  0  0
  7  1  1  0  0  0  0
  8  4  1  6  0  0  0
  8 13  1  0  0  0  0
  9  4  1  0  0  0  0
 10 24  2  0  0  0  0
 11 23  1  0  0  0  0
 12 21  1  0  0  0  0
 13 20  1  0  0  0  0
 15 16  1  0  0  0  0
 16 25  2  0  0  0  0
 16 17  1  0  0  0  0
 18 13  1  0  0  0  0
 18 22  2  0  0  0  0
 19 22  1  0  0  0  0
 19 10  1  0  0  0  0
 20 15  1  0  0  0  0
 20 23  2  0  0  0  0
 21 10  1  0  0  0  0
 21 14  1  0  0  0  0
 22 11  1  0  0  0  0
 23 25  1  0  0  0  0
 26  2  1  0  0  0  0
 27 26  1  0  0  0  0
 27 28  1  0  0  0  0
 29 28  1  0  0  0  0
 30 29  1  0  0  0  0
 31 30  1  0  0  0  0
 32 33  1  0  0  0  0
 32 31  1  0  0  0  0
M  END
>  <MODEL>
7

>  <REMARK>
 VINA RESULT:      -7.6      1.716      2.210
  Name = 
  8 active torsions:
  status: ('A' for Active; 'I' for Inactive)
    1  A    between atoms: C_3  and  C_6
    2  A    between atoms: C_3  and  O_23
    3  A    between atoms: N_5  and  C_26
    4  A    between atoms: C_6  and  O_8
    5  A    between atoms: O_8  and  C_15
    6  A    between atoms: N_9  and  O_23
    7  A    between atoms: C_12  and  C_30
    8  A    between atoms: C_15  and  C_30
                            x       y       z     vdW  Elec       q    Type
                         _______ _______ _______ _____ _____    ______ ____

>  <TORSDO>
F 8

$$$$
=
 OpenBabel10232409363D

 33 36  0  0  1  0  0  0  0  0999 V2000
  183.9780  178.7800  142.9740 C   0  0  0  0  0  0  0  0  0  0  0  0
  184.9590  178.8530  144.8700 N   0  0  0  0  0  0  0  0  0  0  0  0
  185.1840  178.7920  143.5650 N   0  0  0  0  0  0  0  0  0  0  0  0
  181.2790  179.1620  142.1520 C   0  0  0  0  0  2  0  0  0  0  0  0
  183.7170  178.7840  141.5020 C   0  0  0  0  0  2  0  0  0  0  0  0
  183.6340  178.8910  145.1450 C   0  0  0  0  0  3  0  0  0  0  0  0
  182.9930  178.8710  143.9240 C   0  0  0  0  0  0  0  0  0  0  0  0
  182.2510  178.4080  141.2260 C   0  0  2  0  0  3  0  0  0  0  0  0
  181.5290  178.8130  143.6260 C   0  0  0  0  0  2  0  0  0  0  0  0
  180.7770  182.1750  136.5310 C   0  0  0  0  0  0  0  0  0  0  0  0
  181.2610  179.1860  137.0660 C   0  0  0  0  0  2  0  0  0  0  0  0
  180.6800  184.4760  137.5280 C   0  0  0  0  0  1  0  0  0  0  0  0
  181.9200  178.6570  139.8290 N   0  0  0  0  0  0  0  0  0  0  0  0
  180.2150  184.1570  135.0960 C   0  0  0  0  0  1  0  0  0  0  0  0
  182.1140  175.9510  139.1710 S   0  0  0  0  0  0  0  0  0  0  0  0
  181.8230  175.5180  137.5650 C   0  0  0  0  0  0  0  0  0  0  0  0
  181.8830  174.1300  137.0400 C   0  0  0  0  0  1  0  0  0  0  0  0
  181.6610  179.9680  139.3800 N   0  0  0  0  0  0  0  0  0  0  0  0
  181.1170  181.6360  137.8170 N   0  0  0  0  0  2  0  0  0  0  0  0
  181.8520  177.5860  138.8930 C   0  0  0  0  0  0  0  0  0  0  0  0
  180.5610  183.5850  136.3870 N   0  0  0  0  0  0  0  0  0  0  0  0
  181.3580  180.2590  138.1420 C   0  0  0  0  0  0  0  0  0  0  0  0
  181.5410  177.8080  137.5750 C   0  0  0  0  0  0  0  0  0  0  0  0
  180.6660  181.4190  135.5280 O   0  0  0  0  0  0  0  0  0  0  0  0
  181.5190  176.6430  136.8010 C   0  0  0  0  0  3  0  0  0  0  0  0
  185.9770  178.8650  145.8010 O   0  0  0  0  0  0  0  0  0  0  0  0
  186.5050  177.6630  146.3490 C   0  0  0  0  0  2  0  0  0  0  0  0
  187.4700  177.9910  147.4720 C   0  0  0  0  0  2  0  0  0  0  0  0
  188.3470  176.9240  147.6680 O   0  0  0  0  0  0  0  0  0  0  0  0
  189.6130  177.4640  147.4400 C   0  0  0  0  0  2  0  0  0  0  0  0
  190.1040  177.0670  146.0600 C   0  0  0  0  0  2  0  0  0  0  0  0
  191.6070  176.8640  146.0760 C   0  0  0  0  0  2  0  0  0  0  0  0
  192.0570  175.7880  147.4640 S   0  0  0  0  0  1  0  0  0  0  0  0
  1  3  2  0  0  0  0
  1  7  1  0  0  0  0
  2  6  1  0  0  0  0
  2 26  1  0  0  0  0
  3  2  1  0  0  0  0
  4  9  1  0  0  0  0
  5  1  1  0  0  0  0
  7  6  2  0  0  0  0
  8 13  1  6  0  0  0
  8  5  1  0  0  0  0
  8  4  1  0  0  0  0
  9  7  1  0  0  0  0
 10 19  1  0  0  0  0
 11 23  1  0  0  0  0
 11 22  1  0  0  0  0
 14 21  1  0  0  0  0
 16 15  1  0  0  0  0
 17 16  1  0  0  0  0
 18 13  1  0  0  0  0
 19 22  1  0  0  0  0
 20 15  1  0  0  0  0
 20 13  1  0  0  0  0
 21 10  1  0  0  0  0
 21 12  1  0  0  0  0
 22 18  2  0  0  0  0
 23 20  2  0  0  0  0
 24 10  2  0  0  0  0
 25 16  2  0  0  0  0
 25 23  1  0  0  0  0
 26 27  1  0  0  0  0
 27 28  1  0  0  0  0
 28 29  1  0  0  0  0
 30 29  1  0  0  0  0
 31 32  1  0  0  0  0
 31 30  1  0  0  0  0
 32 33  1  0  0  0  0
M  END
>  <MODEL>
8

>  <REMARK>
 VINA RESULT:      -7.6      5.923      9.391
  Name = 
  8 active torsions:
  status: ('A' for Active; 'I' for Inactive)
    1  A    between atoms: C_3  and  C_6
    2  A    between atoms: C_3  and  O_23
    3  A    between atoms: N_5  and  C_26
    4  A    between atoms: C_6  and  O_8
    5  A    between atoms: O_8  and  C_15
    6  A    between atoms: N_9  and  O_23
    7  A    between atoms: C_12  and  C_30
    8  A    between atoms: C_15  and  C_30
                            x       y       z     vdW  Elec       q    Type
                         _______ _______ _______ _____ _____    ______ ____

>  <TORSDO>
F 8

$$$$
=
 OpenBabel10232409363D

 33 36  0  0  1  0  0  0  0  0999 V2000
  188.7090  177.2290  142.3830 C   0  0  0  0  0  0  0  0  0  0  0  0
  187.6740  177.3570  144.2470 N   0  0  0  0  0  0  0  0  0  0  0  0
  187.5270  177.0030  142.9780 N   0  0  0  0  0  0  0  0  0  0  0  0
  191.4460  177.4910  141.6430 C   0  0  0  0  0  2  0  0  0  0  0  0
  189.0540  176.9210  140.9610 C   0  0  0  0  0  2  0  0  0  0  0  0
  188.9290  177.7990  144.4970 C   0  0  0  0  0  3  0  0  0  0  0  0
  189.6130  177.6950  143.3040 C   0  0  0  0  0  0  0  0  0  0  0  0
  190.3550  177.6420  140.5660 C   0  0  2  0  0  3  0  0  0  0  0  0
  191.0080  178.1180  142.9740 C   0  0  0  0  0  2  0  0  0  0  0  0
  194.6090  174.8970  136.9930 C   0  0  0  0  0  0  0  0  0  0  0  0
  191.8180  176.1640  136.7500 C   0  0  0  0  0  2  0  0  0  0  0  0
  196.5150  174.3450  138.5290 C   0  0  0  0  0  1  0  0  0  0  0  0
  190.8360  177.1500  139.2820 N   0  0  0  0  0  0  0  0  0  0  0  0
  196.6620  173.7560  136.1070 C   0  0  0  0  0  1  0  0  0  0  0  0
  188.5160  177.9700  137.9610 S   0  0  0  0  0  0  0  0  0  0  0  0
  188.4210  177.6720  136.3010 C   0  0  0  0  0  0  0  0  0  0  0  0
  187.2650  178.0380  135.4420 C   0  0  0  0  0  1  0  0  0  0  0  0
  192.0990  176.5340  139.1810 N   0  0  0  0  0  0  0  0  0  0  0  0
  193.8890  175.4680  138.0960 N   0  0  0  0  0  2  0  0  0  0  0  0
  190.0420  177.2810  138.1070 C   0  0  0  0  0  0  0  0  0  0  0  0
  195.9130  174.3390  137.2070 N   0  0  0  0  0  0  0  0  0  0  0  0
  192.5890  176.0720  138.0600 C   0  0  0  0  0  0  0  0  0  0  0  0
  190.4820  176.8230  136.8920 C   0  0  0  0  0  0  0  0  0  0  0  0
  194.1060  174.8830  135.8360 O   0  0  0  0  0  0  0  0  0  0  0  0
  189.5740  177.0350  135.8490 C   0  0  0  0  0  3  0  0  0  0  0  0
  186.6480  177.2760  145.1650 O   0  0  0  0  0  0  0  0  0  0  0  0
  186.0100  178.4400  145.6780 C   0  0  0  0  0  2  0  0  0  0  0  0
  186.0800  178.4380  147.1930 C   0  0  0  0  0  2  0  0  0  0  0  0
  187.3180  178.9280  147.6100 O   0  0  0  0  0  0  0  0  0  0  0  0
  187.8550  177.9030  148.3910 C   0  0  0  0  0  2  0  0  0  0  0  0
  189.3570  177.8260  148.1830 C   0  0  0  0  0  2  0  0  0  0  0  0
  189.7230  176.5390  147.4710 C   0  0  0  0  0  2  0  0  0  0  0  0
  191.4970  176.5390  147.0960 S   0  0  0  0  0  1  0  0  0  0  0  0
  1  3  2  0  0  0  0
  1  7  1  0  0  0  0
  2  6  1  0  0  0  0
  2 26  1  0  0  0  0
  3  2  1  0  0  0  0
  4  9  1  0  0  0  0
  5  1  1  0  0  0  0
  7  6  2  0  0  0  0
  8 13  1  6  0  0  0
  8  5  1  0  0  0  0
  8  4  1  0  0  0  0
  9  7  1  0  0  0  0
 10 21  1  0  0  0  0
 10 19  1  0  0  0  0
 11 23  1  0  0  0  0
 11 22  1  0  0  0  0
 14 21  1  0  0  0  0
 15 20  1  0  0  0  0
 16 15  1  0  0  0  0
 17 16  1  0  0  0  0
 18 13  1  0  0  0  0
 20 13  1  0  0  0  0
 21 12  1  0  0  0  0
 22 19  1  0  0  0  0
 22 18  2  0  0  0  0
 23 20  2  0  0  0  0
 24 10  2  0  0  0  0
 25 16  2  0  0  0  0
 25 23  1  0  0  0  0
 26 27  1  0  0  0  0
 27 28  1  0  0  0  0
 28 29  1  0  0  0  0
 29 30  1  0  0  0  0
 31 30  1  0  0  0  0
 32 31  1  0  0  0  0
 33 32  1  0  0  0  0
M  END
>  <MODEL>
9

>  <REMARK>
 VINA RESULT:      -7.4      3.126     10.381
  Name = 
  8 active torsions:
  status: ('A' for Active; 'I' for Inactive)
    1  A    between atoms: C_3  and  C_6
    2  A    between atoms: C_3  and  O_23
    3  A    between atoms: N_5  and  C_26
    4  A    between atoms: C_6  and  O_8
    5  A    between atoms: O_8  and  C_15
    6  A    between atoms: N_9  and  O_23
    7  A    between atoms: C_12  and  C_30
    8  A    between atoms: C_15  and  C_30
                            x       y       z     vdW  Elec       q    Type
                         _______ _______ _______ _____ _____    ______ ____

>  <TORSDO>
F 8

$$$$
