=
 OpenBabel10232409123D

 59 67  0  0  1  0  0  0  0  0999 V2000
  190.7510  176.8920  139.5540 C   0  0  0  0  0  2  0  0  0  0  0  0
  184.9300  179.1280  141.3380 C   0  0  0  0  0  0  0  0  0  0  0  0
  181.3190  176.0070  135.1000 C   0  0  0  0  0  0  0  0  0  0  0  0
  186.3100  177.8140  143.4610 N   0  0  0  0  0  0  0  0  0  0  0  0
  181.8900  174.6340  135.0700 C   0  0  0  0  0  0  0  0  0  0  0  0
  184.8040  175.1050  137.4070 C   0  0  0  0  0  2  0  0  0  0  0  0
  184.1040  176.8390  139.1270 C   0  0  0  0  0  2  0  0  0  0  0  0
  182.9890  172.0750  135.0230 C   0  0  0  0  0  0  0  0  0  0  0  0
  183.6440  173.1110  135.7000 C   0  0  0  0  0  3  0  0  0  0  0  0
  183.1050  174.4050  135.7340 C   0  0  0  0  0  0  0  0  0  0  0  0
  184.4710  179.3320  142.7300 C   0  0  0  0  0  0  0  0  0  0  0  0
  188.6090  177.3170  140.7420 C   0  0  1  0  0  3  0  0  0  0  0  0
  184.7200  178.6160  145.0100 N   0  0  0  0  0  2  0  0  0  0  0  0
  187.9050  177.0400  141.9520 O   0  0  0  0  0  0  0  0  0  0  0  0
  184.2410  179.8880  140.2450 C   0  0  0  0  0  1  0  0  0  0  0  0
  188.9110  175.6040  136.3690 C   0  0  1  0  0  3  0  0  0  0  0  0
  188.1730  176.7390  135.9450 O   0  0  0  0  0  0  0  0  0  0  0  0
  183.2660  176.8740  136.4180 C   0  0  1  0  0  3  0  0  0  0  0  0
  185.4370  178.0290  137.4040 C   0  0  0  0  0  0  0  0  0  0  0  0
  185.3000  177.6370  138.6950 C   0  0  0  0  0  0  0  0  0  0  0  0
  185.9580  178.2750  141.0930 C   0  0  0  0  0  0  0  0  0  0  0  0
  189.1010  175.8250  137.8810 C   0  0  1  0  0  3  0  0  0  0  0  0
  184.3640  177.9450  136.3340 C   0  0  0  0  0  2  0  0  0  0  0  0
  184.3170  175.3500  138.8380 C   0  0  0  0  0  2  0  0  0  0  0  0
  188.0920  174.3480  136.1340 C   0  0  0  0  0  1  0  0  0  0  0  0
  185.1400  178.5670  143.7900 C   0  0  0  0  0  0  0  0  0  0  0  0
  186.7170  177.7000  142.2300 C   0  0  0  0  0  0  0  0  0  0  0  0
  189.8150  176.3760  140.6250 C   0  0  2  0  0  3  0  0  0  0  0  0
  187.6570  177.3520  139.5360 C   0  0  2  0  0  3  0  0  0  0  0  0
  190.5890  176.3110  141.9290 C   0  0  0  0  0  1  0  0  0  0  0  0
  190.5820  176.1200  138.2520 C   0  0  1  0  0  3  0  0  0  0  0  0
  187.7260  177.4600  137.0330 C   0  0  0  0  0  0  0  0  0  0  0  0
  181.7870  172.3650  134.3650 C   0  0  0  0  0  3  0  0  0  0  0  0
  180.0250  176.1440  135.8680 C   0  0  0  0  0  2  0  0  0  0  0  0
  188.1670  176.9650  138.1760 C   0  0  0  0  0  0  0  0  0  0  0  0
  182.2870  177.1540  135.2730 C   0  0  0  0  0  2  0  0  0  0  0  0
  181.2660  173.6210  134.4070 N   0  0  0  0  0  0  0  0  0  0  0  0
  186.7400  178.5670  136.9320 C   0  0  0  0  0  2  0  0  0  0  0  0
  186.3790  177.8230  139.7220 C   0  0  1  0  0  3  0  0  0  0  0  0
  180.0390  176.2890  134.3470 C   0  0  0  0  0  2  0  0  0  0  0  0
  183.7880  175.4820  136.4230 N   0  0  0  0  0  0  0  0  0  0  0  0
  183.5230  180.1190  142.9960 O   0  0  0  0  0  0  0  0  0  0  0  0
  184.7770  170.6090  135.6530 O   0  0  0  0  0  1  0  0  0  0  0  0
  183.5670  170.6870  134.9610 C   0  0  1  0  0  3  0  0  0  0  0  0
  182.5940  169.6650  135.5310 C   0  0  0  0  0  1  0  0  0  0  0  0
  191.3980  176.8220  137.1690 C   0  0  0  0  0  2  0  0  0  0  0  0
  192.2380  175.8480  136.4740 N   0  0  0  0  0  2  0  0  0  0  0  0
  193.8100  177.1130  137.6860 O   0  0  0  0  0  1  0  0  0  0  0  0
  193.6560  176.0810  136.7500 C   0  0  2  0  0  0  0  0  0  0  0  0
  194.3070  176.5080  135.4460 C   0  0  0  0  0  1  0  0  0  0  0  0
  194.3070  174.7830  137.2510 C   0  0  0  0  0  2  0  0  0  0  0  0
  194.7900  174.8420  138.6990 C   0  0  0  0  0  2  0  0  0  0  0  0
  195.8380  173.8570  138.9310 N   0  0  0  0  0  2  0  0  0  0  0  0
  197.0400  174.5650  139.3610 C   0  0  0  0  0  2  0  0  0  0  0  0
  198.2050  174.0900  138.6220 N   0  0  0  0  0  2  0  0  0  0  0  0
  197.9580  174.3190  137.2030 C   0  0  0  0  0  2  0  0  0  0  0  0
  199.2670  174.2550  136.4330 C   0  0  0  0  0  2  0  0  0  0  0  0
  199.1510  175.0160  135.1270 C   0  0  0  0  0  2  0  0  0  0  0  0
  197.9560  174.5050  134.3480 C   0  0  0  0  0  1  0  0  0  0  0  0
  1 28  1  0  0  0  0
  2 11  1  0  0  0  0
  3 36  1  0  0  0  0
  3 34  1  0  0  0  0
  4 26  1  0  0  0  0
  5  3  1  0  0  0  0
  5 10  1  0  0  0  0
  6 24  1  0  0  0  0
  8  9  1  0  0  0  0
  9 10  2  0  0  0  0
 10 41  1  0  0  0  0
 11 42  2  0  0  0  0
 11 26  1  0  0  0  0
 12 14  1  1  0  0  0
 14 27  1  0  0  0  0
 15  2  1  0  0  0  0
 16 25  1  1  0  0  0
 16 22  1  0  0  0  0
 17 16  1  0  0  0  0
 17 32  1  0  0  0  0
 18 36  1  6  0  0  0
 18 41  1  0  0  0  0
 19 20  2  0  0  0  0
 20  7  1  0  0  0  0
 21  2  2  0  0  0  0
 21 27  1  0  0  0  0
 22 35  1  6  0  0  0
 22 31  1  0  0  0  0
 23 18  1  0  0  0  0
 23 19  1  0  0  0  0
 24  7  1  0  0  0  0
 26 13  2  0  0  0  0
 27  4  2  0  0  0  0
 28 12  1  0  0  0  0
 28 30  1  1  0  0  0
 29 35  1  6  0  0  0
 29 39  1  0  0  0  0
 29 12  1  0  0  0  0
 31 46  1  6  0  0  0
 31  1  1  0  0  0  0
 32 35  2  0  0  0  0
 33 37  1  0  0  0  0
 33  8  2  0  0  0  0
 37  5  2  0  0  0  0
 38 32  1  0  0  0  0
 38 19  1  0  0  0  0
 39 20  1  1  0  0  0
 39 21  1  0  0  0  0
 40  3  1  0  0  0  0
 40 34  1  0  0  0  0
 41  6  1  0  0  0  0
 44  8  1  0  0  0  0
 44 45  1  1  0  0  0
 44 43  1  0  0  0  0
 47 49  1  0  0  0  0
 47 46  1  0  0  0  0
 49 50  1  6  0  0  0
 49 51  1  0  0  0  0
 49 48  1  0  0  0  0
 51 52  1  0  0  0  0
 52 53  1  0  0  0  0
 53 54  1  0  0  0  0
 55 54  1  0  0  0  0
 56 55  1  0  0  0  0
 57 56  1  0  0  0  0
 58 57  1  0  0  0  0
 59 58  1  0  0  0  0
M  END
>  <MODEL>
1

>  <REMARK>
 VINA RESULT:      -2.3      0.000      0.000
  Name = 
  12 active torsions:
  status: ('A' for Active; 'I' for Inactive)
    1  A    between atoms: C_1  and  N_27
    2  A    between atoms: C_1  and  C_43
    3  A    between atoms: C_5  and  C_29
    4  A    between atoms: C_12  and  C_37
    5  A    between atoms: C_24  and  C_40
    6  A    between atoms: C_24  and  N_46
    7  A    between atoms: N_27  and  C_28
    8  A    between atoms: C_28  and  C_40
    9  A    between atoms: C_29  and  C_59
   10  A    between atoms: N_33  and  C_56
   11  A    between atoms: N_33  and  C_59
   12  A    between atoms: N_46  and  C_56
                            x       y       z     vdW  Elec       q    Type
                         _______ _______ _______ _____ _____    ______ ____

>  <TORSDO>
F 12

$$$$
=
 OpenBabel10232409123D

 59 67  0  0  1  0  0  0  0  0999 V2000
  190.6190  177.1140  139.7080 C   0  0  0  0  0  2  0  0  0  0  0  0
  184.6860  179.1370  141.3720 C   0  0  0  0  0  0  0  0  0  0  0  0
  181.3030  175.7890  135.1240 C   0  0  0  0  0  0  0  0  0  0  0  0
  186.0840  177.9080  143.5340 N   0  0  0  0  0  0  0  0  0  0  0  0
  181.9290  174.4390  135.1220 C   0  0  0  0  0  0  0  0  0  0  0  0
  184.7840  175.0590  137.4960 C   0  0  0  0  0  2  0  0  0  0  0  0
  183.9880  176.7860  139.1800 C   0  0  0  0  0  2  0  0  0  0  0  0
  183.1300  171.9270  135.1270 C   0  0  0  0  0  0  0  0  0  0  0  0
  183.7320  172.9970  135.8000 C   0  0  0  0  0  3  0  0  0  0  0  0
  183.1410  174.2700  135.8070 C   0  0  0  0  0  0  0  0  0  0  0  0
  184.1970  179.3410  142.7530 C   0  0  0  0  0  0  0  0  0  0  0  0
  188.4440  177.4680  140.8580 C   0  0  1  0  0  3  0  0  0  0  0  0
  184.4380  178.6660  145.0470 N   0  0  0  0  0  2  0  0  0  0  0  0
  187.7320  177.1800  142.0600 O   0  0  0  0  0  0  0  0  0  0  0  0
  183.9840  179.8530  140.2580 C   0  0  0  0  0  1  0  0  0  0  0  0
  188.8830  175.7100  136.5140 C   0  0  1  0  0  3  0  0  0  0  0  0
  188.1080  176.8080  136.0630 O   0  0  0  0  0  0  0  0  0  0  0  0
  183.1920  176.7510  136.4590 C   0  0  1  0  0  3  0  0  0  0  0  0
  185.2990  178.0070  137.4610 C   0  0  0  0  0  0  0  0  0  0  0  0
  185.1570  177.6270  138.7560 C   0  0  0  0  0  0  0  0  0  0  0  0
  185.7510  178.3230  141.1540 C   0  0  0  0  0  0  0  0  0  0  0  0
  189.0400  175.9590  138.0260 C   0  0  1  0  0  3  0  0  0  0  0  0
  184.2470  177.8650  136.3770 C   0  0  0  0  0  2  0  0  0  0  0  0
  184.2650  175.3040  138.9150 C   0  0  0  0  0  2  0  0  0  0  0  0
  188.1200  174.4200  136.2840 C   0  0  0  0  0  1  0  0  0  0  0  0
  184.8790  178.6180  143.8340 C   0  0  0  0  0  0  0  0  0  0  0  0
  186.5140  177.7950  142.3110 C   0  0  0  0  0  0  0  0  0  0  0  0
  189.6880  176.5750  140.7720 C   0  0  2  0  0  3  0  0  0  0  0  0
  187.5100  177.4480  139.6360 C   0  0  2  0  0  3  0  0  0  0  0  0
  190.4430  176.5590  142.0890 C   0  0  0  0  0  1  0  0  0  0  0  0
  190.5020  176.3190  138.4150 C   0  0  1  0  0  3  0  0  0  0  0  0
  187.6140  177.5260  137.1340 C   0  0  0  0  0  0  0  0  0  0  0  0
  181.9280  172.1600  134.4470 C   0  0  0  0  0  3  0  0  0  0  0  0
  179.9920  175.8840  135.8690 C   0  0  0  0  0  2  0  0  0  0  0  0
  188.0570  177.0640  138.2900 C   0  0  0  0  0  0  0  0  0  0  0  0
  182.2210  176.9760  135.2950 C   0  0  0  0  0  2  0  0  0  0  0  0
  181.3570  173.3940  134.4630 N   0  0  0  0  0  0  0  0  0  0  0  0
  186.5870  178.5900  137.0020 C   0  0  0  0  0  2  0  0  0  0  0  0
  186.2110  177.8700  139.7970 C   0  0  1  0  0  3  0  0  0  0  0  0
  180.0250  176.0090  134.3470 C   0  0  0  0  0  2  0  0  0  0  0  0
  183.7690  175.3820  136.4910 N   0  0  0  0  0  0  0  0  0  0  0  0
  183.2140  180.0930  142.9930 O   0  0  0  0  0  0  0  0  0  0  0  0
  185.0550  170.5890  135.6280 O   0  0  0  0  0  1  0  0  0  0  0  0
  183.7640  170.5630  135.0930 C   0  0  1  0  0  3  0  0  0  0  0  0
  182.9230  169.5510  135.8580 C   0  0  0  0  0  1  0  0  0  0  0  0
  191.3070  177.0380  137.3350 C   0  0  0  0  0  2  0  0  0  0  0  0
  191.9930  176.0590  136.4950 N   0  0  0  0  0  2  0  0  0  0  0  0
  193.7350  176.9080  137.8300 O   0  0  0  0  0  1  0  0  0  0  0  0
  193.4180  175.9900  136.8200 C   0  0  2  0  0  0  0  0  0  0  0  0
  194.1880  176.3650  135.5650 C   0  0  0  0  0  1  0  0  0  0  0  0
  193.7860  174.5600  137.2420 C   0  0  0  0  0  2  0  0  0  0  0  0
  193.7940  173.5500  136.0960 C   0  0  0  0  0  2  0  0  0  0  0  0
  195.0250  172.7710  136.1080 N   0  0  0  0  0  2  0  0  0  0  0  0
  195.0390  171.9620  137.3240 C   0  0  0  0  0  2  0  0  0  0  0  0
  195.0120  170.5410  136.9930 N   0  0  0  0  0  2  0  0  0  0  0  0
  195.3460  169.7950  138.1990 C   0  0  0  0  0  2  0  0  0  0  0  0
  195.8570  168.4120  137.8270 C   0  0  0  0  0  2  0  0  0  0  0  0
  197.2190  168.1640  138.4470 C   0  0  0  0  0  2  0  0  0  0  0  0
  198.2490  169.0500  137.7760 C   0  0  0  0  0  1  0  0  0  0  0  0
  1 28  1  0  0  0  0
  2 11  1  0  0  0  0
  3 36  1  0  0  0  0
  3 34  1  0  0  0  0
  4 26  1  0  0  0  0
  5  3  1  0  0  0  0
  5 10  1  0  0  0  0
  6 24  1  0  0  0  0
  8  9  1  0  0  0  0
  9 10  2  0  0  0  0
 10 41  1  0  0  0  0
 11 42  2  0  0  0  0
 11 26  1  0  0  0  0
 12 14  1  1  0  0  0
 14 27  1  0  0  0  0
 15  2  1  0  0  0  0
 16 25  1  1  0  0  0
 16 22  1  0  0  0  0
 17 16  1  0  0  0  0
 17 32  1  0  0  0  0
 18 36  1  6  0  0  0
 18 41  1  0  0  0  0
 19 20  2  0  0  0  0
 20  7  1  0  0  0  0
 21  2  2  0  0  0  0
 21 27  1  0  0  0  0
 22 35  1  6  0  0  0
 22 31  1  0  0  0  0
 23 18  1  0  0  0  0
 23 19  1  0  0  0  0
 24  7  1  0  0  0  0
 26 13  2  0  0  0  0
 27  4  2  0  0  0  0
 28 12  1  0  0  0  0
 28 30  1  1  0  0  0
 29 35  1  6  0  0  0
 29 39  1  0  0  0  0
 29 12  1  0  0  0  0
 31 46  1  6  0  0  0
 31  1  1  0  0  0  0
 32 35  2  0  0  0  0
 33 37  1  0  0  0  0
 33  8  2  0  0  0  0
 37  5  2  0  0  0  0
 38 32  1  0  0  0  0
 38 19  1  0  0  0  0
 39 20  1  1  0  0  0
 39 21  1  0  0  0  0
 40  3  1  0  0  0  0
 40 34  1  0  0  0  0
 41  6  1  0  0  0  0
 44  8  1  0  0  0  0
 44 43  1  0  0  0  0
 44 45  1  1  0  0  0
 47 49  1  0  0  0  0
 47 46  1  0  0  0  0
 49 50  1  6  0  0  0
 49 51  1  0  0  0  0
 49 48  1  0  0  0  0
 52 53  1  0  0  0  0
 52 51  1  0  0  0  0
 53 54  1  0  0  0  0
 55 54  1  0  0  0  0
 55 56  1  0  0  0  0
 57 56  1  0  0  0  0
 57 58  1  0  0  0  0
 59 58  1  0  0  0  0
M  END
>  <MODEL>
2

>  <REMARK>
 VINA RESULT:      -2.2      1.717      2.025
  Name = 
  12 active torsions:
  status: ('A' for Active; 'I' for Inactive)
    1  A    between atoms: C_1  and  N_27
    2  A    between atoms: C_1  and  C_43
    3  A    between atoms: C_5  and  C_29
    4  A    between atoms: C_12  and  C_37
    5  A    between atoms: C_24  and  C_40
    6  A    between atoms: C_24  and  N_46
    7  A    between atoms: N_27  and  C_28
    8  A    between atoms: C_28  and  C_40
    9  A    between atoms: C_29  and  C_59
   10  A    between atoms: N_33  and  C_56
   11  A    between atoms: N_33  and  C_59
   12  A    between atoms: N_46  and  C_56
                            x       y       z     vdW  Elec       q    Type
                         _______ _______ _______ _____ _____    ______ ____

>  <TORSDO>
F 12

$$$$
=
 OpenBabel10232409123D

 59 67  0  0  1  0  0  0  0  0999 V2000
  181.7030  176.2840  137.1010 C   0  0  0  0  0  2  0  0  0  0  0  0
  185.4080  171.2360  135.4090 C   0  0  0  0  0  0  0  0  0  0  0  0
  192.0970  175.2130  136.4740 C   0  0  0  0  0  0  0  0  0  0  0  0
  183.4020  170.5480  137.3180 N   0  0  0  0  0  0  0  0  0  0  0  0
  191.8550  175.8740  137.7840 C   0  0  0  0  0  0  0  0  0  0  0  0
  188.1360  175.3720  138.0760 C   0  0  0  0  0  2  0  0  0  0  0  0
  187.5910  173.1750  136.9230 C   0  0  0  0  0  2  0  0  0  0  0  0
  191.3720  177.1170  140.2290 C   0  0  0  0  0  0  0  0  0  0  0  0
  190.3050  176.6510  139.4530 C   0  0  0  0  0  3  0  0  0  0  0  0
  190.5300  176.0230  138.2180 C   0  0  0  0  0  0  0  0  0  0  0  0
  185.0760  169.8100  135.6230 C   0  0  0  0  0  0  0  0  0  0  0  0
  182.8700  174.0900  137.0170 C   0  0  1  0  0  3  0  0  0  0  0  0
  183.8570  168.2550  136.9890 N   0  0  0  0  0  2  0  0  0  0  0  0
  182.9180  172.8030  137.6300 O   0  0  0  0  0  0  0  0  0  0  0  0
  186.4080  171.5810  134.3480 C   0  0  0  0  0  1  0  0  0  0  0  0
  185.0630  178.2400  137.3530 C   0  0  1  0  0  3  0  0  0  0  0  0
  185.7120  177.9220  136.1320 O   0  0  0  0  0  0  0  0  0  0  0  0
  189.6400  174.9400  136.0690 C   0  0  1  0  0  3  0  0  0  0  0  0
  187.1060  174.9840  135.2930 C   0  0  0  0  0  0  0  0  0  0  0  0
  186.6500  173.9540  136.0500 C   0  0  0  0  0  0  0  0  0  0  0  0
  184.7960  172.1830  136.1660 C   0  0  0  0  0  0  0  0  0  0  0  0
  184.1170  177.0510  137.5960 C   0  0  1  0  0  3  0  0  0  0  0  0
  188.5650  175.3170  135.0380 C   0  0  0  0  0  2  0  0  0  0  0  0
  187.8030  173.8890  138.2610 C   0  0  0  0  0  2  0  0  0  0  0  0
  186.0890  178.3150  138.4680 C   0  0  0  0  0  1  0  0  0  0  0  0
  184.1110  169.4820  136.6780 C   0  0  0  0  0  0  0  0  0  0  0  0
  183.6830  171.7930  137.0650 C   0  0  0  0  0  0  0  0  0  0  0  0
  182.0580  175.0470  137.8980 C   0  0  2  0  0  3  0  0  0  0  0  0
  184.2730  174.5690  136.6090 C   0  0  2  0  0  3  0  0  0  0  0  0
  180.7640  174.4030  138.3610 C   0  0  0  0  0  1  0  0  0  0  0  0
  182.6210  177.4480  137.4470 C   0  0  1  0  0  3  0  0  0  0  0  0
  185.4330  176.6220  135.7610 C   0  0  0  0  0  0  0  0  0  0  0  0
  192.6740  176.9560  139.7370 C   0  0  0  0  0  3  0  0  0  0  0  0
  192.7980  173.8770  136.5520 C   0  0  0  0  0  2  0  0  0  0  0  0
  184.5750  176.0410  136.5810 C   0  0  0  0  0  0  0  0  0  0  0  0
  190.9930  175.2940  135.4460 C   0  0  0  0  0  2  0  0  0  0  0  0
  192.8860  176.3400  138.5430 N   0  0  0  0  0  0  0  0  0  0  0  0
  186.1380  175.9170  134.6600 C   0  0  0  0  0  2  0  0  0  0  0  0
  185.1910  173.6340  136.1950 C   0  0  1  0  0  3  0  0  0  0  0  0
  193.5130  175.0900  135.9600 C   0  0  0  0  0  2  0  0  0  0  0  0
  189.4260  175.5520  137.4070 N   0  0  0  0  0  0  0  0  0  0  0  0
  185.6210  168.9040  134.9360 O   0  0  0  0  0  0  0  0  0  0  0  0
  189.8230  178.2520  141.6640 O   0  0  0  0  0  1  0  0  0  0  0  0
  191.1440  177.8120  141.5440 C   0  0  1  0  0  3  0  0  0  0  0  0
  191.4760  176.8940  142.7110 C   0  0  0  0  0  1  0  0  0  0  0  0
  182.3420  178.5860  136.4670 C   0  0  0  0  0  2  0  0  0  0  0  0
  181.1850  179.3560  136.9200 N   0  0  0  0  0  2  0  0  0  0  0  0
  180.2870  179.2520  139.0930 O   0  0  0  0  0  1  0  0  0  0  0  0
  181.3370  179.7620  138.3180 C   0  0  2  0  0  0  0  0  0  0  0  0
  181.2780  181.2790  138.3580 C   0  0  0  0  0  1  0  0  0  0  0  0
  182.6960  179.2850  138.8520 C   0  0  0  0  0  2  0  0  0  0  0  0
  182.9080  179.5390  140.3430 C   0  0  0  0  0  2  0  0  0  0  0  0
  183.7020  178.4720  140.9370 N   0  0  0  0  0  2  0  0  0  0  0  0
  184.0270  178.8560  142.3080 C   0  0  0  0  0  2  0  0  0  0  0  0
  182.8250  178.8670  143.1340 N   0  0  0  0  0  2  0  0  0  0  0  0
  183.1750  179.4500  144.4240 C   0  0  0  0  0  2  0  0  0  0  0  0
  184.6110  179.0980  144.7780 C   0  0  0  0  0  2  0  0  0  0  0  0
  184.6640  178.3500  146.0970 C   0  0  0  0  0  2  0  0  0  0  0  0
  185.7340  178.9590  146.9800 C   0  0  0  0  0  1  0  0  0  0  0  0
  1 31  1  0  0  0  0
  1 28  1  0  0  0  0
  2 11  1  0  0  0  0
  2 21  2  0  0  0  0
  3 34  1  0  0  0  0
  3  5  1  0  0  0  0
  5 10  2  0  0  0  0
  5 37  1  0  0  0  0
  6 24  1  0  0  0  0
  7 24  1  0  0  0  0
  8 44  1  0  0  0  0
  9  8  2  0  0  0  0
 10  9  1  0  0  0  0
 11 26  1  0  0  0  0
 12 14  1  1  0  0  0
 12 28  1  0  0  0  0
 15  2  1  0  0  0  0
 16 22  1  0  0  0  0
 16 25  1  1  0  0  0
 17 16  1  0  0  0  0
 18 23  1  6  0  0  0
 18 41  1  0  0  0  0
 19 20  2  0  0  0  0
 20  7  1  0  0  0  0
 21 39  1  0  0  0  0
 21 27  1  0  0  0  0
 22 35  1  6  0  0  0
 23 19  1  0  0  0  0
 26 13  2  0  0  0  0
 26  4  1  0  0  0  0
 27  4  2  0  0  0  0
 27 14  1  0  0  0  0
 28 30  1  6  0  0  0
 29 35  1  6  0  0  0
 29 12  1  0  0  0  0
 31 46  1  6  0  0  0
 31 22  1  0  0  0  0
 32 17  1  0  0  0  0
 32 35  2  0  0  0  0
 33  8  1  0  0  0  0
 36 18  1  0  0  0  0
 36  3  1  0  0  0  0
 37 33  2  0  0  0  0
 38 19  1  0  0  0  0
 38 32  1  0  0  0  0
 39 20  1  1  0  0  0
 39 29  1  0  0  0  0
 40  3  1  0  0  0  0
 40 34  1  0  0  0  0
 41  6  1  0  0  0  0
 41 10  1  0  0  0  0
 42 11  2  0  0  0  0
 44 43  1  0  0  0  0
 44 45  1  1  0  0  0
 46 47  1  0  0  0  0
 47 49  1  0  0  0  0
 49 50  1  1  0  0  0
 49 51  1  0  0  0  0
 49 48  1  0  0  0  0
 51 52  1  0  0  0  0
 52 53  1  0  0  0  0
 53 54  1  0  0  0  0
 54 55  1  0  0  0  0
 55 56  1  0  0  0  0
 56 57  1  0  0  0  0
 57 58  1  0  0  0  0
 58 59  1  0  0  0  0
M  END
>  <MODEL>
3

>  <REMARK>
 VINA RESULT:      -2.0      2.808     10.608
  Name = 
  12 active torsions:
  status: ('A' for Active; 'I' for Inactive)
    1  A    between atoms: C_1  and  N_27
    2  A    between atoms: C_1  and  C_43
    3  A    between atoms: C_5  and  C_29
    4  A    between atoms: C_12  and  C_37
    5  A    between atoms: C_24  and  C_40
    6  A    between atoms: C_24  and  N_46
    7  A    between atoms: N_27  and  C_28
    8  A    between atoms: C_28  and  C_40
    9  A    between atoms: C_29  and  C_59
   10  A    between atoms: N_33  and  C_56
   11  A    between atoms: N_33  and  C_59
   12  A    between atoms: N_46  and  C_56
                            x       y       z     vdW  Elec       q    Type
                         _______ _______ _______ _____ _____    ______ ____

>  <TORSDO>
F 12

$$$$
=
 OpenBabel10232409123D

 59 67  0  0  1  0  0  0  0  0999 V2000
  190.7150  176.8130  141.0220 C   0  0  0  0  0  2  0  0  0  0  0  0
  185.1490  179.1820  143.3610 C   0  0  0  0  0  0  0  0  0  0  0  0
  181.2820  177.9640  136.6340 C   0  0  0  0  0  0  0  0  0  0  0  0
  186.3640  177.2800  145.1060 N   0  0  0  0  0  0  0  0  0  0  0  0
  181.7050  176.5820  136.2820 C   0  0  0  0  0  0  0  0  0  0  0  0
  184.6310  176.1980  138.6190 C   0  0  0  0  0  2  0  0  0  0  0  0
  184.1040  177.5570  140.6990 C   0  0  0  0  0  2  0  0  0  0  0  0
  182.5260  174.0000  135.6360 C   0  0  0  0  0  0  0  0  0  0  0  0
  183.2820  174.7790  136.5210 C   0  0  0  0  0  3  0  0  0  0  0  0
  182.8820  176.0820  136.8570 C   0  0  0  0  0  0  0  0  0  0  0  0
  184.7020  179.1090  144.7690 C   0  0  0  0  0  0  0  0  0  0  0  0
  188.6210  177.1780  142.3100 C   0  0  1  0  0  3  0  0  0  0  0  0
  184.8540  177.8700  146.8220 N   0  0  0  0  0  2  0  0  0  0  0  0
  187.8810  176.7080  143.4360 O   0  0  0  0  0  0  0  0  0  0  0  0
  184.5540  180.2390  142.4810 C   0  0  0  0  0  1  0  0  0  0  0  0
  188.7770  176.4860  137.6570 C   0  0  1  0  0  3  0  0  0  0  0  0
  188.1670  177.7590  137.5140 O   0  0  0  0  0  0  0  0  0  0  0  0
  183.2980  178.2980  138.0830 C   0  0  1  0  0  3  0  0  0  0  0  0
  185.5710  178.9630  139.2720 C   0  0  0  0  0  0  0  0  0  0  0  0
  185.3810  178.3030  140.4420 C   0  0  0  0  0  0  0  0  0  0  0  0
  186.0830  178.3040  142.9120 C   0  0  0  0  0  0  0  0  0  0  0  0
  188.9760  176.3350  139.1770 C   0  0  1  0  0  3  0  0  0  0  0  0
  184.5040  179.2380  138.2290 C   0  0  0  0  0  2  0  0  0  0  0  0
  184.1600  176.1600  140.0750 C   0  0  0  0  0  2  0  0  0  0  0  0
  187.8320  175.4110  137.1550 C   0  0  0  0  0  1  0  0  0  0  0  0
  185.2770  178.0570  145.6170 C   0  0  0  0  0  0  0  0  0  0  0  0
  186.7660  177.4080  143.8750 C   0  0  0  0  0  0  0  0  0  0  0  0
  189.7210  176.1670  141.9620 C   0  0  2  0  0  3  0  0  0  0  0  0
  187.6880  177.5870  141.1580 C   0  0  2  0  0  3  0  0  0  0  0  0
  190.4720  175.7250  143.2050 C   0  0  0  0  0  1  0  0  0  0  0  0
  190.4760  176.3810  139.5810 C   0  0  1  0  0  3  0  0  0  0  0  0
  187.7890  178.2560  138.7450 C   0  0  0  0  0  0  0  0  0  0  0  0
  181.3680  174.5580  135.0800 C   0  0  0  0  0  3  0  0  0  0  0  0
  180.0030  178.0570  137.4330 C   0  0  0  0  0  2  0  0  0  0  0  0
  188.1660  177.4700  139.7380 C   0  0  0  0  0  0  0  0  0  0  0  0
  182.3640  178.9330  137.0480 C   0  0  0  0  0  2  0  0  0  0  0  0
  180.9820  175.8190  135.4160 N   0  0  0  0  0  0  0  0  0  0  0  0
  186.9270  179.4540  138.9150 C   0  0  0  0  0  2  0  0  0  0  0  0
  186.4660  178.1350  141.4670 C   0  0  1  0  0  3  0  0  0  0  0  0
  180.0460  178.5440  135.9850 C   0  0  0  0  0  2  0  0  0  0  0  0
  183.6690  176.8950  137.7620 N   0  0  0  0  0  0  0  0  0  0  0  0
  183.8410  179.9100  145.2230 O   0  0  0  0  0  0  0  0  0  0  0  0
  184.1100  172.6340  134.4660 O   0  0  0  0  0  1  0  0  0  0  0  0
  182.9540  172.6110  135.2500 C   0  0  1  0  0  3  0  0  0  0  0  0
  183.2000  171.7540  136.4830 C   0  0  0  0  0  1  0  0  0  0  0  0
  191.3720  177.2220  138.6750 C   0  0  0  0  0  2  0  0  0  0  0  0
  192.7440  176.7190  138.7320 N   0  0  0  0  0  2  0  0  0  0  0  0
  194.1770  176.9220  136.8750 O   0  0  0  0  0  1  0  0  0  0  0  0
  193.1530  176.1530  137.4450 C   0  0  2  0  0  0  0  0  0  0  0  0
  191.9450  176.1960  136.5270 C   0  0  0  0  0  1  0  0  0  0  0  0
  193.6020  174.6970  137.6390 C   0  0  0  0  0  2  0  0  0  0  0  0
  193.6240  173.8720  136.3540 C   0  0  0  0  0  2  0  0  0  0  0  0
  194.4190  174.5370  135.3300 N   0  0  0  0  0  2  0  0  0  0  0  0
  195.3020  173.5450  134.7240 C   0  0  0  0  0  2  0  0  0  0  0  0
  196.6970  173.8480  135.0290 N   0  0  0  0  0  2  0  0  0  0  0  0
  197.3260  172.6220  135.5060 C   0  0  0  0  0  2  0  0  0  0  0  0
  197.8060  172.8100  136.9370 C   0  0  0  0  0  2  0  0  0  0  0  0
  197.5340  174.2270  137.4050 C   0  0  0  0  0  2  0  0  0  0  0  0
  198.2460  174.4700  138.7210 C   0  0  0  0  0  1  0  0  0  0  0  0
  1 28  1  0  0  0  0
  2 11  1  0  0  0  0
  3 36  1  0  0  0  0
  3 34  1  0  0  0  0
  4 26  1  0  0  0  0
  5  3  1  0  0  0  0
  5 10  1  0  0  0  0
  6 24  1  0  0  0  0
  8  9  1  0  0  0  0
  9 10  2  0  0  0  0
 10 41  1  0  0  0  0
 11 42  2  0  0  0  0
 11 26  1  0  0  0  0
 12 14  1  1  0  0  0
 14 27  1  0  0  0  0
 15  2  1  0  0  0  0
 16 25  1  1  0  0  0
 16 22  1  0  0  0  0
 17 16  1  0  0  0  0
 17 32  1  0  0  0  0
 18 36  1  6  0  0  0
 18 23  1  0  0  0  0
 19 20  2  0  0  0  0
 20  7  1  0  0  0  0
 21  2  2  0  0  0  0
 21 27  1  0  0  0  0
 22 31  1  0  0  0  0
 22 35  1  1  0  0  0
 23 19  1  0  0  0  0
 24  7  1  0  0  0  0
 26 13  2  0  0  0  0
 27  4  2  0  0  0  0
 28 12  1  0  0  0  0
 28 30  1  1  0  0  0
 29 35  1  6  0  0  0
 29 39  1  0  0  0  0
 29 12  1  0  0  0  0
 31 46  1  6  0  0  0
 31  1  1  0  0  0  0
 32 38  1  0  0  0  0
 32 35  2  0  0  0  0
 33 37  1  0  0  0  0
 33  8  2  0  0  0  0
 37  5  2  0  0  0  0
 38 19  1  0  0  0  0
 39 20  1  6  0  0  0
 39 21  1  0  0  0  0
 40  3  1  0  0  0  0
 40 34  1  0  0  0  0
 41 18  1  0  0  0  0
 41  6  1  0  0  0  0
 43 44  1  0  0  0  0
 44  8  1  0  0  0  0
 44 45  1  1  0  0  0
 46 47  1  0  0  0  0
 48 49  1  0  0  0  0
 49 50  1  6  0  0  0
 49 51  1  0  0  0  0
 49 47  1  0  0  0  0
 52 51  1  0  0  0  0
 53 52  1  0  0  0  0
 54 55  1  0  0  0  0
 54 53  1  0  0  0  0
 55 56  1  0  0  0  0
 56 57  1  0  0  0  0
 57 58  1  0  0  0  0
 58 59  1  0  0  0  0
M  END
>  <MODEL>
4

>  <REMARK>
 VINA RESULT:       0.3      1.695      2.238
  Name = 
  12 active torsions:
  status: ('A' for Active; 'I' for Inactive)
    1  A    between atoms: C_1  and  N_27
    2  A    between atoms: C_1  and  C_43
    3  A    between atoms: C_5  and  C_29
    4  A    between atoms: C_12  and  C_37
    5  A    between atoms: C_24  and  C_40
    6  A    between atoms: C_24  and  N_46
    7  A    between atoms: N_27  and  C_28
    8  A    between atoms: C_28  and  C_40
    9  A    between atoms: C_29  and  C_59
   10  A    between atoms: N_33  and  C_56
   11  A    between atoms: N_33  and  C_59
   12  A    between atoms: N_46  and  C_56
                            x       y       z     vdW  Elec       q    Type
                         _______ _______ _______ _____ _____    ______ ____

>  <TORSDO>
F 12

$$$$
