=
 OpenBabel10232408343D

 41 46  0  0  1  0  0  0  0  0999 V2000
  185.6910  178.6620  140.1700 C   0  0  0  0  0  3  0  0  0  0  0  0
  186.7040  178.4830  141.3180 C   0  0  0  0  0  0  0  0  0  0  0  0
  184.9000  178.4620  143.0870 C   0  0  0  0  0  0  0  0  0  0  0  0
  182.9610  178.7820  140.5010 C   0  0  1  0  0  0  0  0  0  0  0  0
  186.3190  178.4110  142.6310 C   0  0  0  0  0  3  0  0  0  0  0  0
  182.5840  178.6840  141.8590 N   0  0  0  0  0  2  0  0  0  0  0  0
  184.3480  178.6860  140.7160 N   0  0  0  0  0  0  0  0  0  0  0  0
  184.0260  178.5940  142.1150 C   0  0  2  0  0  0  0  0  0  0  0  0
  188.1550  178.4480  141.0100 C   0  0  0  0  0  0  0  0  0  0  0  0
  188.5620  178.9960  139.9480 O   0  0  0  0  0  0  0  0  0  0  0  0
  189.2260  176.3930  142.0010 C   0  0  0  0  0  3  0  0  0  0  0  0
  191.0220  176.5890  143.6140 C   0  0  0  0  0  3  0  0  0  0  0  0
  190.0140  178.5780  142.6720 C   0  0  0  0  0  3  0  0  0  0  0  0
  190.9480  177.9810  143.5250 C   0  0  0  0  0  3  0  0  0  0  0  0
  189.1510  177.7900  141.8920 C   0  0  0  0  0  0  0  0  0  0  0  0
  190.1590  175.7950  142.8530 C   0  0  0  0  0  3  0  0  0  0  0  0
  184.5030  178.3780  144.5190 C   0  0  0  0  0  2  0  0  0  0  0  0
  185.1550  179.4970  145.3080 C   0  0  0  0  0  2  0  0  0  0  0  0
  185.4630  179.0290  146.6490 N   0  0  0  0  0  2  0  0  0  0  0  0
  187.3580  177.8020  145.9470 C   0  0  0  0  0  3  0  0  0  0  0  0
  189.5230  178.0740  148.0930 C   0  0  0  0  0  3  0  0  0  0  0  0
  188.2760  178.0160  148.8750 C   0  0  0  0  0  3  0  0  0  0  0  0
  189.6570  177.6370  146.8400 C   0  0  0  0  0  3  0  0  0  0  0  0
  187.0340  178.1120  148.3870 C   0  0  0  0  0  3  0  0  0  0  0  0
  186.6540  178.3030  146.9650 C   0  0  0  0  0  0  0  0  0  0  0  0
  188.5640  176.9370  146.1070 C   0  0  0  0  0  2  0  0  0  0  0  0
  182.4570  177.5660  139.7290 C   0  0  0  0  0  2  0  0  0  0  0  0
  182.1080  177.9390  138.2990 C   0  0  0  0  0  2  0  0  0  0  0  0
  182.6830  176.9750  137.3770 N   0  0  0  0  0  2  0  0  0  0  0  0
  184.0640  177.2070  137.3640 N   0  0  0  0  0  2  0  0  0  0  0  0
  184.7100  175.9080  137.2480 C   0  0  0  0  0  2  0  0  0  0  0  0
  189.2790  176.3430  138.0480 C   0  0  0  0  0  2  0  0  0  0  0  0
  186.0080  176.0110  136.4520 C   0  0  2  0  0  3  0  0  0  0  0  0
  186.6510  174.6300  136.2440 C   0  0  0  0  0  2  0  0  0  0  0  0
  187.0310  176.9060  137.1680 C   0  0  1  0  0  3  0  0  0  0  0  0
  187.9940  174.7400  136.7750 N   0  0  0  0  0  0  0  0  0  0  0  0
  188.9220  173.6220  136.8430 C   0  0  0  0  0  1  0  0  0  0  0  0
  188.2250  176.0350  137.2990 C   0  0  0  0  0  0  0  0  0  0  0  0
  187.3830  179.2640  136.8830 O   0  0  0  0  0  1  0  0  0  0  0  0
  187.5420  177.9940  134.9830 O   0  0  0  0  0  0  0  0  0  0  0  0
  187.3210  178.1260  136.3480 C   0  0  0  0  0  0  0  0  0  0  0  0
  1  7  1  0  0  0  0
  1  2  2  0  0  0  0
  2  5  1  0  0  0  0
  3 17  1  0  0  0  0
  4 27  1  6  0  0  0
  4  7  1  0  0  0  0
  4  6  1  0  0  0  0
  4  8  1  0  0  0  0
  5  3  2  0  0  0  0
  7  8  1  0  0  0  0
  8  6  1  6  0  0  0
  8  3  1  0  0  0  0
  9  2  1  0  0  0  0
  9 15  1  0  0  0  0
 10  9  2  0  0  0  0
 11 16  1  0  0  0  0
 13 14  2  0  0  0  0
 14 12  1  0  0  0  0
 15 11  2  0  0  0  0
 15 13  1  0  0  0  0
 16 12  2  0  0  0  0
 17 18  1  0  0  0  0
 18 19  1  0  0  0  0
 19 25  1  0  0  0  0
 20 26  1  0  0  0  0
 20 25  2  0  0  0  0
 21 22  1  0  0  0  0
 23 21  2  0  0  0  0
 24 22  2  0  0  0  0
 25 24  1  0  0  0  0
 26 23  1  0  0  0  0
 28 27  1  0  0  0  0
 29 28  1  0  0  0  0
 30 29  1  0  0  0  0
 31 30  1  0  0  0  0
 33 35  1  0  0  0  0
 33 31  1  1  0  0  0
 34 33  1  0  0  0  0
 34 36  1  0  0  0  0
 35 41  1  6  0  0  0
 35 38  1  0  0  0  0
 36 37  1  0  0  0  0
 36 38  1  0  0  0  0
 38 32  2  0  0  0  0
 40 41  2  0  0  0  0
 41 39  1  0  0  0  0
M  END
>  <MODEL>
1

>  <REMARK>
 VINA RESULT:      -8.0      0.000      0.000
  Name = 
  13 active torsions:
  status: ('A' for Active; 'I' for Inactive)
    1  A    between atoms: C_2  and  N_10
    2  A    between atoms: C_2  and  C_11
    3  A    between atoms: N_4  and  C_20
    4  A    between atoms: N_4  and  C_25
    5  A    between atoms: C_9  and  C_19
    6  A    between atoms: C_9  and  C_20
    7  A    between atoms: N_10  and  N_18
    8  A    between atoms: C_11  and  C_21
    9  A    between atoms: C_16  and  C_22
   10  A    between atoms: N_18  and  C_41
   11  A    between atoms: C_22  and  C_31
   12  A    between atoms: C_29  and  C_41
   13  A    between atoms: C_33  and  C_36
                            x       y       z     vdW  Elec       q    Type
                         _______ _______ _______ _____ _____    ______ ____

>  <TORSDO>
F 13

$$$$
=
 OpenBabel10232408343D

 41 46  0  0  1  0  0  0  0  0999 V2000
  191.2650  177.8440  141.3720 C   0  0  0  0  0  3  0  0  0  0  0  0
  190.2580  178.2910  142.4500 C   0  0  0  0  0  0  0  0  0  0  0  0
  188.2860  178.0900  140.8830 C   0  0  0  0  0  0  0  0  0  0  0  0
  190.5850  177.1220  138.8050 C   0  0  1  0  0  0  0  0  0  0  0  0
  188.9170  178.4080  142.1970 C   0  0  0  0  0  3  0  0  0  0  0  0
  189.1970  177.2290  138.5700 N   0  0  0  0  0  2  0  0  0  0  0  0
  190.5520  177.5470  140.1440 N   0  0  0  0  0  0  0  0  0  0  0  0
  189.1320  177.6880  139.9630 C   0  0  2  0  0  0  0  0  0  0  0  0
  190.7530  178.6690  143.7970 C   0  0  0  0  0  0  0  0  0  0  0  0
  191.2030  179.8350  143.9700 O   0  0  0  0  0  0  0  0  0  0  0  0
  189.7780  177.8180  145.9590 C   0  0  0  0  0  3  0  0  0  0  0  0
  190.8080  175.9720  147.1410 C   0  0  0  0  0  3  0  0  0  0  0  0
  191.7610  176.7660  145.0620 C   0  0  0  0  0  3  0  0  0  0  0  0
  191.7880  175.8870  146.1490 C   0  0  0  0  0  3  0  0  0  0  0  0
  190.7490  177.7340  144.9490 C   0  0  0  0  0  0  0  0  0  0  0  0
  189.8030  176.9400  147.0460 C   0  0  0  0  0  3  0  0  0  0  0  0
  186.8250  178.2210  140.6310 C   0  0  0  0  0  2  0  0  0  0  0  0
  186.2390  179.3090  141.5100 C   0  0  0  0  0  2  0  0  0  0  0  0
  185.0800  178.7890  142.2160 N   0  0  0  0  0  2  0  0  0  0  0  0
  186.2310  177.7500  144.0010 C   0  0  0  0  0  3  0  0  0  0  0  0
  185.1660  178.9050  146.6280 C   0  0  0  0  0  3  0  0  0  0  0  0
  183.9670  178.8450  145.7730 C   0  0  0  0  0  3  0  0  0  0  0  0
  186.2770  178.1940  146.4320 C   0  0  0  0  0  3  0  0  0  0  0  0
  183.9490  178.6100  144.4560 C   0  0  0  0  0  3  0  0  0  0  0  0
  185.1250  178.3710  143.5830 C   0  0  0  0  0  0  0  0  0  0  0  0
  186.3990  177.1620  145.3630 C   0  0  0  0  0  2  0  0  0  0  0  0
  191.0190  175.6610  138.7200 C   0  0  0  0  0  2  0  0  0  0  0  0
  190.2930  174.9440  137.5950 C   0  0  0  0  0  2  0  0  0  0  0  0
  190.9990  173.7240  137.2440 N   0  0  0  0  0  2  0  0  0  0  0  0
  191.4490  173.8860  135.9280 N   0  0  0  0  0  2  0  0  0  0  0  0
  192.8500  173.4930  135.9090 C   0  0  0  0  0  2  0  0  0  0  0  0
  197.3560  174.6150  136.2880 C   0  0  0  0  0  2  0  0  0  0  0  0
  193.7170  174.5260  136.6220 C   0  0  2  0  0  3  0  0  0  0  0  0
  193.9670  175.7580  135.7380 C   0  0  0  0  0  2  0  0  0  0  0  0
  195.0830  173.9360  137.0080 C   0  0  1  0  0  3  0  0  0  0  0  0
  195.4070  175.8960  135.6560 N   0  0  0  0  0  0  0  0  0  0  0  0
  196.0700  176.9040  134.8430 C   0  0  0  0  0  1  0  0  0  0  0  0
  196.0540  174.8670  136.3810 C   0  0  0  0  0  0  0  0  0  0  0  0
  195.2480  172.8020  139.1180 O   0  0  0  0  0  0  0  0  0  0  0  0
  195.3760  175.0880  139.2000 O   0  0  0  0  0  1  0  0  0  0  0  0
  195.2330  173.8990  138.4980 C   0  0  0  0  0  0  0  0  0  0  0  0
  1  2  2  0  0  0  0
  2  9  1  0  0  0  0
  3  5  2  0  0  0  0
  4 27  1  1  0  0  0
  4  8  1  0  0  0  0
  4  7  1  0  0  0  0
  5  2  1  0  0  0  0
  6  4  1  0  0  0  0
  7  1  1  0  0  0  0
  8  6  1  1  0  0  0
  8  7  1  0  0  0  0
  8  3  1  0  0  0  0
  9 10  2  0  0  0  0
  9 15  1  0  0  0  0
 11 16  1  0  0  0  0
 13 14  2  0  0  0  0
 14 12  1  0  0  0  0
 15 13  1  0  0  0  0
 15 11  2  0  0  0  0
 16 12  2  0  0  0  0
 17  3  1  0  0  0  0
 17 18  1  0  0  0  0
 18 19  1  0  0  0  0
 19 25  1  0  0  0  0
 20 26  1  0  0  0  0
 22 21  1  0  0  0  0
 23 21  2  0  0  0  0
 24 22  2  0  0  0  0
 25 20  2  0  0  0  0
 25 24  1  0  0  0  0
 26 23  1  0  0  0  0
 28 27  1  0  0  0  0
 29 28  1  0  0  0  0
 30 29  1  0  0  0  0
 31 30  1  0  0  0  0
 32 38  2  0  0  0  0
 33 31  1  6  0  0  0
 33 35  1  0  0  0  0
 34 33  1  0  0  0  0
 35 41  1  1  0  0  0
 36 34  1  0  0  0  0
 36 38  1  0  0  0  0
 37 36  1  0  0  0  0
 38 35  1  0  0  0  0
 41 39  2  0  0  0  0
 41 40  1  0  0  0  0
M  END
>  <MODEL>
2

>  <REMARK>
 VINA RESULT:      -7.8      4.023      6.364
  Name = 
  13 active torsions:
  status: ('A' for Active; 'I' for Inactive)
    1  A    between atoms: C_2  and  N_10
    2  A    between atoms: C_2  and  C_11
    3  A    between atoms: N_4  and  C_20
    4  A    between atoms: N_4  and  C_25
    5  A    between atoms: C_9  and  C_19
    6  A    between atoms: C_9  and  C_20
    7  A    between atoms: N_10  and  N_18
    8  A    between atoms: C_11  and  C_21
    9  A    between atoms: C_16  and  C_22
   10  A    between atoms: N_18  and  C_41
   11  A    between atoms: C_22  and  C_31
   12  A    between atoms: C_29  and  C_41
   13  A    between atoms: C_33  and  C_36
                            x       y       z     vdW  Elec       q    Type
                         _______ _______ _______ _____ _____    ______ ____

>  <TORSDO>
F 13

$$$$
=
 OpenBabel10232408343D

 41 46  0  0  1  0  0  0  0  0999 V2000
  191.5670  177.6230  141.3190 C   0  0  0  0  0  3  0  0  0  0  0  0
  190.5690  178.1610  142.3630 C   0  0  0  0  0  0  0  0  0  0  0  0
  188.6180  178.0320  140.7630 C   0  0  0  0  0  0  0  0  0  0  0  0
  190.8930  176.8670  138.7600 C   0  0  1  0  0  0  0  0  0  0  0  0
  189.2420  178.3510  142.0800 C   0  0  0  0  0  3  0  0  0  0  0  0
  189.5180  177.0500  138.4940 N   0  0  0  0  0  2  0  0  0  0  0  0
  190.8600  177.3330  140.0860 N   0  0  0  0  0  0  0  0  0  0  0  0
  189.4550  177.5530  139.8720 C   0  0  2  0  0  0  0  0  0  0  0  0
  191.0600  178.5490  143.7090 C   0  0  0  0  0  0  0  0  0  0  0  0
  191.6090  179.6770  143.8500 O   0  0  0  0  0  0  0  0  0  0  0  0
  191.9020  176.6820  145.1780 C   0  0  0  0  0  3  0  0  0  0  0  0
  190.6510  175.9840  147.1310 C   0  0  0  0  0  3  0  0  0  0  0  0
  189.8250  177.7850  145.7400 C   0  0  0  0  0  3  0  0  0  0  0  0
  189.6820  176.9520  146.8540 C   0  0  0  0  0  3  0  0  0  0  0  0
  190.9420  177.6660  144.8960 C   0  0  0  0  0  0  0  0  0  0  0  0
  191.7600  175.8480  146.2910 C   0  0  0  0  0  3  0  0  0  0  0  0
  187.1720  178.2420  140.4780 C   0  0  0  0  0  2  0  0  0  0  0  0
  186.5520  179.1240  141.5440 C   0  0  0  0  0  2  0  0  0  0  0  0
  185.4190  178.4380  142.1410 N   0  0  0  0  0  2  0  0  0  0  0  0
  186.3530  177.5780  144.1360 C   0  0  0  0  0  3  0  0  0  0  0  0
  185.0940  179.0600  146.5000 C   0  0  0  0  0  3  0  0  0  0  0  0
  183.9790  178.9380  145.5430 C   0  0  0  0  0  3  0  0  0  0  0  0
  186.1870  178.2970  146.4950 C   0  0  0  0  0  3  0  0  0  0  0  0
  184.0750  178.5530  144.2650 C   0  0  0  0  0  3  0  0  0  0  0  0
  185.3180  178.1800  143.5440 C   0  0  0  0  0  0  0  0  0  0  0  0
  186.3670  177.1460  145.5650 C   0  0  0  0  0  2  0  0  0  0  0  0
  191.2390  175.3810  138.7260 C   0  0  0  0  0  2  0  0  0  0  0  0
  192.3140  175.0990  137.6910 C   0  0  0  0  0  2  0  0  0  0  0  0
  192.6120  176.3050  136.9400 N   0  0  0  0  0  2  0  0  0  0  0  0
  193.9950  176.5080  137.0390 N   0  0  0  0  0  2  0  0  0  0  0  0
  194.5340  176.4080  135.6910 C   0  0  0  0  0  2  0  0  0  0  0  0
  195.5150  172.5300  138.0790 C   0  0  0  0  0  2  0  0  0  0  0  0
  195.3730  175.1440  135.5290 C   0  0  2  0  0  3  0  0  0  0  0  0
  194.5530  173.9980  134.9150 C   0  0  0  0  0  2  0  0  0  0  0  0
  195.9210  174.6620  136.8810 C   0  0  1  0  0  3  0  0  0  0  0  0
  194.6600  172.8960  135.8480 N   0  0  0  0  0  0  0  0  0  0  0  0
  193.9600  171.6320  135.6800 C   0  0  0  0  0  1  0  0  0  0  0  0
  195.4430  173.2600  136.9700 C   0  0  0  0  0  0  0  0  0  0  0  0
  198.1000  174.2260  135.9730 O   0  0  0  0  0  0  0  0  0  0  0  0
  198.0550  175.4050  137.9360 O   0  0  0  0  0  1  0  0  0  0  0  0
  197.4160  174.7400  136.8970 C   0  0  0  0  0  0  0  0  0  0  0  0
  1  2  2  0  0  0  0
  2  9  1  0  0  0  0
  3  5  2  0  0  0  0
  4 27  1  1  0  0  0
  4  8  1  0  0  0  0
  4  7  1  0  0  0  0
  5  2  1  0  0  0  0
  6  4  1  0  0  0  0
  7  1  1  0  0  0  0
  8  6  1  1  0  0  0
  8  7  1  0  0  0  0
  8  3  1  0  0  0  0
  9 10  2  0  0  0  0
  9 15  1  0  0  0  0
 11 16  1  0  0  0  0
 13 14  2  0  0  0  0
 14 12  1  0  0  0  0
 15 11  2  0  0  0  0
 15 13  1  0  0  0  0
 16 12  2  0  0  0  0
 17  3  1  0  0  0  0
 17 18  1  0  0  0  0
 18 19  1  0  0  0  0
 19 25  1  0  0  0  0
 20 26  1  0  0  0  0
 22 21  1  0  0  0  0
 23 21  2  0  0  0  0
 24 22  2  0  0  0  0
 25 20  2  0  0  0  0
 25 24  1  0  0  0  0
 26 23  1  0  0  0  0
 28 27  1  0  0  0  0
 29 30  1  0  0  0  0
 29 28  1  0  0  0  0
 31 30  1  0  0  0  0
 33 31  1  1  0  0  0
 33 35  1  0  0  0  0
 34 33  1  0  0  0  0
 34 36  1  0  0  0  0
 35 41  1  6  0  0  0
 35 38  1  0  0  0  0
 36 38  1  0  0  0  0
 37 36  1  0  0  0  0
 38 32  2  0  0  0  0
 39 41  2  0  0  0  0
 41 40  1  0  0  0  0
M  END
>  <MODEL>
3

>  <REMARK>
 VINA RESULT:      -7.7      4.475      6.798
  Name = 
  13 active torsions:
  status: ('A' for Active; 'I' for Inactive)
    1  A    between atoms: C_2  and  N_10
    2  A    between atoms: C_2  and  C_11
    3  A    between atoms: N_4  and  C_20
    4  A    between atoms: N_4  and  C_25
    5  A    between atoms: C_9  and  C_19
    6  A    between atoms: C_9  and  C_20
    7  A    between atoms: N_10  and  N_18
    8  A    between atoms: C_11  and  C_21
    9  A    between atoms: C_16  and  C_22
   10  A    between atoms: N_18  and  C_41
   11  A    between atoms: C_22  and  C_31
   12  A    between atoms: C_29  and  C_41
   13  A    between atoms: C_33  and  C_36
                            x       y       z     vdW  Elec       q    Type
                         _______ _______ _______ _____ _____    ______ ____

>  <TORSDO>
F 13

$$$$
=
 OpenBabel10232408343D

 41 46  0  0  1  0  0  0  0  0999 V2000
  189.2270  177.5300  138.8600 C   0  0  0  0  0  3  0  0  0  0  0  0
  189.4390  177.7030  140.3760 C   0  0  0  0  0  0  0  0  0  0  0  0
  187.0950  178.5730  140.7400 C   0  0  0  0  0  0  0  0  0  0  0  0
  186.8720  178.0680  137.5410 C   0  0  1  0  0  0  0  0  0  0  0  0
  188.4620  178.1920  141.2020 C   0  0  0  0  0  3  0  0  0  0  0  0
  185.8710  178.5500  138.4120 N   0  0  0  0  0  2  0  0  0  0  0  0
  187.8700  177.9120  138.5190 N   0  0  0  0  0  0  0  0  0  0  0  0
  186.8960  178.4100  139.4530 C   0  0  2  0  0  0  0  0  0  0  0  0
  190.7640  177.3910  140.9670 C   0  0  0  0  0  0  0  0  0  0  0  0
  191.7220  177.1140  140.1930 O   0  0  0  0  0  0  0  0  0  0  0  0
  191.1830  178.5730  143.1530 C   0  0  0  0  0  3  0  0  0  0  0  0
  191.5310  177.3160  145.1940 C   0  0  0  0  0  3  0  0  0  0  0  0
  191.1230  176.1570  143.1080 C   0  0  0  0  0  3  0  0  0  0  0  0
  191.3760  176.1230  144.4830 C   0  0  0  0  0  3  0  0  0  0  0  0
  191.0130  177.3820  142.4300 C   0  0  0  0  0  0  0  0  0  0  0  0
  191.4360  178.5410  144.5270 C   0  0  0  0  0  3  0  0  0  0  0  0
  186.0460  179.0990  141.6560 C   0  0  0  0  0  2  0  0  0  0  0  0
  185.6680  178.0440  142.6780 C   0  0  0  0  0  2  0  0  0  0  0  0
  185.5140  178.6660  143.9820 N   0  0  0  0  0  2  0  0  0  0  0  0
  187.3600  177.5800  144.9850 C   0  0  0  0  0  3  0  0  0  0  0  0
  187.6270  178.6020  147.8580 C   0  0  0  0  0  3  0  0  0  0  0  0
  186.1690  178.5510  147.6500 C   0  0  0  0  0  3  0  0  0  0  0  0
  188.5220  177.9250  147.1390 C   0  0  0  0  0  3  0  0  0  0  0  0
  185.5450  178.3710  146.4800 C   0  0  0  0  0  3  0  0  0  0  0  0
  186.1850  178.1930  145.1530 C   0  0  0  0  0  0  0  0  0  0  0  0
  188.1370  176.9410  146.0870 C   0  0  0  0  0  2  0  0  0  0  0  0
  186.4640  176.7110  136.9750 C   0  0  0  0  0  2  0  0  0  0  0  0
  184.9780  176.6780  136.6630 C   0  0  0  0  0  2  0  0  0  0  0  0
  184.3370  175.6040  137.4010 N   0  0  0  0  0  2  0  0  0  0  0  0
  183.0080  175.9950  137.6040 N   0  0  0  0  0  2  0  0  0  0  0  0
  182.8320  177.2670  136.9190 C   0  0  0  0  0  2  0  0  0  0  0  0
  181.9030  181.5600  138.4730 C   0  0  0  0  0  2  0  0  0  0  0  0
  181.6560  178.0450  137.5010 C   0  0  2  0  0  3  0  0  0  0  0  0
  180.8680  178.7780  136.4030 C   0  0  0  0  0  2  0  0  0  0  0  0
  182.1300  179.0920  138.5210 C   0  0  1  0  0  3  0  0  0  0  0  0
  180.8520  180.1720  136.7970 N   0  0  0  0  0  0  0  0  0  0  0  0
  180.2670  181.2270  135.9840 C   0  0  0  0  0  1  0  0  0  0  0  0
  181.5630  180.3630  138.0050 C   0  0  0  0  0  0  0  0  0  0  0  0
  182.3890  178.6500  140.8670 O   0  0  0  0  0  1  0  0  0  0  0  0
  180.2410  178.6020  140.0730 O   0  0  0  0  0  0  0  0  0  0  0  0
  181.6070  178.7640  139.8860 C   0  0  0  0  0  0  0  0  0  0  0  0
  1  2  2  0  0  0  0
  2  9  1  0  0  0  0
  2  5  1  0  0  0  0
  3  5  2  0  0  0  0
  3 17  1  0  0  0  0
  4 27  1  1  0  0  0
  4  6  1  0  0  0  0
  4  7  1  0  0  0  0
  4  8  1  0  0  0  0
  7  1  1  0  0  0  0
  7  8  1  0  0  0  0
  8  6  1  1  0  0  0
  8  3  1  0  0  0  0
  9 15  1  0  0  0  0
 10  9  2  0  0  0  0
 11 16  1  0  0  0  0
 13 14  2  0  0  0  0
 14 12  1  0  0  0  0
 15 13  1  0  0  0  0
 15 11  2  0  0  0  0
 16 12  2  0  0  0  0
 17 18  1  0  0  0  0
 18 19  1  0  0  0  0
 19 25  1  0  0  0  0
 20 25  2  0  0  0  0
 20 26  1  0  0  0  0
 22 21  1  0  0  0  0
 23 21  2  0  0  0  0
 24 22  2  0  0  0  0
 25 24  1  0  0  0  0
 26 23  1  0  0  0  0
 28 27  1  0  0  0  0
 28 29  1  0  0  0  0
 29 30  1  0  0  0  0
 31 30  1  0  0  0  0
 33 31  1  6  0  0  0
 33 35  1  0  0  0  0
 34 36  1  0  0  0  0
 34 33  1  0  0  0  0
 35 41  1  1  0  0  0
 36 38  1  0  0  0  0
 37 36  1  0  0  0  0
 38 32  2  0  0  0  0
 38 35  1  0  0  0  0
 41 40  2  0  0  0  0
 41 39  1  0  0  0  0
M  END
>  <MODEL>
4

>  <REMARK>
 VINA RESULT:      -7.6      2.429      4.724
  Name = 
  13 active torsions:
  status: ('A' for Active; 'I' for Inactive)
    1  A    between atoms: C_2  and  N_10
    2  A    between atoms: C_2  and  C_11
    3  A    between atoms: N_4  and  C_20
    4  A    between atoms: N_4  and  C_25
    5  A    between atoms: C_9  and  C_19
    6  A    between atoms: C_9  and  C_20
    7  A    between atoms: N_10  and  N_18
    8  A    between atoms: C_11  and  C_21
    9  A    between atoms: C_16  and  C_22
   10  A    between atoms: N_18  and  C_41
   11  A    between atoms: C_22  and  C_31
   12  A    between atoms: C_29  and  C_41
   13  A    between atoms: C_33  and  C_36
                            x       y       z     vdW  Elec       q    Type
                         _______ _______ _______ _____ _____    ______ ____

>  <TORSDO>
F 13

$$$$
=
 OpenBabel10232408343D

 41 46  0  0  1  0  0  0  0  0999 V2000
  185.2470  178.5700  140.2400 C   0  0  0  0  0  3  0  0  0  0  0  0
  186.3030  178.5050  141.3600 C   0  0  0  0  0  0  0  0  0  0  0  0
  184.5660  178.6450  143.1900 C   0  0  0  0  0  0  0  0  0  0  0  0
  182.5300  178.7100  140.6620 C   0  0  1  0  0  0  0  0  0  0  0  0
  185.9680  178.5570  142.6880 C   0  0  0  0  0  3  0  0  0  0  0  0
  182.2040  178.7400  142.0350 N   0  0  0  0  0  2  0  0  0  0  0  0
  183.9240  178.6400  140.8320 N   0  0  0  0  0  0  0  0  0  0  0  0
  183.6560  178.6800  142.2440 C   0  0  2  0  0  0  0  0  0  0  0  0
  187.7420  178.4460  141.0020 C   0  0  0  0  0  0  0  0  0  0  0  0
  188.1050  178.8970  139.8810 O   0  0  0  0  0  0  0  0  0  0  0  0
  189.6920  178.6910  142.5790 C   0  0  0  0  0  3  0  0  0  0  0  0
  190.7440  176.7420  143.5600 C   0  0  0  0  0  3  0  0  0  0  0  0
  188.8670  176.4810  142.0540 C   0  0  0  0  0  3  0  0  0  0  0  0
  189.8430  175.9170  142.8810 C   0  0  0  0  0  3  0  0  0  0  0  0
  188.7740  177.8740  141.9020 C   0  0  0  0  0  0  0  0  0  0  0  0
  190.6690  178.1300  143.4070 C   0  0  0  0  0  3  0  0  0  0  0  0
  184.2240  178.6960  144.6380 C   0  0  0  0  0  2  0  0  0  0  0  0
  185.2090  179.5810  145.3760 C   0  0  0  0  0  2  0  0  0  0  0  0
  185.4630  179.0270  146.6960 N   0  0  0  0  0  2  0  0  0  0  0  0
  187.3520  177.7800  146.0120 C   0  0  0  0  0  3  0  0  0  0  0  0
  189.5360  178.1100  148.1300 C   0  0  0  0  0  3  0  0  0  0  0  0
  188.2960  178.0760  148.9250 C   0  0  0  0  0  3  0  0  0  0  0  0
  189.6580  177.6390  146.8890 C   0  0  0  0  0  3  0  0  0  0  0  0
  187.0490  178.1590  148.4450 C   0  0  0  0  0  3  0  0  0  0  0  0
  186.6570  178.3100  147.0220 C   0  0  0  0  0  0  0  0  0  0  0  0
  188.5580  176.9190  146.1860 C   0  0  0  0  0  2  0  0  0  0  0  0
  182.0070  177.4240  140.0280 C   0  0  0  0  0  2  0  0  0  0  0  0
  181.7410  177.6200  138.5450 C   0  0  0  0  0  2  0  0  0  0  0  0
  182.6580  176.8110  137.7630 N   0  0  0  0  0  2  0  0  0  0  0  0
  183.5070  177.7010  137.0930 N   0  0  0  0  0  2  0  0  0  0  0  0
  184.3540  176.9020  136.2200 C   0  0  0  0  0  2  0  0  0  0  0  0
  187.2390  173.3230  135.4620 C   0  0  0  0  0  2  0  0  0  0  0  0
  185.2030  175.9240  137.0270 C   0  0  2  0  0  3  0  0  0  0  0  0
  186.6410  176.4390  137.2010 C   0  0  0  0  0  2  0  0  0  0  0  0
  185.2730  174.5500  136.3420 C   0  0  1  0  0  3  0  0  0  0  0  0
  187.4980  175.3920  136.6820 N   0  0  0  0  0  0  0  0  0  0  0  0
  188.9440  175.5140  136.5900 C   0  0  0  0  0  1  0  0  0  0  0  0
  186.7300  174.3080  136.1960 C   0  0  0  0  0  0  0  0  0  0  0  0
  183.4410  173.1280  136.9650 O   0  0  0  0  0  0  0  0  0  0  0  0
  185.3320  172.9410  138.2460 O   0  0  0  0  0  1  0  0  0  0  0  0
  184.6200  173.5080  137.1970 C   0  0  0  0  0  0  0  0  0  0  0  0
  1  7  1  0  0  0  0
  1  2  2  0  0  0  0
  2  5  1  0  0  0  0
  3 17  1  0  0  0  0
  4 27  1  1  0  0  0
  4  7  1  0  0  0  0
  4  6  1  0  0  0  0
  4  8  1  0  0  0  0
  5  3  2  0  0  0  0
  7  8  1  0  0  0  0
  8  6  1  1  0  0  0
  8  3  1  0  0  0  0
  9  2  1  0  0  0  0
  9 15  1  0  0  0  0
 10  9  2  0  0  0  0
 11 16  1  0  0  0  0
 13 14  2  0  0  0  0
 14 12  1  0  0  0  0
 15 13  1  0  0  0  0
 15 11  2  0  0  0  0
 16 12  2  0  0  0  0
 17 18  1  0  0  0  0
 18 19  1  0  0  0  0
 19 25  1  0  0  0  0
 20 26  1  0  0  0  0
 20 25  2  0  0  0  0
 21 22  1  0  0  0  0
 23 21  2  0  0  0  0
 24 22  2  0  0  0  0
 25 24  1  0  0  0  0
 26 23  1  0  0  0  0
 28 27  1  0  0  0  0
 29 28  1  0  0  0  0
 30 29  1  0  0  0  0
 31 30  1  0  0  0  0
 32 38  2  0  0  0  0
 33 31  1  6  0  0  0
 33 34  1  0  0  0  0
 35 33  1  0  0  0  0
 35 41  1  1  0  0  0
 36 34  1  0  0  0  0
 37 36  1  0  0  0  0
 38 35  1  0  0  0  0
 38 36  1  0  0  0  0
 39 41  2  0  0  0  0
 41 40  1  0  0  0  0
M  END
>  <MODEL>
5

>  <REMARK>
 VINA RESULT:      -7.6      1.600      2.201
  Name = 
  13 active torsions:
  status: ('A' for Active; 'I' for Inactive)
    1  A    between atoms: C_2  and  N_10
    2  A    between atoms: C_2  and  C_11
    3  A    between atoms: N_4  and  C_20
    4  A    between atoms: N_4  and  C_25
    5  A    between atoms: C_9  and  C_19
    6  A    between atoms: C_9  and  C_20
    7  A    between atoms: N_10  and  N_18
    8  A    between atoms: C_11  and  C_21
    9  A    between atoms: C_16  and  C_22
   10  A    between atoms: N_18  and  C_41
   11  A    between atoms: C_22  and  C_31
   12  A    between atoms: C_29  and  C_41
   13  A    between atoms: C_33  and  C_36
                            x       y       z     vdW  Elec       q    Type
                         _______ _______ _______ _____ _____    ______ ____

>  <TORSDO>
F 13

$$$$
=
 OpenBabel10232408343D

 41 46  0  0  1  0  0  0  0  0999 V2000
  185.6300  178.6050  140.1420 C   0  0  0  0  0  3  0  0  0  0  0  0
  186.6480  178.4650  141.2900 C   0  0  0  0  0  0  0  0  0  0  0  0
  184.8510  178.5060  143.0660 C   0  0  0  0  0  0  0  0  0  0  0  0
  182.9020  178.7380  140.4800 C   0  0  1  0  0  0  0  0  0  0  0  0
  186.2690  178.4380  142.6070 C   0  0  0  0  0  3  0  0  0  0  0  0
  182.5300  178.6870  141.8410 N   0  0  0  0  0  2  0  0  0  0  0  0
  184.2890  178.6480  140.6920 N   0  0  0  0  0  0  0  0  0  0  0  0
  183.9740  178.6050  142.0950 C   0  0  2  0  0  0  0  0  0  0  0  0
  188.0980  178.4170  140.9780 C   0  0  0  0  0  0  0  0  0  0  0  0
  188.4960  178.8950  139.8800 O   0  0  0  0  0  0  0  0  0  0  0  0
  189.9780  178.6300  142.6420 C   0  0  0  0  0  3  0  0  0  0  0  0
  191.0220  176.6610  143.5900 C   0  0  0  0  0  3  0  0  0  0  0  0
  189.2130  176.4290  141.9980 C   0  0  0  0  0  3  0  0  0  0  0  0
  190.1640  175.8490  142.8430 C   0  0  0  0  0  3  0  0  0  0  0  0
  189.1020  177.8260  141.8970 C   0  0  0  0  0  0  0  0  0  0  0  0
  190.9300  178.0520  143.4870 C   0  0  0  0  0  3  0  0  0  0  0  0
  184.4600  178.4710  144.5030 C   0  0  0  0  0  2  0  0  0  0  0  0
  185.1610  179.5820  145.2610 C   0  0  0  0  0  2  0  0  0  0  0  0
  185.4760  179.1270  146.6050 N   0  0  0  0  0  2  0  0  0  0  0  0
  187.3400  177.8620  145.8870 C   0  0  0  0  0  3  0  0  0  0  0  0
  189.4910  178.0080  148.0600 C   0  0  0  0  0  3  0  0  0  0  0  0
  188.2340  177.9680  148.8290 C   0  0  0  0  0  3  0  0  0  0  0  0
  189.6230  177.6020  146.7970 C   0  0  0  0  0  3  0  0  0  0  0  0
  187.0000  178.1150  148.3310 C   0  0  0  0  0  3  0  0  0  0  0  0
  186.6410  178.3570  146.9120 C   0  0  0  0  0  0  0  0  0  0  0  0
  188.5170  176.9560  146.0340 C   0  0  0  0  0  2  0  0  0  0  0  0
  182.3940  177.4970  139.7510 C   0  0  0  0  0  2  0  0  0  0  0  0
  181.5940  177.8820  138.5190 C   0  0  0  0  0  2  0  0  0  0  0  0
  182.4890  178.2790  137.4470 N   0  0  0  0  0  2  0  0  0  0  0  0
  182.8550  177.1050  136.7750 N   0  0  0  0  0  2  0  0  0  0  0  0
  184.2470  177.2610  136.3800 C   0  0  0  0  0  2  0  0  0  0  0  0
  185.1240  172.9190  137.8220 C   0  0  0  0  0  2  0  0  0  0  0  0
  184.8060  175.9580  135.8170 C   0  0  2  0  0  3  0  0  0  0  0  0
  183.6870  175.0530  135.2770 C   0  0  0  0  0  2  0  0  0  0  0  0
  185.5740  175.1710  136.8900 C   0  0  1  0  0  3  0  0  0  0  0  0
  183.8330  173.7910  135.9750 N   0  0  0  0  0  0  0  0  0  0  0  0
  182.9160  172.6750  135.8110 C   0  0  0  0  0  1  0  0  0  0  0  0
  184.9090  173.8450  136.8930 C   0  0  0  0  0  0  0  0  0  0  0  0
  187.9210  175.4390  137.3240 O   0  0  0  0  0  1  0  0  0  0  0  0
  187.3780  174.5330  135.2910 O   0  0  0  0  0  0  0  0  0  0  0  0
  187.0230  175.0660  136.5230 C   0  0  0  0  0  0  0  0  0  0  0  0
  1  7  1  0  0  0  0
  1  2  2  0  0  0  0
  2  5  1  0  0  0  0
  3 17  1  0  0  0  0
  4 27  1  6  0  0  0
  4  7  1  0  0  0  0
  4  6  1  0  0  0  0
  4  8  1  0  0  0  0
  5  3  2  0  0  0  0
  7  8  1  0  0  0  0
  8  6  1  6  0  0  0
  8  3  1  0  0  0  0
  9  2  1  0  0  0  0
  9 15  1  0  0  0  0
 10  9  2  0  0  0  0
 11 16  1  0  0  0  0
 13 14  2  0  0  0  0
 14 12  1  0  0  0  0
 15 13  1  0  0  0  0
 15 11  2  0  0  0  0
 16 12  2  0  0  0  0
 17 18  1  0  0  0  0
 18 19  1  0  0  0  0
 19 25  1  0  0  0  0
 20 26  1  0  0  0  0
 20 25  2  0  0  0  0
 21 22  1  0  0  0  0
 23 21  2  0  0  0  0
 24 22  2  0  0  0  0
 25 24  1  0  0  0  0
 26 23  1  0  0  0  0
 28 27  1  0  0  0  0
 29 28  1  0  0  0  0
 30 29  1  0  0  0  0
 31 30  1  0  0  0  0
 33 31  1  1  0  0  0
 33 35  1  0  0  0  0
 34 33  1  0  0  0  0
 34 36  1  0  0  0  0
 35 41  1  6  0  0  0
 35 38  1  0  0  0  0
 36 38  1  0  0  0  0
 37 36  1  0  0  0  0
 38 32  2  0  0  0  0
 40 41  2  0  0  0  0
 41 39  1  0  0  0  0
M  END
>  <MODEL>
6

>  <REMARK>
 VINA RESULT:      -7.5      1.394      2.129
  Name = 
  13 active torsions:
  status: ('A' for Active; 'I' for Inactive)
    1  A    between atoms: C_2  and  N_10
    2  A    between atoms: C_2  and  C_11
    3  A    between atoms: N_4  and  C_20
    4  A    between atoms: N_4  and  C_25
    5  A    between atoms: C_9  and  C_19
    6  A    between atoms: C_9  and  C_20
    7  A    between atoms: N_10  and  N_18
    8  A    between atoms: C_11  and  C_21
    9  A    between atoms: C_16  and  C_22
   10  A    between atoms: N_18  and  C_41
   11  A    between atoms: C_22  and  C_31
   12  A    between atoms: C_29  and  C_41
   13  A    between atoms: C_33  and  C_36
                            x       y       z     vdW  Elec       q    Type
                         _______ _______ _______ _____ _____    ______ ____

>  <TORSDO>
F 13

$$$$
=
 OpenBabel10232408343D

 41 46  0  0  1  0  0  0  0  0999 V2000
  187.3710  178.1140  139.2010 C   0  0  0  0  0  3  0  0  0  0  0  0
  188.0770  178.1360  140.5700 C   0  0  0  0  0  0  0  0  0  0  0  0
  186.0110  178.9590  141.7710 C   0  0  0  0  0  0  0  0  0  0  0  0
  184.7310  178.7740  138.7930 C   0  0  1  0  0  0  0  0  0  0  0  0
  187.4410  178.5380  141.7160 C   0  0  0  0  0  3  0  0  0  0  0  0
  184.0880  179.1640  139.9880 N   0  0  0  0  0  2  0  0  0  0  0  0
  185.9900  178.5240  139.3660 N   0  0  0  0  0  0  0  0  0  0  0  0
  185.3940  178.9240  140.6120 C   0  0  2  0  0  0  0  0  0  0  0  0
  189.5120  177.7700  140.6570 C   0  0  0  0  0  0  0  0  0  0  0  0
  190.1820  177.6910  139.5900 O   0  0  0  0  0  0  0  0  0  0  0  0
  190.7350  178.5150  142.7310 C   0  0  0  0  0  3  0  0  0  0  0  0
  191.5260  176.8970  144.3510 C   0  0  0  0  0  3  0  0  0  0  0  0
  190.3470  176.1570  142.3700 C   0  0  0  0  0  3  0  0  0  0  0  0
  191.0040  175.8630  143.5690 C   0  0  0  0  0  3  0  0  0  0  0  0
  190.1960  177.4860  141.9430 C   0  0  0  0  0  0  0  0  0  0  0  0
  191.3930  178.2240  143.9300 C   0  0  0  0  0  3  0  0  0  0  0  0
  185.3380  179.3880  143.0280 C   0  0  0  0  0  2  0  0  0  0  0  0
  184.9090  178.1750  143.8300 C   0  0  0  0  0  2  0  0  0  0  0  0
  185.0110  178.4710  145.2490 N   0  0  0  0  0  0  0  0  0  0  0  0
  186.2270  178.7630  147.2560 C   0  0  0  0  0  2  0  0  0  0  0  0
  188.5920  176.8210  147.2340 C   0  0  0  0  0  3  0  0  0  0  0  0
  188.4810  177.2360  145.8240 C   0  0  0  0  0  3  0  0  0  0  0  0
  188.0940  177.4980  148.2680 C   0  0  0  0  0  3  0  0  0  0  0  0
  187.4650  177.9150  145.2800 C   0  0  0  0  0  3  0  0  0  0  0  0
  186.2400  178.3840  145.9750 C   0  0  0  0  0  0  0  0  0  0  0  0
  187.4400  178.8300  148.1220 C   0  0  0  0  0  2  0  0  0  0  0  0
  184.1180  177.4780  138.2680 C   0  0  0  0  0  2  0  0  0  0  0  0
  183.0850  177.7650  137.1920 C   0  0  0  0  0  2  0  0  0  0  0  0
  181.8230  177.1310  137.5320 N   0  0  0  0  0  2  0  0  0  0  0  0
  182.0860  176.2610  138.5980 N   0  0  0  0  0  2  0  0  0  0  0  0
  181.2450  175.0890  138.4030 C   0  0  0  0  0  2  0  0  0  0  0  0
  183.2180  171.1910  136.7860 C   0  0  0  0  0  2  0  0  0  0  0  0
  181.5360  174.4240  137.0610 C   0  0  2  0  0  3  0  0  0  0  0  0
  180.4060  173.4640  136.6530 C   0  0  0  0  0  2  0  0  0  0  0  0
  182.8440  173.6200  137.1100 C   0  0  1  0  0  3  0  0  0  0  0  0
  181.0420  172.1810  136.4340 N   0  0  0  0  0  0  0  0  0  0  0  0
  180.3080  170.9700  136.1040 C   0  0  0  0  0  1  0  0  0  0  0  0
  182.4330  172.2590  136.6850 C   0  0  0  0  0  0  0  0  0  0  0  0
  183.5170  174.6180  135.0320 O   0  0  0  0  0  0  0  0  0  0  0  0
  185.1770  174.3270  136.5830 O   0  0  0  0  0  1  0  0  0  0  0  0
  183.8540  174.2110  136.1750 C   0  0  0  0  0  0  0  0  0  0  0  0
  1  7  1  0  0  0  0
  1  2  2  0  0  0  0
  2  9  1  0  0  0  0
  2  5  1  0  0  0  0
  3 17  1  0  0  0  0
  4 27  1  1  0  0  0
  4  7  1  0  0  0  0
  4  6  1  0  0  0  0
  4  8  1  0  0  0  0
  5  3  2  0  0  0  0
  7  8  1  0  0  0  0
  8  6  1  1  0  0  0
  8  3  1  0  0  0  0
  9 15  1  0  0  0  0
 10  9  2  0  0  0  0
 11 16  1  0  0  0  0
 13 14  2  0  0  0  0
 14 12  1  0  0  0  0
 15 13  1  0  0  0  0
 15 11  2  0  0  0  0
 16 12  2  0  0  0  0
 17 18  1  0  0  0  0
 18 19  1  0  0  0  0
 19 25  2  0  0  0  0
 20 26  1  0  0  0  0
 21 23  2  0  0  0  0
 22 21  1  0  0  0  0
 24 22  2  0  0  0  0
 24 25  1  0  0  0  0
 25 20  1  0  0  0  0
 26 23  1  0  0  0  0
 28 29  1  0  0  0  0
 28 27  1  0  0  0  0
 29 30  1  0  0  0  0
 31 30  1  0  0  0  0
 33 35  1  0  0  0  0
 33 31  1  1  0  0  0
 34 33  1  0  0  0  0
 35 41  1  6  0  0  0
 36 34  1  0  0  0  0
 36 38  1  0  0  0  0
 37 36  1  0  0  0  0
 38 32  2  0  0  0  0
 38 35  1  0  0  0  0
 39 41  2  0  0  0  0
 41 40  1  0  0  0  0
M  END
>  <MODEL>
7

>  <REMARK>
 VINA RESULT:      -7.4      2.547      3.757
  Name = 
  13 active torsions:
  status: ('A' for Active; 'I' for Inactive)
    1  A    between atoms: C_2  and  N_10
    2  A    between atoms: C_2  and  C_11
    3  A    between atoms: N_4  and  C_20
    4  A    between atoms: N_4  and  C_25
    5  A    between atoms: C_9  and  C_19
    6  A    between atoms: C_9  and  C_20
    7  A    between atoms: N_10  and  N_18
    8  A    between atoms: C_11  and  C_21
    9  A    between atoms: C_16  and  C_22
   10  A    between atoms: N_18  and  C_41
   11  A    between atoms: C_22  and  C_31
   12  A    between atoms: C_29  and  C_41
   13  A    between atoms: C_33  and  C_36
                            x       y       z     vdW  Elec       q    Type
                         _______ _______ _______ _____ _____    ______ ____

>  <TORSDO>
F 13

$$$$
=
 OpenBabel10232408343D

 41 46  0  0  1  0  0  0  0  0999 V2000
  189.5610  177.4970  139.0610 C   0  0  0  0  0  3  0  0  0  0  0  0
  189.7270  177.7310  140.5750 C   0  0  0  0  0  0  0  0  0  0  0  0
  187.3680  178.5970  140.8370 C   0  0  0  0  0  0  0  0  0  0  0  0
  187.2420  177.9660  137.6540 C   0  0  1  0  0  0  0  0  0  0  0  0
  188.7230  178.2450  141.3520 C   0  0  0  0  0  3  0  0  0  0  0  0
  186.2130  178.4750  138.4770 N   0  0  0  0  0  2  0  0  0  0  0  0
  188.2120  177.8560  138.6660 N   0  0  0  0  0  0  0  0  0  0  0  0
  187.2080  178.3830  139.5510 C   0  0  2  0  0  0  0  0  0  0  0  0
  191.0360  177.4520  141.2160 C   0  0  0  0  0  0  0  0  0  0  0  0
  192.0480  177.2880  140.4790 O   0  0  0  0  0  0  0  0  0  0  0  0
  191.2260  176.1070  143.3380 C   0  0  0  0  0  3  0  0  0  0  0  0
  191.4900  177.2060  145.4810 C   0  0  0  0  0  3  0  0  0  0  0  0
  191.3170  178.5200  143.4550 C   0  0  0  0  0  3  0  0  0  0  0  0
  191.4620  178.4500  144.8440 C   0  0  0  0  0  3  0  0  0  0  0  0
  191.2090  177.3500  142.6860 C   0  0  0  0  0  0  0  0  0  0  0  0
  191.3710  176.0350  144.7270 C   0  0  0  0  0  3  0  0  0  0  0  0
  186.2890  179.1510  141.7010 C   0  0  0  0  0  2  0  0  0  0  0  0
  185.6310  178.0370  142.4910 C   0  0  0  0  0  2  0  0  0  0  0  0
  185.2670  178.5290  143.8090 N   0  0  0  0  0  0  0  0  0  0  0  0
  187.1340  177.5250  144.8580 C   0  0  0  0  0  2  0  0  0  0  0  0
  187.4430  178.7540  147.6440 C   0  0  0  0  0  3  0  0  0  0  0  0
  185.9820  178.6830  147.4650 C   0  0  0  0  0  3  0  0  0  0  0  0
  188.3290  178.0290  146.9620 C   0  0  0  0  0  3  0  0  0  0  0  0
  185.3400  178.4160  146.3220 C   0  0  0  0  0  3  0  0  0  0  0  0
  185.9590  178.1450  145.0000 C   0  0  0  0  0  0  0  0  0  0  0  0
  187.9320  176.9700  145.9900 C   0  0  0  0  0  2  0  0  0  0  0  0
  186.8590  176.5850  137.1310 C   0  0  0  0  0  2  0  0  0  0  0  0
  187.3960  176.3690  135.7270 C   0  0  0  0  0  2  0  0  0  0  0  0
  188.4160  175.3350  135.7360 N   0  0  0  0  0  2  0  0  0  0  0  0
  188.3710  174.7400  137.0040 N   0  0  0  0  0  2  0  0  0  0  0  0
  189.2810  173.6050  136.9690 C   0  0  0  0  0  2  0  0  0  0  0  0
  193.8660  172.8580  136.6110 C   0  0  0  0  0  2  0  0  0  0  0  0
  190.4040  173.8330  135.9610 C   0  0  2  0  0  3  0  0  0  0  0  0
  190.6070  172.6050  135.0580 C   0  0  0  0  0  2  0  0  0  0  0  0
  191.7370  174.1250  136.6680 C   0  0  1  0  0  3  0  0  0  0  0  0
  192.0000  172.2370  135.2050 N   0  0  0  0  0  0  0  0  0  0  0  0
  192.5910  171.0690  134.5720 C   0  0  0  0  0  1  0  0  0  0  0  0
  192.6560  173.1000  136.1150 C   0  0  0  0  0  0  0  0  0  0  0  0
  192.3820  176.3580  137.2710 O   0  0  0  0  0  1  0  0  0  0  0  0
  192.4480  175.8690  135.0330 O   0  0  0  0  0  0  0  0  0  0  0  0
  192.2000  175.5140  136.3530 C   0  0  0  0  0  0  0  0  0  0  0  0
  1  2  2  0  0  0  0
  2  9  1  0  0  0  0
  2  5  1  0  0  0  0
  3  5  2  0  0  0  0
  3 17  1  0  0  0  0
  4 27  1  1  0  0  0
  4  6  1  0  0  0  0
  4  7  1  0  0  0  0
  4  8  1  0  0  0  0
  7  1  1  0  0  0  0
  7  8  1  0  0  0  0
  8  6  1  1  0  0  0
  8  3  1  0  0  0  0
  9 15  1  0  0  0  0
 10  9  2  0  0  0  0
 11 16  1  0  0  0  0
 13 14  2  0  0  0  0
 14 12  1  0  0  0  0
 15 11  2  0  0  0  0
 15 13  1  0  0  0  0
 16 12  2  0  0  0  0
 17 18  1  0  0  0  0
 18 19  1  0  0  0  0
 19 25  2  0  0  0  0
 20 25  1  0  0  0  0
 20 26  1  0  0  0  0
 22 21  1  0  0  0  0
 23 21  2  0  0  0  0
 24 22  2  0  0  0  0
 25 24  1  0  0  0  0
 26 23  1  0  0  0  0
 28 29  1  0  0  0  0
 28 27  1  0  0  0  0
 29 30  1  0  0  0  0
 31 30  1  0  0  0  0
 33 35  1  0  0  0  0
 33 31  1  1  0  0  0
 34 36  1  0  0  0  0
 34 33  1  0  0  0  0
 35 41  1  6  0  0  0
 36 38  1  0  0  0  0
 37 36  1  0  0  0  0
 38 32  2  0  0  0  0
 38 35  1  0  0  0  0
 40 41  2  0  0  0  0
 41 39  1  0  0  0  0
M  END
>  <MODEL>
8

>  <REMARK>
 VINA RESULT:      -7.4      2.528      4.070
  Name = 
  13 active torsions:
  status: ('A' for Active; 'I' for Inactive)
    1  A    between atoms: C_2  and  N_10
    2  A    between atoms: C_2  and  C_11
    3  A    between atoms: N_4  and  C_20
    4  A    between atoms: N_4  and  C_25
    5  A    between atoms: C_9  and  C_19
    6  A    between atoms: C_9  and  C_20
    7  A    between atoms: N_10  and  N_18
    8  A    between atoms: C_11  and  C_21
    9  A    between atoms: C_16  and  C_22
   10  A    between atoms: N_18  and  C_41
   11  A    between atoms: C_22  and  C_31
   12  A    between atoms: C_29  and  C_41
   13  A    between atoms: C_33  and  C_36
                            x       y       z     vdW  Elec       q    Type
                         _______ _______ _______ _____ _____    ______ ____

>  <TORSDO>
F 13

$$$$
=
 OpenBabel10232408343D

 41 46  0  0  1  0  0  0  0  0999 V2000
  190.1130  177.3750  141.6610 C   0  0  0  0  0  3  0  0  0  0  0  0
  189.1590  177.4800  142.8670 C   0  0  0  0  0  0  0  0  0  0  0  0
  187.3110  178.5130  141.4880 C   0  0  0  0  0  0  0  0  0  0  0  0
  189.4730  178.1360  139.0950 C   0  0  1  0  0  0  0  0  0  0  0  0
  187.9010  178.0140  142.7640 C   0  0  0  0  0  3  0  0  0  0  0  0
  188.1660  178.6630  139.0040 N   0  0  0  0  0  2  0  0  0  0  0  0
  189.4410  177.8710  140.4750 N   0  0  0  0  0  0  0  0  0  0  0  0
  188.1070  178.4100  140.4490 C   0  0  2  0  0  0  0  0  0  0  0  0
  189.6290  177.0480  144.2070 C   0  0  0  0  0  0  0  0  0  0  0  0
  190.6920  176.3720  144.2860 O   0  0  0  0  0  0  0  0  0  0  0  0
  187.5280  177.6650  145.4550 C   0  0  0  0  0  3  0  0  0  0  0  0
  187.5710  178.0210  147.8510 C   0  0  0  0  0  3  0  0  0  0  0  0
  189.6010  177.4230  146.6760 C   0  0  0  0  0  3  0  0  0  0  0  0
  188.9400  177.7420  147.8660 C   0  0  0  0  0  3  0  0  0  0  0  0
  188.9000  177.3700  145.4590 C   0  0  0  0  0  0  0  0  0  0  0  0
  186.8660  177.9840  146.6440 C   0  0  0  0  0  3  0  0  0  0  0  0
  185.9400  179.0850  141.3960 C   0  0  0  0  0  2  0  0  0  0  0  0
  184.9840  178.2900  142.2640 C   0  0  0  0  0  2  0  0  0  0  0  0
  183.6310  178.7840  142.0720 N   0  0  0  0  0  2  0  0  0  0  0  0
  183.2150  177.3150  140.2670 C   0  0  0  0  0  3  0  0  0  0  0  0
  180.2410  176.5920  140.2850 C   0  0  0  0  0  3  0  0  0  0  0  0
  180.2500  178.0030  140.7100 C   0  0  0  0  0  3  0  0  0  0  0  0
  181.2300  175.9910  139.6240 C   0  0  0  0  0  3  0  0  0  0  0  0
  181.3270  178.7140  141.0630 C   0  0  0  0  0  3  0  0  0  0  0  0
  182.7300  178.2320  141.1090 C   0  0  0  0  0  0  0  0  0  0  0  0
  182.4390  176.7170  139.1410 C   0  0  0  0  0  2  0  0  0  0  0  0
  189.5680  176.8340  138.3040 C   0  0  0  0  0  2  0  0  0  0  0  0
  190.9140  176.1650  138.5220 C   0  0  0  0  0  2  0  0  0  0  0  0
  190.8680  174.7900  138.0580 N   0  0  0  0  0  2  0  0  0  0  0  0
  190.1950  174.8030  136.8300 N   0  0  0  0  0  2  0  0  0  0  0  0
  189.2640  173.6840  136.8460 C   0  0  0  0  0  2  0  0  0  0  0  0
  185.7290  176.6890  137.2710 C   0  0  0  0  0  2  0  0  0  0  0  0
  187.9680  174.0380  136.1230 C   0  0  2  0  0  3  0  0  0  0  0  0
  188.1860  175.1620  135.0970 C   0  0  0  0  0  2  0  0  0  0  0  0
  186.8880  174.5030  137.1110 C   0  0  1  0  0  3  0  0  0  0  0  0
  187.2440  176.2040  135.4520 N   0  0  0  0  0  0  0  0  0  0  0  0
  187.1770  177.4880  134.7710 C   0  0  0  0  0  1  0  0  0  0  0  0
  186.4940  175.8370  136.5940 C   0  0  0  0  0  0  0  0  0  0  0  0
  185.5260  172.7880  138.0950 O   0  0  0  0  0  1  0  0  0  0  0  0
  184.8770  173.5090  136.0200 O   0  0  0  0  0  0  0  0  0  0  0  0
  185.7350  173.5470  137.1120 C   0  0  0  0  0  0  0  0  0  0  0  0
  1  2  2  0  0  0  0
  2  9  1  0  0  0  0
  3  5  2  0  0  0  0
  4 27  1  6  0  0  0
  4  8  1  0  0  0  0
  4  7  1  0  0  0  0
  5  2  1  0  0  0  0
  6  4  1  0  0  0  0
  7  1  1  0  0  0  0
  8  6  1  6  0  0  0
  8  7  1  0  0  0  0
  8  3  1  0  0  0  0
  9 10  2  0  0  0  0
  9 15  1  0  0  0  0
 11 15  2  0  0  0  0
 11 16  1  0  0  0  0
 12 14  1  0  0  0  0
 13 14  2  0  0  0  0
 15 13  1  0  0  0  0
 16 12  2  0  0  0  0
 17  3  1  0  0  0  0
 17 18  1  0  0  0  0
 19 18  1  0  0  0  0
 20 25  2  0  0  0  0
 21 22  1  0  0  0  0
 22 24  2  0  0  0  0
 23 21  2  0  0  0  0
 24 25  1  0  0  0  0
 25 19  1  0  0  0  0
 26 23  1  0  0  0  0
 26 20  1  0  0  0  0
 27 28  1  0  0  0  0
 29 28  1  0  0  0  0
 30 31  1  0  0  0  0
 30 29  1  0  0  0  0
 33 31  1  1  0  0  0
 33 35  1  0  0  0  0
 34 36  1  0  0  0  0
 34 33  1  0  0  0  0
 35 41  1  6  0  0  0
 36 38  1  0  0  0  0
 37 36  1  0  0  0  0
 38 35  1  0  0  0  0
 38 32  2  0  0  0  0
 40 41  2  0  0  0  0
 41 39  1  0  0  0  0
M  END
>  <MODEL>
9

>  <REMARK>
 VINA RESULT:      -7.4      2.331      6.073
  Name = 
  13 active torsions:
  status: ('A' for Active; 'I' for Inactive)
    1  A    between atoms: C_2  and  N_10
    2  A    between atoms: C_2  and  C_11
    3  A    between atoms: N_4  and  C_20
    4  A    between atoms: N_4  and  C_25
    5  A    between atoms: C_9  and  C_19
    6  A    between atoms: C_9  and  C_20
    7  A    between atoms: N_10  and  N_18
    8  A    between atoms: C_11  and  C_21
    9  A    between atoms: C_16  and  C_22
   10  A    between atoms: N_18  and  C_41
   11  A    between atoms: C_22  and  C_31
   12  A    between atoms: C_29  and  C_41
   13  A    between atoms: C_33  and  C_36
                            x       y       z     vdW  Elec       q    Type
                         _______ _______ _______ _____ _____    ______ ____

>  <TORSDO>
F 13

$$$$
