=
 OpenBabel10232411323D

 27 30  0  0  1  0  0  0  0  0999 V2000
  189.0650  176.3870  142.9070 C   0  0  1  0  0  0  0  0  0  0  0  0
  186.8720  179.0260  141.5120 N   0  0  0  0  0  0  0  0  0  0  0  0
  185.0150  178.6400  142.9800 C   0  0  0  0  0  3  0  0  0  0  0  0
  188.9040  177.5440  141.8790 C   0  0  2  0  0  3  0  0  0  0  0  0
  185.7030  177.6340  143.5930 N   0  0  0  0  0  0  0  0  0  0  0  0
  189.1170  176.6770  144.3600 N   0  0  0  0  0  0  0  0  0  0  0  0
  187.8340  176.2440  143.7190 C   0  0  1  0  0  3  0  0  0  0  0  0
  189.6550  175.1870  142.5490 F   0  0  0  0  0  0  0  0  0  0  0  0
  185.6110  179.3510  141.9210 C   0  0  0  0  0  3  0  0  0  0  0  0
  186.9570  177.3330  143.1750 C   0  0  0  0  0  0  0  0  0  0  0  0
  187.5250  178.0100  142.1320 C   0  0  0  0  0  0  0  0  0  0  0  0
  189.1780  178.1150  144.6490 C   0  0  0  0  0  2  0  0  0  0  0  0
  189.0780  178.3540  146.1470 C   0  0  0  0  0  2  0  0  0  0  0  0
  189.3410  177.0750  146.9290 C   0  0  0  0  0  2  0  0  0  0  0  0
  190.6120  177.2060  147.7470 C   0  0  0  0  0  2  0  0  0  0  0  0
  191.9520  175.8860  145.5520 O   0  0  0  0  0  0  0  0  0  0  0  0
  191.8950  176.1320  147.0440 P   0  0  1  0  0  4  0  0  0  0  0  0
  193.1170  175.4360  147.9850 O   0  0  0  0  0  1  0  0  0  0  0  0
  189.0960  177.1130  140.5260 O   0  0  0  0  0  0  0  0  0  0  0  0
  191.6080  177.3420  140.5020 C   0  0  0  0  0  3  0  0  0  0  0  0
  192.7650  177.2640  139.8470 C   0  0  0  0  0  3  0  0  0  0  0  0
  191.7490  174.6710  137.6680 C   0  0  0  0  0  1  0  0  0  0  0  0
  193.8800  176.8070  137.8190 O   0  0  0  0  0  0  0  0  0  0  0  0
  190.3190  176.4310  138.6370 C   0  0  0  0  0  3  0  0  0  0  0  0
  191.5690  176.1690  137.8350 C   0  0  1  0  0  3  0  0  0  0  0  0
  192.8010  176.7620  138.4660 C   0  0  0  0  0  0  0  0  0  0  0  0
  190.3280  176.9490  139.8710 C   0  0  0  0  0  0  0  0  0  0  0  0
  1  8  1  6  0  0  0
  1  7  1  0  0  0  0
  1  6  1  0  0  0  0
  2  9  2  0  0  0  0
  2 11  1  0  0  0  0
  3  5  2  0  0  0  0
  4 19  1  6  0  0  0
  4 11  1  0  0  0  0
  4  1  1  0  0  0  0
  6 12  1  0  0  0  0
  7 10  1  6  0  0  0
  7  6  1  0  0  0  0
  9  3  1  0  0  0  0
 10  5  1  0  0  0  0
 11 10  2  0  0  0  0
 12 13  1  0  0  0  0
 13 14  1  0  0  0  0
 14 15  1  0  0  0  0
 17 16  2  6  0  0  0
 17 15  1  0  0  0  0
 17 18  1  0  0  0  0
 21 20  2  0  0  0  0
 23 26  2  0  0  0  0
 24 27  2  0  0  0  0
 25 22  1  1  0  0  0
 25 26  1  0  0  0  0
 25 24  1  0  0  0  0
 26 21  1  0  0  0  0
 27 20  1  0  0  0  0
 27 19  1  0  0  0  0
M  END
>  <MODEL>
1

>  <REMARK>
 VINA RESULT:      -7.2      0.000      0.000
  Name = 
  7 active torsions:
  status: ('A' for Active; 'I' for Inactive)
    1  A    between atoms: C_3  and  C_11
    2  A    between atoms: C_3  and  N_18
    3  A    between atoms: C_8  and  O_24
    4  A    between atoms: C_11  and  C_13
    5  A    between atoms: C_12  and  C_13
    6  A    between atoms: C_12  and  P_17
    7  A    between atoms: O_24  and  C_27
                            x       y       z     vdW  Elec       q    Type
                         _______ _______ _______ _____ _____    ______ ____

>  <TORSDO>
F 7

$$$$
=
 OpenBabel10232411323D

 27 30  0  0  1  0  0  0  0  0999 V2000
  189.5010  176.3660  142.6410 C   0  0  1  0  0  0  0  0  0  0  0  0
  187.1290  178.8890  141.3260 N   0  0  0  0  0  0  0  0  0  0  0  0
  185.3670  178.4480  142.8920 C   0  0  0  0  0  3  0  0  0  0  0  0
  189.2390  177.5000  141.6080 C   0  0  2  0  0  3  0  0  0  0  0  0
  186.1270  177.4800  143.4820 N   0  0  0  0  0  0  0  0  0  0  0  0
  189.6140  176.6790  144.0850 N   0  0  0  0  0  0  0  0  0  0  0  0
  188.3190  176.1830  143.5160 C   0  0  1  0  0  3  0  0  0  0  0  0
  190.1230  175.1860  142.2680 F   0  0  0  0  0  0  0  0  0  0  0  0
  185.8780  179.1670  141.7950 C   0  0  0  0  0  3  0  0  0  0  0  0
  187.3710  177.2260  143.0040 C   0  0  0  0  0  0  0  0  0  0  0  0
  187.8560  177.9110  141.9250 C   0  0  0  0  0  0  0  0  0  0  0  0
  189.6280  178.1230  144.3530 C   0  0  0  0  0  2  0  0  0  0  0  0
  189.8300  178.3790  145.8370 C   0  0  0  0  0  2  0  0  0  0  0  0
  190.5440  177.2140  146.5070 C   0  0  0  0  0  2  0  0  0  0  0  0
  189.5840  176.4430  147.3940 C   0  0  0  0  0  2  0  0  0  0  0  0
  188.2320  178.3900  149.0490 O   0  0  0  0  0  0  0  0  0  0  0  0
  188.1750  177.5040  147.8230 P   0  0  1  0  0  4  0  0  0  0  0  0
  186.7930  177.6190  146.8550 O   0  0  0  0  0  1  0  0  0  0  0  0
  189.3800  177.0570  140.2520 O   0  0  0  0  0  0  0  0  0  0  0  0
  191.8920  177.2690  140.1320 C   0  0  0  0  0  3  0  0  0  0  0  0
  193.0250  177.1540  139.4420 C   0  0  0  0  0  3  0  0  0  0  0  0
  191.9230  174.4670  137.4240 C   0  0  0  0  0  1  0  0  0  0  0  0
  194.0670  176.5940  137.4010 O   0  0  0  0  0  0  0  0  0  0  0  0
  190.5350  176.2790  138.3570 C   0  0  0  0  0  3  0  0  0  0  0  0
  191.7560  175.9710  137.5260 C   0  0  1  0  0  3  0  0  0  0  0  0
  193.0110  176.5870  138.0860 C   0  0  0  0  0  0  0  0  0  0  0  0
  190.5890  176.8550  139.5640 C   0  0  0  0  0  0  0  0  0  0  0  0
  1  8  1  6  0  0  0
  1  7  1  0  0  0  0
  1  6  1  0  0  0  0
  2  9  2  0  0  0  0
  2 11  1  0  0  0  0
  3  5  2  0  0  0  0
  4 19  1  6  0  0  0
  4 11  1  0  0  0  0
  4  1  1  0  0  0  0
  6 12  1  0  0  0  0
  7 10  1  6  0  0  0
  7  6  1  0  0  0  0
  9  3  1  0  0  0  0
 10  5  1  0  0  0  0
 11 10  2  0  0  0  0
 12 13  1  0  0  0  0
 13 14  1  0  0  0  0
 14 15  1  0  0  0  0
 15 17  1  0  0  0  0
 17 18  1  6  0  0  0
 17 16  2  0  0  0  0
 21 20  2  0  0  0  0
 23 26  2  0  0  0  0
 24 27  2  0  0  0  0
 25 22  1  1  0  0  0
 25 26  1  0  0  0  0
 25 24  1  0  0  0  0
 26 21  1  0  0  0  0
 27 20  1  0  0  0  0
 27 19  1  0  0  0  0
M  END
>  <MODEL>
2

>  <REMARK>
 VINA RESULT:      -6.8      1.812      1.954
  Name = 
  7 active torsions:
  status: ('A' for Active; 'I' for Inactive)
    1  A    between atoms: C_3  and  C_11
    2  A    between atoms: C_3  and  N_18
    3  A    between atoms: C_8  and  O_24
    4  A    between atoms: C_11  and  C_13
    5  A    between atoms: C_12  and  C_13
    6  A    between atoms: C_12  and  P_17
    7  A    between atoms: O_24  and  C_27
                            x       y       z     vdW  Elec       q    Type
                         _______ _______ _______ _____ _____    ______ ____

>  <TORSDO>
F 7

$$$$
=
 OpenBabel10232411323D

 27 30  0  0  1  0  0  0  0  0999 V2000
  190.0190  178.3340  143.6600 C   0  0  1  0  0  0  0  0  0  0  0  0
  191.7090  175.0570  144.0100 N   0  0  0  0  0  0  0  0  0  0  0  0
  192.4020  175.3490  146.2870 C   0  0  0  0  0  3  0  0  0  0  0  0
  190.3870  176.9760  142.9960 C   0  0  2  0  0  3  0  0  0  0  0  0
  191.8250  176.5850  146.3080 N   0  0  0  0  0  0  0  0  0  0  0  0
  189.0620  178.3810  144.7910 N   0  0  0  0  0  0  0  0  0  0  0  0
  190.5380  178.3860  145.0470 C   0  0  1  0  0  3  0  0  0  0  0  0
  190.1310  179.5260  142.9640 F   0  0  0  0  0  0  0  0  0  0  0  0
  192.3410  174.5690  145.1160 C   0  0  0  0  0  3  0  0  0  0  0  0
  191.1950  177.0470  145.1990 C   0  0  0  0  0  0  0  0  0  0  0  0
  191.1570  176.2960  144.0570 C   0  0  0  0  0  0  0  0  0  0  0  0
  188.4220  177.0840  145.0460 C   0  0  0  0  0  2  0  0  0  0  0  0
  186.9180  177.1970  144.8600 C   0  0  0  0  0  2  0  0  0  0  0  0
  186.2410  177.7090  146.1230 C   0  0  0  0  0  2  0  0  0  0  0  0
  185.6610  179.0920  145.8900 C   0  0  0  0  0  2  0  0  0  0  0  0
  183.0940  178.6540  144.6350 O   0  0  0  0  0  0  0  0  0  0  0  0
  184.5450  179.0450  144.4590 P   0  0  1  0  0  4  0  0  0  0  0  0
  185.0330  179.5090  142.9070 O   0  0  0  0  0  1  0  0  0  0  0  0
  191.1430  177.1370  141.7890 O   0  0  0  0  0  0  0  0  0  0  0  0
  189.5690  178.0430  140.0380 C   0  0  0  0  0  3  0  0  0  0  0  0
  189.0310  177.9640  138.8220 C   0  0  0  0  0  3  0  0  0  0  0  0
  191.8680  176.5130  137.2880 C   0  0  0  0  0  1  0  0  0  0  0  0
  188.9070  176.8090  136.7690 O   0  0  0  0  0  0  0  0  0  0  0  0
  191.1390  176.2170  139.6250 C   0  0  0  0  0  3  0  0  0  0  0  0
  190.7110  176.1070  138.1830 C   0  0  1  0  0  3  0  0  0  0  0  0
  189.5040  176.9510  137.8680 C   0  0  0  0  0  0  0  0  0  0  0  0
  190.6360  177.1160  140.4790 C   0  0  0  0  0  0  0  0  0  0  0  0
  1  8  1  6  0  0  0
  1  6  1  0  0  0  0
  1  7  1  0  0  0  0
  2 11  2  0  0  0  0
  2  9  1  0  0  0  0
  3  5  1  0  0  0  0
  4 19  1  6  0  0  0
  4  1  1  0  0  0  0
  4 11  1  0  0  0  0
  6 12  1  0  0  0  0
  6  7  1  0  0  0  0
  7 10  1  1  0  0  0
  9  3  2  0  0  0  0
 10  5  2  0  0  0  0
 11 10  1  0  0  0  0
 13 12  1  0  0  0  0
 13 14  1  0  0  0  0
 15 14  1  0  0  0  0
 17 18  1  1  0  0  0
 17 16  2  0  0  0  0
 17 15  1  0  0  0  0
 20 27  1  0  0  0  0
 21 20  2  0  0  0  0
 23 26  2  0  0  0  0
 24 27  2  0  0  0  0
 25 22  1  6  0  0  0
 25 24  1  0  0  0  0
 26 25  1  0  0  0  0
 26 21  1  0  0  0  0
 27 19  1  0  0  0  0
M  END
>  <MODEL>
3

>  <REMARK>
 VINA RESULT:      -6.6      3.278      5.158
  Name = 
  7 active torsions:
  status: ('A' for Active; 'I' for Inactive)
    1  A    between atoms: C_3  and  C_11
    2  A    between atoms: C_3  and  N_18
    3  A    between atoms: C_8  and  O_24
    4  A    between atoms: C_11  and  C_13
    5  A    between atoms: C_12  and  C_13
    6  A    between atoms: C_12  and  P_17
    7  A    between atoms: O_24  and  C_27
                            x       y       z     vdW  Elec       q    Type
                         _______ _______ _______ _____ _____    ______ ____

>  <TORSDO>
F 7

$$$$
=
 OpenBabel10232411323D

 27 30  0  0  1  0  0  0  0  0999 V2000
  188.2490  176.7810  144.0820 C   0  0  1  0  0  0  0  0  0  0  0  0
  188.1010  178.5770  147.3170 N   0  0  0  0  0  0  0  0  0  0  0  0
  189.9960  177.4990  148.3150 C   0  0  0  0  0  3  0  0  0  0  0  0
  187.5400  177.8660  144.9430 C   0  0  2  0  0  3  0  0  0  0  0  0
  190.1760  176.7580  147.1830 N   0  0  0  0  0  0  0  0  0  0  0  0
  189.6360  176.9910  143.6040 N   0  0  0  0  0  0  0  0  0  0  0  0
  189.3750  176.1800  144.8350 C   0  0  1  0  0  3  0  0  0  0  0  0
  187.5210  175.8770  143.3260 F   0  0  0  0  0  0  0  0  0  0  0  0
  188.9400  178.4280  148.3830 C   0  0  0  0  0  3  0  0  0  0  0  0
  189.3330  176.9290  146.1340 C   0  0  0  0  0  0  0  0  0  0  0  0
  188.2960  177.8160  146.2110 C   0  0  0  0  0  0  0  0  0  0  0  0
  190.1320  178.3450  143.8810 C   0  0  0  0  0  2  0  0  0  0  0  0
  191.3670  178.6330  143.0440 C   0  0  0  0  0  2  0  0  0  0  0  0
  191.8450  177.3850  142.3150 C   0  0  0  0  0  2  0  0  0  0  0  0
  192.0240  177.6720  140.8360 C   0  0  0  0  0  2  0  0  0  0  0  0
  189.2890  178.0400  139.9760 O   0  0  0  0  0  0  0  0  0  0  0  0
  190.5280  177.1720  139.9380 P   0  0  1  0  0  4  0  0  0  0  0  0
  190.4680  175.7890  138.9660 O   0  0  0  0  0  1  0  0  0  0  0  0
  186.1440  177.6010  145.1270 O   0  0  0  0  0  0  0  0  0  0  0  0
  183.9500  178.8120  144.8360 C   0  0  0  0  0  3  0  0  0  0  0  0
  182.9180  179.1550  144.0670 C   0  0  0  0  0  3  0  0  0  0  0  0
  184.7400  179.1700  141.0370 C   0  0  0  0  0  1  0  0  0  0  0  0
  181.8680  179.0120  141.9590 O   0  0  0  0  0  0  0  0  0  0  0  0
  185.1520  177.7370  143.0000 C   0  0  0  0  0  3  0  0  0  0  0  0
  184.1140  178.1760  141.9970 C   0  0  1  0  0  3  0  0  0  0  0  0
  182.9000  178.7880  142.6440 C   0  0  0  0  0  0  0  0  0  0  0  0
  185.0960  178.0420  144.3020 C   0  0  0  0  0  0  0  0  0  0  0  0
  1  8  1  6  0  0  0
  1  7  1  0  0  0  0
  1  4  1  0  0  0  0
  2  9  1  0  0  0  0
  3  9  2  0  0  0  0
  4 19  1  1  0  0  0
  4 11  1  0  0  0  0
  5  3  1  0  0  0  0
  6 12  1  0  0  0  0
  6  1  1  0  0  0  0
  6  7  1  0  0  0  0
  7 10  1  1  0  0  0
 10 11  1  0  0  0  0
 10  5  2  0  0  0  0
 11  2  2  0  0  0  0
 13 12  1  0  0  0  0
 14 13  1  0  0  0  0
 15 14  1  0  0  0  0
 17 18  1  6  0  0  0
 17 16  2  0  0  0  0
 17 15  1  0  0  0  0
 21 20  2  0  0  0  0
 23 26  2  0  0  0  0
 24 27  2  0  0  0  0
 25 22  1  6  0  0  0
 25 26  1  0  0  0  0
 25 24  1  0  0  0  0
 26 21  1  0  0  0  0
 27 20  1  0  0  0  0
 27 19  1  0  0  0  0
M  END
>  <MODEL>
4

>  <REMARK>
 VINA RESULT:      -6.6      3.235      6.883
  Name = 
  7 active torsions:
  status: ('A' for Active; 'I' for Inactive)
    1  A    between atoms: C_3  and  C_11
    2  A    between atoms: C_3  and  N_18
    3  A    between atoms: C_8  and  O_24
    4  A    between atoms: C_11  and  C_13
    5  A    between atoms: C_12  and  C_13
    6  A    between atoms: C_12  and  P_17
    7  A    between atoms: O_24  and  C_27
                            x       y       z     vdW  Elec       q    Type
                         _______ _______ _______ _____ _____    ______ ____

>  <TORSDO>
F 7

$$$$
=
 OpenBabel10232411323D

 27 30  0  0  1  0  0  0  0  0999 V2000
  190.5380  177.3570  139.5800 C   0  0  1  0  0  0  0  0  0  0  0  0
  187.0310  178.0320  138.5980 N   0  0  0  0  0  0  0  0  0  0  0  0
  187.4940  178.6150  136.3190 C   0  0  0  0  0  3  0  0  0  0  0  0
  189.0420  177.3760  140.0070 C   0  0  2  0  0  3  0  0  0  0  0  0
  188.8260  178.4070  136.5310 N   0  0  0  0  0  0  0  0  0  0  0  0
  191.0200  176.3730  138.5820 N   0  0  0  0  0  0  0  0  0  0  0  0
  190.6750  177.7690  138.1630 C   0  0  1  0  0  3  0  0  0  0  0  0
  191.5280  177.8470  140.4150 F   0  0  0  0  0  0  0  0  0  0  0  0
  186.5790  178.4210  137.3710 C   0  0  0  0  0  3  0  0  0  0  0  0
  189.2510  178.0120  137.7570 C   0  0  0  0  0  0  0  0  0  0  0  0
  188.3630  177.8460  138.7820 C   0  0  0  0  0  0  0  0  0  0  0  0
  190.0000  175.3790  138.2270 C   0  0  0  0  0  2  0  0  0  0  0  0
  190.5690  174.3710  137.2420 C   0  0  0  0  0  2  0  0  0  0  0  0
  191.9960  174.7260  136.8500 C   0  0  0  0  0  2  0  0  0  0  0  0
  192.8890  173.5020  136.9310 C   0  0  0  0  0  2  0  0  0  0  0  0
  195.0990  175.2950  137.4430 O   0  0  0  0  0  0  0  0  0  0  0  0
  194.4590  173.9520  137.7220 P   0  0  1  0  0  4  0  0  0  0  0  0
  195.2290  172.9550  138.8520 O   0  0  0  0  0  1  0  0  0  0  0  0
  188.7980  178.2310  141.1310 O   0  0  0  0  0  0  0  0  0  0  0  0
  187.7130  177.0870  143.1010 C   0  0  0  0  0  3  0  0  0  0  0  0
  187.6970  176.8050  144.4030 C   0  0  0  0  0  3  0  0  0  0  0  0
  191.2090  176.8860  144.8120 C   0  0  0  0  0  1  0  0  0  0  0  0
  188.7190  177.0710  146.5130 O   0  0  0  0  0  0  0  0  0  0  0  0
  189.8760  178.2170  143.2210 C   0  0  0  0  0  3  0  0  0  0  0  0
  190.0450  177.8500  144.6740 C   0  0  1  0  0  3  0  0  0  0  0  0
  188.8040  177.2390  145.2680 C   0  0  0  0  0  0  0  0  0  0  0  0
  188.8200  177.8530  142.4850 C   0  0  0  0  0  0  0  0  0  0  0  0
  1  4  1  0  0  0  0
  1  8  1  1  0  0  0
  2 11  1  0  0  0  0
  3  5  2  0  0  0  0
  3  9  1  0  0  0  0
  4 19  1  1  0  0  0
  5 10  1  0  0  0  0
  6  1  1  0  0  0  0
  7 10  1  6  0  0  0
  7  6  1  0  0  0  0
  7  1  1  0  0  0  0
  9  2  2  0  0  0  0
 10 11  2  0  0  0  0
 11  4  1  0  0  0  0
 12  6  1  0  0  0  0
 13 12  1  0  0  0  0
 14 15  1  0  0  0  0
 14 13  1  0  0  0  0
 15 17  1  0  0  0  0
 17 16  2  1  0  0  0
 17 18  1  0  0  0  0
 19 27  1  0  0  0  0
 20 21  2  0  0  0  0
 21 26  1  0  0  0  0
 24 25  1  0  0  0  0
 25 22  1  6  0  0  0
 25 26  1  0  0  0  0
 26 23  2  0  0  0  0
 27 20  1  0  0  0  0
 27 24  2  0  0  0  0
M  END
>  <MODEL>
5

>  <REMARK>
 VINA RESULT:      -6.5      3.290      7.055
  Name = 
  7 active torsions:
  status: ('A' for Active; 'I' for Inactive)
    1  A    between atoms: C_3  and  C_11
    2  A    between atoms: C_3  and  N_18
    3  A    between atoms: C_8  and  O_24
    4  A    between atoms: C_11  and  C_13
    5  A    between atoms: C_12  and  C_13
    6  A    between atoms: C_12  and  P_17
    7  A    between atoms: O_24  and  C_27
                            x       y       z     vdW  Elec       q    Type
                         _______ _______ _______ _____ _____    ______ ____

>  <TORSDO>
F 7

$$$$
=
 OpenBabel10232411323D

 27 30  0  0  1  0  0  0  0  0999 V2000
  190.4560  177.2940  139.5210 C   0  0  1  0  0  0  0  0  0  0  0  0
  186.9540  178.0620  138.5910 N   0  0  0  0  0  0  0  0  0  0  0  0
  187.3820  178.5270  136.2780 C   0  0  0  0  0  3  0  0  0  0  0  0
  188.9730  177.3900  139.9810 C   0  0  2  0  0  3  0  0  0  0  0  0
  188.7090  178.2770  136.4680 N   0  0  0  0  0  0  0  0  0  0  0  0
  190.8760  176.2500  138.5560 N   0  0  0  0  0  0  0  0  0  0  0  0
  190.5730  177.6390  138.0840 C   0  0  1  0  0  3  0  0  0  0  0  0
  191.4840  177.7820  140.3100 F   0  0  0  0  0  0  0  0  0  0  0  0
  186.4860  178.4150  137.3590 C   0  0  0  0  0  3  0  0  0  0  0  0
  189.1500  177.9200  137.7010 C   0  0  0  0  0  0  0  0  0  0  0  0
  188.2820  177.8330  138.7530 C   0  0  0  0  0  0  0  0  0  0  0  0
  189.8100  175.2820  138.2690 C   0  0  0  0  0  2  0  0  0  0  0  0
  190.2510  174.3260  137.1740 C   0  0  0  0  0  2  0  0  0  0  0  0
  189.1570  174.1330  136.1330 C   0  0  0  0  0  2  0  0  0  0  0  0
  187.8040  174.5000  136.7130 C   0  0  0  0  0  2  0  0  0  0  0  0
  187.0520  171.7970  136.0160 O   0  0  0  0  0  0  0  0  0  0  0  0
  186.8000  173.0000  136.8990 P   0  0  1  0  0  4  0  0  0  0  0  0
  185.6150  172.8390  138.0960 O   0  0  0  0  0  1  0  0  0  0  0  0
  188.7890  178.3010  141.0710 O   0  0  0  0  0  0  0  0  0  0  0  0
  190.0530  178.4150  143.2520 C   0  0  0  0  0  3  0  0  0  0  0  0
  190.1850  178.0510  144.5260 C   0  0  0  0  0  3  0  0  0  0  0  0
  186.7220  177.6750  145.1340 C   0  0  0  0  0  1  0  0  0  0  0  0
  189.3490  176.7890  146.3360 O   0  0  0  0  0  0  0  0  0  0  0  0
  187.8970  177.2940  143.0000 C   0  0  0  0  0  3  0  0  0  0  0  0
  187.8590  176.9270  144.4620 C   0  0  1  0  0  3  0  0  0  0  0  0
  189.1540  177.2260  145.1710 C   0  0  0  0  0  0  0  0  0  0  0  0
  188.8890  177.9950  142.4390 C   0  0  0  0  0  0  0  0  0  0  0  0
  1  4  1  0  0  0  0
  1  8  1  1  0  0  0
  2 11  1  0  0  0  0
  3  5  2  0  0  0  0
  3  9  1  0  0  0  0
  4 19  1  1  0  0  0
  5 10  1  0  0  0  0
  6  1  1  0  0  0  0
  7 10  1  6  0  0  0
  7  6  1  0  0  0  0
  7  1  1  0  0  0  0
  9  2  2  0  0  0  0
 10 11  2  0  0  0  0
 11  4  1  0  0  0  0
 12  6  1  0  0  0  0
 13 12  1  0  0  0  0
 14 15  1  0  0  0  0
 14 13  1  0  0  0  0
 15 17  1  0  0  0  0
 17 16  2  1  0  0  0
 17 18  1  0  0  0  0
 19 27  1  0  0  0  0
 20 21  2  0  0  0  0
 21 26  1  0  0  0  0
 24 25  1  0  0  0  0
 25 22  1  1  0  0  0
 25 26  1  0  0  0  0
 26 23  2  0  0  0  0
 27 24  2  0  0  0  0
 27 20  1  0  0  0  0
M  END
>  <MODEL>
6

>  <REMARK>
 VINA RESULT:      -6.3      3.928      7.500
  Name = 
  7 active torsions:
  status: ('A' for Active; 'I' for Inactive)
    1  A    between atoms: C_3  and  C_11
    2  A    between atoms: C_3  and  N_18
    3  A    between atoms: C_8  and  O_24
    4  A    between atoms: C_11  and  C_13
    5  A    between atoms: C_12  and  C_13
    6  A    between atoms: C_12  and  P_17
    7  A    between atoms: O_24  and  C_27
                            x       y       z     vdW  Elec       q    Type
                         _______ _______ _______ _____ _____    ______ ____

>  <TORSDO>
F 7

$$$$
=
 OpenBabel10232411323D

 27 30  0  0  1  0  0  0  0  0999 V2000
  184.1010  178.4590  139.7500 C   0  0  1  0  0  0  0  0  0  0  0  0
  182.1620  178.7910  142.8880 N   0  0  0  0  0  0  0  0  0  0  0  0
  180.1640  179.6570  141.8830 C   0  0  0  0  0  3  0  0  0  0  0  0
  184.0630  178.2490  141.2910 C   0  0  2  0  0  3  0  0  0  0  0  0
  180.7500  179.5950  140.6530 N   0  0  0  0  0  0  0  0  0  0  0  0
  183.2340  177.6500  138.8610 N   0  0  0  0  0  0  0  0  0  0  0  0
  182.8170  179.0280  139.2760 C   0  0  1  0  0  3  0  0  0  0  0  0
  185.2210  178.9800  139.1250 F   0  0  0  0  0  0  0  0  0  0  0  0
  180.8820  179.2450  143.0220 C   0  0  0  0  0  3  0  0  0  0  0  0
  182.0210  179.1330  140.5430 C   0  0  0  0  0  0  0  0  0  0  0  0
  182.7230  178.7540  141.6530 C   0  0  0  0  0  0  0  0  0  0  0  0
  182.5300  176.5780  139.5770 C   0  0  0  0  0  2  0  0  0  0  0  0
  182.6470  175.2710  138.8120 C   0  0  0  0  0  2  0  0  0  0  0  0
  183.7200  175.3540  137.7350 C   0  0  0  0  0  2  0  0  0  0  0  0
  183.5010  174.2820  136.6850 C   0  0  0  0  0  2  0  0  0  0  0  0
  185.6060  172.8910  138.0960 O   0  0  0  0  0  0  0  0  0  0  0  0
  184.4440  172.7970  137.1320 P   0  0  1  0  0  4  0  0  0  0  0  0
  184.0300  171.2530  136.5760 O   0  0  0  0  0  1  0  0  0  0  0  0
  185.1130  178.9470  141.9710 O   0  0  0  0  0  0  0  0  0  0  0  0
  185.5180  178.1440  144.3290 C   0  0  0  0  0  3  0  0  0  0  0  0
  186.3570  177.7180  145.2720 C   0  0  0  0  0  3  0  0  0  0  0  0
  188.6170  176.1640  143.0410 C   0  0  0  0  0  1  0  0  0  0  0  0
  188.5770  177.2000  145.8780 O   0  0  0  0  0  0  0  0  0  0  0  0
  187.2390  178.1590  142.5940 C   0  0  0  0  0  3  0  0  0  0  0  0
  188.2580  177.5550  143.5290 C   0  0  1  0  0  3  0  0  0  0  0  0
  187.7730  177.4850  144.9530 C   0  0  0  0  0  0  0  0  0  0  0  0
  185.9740  178.4140  142.9460 C   0  0  0  0  0  0  0  0  0  0  0  0
  1  8  1  6  0  0  0
  1  4  1  0  0  0  0
  2  9  1  0  0  0  0
  3  9  2  0  0  0  0
  4 11  1  0  0  0  0
  4 19  1  1  0  0  0
  5  3  1  0  0  0  0
  6  7  1  0  0  0  0
  6 12  1  0  0  0  0
  6  1  1  0  0  0  0
  7  1  1  0  0  0  0
  7 10  1  1  0  0  0
 10  5  2  0  0  0  0
 10 11  1  0  0  0  0
 11  2  2  0  0  0  0
 13 12  1  0  0  0  0
 14 13  1  0  0  0  0
 15 17  1  0  0  0  0
 15 14  1  0  0  0  0
 17 18  1  1  0  0  0
 17 16  2  0  0  0  0
 19 27  1  0  0  0  0
 20 21  2  0  0  0  0
 24 27  2  0  0  0  0
 24 25  1  0  0  0  0
 25 22  1  6  0  0  0
 25 26  1  0  0  0  0
 26 21  1  0  0  0  0
 26 23  2  0  0  0  0
 27 20  1  0  0  0  0
M  END
>  <MODEL>
7

>  <REMARK>
 VINA RESULT:      -6.3      5.031      8.219
  Name = 
  7 active torsions:
  status: ('A' for Active; 'I' for Inactive)
    1  A    between atoms: C_3  and  C_11
    2  A    between atoms: C_3  and  N_18
    3  A    between atoms: C_8  and  O_24
    4  A    between atoms: C_11  and  C_13
    5  A    between atoms: C_12  and  C_13
    6  A    between atoms: C_12  and  P_17
    7  A    between atoms: O_24  and  C_27
                            x       y       z     vdW  Elec       q    Type
                         _______ _______ _______ _____ _____    ______ ____

>  <TORSDO>
F 7

$$$$
=
 OpenBabel10232411323D

 27 30  0  0  1  0  0  0  0  0999 V2000
  189.7700  177.4650  141.0430 C   0  0  1  0  0  0  0  0  0  0  0  0
  186.6530  179.4460  141.3230 N   0  0  0  0  0  0  0  0  0  0  0  0
  185.6270  178.1000  143.0230 C   0  0  0  0  0  3  0  0  0  0  0  0
  188.9660  178.7100  140.5700 C   0  0  2  0  0  3  0  0  0  0  0  0
  186.7130  177.2740  143.0300 N   0  0  0  0  0  0  0  0  0  0  0  0
  190.2880  177.3900  142.4300 N   0  0  0  0  0  0  0  0  0  0  0  0
  189.0020  176.7140  142.0650 C   0  0  1  0  0  3  0  0  0  0  0  0
  190.4520  176.6660  140.1410 F   0  0  0  0  0  0  0  0  0  0  0  0
  185.5970  179.2090  142.1550 C   0  0  0  0  0  3  0  0  0  0  0  0
  187.7540  177.5330  142.2000 C   0  0  0  0  0  0  0  0  0  0  0  0
  187.7130  178.5980  141.3440 C   0  0  0  0  0  0  0  0  0  0  0  0
  190.1080  178.6450  143.1710 C   0  0  0  0  0  2  0  0  0  0  0  0
  190.9200  178.6170  144.4550 C   0  0  0  0  0  2  0  0  0  0  0  0
  191.4880  177.2300  144.7210 C   0  0  0  0  0  2  0  0  0  0  0  0
  191.3420  176.8700  146.1870 C   0  0  0  0  0  2  0  0  0  0  0  0
  188.4650  176.9210  145.9100 O   0  0  0  0  0  0  0  0  0  0  0  0
  189.6690  177.2920  146.7490 P   0  0  1  0  0  4  0  0  0  0  0  0
  189.3670  178.0260  148.2430 O   0  0  0  0  0  1  0  0  0  0  0  0
  188.7370  178.7150  139.1550 O   0  0  0  0  0  0  0  0  0  0  0  0
  186.4470  178.3150  138.1730 C   0  0  0  0  0  3  0  0  0  0  0  0
  185.5740  177.5010  137.5830 C   0  0  0  0  0  3  0  0  0  0  0  0
  187.9990  175.5940  135.8560 C   0  0  0  0  0  1  0  0  0  0  0  0
  185.1170  175.3510  136.7280 O   0  0  0  0  0  0  0  0  0  0  0  0
  188.2710  176.6950  138.0450 C   0  0  0  0  0  3  0  0  0  0  0  0
  187.4250  175.7290  137.2540 C   0  0  1  0  0  3  0  0  0  0  0  0
  185.9820  176.1500  137.1730 C   0  0  0  0  0  0  0  0  0  0  0  0
  187.8380  177.8930  138.4530 C   0  0  0  0  0  0  0  0  0  0  0  0
  1  8  1  6  0  0  0
  1  7  1  0  0  0  0
  1  6  1  0  0  0  0
  2 11  2  0  0  0  0
  2  9  1  0  0  0  0
  3  5  1  0  0  0  0
  4 19  1  6  0  0  0
  4  1  1  0  0  0  0
  4 11  1  0  0  0  0
  6 12  1  0  0  0  0
  7 10  1  1  0  0  0
  7  6  1  0  0  0  0
  9  3  2  0  0  0  0
 10  5  2  0  0  0  0
 11 10  1  0  0  0  0
 12 13  1  0  0  0  0
 13 14  1  0  0  0  0
 14 15  1  0  0  0  0
 15 17  1  0  0  0  0
 17 16  2  1  0  0  0
 17 18  1  0  0  0  0
 20 27  1  0  0  0  0
 21 20  2  0  0  0  0
 23 26  2  0  0  0  0
 24 27  2  0  0  0  0
 25 22  1  6  0  0  0
 25 24  1  0  0  0  0
 26 25  1  0  0  0  0
 26 21  1  0  0  0  0
 27 19  1  0  0  0  0
M  END
>  <MODEL>
8

>  <REMARK>
 VINA RESULT:      -6.3      2.802      3.689
  Name = 
  7 active torsions:
  status: ('A' for Active; 'I' for Inactive)
    1  A    between atoms: C_3  and  C_11
    2  A    between atoms: C_3  and  N_18
    3  A    between atoms: C_8  and  O_24
    4  A    between atoms: C_11  and  C_13
    5  A    between atoms: C_12  and  C_13
    6  A    between atoms: C_12  and  P_17
    7  A    between atoms: O_24  and  C_27
                            x       y       z     vdW  Elec       q    Type
                         _______ _______ _______ _____ _____    ______ ____

>  <TORSDO>
F 7

$$$$
=
 OpenBabel10232411323D

 27 30  0  0  1  0  0  0  0  0999 V2000
  188.7710  178.7740  138.3140 C   0  0  1  0  0  0  0  0  0  0  0  0
  185.8100  176.6990  137.5140 N   0  0  0  0  0  0  0  0  0  0  0  0
  186.1420  176.6530  135.1400 C   0  0  0  0  0  3  0  0  0  0  0  0
  187.5490  177.9780  138.8550 C   0  0  2  0  0  3  0  0  0  0  0  0
  187.2610  177.4220  135.2770 N   0  0  0  0  0  0  0  0  0  0  0  0
  189.9050  178.0640  137.6760 N   0  0  0  0  0  0  0  0  0  0  0  0
  188.8310  178.6840  136.8360 C   0  0  1  0  0  3  0  0  0  0  0  0
  189.0980  180.0190  138.8240 F   0  0  0  0  0  0  0  0  0  0  0  0
  185.4040  176.2820  136.2800 C   0  0  0  0  0  3  0  0  0  0  0  0
  187.6490  177.8180  136.5150 C   0  0  0  0  0  0  0  0  0  0  0  0
  186.9180  177.4750  137.6180 C   0  0  0  0  0  0  0  0  0  0  0  0
  189.7980  176.6040  137.7910 C   0  0  0  0  0  2  0  0  0  0  0  0
  190.7700  176.0870  138.8380 C   0  0  0  0  0  2  0  0  0  0  0  0
  190.3740  176.5430  140.2350 C   0  0  0  0  0  2  0  0  0  0  0  0
  191.5200  177.2870  140.8950 C   0  0  0  0  0  2  0  0  0  0  0  0
  191.6290  176.1720  143.5600 O   0  0  0  0  0  0  0  0  0  0  0  0
  191.2460  177.3480  142.6880 P   0  0  1  0  0  4  0  0  0  0  0  0
  190.6440  178.7220  143.4710 O   0  0  0  0  0  1  0  0  0  0  0  0
  186.6590  178.7900  139.6310 O   0  0  0  0  0  0  0  0  0  0  0  0
  184.9350  178.6870  141.4710 C   0  0  0  0  0  3  0  0  0  0  0  0
  184.6370  178.5960  142.7660 C   0  0  0  0  0  3  0  0  0  0  0  0
  187.4740  176.6730  143.6350 C   0  0  0  0  0  1  0  0  0  0  0  0
  185.4220  178.4310  144.9840 O   0  0  0  0  0  0  0  0  0  0  0  0
  187.3270  178.3630  141.8450 C   0  0  0  0  0  3  0  0  0  0  0  0
  187.1150  178.1130  143.3170 C   0  0  1  0  0  3  0  0  0  0  0  0
  185.7020  178.3940  143.7580 C   0  0  0  0  0  0  0  0  0  0  0  0
  186.3310  178.6060  140.9860 C   0  0  0  0  0  0  0  0  0  0  0  0
  1  8  1  1  0  0  0
  1  4  1  0  0  0  0
  2 11  1  0  0  0  0
  3  5  2  0  0  0  0
  3  9  1  0  0  0  0
  4 19  1  6  0  0  0
  5 10  1  0  0  0  0
  6 12  1  0  0  0  0
  6  1  1  0  0  0  0
  7 10  1  1  0  0  0
  7  6  1  0  0  0  0
  7  1  1  0  0  0  0
  9  2  2  0  0  0  0
 10 11  2  0  0  0  0
 11  4  1  0  0  0  0
 12 13  1  0  0  0  0
 13 14  1  0  0  0  0
 14 15  1  0  0  0  0
 15 17  1  0  0  0  0
 17 18  1  1  0  0  0
 17 16  2  0  0  0  0
 19 27  1  0  0  0  0
 20 21  2  0  0  0  0
 21 26  1  0  0  0  0
 24 25  1  0  0  0  0
 25 22  1  6  0  0  0
 25 26  1  0  0  0  0
 26 23  2  0  0  0  0
 27 20  1  0  0  0  0
 27 24  2  0  0  0  0
M  END
>  <MODEL>
9

>  <REMARK>
 VINA RESULT:      -6.1      3.509      6.686
  Name = 
  7 active torsions:
  status: ('A' for Active; 'I' for Inactive)
    1  A    between atoms: C_3  and  C_11
    2  A    between atoms: C_3  and  N_18
    3  A    between atoms: C_8  and  O_24
    4  A    between atoms: C_11  and  C_13
    5  A    between atoms: C_12  and  C_13
    6  A    between atoms: C_12  and  P_17
    7  A    between atoms: O_24  and  C_27
                            x       y       z     vdW  Elec       q    Type
                         _______ _______ _______ _____ _____    ______ ____

>  <TORSDO>
F 7

$$$$
