=
 OpenBabel10222421283D

 34 35  0  0  1  0  0  0  0  0999 V2000
  190.7440  178.5090  143.8750 C   0  0  0  0  0  1  0  0  0  0  0  0
  189.6970  177.8040  143.0330 C   0  0  1  0  0  3  0  0  0  0  0  0
  189.3520  177.6860  140.5520 C   0  0  0  0  0  0  0  0  0  0  0  0
  191.4770  177.1290  139.5070 C   0  0  0  0  0  2  0  0  0  0  0  0
  191.8800  177.4570  141.2520 S   0  0  0  0  0  0  0  0  0  0  0  0
  190.0210  177.4970  139.2310 C   0  0  1  0  0  3  0  0  0  0  0  0
  190.1530  177.6430  141.6110 C   0  0  0  0  0  0  0  0  0  0  0  0
  187.9490  177.9450  140.6770 N   0  0  0  0  0  2  0  0  0  0  0  0
  187.4380  178.9970  140.2400 O   0  0  0  0  0  1  0  0  0  0  0  0
  189.3420  176.3740  138.4520 C   0  0  0  0  0  2  0  0  0  0  0  0
  188.9600  176.8090  137.0390 C   0  0  2  0  0  3  0  0  0  0  0  0
  189.0920  178.3150  136.9060 C   0  0  0  0  0  1  0  0  0  0  0  0
  187.5590  176.3330  136.6460 C   0  0  0  0  0  2  0  0  0  0  0  0
  186.4440  177.0810  137.3670 C   0  0  0  0  0  2  0  0  0  0  0  0
  185.2090  176.9970  136.6050 N   0  0  0  0  0  2  0  0  0  0  0  0
  183.1810  175.8070  135.8800 N   0  0  0  0  0  1  0  0  0  0  0  0
  184.3300  175.8780  136.7120 C   0  0  0  0  0  0  0  0  0  0  0  0
  184.5630  174.9530  137.5360 O   0  0  0  0  0  0  0  0  0  0  0  0
  189.3620  176.5180  143.6190 N   0  0  0  0  0  2  0  0  0  0  0  0
  187.9150  176.4930  143.7900 C   0  0  0  0  0  2  0  0  0  0  0  0
  187.4540  177.5860  144.7520 C   0  0  1  0  0  3  0  0  0  0  0  0
  183.5310  178.9260  143.8880 N   0  0  0  0  0  0  0  0  0  0  0  0
  186.0590  178.0370  144.4460 C   0  0  0  0  0  0  0  0  0  0  0  0
  184.3320  178.4760  142.8880 C   0  0  0  0  0  0  0  0  0  0  0  0
  185.5880  178.0430  143.1690 N   0  0  0  0  0  0  0  0  0  0  0  0
  183.9660  178.9470  145.1740 C   0  0  0  0  0  3  0  0  0  0  0  0
  185.2510  178.5060  145.4820 C   0  0  0  0  0  3  0  0  0  0  0  0
  183.8610  178.4740  141.5470 N   0  0  0  0  0  1  0  0  0  0  0  0
  187.6120  177.1830  146.2130 C   0  0  0  0  0  2  0  0  0  0  0  0
  188.4260  178.2220  146.9650 C   0  0  0  0  0  2  0  0  0  0  0  0
  189.4320  177.5250  147.8590 C   0  0  0  0  0  2  0  0  0  0  0  0
  190.4280  176.7420  147.0200 C   0  0  0  0  0  2  0  0  0  0  0  0
  191.7300  177.0050  147.4520 O   0  0  0  0  0  0  0  0  0  0  0  0
  192.2810  175.7450  147.6800 C   0  0  0  0  0  1  0  0  0  0  0  0
  2 19  1  0  0  0  0
  2  1  1  1  0  0  0
  3  8  1  0  0  0  0
  3  7  2  0  0  0  0
  4  5  1  0  0  0  0
  5  7  1  0  0  0  0
  6 10  1  1  0  0  0
  6  4  1  0  0  0  0
  6  3  1  0  0  0  0
  7  2  1  0  0  0  0
  9  8  1  0  0  0  0
 11 12  1  1  0  0  0
 11 10  1  0  0  0  0
 13 11  1  0  0  0  0
 13 14  1  0  0  0  0
 15 17  1  0  0  0  0
 15 14  1  0  0  0  0
 16 17  1  0  0  0  0
 17 18  2  0  0  0  0
 19 20  1  0  0  0  0
 21 20  1  6  0  0  0
 21 29  1  0  0  0  0
 22 26  1  0  0  0  0
 23 21  1  0  0  0  0
 23 27  1  0  0  0  0
 24 25  1  0  0  0  0
 24 22  2  0  0  0  0
 25 23  2  0  0  0  0
 26 27  2  0  0  0  0
 28 24  1  0  0  0  0
 29 30  1  0  0  0  0
 30 31  1  0  0  0  0
 32 33  1  0  0  0  0
 32 31  1  0  0  0  0
 33 34  1  0  0  0  0
M  END
>  <MODEL>
1

>  <REMARK>
 VINA RESULT:      -6.7      0.000      0.000
  Name = 
  16 active torsions:
  status: ('A' for Active; 'I' for Inactive)
    1  A    between atoms: C_1  and  C_9
    2  A    between atoms: C_1  and  C_21
    3  A    between atoms: C_2  and  C_3
    4  A    between atoms: C_2  and  N_4
    5  A    between atoms: C_3  and  C_29
    6  A    between atoms: C_6  and  C_15
    7  A    between atoms: C_6  and  C_29
    8  A    between atoms: C_7  and  N_12
    9  A    between atoms: O_8  and  C_27
   10  A    between atoms: C_9  and  C_31
   11  A    between atoms: C_13  and  C_21
   12  A    between atoms: C_21  and  C_32
   13  A    between atoms: C_23  and  C_25
   14  A    between atoms: C_23  and  N_33
   15  A    between atoms: C_27  and  C_31
   16  A    between atoms: C_32  and  N_33
                            x       y       z     vdW  Elec       q    Type
                         _______ _______ _______ _____ _____    ______ ____

>  <TORSDO>
F 16

$$$$
=
 OpenBabel10222421283D

 34 35  0  0  1  0  0  0  0  0999 V2000
  191.4090  177.3280  140.7970 C   0  0  0  0  0  1  0  0  0  0  0  0
  190.0320  177.5770  140.2080 C   0  0  1  0  0  3  0  0  0  0  0  0
  189.3270  177.8050  137.8130 C   0  0  0  0  0  0  0  0  0  0  0  0
  190.0530  175.8220  136.6070 C   0  0  0  0  0  2  0  0  0  0  0  0
  190.8370  175.6910  138.2440 S   0  0  0  0  0  0  0  0  0  0  0  0
  189.3840  177.1860  136.4560 C   0  0  1  0  0  3  0  0  0  0  0  0
  189.9630  177.1420  138.7730 C   0  0  0  0  0  0  0  0  0  0  0  0
  188.6720  179.0540  138.0650 N   0  0  0  0  0  2  0  0  0  0  0  0
  188.9610  180.0840  137.4230 O   0  0  0  0  0  1  0  0  0  0  0  0
  187.9760  177.0130  135.8950 C   0  0  0  0  0  2  0  0  0  0  0  0
  187.0130  176.4440  136.9340 C   0  0  2  0  0  3  0  0  0  0  0  0
  186.8030  174.9610  136.6910 C   0  0  0  0  0  1  0  0  0  0  0  0
  185.6820  177.2000  136.9660 C   0  0  0  0  0  2  0  0  0  0  0  0
  185.4650  177.9840  138.2540 C   0  0  0  0  0  2  0  0  0  0  0  0
  184.0440  178.1850  138.4870 N   0  0  0  0  0  2  0  0  0  0  0  0
  182.1390  179.5430  139.2490 N   0  0  0  0  0  1  0  0  0  0  0  0
  183.5240  179.4290  138.9550 C   0  0  0  0  0  0  0  0  0  0  0  0
  184.2800  180.4250  139.1110 O   0  0  0  0  0  0  0  0  0  0  0  0
  189.0170  176.9080  141.0030 N   0  0  0  0  0  2  0  0  0  0  0  0
  188.8540  177.6840  142.2250 C   0  0  0  0  0  2  0  0  0  0  0  0
  188.3980  176.8010  143.3840 C   0  0  1  0  0  3  0  0  0  0  0  0
  191.1130  177.0460  146.6230 N   0  0  0  0  0  0  0  0  0  0  0  0
  189.3510  176.8660  144.5370 C   0  0  0  0  0  0  0  0  0  0  0  0
  189.8050  177.3580  146.8070 C   0  0  0  0  0  0  0  0  0  0  0  0
  188.9350  177.2750  145.7670 N   0  0  0  0  0  0  0  0  0  0  0  0
  191.5710  176.6440  145.4090 C   0  0  0  0  0  3  0  0  0  0  0  0
  190.6940  176.5510  144.3310 C   0  0  0  0  0  3  0  0  0  0  0  0
  189.3500  177.7890  148.0830 N   0  0  0  0  0  1  0  0  0  0  0  0
  186.9650  177.0960  143.8140 C   0  0  0  0  0  2  0  0  0  0  0  0
  186.3400  178.1340  142.8990 C   0  0  0  0  0  2  0  0  0  0  0  0
  185.0410  178.6240  143.5070 C   0  0  0  0  0  2  0  0  0  0  0  0
  185.1880  178.7750  145.0120 C   0  0  0  0  0  2  0  0  0  0  0  0
  183.9550  179.0980  145.5830 O   0  0  0  0  0  0  0  0  0  0  0  0
  183.0310  178.8730  144.5640 C   0  0  0  0  0  1  0  0  0  0  0  0
  2  1  1  1  0  0  0
  2 19  1  0  0  0  0
  3  8  1  0  0  0  0
  3  7  2  0  0  0  0
  4  5  1  0  0  0  0
  5  7  1  0  0  0  0
  6 10  1  1  0  0  0
  6  4  1  0  0  0  0
  6  3  1  0  0  0  0
  7  2  1  0  0  0  0
  9  8  1  0  0  0  0
 10 11  1  0  0  0  0
 11 12  1  6  0  0  0
 11 13  1  0  0  0  0
 13 14  1  0  0  0  0
 14 15  1  0  0  0  0
 15 17  1  0  0  0  0
 17 18  2  0  0  0  0
 17 16  1  0  0  0  0
 19 20  1  0  0  0  0
 21 20  1  6  0  0  0
 21 29  1  0  0  0  0
 21 23  1  0  0  0  0
 22 24  2  0  0  0  0
 23 25  2  0  0  0  0
 24 28  1  0  0  0  0
 25 24  1  0  0  0  0
 26 22  1  0  0  0  0
 27 23  1  0  0  0  0
 27 26  2  0  0  0  0
 30 31  1  0  0  0  0
 30 29  1  0  0  0  0
 31 32  1  0  0  0  0
 32 33  1  0  0  0  0
 34 33  1  0  0  0  0
M  END
>  <MODEL>
2

>  <REMARK>
 VINA RESULT:      -6.6      2.677      4.901
  Name = 
  16 active torsions:
  status: ('A' for Active; 'I' for Inactive)
    1  A    between atoms: C_1  and  C_9
    2  A    between atoms: C_1  and  C_21
    3  A    between atoms: C_2  and  C_3
    4  A    between atoms: C_2  and  N_4
    5  A    between atoms: C_3  and  C_29
    6  A    between atoms: C_6  and  C_15
    7  A    between atoms: C_6  and  C_29
    8  A    between atoms: C_7  and  N_12
    9  A    between atoms: O_8  and  C_27
   10  A    between atoms: C_9  and  C_31
   11  A    between atoms: C_13  and  C_21
   12  A    between atoms: C_21  and  C_32
   13  A    between atoms: C_23  and  C_25
   14  A    between atoms: C_23  and  N_33
   15  A    between atoms: C_27  and  C_31
   16  A    between atoms: C_32  and  N_33
                            x       y       z     vdW  Elec       q    Type
                         _______ _______ _______ _____ _____    ______ ____

>  <TORSDO>
F 16

$$$$
=
 OpenBabel10222421283D

 34 35  0  0  1  0  0  0  0  0999 V2000
  191.5080  177.3620  140.9520 C   0  0  0  0  0  1  0  0  0  0  0  0
  190.1360  177.5860  140.3410 C   0  0  1  0  0  3  0  0  0  0  0  0
  189.4520  177.8140  137.9400 C   0  0  0  0  0  0  0  0  0  0  0  0
  190.2760  175.8790  136.7190 C   0  0  0  0  0  2  0  0  0  0  0  0
  191.0440  175.7600  138.3650 S   0  0  0  0  0  0  0  0  0  0  0  0
  189.5520  177.2150  136.5760 C   0  0  1  0  0  3  0  0  0  0  0  0
  190.1030  177.1670  138.9000 C   0  0  0  0  0  0  0  0  0  0  0  0
  188.7420  179.0320  138.1990 N   0  0  0  0  0  2  0  0  0  0  0  0
  188.9150  180.0500  137.4980 O   0  0  0  0  0  1  0  0  0  0  0  0
  188.1590  176.9910  135.9950 C   0  0  0  0  0  2  0  0  0  0  0  0
  187.2350  176.2850  136.9840 C   0  0  2  0  0  3  0  0  0  0  0  0
  187.2050  174.7960  136.6960 C   0  0  0  0  0  1  0  0  0  0  0  0
  185.8250  176.8830  136.9860 C   0  0  0  0  0  2  0  0  0  0  0  0
  185.6300  177.9630  138.0440 C   0  0  0  0  0  2  0  0  0  0  0  0
  184.2160  178.1320  138.3340 N   0  0  0  0  0  2  0  0  0  0  0  0
  182.3310  179.3910  139.2920 N   0  0  0  0  0  1  0  0  0  0  0  0
  183.7080  179.3140  138.9510 C   0  0  0  0  0  0  0  0  0  0  0  0
  184.4680  180.2890  139.1970 O   0  0  0  0  0  0  0  0  0  0  0  0
  189.1220  176.8840  141.1090 N   0  0  0  0  0  2  0  0  0  0  0  0
  188.0900  177.8580  141.4380 C   0  0  0  0  0  2  0  0  0  0  0  0
  187.7940  177.8660  142.9360 C   0  0  1  0  0  3  0  0  0  0  0  0
  183.7040  178.6280  143.7210 N   0  0  0  0  0  0  0  0  0  0  0  0
  186.3520  178.1590  143.2130 C   0  0  0  0  0  0  0  0  0  0  0  0
  184.6100  178.6660  144.7320 C   0  0  0  0  0  0  0  0  0  0  0  0
  185.9220  178.4260  144.4770 N   0  0  0  0  0  0  0  0  0  0  0  0
  184.0910  178.3550  142.4480 C   0  0  0  0  0  3  0  0  0  0  0  0
  185.4320  178.1070  142.1660 C   0  0  0  0  0  3  0  0  0  0  0  0
  184.1820  178.9410  146.0590 N   0  0  0  0  0  1  0  0  0  0  0  0
  188.2580  176.5900  143.6290 C   0  0  0  0  0  2  0  0  0  0  0  0
  189.5940  176.8150  144.3170 C   0  0  0  0  0  2  0  0  0  0  0  0
  189.4350  177.8700  145.3930 C   0  0  0  0  0  2  0  0  0  0  0  0
  188.7300  177.2840  146.6050 C   0  0  0  0  0  2  0  0  0  0  0  0
  189.1780  177.9120  147.7690 O   0  0  0  0  0  0  0  0  0  0  0  0
  188.0150  178.1630  148.4970 C   0  0  0  0  0  1  0  0  0  0  0  0
  2  1  1  1  0  0  0
  2 19  1  0  0  0  0
  3  8  1  0  0  0  0
  3  7  2  0  0  0  0
  4  5  1  0  0  0  0
  5  7  1  0  0  0  0
  6 10  1  1  0  0  0
  6  4  1  0  0  0  0
  6  3  1  0  0  0  0
  7  2  1  0  0  0  0
  9  8  1  0  0  0  0
 10 11  1  0  0  0  0
 11 12  1  6  0  0  0
 11 13  1  0  0  0  0
 13 14  1  0  0  0  0
 14 15  1  0  0  0  0
 15 17  1  0  0  0  0
 17 18  2  0  0  0  0
 17 16  1  0  0  0  0
 19 20  1  0  0  0  0
 21 20  1  6  0  0  0
 21 23  1  0  0  0  0
 21 29  1  0  0  0  0
 22 24  2  0  0  0  0
 23 25  2  0  0  0  0
 24 28  1  0  0  0  0
 25 24  1  0  0  0  0
 26 22  1  0  0  0  0
 27 26  2  0  0  0  0
 27 23  1  0  0  0  0
 29 30  1  0  0  0  0
 30 31  1  0  0  0  0
 31 32  1  0  0  0  0
 32 33  1  0  0  0  0
 33 34  1  0  0  0  0
M  END
>  <MODEL>
3

>  <REMARK>
 VINA RESULT:      -6.6      2.068      3.050
  Name = 
  16 active torsions:
  status: ('A' for Active; 'I' for Inactive)
    1  A    between atoms: C_1  and  C_9
    2  A    between atoms: C_1  and  C_21
    3  A    between atoms: C_2  and  C_3
    4  A    between atoms: C_2  and  N_4
    5  A    between atoms: C_3  and  C_29
    6  A    between atoms: C_6  and  C_15
    7  A    between atoms: C_6  and  C_29
    8  A    between atoms: C_7  and  N_12
    9  A    between atoms: O_8  and  C_27
   10  A    between atoms: C_9  and  C_31
   11  A    between atoms: C_13  and  C_21
   12  A    between atoms: C_21  and  C_32
   13  A    between atoms: C_23  and  C_25
   14  A    between atoms: C_23  and  N_33
   15  A    between atoms: C_27  and  C_31
   16  A    between atoms: C_32  and  N_33
                            x       y       z     vdW  Elec       q    Type
                         _______ _______ _______ _____ _____    ______ ____

>  <TORSDO>
F 16

$$$$
=
 OpenBabel10222421283D

 34 35  0  0  1  0  0  0  0  0999 V2000
  183.4930  178.7460  143.4310 C   0  0  0  0  0  1  0  0  0  0  0  0
  184.8810  179.3170  143.2060 C   0  0  1  0  0  3  0  0  0  0  0  0
  186.1940  178.3580  145.1140 C   0  0  0  0  0  0  0  0  0  0  0  0
  187.9490  176.9410  144.2030 C   0  0  0  0  0  2  0  0  0  0  0  0
  186.8980  177.3660  142.7790 S   0  0  0  0  0  0  0  0  0  0  0  0
  187.2970  177.4260  145.4950 C   0  0  1  0  0  3  0  0  0  0  0  0
  185.9400  178.4430  143.8130 C   0  0  0  0  0  0  0  0  0  0  0  0
  185.4250  179.0810  146.0820 N   0  0  0  0  0  2  0  0  0  0  0  0
  184.5630  178.5160  146.7850 O   0  0  0  0  0  1  0  0  0  0  0  0
  188.3270  178.1520  146.3550 C   0  0  0  0  0  2  0  0  0  0  0  0
  188.8260  177.2810  147.5060 C   0  0  2  0  0  3  0  0  0  0  0  0
  188.0310  177.5770  148.7640 C   0  0  0  0  0  1  0  0  0  0  0  0
  190.3300  177.4420  147.7430 C   0  0  0  0  0  2  0  0  0  0  0  0
  191.1830  176.6430  146.7630 C   0  0  0  0  0  2  0  0  0  0  0  0
  191.5120  177.4580  145.6050 N   0  0  0  0  0  2  0  0  0  0  0  0
  191.9480  177.7360  143.1990 N   0  0  0  0  0  1  0  0  0  0  0  0
  191.5350  176.9180  144.2840 C   0  0  0  0  0  0  0  0  0  0  0  0
  191.1930  175.7230  144.0720 O   0  0  0  0  0  0  0  0  0  0  0  0
  185.1210  179.5130  141.7870 N   0  0  0  0  0  2  0  0  0  0  0  0
  184.0300  178.8570  141.0770 C   0  0  0  0  0  2  0  0  0  0  0  0
  183.9180  179.3670  139.6420 C   0  0  1  0  0  3  0  0  0  0  0  0
  186.0410  176.9510  136.8890 N   0  0  0  0  0  0  0  0  0  0  0  0
  184.6760  178.4990  138.6860 C   0  0  0  0  0  0  0  0  0  0  0  0
  186.6980  177.8870  137.6200 C   0  0  0  0  0  0  0  0  0  0  0  0
  186.0160  178.6580  138.5060 N   0  0  0  0  0  0  0  0  0  0  0  0
  184.7030  176.7680  137.0300 C   0  0  0  0  0  3  0  0  0  0  0  0
  183.9850  177.5480  137.9350 C   0  0  0  0  0  3  0  0  0  0  0  0
  188.0970  178.0710  137.4470 N   0  0  0  0  0  1  0  0  0  0  0  0
  182.4710  179.5660  139.2050 C   0  0  0  0  0  2  0  0  0  0  0  0
  182.3070  180.9030  138.5040 C   0  0  0  0  0  2  0  0  0  0  0  0
  180.9340  181.4670  138.8090 C   0  0  0  0  0  2  0  0  0  0  0  0
  180.5660  182.5370  137.7940 C   0  0  0  0  0  2  0  0  0  0  0  0
  181.5970  183.4730  137.6910 O   0  0  0  0  0  0  0  0  0  0  0  0
  181.1740  184.3460  136.6890 C   0  0  0  0  0  1  0  0  0  0  0  0
  2  1  1  6  0  0  0
  2  7  1  0  0  0  0
  3  6  1  0  0  0  0
  3  8  1  0  0  0  0
  4  6  1  0  0  0  0
  5  7  1  0  0  0  0
  5  4  1  0  0  0  0
  6 10  1  1  0  0  0
  7  3  2  0  0  0  0
  8  9  1  0  0  0  0
 10 11  1  0  0  0  0
 11 13  1  0  0  0  0
 11 12  1  1  0  0  0
 14 13  1  0  0  0  0
 15 14  1  0  0  0  0
 16 17  1  0  0  0  0
 17 15  1  0  0  0  0
 18 17  2  0  0  0  0
 19  2  1  0  0  0  0
 20 19  1  0  0  0  0
 21 29  1  6  0  0  0
 21 20  1  0  0  0  0
 22 26  1  0  0  0  0
 22 24  2  0  0  0  0
 23 21  1  0  0  0  0
 24 25  1  0  0  0  0
 25 23  2  0  0  0  0
 26 27  2  0  0  0  0
 27 23  1  0  0  0  0
 28 24  1  0  0  0  0
 30 31  1  0  0  0  0
 30 29  1  0  0  0  0
 32 31  1  0  0  0  0
 33 32  1  0  0  0  0
 34 33  1  0  0  0  0
M  END
>  <MODEL>
4

>  <REMARK>
 VINA RESULT:      -6.4      3.689      9.238
  Name = 
  16 active torsions:
  status: ('A' for Active; 'I' for Inactive)
    1  A    between atoms: C_1  and  C_9
    2  A    between atoms: C_1  and  C_21
    3  A    between atoms: C_2  and  C_3
    4  A    between atoms: C_2  and  N_4
    5  A    between atoms: C_3  and  C_29
    6  A    between atoms: C_6  and  C_15
    7  A    between atoms: C_6  and  C_29
    8  A    between atoms: C_7  and  N_12
    9  A    between atoms: O_8  and  C_27
   10  A    between atoms: C_9  and  C_31
   11  A    between atoms: C_13  and  C_21
   12  A    between atoms: C_21  and  C_32
   13  A    between atoms: C_23  and  C_25
   14  A    between atoms: C_23  and  N_33
   15  A    between atoms: C_27  and  C_31
   16  A    between atoms: C_32  and  N_33
                            x       y       z     vdW  Elec       q    Type
                         _______ _______ _______ _____ _____    ______ ____

>  <TORSDO>
F 16

$$$$
=
 OpenBabel10222421283D

 34 35  0  0  1  0  0  0  0  0999 V2000
  192.4760  177.6420  140.3320 C   0  0  0  0  0  1  0  0  0  0  0  0
  191.3090  176.6790  140.2120 C   0  0  1  0  0  3  0  0  0  0  0  0
  189.8900  177.1250  142.2310 C   0  0  0  0  0  0  0  0  0  0  0  0
  187.7860  178.0950  141.4910 C   0  0  0  0  0  2  0  0  0  0  0  0
  188.8380  178.0620  140.0060 S   0  0  0  0  0  0  0  0  0  0  0  0
  188.6050  177.7070  142.7190 C   0  0  1  0  0  3  0  0  0  0  0  0
  190.0920  177.2020  140.9200 C   0  0  0  0  0  0  0  0  0  0  0  0
  190.8670  176.5600  143.1130 N   0  0  0  0  0  2  0  0  0  0  0  0
  190.9200  175.3320  143.3280 O   0  0  0  0  0  1  0  0  0  0  0  0
  187.8410  176.6780  143.5470 C   0  0  0  0  0  2  0  0  0  0  0  0
  187.4780  177.2140  144.9300 C   0  0  2  0  0  3  0  0  0  0  0  0
  186.1920  178.0170  144.8550 C   0  0  0  0  0  1  0  0  0  0  0  0
  188.6140  178.0330  145.5500 C   0  0  0  0  0  2  0  0  0  0  0  0
  189.1580  177.4290  146.8390 C   0  0  0  0  0  2  0  0  0  0  0  0
  190.1490  176.4100  146.5370 N   0  0  0  0  0  2  0  0  0  0  0  0
  192.4070  175.4510  146.7320 N   0  0  0  0  0  1  0  0  0  0  0  0
  191.4470  176.4210  147.1290 C   0  0  0  0  0  0  0  0  0  0  0  0
  191.7510  177.2820  147.9980 O   0  0  0  0  0  0  0  0  0  0  0  0
  191.0200  176.4090  138.8140 N   0  0  0  0  0  2  0  0  0  0  0  0
  192.2680  176.5800  138.0820 C   0  0  0  0  0  2  0  0  0  0  0  0
  192.6030  175.3350  137.2630 C   0  0  1  0  0  3  0  0  0  0  0  0
  195.9900  173.2990  138.7820 N   0  0  0  0  0  0  0  0  0  0  0  0
  193.7880  174.6100  137.8190 C   0  0  0  0  0  0  0  0  0  0  0  0
  195.7150  174.5630  139.1930 C   0  0  0  0  0  0  0  0  0  0  0  0
  194.6250  175.2130  138.7080 N   0  0  0  0  0  0  0  0  0  0  0  0
  195.1870  172.6660  137.8880 C   0  0  0  0  0  3  0  0  0  0  0  0
  194.0640  173.3150  137.3800 C   0  0  0  0  0  3  0  0  0  0  0  0
  196.5770  175.2130  140.1190 N   0  0  0  0  0  1  0  0  0  0  0  0
  191.4030  174.4110  137.0880 C   0  0  0  0  0  2  0  0  0  0  0  0
  191.0740  174.2410  135.6150 C   0  0  0  0  0  2  0  0  0  0  0  0
  190.9480  175.6050  134.9660 C   0  0  0  0  0  2  0  0  0  0  0  0
  189.4890  176.0250  134.9000 C   0  0  0  0  0  2  0  0  0  0  0  0
  189.1970  176.9060  135.9430 O   0  0  0  0  0  0  0  0  0  0  0  0
  188.1290  176.3090  136.6120 C   0  0  0  0  0  1  0  0  0  0  0  0
  2  1  1  6  0  0  0
  2  7  1  0  0  0  0
  3  6  1  0  0  0  0
  3  8  1  0  0  0  0
  4  6  1  0  0  0  0
  5  7  1  0  0  0  0
  5  4  1  0  0  0  0
  6 10  1  6  0  0  0
  7  3  2  0  0  0  0
  8  9  1  0  0  0  0
 10 11  1  0  0  0  0
 11 12  1  6  0  0  0
 11 13  1  0  0  0  0
 13 14  1  0  0  0  0
 15 14  1  0  0  0  0
 15 17  1  0  0  0  0
 16 17  1  0  0  0  0
 17 18  2  0  0  0  0
 19  2  1  0  0  0  0
 20 19  1  0  0  0  0
 21 29  1  1  0  0  0
 21 23  1  0  0  0  0
 21 20  1  0  0  0  0
 22 24  2  0  0  0  0
 23 25  2  0  0  0  0
 24 28  1  0  0  0  0
 25 24  1  0  0  0  0
 26 22  1  0  0  0  0
 27 23  1  0  0  0  0
 27 26  2  0  0  0  0
 30 29  1  0  0  0  0
 31 30  1  0  0  0  0
 32 31  1  0  0  0  0
 32 33  1  0  0  0  0
 33 34  1  0  0  0  0
M  END
>  <MODEL>
5

>  <REMARK>
 VINA RESULT:      -6.4      3.711      9.861
  Name = 
  16 active torsions:
  status: ('A' for Active; 'I' for Inactive)
    1  A    between atoms: C_1  and  C_9
    2  A    between atoms: C_1  and  C_21
    3  A    between atoms: C_2  and  C_3
    4  A    between atoms: C_2  and  N_4
    5  A    between atoms: C_3  and  C_29
    6  A    between atoms: C_6  and  C_15
    7  A    between atoms: C_6  and  C_29
    8  A    between atoms: C_7  and  N_12
    9  A    between atoms: O_8  and  C_27
   10  A    between atoms: C_9  and  C_31
   11  A    between atoms: C_13  and  C_21
   12  A    between atoms: C_21  and  C_32
   13  A    between atoms: C_23  and  C_25
   14  A    between atoms: C_23  and  N_33
   15  A    between atoms: C_27  and  C_31
   16  A    between atoms: C_32  and  N_33
                            x       y       z     vdW  Elec       q    Type
                         _______ _______ _______ _____ _____    ______ ____

>  <TORSDO>
F 16

$$$$
=
 OpenBabel10222421283D

 34 35  0  0  1  0  0  0  0  0999 V2000
  188.4140  177.8730  139.2930 C   0  0  0  0  0  1  0  0  0  0  0  0
  189.3450  177.0380  140.1530 C   0  0  1  0  0  3  0  0  0  0  0  0
  190.8360  176.1760  138.3300 C   0  0  0  0  0  0  0  0  0  0  0  0
  193.1440  176.6340  138.9440 C   0  0  0  0  0  2  0  0  0  0  0  0
  192.1420  177.5260  140.1750 S   0  0  0  0  0  0  0  0  0  0  0  0
  192.2440  176.0770  137.8440 C   0  0  1  0  0  3  0  0  0  0  0  0
  190.6690  176.8230  139.4780 C   0  0  0  0  0  0  0  0  0  0  0  0
  189.7250  175.6530  137.5910 N   0  0  0  0  0  2  0  0  0  0  0  0
  189.4780  174.4300  137.5640 O   0  0  0  0  0  1  0  0  0  0  0  0
  192.6050  174.6200  137.5680 C   0  0  0  0  0  2  0  0  0  0  0  0
  193.2360  174.4400  136.1890 C   0  0  2  0  0  3  0  0  0  0  0  0
  193.3800  172.9630  135.8720 C   0  0  0  0  0  1  0  0  0  0  0  0
  194.5750  175.1730  136.0650 C   0  0  0  0  0  2  0  0  0  0  0  0
  195.7630  174.3360  136.5260 C   0  0  0  0  0  2  0  0  0  0  0  0
  196.3550  174.9190  137.7180 N   0  0  0  0  0  2  0  0  0  0  0  0
  196.6410  175.0510  140.1590 N   0  0  0  0  0  1  0  0  0  0  0  0
  196.1080  174.3900  139.0200 C   0  0  0  0  0  0  0  0  0  0  0  0
  195.4210  173.3430  139.1690 O   0  0  0  0  0  0  0  0  0  0  0  0
  189.5210  177.6600  141.4540 N   0  0  0  0  0  2  0  0  0  0  0  0
  188.8060  176.8340  142.4180 C   0  0  0  0  0  2  0  0  0  0  0  0
  188.6030  177.5760  143.7380 C   0  0  1  0  0  3  0  0  0  0  0  0
  184.5240  178.5350  144.3400 N   0  0  0  0  0  0  0  0  0  0  0  0
  187.1670  177.9380  143.9530 C   0  0  0  0  0  0  0  0  0  0  0  0
  185.3580  178.4130  145.4040 C   0  0  0  0  0  0  0  0  0  0  0  0
  186.6680  178.1090  145.2080 N   0  0  0  0  0  0  0  0  0  0  0  0
  184.9790  178.3610  143.0730 C   0  0  0  0  0  3  0  0  0  0  0  0
  186.3190  178.0510  142.8510 C   0  0  0  0  0  3  0  0  0  0  0  0
  184.8580  178.5860  146.7230 N   0  0  0  0  0  1  0  0  0  0  0  0
  189.1830  176.8200  144.9280 C   0  0  0  0  0  2  0  0  0  0  0  0
  190.5770  177.3280  145.2520 C   0  0  0  0  0  2  0  0  0  0  0  0
  190.9530  176.9060  146.6580 C   0  0  0  0  0  2  0  0  0  0  0  0
  189.7220  176.8890  147.5500 C   0  0  0  0  0  2  0  0  0  0  0  0
  189.3220  178.1950  147.8390 O   0  0  0  0  0  0  0  0  0  0  0  0
  188.2350  178.0430  148.6980 C   0  0  0  0  0  1  0  0  0  0  0  0
  2  1  1  6  0  0  0
  2 19  1  0  0  0  0
  3  7  2  0  0  0  0
  4  5  1  0  0  0  0
  6 10  1  1  0  0  0
  6  3  1  0  0  0  0
  6  4  1  0  0  0  0
  7  2  1  0  0  0  0
  7  5  1  0  0  0  0
  8  3  1  0  0  0  0
  9  8  1  0  0  0  0
 11 12  1  1  0  0  0
 11 10  1  0  0  0  0
 13 11  1  0  0  0  0
 13 14  1  0  0  0  0
 14 15  1  0  0  0  0
 15 17  1  0  0  0  0
 17 18  2  0  0  0  0
 17 16  1  0  0  0  0
 19 20  1  0  0  0  0
 21 20  1  6  0  0  0
 21 23  1  0  0  0  0
 21 29  1  0  0  0  0
 22 24  2  0  0  0  0
 23 25  2  0  0  0  0
 24 28  1  0  0  0  0
 25 24  1  0  0  0  0
 26 22  1  0  0  0  0
 27 26  2  0  0  0  0
 27 23  1  0  0  0  0
 29 30  1  0  0  0  0
 30 31  1  0  0  0  0
 31 32  1  0  0  0  0
 32 33  1  0  0  0  0
 33 34  1  0  0  0  0
M  END
>  <MODEL>
6

>  <REMARK>
 VINA RESULT:      -6.2      3.864      5.591
  Name = 
  16 active torsions:
  status: ('A' for Active; 'I' for Inactive)
    1  A    between atoms: C_1  and  C_9
    2  A    between atoms: C_1  and  C_21
    3  A    between atoms: C_2  and  C_3
    4  A    between atoms: C_2  and  N_4
    5  A    between atoms: C_3  and  C_29
    6  A    between atoms: C_6  and  C_15
    7  A    between atoms: C_6  and  C_29
    8  A    between atoms: C_7  and  N_12
    9  A    between atoms: O_8  and  C_27
   10  A    between atoms: C_9  and  C_31
   11  A    between atoms: C_13  and  C_21
   12  A    between atoms: C_21  and  C_32
   13  A    between atoms: C_23  and  C_25
   14  A    between atoms: C_23  and  N_33
   15  A    between atoms: C_27  and  C_31
   16  A    between atoms: C_32  and  N_33
                            x       y       z     vdW  Elec       q    Type
                         _______ _______ _______ _____ _____    ______ ____

>  <TORSDO>
F 16

$$$$
=
 OpenBabel10222421283D

 34 35  0  0  1  0  0  0  0  0999 V2000
  192.1880  177.5400  140.2460 C   0  0  0  0  0  1  0  0  0  0  0  0
  191.0380  176.5720  140.4560 C   0  0  1  0  0  3  0  0  0  0  0  0
  189.8330  177.3120  142.5280 C   0  0  0  0  0  0  0  0  0  0  0  0
  187.6870  178.2490  141.8740 C   0  0  0  0  0  2  0  0  0  0  0  0
  188.5860  177.9970  140.3120 S   0  0  0  0  0  0  0  0  0  0  0  0
  188.6150  177.9920  143.0580 C   0  0  1  0  0  3  0  0  0  0  0  0
  189.9070  177.2180  141.2050 C   0  0  0  0  0  0  0  0  0  0  0  0
  190.8820  176.8310  143.3770 N   0  0  0  0  0  2  0  0  0  0  0  0
  191.5850  177.6120  144.0520 O   0  0  0  0  0  1  0  0  0  0  0  0
  187.9160  177.1000  144.0800 C   0  0  0  0  0  2  0  0  0  0  0  0
  187.7880  177.7810  145.4400 C   0  0  2  0  0  3  0  0  0  0  0  0
  188.8800  177.2900  146.3730 C   0  0  0  0  0  1  0  0  0  0  0  0
  186.3990  177.5900  146.0550 C   0  0  0  0  0  2  0  0  0  0  0  0
  185.6580  178.9010  146.2880 C   0  0  0  0  0  2  0  0  0  0  0  0
  184.2950  178.8020  145.7940 N   0  0  0  0  0  2  0  0  0  0  0  0
  182.5890  179.1190  144.0480 N   0  0  0  0  0  1  0  0  0  0  0  0
  183.9500  179.1510  144.4530 C   0  0  0  0  0  0  0  0  0  0  0  0
  184.8410  179.4880  143.6270 O   0  0  0  0  0  0  0  0  0  0  0  0
  190.5820  176.0470  139.1810 N   0  0  0  0  0  2  0  0  0  0  0  0
  191.5960  176.3930  138.1930 C   0  0  0  0  0  2  0  0  0  0  0  0
  191.7910  175.2650  137.1830 C   0  0  1  0  0  3  0  0  0  0  0  0
  195.4250  173.1860  137.8180 N   0  0  0  0  0  0  0  0  0  0  0  0
  193.0670  174.5200  137.4270 C   0  0  0  0  0  0  0  0  0  0  0  0
  195.1830  174.3490  138.4750 C   0  0  0  0  0  0  0  0  0  0  0  0
  194.0140  175.0120  138.2730 N   0  0  0  0  0  0  0  0  0  0  0  0
  194.5110  172.6670  136.9580 C   0  0  0  0  0  3  0  0  0  0  0  0
  193.3060  173.3310  136.7380 C   0  0  0  0  0  3  0  0  0  0  0  0
  196.1580  174.8810  139.3610 N   0  0  0  0  0  1  0  0  0  0  0  0
  190.5910  174.3270  137.1150 C   0  0  0  0  0  2  0  0  0  0  0  0
  189.8880  174.4610  135.7750 C   0  0  0  0  0  2  0  0  0  0  0  0
  188.3880  174.4250  135.9880 C   0  0  0  0  0  2  0  0  0  0  0  0
  187.9430  175.6270  136.8060 C   0  0  0  0  0  2  0  0  0  0  0  0
  186.6040  175.4850  137.1760 O   0  0  0  0  0  0  0  0  0  0  0  0
  186.3780  174.1090  137.1370 C   0  0  0  0  0  1  0  0  0  0  0  0
  2  1  1  6  0  0  0
  2  7  1  0  0  0  0
  3  6  1  0  0  0  0
  3  8  1  0  0  0  0
  4  6  1  0  0  0  0
  5  7  1  0  0  0  0
  5  4  1  0  0  0  0
  6 10  1  1  0  0  0
  7  3  2  0  0  0  0
  8  9  1  0  0  0  0
 10 11  1  0  0  0  0
 11 13  1  0  0  0  0
 11 12  1  1  0  0  0
 13 14  1  0  0  0  0
 15 14  1  0  0  0  0
 16 17  1  0  0  0  0
 17 15  1  0  0  0  0
 18 17  2  0  0  0  0
 19  2  1  0  0  0  0
 20 19  1  0  0  0  0
 21 29  1  1  0  0  0
 21 23  1  0  0  0  0
 21 20  1  0  0  0  0
 22 24  2  0  0  0  0
 23 25  2  0  0  0  0
 24 28  1  0  0  0  0
 25 24  1  0  0  0  0
 26 22  1  0  0  0  0
 27 26  2  0  0  0  0
 27 23  1  0  0  0  0
 30 31  1  0  0  0  0
 30 29  1  0  0  0  0
 31 32  1  0  0  0  0
 32 33  1  0  0  0  0
 34 33  1  0  0  0  0
M  END
>  <MODEL>
7

>  <REMARK>
 VINA RESULT:      -6.2      3.508      9.188
  Name = 
  16 active torsions:
  status: ('A' for Active; 'I' for Inactive)
    1  A    between atoms: C_1  and  C_9
    2  A    between atoms: C_1  and  C_21
    3  A    between atoms: C_2  and  C_3
    4  A    between atoms: C_2  and  N_4
    5  A    between atoms: C_3  and  C_29
    6  A    between atoms: C_6  and  C_15
    7  A    between atoms: C_6  and  C_29
    8  A    between atoms: C_7  and  N_12
    9  A    between atoms: O_8  and  C_27
   10  A    between atoms: C_9  and  C_31
   11  A    between atoms: C_13  and  C_21
   12  A    between atoms: C_21  and  C_32
   13  A    between atoms: C_23  and  C_25
   14  A    between atoms: C_23  and  N_33
   15  A    between atoms: C_27  and  C_31
   16  A    between atoms: C_32  and  N_33
                            x       y       z     vdW  Elec       q    Type
                         _______ _______ _______ _____ _____    ______ ____

>  <TORSDO>
F 16

$$$$
=
 OpenBabel10222421283D

 34 35  0  0  1  0  0  0  0  0999 V2000
  188.9090  178.5420  138.7580 C   0  0  0  0  0  1  0  0  0  0  0  0
  189.3210  177.2000  139.3360 C   0  0  1  0  0  3  0  0  0  0  0  0
  191.1250  176.2430  137.8810 C   0  0  0  0  0  0  0  0  0  0  0  0
  193.2440  176.4340  139.0590 C   0  0  0  0  0  2  0  0  0  0  0  0
  192.0600  177.3870  140.0600 S   0  0  0  0  0  0  0  0  0  0  0  0
  192.5930  176.0100  137.7450 C   0  0  1  0  0  3  0  0  0  0  0  0
  190.7440  176.8670  138.9900 C   0  0  0  0  0  0  0  0  0  0  0  0
  190.1850  175.8650  136.8680 N   0  0  0  0  0  2  0  0  0  0  0  0
  189.9410  176.6070  135.8940 O   0  0  0  0  0  1  0  0  0  0  0  0
  192.8700  174.5330  137.4810 C   0  0  0  0  0  2  0  0  0  0  0  0
  193.5210  174.3090  136.1180 C   0  0  2  0  0  3  0  0  0  0  0  0
  193.6810  172.8220  135.8570 C   0  0  0  0  0  1  0  0  0  0  0  0
  194.8560  175.0470  135.9860 C   0  0  0  0  0  2  0  0  0  0  0  0
  196.0320  174.2750  136.5720 C   0  0  0  0  0  2  0  0  0  0  0  0
  196.4890  174.9090  137.7970 N   0  0  0  0  0  2  0  0  0  0  0  0
  196.5960  175.0690  140.2510 N   0  0  0  0  0  1  0  0  0  0  0  0
  196.2010  174.3620  139.0830 C   0  0  0  0  0  0  0  0  0  0  0  0
  195.6010  173.2590  139.1940 O   0  0  0  0  0  0  0  0  0  0  0  0
  189.1220  177.1900  140.7750 N   0  0  0  0  0  2  0  0  0  0  0  0
  188.7040  178.5330  141.1560 C   0  0  0  0  0  2  0  0  0  0  0  0
  187.7540  178.4980  142.3510 C   0  0  1  0  0  3  0  0  0  0  0  0
  183.6940  178.7210  141.1700 N   0  0  0  0  0  0  0  0  0  0  0  0
  186.3220  178.5580  141.9200 C   0  0  0  0  0  0  0  0  0  0  0  0
  184.6660  179.2180  140.3630 C   0  0  0  0  0  0  0  0  0  0  0  0
  185.9680  179.1420  140.7420 N   0  0  0  0  0  0  0  0  0  0  0  0
  184.0040  178.1410  142.3580 C   0  0  0  0  0  3  0  0  0  0  0  0
  185.3330  178.0510  142.7640 C   0  0  0  0  0  3  0  0  0  0  0  0
  184.3190  179.8340  139.1290 N   0  0  0  0  0  1  0  0  0  0  0  0
  188.0200  177.3140  143.2740 C   0  0  0  0  0  2  0  0  0  0  0  0
  189.0420  177.6870  144.3340 C   0  0  0  0  0  2  0  0  0  0  0  0
  188.5600  177.2080  145.6890 C   0  0  0  0  0  2  0  0  0  0  0  0
  187.0470  177.3190  145.7790 C   0  0  0  0  0  2  0  0  0  0  0  0
  186.6780  178.6430  146.0260 O   0  0  0  0  0  0  0  0  0  0  0  0
  185.4530  178.5450  146.6860 C   0  0  0  0  0  1  0  0  0  0  0  0
  2  1  1  1  0  0  0
  2 19  1  0  0  0  0
  3  7  2  0  0  0  0
  4  5  1  0  0  0  0
  6 10  1  1  0  0  0
  6  3  1  0  0  0  0
  6  4  1  0  0  0  0
  7  2  1  0  0  0  0
  7  5  1  0  0  0  0
  8  3  1  0  0  0  0
  9  8  1  0  0  0  0
 11 12  1  1  0  0  0
 11 10  1  0  0  0  0
 13 11  1  0  0  0  0
 13 14  1  0  0  0  0
 14 15  1  0  0  0  0
 15 17  1  0  0  0  0
 17 18  2  0  0  0  0
 17 16  1  0  0  0  0
 19 20  1  0  0  0  0
 21 20  1  6  0  0  0
 21 29  1  0  0  0  0
 22 26  1  0  0  0  0
 23 21  1  0  0  0  0
 23 27  1  0  0  0  0
 24 25  1  0  0  0  0
 24 22  2  0  0  0  0
 25 23  2  0  0  0  0
 26 27  2  0  0  0  0
 28 24  1  0  0  0  0
 29 30  1  0  0  0  0
 30 31  1  0  0  0  0
 31 32  1  0  0  0  0
 32 33  1  0  0  0  0
 33 34  1  0  0  0  0
M  END
>  <MODEL>
8

>  <REMARK>
 VINA RESULT:      -6.2      4.074      5.934
  Name = 
  16 active torsions:
  status: ('A' for Active; 'I' for Inactive)
    1  A    between atoms: C_1  and  C_9
    2  A    between atoms: C_1  and  C_21
    3  A    between atoms: C_2  and  C_3
    4  A    between atoms: C_2  and  N_4
    5  A    between atoms: C_3  and  C_29
    6  A    between atoms: C_6  and  C_15
    7  A    between atoms: C_6  and  C_29
    8  A    between atoms: C_7  and  N_12
    9  A    between atoms: O_8  and  C_27
   10  A    between atoms: C_9  and  C_31
   11  A    between atoms: C_13  and  C_21
   12  A    between atoms: C_21  and  C_32
   13  A    between atoms: C_23  and  C_25
   14  A    between atoms: C_23  and  N_33
   15  A    between atoms: C_27  and  C_31
   16  A    between atoms: C_32  and  N_33
                            x       y       z     vdW  Elec       q    Type
                         _______ _______ _______ _____ _____    ______ ____

>  <TORSDO>
F 16

$$$$
=
 OpenBabel10222421283D

 34 35  0  0  1  0  0  0  0  0999 V2000
  190.6880  178.8230  144.0150 C   0  0  0  0  0  1  0  0  0  0  0  0
  189.3150  178.3380  143.5860 C   0  0  1  0  0  3  0  0  0  0  0  0
  189.9890  176.9050  141.6420 C   0  0  0  0  0  0  0  0  0  0  0  0
  189.0220  177.8490  139.6200 C   0  0  0  0  0  2  0  0  0  0  0  0
  188.2640  178.7840  140.9870 S   0  0  0  0  0  0  0  0  0  0  0  0
  189.8340  176.6810  140.1750 C   0  0  1  0  0  3  0  0  0  0  0  0
  189.3050  177.9280  142.1420 C   0  0  0  0  0  0  0  0  0  0  0  0
  190.7830  176.0500  142.4740 N   0  0  0  0  0  2  0  0  0  0  0  0
  191.9510  176.3520  142.7930 O   0  0  0  0  0  1  0  0  0  0  0  0
  191.2020  176.6350  139.5010 C   0  0  0  0  0  2  0  0  0  0  0  0
  191.0880  176.4410  137.9900 C   0  0  2  0  0  3  0  0  0  0  0  0
  190.3890  175.1290  137.6860 C   0  0  0  0  0  1  0  0  0  0  0  0
  192.4480  176.5260  137.2920 C   0  0  0  0  0  2  0  0  0  0  0  0
  193.6060  176.0680  138.1720 C   0  0  0  0  0  2  0  0  0  0  0  0
  194.6330  175.4360  137.3610 N   0  0  0  0  0  2  0  0  0  0  0  0
  196.5460  173.9140  137.0780 N   0  0  0  0  0  1  0  0  0  0  0  0
  195.5030  174.4350  137.8890 C   0  0  0  0  0  0  0  0  0  0  0  0
  195.3560  174.0120  139.0670 O   0  0  0  0  0  0  0  0  0  0  0  0
  188.8770  177.2460  144.4390 N   0  0  0  0  0  2  0  0  0  0  0  0
  187.4590  177.0420  144.1730 C   0  0  0  0  0  2  0  0  0  0  0  0
  186.6000  178.0090  144.9850 C   0  0  1  0  0  3  0  0  0  0  0  0
  182.9350  178.8870  143.0570 N   0  0  0  0  0  0  0  0  0  0  0  0
  185.2990  178.2970  144.3040 C   0  0  0  0  0  0  0  0  0  0  0  0
  183.9860  178.4180  142.3380 C   0  0  0  0  0  0  0  0  0  0  0  0
  185.1600  178.1330  142.9600 N   0  0  0  0  0  0  0  0  0  0  0  0
  183.0350  179.0750  144.3990 C   0  0  0  0  0  3  0  0  0  0  0  0
  184.2300  178.7870  145.0540 C   0  0  0  0  0  3  0  0  0  0  0  0
  183.8640  178.2420  140.9330 N   0  0  0  0  0  1  0  0  0  0  0  0
  186.3980  177.5440  146.4230 C   0  0  0  0  0  2  0  0  0  0  0  0
  187.1150  178.4730  147.3870 C   0  0  0  0  0  2  0  0  0  0  0  0
  187.9560  177.6540  148.3450 C   0  0  0  0  0  2  0  0  0  0  0  0
  189.4270  177.7560  147.9740 C   0  0  0  0  0  2  0  0  0  0  0  0
  189.8820  176.5310  147.4800 O   0  0  0  0  0  0  0  0  0  0  0  0
  191.2170  176.7640  147.1530 C   0  0  0  0  0  1  0  0  0  0  0  0
  2  1  1  1  0  0  0
  2 19  1  0  0  0  0
  3  7  2  0  0  0  0
  3  8  1  0  0  0  0
  4  6  1  0  0  0  0
  4  5  1  0  0  0  0
  5  7  1  0  0  0  0
  6 10  1  6  0  0  0
  6  3  1  0  0  0  0
  7  2  1  0  0  0  0
  8  9  1  0  0  0  0
 11 12  1  1  0  0  0
 11 10  1  0  0  0  0
 13 11  1  0  0  0  0
 13 14  1  0  0  0  0
 15 17  1  0  0  0  0
 15 14  1  0  0  0  0
 16 17  1  0  0  0  0
 17 18  2  0  0  0  0
 20 19  1  0  0  0  0
 21 20  1  6  0  0  0
 21 29  1  0  0  0  0
 22 26  1  0  0  0  0
 23 21  1  0  0  0  0
 23 27  1  0  0  0  0
 24 25  1  0  0  0  0
 24 22  2  0  0  0  0
 25 23  2  0  0  0  0
 26 27  2  0  0  0  0
 28 24  1  0  0  0  0
 29 30  1  0  0  0  0
 30 31  1  0  0  0  0
 32 31  1  0  0  0  0
 33 32  1  0  0  0  0
 34 33  1  0  0  0  0
M  END
>  <MODEL>
9

>  <REMARK>
 VINA RESULT:      -6.1      3.259      4.612
  Name = 
  16 active torsions:
  status: ('A' for Active; 'I' for Inactive)
    1  A    between atoms: C_1  and  C_9
    2  A    between atoms: C_1  and  C_21
    3  A    between atoms: C_2  and  C_3
    4  A    between atoms: C_2  and  N_4
    5  A    between atoms: C_3  and  C_29
    6  A    between atoms: C_6  and  C_15
    7  A    between atoms: C_6  and  C_29
    8  A    between atoms: C_7  and  N_12
    9  A    between atoms: O_8  and  C_27
   10  A    between atoms: C_9  and  C_31
   11  A    between atoms: C_13  and  C_21
   12  A    between atoms: C_21  and  C_32
   13  A    between atoms: C_23  and  C_25
   14  A    between atoms: C_23  and  N_33
   15  A    between atoms: C_27  and  C_31
   16  A    between atoms: C_32  and  N_33
                            x       y       z     vdW  Elec       q    Type
                         _______ _______ _______ _____ _____    ______ ____

>  <TORSDO>
F 16

$$$$
