=
 OpenBabel10232411223D

 37 40  0  0  1  0  0  0  0  0999 V2000
  190.8890  176.5600  144.1940 C   0  0  0  0  0  2  0  0  0  0  0  0
  189.6980  178.4350  145.0850 O   0  0  0  0  0  1  0  0  0  0  0  0
  190.7840  178.6090  142.9680 C   0  0  0  0  0  2  0  0  0  0  0  0
  189.9810  177.7350  143.9090 C   0  0  1  0  0  0  0  0  0  0  0  0
  191.7710  176.4630  142.9730 C   0  0  0  0  0  2  0  0  0  0  0  0
  191.8430  177.7910  142.3730 N   0  0  0  0  0  0  0  0  0  0  0  0
  191.6770  177.7000  140.9150 C   0  0  0  0  0  2  0  0  0  0  0  0
  190.7670  176.5800  140.4720 C   0  0  0  0  0  3  0  0  0  0  0  0
  189.7320  176.7320  139.6990 N   0  0  0  0  0  0  0  0  0  0  0  0
  189.2180  177.9590  139.1550 C   0  0  0  0  0  0  0  0  0  0  0  0
  188.7590  178.8600  139.9100 O   0  0  0  0  0  0  0  0  0  0  0  0
  186.7820  174.7180  137.3530 O   0  0  0  0  0  0  0  0  0  0  0  0
  188.0350  178.8870  137.0840 C   0  0  0  0  0  2  0  0  0  0  0  0
  186.7300  176.8830  136.3060 C   0  0  1  0  0  3  0  0  0  0  0  0
  186.7330  178.1000  137.2190 C   0  0  0  0  0  2  0  0  0  0  0  0
  189.6180  176.8990  136.8810 C   0  0  0  0  0  2  0  0  0  0  0  0
  187.4290  175.7370  136.9880 C   0  0  0  0  0  0  0  0  0  0  0  0
  188.7990  175.7950  137.2550 O   0  0  0  0  0  0  0  0  0  0  0  0
  189.2610  178.1690  137.6630 C   0  0  2  0  0  3  0  0  0  0  0  0
  184.3970  177.2970  136.6390 O   0  0  0  0  0  1  0  0  0  0  0  0
  185.3020  176.5300  135.9070 C   0  0  0  0  0  2  0  0  0  0  0  0
  188.7430  177.3200  143.2420 N   0  0  0  0  0  2  0  0  0  0  0  0
  187.6350  178.2030  143.5920 C   0  0  0  0  0  2  0  0  0  0  0  0
  186.4850  177.3760  144.1410 C   0  0  0  0  0  2  0  0  0  0  0  0
  185.2220  178.1700  144.1280 C   0  0  0  0  0  0  0  0  0  0  0  0
  184.4730  178.3920  143.0620 C   0  0  0  0  0  0  0  0  0  0  0  0
  183.3370  179.1370  143.3580 O   0  0  0  0  0  0  0  0  0  0  0  0
  184.9300  178.9050  146.4930 N   0  0  0  0  0  2  0  0  0  0  0  0
  183.2930  179.4490  144.7460 C   0  0  0  0  0  3  0  0  0  0  0  0
  184.5450  178.8190  145.2540 C   0  0  0  0  0  0  0  0  0  0  0  0
  187.3100  178.5310  147.6880 C   0  0  0  0  0  2  0  0  0  0  0  0
  186.1260  178.3530  147.0460 C   0  0  0  0  0  0  0  0  0  0  0  0
  186.9660  177.2600  147.3430 N   0  0  0  0  0  0  0  0  0  0  0  0
  184.7870  177.9140  141.7530 N   0  0  0  0  0  2  0  0  0  0  0  0
  185.2460  178.8180  140.7120 C   0  0  0  0  0  2  0  0  0  0  0  0
  184.4230  180.3450  139.0720 O   0  0  0  0  0  1  0  0  0  0  0  0
  184.0790  179.2280  139.8330 C   0  0  0  0  0  2  0  0  0  0  0  0
  3  4  1  0  0  0  0
  4  1  1  0  0  0  0
  4  2  1  1  0  0  0
  5  1  1  0  0  0  0
  6  3  1  0  0  0  0
  6  5  1  0  0  0  0
  7  6  1  0  0  0  0
  8  7  1  0  0  0  0
  9  8  2  0  0  0  0
 10  9  1  0  0  0  0
 10 11  2  0  0  0  0
 13 15  1  0  0  0  0
 13 19  1  0  0  0  0
 14 21  1  1  0  0  0
 14 17  1  0  0  0  0
 14 15  1  0  0  0  0
 16 18  1  0  0  0  0
 16 19  1  0  0  0  0
 17 18  1  0  0  0  0
 17 12  2  0  0  0  0
 19 10  1  1  0  0  0
 21 20  1  0  0  0  0
 22 23  1  0  0  0  0
 22  4  1  0  0  0  0
 23 24  1  0  0  0  0
 25 24  1  0  0  0  0
 25 30  1  0  0  0  0
 26 27  1  0  0  0  0
 26 25  2  0  0  0  0
 27 29  1  0  0  0  0
 28 32  1  0  0  0  0
 29 30  2  0  0  0  0
 30 28  1  0  0  0  0
 32 33  2  0  0  0  0
 32 31  1  0  0  0  0
 33 31  1  0  0  0  0
 34 26  1  0  0  0  0
 35 34  1  0  0  0  0
 36 37  1  0  0  0  0
 37 35  1  0  0  0  0
M  END
>  <MODEL>
1

>  <REMARK>
 VINA RESULT:      -6.9      0.000      0.000
  Name = 
  13 active torsions:
  status: ('A' for Active; 'I' for Inactive)
    1  A    between atoms: C_1  and  C_13
    2  A    between atoms: C_1  and  C_17
    3  A    between atoms: C_7  and  C_33
    4  A    between atoms: C_11  and  C_18
    5  A    between atoms: C_12  and  C_22
    6  A    between atoms: C_15  and  N_26
    7  A    between atoms: C_17  and  N_26
    8  A    between atoms: C_18  and  N_19
    9  A    between atoms: N_19  and  C_20
   10  A    between atoms: C_22  and  N_30
   11  A    between atoms: C_24  and  C_28
   12  A    between atoms: C_24  and  N_35
   13  A    between atoms: C_25  and  N_29
                            x       y       z     vdW  Elec       q    Type
                         _______ _______ _______ _____ _____    ______ ____

>  <TORSDO>
F 13

$$$$
=
 OpenBabel10232411223D

 37 40  0  0  1  0  0  0  0  0999 V2000
  188.1260  178.6170  136.7990 C   0  0  0  0  0  2  0  0  0  0  0  0
  187.8760  176.7320  135.3470 O   0  0  0  0  0  1  0  0  0  0  0  0
  189.1720  176.5380  137.3400 C   0  0  0  0  0  2  0  0  0  0  0  0
  187.9360  177.1220  136.6870 C   0  0  1  0  0  0  0  0  0  0  0  0
  189.0010  178.7950  138.0160 C   0  0  0  0  0  2  0  0  0  0  0  0
  189.7760  177.5700  138.1860 N   0  0  0  0  0  0  0  0  0  0  0  0
  189.7740  177.1590  139.5970 C   0  0  0  0  0  2  0  0  0  0  0  0
  188.6350  177.7380  140.4010 C   0  0  0  0  0  3  0  0  0  0  0  0
  188.5500  177.6950  141.6980 N   0  0  0  0  0  0  0  0  0  0  0  0
  189.4620  177.0670  142.6150 C   0  0  0  0  0  0  0  0  0  0  0  0
  189.3370  175.8500  142.9220 O   0  0  0  0  0  0  0  0  0  0  0  0
  189.2110  176.6610  147.0250 O   0  0  0  0  0  0  0  0  0  0  0  0
  191.8380  177.0660  143.5680 C   0  0  0  0  0  2  0  0  0  0  0  0
  191.3960  176.7950  146.0280 C   0  0  1  0  0  3  0  0  0  0  0  0
  191.6030  176.0740  144.7050 C   0  0  0  0  0  2  0  0  0  0  0  0
  190.1550  178.8340  144.3030 C   0  0  0  0  0  2  0  0  0  0  0  0
  189.9520  177.2030  146.1610 C   0  0  0  0  0  0  0  0  0  0  0  0
  189.4010  178.1630  145.3100 O   0  0  0  0  0  0  0  0  0  0  0  0
  190.5950  177.8820  143.1860 C   0  0  2  0  0  3  0  0  0  0  0  0
  192.5110  176.6830  148.1420 O   0  0  0  0  0  1  0  0  0  0  0  0
  191.8530  175.9140  147.1840 C   0  0  0  0  0  2  0  0  0  0  0  0
  186.7470  176.6660  137.4140 N   0  0  0  0  0  2  0  0  0  0  0  0
  185.5760  177.4620  137.0600 C   0  0  0  0  0  2  0  0  0  0  0  0
  184.4520  177.1680  138.0390 C   0  0  0  0  0  2  0  0  0  0  0  0
  183.6810  178.4110  138.3320 C   0  0  0  0  0  0  0  0  0  0  0  0
  184.0600  179.3630  139.1670 C   0  0  0  0  0  0  0  0  0  0  0  0
  183.1560  180.4190  139.2130 O   0  0  0  0  0  0  0  0  0  0  0  0
  181.6360  178.2180  136.9170 N   0  0  0  0  0  2  0  0  0  0  0  0
  182.0650  180.1800  138.3290 C   0  0  0  0  0  3  0  0  0  0  0  0
  182.4070  178.8480  137.7550 C   0  0  0  0  0  0  0  0  0  0  0  0
  181.7360  175.5820  136.3960 C   0  0  0  0  0  2  0  0  0  0  0  0
  181.8820  176.9320  136.3470 C   0  0  0  0  0  0  0  0  0  0  0  0
  182.4330  176.1020  135.3480 N   0  0  0  0  0  0  0  0  0  0  0  0
  185.2660  179.3210  139.9310 N   0  0  0  0  0  2  0  0  0  0  0  0
  185.2420  179.0480  141.3580 C   0  0  0  0  0  2  0  0  0  0  0  0
  183.4870  178.7400  142.9470 O   0  0  0  0  0  1  0  0  0  0  0  0
  183.9760  178.2940  141.7180 C   0  0  0  0  0  2  0  0  0  0  0  0
  1  5  1  0  0  0  0
  3  6  1  0  0  0  0
  4  2  1  6  0  0  0
  4  1  1  0  0  0  0
  4  3  1  0  0  0  0
  4 22  1  0  0  0  0
  5  6  1  0  0  0  0
  6  7  1  0  0  0  0
  7  8  1  0  0  0  0
  8  9  2  0  0  0  0
  9 10  1  0  0  0  0
 10 11  2  0  0  0  0
 13 15  1  0  0  0  0
 14 17  1  0  0  0  0
 14 21  1  1  0  0  0
 15 14  1  0  0  0  0
 16 18  1  0  0  0  0
 17 12  2  0  0  0  0
 18 17  1  0  0  0  0
 19 10  1  1  0  0  0
 19 13  1  0  0  0  0
 19 16  1  0  0  0  0
 21 20  1  0  0  0  0
 23 22  1  0  0  0  0
 23 24  1  0  0  0  0
 24 25  1  0  0  0  0
 25 26  2  0  0  0  0
 26 27  1  0  0  0  0
 26 34  1  0  0  0  0
 28 30  1  0  0  0  0
 29 27  1  0  0  0  0
 30 29  2  0  0  0  0
 30 25  1  0  0  0  0
 32 31  1  0  0  0  0
 32 28  1  0  0  0  0
 33 32  2  0  0  0  0
 33 31  1  0  0  0  0
 34 35  1  0  0  0  0
 35 37  1  0  0  0  0
 37 36  1  0  0  0  0
M  END
>  <MODEL>
2

>  <REMARK>
 VINA RESULT:      -6.8      2.570      7.817
  Name = 
  13 active torsions:
  status: ('A' for Active; 'I' for Inactive)
    1  A    between atoms: C_1  and  C_13
    2  A    between atoms: C_1  and  C_17
    3  A    between atoms: C_7  and  C_33
    4  A    between atoms: C_11  and  C_18
    5  A    between atoms: C_12  and  C_22
    6  A    between atoms: C_15  and  N_26
    7  A    between atoms: C_17  and  N_26
    8  A    between atoms: C_18  and  N_19
    9  A    between atoms: N_19  and  C_20
   10  A    between atoms: C_22  and  N_30
   11  A    between atoms: C_24  and  C_28
   12  A    between atoms: C_24  and  N_35
   13  A    between atoms: C_25  and  N_29
                            x       y       z     vdW  Elec       q    Type
                         _______ _______ _______ _____ _____    ______ ____

>  <TORSDO>
F 13

$$$$
=
 OpenBabel10232411223D

 37 40  0  0  1  0  0  0  0  0999 V2000
  187.7020  178.8840  136.6880 C   0  0  0  0  0  2  0  0  0  0  0  0
  185.9550  177.2560  136.5360 O   0  0  0  0  0  1  0  0  0  0  0  0
  187.7780  176.9120  138.0350 C   0  0  0  0  0  2  0  0  0  0  0  0
  186.8140  177.9080  137.4240 C   0  0  1  0  0  0  0  0  0  0  0  0
  189.0150  178.8310  137.4310 C   0  0  0  0  0  2  0  0  0  0  0  0
  189.1090  177.5230  138.0700 N   0  0  0  0  0  0  0  0  0  0  0  0
  189.5830  177.6660  139.4540 C   0  0  0  0  0  2  0  0  0  0  0  0
  188.5050  178.0700  140.4310 C   0  0  0  0  0  3  0  0  0  0  0  0
  188.5440  177.8380  141.7110 N   0  0  0  0  0  0  0  0  0  0  0  0
  189.5590  177.1320  142.4420 C   0  0  0  0  0  0  0  0  0  0  0  0
  189.5070  175.8780  142.5770 O   0  0  0  0  0  0  0  0  0  0  0  0
  189.1390  176.8920  146.8520 O   0  0  0  0  0  0  0  0  0  0  0  0
  191.8980  177.0500  143.4790 C   0  0  0  0  0  2  0  0  0  0  0  0
  191.3600  176.8860  145.9300 C   0  0  1  0  0  3  0  0  0  0  0  0
  191.5770  176.1110  144.6390 C   0  0  0  0  0  2  0  0  0  0  0  0
  190.2800  178.9210  144.0950 C   0  0  0  0  0  2  0  0  0  0  0  0
  189.9350  177.3670  145.9970 C   0  0  0  0  0  0  0  0  0  0  0  0
  189.4610  178.3230  145.0960 O   0  0  0  0  0  0  0  0  0  0  0  0
  190.7100  177.9100  143.0260 C   0  0  2  0  0  3  0  0  0  0  0  0
  192.3010  176.8150  148.1280 O   0  0  0  0  0  1  0  0  0  0  0  0
  191.7340  176.0250  147.1290 C   0  0  0  0  0  2  0  0  0  0  0  0
  186.0540  178.5600  138.4960 N   0  0  0  0  0  2  0  0  0  0  0  0
  184.6670  178.1080  138.5080 C   0  0  0  0  0  2  0  0  0  0  0  0
  183.7590  179.2740  138.8620 C   0  0  0  0  0  2  0  0  0  0  0  0
  182.8410  178.8970  139.9760 C   0  0  0  0  0  0  0  0  0  0  0  0
  183.1770  178.8470  141.2540 C   0  0  0  0  0  0  0  0  0  0  0  0
  182.1050  178.4970  142.0690 O   0  0  0  0  0  0  0  0  0  0  0  0
  180.6650  178.4290  138.8540 N   0  0  0  0  0  2  0  0  0  0  0  0
  180.9300  178.2980  141.2910 C   0  0  0  0  0  3  0  0  0  0  0  0
  181.4200  178.5520  139.9060 C   0  0  0  0  0  0  0  0  0  0  0  0
  181.5130  178.1150  136.3210 C   0  0  0  0  0  2  0  0  0  0  0  0
  181.0670  178.6280  137.4980 C   0  0  0  0  0  0  0  0  0  0  0  0
  181.3040  179.4590  136.3830 N   0  0  0  0  0  0  0  0  0  0  0  0
  184.4870  179.1270  141.7480 N   0  0  0  0  0  2  0  0  0  0  0  0
  185.1970  178.1730  142.5810 C   0  0  0  0  0  2  0  0  0  0  0  0
  184.5710  179.8660  144.1440 O   0  0  0  0  0  1  0  0  0  0  0  0
  185.0700  178.5670  144.0410 C   0  0  0  0  0  2  0  0  0  0  0  0
  1  4  1  0  0  0  0
  1  5  1  0  0  0  0
  3  6  1  0  0  0  0
  4  2  1  6  0  0  0
  4  3  1  0  0  0  0
  4 22  1  0  0  0  0
  5  6  1  0  0  0  0
  6  7  1  0  0  0  0
  7  8  1  0  0  0  0
  8  9  2  0  0  0  0
  9 10  1  0  0  0  0
 10 11  2  0  0  0  0
 13 15  1  0  0  0  0
 14 17  1  0  0  0  0
 14 21  1  1  0  0  0
 15 14  1  0  0  0  0
 16 18  1  0  0  0  0
 17 12  2  0  0  0  0
 18 17  1  0  0  0  0
 19 10  1  1  0  0  0
 19 13  1  0  0  0  0
 19 16  1  0  0  0  0
 21 20  1  0  0  0  0
 22 23  1  0  0  0  0
 23 24  1  0  0  0  0
 24 25  1  0  0  0  0
 25 26  2  0  0  0  0
 26 34  1  0  0  0  0
 26 27  1  0  0  0  0
 28 30  1  0  0  0  0
 29 27  1  0  0  0  0
 30 25  1  0  0  0  0
 30 29  2  0  0  0  0
 31 33  1  0  0  0  0
 31 32  1  0  0  0  0
 32 28  1  0  0  0  0
 33 32  2  0  0  0  0
 34 35  1  0  0  0  0
 35 37  1  0  0  0  0
 37 36  1  0  0  0  0
M  END
>  <MODEL>
3

>  <REMARK>
 VINA RESULT:      -6.7      2.480      7.516
  Name = 
  13 active torsions:
  status: ('A' for Active; 'I' for Inactive)
    1  A    between atoms: C_1  and  C_13
    2  A    between atoms: C_1  and  C_17
    3  A    between atoms: C_7  and  C_33
    4  A    between atoms: C_11  and  C_18
    5  A    between atoms: C_12  and  C_22
    6  A    between atoms: C_15  and  N_26
    7  A    between atoms: C_17  and  N_26
    8  A    between atoms: C_18  and  N_19
    9  A    between atoms: N_19  and  C_20
   10  A    between atoms: C_22  and  N_30
   11  A    between atoms: C_24  and  C_28
   12  A    between atoms: C_24  and  N_35
   13  A    between atoms: C_25  and  N_29
                            x       y       z     vdW  Elec       q    Type
                         _______ _______ _______ _____ _____    ______ ____

>  <TORSDO>
F 13

$$$$
=
 OpenBabel10232411223D

 37 40  0  0  1  0  0  0  0  0999 V2000
  190.3430  176.0500  142.8770 C   0  0  0  0  0  2  0  0  0  0  0  0
  191.6510  177.5250  144.2340 O   0  0  0  0  0  1  0  0  0  0  0  0
  191.4540  177.9220  141.8900 C   0  0  0  0  0  2  0  0  0  0  0  0
  190.7590  177.4760  143.1600 C   0  0  1  0  0  0  0  0  0  0  0  0
  190.1880  175.9950  141.3770 C   0  0  0  0  0  2  0  0  0  0  0  0
  191.0480  177.0260  140.8050 N   0  0  0  0  0  0  0  0  0  0  0  0
  190.3290  177.7650  139.7580 C   0  0  0  0  0  2  0  0  0  0  0  0
  188.8690  177.4000  139.6450 C   0  0  0  0  0  3  0  0  0  0  0  0
  188.1220  177.6500  138.6090 N   0  0  0  0  0  0  0  0  0  0  0  0
  188.4960  178.3460  137.4090 C   0  0  0  0  0  0  0  0  0  0  0  0
  188.9260  179.5310  137.4540 O   0  0  0  0  0  0  0  0  0  0  0  0
  190.6540  174.5010  137.8970 O   0  0  0  0  0  0  0  0  0  0  0  0
  187.2930  176.5580  136.0270 C   0  0  0  0  0  2  0  0  0  0  0  0
  188.6880  174.5220  136.5120 C   0  0  1  0  0  3  0  0  0  0  0  0
  187.5190  175.3800  136.9730 C   0  0  0  0  0  2  0  0  0  0  0  0
  189.7410  177.1070  135.5740 C   0  0  0  0  0  2  0  0  0  0  0  0
  189.9770  175.1070  137.0220 C   0  0  0  0  0  0  0  0  0  0  0  0
  190.4310  176.3450  136.5610 O   0  0  0  0  0  0  0  0  0  0  0  0
  188.3940  177.6260  136.0880 C   0  0  2  0  0  3  0  0  0  0  0  0
  187.1490  172.8510  137.2620 O   0  0  0  0  0  1  0  0  0  0  0  0
  188.4910  173.0800  136.9640 C   0  0  0  0  0  2  0  0  0  0  0  0
  189.6020  178.3440  143.4060 N   0  0  0  0  0  2  0  0  0  0  0  0
  189.1530  178.2430  144.7900 C   0  0  0  0  0  2  0  0  0  0  0  0
  188.0270  177.2280  144.8820 C   0  0  0  0  0  2  0  0  0  0  0  0
  186.7090  177.9200  144.9690 C   0  0  0  0  0  0  0  0  0  0  0  0
  185.9210  178.1890  143.9420 C   0  0  0  0  0  0  0  0  0  0  0  0
  184.7400  178.8120  144.3290 O   0  0  0  0  0  0  0  0  0  0  0  0
  186.4170  178.3930  147.4000 N   0  0  0  0  0  2  0  0  0  0  0  0
  184.7050  178.9810  145.7420 C   0  0  0  0  0  3  0  0  0  0  0  0
  186.0120  178.4010  146.1640 C   0  0  0  0  0  0  0  0  0  0  0  0
  188.4480  176.8200  148.1970 C   0  0  0  0  0  2  0  0  0  0  0  0
  187.6640  177.8820  147.8760 C   0  0  0  0  0  0  0  0  0  0  0  0
  188.9780  178.0640  148.3570 N   0  0  0  0  0  0  0  0  0  0  0  0
  186.2380  177.8690  142.5870 N   0  0  0  0  0  2  0  0  0  0  0  0
  186.2890  178.8980  141.5630 C   0  0  0  0  0  2  0  0  0  0  0  0
  185.0580  178.6400  139.5340 O   0  0  0  0  0  1  0  0  0  0  0  0
  184.9420  179.0080  140.8750 C   0  0  0  0  0  2  0  0  0  0  0  0
  1  4  1  0  0  0  0
  3  4  1  0  0  0  0
  4 22  1  0  0  0  0
  4  2  1  1  0  0  0
  5  1  1  0  0  0  0
  6  5  1  0  0  0  0
  6  3  1  0  0  0  0
  7  6  1  0  0  0  0
  8  7  1  0  0  0  0
  9  8  2  0  0  0  0
 10 11  2  0  0  0  0
 10  9  1  0  0  0  0
 13 19  1  0  0  0  0
 13 15  1  0  0  0  0
 14 21  1  1  0  0  0
 14 15  1  0  0  0  0
 14 17  1  0  0  0  0
 16 19  1  0  0  0  0
 16 18  1  0  0  0  0
 17 12  2  0  0  0  0
 18 17  1  0  0  0  0
 19 10  1  1  0  0  0
 21 20  1  0  0  0  0
 22 23  1  0  0  0  0
 23 24  1  0  0  0  0
 24 25  1  0  0  0  0
 25 30  1  0  0  0  0
 26 27  1  0  0  0  0
 26 25  2  0  0  0  0
 27 29  1  0  0  0  0
 28 32  1  0  0  0  0
 29 30  2  0  0  0  0
 30 28  1  0  0  0  0
 31 33  1  0  0  0  0
 32 31  1  0  0  0  0
 32 33  2  0  0  0  0
 34 26  1  0  0  0  0
 35 34  1  0  0  0  0
 36 37  1  0  0  0  0
 37 35  1  0  0  0  0
M  END
>  <MODEL>
4

>  <REMARK>
 VINA RESULT:      -6.7      1.591      2.325
  Name = 
  13 active torsions:
  status: ('A' for Active; 'I' for Inactive)
    1  A    between atoms: C_1  and  C_13
    2  A    between atoms: C_1  and  C_17
    3  A    between atoms: C_7  and  C_33
    4  A    between atoms: C_11  and  C_18
    5  A    between atoms: C_12  and  C_22
    6  A    between atoms: C_15  and  N_26
    7  A    between atoms: C_17  and  N_26
    8  A    between atoms: C_18  and  N_19
    9  A    between atoms: N_19  and  C_20
   10  A    between atoms: C_22  and  N_30
   11  A    between atoms: C_24  and  C_28
   12  A    between atoms: C_24  and  N_35
   13  A    between atoms: C_25  and  N_29
                            x       y       z     vdW  Elec       q    Type
                         _______ _______ _______ _____ _____    ______ ____

>  <TORSDO>
F 13

$$$$
=
 OpenBabel10232411223D

 37 40  0  0  1  0  0  0  0  0999 V2000
  185.3630  180.0450  144.5940 C   0  0  0  0  0  2  0  0  0  0  0  0
  185.0730  179.0000  146.7280 O   0  0  0  0  0  1  0  0  0  0  0  0
  183.4690  178.6450  144.9990 C   0  0  0  0  0  2  0  0  0  0  0  0
  184.9330  178.8090  145.3510 C   0  0  1  0  0  0  0  0  0  0  0  0
  184.4310  180.1020  143.4080 C   0  0  0  0  0  2  0  0  0  0  0  0
  183.2010  179.4090  143.7780 N   0  0  0  0  0  0  0  0  0  0  0  0
  182.7710  178.5210  142.6880 C   0  0  0  0  0  2  0  0  0  0  0  0
  181.4230  178.8740  142.1090 C   0  0  0  0  0  3  0  0  0  0  0  0
  181.0290  178.5570  140.9100 N   0  0  0  0  0  0  0  0  0  0  0  0
  181.7780  177.8690  139.8950 C   0  0  0  0  0  0  0  0  0  0  0  0
  182.0810  176.6510  140.0260 O   0  0  0  0  0  0  0  0  0  0  0  0
  186.0600  178.9300  140.3730 O   0  0  0  0  0  0  0  0  0  0  0  0
  182.9020  177.7710  137.5970 C   0  0  0  0  0  2  0  0  0  0  0  0
  185.2760  178.3720  138.1690 C   0  0  1  0  0  3  0  0  0  0  0  0
  184.2610  177.2450  138.0540 C   0  0  0  0  0  2  0  0  0  0  0  0
  182.9040  179.9370  138.9410 C   0  0  0  0  0  2  0  0  0  0  0  0
  185.1430  179.0360  139.5130 C   0  0  0  0  0  0  0  0  0  0  0  0
  183.9930  179.7560  139.8430 O   0  0  0  0  0  0  0  0  0  0  0  0
  182.1770  178.6200  138.6500 C   0  0  2  0  0  3  0  0  0  0  0  0
  187.5300  178.8780  137.5460 O   0  0  0  0  0  1  0  0  0  0  0  0
  186.6820  177.8380  137.9270 C   0  0  0  0  0  2  0  0  0  0  0  0
  185.6690  177.6180  144.9150 N   0  0  0  0  0  2  0  0  0  0  0  0
  187.0230  177.9610  144.4910 C   0  0  0  0  0  2  0  0  0  0  0  0
  187.9160  176.7380  144.6150 C   0  0  0  0  0  2  0  0  0  0  0  0
  189.3350  177.1030  144.3370 C   0  0  0  0  0  0  0  0  0  0  0  0
  189.9150  177.0530  143.1510 C   0  0  0  0  0  0  0  0  0  0  0  0
  191.2370  177.4840  143.1890 O   0  0  0  0  0  0  0  0  0  0  0  0
  190.2450  177.7830  146.5570 N   0  0  0  0  0  2  0  0  0  0  0  0
  191.5980  177.8700  144.5100 C   0  0  0  0  0  3  0  0  0  0  0  0
  190.3440  177.6080  145.2720 C   0  0  0  0  0  0  0  0  0  0  0  0
  188.0420  177.9980  148.0850 C   0  0  0  0  0  2  0  0  0  0  0  0
  189.0900  177.5280  147.3580 C   0  0  0  0  0  0  0  0  0  0  0  0
  188.1840  176.6470  147.9850 N   0  0  0  0  0  0  0  0  0  0  0  0
  189.2600  176.6170  141.9590 N   0  0  0  0  0  2  0  0  0  0  0  0
  189.0250  177.5290  140.8530 C   0  0  0  0  0  2  0  0  0  0  0  0
  190.5260  176.1410  139.6200 O   0  0  0  0  0  1  0  0  0  0  0  0
  190.1870  177.4690  139.8790 C   0  0  0  0  0  2  0  0  0  0  0  0
  1  4  1  0  0  0  0
  3  4  1  0  0  0  0
  4  2  1  1  0  0  0
  5  6  1  0  0  0  0
  5  1  1  0  0  0  0
  6  3  1  0  0  0  0
  7  6  1  0  0  0  0
  8  7  1  0  0  0  0
  9  8  2  0  0  0  0
 10 11  2  0  0  0  0
 10  9  1  0  0  0  0
 13 15  1  0  0  0  0
 13 19  1  0  0  0  0
 14 21  1  1  0  0  0
 14 17  1  0  0  0  0
 15 14  1  0  0  0  0
 16 18  1  0  0  0  0
 17 18  1  0  0  0  0
 17 12  2  0  0  0  0
 19 16  1  0  0  0  0
 19 10  1  1  0  0  0
 20 21  1  0  0  0  0
 22  4  1  0  0  0  0
 23 24  1  0  0  0  0
 23 22  1  0  0  0  0
 25 24  1  0  0  0  0
 25 30  1  0  0  0  0
 26 27  1  0  0  0  0
 26 25  2  0  0  0  0
 27 29  1  0  0  0  0
 28 32  1  0  0  0  0
 29 30  2  0  0  0  0
 30 28  1  0  0  0  0
 32 33  2  0  0  0  0
 32 31  1  0  0  0  0
 33 31  1  0  0  0  0
 34 26  1  0  0  0  0
 35 34  1  0  0  0  0
 36 37  1  0  0  0  0
 37 35  1  0  0  0  0
M  END
>  <MODEL>
5

>  <REMARK>
 VINA RESULT:      -6.6      2.215      6.034
  Name = 
  13 active torsions:
  status: ('A' for Active; 'I' for Inactive)
    1  A    between atoms: C_1  and  C_13
    2  A    between atoms: C_1  and  C_17
    3  A    between atoms: C_7  and  C_33
    4  A    between atoms: C_11  and  C_18
    5  A    between atoms: C_12  and  C_22
    6  A    between atoms: C_15  and  N_26
    7  A    between atoms: C_17  and  N_26
    8  A    between atoms: C_18  and  N_19
    9  A    between atoms: N_19  and  C_20
   10  A    between atoms: C_22  and  N_30
   11  A    between atoms: C_24  and  C_28
   12  A    between atoms: C_24  and  N_35
   13  A    between atoms: C_25  and  N_29
                            x       y       z     vdW  Elec       q    Type
                         _______ _______ _______ _____ _____    ______ ____

>  <TORSDO>
F 13

$$$$
=
 OpenBabel10232411223D

 37 40  0  0  1  0  0  0  0  0999 V2000
  190.5190  176.8040  140.6050 C   0  0  0  0  0  2  0  0  0  0  0  0
  191.2580  178.0990  142.4760 O   0  0  0  0  0  1  0  0  0  0  0  0
  189.2560  178.6990  141.3280 C   0  0  0  0  0  2  0  0  0  0  0  0
  190.1280  177.5740  141.8450 C   0  0  1  0  0  0  0  0  0  0  0  0
  189.3920  177.0590  139.6340 C   0  0  0  0  0  2  0  0  0  0  0  0
  188.7810  178.3350  139.9920 N   0  0  0  0  0  0  0  0  0  0  0  0
  187.3150  178.2200  139.9700 C   0  0  0  0  0  2  0  0  0  0  0  0
  186.6390  178.7900  141.1930 C   0  0  0  0  0  3  0  0  0  0  0  0
  185.3950  179.1680  141.2410 N   0  0  0  0  0  0  0  0  0  0  0  0
  184.4390  179.1700  140.1680 C   0  0  0  0  0  0  0  0  0  0  0  0
  184.5140  180.0160  139.2350 O   0  0  0  0  0  0  0  0  0  0  0  0
  181.1960  180.7360  137.5780 O   0  0  0  0  0  0  0  0  0  0  0  0
  183.3680  177.2030  138.9270 C   0  0  0  0  0  2  0  0  0  0  0  0
  181.6250  178.3700  137.5400 C   0  0  1  0  0  3  0  0  0  0  0  0
  183.0770  177.9230  137.6120 C   0  0  0  0  0  2  0  0  0  0  0  0
  181.9610  178.6880  140.4480 C   0  0  0  0  0  2  0  0  0  0  0  0
  181.4690  179.6960  138.2360 C   0  0  0  0  0  0  0  0  0  0  0  0
  181.6530  179.8030  139.6160 O   0  0  0  0  0  0  0  0  0  0  0  0
  183.3550  178.1220  140.1560 C   0  0  2  0  0  3  0  0  0  0  0  0
  182.2360  178.1700  135.2360 O   0  0  0  0  0  1  0  0  0  0  0  0
  181.1630  178.4240  136.0890 C   0  0  0  0  0  2  0  0  0  0  0  0
  189.3490  176.7510  142.7770 N   0  0  0  0  0  2  0  0  0  0  0  0
  188.9400  177.5230  143.9460 C   0  0  0  0  0  2  0  0  0  0  0  0
  188.6800  176.5800  145.1080 C   0  0  0  0  0  2  0  0  0  0  0  0
  188.2190  177.3440  146.3030 C   0  0  0  0  0  0  0  0  0  0  0  0
  187.0060  177.8430  146.4660 C   0  0  0  0  0  0  0  0  0  0  0  0
  186.8550  178.4780  147.6940 O   0  0  0  0  0  0  0  0  0  0  0  0
  190.2130  177.4140  147.7990 N   0  0  0  0  0  2  0  0  0  0  0  0
  188.0610  178.4040  148.4460 C   0  0  0  0  0  3  0  0  0  0  0  0
  188.9670  177.6640  147.5220 C   0  0  0  0  0  0  0  0  0  0  0  0
  191.9310  175.6560  146.7090 C   0  0  0  0  0  2  0  0  0  0  0  0
  191.1460  176.7370  146.9560 C   0  0  0  0  0  0  0  0  0  0  0  0
  191.9380  176.6610  145.7910 N   0  0  0  0  0  0  0  0  0  0  0  0
  185.9620  177.7370  145.4970 N   0  0  0  0  0  2  0  0  0  0  0  0
  184.6730  178.3720  145.7090 C   0  0  0  0  0  2  0  0  0  0  0  0
  184.4040  180.1910  144.1850 O   0  0  0  0  0  1  0  0  0  0  0  0
  184.1060  178.8430  144.3820 C   0  0  0  0  0  2  0  0  0  0  0  0
  1  4  1  0  0  0  0
  3  4  1  0  0  0  0
  4  2  1  1  0  0  0
  4 22  1  0  0  0  0
  5  6  1  0  0  0  0
  5  1  1  0  0  0  0
  6  3  1  0  0  0  0
  7  6  1  0  0  0  0
  7  8  1  0  0  0  0
  8  9  2  0  0  0  0
 10  9  1  0  0  0  0
 11 10  2  0  0  0  0
 12 17  2  0  0  0  0
 13 19  1  0  0  0  0
 14 21  1  6  0  0  0
 14 15  1  0  0  0  0
 14 17  1  0  0  0  0
 15 13  1  0  0  0  0
 17 18  1  0  0  0  0
 18 16  1  0  0  0  0
 19 10  1  6  0  0  0
 19 16  1  0  0  0  0
 20 21  1  0  0  0  0
 22 23  1  0  0  0  0
 23 24  1  0  0  0  0
 24 25  1  0  0  0  0
 25 26  2  0  0  0  0
 25 30  1  0  0  0  0
 26 27  1  0  0  0  0
 27 29  1  0  0  0  0
 30 28  1  0  0  0  0
 30 29  2  0  0  0  0
 31 32  1  0  0  0  0
 32 28  1  0  0  0  0
 33 31  1  0  0  0  0
 33 32  2  0  0  0  0
 34 35  1  0  0  0  0
 34 26  1  0  0  0  0
 36 37  1  0  0  0  0
 37 35  1  0  0  0  0
M  END
>  <MODEL>
6

>  <REMARK>
 VINA RESULT:      -6.5      2.512      5.014
  Name = 
  13 active torsions:
  status: ('A' for Active; 'I' for Inactive)
    1  A    between atoms: C_1  and  C_13
    2  A    between atoms: C_1  and  C_17
    3  A    between atoms: C_7  and  C_33
    4  A    between atoms: C_11  and  C_18
    5  A    between atoms: C_12  and  C_22
    6  A    between atoms: C_15  and  N_26
    7  A    between atoms: C_17  and  N_26
    8  A    between atoms: C_18  and  N_19
    9  A    between atoms: N_19  and  C_20
   10  A    between atoms: C_22  and  N_30
   11  A    between atoms: C_24  and  C_28
   12  A    between atoms: C_24  and  N_35
   13  A    between atoms: C_25  and  N_29
                            x       y       z     vdW  Elec       q    Type
                         _______ _______ _______ _____ _____    ______ ____

>  <TORSDO>
F 13

$$$$
=
 OpenBabel10232411223D

 37 40  0  0  1  0  0  0  0  0999 V2000
  191.5940  176.9620  142.5250 C   0  0  0  0  0  2  0  0  0  0  0  0
  191.1820  178.9290  143.8240 O   0  0  0  0  0  1  0  0  0  0  0  0
  189.9490  178.5450  141.8180 C   0  0  0  0  0  2  0  0  0  0  0  0
  190.5680  177.9340  143.0590 C   0  0  1  0  0  0  0  0  0  0  0  0
  191.0680  176.5690  141.1660 C   0  0  0  0  0  2  0  0  0  0  0  0
  190.2310  177.6630  140.6840 N   0  0  0  0  0  0  0  0  0  0  0  0
  188.9850  177.1330  140.1100 C   0  0  0  0  0  2  0  0  0  0  0  0
  187.8640  178.1420  140.0470 C   0  0  0  0  0  3  0  0  0  0  0  0
  187.4270  178.6940  138.9530 N   0  0  0  0  0  0  0  0  0  0  0  0
  187.9280  178.5090  137.6190 C   0  0  0  0  0  0  0  0  0  0  0  0
  188.9730  179.1000  137.2310 O   0  0  0  0  0  0  0  0  0  0  0  0
  191.0390  176.3010  135.3540 O   0  0  0  0  0  0  0  0  0  0  0  0
  187.0910  176.1270  137.1990 C   0  0  0  0  0  2  0  0  0  0  0  0
  189.0310  175.1210  135.9540 C   0  0  1  0  0  3  0  0  0  0  0  0
  188.4340  175.4110  137.3230 C   0  0  0  0  0  2  0  0  0  0  0  0
  187.6920  177.6450  135.2420 C   0  0  0  0  0  2  0  0  0  0  0  0
  189.7830  176.3300  135.4650 C   0  0  0  0  0  0  0  0  0  0  0  0
  189.1080  177.5120  135.1530 O   0  0  0  0  0  0  0  0  0  0  0  0
  187.1990  177.5710  136.6910 C   0  0  2  0  0  3  0  0  0  0  0  0
  190.0670  173.4700  137.3420 O   0  0  0  0  0  1  0  0  0  0  0  0
  189.9140  173.8810  136.0180 C   0  0  0  0  0  2  0  0  0  0  0  0
  189.5220  177.2560  143.8340 N   0  0  0  0  0  2  0  0  0  0  0  0
  188.2420  177.9430  143.7040 C   0  0  0  0  0  2  0  0  0  0  0  0
  187.1760  177.1700  144.4620 C   0  0  0  0  0  2  0  0  0  0  0  0
  186.8820  177.8330  145.7650 C   0  0  0  0  0  0  0  0  0  0  0  0
  187.5700  177.6590  146.8800 C   0  0  0  0  0  0  0  0  0  0  0  0
  187.0860  178.4330  147.9290 O   0  0  0  0  0  0  0  0  0  0  0  0
  184.8890  179.2570  145.3000 N   0  0  0  0  0  2  0  0  0  0  0  0
  185.9750  179.2140  147.5010 C   0  0  0  0  0  3  0  0  0  0  0  0
  185.8330  178.8090  146.0730 C   0  0  0  0  0  0  0  0  0  0  0  0
  184.8770  179.1380  142.6130 C   0  0  0  0  0  2  0  0  0  0  0  0
  184.6730  178.8970  143.9340 C   0  0  0  0  0  0  0  0  0  0  0  0
  184.1130  178.0600  142.9450 N   0  0  0  0  0  0  0  0  0  0  0  0
  188.6920  176.7820  146.9970 N   0  0  0  0  0  2  0  0  0  0  0  0
  189.9800  177.2670  147.4610 C   0  0  0  0  0  2  0  0  0  0  0  0
  191.9880  176.7270  146.2870 O   0  0  0  0  0  1  0  0  0  0  0  0
  191.0510  176.2260  147.1910 C   0  0  0  0  0  2  0  0  0  0  0  0
  1  4  1  0  0  0  0
  3  4  1  0  0  0  0
  4  2  1  1  0  0  0
  4 22  1  0  0  0  0
  5  1  1  0  0  0  0
  6  5  1  0  0  0  0
  6  3  1  0  0  0  0
  7  6  1  0  0  0  0
  8  7  1  0  0  0  0
  9  8  2  0  0  0  0
 10  9  1  0  0  0  0
 11 10  2  0  0  0  0
 12 17  2  0  0  0  0
 13 15  1  0  0  0  0
 14 21  1  1  0  0  0
 14 15  1  0  0  0  0
 16 19  1  0  0  0  0
 17 14  1  0  0  0  0
 18 16  1  0  0  0  0
 18 17  1  0  0  0  0
 19 13  1  0  0  0  0
 19 10  1  1  0  0  0
 21 20  1  0  0  0  0
 23 22  1  0  0  0  0
 23 24  1  0  0  0  0
 24 25  1  0  0  0  0
 25 30  1  0  0  0  0
 25 26  2  0  0  0  0
 26 34  1  0  0  0  0
 26 27  1  0  0  0  0
 28 30  1  0  0  0  0
 29 27  1  0  0  0  0
 30 29  2  0  0  0  0
 31 33  1  0  0  0  0
 31 32  1  0  0  0  0
 32 28  1  0  0  0  0
 33 32  2  0  0  0  0
 34 35  1  0  0  0  0
 36 37  1  0  0  0  0
 37 35  1  0  0  0  0
M  END
>  <MODEL>
7

>  <REMARK>
 VINA RESULT:      -6.5      2.173      4.421
  Name = 
  13 active torsions:
  status: ('A' for Active; 'I' for Inactive)
    1  A    between atoms: C_1  and  C_13
    2  A    between atoms: C_1  and  C_17
    3  A    between atoms: C_7  and  C_33
    4  A    between atoms: C_11  and  C_18
    5  A    between atoms: C_12  and  C_22
    6  A    between atoms: C_15  and  N_26
    7  A    between atoms: C_17  and  N_26
    8  A    between atoms: C_18  and  N_19
    9  A    between atoms: N_19  and  C_20
   10  A    between atoms: C_22  and  N_30
   11  A    between atoms: C_24  and  C_28
   12  A    between atoms: C_24  and  N_35
   13  A    between atoms: C_25  and  N_29
                            x       y       z     vdW  Elec       q    Type
                         _______ _______ _______ _____ _____    ______ ____

>  <TORSDO>
F 13

$$$$
=
 OpenBabel10232411223D

 37 40  0  0  1  0  0  0  0  0999 V2000
  183.4680  178.6790  141.2930 C   0  0  0  0  0  2  0  0  0  0  0  0
  183.8150  179.9750  139.3120 O   0  0  0  0  0  1  0  0  0  0  0  0
  185.6650  179.4160  140.7100 C   0  0  0  0  0  2  0  0  0  0  0  0
  184.3550  178.9580  140.1020 C   0  0  1  0  0  0  0  0  0  0  0  0
  184.4280  178.3290  142.4030 C   0  0  0  0  0  2  0  0  0  0  0  0
  185.7020  178.9750  142.1060 N   0  0  0  0  0  0  0  0  0  0  0  0
  186.8120  178.0370  142.3290 C   0  0  0  0  0  2  0  0  0  0  0  0
  187.7960  177.9720  141.1870 C   0  0  0  0  0  3  0  0  0  0  0  0
  189.0070  177.5030  141.2810 N   0  0  0  0  0  0  0  0  0  0  0  0
  189.6640  177.0070  142.4580 C   0  0  0  0  0  0  0  0  0  0  0  0
  189.3340  175.9010  142.9680 O   0  0  0  0  0  0  0  0  0  0  0  0
  189.0540  176.9170  146.8510 O   0  0  0  0  0  0  0  0  0  0  0  0
  191.9570  176.9870  143.5970 C   0  0  0  0  0  2  0  0  0  0  0  0
  191.3130  176.9040  146.0270 C   0  0  1  0  0  3  0  0  0  0  0  0
  191.5940  176.0860  144.7750 C   0  0  0  0  0  2  0  0  0  0  0  0
  190.2960  178.8610  144.0760 C   0  0  0  0  0  2  0  0  0  0  0  0
  189.8820  177.3700  146.0150 C   0  0  0  0  0  0  0  0  0  0  0  0
  189.4390  178.2890  145.0610 O   0  0  0  0  0  0  0  0  0  0  0  0
  190.7820  177.8180  143.0640 C   0  0  2  0  0  3  0  0  0  0  0  0
  192.3550  176.8700  148.1810 O   0  0  0  0  0  1  0  0  0  0  0  0
  191.6420  176.0890  147.2710 C   0  0  0  0  0  2  0  0  0  0  0  0
  184.5930  177.7510  139.3020 N   0  0  0  0  0  2  0  0  0  0  0  0
  185.4570  178.0360  138.1620 C   0  0  0  0  0  2  0  0  0  0  0  0
  185.0360  177.1770  136.9820 C   0  0  0  0  0  2  0  0  0  0  0  0
  185.7220  175.8530  137.0340 C   0  0  0  0  0  0  0  0  0  0  0  0
  187.0130  175.6560  136.8300 C   0  0  0  0  0  0  0  0  0  0  0  0
  187.3750  174.3220  136.9760 O   0  0  0  0  0  0  0  0  0  0  0  0
  183.9040  174.2350  137.5750 N   0  0  0  0  0  2  0  0  0  0  0  0
  186.2420  173.5320  137.3180 C   0  0  0  0  0  3  0  0  0  0  0  0
  185.1460  174.5430  137.3450 C   0  0  0  0  0  0  0  0  0  0  0  0
  181.7240  175.6880  136.9650 C   0  0  0  0  0  2  0  0  0  0  0  0
  182.7980  175.1410  137.5910 C   0  0  0  0  0  0  0  0  0  0  0  0
  182.0030  176.1170  138.2270 N   0  0  0  0  0  0  0  0  0  0  0  0
  187.9380  176.6950  136.5050 N   0  0  0  0  0  2  0  0  0  0  0  0
  188.9960  177.0750  137.4240 C   0  0  0  0  0  2  0  0  0  0  0  0
  188.9480  179.2840  138.3290 O   0  0  0  0  0  1  0  0  0  0  0  0
  189.3550  178.5360  137.2230 C   0  0  0  0  0  2  0  0  0  0  0  0
  1  5  1  0  0  0  0
  3  6  1  0  0  0  0
  4  2  1  6  0  0  0
  4  3  1  0  0  0  0
  4  1  1  0  0  0  0
  6  7  1  0  0  0  0
  6  5  1  0  0  0  0
  8  9  2  0  0  0  0
  8  7  1  0  0  0  0
  9 10  1  0  0  0  0
 10 11  2  0  0  0  0
 13 15  1  0  0  0  0
 14 21  1  1  0  0  0
 15 14  1  0  0  0  0
 16 18  1  0  0  0  0
 17 14  1  0  0  0  0
 17 12  2  0  0  0  0
 18 17  1  0  0  0  0
 19 10  1  1  0  0  0
 19 13  1  0  0  0  0
 19 16  1  0  0  0  0
 21 20  1  0  0  0  0
 22  4  1  0  0  0  0
 23 22  1  0  0  0  0
 24 25  1  0  0  0  0
 24 23  1  0  0  0  0
 25 30  1  0  0  0  0
 26 27  1  0  0  0  0
 26 25  2  0  0  0  0
 27 29  1  0  0  0  0
 28 32  1  0  0  0  0
 29 30  2  0  0  0  0
 30 28  1  0  0  0  0
 31 32  1  0  0  0  0
 31 33  1  0  0  0  0
 32 33  2  0  0  0  0
 34 26  1  0  0  0  0
 34 35  1  0  0  0  0
 37 35  1  0  0  0  0
 37 36  1  0  0  0  0
M  END
>  <MODEL>
8

>  <REMARK>
 VINA RESULT:      -6.4      2.342      8.137
  Name = 
  13 active torsions:
  status: ('A' for Active; 'I' for Inactive)
    1  A    between atoms: C_1  and  C_13
    2  A    between atoms: C_1  and  C_17
    3  A    between atoms: C_7  and  C_33
    4  A    between atoms: C_11  and  C_18
    5  A    between atoms: C_12  and  C_22
    6  A    between atoms: C_15  and  N_26
    7  A    between atoms: C_17  and  N_26
    8  A    between atoms: C_18  and  N_19
    9  A    between atoms: N_19  and  C_20
   10  A    between atoms: C_22  and  N_30
   11  A    between atoms: C_24  and  C_28
   12  A    between atoms: C_24  and  N_35
   13  A    between atoms: C_25  and  N_29
                            x       y       z     vdW  Elec       q    Type
                         _______ _______ _______ _____ _____    ______ ____

>  <TORSDO>
F 13

$$$$
=
 OpenBabel10232411223D

 37 40  0  0  1  0  0  0  0  0999 V2000
  190.5020  176.7170  141.5510 C   0  0  0  0  0  2  0  0  0  0  0  0
  189.9980  178.5500  143.0040 O   0  0  0  0  0  1  0  0  0  0  0  0
  189.1430  178.5250  140.7780 C   0  0  0  0  0  2  0  0  0  0  0  0
  189.4680  177.7160  142.0170 C   0  0  1  0  0  0  0  0  0  0  0  0
  190.2160  176.5400  140.0790 C   0  0  0  0  0  2  0  0  0  0  0  0
  189.5690  177.7580  139.6050 N   0  0  0  0  0  0  0  0  0  0  0  0
  188.4190  177.4240  138.7520 C   0  0  0  0  0  2  0  0  0  0  0  0
  188.1900  178.4000  137.6240 C   0  0  0  0  0  3  0  0  0  0  0  0
  187.0370  178.6260  137.0650 N   0  0  0  0  0  0  0  0  0  0  0  0
  185.7840  177.9850  137.3540 C   0  0  0  0  0  0  0  0  0  0  0  0
  185.2940  178.0140  138.5170 O   0  0  0  0  0  0  0  0  0  0  0  0
  187.1250  173.7560  137.3670 O   0  0  0  0  0  0  0  0  0  0  0  0
  183.8070  176.5040  136.6820 C   0  0  0  0  0  2  0  0  0  0  0  0
  184.8300  174.2100  136.8060 C   0  0  1  0  0  3  0  0  0  0  0  0
  184.1270  175.3130  137.5830 C   0  0  0  0  0  2  0  0  0  0  0  0
  185.9570  176.4830  135.3130 C   0  0  0  0  0  2  0  0  0  0  0  0
  186.3070  174.4930  136.7510 C   0  0  0  0  0  0  0  0  0  0  0  0
  186.7970  175.5930  136.0430 O   0  0  0  0  0  0  0  0  0  0  0  0
  185.0430  177.2960  136.2360 C   0  0  2  0  0  3  0  0  0  0  0  0
  184.5480  171.8600  136.4510 O   0  0  0  0  0  1  0  0  0  0  0  0
  184.5270  172.8530  137.4300 C   0  0  0  0  0  2  0  0  0  0  0  0
  188.2480  177.0570  142.4950 N   0  0  0  0  0  2  0  0  0  0  0  0
  187.3480  178.0130  143.1310 C   0  0  0  0  0  2  0  0  0  0  0  0
  186.4010  177.2730  144.0610 C   0  0  0  0  0  2  0  0  0  0  0  0
  186.4800  177.8390  145.4390 C   0  0  0  0  0  0  0  0  0  0  0  0
  187.4790  177.6500  146.2830 C   0  0  0  0  0  0  0  0  0  0  0  0
  187.2940  178.3280  147.4830 O   0  0  0  0  0  0  0  0  0  0  0  0
  184.3710  179.1450  145.6920 N   0  0  0  0  0  2  0  0  0  0  0  0
  186.0690  179.0530  147.4630 C   0  0  0  0  0  3  0  0  0  0  0  0
  185.5250  178.7210  146.1150 C   0  0  0  0  0  0  0  0  0  0  0  0
  182.6630  178.7600  143.6510 C   0  0  0  0  0  2  0  0  0  0  0  0
  183.7730  178.8480  144.4290 C   0  0  0  0  0  0  0  0  0  0  0  0
  183.8580  178.4400  143.0810 N   0  0  0  0  0  0  0  0  0  0  0  0
  188.6260  176.8480  145.9970 N   0  0  0  0  0  2  0  0  0  0  0  0
  189.9700  177.3490  146.2260 C   0  0  0  0  0  2  0  0  0  0  0  0
  191.9840  176.9260  147.4370 O   0  0  0  0  0  1  0  0  0  0  0  0
  190.7190  176.4110  147.1550 C   0  0  0  0  0  2  0  0  0  0  0  0
  1  4  1  0  0  0  0
  3  4  1  0  0  0  0
  4 22  1  0  0  0  0
  4  2  1  1  0  0  0
  5  1  1  0  0  0  0
  6  5  1  0  0  0  0
  6  3  1  0  0  0  0
  7  6  1  0  0  0  0
  8  7  1  0  0  0  0
  9 10  1  0  0  0  0
  9  8  2  0  0  0  0
 10 11  2  0  0  0  0
 13 15  1  0  0  0  0
 14 21  1  1  0  0  0
 14 15  1  0  0  0  0
 16 18  1  0  0  0  0
 16 19  1  0  0  0  0
 17 14  1  0  0  0  0
 17 12  2  0  0  0  0
 18 17  1  0  0  0  0
 19 13  1  0  0  0  0
 19 10  1  1  0  0  0
 20 21  1  0  0  0  0
 22 23  1  0  0  0  0
 23 24  1  0  0  0  0
 24 25  1  0  0  0  0
 25 30  1  0  0  0  0
 25 26  2  0  0  0  0
 26 27  1  0  0  0  0
 28 30  1  0  0  0  0
 29 27  1  0  0  0  0
 30 29  2  0  0  0  0
 31 32  1  0  0  0  0
 32 28  1  0  0  0  0
 33 31  1  0  0  0  0
 33 32  2  0  0  0  0
 34 35  1  0  0  0  0
 34 26  1  0  0  0  0
 35 37  1  0  0  0  0
 37 36  1  0  0  0  0
M  END
>  <MODEL>
9

>  <REMARK>
 VINA RESULT:      -6.3      2.016      4.526
  Name = 
  13 active torsions:
  status: ('A' for Active; 'I' for Inactive)
    1  A    between atoms: C_1  and  C_13
    2  A    between atoms: C_1  and  C_17
    3  A    between atoms: C_7  and  C_33
    4  A    between atoms: C_11  and  C_18
    5  A    between atoms: C_12  and  C_22
    6  A    between atoms: C_15  and  N_26
    7  A    between atoms: C_17  and  N_26
    8  A    between atoms: C_18  and  N_19
    9  A    between atoms: N_19  and  C_20
   10  A    between atoms: C_22  and  N_30
   11  A    between atoms: C_24  and  C_28
   12  A    between atoms: C_24  and  N_35
   13  A    between atoms: C_25  and  N_29
                            x       y       z     vdW  Elec       q    Type
                         _______ _______ _______ _____ _____    ______ ____

>  <TORSDO>
F 13

$$$$
