=
 OpenBabel10232411003D

 42 49  0  0  1  0  0  0  0  0999 V2000
  192.2350  175.5870  137.1440 O   0  0  0  0  0  1  0  0  0  0  0  0
  188.4660  178.2100  142.7100 C   0  0  2  0  0  3  0  0  0  0  0  0
  190.1850  178.0040  140.7050 C   0  0  2  0  0  3  0  0  0  0  0  0
  189.9530  176.0120  142.4000 C   0  0  0  0  0  2  0  0  0  0  0  0
  190.3620  176.4390  135.7780 C   0  0  0  0  0  0  0  0  0  0  0  0
  189.4260  177.3380  141.8600 C   0  0  1  0  0  0  0  0  0  0  0  0
  189.7100  178.0110  137.8820 C   0  0  0  0  0  0  0  0  0  0  0  0
  190.1510  178.0570  144.6120 C   0  0  0  0  0  2  0  0  0  0  0  0
  188.9030  177.2330  140.4480 C   0  0  1  0  0  3  0  0  0  0  0  0
  189.1760  177.2330  135.5640 C   0  0  0  0  0  3  0  0  0  0  0  0
  187.8940  178.3160  140.0770 C   0  0  2  0  0  3  0  0  0  0  0  0
  191.5120  177.0820  139.8300 S   0  0  0  0  0  0  0  0  0  0  0  0
  188.9110  177.9800  136.6710 C   0  0  0  0  0  0  0  0  0  0  0  0
  186.3150  179.7230  141.2240 O   0  0  0  0  0  1  0  0  0  0  0  0
  190.6010  176.6700  144.6790 N   0  0  0  0  0  0  0  0  0  0  0  0
  186.7640  178.4060  141.1140 C   0  0  2  0  0  3  0  0  0  0  0  0
  188.6770  178.0890  144.2210 C   0  0  0  0  0  2  0  0  0  0  0  0
  188.5420  178.7970  137.7730 C   0  0  1  0  0  3  0  0  0  0  0  0
  187.4550  178.2700  138.6620 N   0  0  0  0  0  0  0  0  0  0  0  0
  191.1470  176.4470  137.0290 C   0  0  0  0  0  0  0  0  0  0  0  0
  187.1160  177.8990  142.3980 O   0  0  0  0  0  0  0  0  0  0  0  0
  190.8360  177.2980  138.1510 C   0  0  0  0  0  0  0  0  0  0  0  0
  191.1020  176.2760  143.3650 C   0  0  0  0  0  2  0  0  0  0  0  0
  190.7860  175.5400  134.6690 C   0  0  0  0  0  1  0  0  0  0  0  0
  191.7450  176.6280  145.5770 C   0  0  0  0  0  2  0  0  0  0  0  0
  191.3120  176.2880  146.9680 C   0  0  0  0  0  0  0  0  0  0  0  0
  192.1810  175.7860  147.8410 C   0  0  0  0  0  2  0  0  0  0  0  0
  189.9330  176.6340  147.4140 C   0  0  0  0  0  1  0  0  0  0  0  0
  186.9450  176.9260  138.3210 C   0  0  0  0  0  2  0  0  0  0  0  0
  182.5060  177.7840  138.4710 C   0  0  0  0  0  0  0  0  0  0  0  0
  180.2530  177.0510  138.5820 N   0  0  0  0  0  2  0  0  0  0  0  0
  182.1860  177.2570  137.1820 N   0  0  0  0  0  0  0  0  0  0  0  0
  185.3810  176.5040  136.3860 C   0  0  0  0  0  2  0  0  0  0  0  0
  184.8990  178.3530  138.0150 C   0  0  0  0  0  2  0  0  0  0  0  0
  183.0070  177.1910  135.9790 C   0  0  0  0  0  2  0  0  0  0  0  0
  183.6800  178.2790  138.8750 C   0  0  0  0  0  3  0  0  0  0  0  0
  180.8300  176.8270  137.2930 C   0  0  0  0  0  0  0  0  0  0  0  0
  183.9730  176.0200  136.0660 C   0  0  0  0  0  2  0  0  0  0  0  0
  181.2310  178.0130  140.5090 O   0  0  0  0  0  0  0  0  0  0  0  0
  181.3190  177.6580  139.3030 C   0  0  0  0  0  0  0  0  0  0  0  0
  185.4990  176.9670  137.8330 C   0  0  2  0  0  3  0  0  0  0  0  0
  180.1950  176.2960  136.3440 O   0  0  0  0  0  0  0  0  0  0  0  0
  2 17  1  1  0  0  0
  3 12  1  6  0  0  0
  3  6  1  0  0  0  0
  4 23  1  0  0  0  0
  5 20  1  0  0  0  0
  6  4  1  1  0  0  0
  6  2  1  0  0  0  0
  7 22  1  0  0  0  0
  8 15  1  0  0  0  0
  9  3  1  0  0  0  0
  9  6  1  0  0  0  0
 10  5  2  0  0  0  0
 10 13  1  0  0  0  0
 11  9  1  0  0  0  0
 11 16  1  0  0  0  0
 13 18  1  0  0  0  0
 13  7  2  0  0  0  0
 15 25  1  0  0  0  0
 16 14  1  0  0  0  0
 16 21  1  0  0  0  0
 17  8  1  0  0  0  0
 18  7  1  0  0  0  0
 18 19  1  0  0  0  0
 19 11  1  0  0  0  0
 20  1  1  0  0  0  0
 20 22  2  0  0  0  0
 21  2  1  0  0  0  0
 22 12  1  0  0  0  0
 23 15  1  0  0  0  0
 24  5  1  0  0  0  0
 25 26  1  0  0  0  0
 26 28  1  0  0  0  0
 26 27  2  0  0  0  0
 29 19  1  0  0  0  0
 30 36  2  0  0  0  0
 30 40  1  0  0  0  0
 31 40  1  0  0  0  0
 32 37  1  0  0  0  0
 32 30  1  0  0  0  0
 33 41  1  0  0  0  0
 34 36  1  0  0  0  0
 35 38  1  0  0  0  0
 35 32  1  0  0  0  0
 37 31  1  0  0  0  0
 38 33  1  0  0  0  0
 40 39  2  0  0  0  0
 41 34  1  0  0  0  0
 41 29  1  0  0  0  0
 42 37  2  0  0  0  0
M  END
>  <MODEL>
1

>  <REMARK>
 VINA RESULT:      -8.7      0.000      0.000
  Name = 
  4 active torsions:
  status: ('A' for Active; 'I' for Inactive)
    1  A    between atoms: C_18  and  C_22
    2  A    between atoms: N_21  and  C_22
    3  A    between atoms: C_29  and  N_34
    4  A    between atoms: C_29  and  C_39
                            x       y       z     vdW  Elec       q    Type
                         _______ _______ _______ _____ _____    ______ ____

>  <TORSDO>
F 4

$$$$
=
 OpenBabel10232411003D

 42 49  0  0  1  0  0  0  0  0999 V2000
  185.6150  176.3820  136.3270 O   0  0  0  0  0  1  0  0  0  0  0  0
  192.5900  176.1920  138.1620 C   0  0  2  0  0  3  0  0  0  0  0  0
  190.2860  176.9460  137.0980 C   0  0  2  0  0  3  0  0  0  0  0  0
  190.9700  174.4130  137.0010 C   0  0  0  0  0  2  0  0  0  0  0  0
  185.3370  177.6390  138.4340 C   0  0  0  0  0  0  0  0  0  0  0  0
  191.2170  175.8140  137.5520 C   0  0  1  0  0  0  0  0  0  0  0  0
  187.9960  178.1300  138.3430 C   0  0  0  0  0  0  0  0  0  0  0  0
  193.6790  175.3290  136.0290 C   0  0  0  0  0  2  0  0  0  0  0  0
  190.1070  176.2940  138.4570 C   0  0  1  0  0  3  0  0  0  0  0  0
  185.8280  178.3870  139.5660 C   0  0  0  0  0  3  0  0  0  0  0  0
  190.5350  177.3800  139.4410 C   0  0  2  0  0  3  0  0  0  0  0  0
  188.7630  176.5530  136.1470 S   0  0  0  0  0  0  0  0  0  0  0  0
  187.1700  178.5780  139.4500 C   0  0  0  0  0  0  0  0  0  0  0  0
  192.5670  178.0840  140.5180 O   0  0  0  0  0  1  0  0  0  0  0  0
  193.0220  174.0700  135.6890 N   0  0  0  0  0  0  0  0  0  0  0  0
  191.7890  176.9630  140.2230 C   0  0  2  0  0  3  0  0  0  0  0  0
  193.7790  175.4510  137.5460 C   0  0  0  0  0  2  0  0  0  0  0  0
  188.5690  178.8290  139.4290 C   0  0  1  0  0  3  0  0  0  0  0  0
  189.4240  177.9190  140.2610 N   0  0  0  0  0  0  0  0  0  0  0  0
  186.1910  177.1530  137.3310 C   0  0  0  0  0  0  0  0  0  0  0  0
  192.5790  175.9760  139.5660 O   0  0  0  0  0  0  0  0  0  0  0  0
  187.6040  177.4290  137.2470 C   0  0  0  0  0  0  0  0  0  0  0  0
  191.5830  174.2990  135.6100 C   0  0  0  0  0  2  0  0  0  0  0  0
  183.8820  177.3200  138.4110 C   0  0  0  0  0  1  0  0  0  0  0  0
  193.4490  173.7070  134.3460 C   0  0  0  0  0  2  0  0  0  0  0  0
  194.3310  172.5000  134.3810 C   0  0  0  0  0  0  0  0  0  0  0  0
  195.6550  172.6330  134.3570 C   0  0  0  0  0  2  0  0  0  0  0  0
  193.7270  171.1520  134.5730 C   0  0  0  0  0  1  0  0  0  0  0  0
  188.7110  176.8240  140.9510 C   0  0  0  0  0  2  0  0  0  0  0  0
  190.0770  177.4220  145.2210 C   0  0  0  0  0  0  0  0  0  0  0  0
  190.2270  176.6930  147.4740 N   0  0  0  0  0  2  0  0  0  0  0  0
  188.7790  177.5980  145.7930 N   0  0  0  0  0  0  0  0  0  0  0  0
  187.1430  177.3910  142.8450 C   0  0  0  0  0  2  0  0  0  0  0  0
  189.5270  178.1820  142.9030 C   0  0  0  0  0  2  0  0  0  0  0  0
  187.5710  178.1510  145.1940 C   0  0  0  0  0  2  0  0  0  0  0  0
  190.4470  177.6700  143.9620 C   0  0  0  0  0  3  0  0  0  0  0  0
  188.9130  177.1470  147.1410 C   0  0  0  0  0  0  0  0  0  0  0  0
  186.8930  177.1080  144.3200 C   0  0  0  0  0  2  0  0  0  0  0  0
  192.1600  176.5890  146.1140 O   0  0  0  0  0  0  0  0  0  0  0  0
  190.9420  176.8800  146.2580 C   0  0  0  0  0  0  0  0  0  0  0  0
  188.5820  177.0770  142.4510 C   0  0  2  0  0  3  0  0  0  0  0  0
  187.9620  177.1460  147.9650 O   0  0  0  0  0  0  0  0  0  0  0  0
  1 20  1  0  0  0  0
  2 17  1  6  0  0  0
  2 21  1  0  0  0  0
  3 12  1  6  0  0  0
  3  6  1  0  0  0  0
  3  9  1  0  0  0  0
  5 10  1  0  0  0  0
  6  4  1  6  0  0  0
  6  2  1  0  0  0  0
  6  9  1  0  0  0  0
  7 18  1  0  0  0  0
  7 13  1  0  0  0  0
  8 17  1  0  0  0  0
  9 11  1  0  0  0  0
 11 16  1  0  0  0  0
 11 19  1  0  0  0  0
 12 22  1  0  0  0  0
 13 10  2  0  0  0  0
 15  8  1  0  0  0  0
 16 14  1  0  0  0  0
 18 13  1  0  0  0  0
 18 19  1  0  0  0  0
 19 29  1  0  0  0  0
 20  5  2  0  0  0  0
 21 16  1  0  0  0  0
 22 20  1  0  0  0  0
 22  7  2  0  0  0  0
 23 15  1  0  0  0  0
 23  4  1  0  0  0  0
 24  5  1  0  0  0  0
 25 26  1  0  0  0  0
 25 15  1  0  0  0  0
 26 28  1  0  0  0  0
 27 26  2  0  0  0  0
 29 41  1  0  0  0  0
 30 32  1  0  0  0  0
 30 40  1  0  0  0  0
 32 37  1  0  0  0  0
 33 38  1  0  0  0  0
 34 36  1  0  0  0  0
 35 32  1  0  0  0  0
 36 30  2  0  0  0  0
 37 31  1  0  0  0  0
 37 42  2  0  0  0  0
 38 35  1  0  0  0  0
 39 40  2  0  0  0  0
 40 31  1  0  0  0  0
 41 33  1  0  0  0  0
 41 34  1  0  0  0  0
M  END
>  <MODEL>
2

>  <REMARK>
 VINA RESULT:      -8.0      3.122      8.445
  Name = 
  4 active torsions:
  status: ('A' for Active; 'I' for Inactive)
    1  A    between atoms: C_18  and  C_22
    2  A    between atoms: N_21  and  C_22
    3  A    between atoms: C_29  and  N_34
    4  A    between atoms: C_29  and  C_39
                            x       y       z     vdW  Elec       q    Type
                         _______ _______ _______ _____ _____    ______ ____

>  <TORSDO>
F 4

$$$$
=
 OpenBabel10232411003D

 42 49  0  0  1  0  0  0  0  0999 V2000
  184.9890  176.7360  137.4450 O   0  0  0  0  0  1  0  0  0  0  0  0
  192.1060  176.6020  138.6280 C   0  0  2  0  0  3  0  0  0  0  0  0
  189.7000  177.3640  137.8240 C   0  0  2  0  0  3  0  0  0  0  0  0
  190.4190  174.8580  137.5110 C   0  0  0  0  0  2  0  0  0  0  0  0
  184.8830  177.8590  139.6430 C   0  0  0  0  0  0  0  0  0  0  0  0
  190.6890  176.2290  138.1220 C   0  0  1  0  0  0  0  0  0  0  0  0
  187.5130  178.4170  139.3420 C   0  0  0  0  0  0  0  0  0  0  0  0
  193.0100  175.8930  136.3550 C   0  0  0  0  0  2  0  0  0  0  0  0
  189.6590  176.6280  139.1510 C   0  0  1  0  0  3  0  0  0  0  0  0
  185.4620  178.5500  140.7690 C   0  0  0  0  0  3  0  0  0  0  0  0
  190.1550  177.6640  140.1570 C   0  0  2  0  0  3  0  0  0  0  0  0
  188.1040  176.9910  136.9920 S   0  0  0  0  0  0  0  0  0  0  0  0
  186.7850  178.7780  140.5440 C   0  0  0  0  0  0  0  0  0  0  0  0
  192.2650  178.3500  141.0870 O   0  0  0  0  0  1  0  0  0  0  0  0
  192.3470  174.6410  136.0000 N   0  0  0  0  0  0  0  0  0  0  0  0
  191.4830  177.2310  140.7960 C   0  0  2  0  0  3  0  0  0  0  0  0
  193.2460  175.9270  137.8620 C   0  0  0  0  0  2  0  0  0  0  0  0
  188.1710  179.0630  140.4120 C   0  0  1  0  0  3  0  0  0  0  0  0
  189.1150  178.1260  141.1060 N   0  0  0  0  0  0  0  0  0  0  0  0
  185.6410  177.4590  138.4390 C   0  0  0  0  0  0  0  0  0  0  0  0
  192.2270  176.3030  140.0110 O   0  0  0  0  0  0  0  0  0  0  0  0
  187.0350  177.7730  138.2450 C   0  0  0  0  0  0  0  0  0  0  0  0
  190.9030  174.8410  136.0660 C   0  0  0  0  0  2  0  0  0  0  0  0
  183.4380  177.5070  139.7320 C   0  0  0  0  0  1  0  0  0  0  0  0
  192.6560  174.3690  134.6040 C   0  0  0  0  0  2  0  0  0  0  0  0
  193.2300  172.9970  134.4490 C   0  0  0  0  0  0  0  0  0  0  0  0
  194.5450  172.8050  134.5150 C   0  0  0  0  0  2  0  0  0  0  0  0
  192.3160  171.8240  134.3470 C   0  0  0  0  0  1  0  0  0  0  0  0
  188.4880  176.9760  141.7890 C   0  0  0  0  0  2  0  0  0  0  0  0
  186.7750  177.8160  145.8900 C   0  0  0  0  0  0  0  0  0  0  0  0
  186.6060  179.1690  147.8320 N   0  0  0  0  0  2  0  0  0  0  0  0
  187.9870  177.6280  146.6240 N   0  0  0  0  0  0  0  0  0  0  0  0
  189.8170  176.7540  143.9230 C   0  0  0  0  0  2  0  0  0  0  0  0
  187.3370  176.3590  143.9370 C   0  0  0  0  0  2  0  0  0  0  0  0
  189.1220  176.7620  146.3290 C   0  0  0  0  0  2  0  0  0  0  0  0
  186.4490  177.2750  144.7130 C   0  0  0  0  0  3  0  0  0  0  0  0
  187.8450  178.4570  147.7770 C   0  0  0  0  0  0  0  0  0  0  0  0
  190.0170  177.4070  145.2840 C   0  0  0  0  0  2  0  0  0  0  0  0
  184.8070  179.1550  146.2960 O   0  0  0  0  0  0  0  0  0  0  0  0
  185.9480  178.7470  146.6420 C   0  0  0  0  0  0  0  0  0  0  0  0
  188.4780  177.1430  143.3060 C   0  0  2  0  0  3  0  0  0  0  0  0
  188.7290  178.5580  148.6670 O   0  0  0  0  0  0  0  0  0  0  0  0
  1 20  1  0  0  0  0
  2 17  1  6  0  0  0
  2 21  1  0  0  0  0
  3 12  1  6  0  0  0
  3  6  1  0  0  0  0
  3  9  1  0  0  0  0
  5 24  1  0  0  0  0
  5 10  1  0  0  0  0
  6  4  1  6  0  0  0
  6  2  1  0  0  0  0
  6  9  1  0  0  0  0
  7 18  1  0  0  0  0
  7 13  1  0  0  0  0
  8 17  1  0  0  0  0
  9 11  1  0  0  0  0
 11 16  1  0  0  0  0
 11 19  1  0  0  0  0
 12 22  1  0  0  0  0
 13 10  2  0  0  0  0
 15 23  1  0  0  0  0
 15  8  1  0  0  0  0
 16 14  1  0  0  0  0
 18 13  1  0  0  0  0
 18 19  1  0  0  0  0
 19 29  1  0  0  0  0
 20  5  2  0  0  0  0
 21 16  1  0  0  0  0
 22 20  1  0  0  0  0
 22  7  2  0  0  0  0
 23  4  1  0  0  0  0
 25 15  1  0  0  0  0
 26 27  2  0  0  0  0
 26 25  1  0  0  0  0
 28 26  1  0  0  0  0
 29 41  1  0  0  0  0
 30 32  1  0  0  0  0
 30 40  1  0  0  0  0
 32 37  1  0  0  0  0
 33 38  1  0  0  0  0
 34 36  1  0  0  0  0
 35 32  1  0  0  0  0
 36 30  2  0  0  0  0
 37 31  1  0  0  0  0
 37 42  2  0  0  0  0
 38 35  1  0  0  0  0
 39 40  2  0  0  0  0
 40 31  1  0  0  0  0
 41 33  1  0  0  0  0
 41 34  1  0  0  0  0
M  END
>  <MODEL>
3

>  <REMARK>
 VINA RESULT:      -7.2      3.108      8.205
  Name = 
  4 active torsions:
  status: ('A' for Active; 'I' for Inactive)
    1  A    between atoms: C_18  and  C_22
    2  A    between atoms: N_21  and  C_22
    3  A    between atoms: C_29  and  N_34
    4  A    between atoms: C_29  and  C_39
                            x       y       z     vdW  Elec       q    Type
                         _______ _______ _______ _____ _____    ______ ____

>  <TORSDO>
F 4

$$$$
=
 OpenBabel10232411003D

 42 49  0  0  1  0  0  0  0  0999 V2000
  187.1670  177.8180  142.6050 O   0  0  0  0  0  1  0  0  0  0  0  0
  185.1800  177.3130  135.6870 C   0  0  2  0  0  3  0  0  0  0  0  0
  185.8900  178.3050  138.0370 C   0  0  2  0  0  3  0  0  0  0  0  0
  184.1310  176.3580  137.9500 C   0  0  0  0  0  2  0  0  0  0  0  0
  189.4630  177.6210  141.7150 C   0  0  0  0  0  0  0  0  0  0  0  0
  185.1690  177.2140  137.2340 C   0  0  1  0  0  0  0  0  0  0  0  0
  188.4550  178.3380  139.3090 C   0  0  0  0  0  0  0  0  0  0  0  0
  182.7110  177.9270  135.7960 C   0  0  0  0  0  2  0  0  0  0  0  0
  186.5730  176.9830  137.7390 C   0  0  1  0  0  3  0  0  0  0  0  0
  190.4440  177.6390  140.6570 C   0  0  0  0  0  3  0  0  0  0  0  0
  187.6630  177.3540  136.7360 C   0  0  2  0  0  3  0  0  0  0  0  0
  185.6990  178.3720  139.8640 S   0  0  0  0  0  0  0  0  0  0  0  0
  189.8540  177.9940  139.4830 C   0  0  0  0  0  0  0  0  0  0  0  0
  187.8790  177.5190  134.3460 O   0  0  0  0  0  1  0  0  0  0  0  0
  182.0860  177.0250  136.7590 N   0  0  0  0  0  0  0  0  0  0  0  0
  187.4160  176.6940  135.3720 C   0  0  2  0  0  3  0  0  0  0  0  0
  183.8010  177.1750  135.0380 C   0  0  0  0  0  2  0  0  0  0  0  0
  189.3390  178.3490  138.2070 C   0  0  1  0  0  3  0  0  0  0  0  0
  189.0400  177.2180  137.2670 N   0  0  0  0  0  0  0  0  0  0  0  0
  188.0320  177.9350  141.5210 C   0  0  0  0  0  0  0  0  0  0  0  0
  186.0560  176.3380  135.1390 O   0  0  0  0  0  0  0  0  0  0  0  0
  187.4790  178.3480  140.2550 C   0  0  0  0  0  0  0  0  0  0  0  0
  182.8100  177.1150  138.0230 C   0  0  0  0  0  2  0  0  0  0  0  0
  189.9350  177.2290  143.0720 C   0  0  0  0  0  1  0  0  0  0  0  0
  180.7480  177.5330  137.0220 C   0  0  0  0  0  2  0  0  0  0  0  0
  180.7680  179.0210  137.1750 C   0  0  0  0  0  0  0  0  0  0  0  0
  180.6350  179.8100  136.1120 C   0  0  0  0  0  2  0  0  0  0  0  0
  180.8100  179.6200  138.5390 C   0  0  0  0  0  1  0  0  0  0  0  0
  189.2550  175.8620  137.8110 C   0  0  0  0  0  2  0  0  0  0  0  0
  193.5580  175.5240  136.4610 C   0  0  0  0  0  0  0  0  0  0  0  0
  195.1850  175.2910  134.7490 N   0  0  0  0  0  2  0  0  0  0  0  0
  193.4940  174.1660  136.0200 N   0  0  0  0  0  0  0  0  0  0  0  0
  190.2810  173.7180  136.9640 C   0  0  0  0  0  2  0  0  0  0  0  0
  191.7070  175.4190  138.1390 C   0  0  0  0  0  2  0  0  0  0  0  0
  192.6590  173.0740  136.5050 C   0  0  0  0  0  2  0  0  0  0  0  0
  192.7980  176.1110  137.3900 C   0  0  0  0  0  3  0  0  0  0  0  0
  194.4820  174.0710  134.9940 C   0  0  0  0  0  0  0  0  0  0  0  0
  191.2580  173.1850  135.9240 C   0  0  0  0  0  2  0  0  0  0  0  0
  194.9280  177.3980  135.7950 O   0  0  0  0  0  0  0  0  0  0  0  0
  194.5950  176.1870  135.6850 C   0  0  0  0  0  0  0  0  0  0  0  0
  190.5040  175.2020  137.2330 C   0  0  2  0  0  3  0  0  0  0  0  0
  194.7140  173.0100  134.3570 O   0  0  0  0  0  0  0  0  0  0  0  0
  2 17  1  6  0  0  0
  2  6  1  0  0  0  0
  3 12  1  1  0  0  0
  4 23  1  0  0  0  0
  5 24  1  0  0  0  0
  6  9  1  0  0  0  0
  6  4  1  1  0  0  0
  6  3  1  0  0  0  0
  7 13  2  0  0  0  0
  7 22  1  0  0  0  0
  8 15  1  0  0  0  0
  9  3  1  0  0  0  0
 10  5  2  0  0  0  0
 11 19  1  0  0  0  0
 11  9  1  0  0  0  0
 12 22  1  0  0  0  0
 13 10  1  0  0  0  0
 14 16  1  0  0  0  0
 15 25  1  0  0  0  0
 15 23  1  0  0  0  0
 16 11  1  0  0  0  0
 17  8  1  0  0  0  0
 18  7  1  0  0  0  0
 18 13  1  0  0  0  0
 19 29  1  0  0  0  0
 19 18  1  0  0  0  0
 20  5  1  0  0  0  0
 20  1  1  0  0  0  0
 21 16  1  0  0  0  0
 21  2  1  0  0  0  0
 22 20  2  0  0  0  0
 25 26  1  0  0  0  0
 26 28  1  0  0  0  0
 27 26  2  0  0  0  0
 30 36  2  0  0  0  0
 31 37  1  0  0  0  0
 31 40  1  0  0  0  0
 32 30  1  0  0  0  0
 32 35  1  0  0  0  0
 33 41  1  0  0  0  0
 36 34  1  0  0  0  0
 37 32  1  0  0  0  0
 38 35  1  0  0  0  0
 38 33  1  0  0  0  0
 40 39  2  0  0  0  0
 40 30  1  0  0  0  0
 41 29  1  0  0  0  0
 41 34  1  0  0  0  0
 42 37  2  0  0  0  0
M  END
>  <MODEL>
4

>  <REMARK>
 VINA RESULT:      -6.4      3.098      9.411
  Name = 
  4 active torsions:
  status: ('A' for Active; 'I' for Inactive)
    1  A    between atoms: C_18  and  C_22
    2  A    between atoms: N_21  and  C_22
    3  A    between atoms: C_29  and  N_34
    4  A    between atoms: C_29  and  C_39
                            x       y       z     vdW  Elec       q    Type
                         _______ _______ _______ _____ _____    ______ ____

>  <TORSDO>
F 4

$$$$
=
 OpenBabel10232411003D

 42 49  0  0  1  0  0  0  0  0999 V2000
  189.1500  176.9310  139.4650 O   0  0  0  0  0  1  0  0  0  0  0  0
  184.7100  178.7560  144.8520 C   0  0  2  0  0  3  0  0  0  0  0  0
  186.5290  178.8910  142.9310 C   0  0  2  0  0  3  0  0  0  0  0  0
  186.5850  176.8690  144.6060 C   0  0  0  0  0  2  0  0  0  0  0  0
  187.2190  177.4440  138.0130 C   0  0  0  0  0  0  0  0  0  0  0  0
  185.8510  178.0840  144.0470 C   0  0  1  0  0  0  0  0  0  0  0  0
  186.1940  178.8450  140.0890 C   0  0  0  0  0  0  0  0  0  0  0  0
  186.3030  178.8900  146.8330 C   0  0  0  0  0  2  0  0  0  0  0  0
  185.4230  177.9020  142.6100 C   0  0  1  0  0  3  0  0  0  0  0  0
  185.9200  178.0110  137.7450 C   0  0  0  0  0  3  0  0  0  0  0  0
  184.2510  178.7890  142.1940 C   0  0  2  0  0  3  0  0  0  0  0  0
  188.0410  178.2370  142.1180 S   0  0  0  0  0  0  0  0  0  0  0  0
  185.4720  178.6840  138.8400 C   0  0  0  0  0  0  0  0  0  0  0  0
  182.3910  179.8710  143.2680 O   0  0  0  0  0  1  0  0  0  0  0  0
  186.9950  177.6070  146.9160 N   0  0  0  0  0  0  0  0  0  0  0  0
  183.0760  178.6590  143.1760 C   0  0  2  0  0  3  0  0  0  0  0  0
  184.8680  178.6580  146.3700 C   0  0  0  0  0  2  0  0  0  0  0  0
  184.9080  179.4080  139.9260 C   0  0  1  0  0  3  0  0  0  0  0  0
  183.8950  178.6800  140.7600 N   0  0  0  0  0  0  0  0  0  0  0  0
  187.9300  177.5800  139.3010 C   0  0  0  0  0  0  0  0  0  0  0  0
  183.4540  178.2090  144.4740 O   0  0  0  0  0  0  0  0  0  0  0  0
  187.4160  178.3470  140.4090 C   0  0  0  0  0  0  0  0  0  0  0  0
  187.6200  177.3270  145.6270 C   0  0  0  0  0  2  0  0  0  0  0  0
  187.8510  176.6500  136.9230 C   0  0  0  0  0  1  0  0  0  0  0  0
  188.0840  177.7620  147.8690 C   0  0  0  0  0  2  0  0  0  0  0  0
  189.3960  177.4400  147.2280 C   0  0  0  0  0  0  0  0  0  0  0  0
  190.0760  176.3550  147.5940 C   0  0  0  0  0  2  0  0  0  0  0  0
  189.8810  178.2660  146.0870 C   0  0  0  0  0  1  0  0  0  0  0  0
  183.6550  177.2700  140.3900 C   0  0  0  0  0  2  0  0  0  0  0  0
  181.7910  175.3580  136.7390 C   0  0  0  0  0  0  0  0  0  0  0  0
  181.4360  175.2700  134.3950 N   0  0  0  0  0  2  0  0  0  0  0  0
  180.8980  176.4270  136.4230 N   0  0  0  0  0  0  0  0  0  0  0  0
  181.7520  178.3070  139.0960 C   0  0  0  0  0  2  0  0  0  0  0  0
  181.9990  175.8090  139.1900 C   0  0  0  0  0  2  0  0  0  0  0  0
  180.2550  177.3890  137.3100 C   0  0  0  0  0  2  0  0  0  0  0  0
  182.2930  175.0500  137.9380 C   0  0  0  0  0  3  0  0  0  0  0  0
  180.7140  176.3390  135.0100 C   0  0  0  0  0  0  0  0  0  0  0  0
  181.2300  178.4960  137.6790 C   0  0  0  0  0  2  0  0  0  0  0  0
  182.8650  173.6680  135.3890 O   0  0  0  0  0  0  0  0  0  0  0  0
  182.1000  174.6640  135.4980 C   0  0  0  0  0  0  0  0  0  0  0  0
  182.7330  177.1420  139.1810 C   0  0  2  0  0  3  0  0  0  0  0  0
  179.9840  177.1320  134.3590 O   0  0  0  0  0  0  0  0  0  0  0  0
  2 17  1  1  0  0  0
  3 12  1  6  0  0  0
  3  6  1  0  0  0  0
  4 23  1  0  0  0  0
  5 20  1  0  0  0  0
  6  4  1  1  0  0  0
  6  2  1  0  0  0  0
  7 22  1  0  0  0  0
  8 15  1  0  0  0  0
  9  3  1  0  0  0  0
  9  6  1  0  0  0  0
 10  5  2  0  0  0  0
 10 13  1  0  0  0  0
 11  9  1  0  0  0  0
 11 16  1  0  0  0  0
 13 18  1  0  0  0  0
 13  7  2  0  0  0  0
 15 25  1  0  0  0  0
 16 14  1  0  0  0  0
 16 21  1  0  0  0  0
 17  8  1  0  0  0  0
 18  7  1  0  0  0  0
 18 19  1  0  0  0  0
 19 11  1  0  0  0  0
 20  1  1  0  0  0  0
 20 22  2  0  0  0  0
 21  2  1  0  0  0  0
 22 12  1  0  0  0  0
 23 15  1  0  0  0  0
 24  5  1  0  0  0  0
 26 27  2  0  0  0  0
 26 25  1  0  0  0  0
 28 26  1  0  0  0  0
 29 19  1  0  0  0  0
 30 36  2  0  0  0  0
 31 37  1  0  0  0  0
 31 40  1  0  0  0  0
 32 30  1  0  0  0  0
 32 35  1  0  0  0  0
 33 41  1  0  0  0  0
 35 38  1  0  0  0  0
 36 34  1  0  0  0  0
 37 32  1  0  0  0  0
 38 33  1  0  0  0  0
 39 40  2  0  0  0  0
 40 30  1  0  0  0  0
 41 34  1  0  0  0  0
 41 29  1  0  0  0  0
 42 37  2  0  0  0  0
M  END
>  <MODEL>
5

>  <REMARK>
 VINA RESULT:      -6.4      2.615      4.031
  Name = 
  4 active torsions:
  status: ('A' for Active; 'I' for Inactive)
    1  A    between atoms: C_18  and  C_22
    2  A    between atoms: N_21  and  C_22
    3  A    between atoms: C_29  and  N_34
    4  A    between atoms: C_29  and  C_39
                            x       y       z     vdW  Elec       q    Type
                         _______ _______ _______ _____ _____    ______ ____

>  <TORSDO>
F 4

$$$$
=
 OpenBabel10232411003D

 42 49  0  0  1  0  0  0  0  0999 V2000
  188.7470  173.4940  134.4960 O   0  0  0  0  0  1  0  0  0  0  0  0
  194.9640  175.1710  137.7530 C   0  0  2  0  0  3  0  0  0  0  0  0
  192.9660  175.1140  136.0160 C   0  0  2  0  0  3  0  0  0  0  0  0
  193.8920  172.8510  136.9720 C   0  0  0  0  0  2  0  0  0  0  0  0
  187.7960  175.2830  135.9090 C   0  0  0  0  0  0  0  0  0  0  0  0
  193.8460  174.3750  137.0320 C   0  0  1  0  0  0  0  0  0  0  0  0
  190.3230  176.1950  136.2320 C   0  0  0  0  0  0  0  0  0  0  0  0
  196.6600  173.8880  136.3540 C   0  0  0  0  0  2  0  0  0  0  0  0
  192.4940  174.9070  137.4440 C   0  0  1  0  0  3  0  0  0  0  0  0
  187.8930  176.4280  136.7810 C   0  0  0  0  0  3  0  0  0  0  0  0
  192.5370  176.3080  138.0490 C   0  0  2  0  0  3  0  0  0  0  0  0
  191.7980  174.1690  134.9580 S   0  0  0  0  0  0  0  0  0  0  0  0
  189.1930  176.8130  136.9000 C   0  0  0  0  0  0  0  0  0  0  0  0
  194.1300  177.6750  139.2230 O   0  0  0  0  0  1  0  0  0  0  0  0
  196.2430  172.4880  136.3470 N   0  0  0  0  0  0  0  0  0  0  0  0
  193.5710  176.3970  139.1810 C   0  0  2  0  0  3  0  0  0  0  0  0
  196.3390  174.5010  137.7130 C   0  0  0  0  0  2  0  0  0  0  0  0
  190.5160  177.2940  137.0980 C   0  0  1  0  0  3  0  0  0  0  0  0
  191.2010  176.8680  138.3630 N   0  0  0  0  0  0  0  0  0  0  0  0
  188.9570  174.6360  135.2630 C   0  0  0  0  0  0  0  0  0  0  0  0
  194.5980  175.4140  139.1040 O   0  0  0  0  0  0  0  0  0  0  0  0
  190.3080  175.1230  135.3970 C   0  0  0  0  0  0  0  0  0  0  0  0
  194.8620  172.4140  135.8810 C   0  0  0  0  0  2  0  0  0  0  0  0
  186.4390  174.7130  135.6830 C   0  0  0  0  0  1  0  0  0  0  0  0
  197.0460  171.8020  135.3470 C   0  0  0  0  0  2  0  0  0  0  0  0
  197.4350  170.4390  135.8260 C   0  0  0  0  0  0  0  0  0  0  0  0
  197.4630  170.1660  137.1280 C   0  0  0  0  0  2  0  0  0  0  0  0
  197.6660  169.3490  134.8370 C   0  0  0  0  0  1  0  0  0  0  0  0
  190.4380  175.9390  139.2220 C   0  0  0  0  0  2  0  0  0  0  0  0
  190.7160  177.1070  143.5820 C   0  0  0  0  0  0  0  0  0  0  0  0
  189.9540  176.9580  145.8240 N   0  0  0  0  0  2  0  0  0  0  0  0
  189.4870  177.8340  143.6440 N   0  0  0  0  0  0  0  0  0  0  0  0
  188.7650  177.4410  140.3670 C   0  0  0  0  0  2  0  0  0  0  0  0
  191.1560  177.3990  141.1380 C   0  0  0  0  0  2  0  0  0  0  0  0
  188.8010  178.5810  142.5970 C   0  0  0  0  0  2  0  0  0  0  0  0
  191.4800  176.8980  142.5070 C   0  0  0  0  0  3  0  0  0  0  0  0
  189.0650  177.7170  145.0020 C   0  0  0  0  0  0  0  0  0  0  0  0
  188.0350  177.6320  141.6900 C   0  0  0  0  0  2  0  0  0  0  0  0
  191.9840  175.8920  145.2400 O   0  0  0  0  0  0  0  0  0  0  0  0
  190.9860  176.5900  144.9150 C   0  0  0  0  0  0  0  0  0  0  0  0
  190.0170  176.5870  140.5380 C   0  0  2  0  0  3  0  0  0  0  0  0
  188.0030  178.2320  145.4410 O   0  0  0  0  0  0  0  0  0  0  0  0
  1 20  1  0  0  0  0
  2 17  1  1  0  0  0
  2 21  1  0  0  0  0
  3 12  1  6  0  0  0
  3  6  1  0  0  0  0
  3  9  1  0  0  0  0
  5 10  1  0  0  0  0
  6  4  1  6  0  0  0
  6  9  1  0  0  0  0
  6  2  1  0  0  0  0
  7 13  1  0  0  0  0
  7 18  1  0  0  0  0
  8 17  1  0  0  0  0
  9 11  1  0  0  0  0
 10 13  2  0  0  0  0
 11 19  1  0  0  0  0
 11 16  1  0  0  0  0
 12 22  1  0  0  0  0
 13 18  1  0  0  0  0
 15  8  1  0  0  0  0
 16 14  1  0  0  0  0
 18 19  1  0  0  0  0
 19 29  1  0  0  0  0
 20 22  1  0  0  0  0
 20  5  2  0  0  0  0
 21 16  1  0  0  0  0
 22  7  2  0  0  0  0
 23 15  1  0  0  0  0
 23  4  1  0  0  0  0
 24  5  1  0  0  0  0
 25 26  1  0  0  0  0
 25 15  1  0  0  0  0
 26 27  2  0  0  0  0
 28 26  1  0  0  0  0
 29 41  1  0  0  0  0
 30 32  1  0  0  0  0
 30 40  1  0  0  0  0
 32 37  1  0  0  0  0
 33 41  1  0  0  0  0
 33 38  1  0  0  0  0
 34 36  1  0  0  0  0
 35 32  1  0  0  0  0
 36 30  2  0  0  0  0
 37 42  2  0  0  0  0
 37 31  1  0  0  0  0
 38 35  1  0  0  0  0
 40 39  2  0  0  0  0
 40 31  1  0  0  0  0
 41 34  1  0  0  0  0
M  END
>  <MODEL>
6

>  <REMARK>
 VINA RESULT:      -6.4      4.237      8.543
  Name = 
  4 active torsions:
  status: ('A' for Active; 'I' for Inactive)
    1  A    between atoms: C_18  and  C_22
    2  A    between atoms: N_21  and  C_22
    3  A    between atoms: C_29  and  N_34
    4  A    between atoms: C_29  and  C_39
                            x       y       z     vdW  Elec       q    Type
                         _______ _______ _______ _____ _____    ______ ____

>  <TORSDO>
F 4

$$$$
=
 OpenBabel10232411003D

 42 49  0  0  1  0  0  0  0  0999 V2000
  182.2250  176.9220  140.2860 O   0  0  0  0  0  1  0  0  0  0  0  0
  186.0520  173.4280  135.2650 C   0  0  2  0  0  3  0  0  0  0  0  0
  184.3450  175.0830  136.4320 C   0  0  2  0  0  3  0  0  0  0  0  0
  184.4730  172.5920  137.2520 C   0  0  0  0  0  2  0  0  0  0  0  0
  184.1460  178.4730  140.3350 C   0  0  0  0  0  0  0  0  0  0  0  0
  185.0630  173.7270  136.4210 C   0  0  1  0  0  0  0  0  0  0  0  0
  184.8460  177.4790  137.9180 C   0  0  0  0  0  0  0  0  0  0  0  0
  184.3440  171.7790  134.3460 C   0  0  0  0  0  2  0  0  0  0  0  0
  185.5940  174.8600  137.2660 C   0  0  1  0  0  3  0  0  0  0  0  0
  185.3680  179.0320  139.8090 C   0  0  0  0  0  3  0  0  0  0  0  0
  186.6540  175.7110  136.5690 C   0  0  2  0  0  3  0  0  0  0  0  0
  182.9880  175.3900  137.6320 S   0  0  0  0  0  0  0  0  0  0  0  0
  185.6540  178.4700  138.6030 C   0  0  0  0  0  0  0  0  0  0  0  0
  188.2810  175.4180  134.8220 O   0  0  0  0  0  1  0  0  0  0  0  0
  183.8330  171.0120  135.4790 N   0  0  0  0  0  0  0  0  0  0  0  0
  187.7760  174.8390  135.9870 C   0  0  2  0  0  3  0  0  0  0  0  0
  185.8220  172.0840  134.5710 C   0  0  0  0  0  2  0  0  0  0  0  0
  186.0490  177.9460  137.3420 C   0  0  1  0  0  3  0  0  0  0  0  0
  187.1040  176.8790  137.3620 N   0  0  0  0  0  0  0  0  0  0  0  0
  183.3500  177.4340  139.6480 C   0  0  0  0  0  0  0  0  0  0  0  0
  187.3900  173.4900  135.7370 O   0  0  0  0  0  0  0  0  0  0  0  0
  183.6880  176.9130  138.3470 C   0  0  0  0  0  0  0  0  0  0  0  0
  183.3280  171.9420  136.4840 C   0  0  0  0  0  2  0  0  0  0  0  0
  183.6940  178.9620  141.6670 C   0  0  0  0  0  1  0  0  0  0  0  0
  182.6800  170.2600  135.0080 C   0  0  0  0  0  2  0  0  0  0  0  0
  182.8820  168.7940  135.2250 C   0  0  0  0  0  0  0  0  0  0  0  0
  182.0110  167.9140  134.7360 C   0  0  0  0  0  2  0  0  0  0  0  0
  184.1310  168.3120  135.8790 C   0  0  0  0  0  1  0  0  0  0  0  0
  187.5570  176.4530  138.7020 C   0  0  0  0  0  2  0  0  0  0  0  0
  191.9210  176.4220  137.5130 C   0  0  0  0  0  0  0  0  0  0  0  0
  194.1020  175.4970  137.6460 N   0  0  0  0  0  2  0  0  0  0  0  0
  192.4480  176.8020  138.7860 N   0  0  0  0  0  0  0  0  0  0  0  0
  189.4230  177.1610  140.2460 C   0  0  0  0  0  2  0  0  0  0  0  0
  189.6600  177.4600  137.7630 C   0  0  0  0  0  2  0  0  0  0  0  0
  191.8480  177.6290  139.8260 C   0  0  0  0  0  2  0  0  0  0  0  0
  190.7080  176.6940  137.0250 C   0  0  0  0  0  3  0  0  0  0  0  0
  193.7540  176.2260  138.8250 C   0  0  0  0  0  0  0  0  0  0  0  0
  190.8530  176.8130  140.6360 C   0  0  0  0  0  2  0  0  0  0  0  0
  192.8270  175.1260  135.6880 O   0  0  0  0  0  0  0  0  0  0  0  0
  192.9420  175.6380  136.8340 C   0  0  0  0  0  0  0  0  0  0  0  0
  189.0670  176.6040  138.8720 C   0  0  2  0  0  3  0  0  0  0  0  0
  194.5310  176.3450  139.8080 O   0  0  0  0  0  0  0  0  0  0  0  0
  2 17  1  1  0  0  0
  2 21  1  0  0  0  0
  2  6  1  0  0  0  0
  3  9  1  0  0  0  0
  3 12  1  1  0  0  0
  5 24  1  0  0  0  0
  6  3  1  0  0  0  0
  6  4  1  1  0  0  0
  6  9  1  0  0  0  0
  7 22  2  0  0  0  0
  7 13  1  0  0  0  0
  8 17  1  0  0  0  0
  8 15  1  0  0  0  0
 10  5  1  0  0  0  0
 11  9  1  0  0  0  0
 11 19  1  0  0  0  0
 12 22  1  0  0  0  0
 13 10  2  0  0  0  0
 14 16  1  0  0  0  0
 15 23  1  0  0  0  0
 16 11  1  0  0  0  0
 18 19  1  0  0  0  0
 18  7  1  0  0  0  0
 18 13  1  0  0  0  0
 19 29  1  0  0  0  0
 20  1  1  0  0  0  0
 20  5  2  0  0  0  0
 21 16  1  0  0  0  0
 22 20  1  0  0  0  0
 23  4  1  0  0  0  0
 25 26  1  0  0  0  0
 25 15  1  0  0  0  0
 26 28  1  0  0  0  0
 27 26  2  0  0  0  0
 29 41  1  0  0  0  0
 30 32  1  0  0  0  0
 31 37  1  0  0  0  0
 32 37  1  0  0  0  0
 32 35  1  0  0  0  0
 33 38  1  0  0  0  0
 34 41  1  0  0  0  0
 35 38  1  0  0  0  0
 36 30  2  0  0  0  0
 36 34  1  0  0  0  0
 37 42  2  0  0  0  0
 39 40  2  0  0  0  0
 40 30  1  0  0  0  0
 40 31  1  0  0  0  0
 41 33  1  0  0  0  0
M  END
>  <MODEL>
7

>  <REMARK>
 VINA RESULT:      -6.2      3.934      9.903
  Name = 
  4 active torsions:
  status: ('A' for Active; 'I' for Inactive)
    1  A    between atoms: C_18  and  C_22
    2  A    between atoms: N_21  and  C_22
    3  A    between atoms: C_29  and  N_34
    4  A    between atoms: C_29  and  C_39
                            x       y       z     vdW  Elec       q    Type
                         _______ _______ _______ _____ _____    ______ ____

>  <TORSDO>
F 4

$$$$
=
 OpenBabel10232411003D

 42 49  0  0  1  0  0  0  0  0999 V2000
  187.9120  177.2470  142.3710 O   0  0  0  0  0  1  0  0  0  0  0  0
  187.1130  176.7400  135.2180 C   0  0  2  0  0  3  0  0  0  0  0  0
  187.4160  177.7330  137.6540 C   0  0  2  0  0  3  0  0  0  0  0  0
  185.7040  175.7780  137.2740 C   0  0  0  0  0  2  0  0  0  0  0  0
  190.3250  177.0610  141.8790 C   0  0  0  0  0  0  0  0  0  0  0  0
  186.8450  176.6400  136.7410 C   0  0  1  0  0  0  0  0  0  0  0  0
  189.7310  177.7760  139.3370 C   0  0  0  0  0  0  0  0  0  0  0  0
  184.6590  177.3440  134.9120 C   0  0  0  0  0  2  0  0  0  0  0  0
  188.1450  176.4140  137.4740 C   0  0  1  0  0  3  0  0  0  0  0  0
  191.4690  177.0840  141.0000 C   0  0  0  0  0  3  0  0  0  0  0  0
  189.3860  176.7910  136.6690 C   0  0  2  0  0  3  0  0  0  0  0  0
  186.9220  177.7980  139.4230 S   0  0  0  0  0  0  0  0  0  0  0  0
  191.0830  177.4370  139.7430 C   0  0  0  0  0  0  0  0  0  0  0  0
  189.9980  176.9590  134.3480 O   0  0  0  0  0  1  0  0  0  0  0  0
  183.8850  176.4390  135.7570 N   0  0  0  0  0  0  0  0  0  0  0  0
  189.3740  176.1300  135.2810 C   0  0  2  0  0  3  0  0  0  0  0  0
  185.8630  176.5970  134.3470 C   0  0  0  0  0  2  0  0  0  0  0  0
  190.7870  177.7910  138.3990 C   0  0  1  0  0  3  0  0  0  0  0  0
  190.6550  176.6600  137.4220 N   0  0  0  0  0  0  0  0  0  0  0  0
  188.9450  177.3690  141.4470 C   0  0  0  0  0  0  0  0  0  0  0  0
  188.0730  175.7690  134.8250 O   0  0  0  0  0  0  0  0  0  0  0  0
  188.6110  177.7810  140.1070 C   0  0  0  0  0  0  0  0  0  0  0  0
  184.3870  176.5300  137.1240 C   0  0  0  0  0  2  0  0  0  0  0  0
  190.5640  176.6700  143.2950 C   0  0  0  0  0  1  0  0  0  0  0  0
  182.5190  176.9410  135.7920 C   0  0  0  0  0  2  0  0  0  0  0  0
  181.5730  175.8680  136.2300 C   0  0  0  0  0  0  0  0  0  0  0  0
  180.7290  176.0840  137.2350 C   0  0  0  0  0  2  0  0  0  0  0  0
  181.4890  174.6000  135.4530 C   0  0  0  0  0  1  0  0  0  0  0  0
  190.7810  175.3040  137.9940 C   0  0  0  0  0  2  0  0  0  0  0  0
  193.5020  172.1660  136.2020 C   0  0  0  0  0  0  0  0  0  0  0  0
  195.1010  170.4280  136.4330 N   0  0  0  0  0  2  0  0  0  0  0  0
  194.7380  172.7940  136.5470 N   0  0  0  0  0  0  0  0  0  0  0  0
  193.2940  175.5230  137.9160 C   0  0  0  0  0  2  0  0  0  0  0  0
  192.0860  174.2270  136.1360 C   0  0  0  0  0  2  0  0  0  0  0  0
  195.0460  174.2110  136.6980 C   0  0  0  0  0  2  0  0  0  0  0  0
  192.3190  172.7570  136.0080 C   0  0  0  0  0  3  0  0  0  0  0  0
  195.6670  171.7180  136.6770 C   0  0  0  0  0  0  0  0  0  0  0  0
  194.5730  174.7090  138.0540 C   0  0  0  0  0  2  0  0  0  0  0  0
  192.8780  169.8580  135.8580 O   0  0  0  0  0  0  0  0  0  0  0  0
  193.7440  170.7330  136.1310 C   0  0  0  0  0  0  0  0  0  0  0  0
  192.0960  174.6350  137.6020 C   0  0  2  0  0  3  0  0  0  0  0  0
  196.8770  171.8850  136.9830 O   0  0  0  0  0  0  0  0  0  0  0  0
  2 17  1  6  0  0  0
  2  6  1  0  0  0  0
  3 12  1  1  0  0  0
  5 24  1  0  0  0  0
  6  4  1  1  0  0  0
  6  9  1  0  0  0  0
  6  3  1  0  0  0  0
  7 13  2  0  0  0  0
  7 22  1  0  0  0  0
  8 15  1  0  0  0  0
  9  3  1  0  0  0  0
 10  5  2  0  0  0  0
 11 19  1  0  0  0  0
 11  9  1  0  0  0  0
 12 22  1  0  0  0  0
 13 10  1  0  0  0  0
 14 16  1  0  0  0  0
 15 25  1  0  0  0  0
 15 23  1  0  0  0  0
 16 11  1  0  0  0  0
 17  8  1  0  0  0  0
 18  7  1  0  0  0  0
 18 13  1  0  0  0  0
 19 29  1  0  0  0  0
 19 18  1  0  0  0  0
 20  5  1  0  0  0  0
 20  1  1  0  0  0  0
 21  2  1  0  0  0  0
 21 16  1  0  0  0  0
 22 20  2  0  0  0  0
 23  4  1  0  0  0  0
 25 26  1  0  0  0  0
 26 27  2  0  0  0  0
 28 26  1  0  0  0  0
 30 32  1  0  0  0  0
 31 37  1  0  0  0  0
 32 37  1  0  0  0  0
 32 35  1  0  0  0  0
 33 38  1  0  0  0  0
 34 41  1  0  0  0  0
 35 38  1  0  0  0  0
 36 34  1  0  0  0  0
 36 30  2  0  0  0  0
 37 42  2  0  0  0  0
 39 40  2  0  0  0  0
 40 30  1  0  0  0  0
 40 31  1  0  0  0  0
 41 33  1  0  0  0  0
 41 29  1  0  0  0  0
M  END
>  <MODEL>
8

>  <REMARK>
 VINA RESULT:      -6.0      3.692      9.903
  Name = 
  4 active torsions:
  status: ('A' for Active; 'I' for Inactive)
    1  A    between atoms: C_18  and  C_22
    2  A    between atoms: N_21  and  C_22
    3  A    between atoms: C_29  and  N_34
    4  A    between atoms: C_29  and  C_39
                            x       y       z     vdW  Elec       q    Type
                         _______ _______ _______ _____ _____    ______ ____

>  <TORSDO>
F 4

$$$$
=
 OpenBabel10232411003D

 42 49  0  0  1  0  0  0  0  0999 V2000
  180.8070  178.0460  141.9570 O   0  0  0  0  0  1  0  0  0  0  0  0
  186.7490  177.7910  137.8710 C   0  0  2  0  0  3  0  0  0  0  0  0
  184.5400  178.6490  139.0520 C   0  0  2  0  0  3  0  0  0  0  0  0
  184.5840  176.2330  138.0250 C   0  0  0  0  0  2  0  0  0  0  0  0
  182.3470  178.8000  143.7350 C   0  0  0  0  0  0  0  0  0  0  0  0
  185.3400  177.4910  138.4430 C   0  0  1  0  0  0  0  0  0  0  0  0
  184.1030  179.4240  141.7740 C   0  0  0  0  0  0  0  0  0  0  0  0
  185.7790  177.4660  135.5400 C   0  0  0  0  0  2  0  0  0  0  0  0
  185.3390  177.7090  139.9370 C   0  0  1  0  0  3  0  0  0  0  0  0
  183.6070  179.3060  144.2240 C   0  0  0  0  0  3  0  0  0  0  0  0
  186.4920  178.5740  140.4390 C   0  0  2  0  0  3  0  0  0  0  0  0
  182.7790  178.4010  139.5150 S   0  0  0  0  0  0  0  0  0  0  0  0
  184.4340  179.5810  143.1780 C   0  0  0  0  0  0  0  0  0  0  0  0
  188.7250  179.1220  139.7300 O   0  0  0  0  0  1  0  0  0  0  0  0
  184.9260  176.2810  135.5900 N   0  0  0  0  0  0  0  0  0  0  0  0
  187.8440  178.0570  139.9250 C   0  0  2  0  0  3  0  0  0  0  0  0
  186.9810  177.2590  136.4560 C   0  0  0  0  0  2  0  0  0  0  0  0
  185.3770  179.8960  142.1620 C   0  0  1  0  0  3  0  0  0  0  0  0
  186.4360  178.8680  141.8900 N   0  0  0  0  0  0  0  0  0  0  0  0
  182.0330  178.6070  142.3050 C   0  0  0  0  0  0  0  0  0  0  0  0
  187.7500  177.2750  138.7380 O   0  0  0  0  0  0  0  0  0  0  0  0
  182.9420  178.9600  141.2420 C   0  0  0  0  0  0  0  0  0  0  0  0
  183.9470  176.4540  136.6590 C   0  0  0  0  0  2  0  0  0  0  0  0
  181.3260  178.4250  144.7520 C   0  0  0  0  0  1  0  0  0  0  0  0
  184.1690  176.2400  134.3490 C   0  0  0  0  0  2  0  0  0  0  0  0
  183.2230  175.0810  134.3460 C   0  0  0  0  0  0  0  0  0  0  0  0
  183.6810  173.8370  134.4550 C   0  0  0  0  0  2  0  0  0  0  0  0
  181.7540  175.3300  134.3500 C   0  0  0  0  0  1  0  0  0  0  0  0
  186.3280  177.6170  142.6690 C   0  0  0  0  0  2  0  0  0  0  0  0
  190.4360  177.0710  144.4810 C   0  0  0  0  0  0  0  0  0  0  0  0
  191.9800  175.8320  145.7890 N   0  0  0  0  0  2  0  0  0  0  0  0
  190.0460  177.2450  145.8450 N   0  0  0  0  0  0  0  0  0  0  0  0
  186.8090  177.8930  145.1310 C   0  0  0  0  0  2  0  0  0  0  0  0
  188.5920  178.3970  143.4350 C   0  0  0  0  0  2  0  0  0  0  0  0
  188.9620  178.0430  146.4030 C   0  0  0  0  0  2  0  0  0  0  0  0
  189.8300  177.5620  143.3970 C   0  0  0  0  0  3  0  0  0  0  0  0
  190.9950  176.4850  146.5930 C   0  0  0  0  0  0  0  0  0  0  0  0
  187.6400  177.3050  146.2630 C   0  0  0  0  0  2  0  0  0  0  0  0
  192.2330  175.8430  143.4360 O   0  0  0  0  0  0  0  0  0  0  0  0
  191.6140  176.2180  144.4680 C   0  0  0  0  0  0  0  0  0  0  0  0
  187.3850  177.5310  143.7670 C   0  0  2  0  0  3  0  0  0  0  0  0
  190.9700  176.3930  147.8480 O   0  0  0  0  0  0  0  0  0  0  0  0
  1 20  1  0  0  0  0
  2 17  1  6  0  0  0
  2  6  1  0  0  0  0
  2 21  1  0  0  0  0
  3 12  1  1  0  0  0
  3  9  1  0  0  0  0
  5 10  1  0  0  0  0
  5 24  1  0  0  0  0
  6  4  1  6  0  0  0
  6  3  1  0  0  0  0
  6  9  1  0  0  0  0
  7 18  1  0  0  0  0
  7 13  1  0  0  0  0
  8 15  1  0  0  0  0
  8 17  1  0  0  0  0
  9 11  1  0  0  0  0
 11 19  1  0  0  0  0
 12 22  1  0  0  0  0
 13 10  2  0  0  0  0
 14 16  1  0  0  0  0
 15 23  1  0  0  0  0
 16 11  1  0  0  0  0
 18 13  1  0  0  0  0
 19 18  1  0  0  0  0
 19 29  1  0  0  0  0
 20  5  2  0  0  0  0
 21 16  1  0  0  0  0
 22  7  2  0  0  0  0
 22 20  1  0  0  0  0
 23  4  1  0  0  0  0
 25 15  1  0  0  0  0
 26 25  1  0  0  0  0
 26 28  1  0  0  0  0
 26 27  2  0  0  0  0
 29 41  1  0  0  0  0
 30 32  1  0  0  0  0
 31 37  1  0  0  0  0
 32 35  1  0  0  0  0
 32 37  1  0  0  0  0
 33 38  1  0  0  0  0
 34 41  1  0  0  0  0
 36 34  1  0  0  0  0
 36 30  2  0  0  0  0
 37 42  2  0  0  0  0
 38 35  1  0  0  0  0
 39 40  2  0  0  0  0
 40 30  1  0  0  0  0
 40 31  1  0  0  0  0
 41 33  1  0  0  0  0
M  END
>  <MODEL>
9

>  <REMARK>
 VINA RESULT:      -6.0      3.031      9.912
  Name = 
  4 active torsions:
  status: ('A' for Active; 'I' for Inactive)
    1  A    between atoms: C_18  and  C_22
    2  A    between atoms: N_21  and  C_22
    3  A    between atoms: C_29  and  N_34
    4  A    between atoms: C_29  and  C_39
                            x       y       z     vdW  Elec       q    Type
                         _______ _______ _______ _____ _____    ______ ____

>  <TORSDO>
F 4

$$$$
