=
 OpenBabel10232411123D

 54 61  0  0  1  0  0  0  0  0999 V2000
  189.9210  177.2660  142.3330 C   0  0  1  0  0  3  0  0  0  0  0  0
  188.6570  179.4920  138.0190 O   0  0  0  0  0  0  0  0  0  0  0  0
  188.8270  179.1120  141.0960 C   0  0  0  0  0  2  0  0  0  0  0  0
  189.1920  178.5860  138.6410 C   0  0  0  0  0  0  0  0  0  0  0  0
  190.4930  178.0360  138.1020 C   0  0  0  0  0  2  0  0  0  0  0  0
  189.9210  176.5430  140.9810 C   0  0  1  0  0  3  0  0  0  0  0  0
  190.9700  176.7170  138.7010 C   0  0  2  0  0  3  0  0  0  0  0  0
  188.7360  176.7660  140.2290 O   0  0  0  0  0  0  0  0  0  0  0  0
  191.1980  176.8610  140.2010 C   0  0  0  0  0  2  0  0  0  0  0  0
  188.8500  178.3550  142.4110 C   0  0  0  0  0  2  0  0  0  0  0  0
  188.5500  178.1420  139.9350 C   0  0  1  0  0  3  0  0  0  0  0  0
  189.3890  176.8930  144.7260 N   0  0  0  0  0  0  0  0  0  0  0  0
  188.3500  177.7160  146.5270 C   0  0  0  0  0  0  0  0  0  0  0  0
  190.2770  176.9650  145.6910 C   0  0  0  0  0  0  0  0  0  0  0  0
  187.0490  177.3010  144.4210 C   0  0  0  0  0  3  0  0  0  0  0  0
  186.0950  178.4330  147.1360 N   0  0  0  0  0  0  0  0  0  0  0  0
  191.6120  176.4340  145.3330 C   0  0  2  0  0  3  0  0  0  0  0  0
  189.7010  177.4820  146.8260 C   0  0  0  0  0  0  0  0  0  0  0  0
  187.4040  178.2230  147.4280 C   0  0  0  0  0  0  0  0  0  0  0  0
  191.3560  175.9130  143.8970 C   0  0  0  0  0  2  0  0  0  0  0  0
  187.7810  178.5100  148.5950 O   0  0  0  0  0  0  0  0  0  0  0  0
  185.3620  178.2290  146.0150 C   0  0  0  0  0  3  0  0  0  0  0  0
  188.1950  177.3150  145.1930 C   0  0  0  0  0  0  0  0  0  0  0  0
  185.7850  177.7150  144.7940 C   0  0  0  0  0  3  0  0  0  0  0  0
  189.9030  176.2880  143.5160 C   0  0  2  0  0  3  0  0  0  0  0  0
  190.3430  177.7090  148.0390 O   0  0  0  0  0  1  0  0  0  0  0  0
  191.9930  175.2600  146.2230 C   0  0  0  0  0  2  0  0  0  0  0  0
  192.7030  175.7570  147.4680 C   0  0  0  0  0  1  0  0  0  0  0  0
  193.3760  176.5370  138.7230 O   0  0  0  0  0  1  0  0  0  0  0  0
  192.2320  176.2520  137.9760 C   0  0  1  0  0  3  0  0  0  0  0  0
  192.1660  174.7530  137.6620 C   0  0  0  0  0  2  0  0  0  0  0  0
  190.8470  176.0150  134.8000 C   0  0  0  0  0  1  0  0  0  0  0  0
  190.4470  175.6050  136.2060 C   0  0  2  0  0  3  0  0  0  0  0  0
  188.0650  176.0330  135.9090 N   0  0  0  0  0  0  0  0  0  0  0  0
  191.2050  174.4190  136.6020 N   0  0  0  0  0  0  0  0  0  0  0  0
  189.0230  175.2180  136.2470 C   0  0  0  0  0  0  0  0  0  0  0  0
  188.8500  173.8310  136.7160 C   0  0  0  0  0  2  0  0  0  0  0  0
  190.2560  173.4100  137.0980 C   0  0  0  0  0  2  0  0  0  0  0  0
  184.2060  175.4490  135.5350 N   0  0  0  0  0  0  0  0  0  0  0  0
  186.0090  175.3070  137.0200 N   0  0  0  0  0  0  0  0  0  0  0  0
  185.5460  175.9630  134.6980 S   0  0  0  0  0  0  0  0  0  0  0  0
  184.6720  175.1330  136.7790 C   0  0  0  0  0  0  0  0  0  0  0  0
  186.6530  175.7800  135.9330 C   0  0  0  0  0  0  0  0  0  0  0  0
  183.7460  174.6690  137.8510 C   0  0  0  0  0  2  0  0  0  0  0  0
  182.2920  174.8280  137.4170 C   0  0  0  0  0  2  0  0  0  0  0  0
  181.5090  175.6520  138.4280 C   0  0  0  0  0  2  0  0  0  0  0  0
  182.4240  176.0930  139.5770 C   0  0  0  0  0  2  0  0  0  0  0  0
  182.4970  177.5510  139.7360 N   0  0  0  0  0  0  0  0  0  0  0  0
  185.4090  178.6320  138.0730 C   0  0  0  0  0  1  0  0  0  0  0  0
  185.2530  179.3470  140.9650 O   0  0  0  0  0  0  0  0  0  0  0  0
  184.1880  179.0780  138.8570 C   0  0  1  0  0  3  0  0  0  0  0  0
  183.0110  178.1810  138.5080 C   0  0  0  0  0  2  0  0  0  0  0  0
  183.3980  177.8760  140.8420 C   0  0  0  0  0  2  0  0  0  0  0  0
  184.3800  178.8200  140.2920 C   0  0  0  0  0  0  0  0  0  0  0  0
  1 10  1  6  0  0  0
  1 25  1  0  0  0  0
  2  4  2  0  0  0  0
  3 10  1  0  0  0  0
  4 11  1  0  0  0  0
  5  4  1  0  0  0  0
  5  7  1  0  0  0  0
  6  9  1  6  0  0  0
  6  1  1  0  0  0  0
  7 30  1  6  0  0  0
  7  9  1  0  0  0  0
  8  6  1  0  0  0  0
 11  8  1  0  0  0  0
 11  3  1  1  0  0  0
 12 23  1  0  0  0  0
 12 14  1  0  0  0  0
 13 18  1  0  0  0  0
 13 19  1  0  0  0  0
 14 18  2  0  0  0  0
 15 24  2  0  0  0  0
 15 23  1  0  0  0  0
 16 19  1  0  0  0  0
 17 14  1  0  0  0  0
 17 27  1  1  0  0  0
 18 26  1  0  0  0  0
 19 21  2  0  0  0  0
 20 17  1  0  0  0  0
 22 16  2  0  0  0  0
 23 13  2  0  0  0  0
 24 22  1  0  0  0  0
 25 20  1  1  0  0  0
 25 12  1  0  0  0  0
 27 28  1  0  0  0  0
 30 29  1  1  0  0  0
 31 30  1  0  0  0  0
 33 32  1  6  0  0  0
 33 36  1  0  0  0  0
 33 35  1  0  0  0  0
 34 43  1  0  0  0  0
 34 36  2  0  0  0  0
 35 38  1  0  0  0  0
 35 31  1  0  0  0  0
 36 37  1  0  0  0  0
 37 38  1  0  0  0  0
 39 42  2  0  0  0  0
 41 39  1  0  0  0  0
 41 43  1  0  0  0  0
 42 40  1  0  0  0  0
 42 44  1  0  0  0  0
 43 40  2  0  0  0  0
 45 44  1  0  0  0  0
 45 46  1  0  0  0  0
 46 47  1  0  0  0  0
 47 48  1  0  0  0  0
 48 53  1  0  0  0  0
 51 49  1  6  0  0  0
 51 54  1  0  0  0  0
 52 51  1  0  0  0  0
 52 48  1  0  0  0  0
 54 53  1  0  0  0  0
 54 50  2  0  0  0  0
M  END
>  <MODEL>
1

>  <REMARK>
 VINA RESULT:      -9.6      0.000      0.000
  Name = 
  11 active torsions:
  status: ('A' for Active; 'I' for Inactive)
    1  A    between atoms: C_4  and  N_16
    2  A    between atoms: C_4  and  C_25
    3  A    between atoms: C_6  and  C_52
    4  A    between atoms: C_9  and  C_15
    5  A    between atoms: C_17  and  C_23
    6  A    between atoms: C_17  and  C_35
    7  A    between atoms: C_18  and  N_33
    8  A    between atoms: C_18  and  C_36
    9  A    between atoms: C_23  and  C_25
   10  A    between atoms: N_31  and  C_37
   11  A    between atoms: C_32  and  C_36
                            x       y       z     vdW  Elec       q    Type
                         _______ _______ _______ _____ _____    ______ ____

>  <TORSDO>
F 11

$$$$
=
 OpenBabel10232411123D

 54 61  0  0  1  0  0  0  0  0999 V2000
  189.4380  173.9960  135.0730 C   0  0  1  0  0  3  0  0  0  0  0  0
  193.0850  175.4870  138.1780 O   0  0  0  0  0  0  0  0  0  0  0  0
  191.7800  173.8700  135.8710 C   0  0  0  0  0  2  0  0  0  0  0  0
  191.9320  175.5390  137.7760 C   0  0  0  0  0  0  0  0  0  0  0  0
  191.2610  176.8930  137.7390 C   0  0  0  0  0  2  0  0  0  0  0  0
  189.1720  174.7330  136.3910 C   0  0  1  0  0  3  0  0  0  0  0  0
  189.7490  176.8940  137.5430 C   0  0  2  0  0  3  0  0  0  0  0  0
  189.8960  174.1910  137.4870 O   0  0  0  0  0  0  0  0  0  0  0  0
  189.3800  176.2380  136.2170 C   0  0  0  0  0  2  0  0  0  0  0  0
  190.6860  173.1140  135.1400 C   0  0  0  0  0  2  0  0  0  0  0  0
  191.2990  174.2600  137.2800 C   0  0  1  0  0  3  0  0  0  0  0  0
  186.9990  173.6100  135.2980 N   0  0  0  0  0  0  0  0  0  0  0  0
  185.1080  174.3220  136.2560 C   0  0  0  0  0  0  0  0  0  0  0  0
  186.4780  172.5890  135.9380 C   0  0  0  0  0  0  0  0  0  0  0  0
  186.4470  175.8940  134.8300 C   0  0  0  0  0  3  0  0  0  0  0  0
  183.8120  176.3890  136.3710 N   0  0  0  0  0  0  0  0  0  0  0  0
  187.2240  171.3210  135.7740 C   0  0  2  0  0  3  0  0  0  0  0  0
  185.3150  172.9680  136.5640 C   0  0  0  0  0  0  0  0  0  0  0  0
  184.0140  175.0850  136.6870 C   0  0  0  0  0  0  0  0  0  0  0  0
  188.3380  171.7500  134.7880 C   0  0  0  0  0  2  0  0  0  0  0  0
  183.1500  174.5340  137.4180 O   0  0  0  0  0  0  0  0  0  0  0  0
  184.5120  177.2690  135.6140 C   0  0  0  0  0  3  0  0  0  0  0  0
  186.1890  174.6810  135.4410 C   0  0  0  0  0  0  0  0  0  0  0  0
  185.6930  177.0490  134.9150 C   0  0  0  0  0  3  0  0  0  0  0  0
  188.1910  173.2730  134.5490 C   0  0  2  0  0  3  0  0  0  0  0  0
  184.5010  172.1500  137.3420 O   0  0  0  0  0  1  0  0  0  0  0  0
  186.3610  170.2570  135.1110 C   0  0  0  0  0  2  0  0  0  0  0  0
  187.0670  168.9150  135.1460 C   0  0  0  0  0  1  0  0  0  0  0  0
  188.0300  178.4690  136.9220 O   0  0  0  0  0  1  0  0  0  0  0  0
  189.2200  178.3240  137.6360 C   0  0  1  0  0  3  0  0  0  0  0  0
  189.0140  178.7420  139.0960 C   0  0  0  0  0  2  0  0  0  0  0  0
  185.6650  178.2040  139.2310 C   0  0  0  0  0  1  0  0  0  0  0  0
  186.8160  178.7190  140.0790 C   0  0  2  0  0  3  0  0  0  0  0  0
  185.4860  179.0730  142.0920 N   0  0  0  0  0  0  0  0  0  0  0  0
  188.0150  177.9290  139.8030 N   0  0  0  0  0  0  0  0  0  0  0  0
  186.5220  178.5360  141.5140 C   0  0  0  0  0  0  0  0  0  0  0  0
  187.5390  177.6960  142.1740 C   0  0  0  0  0  2  0  0  0  0  0  0
  188.5710  177.4710  141.0850 C   0  0  0  0  0  2  0  0  0  0  0  0
  184.0450  178.8820  145.7330 N   0  0  0  0  0  0  0  0  0  0  0  0
  186.0060  178.7600  144.4630 N   0  0  0  0  0  0  0  0  0  0  0  0
  183.5940  179.1100  144.1500 S   0  0  0  0  0  0  0  0  0  0  0  0
  185.3970  178.7040  145.6890 C   0  0  0  0  0  0  0  0  0  0  0  0
  185.1150  178.9890  143.4750 C   0  0  0  0  0  0  0  0  0  0  0  0
  186.1880  178.5140  146.9380 C   0  0  0  0  0  2  0  0  0  0  0  0
  187.1280  177.3190  146.8070 C   0  0  0  0  0  2  0  0  0  0  0  0
  188.5770  177.7460  146.9900 C   0  0  0  0  0  2  0  0  0  0  0  0
  189.1170  178.3650  145.6950 C   0  0  0  0  0  2  0  0  0  0  0  0
  190.5550  178.1420  145.4980 N   0  0  0  0  0  0  0  0  0  0  0  0
  190.8890  175.4270  143.2780 C   0  0  0  0  0  1  0  0  0  0  0  0
  192.2350  175.0870  145.9180 O   0  0  0  0  0  0  0  0  0  0  0  0
  191.6390  176.4730  144.0810 C   0  0  1  0  0  3  0  0  0  0  0  0
  190.8340  177.7630  144.1020 C   0  0  0  0  0  2  0  0  0  0  0  0
  191.0050  177.0610  146.3750 C   0  0  0  0  0  2  0  0  0  0  0  0
  191.6810  176.0940  145.5020 C   0  0  0  0  0  0  0  0  0  0  0  0
  1 10  1  1  0  0  0
  1  6  1  0  0  0  0
  4  2  2  0  0  0  0
  5  4  1  0  0  0  0
  6  9  1  6  0  0  0
  6  8  1  0  0  0  0
  7 30  1  6  0  0  0
  7  5  1  0  0  0  0
  9  7  1  0  0  0  0
 10  3  1  0  0  0  0
 11  3  1  6  0  0  0
 11  8  1  0  0  0  0
 11  4  1  0  0  0  0
 12 23  1  0  0  0  0
 12 14  1  0  0  0  0
 13 18  1  0  0  0  0
 13 19  1  0  0  0  0
 14 18  2  0  0  0  0
 15 24  2  0  0  0  0
 15 23  1  0  0  0  0
 16 19  1  0  0  0  0
 17 27  1  6  0  0  0
 17 14  1  0  0  0  0
 18 26  1  0  0  0  0
 19 21  2  0  0  0  0
 20 17  1  0  0  0  0
 22 16  2  0  0  0  0
 23 13  2  0  0  0  0
 24 22  1  0  0  0  0
 25 20  1  1  0  0  0
 25  1  1  0  0  0  0
 25 12  1  0  0  0  0
 27 28  1  0  0  0  0
 30 29  1  6  0  0  0
 30 31  1  0  0  0  0
 31 35  1  0  0  0  0
 33 32  1  6  0  0  0
 33 36  1  0  0  0  0
 34 43  1  0  0  0  0
 35 33  1  0  0  0  0
 35 38  1  0  0  0  0
 36 34  2  0  0  0  0
 36 37  1  0  0  0  0
 38 37  1  0  0  0  0
 40 42  1  0  0  0  0
 41 39  1  0  0  0  0
 42 39  2  0  0  0  0
 42 44  1  0  0  0  0
 43 41  1  0  0  0  0
 43 40  2  0  0  0  0
 45 44  1  0  0  0  0
 45 46  1  0  0  0  0
 47 46  1  0  0  0  0
 48 47  1  0  0  0  0
 48 53  1  0  0  0  0
 51 49  1  6  0  0  0
 51 52  1  0  0  0  0
 51 54  1  0  0  0  0
 52 48  1  0  0  0  0
 54 50  2  0  0  0  0
 54 53  1  0  0  0  0
M  END
>  <MODEL>
2

>  <REMARK>
 VINA RESULT:      -9.2      2.845      9.136
  Name = 
  11 active torsions:
  status: ('A' for Active; 'I' for Inactive)
    1  A    between atoms: C_4  and  N_16
    2  A    between atoms: C_4  and  C_25
    3  A    between atoms: C_6  and  C_52
    4  A    between atoms: C_9  and  C_15
    5  A    between atoms: C_17  and  C_23
    6  A    between atoms: C_17  and  C_35
    7  A    between atoms: C_18  and  N_33
    8  A    between atoms: C_18  and  C_36
    9  A    between atoms: C_23  and  C_25
   10  A    between atoms: N_31  and  C_37
   11  A    between atoms: C_32  and  C_36
                            x       y       z     vdW  Elec       q    Type
                         _______ _______ _______ _____ _____    ______ ____

>  <TORSDO>
F 11

$$$$
=
 OpenBabel10232411123D

 54 61  0  0  1  0  0  0  0  0999 V2000
  186.0990  176.9330  136.7070 C   0  0  1  0  0  3  0  0  0  0  0  0
  190.5150  176.4170  134.3850 O   0  0  0  0  0  0  0  0  0  0  0  0
  187.5080  177.1300  134.6790 C   0  0  0  0  0  2  0  0  0  0  0  0
  189.8090  176.3230  135.3780 C   0  0  0  0  0  0  0  0  0  0  0  0
  190.4290  176.6610  136.7150 C   0  0  0  0  0  2  0  0  0  0  0  0
  187.2360  176.0560  137.2450 C   0  0  1  0  0  3  0  0  0  0  0  0
  189.6440  176.2380  137.9510 C   0  0  2  0  0  3  0  0  0  0  0  0
  187.8020  175.2080  136.2550 O   0  0  0  0  0  0  0  0  0  0  0  0
  188.2750  176.9090  137.9730 C   0  0  0  0  0  2  0  0  0  0  0  0
  186.0810  176.9900  135.1790 C   0  0  0  0  0  2  0  0  0  0  0  0
  188.3590  175.9500  135.1810 C   0  0  1  0  0  3  0  0  0  0  0  0
  184.0110  175.6050  136.5520 N   0  0  0  0  0  0  0  0  0  0  0  0
  182.9860  173.9090  135.5150 C   0  0  0  0  0  0  0  0  0  0  0  0
  182.8850  176.0700  136.0620 C   0  0  0  0  0  0  0  0  0  0  0  0
  185.1600  173.5090  136.7040 C   0  0  0  0  0  3  0  0  0  0  0  0
  183.3840  171.5310  135.1240 N   0  0  0  0  0  0  0  0  0  0  0  0
  182.6140  177.4870  136.3940 C   0  0  2  0  0  3  0  0  0  0  0  0
  182.2120  175.0740  135.3960 C   0  0  0  0  0  0  0  0  0  0  0  0
  182.6380  172.6570  134.9900 C   0  0  0  0  0  0  0  0  0  0  0  0
  183.8200  177.8210  137.3050 C   0  0  0  0  0  2  0  0  0  0  0  0
  181.5610  172.5550  134.3460 O   0  0  0  0  0  0  0  0  0  0  0  0
  184.5600  171.2780  135.7480 C   0  0  0  0  0  3  0  0  0  0  0  0
  184.1060  174.2880  136.2670 C   0  0  0  0  0  0  0  0  0  0  0  0
  185.3580  172.1620  136.4640 C   0  0  0  0  0  3  0  0  0  0  0  0
  184.7440  176.5780  137.3330 C   0  0  2  0  0  3  0  0  0  0  0  0
  180.9910  175.2060  134.7430 O   0  0  0  0  0  1  0  0  0  0  0  0
  181.3320  177.6260  137.2030 C   0  0  0  0  0  2  0  0  0  0  0  0
  181.3400  178.9320  137.9750 C   0  0  0  0  0  1  0  0  0  0  0  0
  191.0400  177.8190  139.1220 O   0  0  0  0  0  1  0  0  0  0  0  0
  190.4530  176.5560  139.2070 C   0  0  1  0  0  3  0  0  0  0  0  0
  189.5800  176.4640  140.4640 C   0  0  0  0  0  2  0  0  0  0  0  0
  191.7800  176.3130  143.0450 C   0  0  0  0  0  1  0  0  0  0  0  0
  190.2920  176.4290  142.7640 C   0  0  2  0  0  3  0  0  0  0  0  0
  189.6270  176.6470  145.1000 N   0  0  0  0  0  0  0  0  0  0  0  0
  190.0820  177.2690  141.5860 N   0  0  0  0  0  0  0  0  0  0  0  0
  189.6060  177.1070  143.8820 C   0  0  0  0  0  0  0  0  0  0  0  0
  188.9140  178.3290  143.4330 C   0  0  0  0  0  2  0  0  0  0  0  0
  189.0960  178.3060  141.9280 C   0  0  0  0  0  2  0  0  0  0  0  0
  188.2550  178.1140  148.4680 N   0  0  0  0  0  0  0  0  0  0  0  0
  187.7110  177.6590  146.2380 N   0  0  0  0  0  0  0  0  0  0  0  0
  189.6060  177.4290  147.7840 S   0  0  0  0  0  0  0  0  0  0  0  0
  187.3370  178.1550  147.4590 C   0  0  0  0  0  0  0  0  0  0  0  0
  188.9800  177.2010  146.2550 C   0  0  0  0  0  0  0  0  0  0  0  0
  185.9580  178.6700  147.6960 C   0  0  0  0  0  2  0  0  0  0  0  0
  185.4580  179.4570  146.4890 C   0  0  0  0  0  2  0  0  0  0  0  0
  184.3650  178.6940  145.7560 C   0  0  0  0  0  2  0  0  0  0  0  0
  184.8520  178.2690  144.3660 C   0  0  0  0  0  2  0  0  0  0  0  0
  184.5070  179.2270  143.3090 N   0  0  0  0  0  0  0  0  0  0  0  0
  183.1660  177.3760  140.6280 C   0  0  0  0  0  1  0  0  0  0  0  0
  185.5430  179.0490  139.9580 O   0  0  0  0  0  0  0  0  0  0  0  0
  183.4950  178.7680  141.1340 C   0  0  1  0  0  3  0  0  0  0  0  0
  183.2600  178.8270  142.6350 C   0  0  0  0  0  2  0  0  0  0  0  0
  185.5820  179.2680  142.3180 C   0  0  0  0  0  2  0  0  0  0  0  0
  184.9390  179.0240  141.0210 C   0  0  0  0  0  0  0  0  0  0  0  0
  1 10  1  6  0  0  0
  1  6  1  0  0  0  0
  1 25  1  0  0  0  0
  2  4  2  0  0  0  0
  3 10  1  0  0  0  0
  4  5  1  0  0  0  0
  5  7  1  0  0  0  0
  6  9  1  6  0  0  0
  7  9  1  0  0  0  0
  7 30  1  1  0  0  0
  8  6  1  0  0  0  0
 11  3  1  1  0  0  0
 11  4  1  0  0  0  0
 11  8  1  0  0  0  0
 12 25  1  0  0  0  0
 13 23  2  0  0  0  0
 14 17  1  0  0  0  0
 14 12  1  0  0  0  0
 16 22  2  0  0  0  0
 17 27  1  1  0  0  0
 17 20  1  0  0  0  0
 18 13  1  0  0  0  0
 18 14  2  0  0  0  0
 19 16  1  0  0  0  0
 19 13  1  0  0  0  0
 21 19  2  0  0  0  0
 22 24  1  0  0  0  0
 23 12  1  0  0  0  0
 23 15  1  0  0  0  0
 24 15  2  0  0  0  0
 25 20  1  6  0  0  0
 26 18  1  0  0  0  0
 27 28  1  0  0  0  0
 30 29  1  6  0  0  0
 30 31  1  0  0  0  0
 31 35  1  0  0  0  0
 33 32  1  1  0  0  0
 33 36  1  0  0  0  0
 34 43  1  0  0  0  0
 35 38  1  0  0  0  0
 35 33  1  0  0  0  0
 36 34  2  0  0  0  0
 37 36  1  0  0  0  0
 38 37  1  0  0  0  0
 40 43  2  0  0  0  0
 40 42  1  0  0  0  0
 41 39  1  0  0  0  0
 42 44  1  0  0  0  0
 42 39  2  0  0  0  0
 43 41  1  0  0  0  0
 45 44  1  0  0  0  0
 46 45  1  0  0  0  0
 47 46  1  0  0  0  0
 48 47  1  0  0  0  0
 50 54  2  0  0  0  0
 51 49  1  1  0  0  0
 51 52  1  0  0  0  0
 52 48  1  0  0  0  0
 53 48  1  0  0  0  0
 54 51  1  0  0  0  0
 54 53  1  0  0  0  0
M  END
>  <MODEL>
3

>  <REMARK>
 VINA RESULT:      -9.2      3.322      9.233
  Name = 
  11 active torsions:
  status: ('A' for Active; 'I' for Inactive)
    1  A    between atoms: C_4  and  N_16
    2  A    between atoms: C_4  and  C_25
    3  A    between atoms: C_6  and  C_52
    4  A    between atoms: C_9  and  C_15
    5  A    between atoms: C_17  and  C_23
    6  A    between atoms: C_17  and  C_35
    7  A    between atoms: C_18  and  N_33
    8  A    between atoms: C_18  and  C_36
    9  A    between atoms: C_23  and  C_25
   10  A    between atoms: N_31  and  C_37
   11  A    between atoms: C_32  and  C_36
                            x       y       z     vdW  Elec       q    Type
                         _______ _______ _______ _____ _____    ______ ____

>  <TORSDO>
F 11

$$$$
=
 OpenBabel10232411123D

 54 61  0  0  1  0  0  0  0  0999 V2000
  186.4350  173.6760  134.7030 C   0  0  1  0  0  3  0  0  0  0  0  0
  190.3650  175.5230  137.2160 O   0  0  0  0  0  0  0  0  0  0  0  0
  188.8810  173.8910  135.0310 C   0  0  0  0  0  2  0  0  0  0  0  0
  189.1600  175.4070  137.0450 C   0  0  0  0  0  0  0  0  0  0  0  0
  188.2970  176.6250  137.2840 C   0  0  0  0  0  2  0  0  0  0  0  0
  186.3330  174.2510  136.1220 C   0  0  1  0  0  3  0  0  0  0  0  0
  186.7940  176.3830  137.3760 C   0  0  2  0  0  3  0  0  0  0  0  0
  187.3380  173.7580  136.9960 O   0  0  0  0  0  0  0  0  0  0  0  0
  186.2690  175.7780  136.0790 C   0  0  0  0  0  2  0  0  0  0  0  0
  187.7900  173.0180  134.4380 C   0  0  0  0  0  2  0  0  0  0  0  0
  188.6420  174.0820  136.5380 C   0  0  1  0  0  3  0  0  0  0  0  0
  184.0490  173.1340  135.1060 N   0  0  0  0  0  0  0  0  0  0  0  0
  182.1470  173.8170  136.0620 C   0  0  0  0  0  0  0  0  0  0  0  0
  183.6440  172.1710  135.9010 C   0  0  0  0  0  0  0  0  0  0  0  0
  183.2860  175.2830  134.3730 C   0  0  0  0  0  3  0  0  0  0  0  0
  180.6860  175.7730  135.9750 N   0  0  0  0  0  0  0  0  0  0  0  0
  184.4880  170.9550  135.8660 C   0  0  2  0  0  3  0  0  0  0  0  0
  182.4810  172.5380  136.5340 C   0  0  0  0  0  0  0  0  0  0  0  0
  181.0110  174.5430  136.4470 C   0  0  0  0  0  0  0  0  0  0  0  0
  185.5190  171.3320  134.7740 C   0  0  0  0  0  2  0  0  0  0  0  0
  180.2280  174.0300  137.2890 O   0  0  0  0  0  0  0  0  0  0  0  0
  181.2760  176.5950  135.0730 C   0  0  0  0  0  3  0  0  0  0  0  0
  183.1580  174.1480  135.1510 C   0  0  0  0  0  0  0  0  0  0  0  0
  182.4410  176.3760  134.3460 C   0  0  0  0  0  3  0  0  0  0  0  0
  185.2320  172.7930  134.3460 C   0  0  2  0  0  3  0  0  0  0  0  0
  181.7720  171.7720  137.4540 O   0  0  0  0  0  1  0  0  0  0  0  0
  183.6910  169.7470  135.3950 C   0  0  0  0  0  2  0  0  0  0  0  0
  184.5660  168.8400  134.5500 C   0  0  0  0  0  1  0  0  0  0  0  0
  186.7190  178.7820  137.1310 O   0  0  0  0  0  1  0  0  0  0  0  0
  186.0840  177.6900  137.7230 C   0  0  1  0  0  3  0  0  0  0  0  0
  184.6100  177.6440  137.3030 C   0  0  0  0  0  2  0  0  0  0  0  0
  183.5010  180.4070  138.9350 C   0  0  0  0  0  1  0  0  0  0  0  0
  184.2670  179.1180  139.1770 C   0  0  2  0  0  3  0  0  0  0  0  0
  184.5210  179.4410  141.5800 N   0  0  0  0  0  0  0  0  0  0  0  0
  183.6840  178.0460  138.3710 N   0  0  0  0  0  0  0  0  0  0  0  0
  184.1360  178.6940  140.5850 C   0  0  0  0  0  0  0  0  0  0  0  0
  183.5370  177.3520  140.6950 C   0  0  0  0  0  2  0  0  0  0  0  0
  183.4210  176.8980  139.2520 C   0  0  0  0  0  2  0  0  0  0  0  0
  183.9760  178.7890  145.4080 N   0  0  0  0  0  0  0  0  0  0  0  0
  185.4070  178.3830  143.6020 N   0  0  0  0  0  0  0  0  0  0  0  0
  183.2990  179.5450  144.0920 S   0  0  0  0  0  0  0  0  0  0  0  0
  185.1160  178.2110  144.9290 C   0  0  0  0  0  0  0  0  0  0  0  0
  184.4690  179.1270  142.9790 C   0  0  0  0  0  0  0  0  0  0  0  0
  186.0380  177.4670  145.8340 C   0  0  0  0  0  2  0  0  0  0  0  0
  187.0860  178.4040  146.4290 C   0  0  0  0  0  2  0  0  0  0  0  0
  188.4210  177.6930  146.5910 C   0  0  0  0  0  2  0  0  0  0  0  0
  189.3060  177.9370  145.3620 C   0  0  0  0  0  2  0  0  0  0  0  0
  189.3480  176.7950  144.4390 N   0  0  0  0  0  0  0  0  0  0  0  0
  191.8780  177.4600  142.0800 C   0  0  0  0  0  1  0  0  0  0  0  0
  189.1650  176.9780  140.9370 O   0  0  0  0  0  0  0  0  0  0  0  0
  190.8420  176.4510  142.5380 C   0  0  1  0  0  3  0  0  0  0  0  0
  190.7360  176.4910  144.0550 C   0  0  0  0  0  2  0  0  0  0  0  0
  188.5870  177.1160  143.2320 C   0  0  0  0  0  2  0  0  0  0  0  0
  189.4980  176.8660  142.1080 C   0  0  0  0  0  0  0  0  0  0  0  0
  1 10  1  1  0  0  0
  1  6  1  0  0  0  0
  4  2  2  0  0  0  0
  4  5  1  0  0  0  0
  5  7  1  0  0  0  0
  6  9  1  6  0  0  0
  6  8  1  0  0  0  0
  7 30  1  6  0  0  0
  9  7  1  0  0  0  0
 10  3  1  0  0  0  0
 11  3  1  6  0  0  0
 11  8  1  0  0  0  0
 11  4  1  0  0  0  0
 12 23  1  0  0  0  0
 12 14  1  0  0  0  0
 13 19  1  0  0  0  0
 13 18  1  0  0  0  0
 14 18  2  0  0  0  0
 15 23  1  0  0  0  0
 16 19  1  0  0  0  0
 17 27  1  6  0  0  0
 17 14  1  0  0  0  0
 18 26  1  0  0  0  0
 19 21  2  0  0  0  0
 20 17  1  0  0  0  0
 22 16  2  0  0  0  0
 23 13  2  0  0  0  0
 24 15  2  0  0  0  0
 24 22  1  0  0  0  0
 25  1  1  0  0  0  0
 25 20  1  1  0  0  0
 25 12  1  0  0  0  0
 28 27  1  0  0  0  0
 30 29  1  6  0  0  0
 31 30  1  0  0  0  0
 31 35  1  0  0  0  0
 33 32  1  1  0  0  0
 33 36  1  0  0  0  0
 34 43  1  0  0  0  0
 35 33  1  0  0  0  0
 35 38  1  0  0  0  0
 36 37  1  0  0  0  0
 36 34  2  0  0  0  0
 38 37  1  0  0  0  0
 40 42  1  0  0  0  0
 41 39  1  0  0  0  0
 42 39  2  0  0  0  0
 42 44  1  0  0  0  0
 43 40  2  0  0  0  0
 43 41  1  0  0  0  0
 44 45  1  0  0  0  0
 45 46  1  0  0  0  0
 47 46  1  0  0  0  0
 48 47  1  0  0  0  0
 50 54  2  0  0  0  0
 51 49  1  6  0  0  0
 51 52  1  0  0  0  0
 52 48  1  0  0  0  0
 53 48  1  0  0  0  0
 54 51  1  0  0  0  0
 54 53  1  0  0  0  0
M  END
>  <MODEL>
4

>  <REMARK>
 VINA RESULT:      -8.8      3.284      9.690
  Name = 
  11 active torsions:
  status: ('A' for Active; 'I' for Inactive)
    1  A    between atoms: C_4  and  N_16
    2  A    between atoms: C_4  and  C_25
    3  A    between atoms: C_6  and  C_52
    4  A    between atoms: C_9  and  C_15
    5  A    between atoms: C_17  and  C_23
    6  A    between atoms: C_17  and  C_35
    7  A    between atoms: C_18  and  N_33
    8  A    between atoms: C_18  and  C_36
    9  A    between atoms: C_23  and  C_25
   10  A    between atoms: N_31  and  C_37
   11  A    between atoms: C_32  and  C_36
                            x       y       z     vdW  Elec       q    Type
                         _______ _______ _______ _____ _____    ______ ____

>  <TORSDO>
F 11

$$$$
=
 OpenBabel10232411123D

 54 61  0  0  1  0  0  0  0  0999 V2000
  184.8110  175.7900  135.3750 C   0  0  1  0  0  3  0  0  0  0  0  0
  187.3780  171.6760  136.6600 O   0  0  0  0  0  0  0  0  0  0  0  0
  185.0700  173.3270  135.4000 C   0  0  0  0  0  2  0  0  0  0  0  0
  187.2380  172.8900  136.6430 C   0  0  0  0  0  0  0  0  0  0  0  0
  188.4770  173.7370  136.4600 C   0  0  0  0  0  2  0  0  0  0  0  0
  185.8910  175.7770  136.4640 C   0  0  1  0  0  3  0  0  0  0  0  0
  188.3290  175.2260  136.7570 C   0  0  2  0  0  3  0  0  0  0  0  0
  185.7470  174.7000  137.3790 O   0  0  0  0  0  0  0  0  0  0  0  0
  187.2850  175.8540  135.8400 C   0  0  0  0  0  2  0  0  0  0  0  0
  184.0660  174.4590  135.2790 C   0  0  0  0  0  2  0  0  0  0  0  0
  185.8340  173.4400  136.7300 C   0  0  1  0  0  3  0  0  0  0  0  0
  183.4800  177.2790  136.8450 N   0  0  0  0  0  0  0  0  0  0  0  0
  183.0560  177.8710  138.9590 C   0  0  0  0  0  0  0  0  0  0  0  0
  182.1870  177.1510  137.0350 C   0  0  0  0  0  0  0  0  0  0  0  0
  185.3980  178.0260  138.0700 C   0  0  0  0  0  3  0  0  0  0  0  0
  184.3100  178.6940  140.8880 N   0  0  0  0  0  0  0  0  0  0  0  0
  181.4310  176.7470  135.8270 C   0  0  2  0  0  3  0  0  0  0  0  0
  181.8630  177.4860  138.3270 C   0  0  0  0  0  0  0  0  0  0  0  0
  183.1550  178.3090  140.2870 C   0  0  0  0  0  0  0  0  0  0  0  0
  182.5530  176.7180  134.7610 C   0  0  0  0  0  2  0  0  0  0  0  0
  182.1070  178.3530  140.9840 O   0  0  0  0  0  0  0  0  0  0  0  0
  185.5880  178.7840  140.4450 C   0  0  0  0  0  3  0  0  0  0  0  0
  184.0490  177.7380  137.9800 C   0  0  0  0  0  0  0  0  0  0  0  0
  186.0800  178.4910  139.1790 C   0  0  0  0  0  3  0  0  0  0  0  0
  183.8910  177.0130  135.4830 C   0  0  2  0  0  3  0  0  0  0  0  0
  180.5890  177.4600  138.8840 O   0  0  0  0  0  1  0  0  0  0  0  0
  180.4090  177.8060  135.4390 C   0  0  0  0  0  2  0  0  0  0  0  0
  181.0800  178.9170  134.6540 C   0  0  0  0  0  1  0  0  0  0  0  0
  189.5400  177.2800  136.3920 O   0  0  0  0  0  1  0  0  0  0  0  0
  189.6870  175.9120  136.6270 C   0  0  1  0  0  3  0  0  0  0  0  0
  190.5440  175.6800  137.8770 C   0  0  0  0  0  2  0  0  0  0  0  0
  193.0340  177.3990  139.4160 C   0  0  0  0  0  1  0  0  0  0  0  0
  191.7500  176.6480  139.7230 C   0  0  2  0  0  3  0  0  0  0  0  0
  191.7670  177.1220  142.1150 N   0  0  0  0  0  0  0  0  0  0  0  0
  190.7740  176.9000  138.6640 N   0  0  0  0  0  0  0  0  0  0  0  0
  191.1440  177.1510  140.9720 C   0  0  0  0  0  0  0  0  0  0  0  0
  189.7800  177.6630  140.7450 C   0  0  0  0  0  2  0  0  0  0  0  0
  189.5140  177.3270  139.2900 C   0  0  0  0  0  2  0  0  0  0  0  0
  190.3780  178.7140  145.4170 N   0  0  0  0  0  0  0  0  0  0  0  0
  191.0480  176.7070  144.4170 N   0  0  0  0  0  0  0  0  0  0  0  0
  190.8500  179.0940  143.8700 S   0  0  0  0  0  0  0  0  0  0  0  0
  190.5580  177.3640  145.5150 C   0  0  0  0  0  0  0  0  0  0  0  0
  191.2720  177.5530  143.3910 C   0  0  0  0  0  0  0  0  0  0  0  0
  190.2840  176.6430  146.7910 C   0  0  0  0  0  2  0  0  0  0  0  0
  189.7350  177.5980  147.8460 C   0  0  0  0  0  2  0  0  0  0  0  0
  188.2780  177.2880  148.1560 C   0  0  0  0  0  2  0  0  0  0  0  0
  187.3780  178.4400  147.6950 C   0  0  0  0  0  2  0  0  0  0  0  0
  186.2290  177.9980  146.8950 N   0  0  0  0  0  0  0  0  0  0  0  0
  187.2660  177.9460  143.5290 C   0  0  0  0  0  1  0  0  0  0  0  0
  184.9030  179.6700  144.1070 O   0  0  0  0  0  0  0  0  0  0  0  0
  186.1170  177.6610  144.4780 C   0  0  1  0  0  3  0  0  0  0  0  0
  186.6700  177.1290  145.7920 C   0  0  0  0  0  2  0  0  0  0  0  0
  185.5510  179.1640  146.3300 C   0  0  0  0  0  2  0  0  0  0  0  0
  185.4680  178.9170  144.8850 C   0  0  0  0  0  0  0  0  0  0  0  0
  1 10  1  1  0  0  0
  1 25  1  0  0  0  0
  1  6  1  0  0  0  0
  4  2  2  0  0  0  0
  4 11  1  0  0  0  0
  5  4  1  0  0  0  0
  5  7  1  0  0  0  0
  6  9  1  6  0  0  0
  6  8  1  0  0  0  0
  7 30  1  6  0  0  0
  9  7  1  0  0  0  0
 10  3  1  0  0  0  0
 11  3  1  6  0  0  0
 11  8  1  0  0  0  0
 12 14  1  0  0  0  0
 12 23  1  0  0  0  0
 13 19  1  0  0  0  0
 14 18  2  0  0  0  0
 15 24  2  0  0  0  0
 17 27  1  6  0  0  0
 17 14  1  0  0  0  0
 18 26  1  0  0  0  0
 18 13  1  0  0  0  0
 19 16  1  0  0  0  0
 19 21  2  0  0  0  0
 20 17  1  0  0  0  0
 22 16  2  0  0  0  0
 23 15  1  0  0  0  0
 23 13  2  0  0  0  0
 24 22  1  0  0  0  0
 25 20  1  6  0  0  0
 25 12  1  0  0  0  0
 28 27  1  0  0  0  0
 30 29  1  1  0  0  0
 30 31  1  0  0  0  0
 31 35  1  0  0  0  0
 33 32  1  6  0  0  0
 33 36  1  0  0  0  0
 34 43  1  0  0  0  0
 35 38  1  0  0  0  0
 35 33  1  0  0  0  0
 36 34  2  0  0  0  0
 37 36  1  0  0  0  0
 38 37  1  0  0  0  0
 39 42  2  0  0  0  0
 40 42  1  0  0  0  0
 41 39  1  0  0  0  0
 42 44  1  0  0  0  0
 43 41  1  0  0  0  0
 43 40  2  0  0  0  0
 44 45  1  0  0  0  0
 45 46  1  0  0  0  0
 47 46  1  0  0  0  0
 48 47  1  0  0  0  0
 50 54  2  0  0  0  0
 51 49  1  6  0  0  0
 51 54  1  0  0  0  0
 51 52  1  0  0  0  0
 52 48  1  0  0  0  0
 53 48  1  0  0  0  0
 54 53  1  0  0  0  0
M  END
>  <MODEL>
5

>  <REMARK>
 VINA RESULT:      -8.6      2.726      8.755
  Name = 
  11 active torsions:
  status: ('A' for Active; 'I' for Inactive)
    1  A    between atoms: C_4  and  N_16
    2  A    between atoms: C_4  and  C_25
    3  A    between atoms: C_6  and  C_52
    4  A    between atoms: C_9  and  C_15
    5  A    between atoms: C_17  and  C_23
    6  A    between atoms: C_17  and  C_35
    7  A    between atoms: C_18  and  N_33
    8  A    between atoms: C_18  and  C_36
    9  A    between atoms: C_23  and  C_25
   10  A    between atoms: N_31  and  C_37
   11  A    between atoms: C_32  and  C_36
                            x       y       z     vdW  Elec       q    Type
                         _______ _______ _______ _____ _____    ______ ____

>  <TORSDO>
F 11

$$$$
=
 OpenBabel10232411123D

 54 61  0  0  1  0  0  0  0  0999 V2000
  182.6960  175.9850  135.8690 C   0  0  1  0  0  3  0  0  0  0  0  0
  182.7270  171.1290  137.1270 O   0  0  0  0  0  0  0  0  0  0  0  0
  181.4950  173.8910  136.4230 C   0  0  0  0  0  2  0  0  0  0  0  0
  183.3080  172.1690  136.8540 C   0  0  0  0  0  0  0  0  0  0  0  0
  184.5660  172.0730  136.0210 C   0  0  0  0  0  2  0  0  0  0  0  0
  183.9240  175.2740  136.4520 C   0  0  1  0  0  3  0  0  0  0  0  0
  185.4360  173.3240  135.9630 C   0  0  2  0  0  3  0  0  0  0  0  0
  183.6210  174.4910  137.5980 O   0  0  0  0  0  0  0  0  0  0  0  0
  184.6580  174.4900  135.3640 C   0  0  0  0  0  2  0  0  0  0  0  0
  181.3830  175.4040  136.3950 C   0  0  0  0  0  2  0  0  0  0  0  0
  182.6820  173.4670  137.3060 C   0  0  1  0  0  3  0  0  0  0  0  0
  183.4260  177.9280  137.2260 N   0  0  0  0  0  0  0  0  0  0  0  0
  184.6360  178.5880  138.9870 C   0  0  0  0  0  0  0  0  0  0  0  0
  182.6270  178.6070  138.0160 C   0  0  0  0  0  0  0  0  0  0  0  0
  185.7390  177.3150  137.1260 C   0  0  0  0  0  3  0  0  0  0  0  0
  186.9500  178.4160  139.7500 N   0  0  0  0  0  0  0  0  0  0  0  0
  181.2550  178.7860  137.4890 C   0  0  2  0  0  3  0  0  0  0  0  0
  183.3110  179.0290  139.1300 C   0  0  0  0  0  0  0  0  0  0  0  0
  185.6680  178.8320  139.9030 C   0  0  0  0  0  0  0  0  0  0  0  0
  181.3740  178.1150  136.0990 C   0  0  0  0  0  2  0  0  0  0  0  0
  185.4000  179.4820  140.9480 O   0  0  0  0  0  0  0  0  0  0  0  0
  187.5790  177.7240  138.7690 C   0  0  0  0  0  3  0  0  0  0  0  0
  184.6660  177.9100  137.7610 C   0  0  0  0  0  0  0  0  0  0  0  0
  187.0400  177.2330  137.5850 C   0  0  0  0  0  3  0  0  0  0  0  0
  182.7960  177.5110  135.9910 C   0  0  2  0  0  3  0  0  0  0  0  0
  182.7830  179.7660  140.1850 O   0  0  0  0  0  1  0  0  0  0  0  0
  180.9280  180.2600  137.2980 C   0  0  0  0  0  2  0  0  0  0  0  0
  180.6370  180.5460  135.8370 C   0  0  0  0  0  1  0  0  0  0  0  0
  186.5430  171.9150  134.3470 O   0  0  0  0  0  1  0  0  0  0  0  0
  186.7100  173.0260  135.1750 C   0  0  1  0  0  3  0  0  0  0  0  0
  187.1430  174.2420  134.3470 C   0  0  0  0  0  2  0  0  0  0  0  0
  190.0750  172.6790  135.0460 C   0  0  0  0  0  1  0  0  0  0  0  0
  189.1940  173.8150  135.5360 C   0  0  2  0  0  3  0  0  0  0  0  0
  190.7160  174.5540  137.2910 N   0  0  0  0  0  0  0  0  0  0  0  0
  188.5910  174.4930  134.3890 N   0  0  0  0  0  0  0  0  0  0  0  0
  190.0030  174.8310  136.2370 C   0  0  0  0  0  0  0  0  0  0  0  0
  189.8840  176.1560  135.6000 C   0  0  0  0  0  2  0  0  0  0  0  0
  188.8360  175.9360  134.5250 C   0  0  0  0  0  2  0  0  0  0  0  0
  193.2220  176.9680  139.0990 N   0  0  0  0  0  0  0  0  0  0  0  0
  191.0530  176.0940  139.1640 N   0  0  0  0  0  0  0  0  0  0  0  0
  193.0910  175.9380  137.8010 S   0  0  0  0  0  0  0  0  0  0  0  0
  192.0030  176.9150  139.7110 C   0  0  0  0  0  0  0  0  0  0  0  0
  191.5160  175.4590  138.0670 C   0  0  0  0  0  0  0  0  0  0  0  0
  191.7380  177.6810  140.9620 C   0  0  0  0  0  2  0  0  0  0  0  0
  190.2730  177.5600  141.3710 C   0  0  0  0  0  2  0  0  0  0  0  0
  189.9620  176.1600  141.8770 C   0  0  0  0  0  2  0  0  0  0  0  0
  189.8200  176.1650  143.4040 C   0  0  0  0  0  2  0  0  0  0  0  0
  189.3070  177.4330  143.9370 N   0  0  0  0  0  0  0  0  0  0  0  0
  188.9580  177.0300  147.4190 C   0  0  0  0  0  1  0  0  0  0  0  0
  186.4690  177.8060  145.9710 O   0  0  0  0  0  0  0  0  0  0  0  0
  188.8200  178.0020  146.2620 C   0  0  1  0  0  3  0  0  0  0  0  0
  189.9170  177.7310  145.2430 C   0  0  0  0  0  2  0  0  0  0  0  0
  187.8570  177.3380  144.1070 C   0  0  0  0  0  2  0  0  0  0  0  0
  187.5940  177.7190  145.5010 C   0  0  0  0  0  0  0  0  0  0  0  0
  1 25  1  0  0  0  0
  1 10  1  1  0  0  0
  1  6  1  0  0  0  0
  4  2  2  0  0  0  0
  4 11  1  0  0  0  0
  5  4  1  0  0  0  0
  6  9  1  6  0  0  0
  6  8  1  0  0  0  0
  7 30  1  6  0  0  0
  7  5  1  0  0  0  0
  9  7  1  0  0  0  0
 10  3  1  0  0  0  0
 11  3  1  6  0  0  0
 11  8  1  0  0  0  0
 12 23  1  0  0  0  0
 12 14  1  0  0  0  0
 13 18  1  0  0  0  0
 13 19  1  0  0  0  0
 14 18  2  0  0  0  0
 15 24  2  0  0  0  0
 15 23  1  0  0  0  0
 16 19  1  0  0  0  0
 17 27  1  6  0  0  0
 17 14  1  0  0  0  0
 18 26  1  0  0  0  0
 19 21  2  0  0  0  0
 20 17  1  0  0  0  0
 22 16  2  0  0  0  0
 23 13  2  0  0  0  0
 24 22  1  0  0  0  0
 25 20  1  1  0  0  0
 25 12  1  0  0  0  0
 28 27  1  0  0  0  0
 30 29  1  6  0  0  0
 31 35  1  0  0  0  0
 31 30  1  0  0  0  0
 33 32  1  6  0  0  0
 33 36  1  0  0  0  0
 34 43  1  0  0  0  0
 35 38  1  0  0  0  0
 35 33  1  0  0  0  0
 36 34  2  0  0  0  0
 37 36  1  0  0  0  0
 38 37  1  0  0  0  0
 39 42  2  0  0  0  0
 40 42  1  0  0  0  0
 41 43  1  0  0  0  0
 41 39  1  0  0  0  0
 42 44  1  0  0  0  0
 43 40  2  0  0  0  0
 44 45  1  0  0  0  0
 45 46  1  0  0  0  0
 46 47  1  0  0  0  0
 47 48  1  0  0  0  0
 48 53  1  0  0  0  0
 48 52  1  0  0  0  0
 51 49  1  1  0  0  0
 52 51  1  0  0  0  0
 53 54  1  0  0  0  0
 54 50  2  0  0  0  0
 54 51  1  0  0  0  0
M  END
>  <MODEL>
6

>  <REMARK>
 VINA RESULT:      -8.4      2.891      8.634
  Name = 
  11 active torsions:
  status: ('A' for Active; 'I' for Inactive)
    1  A    between atoms: C_4  and  N_16
    2  A    between atoms: C_4  and  C_25
    3  A    between atoms: C_6  and  C_52
    4  A    between atoms: C_9  and  C_15
    5  A    between atoms: C_17  and  C_23
    6  A    between atoms: C_17  and  C_35
    7  A    between atoms: C_18  and  N_33
    8  A    between atoms: C_18  and  C_36
    9  A    between atoms: C_23  and  C_25
   10  A    between atoms: N_31  and  C_37
   11  A    between atoms: C_32  and  C_36
                            x       y       z     vdW  Elec       q    Type
                         _______ _______ _______ _____ _____    ______ ____

>  <TORSDO>
F 11

$$$$
=
 OpenBabel10232411123D

 54 61  0  0  1  0  0  0  0  0999 V2000
  190.1750  177.3930  141.0280 C   0  0  1  0  0  3  0  0  0  0  0  0
  193.5040  175.5850  137.7400 O   0  0  0  0  0  0  0  0  0  0  0  0
  192.4310  176.5170  140.5000 C   0  0  0  0  0  2  0  0  0  0  0  0
  192.3950  176.0200  138.0130 C   0  0  0  0  0  0  0  0  0  0  0  0
  191.2060  175.4000  137.3150 C   0  0  0  0  0  2  0  0  0  0  0  0
  190.0330  177.5570  139.5100 C   0  0  1  0  0  3  0  0  0  0  0  0
  189.8870  176.1570  137.4240 C   0  0  2  0  0  3  0  0  0  0  0  0
  191.2290  178.0010  138.8830 O   0  0  0  0  0  0  0  0  0  0  0  0
  189.4620  176.2840  138.8830 C   0  0  0  0  0  2  0  0  0  0  0  0
  191.6370  177.3660  141.4760 C   0  0  0  0  0  2  0  0  0  0  0  0
  192.2980  177.0870  139.0780 C   0  0  1  0  0  3  0  0  0  0  0  0
  188.9310  177.8970  143.1130 N   0  0  0  0  0  0  0  0  0  0  0  0
  188.5740  177.2800  145.2330 C   0  0  0  0  0  0  0  0  0  0  0  0
  187.6390  177.7140  143.2540 C   0  0  0  0  0  0  0  0  0  0  0  0
  190.9010  177.8370  144.4750 C   0  0  0  0  0  3  0  0  0  0  0  0
  189.8990  176.9240  147.2540 N   0  0  0  0  0  0  0  0  0  0  0  0
  186.8430  178.0310  142.0470 C   0  0  2  0  0  3  0  0  0  0  0  0
  187.3550  177.3160  144.5380 C   0  0  0  0  0  0  0  0  0  0  0  0
  188.7180  176.9410  146.5850 C   0  0  0  0  0  0  0  0  0  0  0  0
  187.9410  178.5510  141.0870 C   0  0  0  0  0  2  0  0  0  0  0  0
  187.6870  176.6290  147.2380 O   0  0  0  0  0  0  0  0  0  0  0  0
  191.1690  177.2100  146.8800 C   0  0  0  0  0  3  0  0  0  0  0  0
  189.5410  177.6690  144.2960 C   0  0  0  0  0  0  0  0  0  0  0  0
  191.6230  177.6270  145.6340 C   0  0  0  0  0  3  0  0  0  0  0  0
  189.3040  178.3890  141.8040 C   0  0  2  0  0  3  0  0  0  0  0  0
  186.0920  177.0230  145.0440 O   0  0  0  0  0  1  0  0  0  0  0  0
  185.8540  179.1550  142.3200 C   0  0  0  0  0  2  0  0  0  0  0  0
  184.5620  178.5900  142.8800 C   0  0  0  0  0  1  0  0  0  0  0  0
  189.2270  174.1700  136.2250 O   0  0  0  0  0  1  0  0  0  0  0  0
  188.8220  175.4570  136.5810 C   0  0  1  0  0  3  0  0  0  0  0  0
  187.4810  175.4030  137.3210 C   0  0  0  0  0  2  0  0  0  0  0  0
  187.1270  178.7420  136.8250 C   0  0  0  0  0  1  0  0  0  0  0  0
  186.5580  177.6030  137.6510 C   0  0  2  0  0  3  0  0  0  0  0  0
  184.8430  178.9430  138.7510 N   0  0  0  0  0  0  0  0  0  0  0  0
  186.5050  176.3890  136.8370 N   0  0  0  0  0  0  0  0  0  0  0  0
  185.1660  177.8960  138.0470 C   0  0  0  0  0  0  0  0  0  0  0  0
  184.2330  176.8660  137.5540 C   0  0  0  0  0  2  0  0  0  0  0  0
  185.1490  175.8280  136.9330 C   0  0  0  0  0  2  0  0  0  0  0  0
  181.2910  180.2940  139.7140 N   0  0  0  0  0  0  0  0  0  0  0  0
  182.8460  178.5950  140.1240 N   0  0  0  0  0  0  0  0  0  0  0  0
  182.6040  180.6160  138.7490 S   0  0  0  0  0  0  0  0  0  0  0  0
  181.6210  179.1500  140.3810 C   0  0  0  0  0  0  0  0  0  0  0  0
  183.5370  179.3140  139.2140 C   0  0  0  0  0  0  0  0  0  0  0  0
  180.7000  178.5580  141.3940 C   0  0  0  0  0  2  0  0  0  0  0  0
  180.0080  177.3180  140.8380 C   0  0  0  0  0  2  0  0  0  0  0  0
  180.9510  176.5210  139.9480 C   0  0  0  0  0  2  0  0  0  0  0  0
  180.4520  175.0780  139.8010 C   0  0  0  0  0  2  0  0  0  0  0  0
  179.9830  174.7600  138.4470 N   0  0  0  0  0  0  0  0  0  0  0  0
  182.4050  172.6680  136.9740 C   0  0  0  0  0  1  0  0  0  0  0  0
  181.8190  175.1850  135.4840 O   0  0  0  0  0  0  0  0  0  0  0  0
  181.0580  173.3400  136.7760 C   0  0  1  0  0  3  0  0  0  0  0  0
  180.3100  173.3670  138.1000 C   0  0  0  0  0  2  0  0  0  0  0  0
  180.6340  175.6480  137.4840 C   0  0  0  0  0  2  0  0  0  0  0  0
  181.2400  174.7680  136.4760 C   0  0  0  0  0  0  0  0  0  0  0  0
  1 10  1  1  0  0  0
  1 25  1  0  0  0  0
  2  4  2  0  0  0  0
  3 10  1  0  0  0  0
  4 11  1  0  0  0  0
  5  7  1  0  0  0  0
  5  4  1  0  0  0  0
  6  9  1  6  0  0  0
  6  1  1  0  0  0  0
  7 30  1  6  0  0  0
  7  9  1  0  0  0  0
  8 11  1  0  0  0  0
  8  6  1  0  0  0  0
 11  3  1  1  0  0  0
 12 14  1  0  0  0  0
 12 23  1  0  0  0  0
 13 19  1  0  0  0  0
 14 18  2  0  0  0  0
 15 24  2  0  0  0  0
 17 27  1  1  0  0  0
 17 14  1  0  0  0  0
 18 26  1  0  0  0  0
 18 13  1  0  0  0  0
 19 21  2  0  0  0  0
 19 16  1  0  0  0  0
 20 17  1  0  0  0  0
 22 16  2  0  0  0  0
 23 15  1  0  0  0  0
 23 13  2  0  0  0  0
 24 22  1  0  0  0  0
 25 20  1  6  0  0  0
 25 12  1  0  0  0  0
 27 28  1  0  0  0  0
 30 29  1  1  0  0  0
 30 31  1  0  0  0  0
 33 32  1  6  0  0  0
 33 36  1  0  0  0  0
 34 43  1  0  0  0  0
 35 38  1  0  0  0  0
 35 31  1  0  0  0  0
 35 33  1  0  0  0  0
 36 34  2  0  0  0  0
 37 36  1  0  0  0  0
 38 37  1  0  0  0  0
 39 42  2  0  0  0  0
 40 42  1  0  0  0  0
 41 43  1  0  0  0  0
 41 39  1  0  0  0  0
 42 44  1  0  0  0  0
 43 40  2  0  0  0  0
 45 44  1  0  0  0  0
 46 45  1  0  0  0  0
 47 46  1  0  0  0  0
 48 47  1  0  0  0  0
 50 54  2  0  0  0  0
 51 49  1  1  0  0  0
 51 52  1  0  0  0  0
 52 48  1  0  0  0  0
 53 48  1  0  0  0  0
 54 51  1  0  0  0  0
 54 53  1  0  0  0  0
M  END
>  <MODEL>
7

>  <REMARK>
 VINA RESULT:      -8.2      2.415      4.947
  Name = 
  11 active torsions:
  status: ('A' for Active; 'I' for Inactive)
    1  A    between atoms: C_4  and  N_16
    2  A    between atoms: C_4  and  C_25
    3  A    between atoms: C_6  and  C_52
    4  A    between atoms: C_9  and  C_15
    5  A    between atoms: C_17  and  C_23
    6  A    between atoms: C_17  and  C_35
    7  A    between atoms: C_18  and  N_33
    8  A    between atoms: C_18  and  C_36
    9  A    between atoms: C_23  and  C_25
   10  A    between atoms: N_31  and  C_37
   11  A    between atoms: C_32  and  C_36
                            x       y       z     vdW  Elec       q    Type
                         _______ _______ _______ _____ _____    ______ ____

>  <TORSDO>
F 11

$$$$
=
 OpenBabel10232411123D

 54 61  0  0  1  0  0  0  0  0999 V2000
  188.5250  173.8550  136.3050 C   0  0  1  0  0  3  0  0  0  0  0  0
  184.6570  176.3920  134.3640 O   0  0  0  0  0  0  0  0  0  0  0  0
  186.2900  173.9000  135.2380 C   0  0  0  0  0  2  0  0  0  0  0  0
  185.7600  176.3570  134.8890 C   0  0  0  0  0  0  0  0  0  0  0  0
  186.0860  177.4220  135.9110 C   0  0  0  0  0  2  0  0  0  0  0  0
  188.6190  175.3180  135.8530 C   0  0  1  0  0  3  0  0  0  0  0  0
  187.5530  177.5500  136.3110 C   0  0  2  0  0  3  0  0  0  0  0  0
  188.0570  175.5400  134.5680 O   0  0  0  0  0  0  0  0  0  0  0  0
  188.0550  176.2490  136.9270 C   0  0  0  0  0  2  0  0  0  0  0  0
  187.5260  173.0510  135.4710 C   0  0  0  0  0  2  0  0  0  0  0  0
  186.6760  175.2100  134.5300 C   0  0  1  0  0  3  0  0  0  0  0  0
  190.9820  174.1620  136.4430 N   0  0  0  0  0  0  0  0  0  0  0  0
  192.6340  175.6390  136.7390 C   0  0  0  0  0  0  0  0  0  0  0  0
  191.7890  174.0560  135.4130 C   0  0  0  0  0  0  0  0  0  0  0  0
  190.8600  175.3890  138.4960 C   0  0  0  0  0  3  0  0  0  0  0  0
  193.3070  177.2780  138.4210 N   0  0  0  0  0  0  0  0  0  0  0  0
  191.4190  172.9890  134.4550 C   0  0  2  0  0  3  0  0  0  0  0  0
  192.8230  174.9530  135.5280 C   0  0  0  0  0  0  0  0  0  0  0  0
  193.4880  176.6300  137.2420 C   0  0  0  0  0  0  0  0  0  0  0  0
  190.1950  172.3580  135.1610 C   0  0  0  0  0  2  0  0  0  0  0  0
  194.4970  176.9540  136.5620 O   0  0  0  0  0  0  0  0  0  0  0  0
  192.3630  177.1770  139.3880 C   0  0  0  0  0  3  0  0  0  0  0  0
  191.4660  175.0950  137.2900 C   0  0  0  0  0  0  0  0  0  0  0  0
  191.2650  176.3250  139.4290 C   0  0  0  0  0  3  0  0  0  0  0  0
  189.9040  173.1950  136.4310 C   0  0  2  0  0  3  0  0  0  0  0  0
  193.8600  175.1290  134.6180 O   0  0  0  0  0  1  0  0  0  0  0  0
  192.5190  171.9430  134.3460 C   0  0  0  0  0  2  0  0  0  0  0  0
  192.7680  171.3020  135.6980 C   0  0  0  0  0  1  0  0  0  0  0  0
  188.2390  179.8450  136.5950 O   0  0  0  0  0  1  0  0  0  0  0  0
  187.7240  178.7330  137.2620 C   0  0  1  0  0  3  0  0  0  0  0  0
  186.3960  179.0920  137.9400 C   0  0  0  0  0  2  0  0  0  0  0  0
  183.6980  177.4520  139.1860 C   0  0  0  0  0  1  0  0  0  0  0  0
  184.7100  178.5200  139.5610 C   0  0  2  0  0  3  0  0  0  0  0  0
  183.8880  178.8350  141.8350 N   0  0  0  0  0  0  0  0  0  0  0  0
  186.0190  178.1640  139.0150 N   0  0  0  0  0  0  0  0  0  0  0  0
  184.8770  178.5810  141.0270 C   0  0  0  0  0  0  0  0  0  0  0  0
  186.2750  178.3310  141.4250 C   0  0  0  0  0  2  0  0  0  0  0  0
  187.0080  178.2400  140.1010 C   0  0  0  0  0  2  0  0  0  0  0  0
  183.5680  179.0700  145.7360 N   0  0  0  0  0  0  0  0  0  0  0  0
  185.0860  179.0840  143.9550 N   0  0  0  0  0  0  0  0  0  0  0  0
  182.6680  178.9020  144.3490 S   0  0  0  0  0  0  0  0  0  0  0  0
  184.8610  179.1480  145.3050 C   0  0  0  0  0  0  0  0  0  0  0  0
  183.9350  178.9470  143.2650 C   0  0  0  0  0  0  0  0  0  0  0  0
  185.9810  179.3530  146.2680 C   0  0  0  0  0  2  0  0  0  0  0  0
  186.2990  178.0590  147.0120 C   0  0  0  0  0  2  0  0  0  0  0  0
  187.7790  177.9780  147.3550 C   0  0  0  0  0  2  0  0  0  0  0  0
  188.5160  177.1120  146.3260 C   0  0  0  0  0  2  0  0  0  0  0  0
  188.6050  177.7330  144.9990 N   0  0  0  0  0  0  0  0  0  0  0  0
  190.5140  175.5750  142.9710 C   0  0  0  0  0  1  0  0  0  0  0  0
  191.5670  178.3550  143.2180 O   0  0  0  0  0  0  0  0  0  0  0  0
  189.7230  176.8700  143.0060 C   0  0  1  0  0  3  0  0  0  0  0  0
  188.5360  176.7090  143.9430 C   0  0  0  0  0  2  0  0  0  0  0  0
  189.8780  178.4440  144.8780 C   0  0  0  0  0  2  0  0  0  0  0  0
  190.5080  177.9300  143.6560 C   0  0  0  0  0  0  0  0  0  0  0  0
  1 10  1  6  0  0  0
  1 25  1  0  0  0  0
  2  4  2  0  0  0  0
  3 10  1  0  0  0  0
  4  5  1  0  0  0  0
  5  7  1  0  0  0  0
  6  1  1  0  0  0  0
  6  9  1  1  0  0  0
  7  9  1  0  0  0  0
  7 30  1  1  0  0  0
  8  6  1  0  0  0  0
 11  8  1  0  0  0  0
 11  4  1  0  0  0  0
 11  3  1  1  0  0  0
 12 23  1  0  0  0  0
 13 19  1  0  0  0  0
 13 23  2  0  0  0  0
 14 18  2  0  0  0  0
 14 12  1  0  0  0  0
 15 24  2  0  0  0  0
 16 22  2  0  0  0  0
 17 27  1  1  0  0  0
 17 20  1  0  0  0  0
 17 14  1  0  0  0  0
 18 13  1  0  0  0  0
 19 16  1  0  0  0  0
 21 19  2  0  0  0  0
 22 24  1  0  0  0  0
 23 15  1  0  0  0  0
 25 20  1  6  0  0  0
 25 12  1  0  0  0  0
 26 18  1  0  0  0  0
 27 28  1  0  0  0  0
 30 29  1  6  0  0  0
 30 31  1  0  0  0  0
 31 35  1  0  0  0  0
 33 32  1  1  0  0  0
 33 36  1  0  0  0  0
 34 43  1  0  0  0  0
 35 33  1  0  0  0  0
 35 38  1  0  0  0  0
 36 37  1  0  0  0  0
 36 34  2  0  0  0  0
 38 37  1  0  0  0  0
 40 42  1  0  0  0  0
 41 39  1  0  0  0  0
 42 39  2  0  0  0  0
 42 44  1  0  0  0  0
 43 40  2  0  0  0  0
 43 41  1  0  0  0  0
 44 45  1  0  0  0  0
 45 46  1  0  0  0  0
 47 46  1  0  0  0  0
 48 47  1  0  0  0  0
 50 54  2  0  0  0  0
 51 49  1  1  0  0  0
 51 54  1  0  0  0  0
 51 52  1  0  0  0  0
 52 48  1  0  0  0  0
 53 48  1  0  0  0  0
 54 53  1  0  0  0  0
M  END
>  <MODEL>
8

>  <REMARK>
 VINA RESULT:      -8.1      2.869      8.817
  Name = 
  11 active torsions:
  status: ('A' for Active; 'I' for Inactive)
    1  A    between atoms: C_4  and  N_16
    2  A    between atoms: C_4  and  C_25
    3  A    between atoms: C_6  and  C_52
    4  A    between atoms: C_9  and  C_15
    5  A    between atoms: C_17  and  C_23
    6  A    between atoms: C_17  and  C_35
    7  A    between atoms: C_18  and  N_33
    8  A    between atoms: C_18  and  C_36
    9  A    between atoms: C_23  and  C_25
   10  A    between atoms: N_31  and  C_37
   11  A    between atoms: C_32  and  C_36
                            x       y       z     vdW  Elec       q    Type
                         _______ _______ _______ _____ _____    ______ ____

>  <TORSDO>
F 11

$$$$
=
 OpenBabel10232411123D

 54 61  0  0  1  0  0  0  0  0999 V2000
  189.9450  177.2390  141.9790 C   0  0  1  0  0  3  0  0  0  0  0  0
  188.4830  179.5390  137.7670 O   0  0  0  0  0  0  0  0  0  0  0  0
  188.9420  179.1830  140.8170 C   0  0  0  0  0  2  0  0  0  0  0  0
  188.9750  178.5850  138.3520 C   0  0  0  0  0  0  0  0  0  0  0  0
  190.1380  177.8800  137.6920 C   0  0  0  0  0  2  0  0  0  0  0  0
  189.7160  176.5030  140.6530 C   0  0  1  0  0  3  0  0  0  0  0  0
  190.5240  176.5220  138.2710 C   0  0  2  0  0  3  0  0  0  0  0  0
  188.4900  176.8530  140.0270 O   0  0  0  0  0  0  0  0  0  0  0  0
  190.9280  176.6590  139.7340 C   0  0  0  0  0  2  0  0  0  0  0  0
  189.0200  178.4470  142.1420 C   0  0  0  0  0  2  0  0  0  0  0  0
  188.4310  178.2370  139.7180 C   0  0  1  0  0  3  0  0  0  0  0  0
  189.3970  176.9000  144.3740 N   0  0  0  0  0  0  0  0  0  0  0  0
  188.3110  177.7280  146.1440 C   0  0  0  0  0  0  0  0  0  0  0  0
  190.2710  177.0210  145.3460 C   0  0  0  0  0  0  0  0  0  0  0  0
  187.0490  177.2270  144.0330 C   0  0  0  0  0  3  0  0  0  0  0  0
  186.0280  178.3860  146.7130 N   0  0  0  0  0  0  0  0  0  0  0  0
  191.6260  176.5250  145.0140 C   0  0  2  0  0  3  0  0  0  0  0  0
  189.6660  177.5430  146.4630 C   0  0  0  0  0  0  0  0  0  0  0  0
  187.3390  178.2240  147.0240 C   0  0  0  0  0  0  0  0  0  0  0  0
  191.4040  175.9660  143.5880 C   0  0  0  0  0  2  0  0  0  0  0  0
  187.6930  178.5470  148.1880 O   0  0  0  0  0  0  0  0  0  0  0  0
  185.3150  178.1350  145.5880 C   0  0  0  0  0  3  0  0  0  0  0  0
  188.1850  177.2940  144.8170 C   0  0  0  0  0  0  0  0  0  0  0  0
  185.7680  177.6090  144.3840 C   0  0  0  0  0  3  0  0  0  0  0  0
  189.9440  176.2870  143.1820 C   0  0  2  0  0  3  0  0  0  0  0  0
  190.2860  177.8160  147.6780 O   0  0  0  0  0  1  0  0  0  0  0  0
  192.0330  175.3820  145.9340 C   0  0  0  0  0  2  0  0  0  0  0  0
  192.4220  174.1660  145.1150 C   0  0  0  0  0  1  0  0  0  0  0  0
  192.3470  174.9470  138.1570 O   0  0  0  0  0  1  0  0  0  0  0  0
  191.6380  175.9030  137.4290 C   0  0  1  0  0  3  0  0  0  0  0  0
  191.0770  175.2810  136.1450 C   0  0  0  0  0  2  0  0  0  0  0  0
  191.1740  172.4040  134.3460 C   0  0  0  0  0  1  0  0  0  0  0  0
  190.1930  173.3370  135.0330 C   0  0  2  0  0  3  0  0  0  0  0  0
  188.2180  171.9810  134.5740 N   0  0  0  0  0  0  0  0  0  0  0  0
  190.7870  173.8460  136.2680 N   0  0  0  0  0  0  0  0  0  0  0  0
  188.9750  172.6030  135.4320 C   0  0  0  0  0  0  0  0  0  0  0  0
  188.7460  172.6820  136.8860 C   0  0  0  0  0  2  0  0  0  0  0  0
  189.8290  173.6300  137.3630 C   0  0  0  0  0  2  0  0  0  0  0  0
  185.0910  169.6700  135.0780 N   0  0  0  0  0  0  0  0  0  0  0  0
  186.0020  171.7640  135.5900 N   0  0  0  0  0  0  0  0  0  0  0  0
  186.5820  169.7260  134.3460 S   0  0  0  0  0  0  0  0  0  0  0  0
  184.9670  170.8740  135.7080 C   0  0  0  0  0  0  0  0  0  0  0  0
  187.0050  171.2630  134.8390 C   0  0  0  0  0  0  0  0  0  0  0  0
  183.7230  171.2280  136.4490 C   0  0  0  0  0  2  0  0  0  0  0  0
  183.1350  172.5360  135.9280 C   0  0  0  0  0  2  0  0  0  0  0  0
  183.4970  173.6980  136.8410 C   0  0  0  0  0  2  0  0  0  0  0  0
  182.7380  174.9620  136.4210 C   0  0  0  0  0  2  0  0  0  0  0  0
  183.6030  175.9930  135.8320 N   0  0  0  0  0  0  0  0  0  0  0  0
  186.7760  175.6600  137.3260 C   0  0  0  0  0  1  0  0  0  0  0  0
  185.5040  178.3420  137.6200 O   0  0  0  0  0  0  0  0  0  0  0  0
  185.9620  176.4220  136.2960 C   0  0  1  0  0  3  0  0  0  0  0  0
  184.9680  175.4750  135.6410 C   0  0  0  0  0  2  0  0  0  0  0  0
  183.6620  177.1490  136.7270 C   0  0  0  0  0  2  0  0  0  0  0  0
  185.0890  177.4020  136.9580 C   0  0  0  0  0  0  0  0  0  0  0  0
  1 10  1  1  0  0  0
  1 25  1  0  0  0  0
  2  4  2  0  0  0  0
  3 10  1  0  0  0  0
  4 11  1  0  0  0  0
  5  7  1  0  0  0  0
  5  4  1  0  0  0  0
  6  9  1  6  0  0  0
  6  1  1  0  0  0  0
  7 30  1  6  0  0  0
  7  9  1  0  0  0  0
  8  6  1  0  0  0  0
 11  8  1  0  0  0  0
 11  3  1  1  0  0  0
 12 23  1  0  0  0  0
 12 14  1  0  0  0  0
 13 18  1  0  0  0  0
 13 19  1  0  0  0  0
 14 18  2  0  0  0  0
 15 24  2  0  0  0  0
 15 23  1  0  0  0  0
 16 19  1  0  0  0  0
 17 14  1  0  0  0  0
 17 27  1  1  0  0  0
 18 26  1  0  0  0  0
 19 21  2  0  0  0  0
 20 17  1  0  0  0  0
 22 16  2  0  0  0  0
 23 13  2  0  0  0  0
 24 22  1  0  0  0  0
 25 20  1  1  0  0  0
 25 12  1  0  0  0  0
 28 27  1  0  0  0  0
 30 29  1  1  0  0  0
 31 35  1  0  0  0  0
 31 30  1  0  0  0  0
 33 32  1  1  0  0  0
 33 36  1  0  0  0  0
 33 35  1  0  0  0  0
 34 43  1  0  0  0  0
 34 36  2  0  0  0  0
 35 38  1  0  0  0  0
 36 37  1  0  0  0  0
 37 38  1  0  0  0  0
 39 42  2  0  0  0  0
 40 42  1  0  0  0  0
 41 43  1  0  0  0  0
 41 39  1  0  0  0  0
 42 44  1  0  0  0  0
 43 40  2  0  0  0  0
 45 44  1  0  0  0  0
 45 46  1  0  0  0  0
 47 46  1  0  0  0  0
 48 47  1  0  0  0  0
 48 53  1  0  0  0  0
 51 54  1  0  0  0  0
 51 49  1  1  0  0  0
 52 48  1  0  0  0  0
 52 51  1  0  0  0  0
 53 54  1  0  0  0  0
 54 50  2  0  0  0  0
M  END
>  <MODEL>
9

>  <REMARK>
 VINA RESULT:      -7.9      2.022      2.554
  Name = 
  11 active torsions:
  status: ('A' for Active; 'I' for Inactive)
    1  A    between atoms: C_4  and  N_16
    2  A    between atoms: C_4  and  C_25
    3  A    between atoms: C_6  and  C_52
    4  A    between atoms: C_9  and  C_15
    5  A    between atoms: C_17  and  C_23
    6  A    between atoms: C_17  and  C_35
    7  A    between atoms: C_18  and  N_33
    8  A    between atoms: C_18  and  C_36
    9  A    between atoms: C_23  and  C_25
   10  A    between atoms: N_31  and  C_37
   11  A    between atoms: C_32  and  C_36
                            x       y       z     vdW  Elec       q    Type
                         _______ _______ _______ _____ _____    ______ ____

>  <TORSDO>
F 11

$$$$
