=
 OpenBabel10232408513D

 25 27  0  0  1  0  0  0  0  0999 V2000
  187.7760  178.1780  141.8900 S   0  0  0  0  0  0  0  0  0  0  0  0
  190.7060  177.9720  142.6570 C   0  0  0  0  0  0  0  0  0  0  0  0
  191.5940  177.5010  141.6230 C   0  0  0  0  0  3  0  0  0  0  0  0
  191.1580  177.1470  140.3300 N   0  0  0  0  0  0  0  0  0  0  0  0
  189.8430  177.2160  139.8880 C   0  0  0  0  0  0  0  0  0  0  0  0
  189.0030  177.6580  140.8520 C   0  0  0  0  0  0  0  0  0  0  0  0
  189.4290  178.0240  142.2010 C   0  0  0  0  0  0  0  0  0  0  0  0
  191.2190  178.4390  144.3070 S   0  0  0  0  0  0  0  0  0  0  0  0
  190.7800  176.8300  145.0710 C   0  0  0  0  0  0  0  0  0  0  0  0
  189.4590  176.5370  144.7790 F   0  0  0  0  0  0  0  0  0  0  0  0
  191.5780  175.8310  144.5430 F   0  0  0  0  0  0  0  0  0  0  0  0
  190.9500  176.8540  146.5990 C   0  0  2  0  0  3  0  0  0  0  0  0
  191.9950  175.8690  147.1050 C   0  0  0  0  0  1  0  0  0  0  0  0
  189.6360  176.7590  147.3780 C   0  0  0  0  0  2  0  0  0  0  0  0
  189.1380  178.0740  147.7440 N   0  0  0  0  0  2  0  0  0  0  0  0
  187.8010  177.9050  148.1310 N   0  0  0  0  0  2  0  0  0  0  0  0
  187.0050  177.8850  146.9140 C   0  0  0  0  0  2  0  0  0  0  0  0
  185.9340  178.9630  146.9640 C   0  0  0  0  0  2  0  0  0  0  0  0
  184.6710  178.3850  146.8390 O   0  0  0  0  0  1  0  0  0  0  0  0
  189.4140  176.7820  138.5290 C   0  0  0  0  0  2  0  0  0  0  0  0
  187.6210  177.8870  137.0750 C   0  0  2  0  0  3  0  0  0  0  0  0
  189.4440  179.2470  138.0340 F   0  0  0  0  0  0  0  0  0  0  0  0
  188.8660  177.7220  136.2090 C   0  0  0  0  0  2  0  0  0  0  0  0
  187.0890  179.1630  136.8830 O   0  0  0  0  0  1  0  0  0  0  0  0
  189.0040  177.9800  137.6900 C   0  0  1  0  0  0  0  0  0  0  0  0
  1  7  1  0  0  0  0
  2  8  1  0  0  0  0
  3  2  2  0  0  0  0
  4  3  1  0  0  0  0
  5  4  2  0  0  0  0
  5  6  1  0  0  0  0
  6  1  1  0  0  0  0
  6  7  2  0  0  0  0
  7  2  1  0  0  0  0
  8  9  1  0  0  0  0
  9 12  1  0  0  0  0
 10  9  1  0  0  0  0
 11  9  1  0  0  0  0
 12 13  1  1  0  0  0
 12 14  1  0  0  0  0
 14 15  1  0  0  0  0
 15 16  1  0  0  0  0
 17 18  1  0  0  0  0
 17 16  1  0  0  0  0
 19 18  1  0  0  0  0
 20  5  1  0  0  0  0
 21 24  1  6  0  0  0
 21 25  1  0  0  0  0
 23 21  1  0  0  0  0
 23 25  1  0  0  0  0
 25 22  1  1  0  0  0
 25 20  1  0  0  0  0
M  END
>  <MODEL>
1

>  <REMARK>
 VINA RESULT:      -6.9      0.000      0.000
  Name = 
  10 active torsions:
  status: ('A' for Active; 'I' for Inactive)
    1  A    between atoms: C_1  and  N_6
    2  A    between atoms: C_1  and  C_7
    3  A    between atoms: C_3  and  C_4
    4  A    between atoms: C_3  and  N_24
    5  A    between atoms: C_5  and  C_7
    6  A    between atoms: C_5  and  S_8
    7  A    between atoms: N_6  and  N_24
    8  A    between atoms: S_8  and  C_13
    9  A    between atoms: C_12  and  C_17
   10  A    between atoms: C_12  and  C_20
                            x       y       z     vdW  Elec       q    Type
                         _______ _______ _______ _____ _____    ______ ____

>  <TORSDO>
F 10

$$$$
=
 OpenBabel10232408513D

 25 27  0  0  1  0  0  0  0  0999 V2000
  187.7230  178.3900  141.7010 S   0  0  0  0  0  0  0  0  0  0  0  0
  190.6500  177.9860  142.3960 C   0  0  0  0  0  0  0  0  0  0  0  0
  191.4590  177.3660  141.3750 C   0  0  0  0  0  3  0  0  0  0  0  0
  190.9480  176.9580  140.1250 N   0  0  0  0  0  0  0  0  0  0  0  0
  189.6300  177.1080  139.7180 C   0  0  0  0  0  0  0  0  0  0  0  0
  188.8640  177.6910  140.6690 C   0  0  0  0  0  0  0  0  0  0  0  0
  189.3670  178.1160  141.9750 C   0  0  0  0  0  0  0  0  0  0  0  0
  191.2590  178.5250  143.9900 S   0  0  0  0  0  0  0  0  0  0  0  0
  190.5710  177.0980  144.9140 C   0  0  0  0  0  0  0  0  0  0  0  0
  189.8860  176.2780  144.0340 F   0  0  0  0  0  0  0  0  0  0  0  0
  191.6020  176.3690  145.4810 F   0  0  0  0  0  0  0  0  0  0  0  0
  189.6030  177.5420  146.0220 C   0  0  2  0  0  3  0  0  0  0  0  0
  189.7980  176.7890  147.3320 C   0  0  0  0  0  1  0  0  0  0  0  0
  188.1350  177.5900  145.5920 C   0  0  0  0  0  2  0  0  0  0  0  0
  187.2460  177.6560  146.7400 N   0  0  0  0  0  2  0  0  0  0  0  0
  186.2160  178.5440  146.4010 N   0  0  0  0  0  2  0  0  0  0  0  0
  185.8320  178.2480  145.0290 C   0  0  0  0  0  2  0  0  0  0  0  0
  184.5260  178.9440  144.6820 C   0  0  0  0  0  2  0  0  0  0  0  0
  183.7290  179.0550  145.8220 O   0  0  0  0  0  1  0  0  0  0  0  0
  189.1180  176.6160  138.4090 C   0  0  0  0  0  2  0  0  0  0  0  0
  188.5110  177.8340  136.2420 C   0  0  2  0  0  3  0  0  0  0  0  0
  186.9850  177.9290  138.1790 F   0  0  0  0  0  0  0  0  0  0  0  0
  189.0250  178.8850  137.2210 C   0  0  0  0  0  2  0  0  0  0  0  0
  187.3600  178.3120  135.6120 O   0  0  0  0  0  1  0  0  0  0  0  0
  188.2720  177.6800  137.7300 C   0  0  1  0  0  0  0  0  0  0  0  0
  1  7  1  0  0  0  0
  2  8  1  0  0  0  0
  3  2  2  0  0  0  0
  4  3  1  0  0  0  0
  5  4  2  0  0  0  0
  5  6  1  0  0  0  0
  6  1  1  0  0  0  0
  6  7  2  0  0  0  0
  7  2  1  0  0  0  0
  8  9  1  0  0  0  0
  9 11  1  0  0  0  0
  9 12  1  0  0  0  0
 10  9  1  0  0  0  0
 12 13  1  1  0  0  0
 14 12  1  0  0  0  0
 14 15  1  0  0  0  0
 16 15  1  0  0  0  0
 17 16  1  0  0  0  0
 18 17  1  0  0  0  0
 18 19  1  0  0  0  0
 20  5  1  0  0  0  0
 21 24  1  6  0  0  0
 21 23  1  0  0  0  0
 21 25  1  0  0  0  0
 23 25  1  0  0  0  0
 25 22  1  1  0  0  0
 25 20  1  0  0  0  0
M  END
>  <MODEL>
2

>  <REMARK>
 VINA RESULT:      -6.6      1.305      1.516
  Name = 
  10 active torsions:
  status: ('A' for Active; 'I' for Inactive)
    1  A    between atoms: C_1  and  N_6
    2  A    between atoms: C_1  and  C_7
    3  A    between atoms: C_3  and  C_4
    4  A    between atoms: C_3  and  N_24
    5  A    between atoms: C_5  and  C_7
    6  A    between atoms: C_5  and  S_8
    7  A    between atoms: N_6  and  N_24
    8  A    between atoms: S_8  and  C_13
    9  A    between atoms: C_12  and  C_17
   10  A    between atoms: C_12  and  C_20
                            x       y       z     vdW  Elec       q    Type
                         _______ _______ _______ _____ _____    ______ ____

>  <TORSDO>
F 10

$$$$
=
 OpenBabel10232408513D

 25 27  0  0  1  0  0  0  0  0999 V2000
  187.1500  178.5280  141.2520 S   0  0  0  0  0  0  0  0  0  0  0  0
  189.6950  176.9280  141.6750 C   0  0  0  0  0  0  0  0  0  0  0  0
  190.6050  176.8890  140.5570 C   0  0  0  0  0  3  0  0  0  0  0  0
  190.3540  177.5390  139.3310 N   0  0  0  0  0  0  0  0  0  0  0  0
  189.2250  178.2970  139.0500 C   0  0  0  0  0  0  0  0  0  0  0  0
  188.3660  178.3410  140.0940 C   0  0  0  0  0  0  0  0  0  0  0  0
  188.6000  177.6690  141.3720 C   0  0  0  0  0  0  0  0  0  0  0  0
  189.9780  176.1240  143.2490 S   0  0  0  0  0  0  0  0  0  0  0  0
  190.4920  177.6560  144.1180 C   0  0  0  0  0  0  0  0  0  0  0  0
  191.7970  177.5120  144.5540 F   0  0  0  0  0  0  0  0  0  0  0  0
  190.4360  178.7280  143.2450 F   0  0  0  0  0  0  0  0  0  0  0  0
  189.6000  177.9530  145.3350 C   0  0  2  0  0  3  0  0  0  0  0  0
  190.0540  177.2440  146.6040 C   0  0  0  0  0  1  0  0  0  0  0  0
  188.1030  177.7740  145.0740 C   0  0  0  0  0  2  0  0  0  0  0  0
  187.3770  177.4950  146.3020 N   0  0  0  0  0  2  0  0  0  0  0  0
  186.2010  178.2570  146.2570 N   0  0  0  0  0  2  0  0  0  0  0  0
  185.7400  178.2460  144.8780 C   0  0  0  0  0  2  0  0  0  0  0  0
  184.6410  179.2780  144.6790 C   0  0  0  0  0  2  0  0  0  0  0  0
  183.6330  179.0890  145.6240 O   0  0  0  0  0  1  0  0  0  0  0  0
  188.9720  178.9250  137.7230 C   0  0  0  0  0  2  0  0  0  0  0  0
  187.8600  176.8270  136.7690 C   0  0  2  0  0  3  0  0  0  0  0  0
  186.4860  178.7860  137.3720 F   0  0  0  0  0  0  0  0  0  0  0  0
  187.9390  177.8490  135.6390 C   0  0  0  0  0  2  0  0  0  0  0  0
  186.5950  176.2360  136.7710 O   0  0  0  0  0  1  0  0  0  0  0  0
  187.7490  178.3090  137.0640 C   0  0  1  0  0  0  0  0  0  0  0  0
  1  7  1  0  0  0  0
  2  8  1  0  0  0  0
  3  2  2  0  0  0  0
  4  3  1  0  0  0  0
  5  4  2  0  0  0  0
  5  6  1  0  0  0  0
  6  1  1  0  0  0  0
  6  7  2  0  0  0  0
  7  2  1  0  0  0  0
  8  9  1  0  0  0  0
  9 10  1  0  0  0  0
  9 12  1  0  0  0  0
 11  9  1  0  0  0  0
 12 13  1  1  0  0  0
 14 12  1  0  0  0  0
 14 15  1  0  0  0  0
 16 15  1  0  0  0  0
 17 16  1  0  0  0  0
 18 17  1  0  0  0  0
 18 19  1  0  0  0  0
 20  5  1  0  0  0  0
 21 24  1  6  0  0  0
 21 25  1  0  0  0  0
 23 21  1  0  0  0  0
 23 25  1  0  0  0  0
 25 22  1  1  0  0  0
 25 20  1  0  0  0  0
M  END
>  <MODEL>
3

>  <REMARK>
 VINA RESULT:      -6.6      1.842      2.155
  Name = 
  10 active torsions:
  status: ('A' for Active; 'I' for Inactive)
    1  A    between atoms: C_1  and  N_6
    2  A    between atoms: C_1  and  C_7
    3  A    between atoms: C_3  and  C_4
    4  A    between atoms: C_3  and  N_24
    5  A    between atoms: C_5  and  C_7
    6  A    between atoms: C_5  and  S_8
    7  A    between atoms: N_6  and  N_24
    8  A    between atoms: S_8  and  C_13
    9  A    between atoms: C_12  and  C_17
   10  A    between atoms: C_12  and  C_20
                            x       y       z     vdW  Elec       q    Type
                         _______ _______ _______ _____ _____    ______ ____

>  <TORSDO>
F 10

$$$$
=
 OpenBabel10232408513D

 25 27  0  0  1  0  0  0  0  0999 V2000
  187.0600  178.6080  141.2360 S   0  0  0  0  0  0  0  0  0  0  0  0
  189.5380  176.9370  141.7660 C   0  0  0  0  0  0  0  0  0  0  0  0
  190.4930  176.8700  140.6870 C   0  0  0  0  0  3  0  0  0  0  0  0
  190.3120  177.5240  139.4510 N   0  0  0  0  0  0  0  0  0  0  0  0
  189.2170  178.3140  139.1230 C   0  0  0  0  0  0  0  0  0  0  0  0
  188.3170  178.3840  140.1300 C   0  0  0  0  0  0  0  0  0  0  0  0
  188.4780  177.7080  141.4170 C   0  0  0  0  0  0  0  0  0  0  0  0
  189.7330  176.1280  143.3510 S   0  0  0  0  0  0  0  0  0  0  0  0
  190.6270  177.5260  144.1330 C   0  0  0  0  0  0  0  0  0  0  0  0
  191.9480  177.5030  143.7230 F   0  0  0  0  0  0  0  0  0  0  0  0
  190.0630  178.7240  143.7290 F   0  0  0  0  0  0  0  0  0  0  0  0
  190.5880  177.4470  145.6670 C   0  0  2  0  0  3  0  0  0  0  0  0
  191.6290  176.5000  146.2500 C   0  0  0  0  0  1  0  0  0  0  0  0
  189.1930  177.2050  146.2480 C   0  0  0  0  0  2  0  0  0  0  0  0
  189.0340  177.8520  147.5410 N   0  0  0  0  0  2  0  0  0  0  0  0
  187.6630  178.0920  147.7050 N   0  0  0  0  0  2  0  0  0  0  0  0
  187.0440  177.9350  146.3990 C   0  0  0  0  0  2  0  0  0  0  0  0
  185.8720  178.8920  146.2500 C   0  0  0  0  0  2  0  0  0  0  0  0
  184.7700  178.4080  146.9550 O   0  0  0  0  0  1  0  0  0  0  0  0
  189.0380  178.9460  137.7860 C   0  0  0  0  0  2  0  0  0  0  0  0
  187.6860  178.0420  135.8100 C   0  0  2  0  0  3  0  0  0  0  0  0
  190.0300  177.3380  136.1260 F   0  0  0  0  0  0  0  0  0  0  0  0
  187.7300  176.9420  136.8660 C   0  0  0  0  0  2  0  0  0  0  0  0
  187.9370  177.4870  134.5540 O   0  0  0  0  0  1  0  0  0  0  0  0
  188.8980  177.8860  136.7070 C   0  0  1  0  0  0  0  0  0  0  0  0
  1  7  1  0  0  0  0
  2  8  1  0  0  0  0
  3  2  2  0  0  0  0
  4  3  1  0  0  0  0
  5  4  2  0  0  0  0
  5  6  1  0  0  0  0
  6  1  1  0  0  0  0
  6  7  2  0  0  0  0
  7  2  1  0  0  0  0
  8  9  1  0  0  0  0
  9 12  1  0  0  0  0
 10  9  1  0  0  0  0
 11  9  1  0  0  0  0
 12 14  1  0  0  0  0
 12 13  1  6  0  0  0
 14 15  1  0  0  0  0
 15 16  1  0  0  0  0
 17 16  1  0  0  0  0
 18 17  1  0  0  0  0
 18 19  1  0  0  0  0
 20  5  1  0  0  0  0
 21 24  1  6  0  0  0
 21 25  1  0  0  0  0
 21 23  1  0  0  0  0
 25 22  1  6  0  0  0
 25 23  1  0  0  0  0
 25 20  1  0  0  0  0
M  END
>  <MODEL>
4

>  <REMARK>
 VINA RESULT:      -6.5      1.499      1.739
  Name = 
  10 active torsions:
  status: ('A' for Active; 'I' for Inactive)
    1  A    between atoms: C_1  and  N_6
    2  A    between atoms: C_1  and  C_7
    3  A    between atoms: C_3  and  C_4
    4  A    between atoms: C_3  and  N_24
    5  A    between atoms: C_5  and  C_7
    6  A    between atoms: C_5  and  S_8
    7  A    between atoms: N_6  and  N_24
    8  A    between atoms: S_8  and  C_13
    9  A    between atoms: C_12  and  C_17
   10  A    between atoms: C_12  and  C_20
                            x       y       z     vdW  Elec       q    Type
                         _______ _______ _______ _____ _____    ______ ____

>  <TORSDO>
F 10

$$$$
=
 OpenBabel10232408513D

 25 27  0  0  1  0  0  0  0  0999 V2000
  187.9190  178.4540  140.4610 S   0  0  0  0  0  0  0  0  0  0  0  0
  188.4790  176.7550  142.9140 C   0  0  0  0  0  0  0  0  0  0  0  0
  189.7510  176.0740  142.9290 C   0  0  0  0  0  3  0  0  0  0  0  0
  190.6930  176.1690  141.8840 N   0  0  0  0  0  0  0  0  0  0  0  0
  190.5270  176.9250  140.7310 C   0  0  0  0  0  0  0  0  0  0  0  0
  189.3370  177.5690  140.7090 C   0  0  0  0  0  0  0  0  0  0  0  0
  188.3420  177.4810  141.7760 C   0  0  0  0  0  0  0  0  0  0  0  0
  187.2610  176.6680  144.2210 S   0  0  0  0  0  0  0  0  0  0  0  0
  188.3100  177.5050  145.4720 C   0  0  0  0  0  0  0  0  0  0  0  0
  189.1860  176.5820  146.0160 F   0  0  0  0  0  0  0  0  0  0  0  0
  189.0480  178.5070  144.8650 F   0  0  0  0  0  0  0  0  0  0  0  0
  187.4740  178.1160  146.6080 C   0  0  2  0  0  3  0  0  0  0  0  0
  187.9350  177.6870  147.9950 C   0  0  0  0  0  1  0  0  0  0  0  0
  185.9620  177.9650  146.4260 C   0  0  0  0  0  2  0  0  0  0  0  0
  185.3200  179.2530  146.2160 N   0  0  0  0  0  2  0  0  0  0  0  0
  184.0570  178.9880  145.6700 N   0  0  0  0  0  2  0  0  0  0  0  0
  184.0530  179.5320  144.3210 C   0  0  0  0  0  2  0  0  0  0  0  0
  184.2580  178.4230  143.3020 C   0  0  0  0  0  2  0  0  0  0  0  0
  184.1750  178.9420  142.0100 O   0  0  0  0  0  1  0  0  0  0  0  0
  191.5230  176.9570  139.6250 C   0  0  0  0  0  2  0  0  0  0  0  0
  190.2650  175.5470  137.8990 C   0  0  2  0  0  3  0  0  0  0  0  0
  190.1350  178.0090  137.8110 F   0  0  0  0  0  0  0  0  0  0  0  0
  191.5200  176.0810  137.2160 C   0  0  0  0  0  2  0  0  0  0  0  0
  189.1740  175.6940  137.0420 O   0  0  0  0  0  1  0  0  0  0  0  0
  190.8270  176.9030  138.2750 C   0  0  1  0  0  0  0  0  0  0  0  0
  1  6  1  0  0  0  0
  1  7  1  0  0  0  0
  2  3  1  0  0  0  0
  2  8  1  0  0  0  0
  4  3  2  0  0  0  0
  5  4  1  0  0  0  0
  6  5  2  0  0  0  0
  6  7  1  0  0  0  0
  7  2  2  0  0  0  0
  8  9  1  0  0  0  0
  9 10  1  0  0  0  0
  9 12  1  0  0  0  0
 11  9  1  0  0  0  0
 12 13  1  1  0  0  0
 14 12  1  0  0  0  0
 15 14  1  0  0  0  0
 16 15  1  0  0  0  0
 17 16  1  0  0  0  0
 18 17  1  0  0  0  0
 19 18  1  0  0  0  0
 20  5  1  0  0  0  0
 21 24  1  6  0  0  0
 21 25  1  0  0  0  0
 23 21  1  0  0  0  0
 23 25  1  0  0  0  0
 25 22  1  6  0  0  0
 25 20  1  0  0  0  0
M  END
>  <MODEL>
5

>  <REMARK>
 VINA RESULT:      -6.4      2.717      3.252
  Name = 
  10 active torsions:
  status: ('A' for Active; 'I' for Inactive)
    1  A    between atoms: C_1  and  N_6
    2  A    between atoms: C_1  and  C_7
    3  A    between atoms: C_3  and  C_4
    4  A    between atoms: C_3  and  N_24
    5  A    between atoms: C_5  and  C_7
    6  A    between atoms: C_5  and  S_8
    7  A    between atoms: N_6  and  N_24
    8  A    between atoms: S_8  and  C_13
    9  A    between atoms: C_12  and  C_17
   10  A    between atoms: C_12  and  C_20
                            x       y       z     vdW  Elec       q    Type
                         _______ _______ _______ _____ _____    ______ ____

>  <TORSDO>
F 10

$$$$
=
 OpenBabel10232408513D

 25 27  0  0  1  0  0  0  0  0999 V2000
  185.7940  178.9770  146.7860 S   0  0  0  0  0  0  0  0  0  0  0  0
  187.8830  177.4400  145.2090 C   0  0  0  0  0  0  0  0  0  0  0  0
  187.5490  177.1540  143.8360 C   0  0  0  0  0  3  0  0  0  0  0  0
  186.3330  177.5450  143.2370 N   0  0  0  0  0  0  0  0  0  0  0  0
  185.3250  178.2550  143.8760 C   0  0  0  0  0  0  0  0  0  0  0  0
  185.6320  178.5300  145.1650 C   0  0  0  0  0  0  0  0  0  0  0  0
  186.8810  178.1280  145.8100 C   0  0  0  0  0  0  0  0  0  0  0  0
  189.4160  176.9680  146.0040 S   0  0  0  0  0  0  0  0  0  0  0  0
  190.4950  177.6650  144.6940 C   0  0  0  0  0  0  0  0  0  0  0  0
  189.9080  178.8110  144.1870 F   0  0  0  0  0  0  0  0  0  0  0  0
  191.7240  178.0030  145.2340 F   0  0  0  0  0  0  0  0  0  0  0  0
  190.7110  176.6730  143.5400 C   0  0  2  0  0  3  0  0  0  0  0  0
  191.7080  175.5700  143.8700 C   0  0  0  0  0  1  0  0  0  0  0  0
  191.0010  177.3340  142.1900 C   0  0  0  0  0  2  0  0  0  0  0  0
  190.0080  176.9690  141.1940 N   0  0  0  0  0  2  0  0  0  0  0  0
  189.1820  178.0870  141.0200 N   0  0  0  0  0  2  0  0  0  0  0  0
  188.5030  177.9210  139.7440 C   0  0  0  0  0  2  0  0  0  0  0  0
  189.4160  178.3350  138.6010 C   0  0  0  0  0  2  0  0  0  0  0  0
  188.8710  179.4310  137.9300 O   0  0  0  0  0  1  0  0  0  0  0  0
  184.0320  178.6040  143.2240 C   0  0  0  0  0  2  0  0  0  0  0  0
  182.9250  178.8170  140.9260 C   0  0  2  0  0  3  0  0  0  0  0  0
  185.2850  179.4730  141.2230 F   0  0  0  0  0  0  0  0  0  0  0  0
  183.7910  177.5620  140.8950 C   0  0  0  0  0  2  0  0  0  0  0  0
  183.1180  179.5420  139.7490 O   0  0  0  0  0  1  0  0  0  0  0  0
  184.2130  178.7520  141.7220 C   0  0  1  0  0  0  0  0  0  0  0  0
  2  7  1  0  0  0  0
  2  8  1  0  0  0  0
  3  2  2  0  0  0  0
  4  3  1  0  0  0  0
  4  5  2  0  0  0  0
  5  6  1  0  0  0  0
  6  7  2  0  0  0  0
  6  1  1  0  0  0  0
  7  1  1  0  0  0  0
  9 11  1  0  0  0  0
  9  8  1  0  0  0  0
 10  9  1  0  0  0  0
 12 13  1  1  0  0  0
 12  9  1  0  0  0  0
 14 12  1  0  0  0  0
 15 14  1  0  0  0  0
 16 15  1  0  0  0  0
 17 16  1  0  0  0  0
 18 17  1  0  0  0  0
 19 18  1  0  0  0  0
 20  5  1  0  0  0  0
 21 24  1  6  0  0  0
 21 25  1  0  0  0  0
 23 21  1  0  0  0  0
 23 25  1  0  0  0  0
 25 22  1  6  0  0  0
 25 20  1  0  0  0  0
M  END
>  <MODEL>
6

>  <REMARK>
 VINA RESULT:      -6.3      3.356      5.715
  Name = 
  10 active torsions:
  status: ('A' for Active; 'I' for Inactive)
    1  A    between atoms: C_1  and  N_6
    2  A    between atoms: C_1  and  C_7
    3  A    between atoms: C_3  and  C_4
    4  A    between atoms: C_3  and  N_24
    5  A    between atoms: C_5  and  C_7
    6  A    between atoms: C_5  and  S_8
    7  A    between atoms: N_6  and  N_24
    8  A    between atoms: S_8  and  C_13
    9  A    between atoms: C_12  and  C_17
   10  A    between atoms: C_12  and  C_20
                            x       y       z     vdW  Elec       q    Type
                         _______ _______ _______ _____ _____    ______ ____

>  <TORSDO>
F 10

$$$$
=
 OpenBabel10232408513D

 25 27  0  0  1  0  0  0  0  0999 V2000
  190.9410  176.7150  139.5240 S   0  0  0  0  0  0  0  0  0  0  0  0
  188.9440  178.0030  141.4140 C   0  0  0  0  0  0  0  0  0  0  0  0
  187.7270  178.4830  140.8090 C   0  0  0  0  0  3  0  0  0  0  0  0
  187.4540  178.3800  139.4290 N   0  0  0  0  0  0  0  0  0  0  0  0
  188.3020  177.8020  138.4930 C   0  0  0  0  0  0  0  0  0  0  0  0
  189.4460  177.3460  139.0520 C   0  0  0  0  0  0  0  0  0  0  0  0
  189.7550  177.4490  140.4780 C   0  0  0  0  0  0  0  0  0  0  0  0
  189.3250  178.1080  143.1590 S   0  0  0  0  0  0  0  0  0  0  0  0
  187.8180  177.2160  143.7040 C   0  0  0  0  0  0  0  0  0  0  0  0
  186.7040  177.8560  143.1880 F   0  0  0  0  0  0  0  0  0  0  0  0
  187.8430  175.9200  143.2210 F   0  0  0  0  0  0  0  0  0  0  0  0
  187.6950  177.1780  145.2360 C   0  0  2  0  0  3  0  0  0  0  0  0
  186.4540  177.8890  145.7600 C   0  0  0  0  0  1  0  0  0  0  0  0
  188.9640  177.6020  145.9790 C   0  0  0  0  0  2  0  0  0  0  0  0
  189.2240  176.7440  147.1230 N   0  0  0  0  0  2  0  0  0  0  0  0
  190.4850  177.1050  147.6180 N   0  0  0  0  0  2  0  0  0  0  0  0
  191.4620  176.7310  146.6080 C   0  0  0  0  0  2  0  0  0  0  0  0
  192.3850  175.6460  147.1390 C   0  0  0  0  0  2  0  0  0  0  0  0
  192.8600  176.0020  148.4020 O   0  0  0  0  0  1  0  0  0  0  0  0
  188.0010  177.7590  137.0350 C   0  0  0  0  0  2  0  0  0  0  0  0
  186.4200  175.7570  136.8170 C   0  0  2  0  0  3  0  0  0  0  0  0
  185.5070  178.0090  137.2450 F   0  0  0  0  0  0  0  0  0  0  0  0
  186.3630  176.5220  135.4990 C   0  0  0  0  0  2  0  0  0  0  0  0
  185.1260  175.4150  137.2110 O   0  0  0  0  0  1  0  0  0  0  0  0
  186.5840  177.2640  136.7950 C   0  0  1  0  0  0  0  0  0  0  0  0
  1  7  1  0  0  0  0
  2  8  1  0  0  0  0
  3  2  1  0  0  0  0
  4  3  2  0  0  0  0
  5  6  2  0  0  0  0
  5  4  1  0  0  0  0
  6  1  1  0  0  0  0
  6  7  1  0  0  0  0
  7  2  2  0  0  0  0
  8  9  1  0  0  0  0
  9 12  1  0  0  0  0
 10  9  1  0  0  0  0
 11  9  1  0  0  0  0
 12 13  1  6  0  0  0
 12 14  1  0  0  0  0
 14 15  1  0  0  0  0
 15 16  1  0  0  0  0
 17 18  1  0  0  0  0
 17 16  1  0  0  0  0
 18 19  1  0  0  0  0
 20  5  1  0  0  0  0
 21 24  1  1  0  0  0
 23 25  1  0  0  0  0
 23 21  1  0  0  0  0
 25 21  1  0  0  0  0
 25 20  1  0  0  0  0
 25 22  1  1  0  0  0
M  END
>  <MODEL>
7

>  <REMARK>
 VINA RESULT:      -6.1      2.857      3.919
  Name = 
  10 active torsions:
  status: ('A' for Active; 'I' for Inactive)
    1  A    between atoms: C_1  and  N_6
    2  A    between atoms: C_1  and  C_7
    3  A    between atoms: C_3  and  C_4
    4  A    between atoms: C_3  and  N_24
    5  A    between atoms: C_5  and  C_7
    6  A    between atoms: C_5  and  S_8
    7  A    between atoms: N_6  and  N_24
    8  A    between atoms: S_8  and  C_13
    9  A    between atoms: C_12  and  C_17
   10  A    between atoms: C_12  and  C_20
                            x       y       z     vdW  Elec       q    Type
                         _______ _______ _______ _____ _____    ______ ____

>  <TORSDO>
F 10

$$$$
=
 OpenBabel10232408513D

 25 27  0  0  1  0  0  0  0  0999 V2000
  191.4790  176.1860  138.7870 S   0  0  0  0  0  0  0  0  0  0  0  0
  189.8180  176.7110  141.2740 C   0  0  0  0  0  0  0  0  0  0  0  0
  188.7840  177.7070  141.1390 C   0  0  0  0  0  3  0  0  0  0  0  0
  188.5390  178.4130  139.9430 N   0  0  0  0  0  0  0  0  0  0  0  0
  189.2400  178.2350  138.7580 C   0  0  0  0  0  0  0  0  0  0  0  0
  190.2120  177.3000  138.8740 C   0  0  0  0  0  0  0  0  0  0  0  0
  190.4900  176.5620  140.1050 C   0  0  0  0  0  0  0  0  0  0  0  0
  190.1570  175.7890  142.7700 S   0  0  0  0  0  0  0  0  0  0  0  0
  191.2180  177.0850  143.5180 C   0  0  0  0  0  0  0  0  0  0  0  0
  191.9770  176.5200  144.5280 F   0  0  0  0  0  0  0  0  0  0  0  0
  192.0750  177.5970  142.5590 F   0  0  0  0  0  0  0  0  0  0  0  0
  190.3880  178.2340  144.1130 C   0  0  2  0  0  3  0  0  0  0  0  0
  191.1100  179.5750  144.0900 C   0  0  0  0  0  1  0  0  0  0  0  0
  189.7800  177.9250  145.4830 C   0  0  0  0  0  2  0  0  0  0  0  0
  188.5870  177.1030  145.3630 N   0  0  0  0  0  2  0  0  0  0  0  0
  187.6220  177.8860  144.7150 N   0  0  0  0  0  2  0  0  0  0  0  0
  186.3420  177.5870  145.3370 C   0  0  0  0  0  2  0  0  0  0  0  0
  186.1610  178.4120  146.6010 C   0  0  0  0  0  2  0  0  0  0  0  0
  184.8310  178.8140  146.7210 O   0  0  0  0  0  1  0  0  0  0  0  0
  188.9850  179.0380  137.5290 C   0  0  0  0  0  2  0  0  0  0  0  0
  187.1060  178.4170  135.9070 C   0  0  2  0  0  3  0  0  0  0  0  0
  189.4210  177.6970  135.4460 F   0  0  0  0  0  0  0  0  0  0  0  0
  187.4090  177.1760  136.7400 C   0  0  0  0  0  2  0  0  0  0  0  0
  186.9770  178.0530  134.5650 O   0  0  0  0  0  1  0  0  0  0  0  0
  188.5150  178.1440  136.3940 C   0  0  1  0  0  0  0  0  0  0  0  0
  1  6  1  0  0  0  0
  1  7  1  0  0  0  0
  2  8  1  0  0  0  0
  3  2  1  0  0  0  0
  4  3  2  0  0  0  0
  5  6  2  0  0  0  0
  5  4  1  0  0  0  0
  6  7  1  0  0  0  0
  7  2  2  0  0  0  0
  8  9  1  0  0  0  0
  9 12  1  0  0  0  0
  9 10  1  0  0  0  0
 11  9  1  0  0  0  0
 12 13  1  1  0  0  0
 12 14  1  0  0  0  0
 15 14  1  0  0  0  0
 16 17  1  0  0  0  0
 16 15  1  0  0  0  0
 17 18  1  0  0  0  0
 18 19  1  0  0  0  0
 20  5  1  0  0  0  0
 21 24  1  6  0  0  0
 21 25  1  0  0  0  0
 21 23  1  0  0  0  0
 25 22  1  6  0  0  0
 25 23  1  0  0  0  0
 25 20  1  0  0  0  0
M  END
>  <MODEL>
8

>  <REMARK>
 VINA RESULT:      -6.1      2.122      2.676
  Name = 
  10 active torsions:
  status: ('A' for Active; 'I' for Inactive)
    1  A    between atoms: C_1  and  N_6
    2  A    between atoms: C_1  and  C_7
    3  A    between atoms: C_3  and  C_4
    4  A    between atoms: C_3  and  N_24
    5  A    between atoms: C_5  and  C_7
    6  A    between atoms: C_5  and  S_8
    7  A    between atoms: N_6  and  N_24
    8  A    between atoms: S_8  and  C_13
    9  A    between atoms: C_12  and  C_17
   10  A    between atoms: C_12  and  C_20
                            x       y       z     vdW  Elec       q    Type
                         _______ _______ _______ _____ _____    ______ ____

>  <TORSDO>
F 10

$$$$
=
 OpenBabel10232408513D

 25 27  0  0  1  0  0  0  0  0999 V2000
  191.2310  179.1410  144.0980 S   0  0  0  0  0  0  0  0  0  0  0  0
  189.9280  177.2020  142.1590 C   0  0  0  0  0  0  0  0  0  0  0  0
  188.7380  176.5410  142.6360 C   0  0  0  0  0  3  0  0  0  0  0  0
  188.1930  176.7590  143.9190 N   0  0  0  0  0  0  0  0  0  0  0  0
  188.7140  177.6290  144.8660 C   0  0  0  0  0  0  0  0  0  0  0  0
  189.8300  178.2550  144.4270 C   0  0  0  0  0  0  0  0  0  0  0  0
  190.4190  178.0410  143.1050 C   0  0  0  0  0  0  0  0  0  0  0  0
  190.6470  176.9610  140.5380 S   0  0  0  0  0  0  0  0  0  0  0  0
  189.2320  177.6890  139.6270 C   0  0  0  0  0  0  0  0  0  0  0  0
  188.1270  176.8700  139.7790 F   0  0  0  0  0  0  0  0  0  0  0  0
  188.9310  178.9340  140.1520 F   0  0  0  0  0  0  0  0  0  0  0  0
  189.5290  177.8370  138.1260 C   0  0  2  0  0  3  0  0  0  0  0  0
  189.0710  179.1690  137.5480 C   0  0  0  0  0  1  0  0  0  0  0  0
  189.0760  176.6480  137.2760 C   0  0  0  0  0  2  0  0  0  0  0  0
  189.9980  175.5290  137.3900 N   0  0  0  0  0  2  0  0  0  0  0  0
  191.0470  175.7790  136.4940 N   0  0  0  0  0  2  0  0  0  0  0  0
  192.2730  175.3360  137.1400 C   0  0  0  0  0  2  0  0  0  0  0  0
  193.0310  176.5240  137.7080 C   0  0  0  0  0  2  0  0  0  0  0  0
  194.1010  176.8490  136.8730 O   0  0  0  0  0  1  0  0  0  0  0  0
  188.1390  177.7910  146.2310 C   0  0  0  0  0  2  0  0  0  0  0  0
  185.9900  179.0360  145.6100 C   0  0  2  0  0  3  0  0  0  0  0  0
  185.9470  176.5910  145.9420 F   0  0  0  0  0  0  0  0  0  0  0  0
  185.9260  178.7450  147.1060 C   0  0  0  0  0  2  0  0  0  0  0  0
  184.7560  178.7410  145.0280 O   0  0  0  0  0  1  0  0  0  0  0  0
  186.6200  177.7790  146.1760 C   0  0  1  0  0  0  0  0  0  0  0  0
  1  6  1  0  0  0  0
  2  3  2  0  0  0  0
  2  7  1  0  0  0  0
  3  4  1  0  0  0  0
  4  5  2  0  0  0  0
  5 20  1  0  0  0  0
  6  5  1  0  0  0  0
  7  1  1  0  0  0  0
  7  6  2  0  0  0  0
  8  2  1  0  0  0  0
  9 10  1  0  0  0  0
  9 11  1  0  0  0  0
  9  8  1  0  0  0  0
 12 13  1  6  0  0  0
 12  9  1  0  0  0  0
 14 15  1  0  0  0  0
 14 12  1  0  0  0  0
 16 17  1  0  0  0  0
 16 15  1  0  0  0  0
 17 18  1  0  0  0  0
 19 18  1  0  0  0  0
 21 24  1  6  0  0  0
 21 25  1  0  0  0  0
 21 23  1  0  0  0  0
 25 22  1  6  0  0  0
 25 20  1  0  0  0  0
 25 23  1  0  0  0  0
M  END
>  <MODEL>
9

>  <REMARK>
 VINA RESULT:      -5.9      2.970      8.293
  Name = 
  10 active torsions:
  status: ('A' for Active; 'I' for Inactive)
    1  A    between atoms: C_1  and  N_6
    2  A    between atoms: C_1  and  C_7
    3  A    between atoms: C_3  and  C_4
    4  A    between atoms: C_3  and  N_24
    5  A    between atoms: C_5  and  C_7
    6  A    between atoms: C_5  and  S_8
    7  A    between atoms: N_6  and  N_24
    8  A    between atoms: S_8  and  C_13
    9  A    between atoms: C_12  and  C_17
   10  A    between atoms: C_12  and  C_20
                            x       y       z     vdW  Elec       q    Type
                         _______ _______ _______ _____ _____    ______ ____

>  <TORSDO>
F 10

$$$$
