=
 OpenBabel10232410413D

 50 54  0  0  1  0  0  0  0  0999 V2000
  185.8370  178.2530  140.5670 C   0  0  0  0  0  0  0  0  0  0  0  0
  187.2670  178.0260  138.7130 C   0  0  2  0  0  3  0  0  0  0  0  0
  187.8910  177.9110  142.1910 C   0  0  0  0  0  0  0  0  0  0  0  0
  184.7040  178.3240  141.3700 O   0  0  0  0  0  1  0  0  0  0  0  0
  187.2120  178.1840  141.0070 C   0  0  0  0  0  0  0  0  0  0  0  0
  185.8430  178.1830  139.2270 C   0  0  0  0  0  0  0  0  0  0  0  0
  190.3790  177.2470  139.5660 C   0  0  0  0  0  2  0  0  0  0  0  0
  189.1940  177.6260  141.7800 C   0  0  0  0  0  0  0  0  0  0  0  0
  188.0160  178.0860  139.9610 N   0  0  0  0  0  0  0  0  0  0  0  0
  189.2340  177.7300  140.3970 C   0  0  0  0  0  0  0  0  0  0  0  0
  190.3660  177.2030  142.6140 C   0  0  1  0  0  3  0  0  0  0  0  0
  191.6610  177.2730  140.4060 C   0  0  0  0  0  2  0  0  0  0  0  0
  191.4580  176.5430  141.7460 C   0  0  0  0  0  2  0  0  0  0  0  0
  182.6120  179.1650  137.5030 C   0  0  0  0  0  3  0  0  0  0  0  0
  184.3630  176.9830  137.6440 C   0  0  0  0  0  3  0  0  0  0  0  0
  182.3380  177.9970  136.7860 C   0  0  0  0  0  3  0  0  0  0  0  0
  184.6370  178.1430  138.3830 C   0  0  0  0  0  0  0  0  0  0  0  0
  183.2170  176.9070  136.8530 C   0  0  0  0  0  3  0  0  0  0  0  0
  184.0260  180.4300  138.9750 O   0  0  0  0  0  1  0  0  0  0  0  0
  183.7590  179.2460  138.2970 C   0  0  0  0  0  0  0  0  0  0  0  0
  187.6370  179.1830  137.7780 C   0  0  1  0  0  3  0  0  0  0  0  0
  188.9370  179.6330  138.0190 O   0  0  0  0  0  1  0  0  0  0  0  0
  187.4930  178.7640  136.3250 C   0  0  0  0  0  2  0  0  0  0  0  0
  187.7700  177.3430  136.1770 N   0  0  0  0  0  2  0  0  0  0  0  0
  189.0080  177.2170  135.4230 C   0  0  0  0  0  2  0  0  0  0  0  0
  189.3030  175.0090  136.2590 O   0  0  0  0  0  0  0  0  0  0  0  0
  191.2350  176.3210  136.1900 N   0  0  0  0  0  2  0  0  0  0  0  0
  189.8390  176.1140  135.9770 C   0  0  0  0  0  0  0  0  0  0  0  0
  192.6010  173.8710  135.5860 C   0  0  0  0  0  1  0  0  0  0  0  0
  191.6010  174.4440  138.0130 O   0  0  0  0  0  0  0  0  0  0  0  0
  192.2650  175.0900  136.8330 S   0  0  0  0  0  0  0  0  0  0  0  0
  193.5590  175.7100  137.2730 O   0  0  0  0  0  0  0  0  0  0  0  0
  187.3820  177.8040  143.5680 C   0  0  0  0  0  3  0  0  0  0  0  0
  186.6530  176.7820  143.9900 C   0  0  0  0  0  2  0  0  0  0  0  0
  190.9060  178.4020  143.3880 C   0  0  0  0  0  2  0  0  0  0  0  0
  191.2040  178.0440  144.8390 C   0  0  0  0  0  2  0  0  0  0  0  0
  190.2390  177.6090  147.6710 O   0  0  0  0  0  0  0  0  0  0  0  0
  190.5170  176.6510  146.6860 C   0  0  1  0  0  3  0  0  0  0  0  0
  190.1540  177.1730  145.3670 N   0  0  0  0  0  0  0  0  0  0  0  0
  189.0430  178.0430  145.6850 C   0  0  0  0  0  2  0  0  0  0  0  0
  189.1370  178.3200  147.1740 C   0  0  1  0  0  3  0  0  0  0  0  0
  191.9490  176.1390  146.7900 C   0  0  0  0  0  1  0  0  0  0  0  0
  187.9960  177.5620  149.1190 O   0  0  0  0  0  0  0  0  0  0  0  0
  187.8960  177.9210  147.9140 C   0  0  0  0  0  0  0  0  0  0  0  0
  186.6610  177.8720  147.2570 O   0  0  0  0  0  0  0  0  0  0  0  0
  185.9230  179.0490  146.9520 C   0  0  0  0  0  2  0  0  0  0  0  0
  184.1830  179.1490  145.1250 C   0  0  0  0  0  0  0  0  0  0  0  0
  184.8920  179.9400  144.4470 O   0  0  0  0  0  0  0  0  0  0  0  0
  182.8970  178.6610  144.5710 C   0  0  0  0  0  1  0  0  0  0  0  0
  184.6210  178.6870  146.4040 N   0  0  0  0  0  2  0  0  0  0  0  0
  1  5  1  0  0  0  0
  1  4  1  0  0  0  0
  2 21  1  6  0  0  0
  2  6  1  0  0  0  0
  2  9  1  0  0  0  0
  3 33  1  0  0  0  0
  5  3  2  0  0  0  0
  6  1  2  0  0  0  0
  7 10  1  0  0  0  0
  7 12  1  0  0  0  0
  8  3  1  0  0  0  0
  8 11  1  0  0  0  0
  9 10  1  0  0  0  0
  9  5  1  0  0  0  0
 10  8  2  0  0  0  0
 11 35  1  6  0  0  0
 12 13  1  0  0  0  0
 13 11  1  0  0  0  0
 14 20  1  0  0  0  0
 15 17  1  0  0  0  0
 16 18  1  0  0  0  0
 16 14  2  0  0  0  0
 17  6  1  0  0  0  0
 18 15  2  0  0  0  0
 20 17  2  0  0  0  0
 20 19  1  0  0  0  0
 21 22  1  6  0  0  0
 23 21  1  0  0  0  0
 24 23  1  0  0  0  0
 25 28  1  0  0  0  0
 25 24  1  0  0  0  0
 27 31  1  0  0  0  0
 28 27  1  0  0  0  0
 28 26  2  0  0  0  0
 29 31  1  0  0  0  0
 31 32  2  0  0  0  0
 31 30  2  0  0  0  0
 33 34  2  0  0  0  0
 35 36  1  0  0  0  0
 36 39  1  0  0  0  0
 38 42  1  6  0  0  0
 38 37  1  0  0  0  0
 39 40  1  0  0  0  0
 39 38  1  0  0  0  0
 40 41  1  0  0  0  0
 41 37  1  0  0  0  0
 41 44  1  1  0  0  0
 44 43  2  0  0  0  0
 45 44  1  0  0  0  0
 46 45  1  0  0  0  0
 47 50  1  0  0  0  0
 48 47  2  0  0  0  0
 49 47  1  0  0  0  0
 50 46  1  0  0  0  0
M  END
>  <MODEL>
1

>  <REMARK>
 VINA RESULT:      -7.6      0.000      0.000
  Name = 
  15 active torsions:
  status: ('A' for Active; 'I' for Inactive)
    1  A    between atoms: C_2  and  C_5
    2  A    between atoms: C_2  and  C_27
    3  A    between atoms: C_9  and  C_11
    4  A    between atoms: C_12  and  C_31
    5  A    between atoms: C_12  and  C_46
    6  A    between atoms: C_18  and  C_25
    7  A    between atoms: N_24  and  S_30
    8  A    between atoms: C_26  and  N_41
    9  A    between atoms: C_26  and  C_43
   10  A    between atoms: C_27  and  N_41
   11  A    between atoms: N_29  and  C_31
   12  A    between atoms: C_32  and  N_38
   13  A    between atoms: C_32  and  O_39
   14  A    between atoms: C_35  and  C_37
   15  A    between atoms: C_35  and  O_39
                            x       y       z     vdW  Elec       q    Type
                         _______ _______ _______ _____ _____    ______ ____

>  <TORSDO>
F 15

$$$$
=
 OpenBabel10232410413D

 50 54  0  0  1  0  0  0  0  0999 V2000
  191.5910  176.3780  138.0840 C   0  0  0  0  0  0  0  0  0  0  0  0
  190.9200  175.1120  136.2180 C   0  0  2  0  0  3  0  0  0  0  0  0
  189.2260  177.5520  138.1350 C   0  0  0  0  0  0  0  0  0  0  0  0
  192.3610  176.9960  139.0620 O   0  0  0  0  0  1  0  0  0  0  0  0
  190.1880  176.6000  137.8130 C   0  0  0  0  0  0  0  0  0  0  0  0
  192.0380  175.4960  137.1770 C   0  0  0  0  0  0  0  0  0  0  0  0
  187.9140  175.9590  135.0920 C   0  0  0  0  0  2  0  0  0  0  0  0
  188.2100  177.3430  137.2010 C   0  0  0  0  0  0  0  0  0  0  0  0
  189.8070  175.8650  136.7810 N   0  0  0  0  0  0  0  0  0  0  0  0
  188.6070  176.3040  136.3720 C   0  0  0  0  0  0  0  0  0  0  0  0
  186.9350  178.1110  137.0180 C   0  0  1  0  0  3  0  0  0  0  0  0
  186.4480  176.4000  135.1760 C   0  0  0  0  0  2  0  0  0  0  0  0
  186.3390  177.8710  135.6150 C   0  0  0  0  0  2  0  0  0  0  0  0
  195.6380  175.1960  136.0280 C   0  0  0  0  0  3  0  0  0  0  0  0
  193.8960  174.0170  137.8780 C   0  0  0  0  0  3  0  0  0  0  0  0
  196.0810  174.1480  136.8400 C   0  0  0  0  0  3  0  0  0  0  0  0
  193.4370  175.0540  137.0540 C   0  0  0  0  0  0  0  0  0  0  0  0
  195.2100  173.5610  137.7690 C   0  0  0  0  0  3  0  0  0  0  0  0
  193.9170  176.7210  135.3370 O   0  0  0  0  0  1  0  0  0  0  0  0
  194.3230  175.6550  136.1330 C   0  0  0  0  0  0  0  0  0  0  0  0
  190.6590  173.6020  136.2650 C   0  0  1  0  0  3  0  0  0  0  0  0
  189.9700  173.2430  137.4250 O   0  0  0  0  0  1  0  0  0  0  0  0
  189.8810  173.1560  135.0390 C   0  0  0  0  0  2  0  0  0  0  0  0
  188.9440  172.1000  135.3890 N   0  0  0  0  0  2  0  0  0  0  0  0
  187.6610  172.4420  134.7930 C   0  0  0  0  0  2  0  0  0  0  0  0
  186.9120  172.3180  137.0480 O   0  0  0  0  0  0  0  0  0  0  0  0
  185.2900  172.9370  135.4850 N   0  0  0  0  0  2  0  0  0  0  0  0
  186.6170  172.5590  135.8470 C   0  0  0  0  0  0  0  0  0  0  0  0
  182.5320  173.6410  135.8570 C   0  0  0  0  0  1  0  0  0  0  0  0
  184.4290  174.0710  137.7110 O   0  0  0  0  0  0  0  0  0  0  0  0
  184.0220  173.0900  136.6520 S   0  0  0  0  0  0  0  0  0  0  0  0
  183.7730  171.7530  137.2870 O   0  0  0  0  0  0  0  0  0  0  0  0
  189.2660  178.6350  139.1310 C   0  0  0  0  0  3  0  0  0  0  0  0
  188.7850  178.5040  140.3580 C   0  0  0  0  0  2  0  0  0  0  0  0
  185.9510  177.7420  138.1230 C   0  0  0  0  0  2  0  0  0  0  0  0
  184.6770  178.5760  138.0380 C   0  0  0  0  0  2  0  0  0  0  0  0
  182.7780  178.7100  140.3870 O   0  0  0  0  0  0  0  0  0  0  0  0
  183.2270  179.7540  139.5660 C   0  0  1  0  0  3  0  0  0  0  0  0
  184.6130  179.5100  139.1630 N   0  0  0  0  0  0  0  0  0  0  0  0
  185.1340  178.7890  140.3040 C   0  0  0  0  0  2  0  0  0  0  0  0
  183.9260  178.2710  141.0620 C   0  0  1  0  0  3  0  0  0  0  0  0
  182.2690  180.0080  138.4080 C   0  0  0  0  0  1  0  0  0  0  0  0
  182.7750  178.8990  143.0470 O   0  0  0  0  0  0  0  0  0  0  0  0
  183.8930  178.7410  142.4850 C   0  0  0  0  0  0  0  0  0  0  0  0
  185.0770  179.0760  143.1510 O   0  0  0  0  0  0  0  0  0  0  0  0
  185.7390  178.1610  144.0170 C   0  0  0  0  0  2  0  0  0  0  0  0
  187.9540  176.9530  143.9570 C   0  0  0  0  0  0  0  0  0  0  0  0
  188.1160  177.1190  145.1950 O   0  0  0  0  0  0  0  0  0  0  0  0
  188.9510  176.1710  143.1870 C   0  0  0  0  0  1  0  0  0  0  0  0
  186.8030  177.4770  143.2920 N   0  0  0  0  0  2  0  0  0  0  0  0
  1  4  1  0  0  0  0
  2 21  1  1  0  0  0
  2  9  1  0  0  0  0
  2  6  1  0  0  0  0
  3 33  1  0  0  0  0
  5  1  1  0  0  0  0
  5  3  2  0  0  0  0
  6  1  2  0  0  0  0
  7 12  1  0  0  0  0
  7 10  1  0  0  0  0
  8  3  1  0  0  0  0
  9  5  1  0  0  0  0
 10  9  1  0  0  0  0
 10  8  2  0  0  0  0
 11  8  1  0  0  0  0
 11 35  1  1  0  0  0
 12 13  1  0  0  0  0
 13 11  1  0  0  0  0
 14 20  2  0  0  0  0
 14 16  1  0  0  0  0
 16 18  2  0  0  0  0
 17  6  1  0  0  0  0
 17 15  2  0  0  0  0
 18 15  1  0  0  0  0
 19 20  1  0  0  0  0
 20 17  1  0  0  0  0
 21 22  1  1  0  0  0
 23 24  1  0  0  0  0
 23 21  1  0  0  0  0
 25 24  1  0  0  0  0
 25 28  1  0  0  0  0
 27 28  1  0  0  0  0
 27 31  1  0  0  0  0
 28 26  2  0  0  0  0
 29 31  1  0  0  0  0
 31 32  2  0  0  0  0
 31 30  2  0  0  0  0
 33 34  2  0  0  0  0
 36 35  1  0  0  0  0
 36 39  1  0  0  0  0
 37 41  1  0  0  0  0
 38 42  1  6  0  0  0
 38 37  1  0  0  0  0
 39 38  1  0  0  0  0
 39 40  1  0  0  0  0
 40 41  1  0  0  0  0
 41 44  1  1  0  0  0
 44 43  2  0  0  0  0
 44 45  1  0  0  0  0
 45 46  1  0  0  0  0
 47 48  2  0  0  0  0
 49 47  1  0  0  0  0
 50 47  1  0  0  0  0
 50 46  1  0  0  0  0
M  END
>  <MODEL>
2

>  <REMARK>
 VINA RESULT:      -7.5      3.022      7.850
  Name = 
  15 active torsions:
  status: ('A' for Active; 'I' for Inactive)
    1  A    between atoms: C_2  and  C_5
    2  A    between atoms: C_2  and  C_27
    3  A    between atoms: C_9  and  C_11
    4  A    between atoms: C_12  and  C_31
    5  A    between atoms: C_12  and  C_46
    6  A    between atoms: C_18  and  C_25
    7  A    between atoms: N_24  and  S_30
    8  A    between atoms: C_26  and  N_41
    9  A    between atoms: C_26  and  C_43
   10  A    between atoms: C_27  and  N_41
   11  A    between atoms: N_29  and  C_31
   12  A    between atoms: C_32  and  N_38
   13  A    between atoms: C_32  and  O_39
   14  A    between atoms: C_35  and  C_37
   15  A    between atoms: C_35  and  O_39
                            x       y       z     vdW  Elec       q    Type
                         _______ _______ _______ _____ _____    ______ ____

>  <TORSDO>
F 15

$$$$
=
 OpenBabel10232410413D

 50 54  0  0  1  0  0  0  0  0999 V2000
  187.5480  177.3370  145.9950 C   0  0  0  0  0  0  0  0  0  0  0  0
  189.0010  177.4550  144.1480 C   0  0  2  0  0  3  0  0  0  0  0  0
  185.5180  177.9920  144.4390 C   0  0  0  0  0  0  0  0  0  0  0  0
  187.0510  177.2790  147.2920 O   0  0  0  0  0  1  0  0  0  0  0  0
  186.7910  177.5450  144.7820 C   0  0  0  0  0  0  0  0  0  0  0  0
  188.8430  177.2610  145.6490 C   0  0  0  0  0  0  0  0  0  0  0  0
  187.5000  178.5290  141.3880 C   0  0  0  0  0  2  0  0  0  0  0  0
  185.6220  178.3160  143.0850 C   0  0  0  0  0  0  0  0  0  0  0  0
  187.6080  177.5820  143.7420 N   0  0  0  0  0  0  0  0  0  0  0  0
  186.9280  178.0650  142.6900 C   0  0  0  0  0  0  0  0  0  0  0  0
  184.5800  178.9050  142.1820 C   0  0  1  0  0  3  0  0  0  0  0  0
  186.3700  178.6800  140.3640 C   0  0  0  0  0  2  0  0  0  0  0  0
  185.2230  179.5370  140.9300 C   0  0  0  0  0  2  0  0  0  0  0  0
  191.1190  177.7790  148.6380 C   0  0  0  0  0  3  0  0  0  0  0  0
  190.9670  176.1890  146.3370 C   0  0  0  0  0  3  0  0  0  0  0  0
  192.1270  176.8540  148.3560 C   0  0  0  0  0  3  0  0  0  0  0  0
  189.9600  177.1280  146.6000 C   0  0  0  0  0  0  0  0  0  0  0  0
  192.0490  176.0550  147.2070 C   0  0  0  0  0  3  0  0  0  0  0  0
  189.0260  178.8220  148.0880 O   0  0  0  0  0  1  0  0  0  0  0  0
  190.0330  177.9170  147.7690 C   0  0  0  0  0  0  0  0  0  0  0  0
  189.6640  176.2300  143.5090 C   0  0  1  0  0  3  0  0  0  0  0  0
  188.7220  175.4160  142.8770 O   0  0  0  0  0  1  0  0  0  0  0  0
  190.7320  176.6570  142.5160 C   0  0  0  0  0  2  0  0  0  0  0  0
  190.4110  176.1680  141.1840 N   0  0  0  0  0  2  0  0  0  0  0  0
  190.8290  177.1880  140.2340 C   0  0  0  0  0  2  0  0  0  0  0  0
  189.9970  175.9880  138.3550 O   0  0  0  0  0  0  0  0  0  0  0  0
  189.3250  178.2210  138.4970 N   0  0  0  0  0  2  0  0  0  0  0  0
  190.0340  177.0810  138.9810 C   0  0  0  0  0  0  0  0  0  0  0  0
  187.1840  176.8700  137.1440 C   0  0  0  0  0  1  0  0  0  0  0  0
  189.2850  177.9580  135.8680 O   0  0  0  0  0  0  0  0  0  0  0  0
  188.3840  178.1770  137.0470 S   0  0  0  0  0  0  0  0  0  0  0  0
  187.6680  179.4870  136.8840 O   0  0  0  0  0  0  0  0  0  0  0  0
  184.3360  178.2140  145.2860 C   0  0  0  0  0  3  0  0  0  0  0  0
  183.4390  179.1570  145.0390 C   0  0  0  0  0  2  0  0  0  0  0  0
  183.5560  177.8360  141.8140 C   0  0  0  0  0  2  0  0  0  0  0  0
  182.3220  178.4460  141.1580 C   0  0  0  0  0  2  0  0  0  0  0  0
  182.6920  178.5110  138.1590 O   0  0  0  0  0  0  0  0  0  0  0  0
  181.5150  178.2960  138.8890 C   0  0  1  0  0  3  0  0  0  0  0  0
  181.8170  177.5540  140.1140 N   0  0  0  0  0  0  0  0  0  0  0  0
  182.9460  176.7470  139.7040 C   0  0  0  0  0  2  0  0  0  0  0  0
  183.4980  177.4020  138.4510 C   0  0  1  0  0  3  0  0  0  0  0  0
  180.7490  179.5960  139.1110 C   0  0  0  0  0  1  0  0  0  0  0  0
  183.4200  176.9480  136.1180 O   0  0  0  0  0  0  0  0  0  0  0  0
  183.5280  176.4680  137.2790 C   0  0  0  0  0  0  0  0  0  0  0  0
  183.5960  175.0840  137.4740 O   0  0  0  0  0  0  0  0  0  0  0  0
  183.8020  174.1800  136.3950 C   0  0  0  0  0  2  0  0  0  0  0  0
  186.0280  173.2580  137.1460 C   0  0  0  0  0  0  0  0  0  0  0  0
  185.5300  172.8420  138.2250 O   0  0  0  0  0  0  0  0  0  0  0  0
  187.4510  172.9740  136.8400 C   0  0  0  0  0  1  0  0  0  0  0  0
  185.2300  173.9660  136.1960 N   0  0  0  0  0  2  0  0  0  0  0  0
  1  4  1  0  0  0  0
  2 21  1  6  0  0  0
  2  6  1  0  0  0  0
  3  5  2  0  0  0  0
  3 33  1  0  0  0  0
  5  1  1  0  0  0  0
  6  1  2  0  0  0  0
  6 17  1  0  0  0  0
  7 10  1  0  0  0  0
  8  3  1  0  0  0  0
  9  2  1  0  0  0  0
  9  5  1  0  0  0  0
 10  8  2  0  0  0  0
 10  9  1  0  0  0  0
 11 35  1  6  0  0  0
 11  8  1  0  0  0  0
 12 13  1  0  0  0  0
 12  7  1  0  0  0  0
 13 11  1  0  0  0  0
 15 17  2  0  0  0  0
 15 18  1  0  0  0  0
 16 14  1  0  0  0  0
 17 20  1  0  0  0  0
 18 16  2  0  0  0  0
 20 19  1  0  0  0  0
 20 14  2  0  0  0  0
 21 22  1  6  0  0  0
 23 21  1  0  0  0  0
 24 23  1  0  0  0  0
 25 24  1  0  0  0  0
 26 28  2  0  0  0  0
 27 28  1  0  0  0  0
 28 25  1  0  0  0  0
 30 31  2  0  0  0  0
 31 29  1  0  0  0  0
 31 27  1  0  0  0  0
 32 31  2  0  0  0  0
 34 33  2  0  0  0  0
 36 35  1  0  0  0  0
 37 41  1  0  0  0  0
 37 38  1  0  0  0  0
 38 42  1  1  0  0  0
 38 39  1  0  0  0  0
 39 36  1  0  0  0  0
 40 39  1  0  0  0  0
 41 44  1  6  0  0  0
 41 40  1  0  0  0  0
 43 44  2  0  0  0  0
 44 45  1  0  0  0  0
 46 45  1  0  0  0  0
 47 48  2  0  0  0  0
 49 47  1  0  0  0  0
 50 46  1  0  0  0  0
 50 47  1  0  0  0  0
M  END
>  <MODEL>
3

>  <REMARK>
 VINA RESULT:      -7.4      2.639      8.659
  Name = 
  15 active torsions:
  status: ('A' for Active; 'I' for Inactive)
    1  A    between atoms: C_2  and  C_5
    2  A    between atoms: C_2  and  C_27
    3  A    between atoms: C_9  and  C_11
    4  A    between atoms: C_12  and  C_31
    5  A    between atoms: C_12  and  C_46
    6  A    between atoms: C_18  and  C_25
    7  A    between atoms: N_24  and  S_30
    8  A    between atoms: C_26  and  N_41
    9  A    between atoms: C_26  and  C_43
   10  A    between atoms: C_27  and  N_41
   11  A    between atoms: N_29  and  C_31
   12  A    between atoms: C_32  and  N_38
   13  A    between atoms: C_32  and  O_39
   14  A    between atoms: C_35  and  C_37
   15  A    between atoms: C_35  and  O_39
                            x       y       z     vdW  Elec       q    Type
                         _______ _______ _______ _____ _____    ______ ____

>  <TORSDO>
F 15

$$$$
=
 OpenBabel10232410413D

 50 54  0  0  1  0  0  0  0  0999 V2000
  185.6080  178.2930  145.3150 C   0  0  0  0  0  0  0  0  0  0  0  0
  187.3630  177.9550  143.7850 C   0  0  2  0  0  3  0  0  0  0  0  0
  183.9490  178.7400  143.3110 C   0  0  0  0  0  0  0  0  0  0  0  0
  184.8910  178.5240  146.4830 O   0  0  0  0  0  1  0  0  0  0  0  0
  185.0950  178.2980  143.9640 C   0  0  0  0  0  0  0  0  0  0  0  0
  186.9300  178.0750  145.2390 C   0  0  0  0  0  0  0  0  0  0  0  0
  186.4700  178.5410  140.6420 C   0  0  0  0  0  2  0  0  0  0  0  0
  184.3150  178.7810  141.9650 C   0  0  0  0  0  0  0  0  0  0  0  0
  186.0800  178.0790  143.1070 N   0  0  0  0  0  0  0  0  0  0  0  0
  185.6400  178.3800  141.8750 C   0  0  0  0  0  0  0  0  0  0  0  0
  183.5050  179.2360  140.7880 C   0  0  1  0  0  3  0  0  0  0  0  0
  185.5530  178.5490  139.4130 C   0  0  0  0  0  2  0  0  0  0  0  0
  184.4110  179.5670  139.5840 C   0  0  0  0  0  2  0  0  0  0  0  0
  190.0840  178.2000  147.3390 C   0  0  0  0  0  3  0  0  0  0  0  0
  187.3200  177.9050  147.6790 C   0  0  0  0  0  3  0  0  0  0  0  0
  189.5500  178.0160  148.6170 C   0  0  0  0  0  3  0  0  0  0  0  0
  187.8480  178.0690  146.3910 C   0  0  0  0  0  0  0  0  0  0  0  0
  188.1660  177.8720  148.7880 C   0  0  0  0  0  3  0  0  0  0  0  0
  189.7940  178.4500  144.9680 O   0  0  0  0  0  1  0  0  0  0  0  0
  189.2410  178.2330  146.2260 C   0  0  0  0  0  0  0  0  0  0  0  0
  188.0100  176.5910  143.5220 C   0  0  1  0  0  3  0  0  0  0  0  0
  187.0620  175.5660  143.5580 O   0  0  0  0  0  1  0  0  0  0  0  0
  188.7260  176.5880  142.1820 C   0  0  0  0  0  2  0  0  0  0  0  0
  190.1500  176.3540  142.3680 N   0  0  0  0  0  2  0  0  0  0  0  0
  190.8610  177.3270  141.5530 C   0  0  0  0  0  2  0  0  0  0  0  0
  189.9800  178.0750  139.4730 O   0  0  0  0  0  0  0  0  0  0  0  0
  190.8230  175.8960  139.4800 N   0  0  0  0  0  2  0  0  0  0  0  0
  190.5270  177.1390  140.1160 C   0  0  0  0  0  0  0  0  0  0  0  0
  188.7520  175.9620  137.4930 C   0  0  0  0  0  1  0  0  0  0  0  0
  190.7520  174.1660  137.4840 O   0  0  0  0  0  0  0  0  0  0  0  0
  190.4610  175.6000  137.8150 S   0  0  0  0  0  0  0  0  0  0  0  0
  191.3180  176.4870  136.9600 O   0  0  0  0  0  0  0  0  0  0  0  0
  182.6630  179.1950  143.8640 C   0  0  0  0  0  3  0  0  0  0  0  0
  181.5870  178.4250  143.9170 C   0  0  0  0  0  2  0  0  0  0  0  0
  182.4640  178.1770  140.4390 C   0  0  0  0  0  2  0  0  0  0  0  0
  181.6590  178.5680  139.2050 C   0  0  0  0  0  2  0  0  0  0  0  0
  182.6660  177.2830  136.6610 O   0  0  0  0  0  0  0  0  0  0  0  0
  181.3420  177.5310  137.0500 C   0  0  1  0  0  3  0  0  0  0  0  0
  181.2100  177.3680  138.4990 N   0  0  0  0  0  0  0  0  0  0  0  0
  182.2010  176.3520  138.7780 C   0  0  0  0  0  2  0  0  0  0  0  0
  183.1350  176.3350  137.5820 C   0  0  1  0  0  3  0  0  0  0  0  0
  180.8420  178.8680  136.5160 C   0  0  0  0  0  1  0  0  0  0  0  0
  182.4430  174.0730  137.3310 O   0  0  0  0  0  0  0  0  0  0  0  0
  183.2140  174.9860  136.9310 C   0  0  0  0  0  0  0  0  0  0  0  0
  184.1800  174.7250  135.9530 O   0  0  0  0  0  0  0  0  0  0  0  0
  184.4620  173.4040  135.5070 C   0  0  0  0  0  2  0  0  0  0  0  0
  186.3870  172.7810  137.0160 C   0  0  0  0  0  0  0  0  0  0  0  0
  185.6440  172.8110  138.0330 O   0  0  0  0  0  0  0  0  0  0  0  0
  187.8060  172.3730  137.1580 C   0  0  0  0  0  1  0  0  0  0  0  0
  185.8710  173.1000  135.7230 N   0  0  0  0  0  2  0  0  0  0  0  0
  1  4  1  0  0  0  0
  2 21  1  1  0  0  0
  2  6  1  0  0  0  0
  3 33  1  0  0  0  0
  3  5  2  0  0  0  0
  5  1  1  0  0  0  0
  6  1  2  0  0  0  0
  6 17  1  0  0  0  0
  7 10  1  0  0  0  0
  8  3  1  0  0  0  0
  9  2  1  0  0  0  0
  9  5  1  0  0  0  0
 10  8  2  0  0  0  0
 10  9  1  0  0  0  0
 11 35  1  6  0  0  0
 11  8  1  0  0  0  0
 12 13  1  0  0  0  0
 12  7  1  0  0  0  0
 13 11  1  0  0  0  0
 14 16  1  0  0  0  0
 15 18  1  0  0  0  0
 16 18  2  0  0  0  0
 17 15  2  0  0  0  0
 19 20  1  0  0  0  0
 20 17  1  0  0  0  0
 20 14  2  0  0  0  0
 21 22  1  6  0  0  0
 23 24  1  0  0  0  0
 23 21  1  0  0  0  0
 25 24  1  0  0  0  0
 26 28  2  0  0  0  0
 27 28  1  0  0  0  0
 28 25  1  0  0  0  0
 29 31  1  0  0  0  0
 30 31  2  0  0  0  0
 31 27  1  0  0  0  0
 32 31  2  0  0  0  0
 33 34  2  0  0  0  0
 36 35  1  0  0  0  0
 37 38  1  0  0  0  0
 37 41  1  0  0  0  0
 38 42  1  1  0  0  0
 38 39  1  0  0  0  0
 39 40  1  0  0  0  0
 39 36  1  0  0  0  0
 41 44  1  6  0  0  0
 41 40  1  0  0  0  0
 44 43  2  0  0  0  0
 45 44  1  0  0  0  0
 46 50  1  0  0  0  0
 46 45  1  0  0  0  0
 47 49  1  0  0  0  0
 47 48  2  0  0  0  0
 50 47  1  0  0  0  0
M  END
>  <MODEL>
4

>  <REMARK>
 VINA RESULT:      -7.2      2.770      8.781
  Name = 
  15 active torsions:
  status: ('A' for Active; 'I' for Inactive)
    1  A    between atoms: C_2  and  C_5
    2  A    between atoms: C_2  and  C_27
    3  A    between atoms: C_9  and  C_11
    4  A    between atoms: C_12  and  C_31
    5  A    between atoms: C_12  and  C_46
    6  A    between atoms: C_18  and  C_25
    7  A    between atoms: N_24  and  S_30
    8  A    between atoms: C_26  and  N_41
    9  A    between atoms: C_26  and  C_43
   10  A    between atoms: C_27  and  N_41
   11  A    between atoms: N_29  and  C_31
   12  A    between atoms: C_32  and  N_38
   13  A    between atoms: C_32  and  O_39
   14  A    between atoms: C_35  and  C_37
   15  A    between atoms: C_35  and  O_39
                            x       y       z     vdW  Elec       q    Type
                         _______ _______ _______ _____ _____    ______ ____

>  <TORSDO>
F 15

$$$$
=
 OpenBabel10232410413D

 50 54  0  0  1  0  0  0  0  0999 V2000
  187.5380  177.3390  145.8560 C   0  0  0  0  0  0  0  0  0  0  0  0
  188.9990  177.4160  144.0130 C   0  0  2  0  0  3  0  0  0  0  0  0
  185.5250  178.0130  144.2860 C   0  0  0  0  0  0  0  0  0  0  0  0
  187.0350  177.3010  147.1510 O   0  0  0  0  0  1  0  0  0  0  0  0
  186.7890  177.5490  144.6380 C   0  0  0  0  0  0  0  0  0  0  0  0
  188.8320  177.2390  145.5160 C   0  0  0  0  0  0  0  0  0  0  0  0
  187.5270  178.4890  141.2380 C   0  0  0  0  0  2  0  0  0  0  0  0
  185.6390  178.3230  142.9300 C   0  0  0  0  0  0  0  0  0  0  0  0
  187.6100  177.5620  143.6010 N   0  0  0  0  0  0  0  0  0  0  0  0
  186.9420  178.0460  142.5410 C   0  0  0  0  0  0  0  0  0  0  0  0
  184.6110  178.9210  142.0170 C   0  0  1  0  0  3  0  0  0  0  0  0
  186.4030  178.6500  140.2080 C   0  0  0  0  0  2  0  0  0  0  0  0
  185.2690  179.5310  140.7620 C   0  0  0  0  0  2  0  0  0  0  0  0
  191.0770  177.7080  148.5360 C   0  0  0  0  0  3  0  0  0  0  0  0
  190.9650  176.1770  146.1930 C   0  0  0  0  0  3  0  0  0  0  0  0
  192.1000  176.8050  148.2380 C   0  0  0  0  0  3  0  0  0  0  0  0
  189.9430  177.0950  146.4720 C   0  0  0  0  0  0  0  0  0  0  0  0
  192.0430  176.0360  147.0680 C   0  0  0  0  0  3  0  0  0  0  0  0
  188.9740  178.7360  147.9970 O   0  0  0  0  0  1  0  0  0  0  0  0
  189.9960  177.8540  147.6620 C   0  0  0  0  0  0  0  0  0  0  0  0
  189.6440  176.1740  143.3890 C   0  0  1  0  0  3  0  0  0  0  0  0
  188.6820  175.3330  142.8250 O   0  0  0  0  0  1  0  0  0  0  0  0
  190.6650  176.5740  142.3370 C   0  0  0  0  0  2  0  0  0  0  0  0
  190.1480  176.3160  141.0020 N   0  0  0  0  0  2  0  0  0  0  0  0
  190.8760  177.1740  140.0800 C   0  0  0  0  0  2  0  0  0  0  0  0
  190.7110  175.3980  138.5040 O   0  0  0  0  0  0  0  0  0  0  0  0
  192.6190  176.7340  138.3140 N   0  0  0  0  0  2  0  0  0  0  0  0
  191.3800  176.3800  138.9270 C   0  0  0  0  0  0  0  0  0  0  0  0
  193.6880  174.2060  137.4750 C   0  0  0  0  0  1  0  0  0  0  0  0
  194.4940  176.5600  136.4600 O   0  0  0  0  0  0  0  0  0  0  0  0
  193.2710  175.8580  136.9730 S   0  0  0  0  0  0  0  0  0  0  0  0
  192.2440  175.7930  135.8800 O   0  0  0  0  0  0  0  0  0  0  0  0
  184.3430  178.2630  145.1270 C   0  0  0  0  0  3  0  0  0  0  0  0
  184.4210  178.7710  146.3470 C   0  0  0  0  0  2  0  0  0  0  0  0
  183.5700  177.8660  141.6550 C   0  0  0  0  0  2  0  0  0  0  0  0
  182.3420  178.4920  141.0030 C   0  0  0  0  0  2  0  0  0  0  0  0
  183.0270  178.4610  138.0590 O   0  0  0  0  0  0  0  0  0  0  0  0
  181.7640  178.3820  138.6630 C   0  0  1  0  0  3  0  0  0  0  0  0
  181.8590  177.6360  139.9190 N   0  0  0  0  0  0  0  0  0  0  0  0
  182.9350  176.7110  139.6370 C   0  0  0  0  0  2  0  0  0  0  0  0
  183.6800  177.2820  138.4440 C   0  0  1  0  0  3  0  0  0  0  0  0
  181.1180  179.7560  138.7920 C   0  0  0  0  0  1  0  0  0  0  0  0
  182.9940  175.3070  137.3090 O   0  0  0  0  0  0  0  0  0  0  0  0
  183.7350  176.3270  137.2890 C   0  0  0  0  0  0  0  0  0  0  0  0
  184.6480  176.5240  136.2480 O   0  0  0  0  0  0  0  0  0  0  0  0
  185.9120  175.8720  136.2200 C   0  0  0  0  0  2  0  0  0  0  0  0
  187.5960  177.7510  136.3000 C   0  0  0  0  0  0  0  0  0  0  0  0
  187.4220  178.0040  135.0790 O   0  0  0  0  0  0  0  0  0  0  0  0
  188.5060  178.6040  137.1020 C   0  0  0  0  0  1  0  0  0  0  0  0
  186.8980  176.6760  136.9320 N   0  0  0  0  0  2  0  0  0  0  0  0
  1  4  1  0  0  0  0
  2 21  1  6  0  0  0
  2  6  1  0  0  0  0
  3  5  2  0  0  0  0
  3 33  1  0  0  0  0
  5  1  1  0  0  0  0
  6  1  2  0  0  0  0
  6 17  1  0  0  0  0
  7 10  1  0  0  0  0
  8  3  1  0  0  0  0
  9  2  1  0  0  0  0
  9  5  1  0  0  0  0
 10  8  2  0  0  0  0
 10  9  1  0  0  0  0
 11 35  1  6  0  0  0
 11  8  1  0  0  0  0
 12 13  1  0  0  0  0
 12  7  1  0  0  0  0
 13 11  1  0  0  0  0
 15 17  2  0  0  0  0
 15 18  1  0  0  0  0
 16 14  1  0  0  0  0
 17 20  1  0  0  0  0
 18 16  2  0  0  0  0
 20 19  1  0  0  0  0
 20 14  2  0  0  0  0
 21 22  1  6  0  0  0
 23 21  1  0  0  0  0
 24 23  1  0  0  0  0
 25 24  1  0  0  0  0
 26 28  2  0  0  0  0
 27 28  1  0  0  0  0
 28 25  1  0  0  0  0
 30 31  2  0  0  0  0
 31 29  1  0  0  0  0
 31 27  1  0  0  0  0
 32 31  2  0  0  0  0
 33 34  2  0  0  0  0
 36 35  1  0  0  0  0
 37 41  1  0  0  0  0
 37 38  1  0  0  0  0
 38 42  1  1  0  0  0
 38 39  1  0  0  0  0
 39 36  1  0  0  0  0
 40 39  1  0  0  0  0
 41 44  1  6  0  0  0
 41 40  1  0  0  0  0
 44 43  2  0  0  0  0
 45 44  1  0  0  0  0
 46 45  1  0  0  0  0
 46 50  1  0  0  0  0
 47 50  1  0  0  0  0
 47 49  1  0  0  0  0
 48 47  2  0  0  0  0
M  END
>  <MODEL>
5

>  <REMARK>
 VINA RESULT:      -7.2      2.281      8.380
  Name = 
  15 active torsions:
  status: ('A' for Active; 'I' for Inactive)
    1  A    between atoms: C_2  and  C_5
    2  A    between atoms: C_2  and  C_27
    3  A    between atoms: C_9  and  C_11
    4  A    between atoms: C_12  and  C_31
    5  A    between atoms: C_12  and  C_46
    6  A    between atoms: C_18  and  C_25
    7  A    between atoms: N_24  and  S_30
    8  A    between atoms: C_26  and  N_41
    9  A    between atoms: C_26  and  C_43
   10  A    between atoms: C_27  and  N_41
   11  A    between atoms: N_29  and  C_31
   12  A    between atoms: C_32  and  N_38
   13  A    between atoms: C_32  and  O_39
   14  A    between atoms: C_35  and  C_37
   15  A    between atoms: C_35  and  O_39
                            x       y       z     vdW  Elec       q    Type
                         _______ _______ _______ _____ _____    ______ ____

>  <TORSDO>
F 15

$$$$
=
 OpenBabel10232410413D

 50 54  0  0  1  0  0  0  0  0999 V2000
  188.3600  177.5150  139.3360 C   0  0  0  0  0  0  0  0  0  0  0  0
  190.5090  176.5580  139.3750 C   0  0  2  0  0  3  0  0  0  0  0  0
  188.3510  177.5960  141.9760 C   0  0  0  0  0  0  0  0  0  0  0  0
  187.1040  177.9430  138.9220 O   0  0  0  0  0  1  0  0  0  0  0  0
  188.8700  177.4980  140.6880 C   0  0  0  0  0  0  0  0  0  0  0  0
  189.3070  176.9890  138.5450 C   0  0  0  0  0  0  0  0  0  0  0  0
  191.5720  175.8860  142.4470 C   0  0  0  0  0  2  0  0  0  0  0  0
  189.3620  177.0900  142.7940 C   0  0  0  0  0  0  0  0  0  0  0  0
  190.0910  176.9860  140.7030 N   0  0  0  0  0  0  0  0  0  0  0  0
  190.4170  176.7100  141.9750 C   0  0  0  0  0  0  0  0  0  0  0  0
  189.3530  176.8920  144.2800 C   0  0  1  0  0  3  0  0  0  0  0  0
  191.7660  176.1020  143.9520 C   0  0  0  0  0  2  0  0  0  0  0  0
  190.4460  175.8930  144.7150 C   0  0  0  0  0  2  0  0  0  0  0  0
  188.9750  177.5620  134.8120 C   0  0  0  0  0  3  0  0  0  0  0  0
  189.0390  175.4360  136.6350 C   0  0  0  0  0  3  0  0  0  0  0  0
  188.8370  176.2460  134.3610 C   0  0  0  0  0  3  0  0  0  0  0  0
  189.1580  176.7540  137.0990 C   0  0  0  0  0  0  0  0  0  0  0  0
  188.8730  175.1820  135.2730 C   0  0  0  0  0  3  0  0  0  0  0  0
  189.3070  179.1370  136.5950 O   0  0  0  0  0  1  0  0  0  0  0  0
  189.1400  177.8210  136.1750 C   0  0  0  0  0  0  0  0  0  0  0  0
  191.7740  177.2930  138.9190 C   0  0  1  0  0  3  0  0  0  0  0  0
  192.6670  177.4700  139.9790 O   0  0  0  0  0  1  0  0  0  0  0  0
  192.4530  176.5380  137.7880 C   0  0  0  0  0  2  0  0  0  0  0  0
  193.7680  176.0750  138.2040 N   0  0  0  0  0  2  0  0  0  0  0  0
  193.9520  174.7400  137.6560 C   0  0  0  0  0  2  0  0  0  0  0  0
  195.5860  174.1710  136.0220 O   0  0  0  0  0  0  0  0  0  0  0  0
  196.4300  174.8220  138.1020 N   0  0  0  0  0  2  0  0  0  0  0  0
  195.3560  174.5590  137.1990 C   0  0  0  0  0  0  0  0  0  0  0  0
  198.4390  172.9170  137.3420 C   0  0  0  0  0  1  0  0  0  0  0  0
  198.9730  175.1490  138.7410 O   0  0  0  0  0  0  0  0  0  0  0  0
  198.0880  174.6310  137.6460 S   0  0  0  0  0  0  0  0  0  0  0  0
  198.3460  175.4130  136.3910 O   0  0  0  0  0  0  0  0  0  0  0  0
  187.0100  178.0070  142.4240 C   0  0  0  0  0  3  0  0  0  0  0  0
  186.3940  179.0830  141.9600 C   0  0  0  0  0  2  0  0  0  0  0  0
  189.5050  178.2390  144.9790 C   0  0  0  0  0  2  0  0  0  0  0  0
  189.2180  178.1300  146.4720 C   0  0  0  0  0  2  0  0  0  0  0  0
  186.5660  179.1740  147.4770 O   0  0  0  0  0  0  0  0  0  0  0  0
  187.2390  178.0010  147.8470 C   0  0  1  0  0  3  0  0  0  0  0  0
  187.9430  177.4460  146.6890 N   0  0  0  0  0  0  0  0  0  0  0  0
  187.0870  177.8520  145.5960 C   0  0  0  0  0  2  0  0  0  0  0  0
  186.2240  178.9790  146.1320 C   0  0  1  0  0  3  0  0  0  0  0  0
  188.1170  178.2220  149.0740 C   0  0  0  0  0  1  0  0  0  0  0  0
  184.1070  178.4130  147.0570 O   0  0  0  0  0  0  0  0  0  0  0  0
  184.7580  178.6890  146.0130 C   0  0  0  0  0  0  0  0  0  0  0  0
  184.1410  178.6480  144.7580 O   0  0  0  0  0  0  0  0  0  0  0  0
  182.8280  179.1540  144.5470 C   0  0  0  0  0  2  0  0  0  0  0  0
  181.1910  178.9820  142.6330 C   0  0  0  0  0  0  0  0  0  0  0  0
  180.2360  178.7640  143.4260 O   0  0  0  0  0  0  0  0  0  0  0  0
  180.9230  179.1020  141.1800 C   0  0  0  0  0  1  0  0  0  0  0  0
  182.5230  179.1540  143.1210 N   0  0  0  0  0  2  0  0  0  0  0  0
  1  5  1  0  0  0  0
  2 21  1  6  0  0  0
  2  9  1  0  0  0  0
  3 33  1  0  0  0  0
  3  8  1  0  0  0  0
  4  1  1  0  0  0  0
  5  9  1  0  0  0  0
  5  3  2  0  0  0  0
  6  1  2  0  0  0  0
  6  2  1  0  0  0  0
  7 12  1  0  0  0  0
  8 11  1  0  0  0  0
  9 10  1  0  0  0  0
 10  7  1  0  0  0  0
 10  8  2  0  0  0  0
 11 13  1  0  0  0  0
 11 35  1  1  0  0  0
 12 13  1  0  0  0  0
 14 20  1  0  0  0  0
 15 17  1  0  0  0  0
 16 14  2  0  0  0  0
 16 18  1  0  0  0  0
 17  6  1  0  0  0  0
 18 15  2  0  0  0  0
 20 19  1  0  0  0  0
 20 17  2  0  0  0  0
 21 22  1  1  0  0  0
 23 24  1  0  0  0  0
 23 21  1  0  0  0  0
 25 24  1  0  0  0  0
 26 28  2  0  0  0  0
 28 25  1  0  0  0  0
 28 27  1  0  0  0  0
 29 31  1  0  0  0  0
 31 27  1  0  0  0  0
 31 30  2  0  0  0  0
 32 31  2  0  0  0  0
 34 33  2  0  0  0  0
 35 36  1  0  0  0  0
 36 39  1  0  0  0  0
 37 38  1  0  0  0  0
 38 42  1  1  0  0  0
 39 38  1  0  0  0  0
 40 41  1  0  0  0  0
 40 39  1  0  0  0  0
 41 44  1  1  0  0  0
 41 37  1  0  0  0  0
 44 43  2  0  0  0  0
 45 44  1  0  0  0  0
 46 45  1  0  0  0  0
 47 50  1  0  0  0  0
 47 48  2  0  0  0  0
 49 47  1  0  0  0  0
 50 46  1  0  0  0  0
M  END
>  <MODEL>
6

>  <REMARK>
 VINA RESULT:      -7.1      2.745      4.483
  Name = 
  15 active torsions:
  status: ('A' for Active; 'I' for Inactive)
    1  A    between atoms: C_2  and  C_5
    2  A    between atoms: C_2  and  C_27
    3  A    between atoms: C_9  and  C_11
    4  A    between atoms: C_12  and  C_31
    5  A    between atoms: C_12  and  C_46
    6  A    between atoms: C_18  and  C_25
    7  A    between atoms: N_24  and  S_30
    8  A    between atoms: C_26  and  N_41
    9  A    between atoms: C_26  and  C_43
   10  A    between atoms: C_27  and  N_41
   11  A    between atoms: N_29  and  C_31
   12  A    between atoms: C_32  and  N_38
   13  A    between atoms: C_32  and  O_39
   14  A    between atoms: C_35  and  C_37
   15  A    between atoms: C_35  and  O_39
                            x       y       z     vdW  Elec       q    Type
                         _______ _______ _______ _____ _____    ______ ____

>  <TORSDO>
F 15

$$$$
=
 OpenBabel10232410413D

 50 54  0  0  1  0  0  0  0  0999 V2000
  191.1190  176.3760  137.3380 C   0  0  0  0  0  0  0  0  0  0  0  0
  192.5920  176.1940  139.1630 C   0  0  2  0  0  3  0  0  0  0  0  0
  189.1730  177.0740  138.9810 C   0  0  0  0  0  0  0  0  0  0  0  0
  190.5520  176.2690  136.0730 O   0  0  0  0  0  1  0  0  0  0  0  0
  190.4750  176.8440  138.5440 C   0  0  0  0  0  0  0  0  0  0  0  0
  192.3660  176.0080  137.6690 C   0  0  0  0  0  0  0  0  0  0  0  0
  191.0910  176.6460  142.0890 C   0  0  0  0  0  2  0  0  0  0  0  0
  189.2830  177.1270  140.3710 C   0  0  0  0  0  0  0  0  0  0  0  0
  191.3150  176.7680  139.5630 N   0  0  0  0  0  0  0  0  0  0  0  0
  190.6150  176.9200  140.6980 C   0  0  0  0  0  0  0  0  0  0  0  0
  188.1950  177.2940  141.3890 C   0  0  1  0  0  3  0  0  0  0  0  0
  190.1080  177.2630  143.0910 C   0  0  0  0  0  2  0  0  0  0  0  0
  188.6630  176.8310  142.7850 C   0  0  0  0  0  2  0  0  0  0  0  0
  195.1640  175.5800  135.1460 C   0  0  0  0  0  3  0  0  0  0  0  0
  193.3330  174.0100  136.5700 C   0  0  0  0  0  3  0  0  0  0  0  0
  195.1380  174.1940  134.9670 C   0  0  0  0  0  3  0  0  0  0  0  0
  193.3370  175.4010  136.7430 C   0  0  0  0  0  0  0  0  0  0  0  0
  194.2250  173.4090  135.6820 C   0  0  0  0  0  3  0  0  0  0  0  0
  194.3390  177.5640  136.2180 O   0  0  0  0  0  1  0  0  0  0  0  0
  194.2720  176.1870  136.0340 C   0  0  0  0  0  0  0  0  0  0  0  0
  193.7510  177.1640  139.4200 C   0  0  1  0  0  3  0  0  0  0  0  0
  193.2970  178.3540  139.9940 O   0  0  0  0  0  1  0  0  0  0  0  0
  194.7980  176.5220  140.3140 C   0  0  0  0  0  2  0  0  0  0  0  0
  195.3010  175.2980  139.7090 N   0  0  0  0  0  2  0  0  0  0  0  0
  196.6040  175.0260  140.2970 C   0  0  0  0  0  2  0  0  0  0  0  0
  198.5790  175.7960  139.2150 O   0  0  0  0  0  0  0  0  0  0  0  0
  197.5660  173.9290  138.2430 N   0  0  0  0  0  2  0  0  0  0  0  0
  197.6430  174.9520  139.2340 C   0  0  0  0  0  0  0  0  0  0  0  0
  198.2410  172.4990  135.8470 C   0  0  0  0  0  1  0  0  0  0  0  0
  200.0750  173.4570  137.5620 O   0  0  0  0  0  0  0  0  0  0  0  0
  198.7330  173.7800  136.9750 S   0  0  0  0  0  0  0  0  0  0  0  0
  198.8200  175.0800  136.2310 O   0  0  0  0  0  0  0  0  0  0  0  0
  187.9170  177.1290  138.2160 C   0  0  0  0  0  3  0  0  0  0  0  0
  187.5730  176.2100  137.3260 C   0  0  0  0  0  2  0  0  0  0  0  0
  187.7230  178.7440  141.4030 C   0  0  0  0  0  2  0  0  0  0  0  0
  186.2860  178.8700  140.9100 C   0  0  0  0  0  2  0  0  0  0  0  0
  184.1930  177.9770  142.9000 O   0  0  0  0  0  0  0  0  0  0  0  0
  184.1520  179.0670  142.0180 C   0  0  1  0  0  3  0  0  0  0  0  0
  185.4920  179.6380  141.8690 N   0  0  0  0  0  0  0  0  0  0  0  0
  186.0750  179.3720  143.1660 C   0  0  0  0  0  2  0  0  0  0  0  0
  185.2250  178.2850  143.7960 C   0  0  1  0  0  3  0  0  0  0  0  0
  183.4720  178.6990  140.7040 C   0  0  0  0  0  1  0  0  0  0  0  0
  183.7160  179.5450  145.1350 O   0  0  0  0  0  0  0  0  0  0  0  0
  184.6490  178.6970  145.1180 C   0  0  0  0  0  0  0  0  0  0  0  0
  185.1900  178.2090  146.3120 O   0  0  0  0  0  0  0  0  0  0  0  0
  186.3650  178.7660  146.8900 C   0  0  0  0  0  2  0  0  0  0  0  0
  188.6620  177.8030  147.3020 C   0  0  0  0  0  0  0  0  0  0  0  0
  188.7050  178.3130  148.4530 O   0  0  0  0  0  0  0  0  0  0  0  0
  189.7760  176.9390  146.8410 C   0  0  0  0  0  1  0  0  0  0  0  0
  187.5350  178.0150  146.4500 N   0  0  0  0  0  2  0  0  0  0  0  0
  1  6  2  0  0  0  0
  1  5  1  0  0  0  0
  2 21  1  6  0  0  0
  2  9  1  0  0  0  0
  3  8  1  0  0  0  0
  4  1  1  0  0  0  0
  5  3  2  0  0  0  0
  5  9  1  0  0  0  0
  6  2  1  0  0  0  0
  7 12  1  0  0  0  0
  8 10  2  0  0  0  0
  8 11  1  0  0  0  0
  9 10  1  0  0  0  0
 10  7  1  0  0  0  0
 11 35  1  1  0  0  0
 11 13  1  0  0  0  0
 13 12  1  0  0  0  0
 14 20  1  0  0  0  0
 15 17  1  0  0  0  0
 16 14  2  0  0  0  0
 16 18  1  0  0  0  0
 17  6  1  0  0  0  0
 18 15  2  0  0  0  0
 20 19  1  0  0  0  0
 20 17  2  0  0  0  0
 21 22  1  1  0  0  0
 21 23  1  0  0  0  0
 24 25  1  0  0  0  0
 24 23  1  0  0  0  0
 26 28  2  0  0  0  0
 27 28  1  0  0  0  0
 28 25  1  0  0  0  0
 29 31  1  0  0  0  0
 31 30  2  0  0  0  0
 31 27  1  0  0  0  0
 32 31  2  0  0  0  0
 33  3  1  0  0  0  0
 34 33  2  0  0  0  0
 36 35  1  0  0  0  0
 36 39  1  0  0  0  0
 37 41  1  0  0  0  0
 38 42  1  6  0  0  0
 38 37  1  0  0  0  0
 39 38  1  0  0  0  0
 39 40  1  0  0  0  0
 40 41  1  0  0  0  0
 41 44  1  1  0  0  0
 44 43  2  0  0  0  0
 44 45  1  0  0  0  0
 45 46  1  0  0  0  0
 47 48  2  0  0  0  0
 49 47  1  0  0  0  0
 50 46  1  0  0  0  0
 50 47  1  0  0  0  0
M  END
>  <MODEL>
7

>  <REMARK>
 VINA RESULT:      -6.7      3.164      7.111
  Name = 
  15 active torsions:
  status: ('A' for Active; 'I' for Inactive)
    1  A    between atoms: C_2  and  C_5
    2  A    between atoms: C_2  and  C_27
    3  A    between atoms: C_9  and  C_11
    4  A    between atoms: C_12  and  C_31
    5  A    between atoms: C_12  and  C_46
    6  A    between atoms: C_18  and  C_25
    7  A    between atoms: N_24  and  S_30
    8  A    between atoms: C_26  and  N_41
    9  A    between atoms: C_26  and  C_43
   10  A    between atoms: C_27  and  N_41
   11  A    between atoms: N_29  and  C_31
   12  A    between atoms: C_32  and  N_38
   13  A    between atoms: C_32  and  O_39
   14  A    between atoms: C_35  and  C_37
   15  A    between atoms: C_35  and  O_39
                            x       y       z     vdW  Elec       q    Type
                         _______ _______ _______ _____ _____    ______ ____

>  <TORSDO>
F 15

$$$$
=
 OpenBabel10232410413D

 50 54  0  0  1  0  0  0  0  0999 V2000
  188.0780  177.0300  146.1800 C   0  0  0  0  0  0  0  0  0  0  0  0
  189.4700  177.2890  144.3020 C   0  0  2  0  0  3  0  0  0  0  0  0
  185.9990  177.7940  144.7420 C   0  0  0  0  0  0  0  0  0  0  0  0
  187.6220  176.8740  147.4840 O   0  0  0  0  0  1  0  0  0  0  0  0
  187.2820  177.3260  145.0110 C   0  0  0  0  0  0  0  0  0  0  0  0
  189.3610  176.9830  145.7890 C   0  0  0  0  0  0  0  0  0  0  0  0
  187.8820  178.5620  141.6790 C   0  0  0  0  0  2  0  0  0  0  0  0
  186.0600  178.2180  143.4140 C   0  0  0  0  0  0  0  0  0  0  0  0
  188.0650  177.4420  143.9500 N   0  0  0  0  0  0  0  0  0  0  0  0
  187.3520  178.0000  142.9590 C   0  0  0  0  0  0  0  0  0  0  0  0
  184.9900  178.8700  142.5910 C   0  0  1  0  0  3  0  0  0  0  0  0
  186.7200  178.7860  140.7050 C   0  0  0  0  0  2  0  0  0  0  0  0
  185.5920  179.5960  141.3690 C   0  0  0  0  0  2  0  0  0  0  0  0
  191.7980  177.3710  148.6670 C   0  0  0  0  0  3  0  0  0  0  0  0
  191.4350  175.7730  146.3950 C   0  0  0  0  0  3  0  0  0  0  0  0
  192.7280  176.3760  148.3520 C   0  0  0  0  0  3  0  0  0  0  0  0
  190.5070  176.7820  146.6910 C   0  0  0  0  0  0  0  0  0  0  0  0
  192.5440  175.5740  147.2180 C   0  0  0  0  0  3  0  0  0  0  0  0
  189.7600  178.5510  148.1970 O   0  0  0  0  0  1  0  0  0  0  0  0
  190.6870  177.5760  147.8450 C   0  0  0  0  0  0  0  0  0  0  0  0
  190.1140  176.1170  143.5530 C   0  0  1  0  0  3  0  0  0  0  0  0
  189.1450  175.2920  142.9760 O   0  0  0  0  0  1  0  0  0  0  0  0
  191.0670  176.6230  142.4840 C   0  0  0  0  0  2  0  0  0  0  0  0
  190.4440  176.5520  141.1720 N   0  0  0  0  0  2  0  0  0  0  0  0
  191.2940  177.2860  140.2460 C   0  0  0  0  0  2  0  0  0  0  0  0
  190.8790  175.5140  138.7120 O   0  0  0  0  0  0  0  0  0  0  0  0
  192.9150  176.6260  138.4330 N   0  0  0  0  0  2  0  0  0  0  0  0
  191.6660  176.4220  139.0930 C   0  0  0  0  0  0  0  0  0  0  0  0
  192.2300  175.7850  135.7760 C   0  0  0  0  0  1  0  0  0  0  0  0
  193.5580  174.2310  137.5210 O   0  0  0  0  0  0  0  0  0  0  0  0
  193.4190  175.6610  137.0900 S   0  0  0  0  0  0  0  0  0  0  0  0
  194.7470  176.1590  136.5970 O   0  0  0  0  0  0  0  0  0  0  0  0
  184.8440  177.9490  145.6410 C   0  0  0  0  0  3  0  0  0  0  0  0
  184.1200  179.0570  145.6990 C   0  0  0  0  0  2  0  0  0  0  0  0
  183.9540  177.8290  142.1770 C   0  0  0  0  0  2  0  0  0  0  0  0
  182.9210  178.4160  141.2220 C   0  0  0  0  0  2  0  0  0  0  0  0
  181.1140  178.6510  138.8100 O   0  0  0  0  0  0  0  0  0  0  0  0
  181.2590  177.5700  139.6910 C   0  0  1  0  0  3  0  0  0  0  0  0
  182.6500  177.4740  140.1360 N   0  0  0  0  0  0  0  0  0  0  0  0
  183.3680  177.9800  138.9860 C   0  0  0  0  0  2  0  0  0  0  0  0
  182.3520  178.7490  138.1610 C   0  0  1  0  0  3  0  0  0  0  0  0
  180.2370  177.6270  140.8210 C   0  0  0  0  0  1  0  0  0  0  0  0
  181.2300  178.5550  136.0730 O   0  0  0  0  0  0  0  0  0  0  0  0
  182.2370  178.2310  136.7590 C   0  0  0  0  0  0  0  0  0  0  0  0
  183.1900  177.3420  136.2500 O   0  0  0  0  0  0  0  0  0  0  0  0
  182.8380  176.0390  135.7990 C   0  0  0  0  0  2  0  0  0  0  0  0
  183.8460  174.3980  137.4300 C   0  0  0  0  0  0  0  0  0  0  0  0
  182.9440  174.6350  138.2780 O   0  0  0  0  0  0  0  0  0  0  0  0
  184.8660  173.3610  137.7180 C   0  0  0  0  0  1  0  0  0  0  0  0
  183.8750  175.0880  136.1800 N   0  0  0  0  0  2  0  0  0  0  0  0
  1  4  1  0  0  0  0
  2 21  1  6  0  0  0
  2  6  1  0  0  0  0
  3  5  2  0  0  0  0
  3 33  1  0  0  0  0
  5  1  1  0  0  0  0
  6  1  2  0  0  0  0
  6 17  1  0  0  0  0
  7 10  1  0  0  0  0
  8  3  1  0  0  0  0
  9  2  1  0  0  0  0
  9  5  1  0  0  0  0
 10  8  2  0  0  0  0
 10  9  1  0  0  0  0
 11 35  1  6  0  0  0
 11  8  1  0  0  0  0
 12 13  1  0  0  0  0
 12  7  1  0  0  0  0
 13 11  1  0  0  0  0
 15 17  2  0  0  0  0
 15 18  1  0  0  0  0
 16 14  1  0  0  0  0
 17 20  1  0  0  0  0
 18 16  2  0  0  0  0
 20 19  1  0  0  0  0
 20 14  2  0  0  0  0
 21 22  1  6  0  0  0
 23 21  1  0  0  0  0
 24 23  1  0  0  0  0
 25 24  1  0  0  0  0
 26 28  2  0  0  0  0
 27 28  1  0  0  0  0
 28 25  1  0  0  0  0
 29 31  1  0  0  0  0
 31 30  2  0  0  0  0
 31 27  1  0  0  0  0
 32 31  2  0  0  0  0
 33 34  2  0  0  0  0
 36 35  1  0  0  0  0
 37 38  1  0  0  0  0
 38 39  1  0  0  0  0
 38 42  1  1  0  0  0
 39 36  1  0  0  0  0
 40 39  1  0  0  0  0
 41 44  1  6  0  0  0
 41 37  1  0  0  0  0
 41 40  1  0  0  0  0
 43 44  2  0  0  0  0
 45 44  1  0  0  0  0
 46 50  1  0  0  0  0
 46 45  1  0  0  0  0
 47 49  1  0  0  0  0
 47 48  2  0  0  0  0
 50 47  1  0  0  0  0
M  END
>  <MODEL>
8

>  <REMARK>
 VINA RESULT:      -6.7      2.460      8.577
  Name = 
  15 active torsions:
  status: ('A' for Active; 'I' for Inactive)
    1  A    between atoms: C_2  and  C_5
    2  A    between atoms: C_2  and  C_27
    3  A    between atoms: C_9  and  C_11
    4  A    between atoms: C_12  and  C_31
    5  A    between atoms: C_12  and  C_46
    6  A    between atoms: C_18  and  C_25
    7  A    between atoms: N_24  and  S_30
    8  A    between atoms: C_26  and  N_41
    9  A    between atoms: C_26  and  C_43
   10  A    between atoms: C_27  and  N_41
   11  A    between atoms: N_29  and  C_31
   12  A    between atoms: C_32  and  N_38
   13  A    between atoms: C_32  and  O_39
   14  A    between atoms: C_35  and  C_37
   15  A    between atoms: C_35  and  O_39
                            x       y       z     vdW  Elec       q    Type
                         _______ _______ _______ _____ _____    ______ ____

>  <TORSDO>
F 15

$$$$
=
 OpenBabel10232410413D

 50 54  0  0  1  0  0  0  0  0999 V2000
  190.7280  177.0660  141.2390 C   0  0  0  0  0  0  0  0  0  0  0  0
  188.4300  177.2780  140.7800 C   0  0  2  0  0  3  0  0  0  0  0  0
  191.1530  176.3030  138.7470 C   0  0  0  0  0  0  0  0  0  0  0  0
  191.9450  176.9570  141.9010 O   0  0  0  0  0  1  0  0  0  0  0  0
  190.4840  176.8700  139.8280 C   0  0  0  0  0  0  0  0  0  0  0  0
  189.5440  177.3270  141.8160 C   0  0  0  0  0  0  0  0  0  0  0  0
  187.6220  176.2640  137.7240 C   0  0  0  0  0  2  0  0  0  0  0  0
  190.1560  176.1070  137.7910 C   0  0  0  0  0  0  0  0  0  0  0  0
  189.1950  177.0180  139.5680 N   0  0  0  0  0  0  0  0  0  0  0  0
  188.9570  176.5460  138.3340 C   0  0  0  0  0  0  0  0  0  0  0  0
  190.2700  175.4740  136.4370 C   0  0  1  0  0  3  0  0  0  0  0  0
  187.7870  176.0630  136.2140 C   0  0  0  0  0  2  0  0  0  0  0  0
  188.8880  175.0300  135.9120 C   0  0  0  0  0  2  0  0  0  0  0  0
  188.1960  176.9820  145.3420 C   0  0  0  0  0  3  0  0  0  0  0  0
  190.1200  178.4600  143.9420 C   0  0  0  0  0  3  0  0  0  0  0  0
  188.9660  177.9400  146.0070 C   0  0  0  0  0  3  0  0  0  0  0  0
  189.3380  177.5150  143.2620 C   0  0  0  0  0  0  0  0  0  0  0  0
  189.9320  178.6770  145.3070 C   0  0  0  0  0  3  0  0  0  0  0  0
  187.6230  175.7800  143.3440 O   0  0  0  0  0  1  0  0  0  0  0  0
  188.3800  176.7620  143.9750 C   0  0  0  0  0  0  0  0  0  0  0  0
  187.6990  178.6240  140.7070 C   0  0  1  0  0  3  0  0  0  0  0  0
  187.0660  178.7890  139.4730 O   0  0  0  0  0  1  0  0  0  0  0  0
  186.6840  178.7420  141.8310 C   0  0  0  0  0  2  0  0  0  0  0  0
  185.3910  179.1540  141.3070 N   0  0  0  0  0  2  0  0  0  0  0  0
  184.4130  178.1670  141.7380 C   0  0  0  0  0  2  0  0  0  0  0  0
  182.4520  179.1270  140.7910 O   0  0  0  0  0  0  0  0  0  0  0  0
  183.0490  177.0300  139.9510 N   0  0  0  0  0  2  0  0  0  0  0  0
  183.2510  178.1520  140.8090 C   0  0  0  0  0  0  0  0  0  0  0  0
  181.9520  178.1000  137.5240 C   0  0  0  0  0  1  0  0  0  0  0  0
  180.4420  177.2360  139.5720 O   0  0  0  0  0  0  0  0  0  0  0  0
  181.7200  176.9380  138.8470 S   0  0  0  0  0  0  0  0  0  0  0  0
  181.6510  175.5520  138.2740 O   0  0  0  0  0  0  0  0  0  0  0  0
  192.5550  175.8700  138.6270 C   0  0  0  0  0  3  0  0  0  0  0  0
  193.5800  176.6770  138.8510 C   0  0  0  0  0  2  0  0  0  0  0  0
  190.9570  176.4380  135.4750 C   0  0  0  0  0  2  0  0  0  0  0  0
  192.1220  175.7710  134.7510 C   0  0  0  0  0  2  0  0  0  0  0  0
  194.8060  174.4420  134.3470 O   0  0  0  0  0  0  0  0  0  0  0  0
  193.9230  174.3160  135.4280 C   0  0  1  0  0  3  0  0  0  0  0  0
  193.2460  175.5910  135.6700 N   0  0  0  0  0  0  0  0  0  0  0  0
  194.2500  176.5460  135.2550 C   0  0  0  0  0  2  0  0  0  0  0  0
  195.2310  175.7780  134.3890 C   0  0  1  0  0  3  0  0  0  0  0  0
  192.9860  173.1260  135.2510 C   0  0  0  0  0  1  0  0  0  0  0  0
  196.9860  176.8610  135.5740 O   0  0  0  0  0  0  0  0  0  0  0  0
  196.6370  175.8510  134.9060 C   0  0  0  0  0  0  0  0  0  0  0  0
  197.5650  174.8540  134.5840 O   0  0  0  0  0  0  0  0  0  0  0  0
  198.1490  174.0200  135.5780 C   0  0  0  0  0  2  0  0  0  0  0  0
  197.6260  174.4700  138.0060 C   0  0  0  0  0  0  0  0  0  0  0  0
  198.7580  174.9910  138.1880 O   0  0  0  0  0  0  0  0  0  0  0  0
  196.6420  174.4500  139.1150 C   0  0  0  0  0  1  0  0  0  0  0  0
  197.2640  173.9320  136.7320 N   0  0  0  0  0  2  0  0  0  0  0  0
  1  6  2  0  0  0  0
  1  4  1  0  0  0  0
  2 21  1  6  0  0  0
  2  6  1  0  0  0  0
  3  5  2  0  0  0  0
  5  1  1  0  0  0  0
  6 17  1  0  0  0  0
  7 10  1  0  0  0  0
  8 10  2  0  0  0  0
  8  3  1  0  0  0  0
  9  5  1  0  0  0  0
  9  2  1  0  0  0  0
 10  9  1  0  0  0  0
 11 35  1  6  0  0  0
 11  8  1  0  0  0  0
 12  7  1  0  0  0  0
 13 12  1  0  0  0  0
 13 11  1  0  0  0  0
 14 16  1  0  0  0  0
 15 18  1  0  0  0  0
 17 15  2  0  0  0  0
 17 20  1  0  0  0  0
 18 16  2  0  0  0  0
 19 20  1  0  0  0  0
 20 14  2  0  0  0  0
 21 22  1  6  0  0  0
 21 23  1  0  0  0  0
 24 25  1  0  0  0  0
 24 23  1  0  0  0  0
 26 28  2  0  0  0  0
 27 28  1  0  0  0  0
 28 25  1  0  0  0  0
 29 31  1  0  0  0  0
 31 30  2  0  0  0  0
 31 27  1  0  0  0  0
 32 31  2  0  0  0  0
 33  3  1  0  0  0  0
 33 34  2  0  0  0  0
 36 35  1  0  0  0  0
 36 39  1  0  0  0  0
 37 41  1  0  0  0  0
 37 38  1  0  0  0  0
 38 42  1  6  0  0  0
 38 39  1  0  0  0  0
 40 39  1  0  0  0  0
 41 44  1  1  0  0  0
 41 40  1  0  0  0  0
 44 43  2  0  0  0  0
 45 44  1  0  0  0  0
 45 46  1  0  0  0  0
 46 50  1  0  0  0  0
 47 48  2  0  0  0  0
 47 49  1  0  0  0  0
 50 47  1  0  0  0  0
M  END
>  <MODEL>
9

>  <REMARK>
 VINA RESULT:      -6.5      3.421     10.174
  Name = 
  15 active torsions:
  status: ('A' for Active; 'I' for Inactive)
    1  A    between atoms: C_2  and  C_5
    2  A    between atoms: C_2  and  C_27
    3  A    between atoms: C_9  and  C_11
    4  A    between atoms: C_12  and  C_31
    5  A    between atoms: C_12  and  C_46
    6  A    between atoms: C_18  and  C_25
    7  A    between atoms: N_24  and  S_30
    8  A    between atoms: C_26  and  N_41
    9  A    between atoms: C_26  and  C_43
   10  A    between atoms: C_27  and  N_41
   11  A    between atoms: N_29  and  C_31
   12  A    between atoms: C_32  and  N_38
   13  A    between atoms: C_32  and  O_39
   14  A    between atoms: C_35  and  C_37
   15  A    between atoms: C_35  and  O_39
                            x       y       z     vdW  Elec       q    Type
                         _______ _______ _______ _____ _____    ______ ____

>  <TORSDO>
F 15

$$$$
