=
 OpenBabel10232411153D

 33 35  0  0  1  0  0  0  0  0999 V2000
  186.5120  178.7860  137.7240 N   0  0  0  0  0  0  0  0  0  0  0  0
  186.4350  176.9980  135.6040 C   0  0  0  0  0  3  0  0  0  0  0  0
  187.4350  178.8550  136.7190 C   0  0  0  0  0  3  0  0  0  0  0  0
  187.3920  177.9690  135.6750 N   0  0  0  0  0  0  0  0  0  0  0  0
  185.5620  177.8210  137.6600 C   0  0  0  0  0  0  0  0  0  0  0  0
  183.8200  176.3600  137.8800 C   0  0  0  0  0  0  0  0  0  0  0  0
  182.6710  175.6650  138.3660 N   0  0  0  0  0  2  0  0  0  0  0  0
  185.5020  176.9330  136.6290 C   0  0  0  0  0  0  0  0  0  0  0  0
  184.4640  177.5100  138.5630 C   0  0  0  0  0  0  0  0  0  0  0  0
  184.1350  178.1050  139.7230 C   0  0  0  0  0  0  0  0  0  0  0  0
  184.4150  176.0260  136.7700 N   0  0  0  0  0  0  0  0  0  0  0  0
  182.1480  174.6220  137.6800 O   0  0  0  0  0  1  0  0  0  0  0  0
  182.9500  177.6180  140.5090 C   0  0  0  0  0  2  0  0  0  0  0  0
  182.2740  178.6750  141.1430 O   0  0  0  0  0  0  0  0  0  0  0  0
  180.0170  180.7740  140.3900 C   0  0  0  0  0  2  0  0  0  0  0  0
  180.5300  180.0200  142.9370 Cl  0  0  0  0  0  0  0  0  0  0  0  0
  180.5760  177.7700  139.7940 O   0  0  0  0  0  1  0  0  0  0  0  0
  181.1030  180.1300  139.5450 C   0  0  0  0  0  2  0  0  0  0  0  0
  181.0680  178.9080  140.4460 C   0  0  2  0  0  0  0  0  0  0  0  0
  179.9830  179.5570  141.2990 C   0  0  2  0  0  3  0  0  0  0  0  0
  184.9720  179.2380  140.2510 C   0  0  0  0  0  2  0  0  0  0  0  0
  185.8230  178.7990  141.3990 C   0  0  0  0  0  0  0  0  0  0  0  0
  187.0700  178.3920  141.1510 C   0  0  0  0  0  3  0  0  0  0  0  0
  185.2780  178.8260  142.7370 C   0  0  0  0  0  0  0  0  0  0  0  0
  184.2840  178.8720  145.2120 C   0  0  0  0  0  1  0  0  0  0  0  0
  184.8280  178.8470  143.8550 C   0  0  0  0  0  0  0  0  0  0  0  0
  188.7510  177.6080  143.0390 C   0  0  0  0  0  0  0  0  0  0  0  0
  187.9820  177.9620  142.1800 C   0  0  0  0  0  0  0  0  0  0  0  0
  189.3050  177.9310  146.5310 C   0  0  0  0  0  3  0  0  0  0  0  0
  189.6730  177.1910  144.0570 C   0  0  0  0  0  3  0  0  0  0  0  0
  189.4890  177.5600  145.2930 C   0  0  0  0  0  0  0  0  0  0  0  0
  188.7190  176.9970  147.5360 C   0  0  0  0  0  2  0  0  0  0  0  0
  187.9030  177.7560  148.5690 C   0  0  0  0  0  1  0  0  0  0  0  0
  2  4  2  0  0  0  0
  2  8  1  0  0  0  0
  3  1  2  0  0  0  0
  4  3  1  0  0  0  0
  5  1  1  0  0  0  0
  5  9  1  0  0  0  0
  6  7  1  0  0  0  0
  6  9  1  0  0  0  0
  8 11  1  0  0  0  0
  8  5  2  0  0  0  0
  9 10  2  0  0  0  0
 10 21  1  0  0  0  0
 10 13  1  0  0  0  0
 11  6  2  0  0  0  0
 12  7  1  0  0  0  0
 13 14  1  0  0  0  0
 15 20  1  0  0  0  0
 18 15  1  0  0  0  0
 18 19  1  0  0  0  0
 19 17  1  6  0  0  0
 19 14  1  0  0  0  0
 19 20  1  0  0  0  0
 20 16  1  1  0  0  0
 21 22  1  0  0  0  0
 22 24  1  0  0  0  0
 23 22  2  0  0  0  0
 23 28  1  0  0  0  0
 24 26  3  0  0  0  0
 26 25  1  0  0  0  0
 27 30  1  0  0  0  0
 28 27  3  0  0  0  0
 29 32  1  0  0  0  0
 30 31  2  0  0  0  0
 31 29  2  0  0  0  0
 32 33  1  0  0  0  0
M  END
>  <MODEL>
1

>  <REMARK>
 VINA RESULT:      -7.4      0.000      0.000
  Name = 
  9 active torsions:
  status: ('A' for Active; 'I' for Inactive)
    1  A    between atoms: C_1  and  C_18
    2  A    between atoms: C_2  and  C_7
    3  A    between atoms: C_3  and  C_8
    4  A    between atoms: C_3  and  C_17
    5  A    between atoms: O_6  and  C_15
    6  A    between atoms: O_6  and  C_31
    7  A    between atoms: C_9  and  C_10
    8  A    between atoms: C_15  and  C_27
    9  A    between atoms: C_17  and  C_27
                            x       y       z     vdW  Elec       q    Type
                         _______ _______ _______ _____ _____    ______ ____

>  <TORSDO>
F 9

$$$$
=
 OpenBabel10232411153D

 33 35  0  0  1  0  0  0  0  0999 V2000
  182.2230  178.8080  141.2880 N   0  0  0  0  0  0  0  0  0  0  0  0
  180.0670  177.1780  140.6610 C   0  0  0  0  0  3  0  0  0  0  0  0
  181.0450  178.9150  141.9710 C   0  0  0  0  0  3  0  0  0  0  0  0
  179.9830  178.1090  141.6570 N   0  0  0  0  0  0  0  0  0  0  0  0
  182.3090  177.8890  140.2950 C   0  0  0  0  0  0  0  0  0  0  0  0
  182.8290  176.4570  138.5940 C   0  0  0  0  0  0  0  0  0  0  0  0
  183.5170  175.7610  137.5540 N   0  0  0  0  0  2  0  0  0  0  0  0
  181.2660  177.0760  139.9710 C   0  0  0  0  0  0  0  0  0  0  0  0
  183.4150  177.5470  139.4130 C   0  0  0  0  0  0  0  0  0  0  0  0
  184.6420  178.0940  139.3510 C   0  0  0  0  0  0  0  0  0  0  0  0
  181.5950  176.1860  138.9110 N   0  0  0  0  0  0  0  0  0  0  0  0
  182.9060  174.7790  136.8520 O   0  0  0  0  0  1  0  0  0  0  0  0
  185.6420  177.5870  138.3520 C   0  0  0  0  0  2  0  0  0  0  0  0
  186.3730  178.6360  137.7660 O   0  0  0  0  0  0  0  0  0  0  0  0
  188.8180  176.7750  136.9730 C   0  0  0  0  0  2  0  0  0  0  0  0
  189.0970  178.9970  138.4910 Cl  0  0  0  0  0  0  0  0  0  0  0  0
  186.7540  178.5390  135.4490 O   0  0  0  0  0  1  0  0  0  0  0  0
  187.3220  176.5900  136.7870 C   0  0  0  0  0  2  0  0  0  0  0  0
  187.1520  178.0980  136.7170 C   0  0  2  0  0  0  0  0  0  0  0  0
  188.6530  178.2840  136.9110 C   0  0  2  0  0  3  0  0  0  0  0  0
  185.0030  179.2360  140.2620 C   0  0  0  0  0  2  0  0  0  0  0  0
  185.8090  178.7680  141.4300 C   0  0  0  0  0  0  0  0  0  0  0  0
  187.0630  178.3620  141.2200 C   0  0  0  0  0  3  0  0  0  0  0  0
  185.2140  178.7660  142.7470 C   0  0  0  0  0  0  0  0  0  0  0  0
  184.1230  178.7540  145.1820 C   0  0  0  0  0  1  0  0  0  0  0  0
  184.7200  178.7610  143.8470 C   0  0  0  0  0  0  0  0  0  0  0  0
  188.6690  177.5210  143.1500 C   0  0  0  0  0  0  0  0  0  0  0  0
  187.9350  177.9060  142.2740 C   0  0  0  0  0  0  0  0  0  0  0  0
  189.2440  177.9160  146.6310 C   0  0  0  0  0  3  0  0  0  0  0  0
  189.5470  177.0590  144.1860 C   0  0  0  0  0  3  0  0  0  0  0  0
  189.3960  177.4870  145.4070 C   0  0  0  0  0  0  0  0  0  0  0  0
  188.5750  177.0740  147.6660 C   0  0  0  0  0  2  0  0  0  0  0  0
  188.1610  177.9150  148.8620 C   0  0  0  0  0  1  0  0  0  0  0  0
  1  3  1  0  0  0  0
  2  4  1  0  0  0  0
  4  3  2  0  0  0  0
  5  1  2  0  0  0  0
  6 11  2  0  0  0  0
  6  9  1  0  0  0  0
  7  6  1  0  0  0  0
  8  5  1  0  0  0  0
  8  2  2  0  0  0  0
  9  5  1  0  0  0  0
 10  9  2  0  0  0  0
 10 21  1  0  0  0  0
 11  8  1  0  0  0  0
 12  7  1  0  0  0  0
 13 10  1  0  0  0  0
 14 13  1  0  0  0  0
 18 15  1  0  0  0  0
 19 17  1  6  0  0  0
 19 18  1  0  0  0  0
 19 20  1  0  0  0  0
 19 14  1  0  0  0  0
 20 15  1  0  0  0  0
 20 16  1  1  0  0  0
 21 22  1  0  0  0  0
 22 24  1  0  0  0  0
 23 22  2  0  0  0  0
 23 28  1  0  0  0  0
 24 26  3  0  0  0  0
 26 25  1  0  0  0  0
 27 30  1  0  0  0  0
 28 27  3  0  0  0  0
 29 32  1  0  0  0  0
 30 31  2  0  0  0  0
 31 29  2  0  0  0  0
 32 33  1  0  0  0  0
M  END
>  <MODEL>
2

>  <REMARK>
 VINA RESULT:      -7.3      2.674      5.003
  Name = 
  9 active torsions:
  status: ('A' for Active; 'I' for Inactive)
    1  A    between atoms: C_1  and  C_18
    2  A    between atoms: C_2  and  C_7
    3  A    between atoms: C_3  and  C_8
    4  A    between atoms: C_3  and  C_17
    5  A    between atoms: O_6  and  C_15
    6  A    between atoms: O_6  and  C_31
    7  A    between atoms: C_9  and  C_10
    8  A    between atoms: C_15  and  C_27
    9  A    between atoms: C_17  and  C_27
                            x       y       z     vdW  Elec       q    Type
                         _______ _______ _______ _____ _____    ______ ____

>  <TORSDO>
F 9

$$$$
=
 OpenBabel10232411153D

 33 35  0  0  1  0  0  0  0  0999 V2000
  185.6880  178.8560  138.8290 N   0  0  0  0  0  0  0  0  0  0  0  0
  183.4100  177.7680  137.6750 C   0  0  0  0  0  3  0  0  0  0  0  0
  184.4630  179.4300  139.0240 C   0  0  0  0  0  3  0  0  0  0  0  0
  183.3430  178.8890  138.4520 N   0  0  0  0  0  0  0  0  0  0  0  0
  185.7600  177.7450  138.0550 C   0  0  0  0  0  0  0  0  0  0  0  0
  186.2660  175.8750  136.8440 C   0  0  0  0  0  0  0  0  0  0  0  0
  186.9650  174.8010  136.2150 N   0  0  0  0  0  2  0  0  0  0  0  0
  184.6570  177.1900  137.4800 C   0  0  0  0  0  0  0  0  0  0  0  0
  186.9020  176.9250  137.6780 C   0  0  0  0  0  0  0  0  0  0  0  0
  188.1990  177.0930  137.9940 C   0  0  0  0  0  0  0  0  0  0  0  0
  184.9770  176.0260  136.7280 N   0  0  0  0  0  0  0  0  0  0  0  0
  186.3060  173.8860  135.4670 O   0  0  0  0  0  1  0  0  0  0  0  0
  189.2270  176.1200  137.4910 C   0  0  0  0  0  2  0  0  0  0  0  0
  190.4200  176.7660  137.1190 O   0  0  0  0  0  0  0  0  0  0  0  0
  193.4810  176.1070  136.6070 C   0  0  0  0  0  2  0  0  0  0  0  0
  191.6440  176.1820  134.6230 Cl  0  0  0  0  0  0  0  0  0  0  0  0
  191.1430  174.8100  138.2020 O   0  0  0  0  0  1  0  0  0  0  0  0
  192.7590  176.5910  137.8530 C   0  0  0  0  0  2  0  0  0  0  0  0
  191.4960  175.8900  137.3850 C   0  0  2  0  0  0  0  0  0  0  0  0
  192.2180  175.4090  136.1300 C   0  0  2  0  0  3  0  0  0  0  0  0
  188.6240  178.2730  138.8250 C   0  0  0  0  0  2  0  0  0  0  0  0
  188.9570  177.8620  140.2230 C   0  0  0  0  0  0  0  0  0  0  0  0
  190.1820  177.4010  140.4800 C   0  0  0  0  0  3  0  0  0  0  0  0
  187.9500  177.9760  141.2530 C   0  0  0  0  0  0  0  0  0  0  0  0
  186.0970  178.1770  143.1620 C   0  0  0  0  0  1  0  0  0  0  0  0
  187.1120  178.0670  142.1150 C   0  0  0  0  0  0  0  0  0  0  0  0
  190.9820  176.6450  142.8870 C   0  0  0  0  0  0  0  0  0  0  0  0
  190.6160  176.9920  141.7930 C   0  0  0  0  0  0  0  0  0  0  0  0
  190.5230  177.4250  146.3210 C   0  0  0  0  0  3  0  0  0  0  0  0
  191.4210  176.2230  144.1870 C   0  0  0  0  0  3  0  0  0  0  0  0
  190.9720  176.8230  145.2530 C   0  0  0  0  0  0  0  0  0  0  0  0
  189.4490  176.8120  147.1570 C   0  0  0  0  0  2  0  0  0  0  0  0
  188.9160  177.8110  148.1690 C   0  0  0  0  0  1  0  0  0  0  0  0
  1  3  1  0  0  0  0
  2  4  1  0  0  0  0
  4  3  2  0  0  0  0
  5  1  2  0  0  0  0
  6  9  1  0  0  0  0
  7  6  1  0  0  0  0
  8  2  2  0  0  0  0
  8  5  1  0  0  0  0
  9 10  2  0  0  0  0
  9  5  1  0  0  0  0
 10 21  1  0  0  0  0
 11  6  2  0  0  0  0
 11  8  1  0  0  0  0
 12  7  1  0  0  0  0
 13 10  1  0  0  0  0
 14 19  1  0  0  0  0
 14 13  1  0  0  0  0
 15 18  1  0  0  0  0
 19 18  1  0  0  0  0
 19 17  1  1  0  0  0
 20 16  1  6  0  0  0
 20 15  1  0  0  0  0
 20 19  1  0  0  0  0
 21 22  1  0  0  0  0
 22 23  2  0  0  0  0
 22 24  1  0  0  0  0
 23 28  1  0  0  0  0
 24 26  3  0  0  0  0
 26 25  1  0  0  0  0
 27 30  1  0  0  0  0
 28 27  3  0  0  0  0
 29 32  1  0  0  0  0
 30 31  2  0  0  0  0
 31 29  2  0  0  0  0
 32 33  1  0  0  0  0
M  END
>  <MODEL>
3

>  <REMARK>
 VINA RESULT:      -7.2      4.309      6.482
  Name = 
  9 active torsions:
  status: ('A' for Active; 'I' for Inactive)
    1  A    between atoms: C_1  and  C_18
    2  A    between atoms: C_2  and  C_7
    3  A    between atoms: C_3  and  C_8
    4  A    between atoms: C_3  and  C_17
    5  A    between atoms: O_6  and  C_15
    6  A    between atoms: O_6  and  C_31
    7  A    between atoms: C_9  and  C_10
    8  A    between atoms: C_15  and  C_27
    9  A    between atoms: C_17  and  C_27
                            x       y       z     vdW  Elec       q    Type
                         _______ _______ _______ _____ _____    ______ ____

>  <TORSDO>
F 9

$$$$
=
 OpenBabel10232411153D

 33 35  0  0  1  0  0  0  0  0999 V2000
  187.5250  178.8230  137.8680 N   0  0  0  0  0  0  0  0  0  0  0  0
  188.4940  176.9040  136.1130 C   0  0  0  0  0  3  0  0  0  0  0  0
  188.7830  178.9260  137.3460 C   0  0  0  0  0  3  0  0  0  0  0  0
  189.2570  177.9760  136.4810 N   0  0  0  0  0  0  0  0  0  0  0  0
  186.7660  177.7580  137.5090 C   0  0  0  0  0  0  0  0  0  0  0  0
  185.2060  176.1350  137.1240 C   0  0  0  0  0  0  0  0  0  0  0  0
  184.0120  175.3520  137.1480 N   0  0  0  0  0  2  0  0  0  0  0  0
  187.2180  176.8050  136.6480 C   0  0  0  0  0  0  0  0  0  0  0  0
  185.4110  177.3880  137.8910 C   0  0  0  0  0  0  0  0  0  0  0  0
  184.5730  178.0170  138.7350 C   0  0  0  0  0  0  0  0  0  0  0  0
  186.2430  175.7970  136.4110 N   0  0  0  0  0  0  0  0  0  0  0  0
  183.9100  174.2170  136.4190 O   0  0  0  0  0  1  0  0  0  0  0  0
  183.2030  177.4560  138.9920 C   0  0  0  0  0  2  0  0  0  0  0  0
  182.2930  178.4570  139.3760 O   0  0  0  0  0  0  0  0  0  0  0  0
  181.1200  179.4170  136.5880 C   0  0  0  0  0  2  0  0  0  0  0  0
  181.8030  181.1350  138.5630 Cl  0  0  0  0  0  0  0  0  0  0  0  0
  180.1120  177.6820  138.9690 O   0  0  0  0  0  1  0  0  0  0  0  0
  181.5740  178.0470  137.0620 C   0  0  0  0  0  2  0  0  0  0  0  0
  181.1980  178.4220  138.4840 C   0  0  2  0  0  0  0  0  0  0  0  0
  180.7490  179.8000  138.0110 C   0  0  2  0  0  3  0  0  0  0  0  0
  185.0190  179.2660  139.4460 C   0  0  0  0  0  2  0  0  0  0  0  0
  185.4050  178.9800  140.8610 C   0  0  0  0  0  0  0  0  0  0  0  0
  184.4780  179.0980  141.8130 C   0  0  0  0  0  3  0  0  0  0  0  0
  186.7630  178.5840  141.1590 C   0  0  0  0  0  0  0  0  0  0  0  0
  189.2720  177.8650  141.7100 C   0  0  0  0  0  1  0  0  0  0  0  0
  187.8960  178.2580  141.4080 C   0  0  0  0  0  0  0  0  0  0  0  0
  184.9570  178.6070  144.3700 C   0  0  0  0  0  0  0  0  0  0  0  0
  184.7350  178.8320  143.2070 C   0  0  0  0  0  0  0  0  0  0  0  0
  187.4630  177.1740  146.4380 C   0  0  0  0  0  3  0  0  0  0  0  0
  185.2310  178.3370  145.7530 C   0  0  0  0  0  3  0  0  0  0  0  0
  186.3460  177.7570  146.0950 C   0  0  0  0  0  0  0  0  0  0  0  0
  188.6020  177.9600  146.9970 C   0  0  0  0  0  2  0  0  0  0  0  0
  188.4650  178.1140  148.5020 C   0  0  0  0  0  1  0  0  0  0  0  0
  2  4  2  0  0  0  0
  2  8  1  0  0  0  0
  3  1  2  0  0  0  0
  4  3  1  0  0  0  0
  5  1  1  0  0  0  0
  5  9  1  0  0  0  0
  6  7  1  0  0  0  0
  6  9  1  0  0  0  0
  8  5  2  0  0  0  0
  9 10  2  0  0  0  0
 10 13  1  0  0  0  0
 10 21  1  0  0  0  0
 11  8  1  0  0  0  0
 11  6  2  0  0  0  0
 12  7  1  0  0  0  0
 13 14  1  0  0  0  0
 15 18  1  0  0  0  0
 15 20  1  0  0  0  0
 18 19  1  0  0  0  0
 19 17  1  1  0  0  0
 19 14  1  0  0  0  0
 20 19  1  0  0  0  0
 20 16  1  1  0  0  0
 21 22  1  0  0  0  0
 22 24  1  0  0  0  0
 22 23  2  0  0  0  0
 23 28  1  0  0  0  0
 24 26  3  0  0  0  0
 26 25  1  0  0  0  0
 27 30  1  0  0  0  0
 28 27  3  0  0  0  0
 29 32  1  0  0  0  0
 30 31  2  0  0  0  0
 31 29  2  0  0  0  0
 32 33  1  0  0  0  0
M  END
>  <MODEL>
4

>  <REMARK>
 VINA RESULT:      -7.2      1.706      2.711
  Name = 
  9 active torsions:
  status: ('A' for Active; 'I' for Inactive)
    1  A    between atoms: C_1  and  C_18
    2  A    between atoms: C_2  and  C_7
    3  A    between atoms: C_3  and  C_8
    4  A    between atoms: C_3  and  C_17
    5  A    between atoms: O_6  and  C_15
    6  A    between atoms: O_6  and  C_31
    7  A    between atoms: C_9  and  C_10
    8  A    between atoms: C_15  and  C_27
    9  A    between atoms: C_17  and  C_27
                            x       y       z     vdW  Elec       q    Type
                         _______ _______ _______ _____ _____    ______ ____

>  <TORSDO>
F 9

$$$$
=
 OpenBabel10232411153D

 33 35  0  0  1  0  0  0  0  0999 V2000
  190.2820  176.5350  138.6190 N   0  0  0  0  0  0  0  0  0  0  0  0
  190.2990  174.2900  136.9890 C   0  0  0  0  0  3  0  0  0  0  0  0
  191.3950  175.7480  138.5260 C   0  0  0  0  0  3  0  0  0  0  0  0
  191.3970  174.6410  137.7200 N   0  0  0  0  0  0  0  0  0  0  0  0
  189.1870  176.1890  137.8980 C   0  0  0  0  0  0  0  0  0  0  0  0
  187.1860  175.9360  136.8280 C   0  0  0  0  0  0  0  0  0  0  0  0
  185.8450  176.1210  136.3740 N   0  0  0  0  0  2  0  0  0  0  0  0
  189.1720  175.0940  137.0890 C   0  0  0  0  0  0  0  0  0  0  0  0
  187.8820  176.8240  137.7910 C   0  0  0  0  0  0  0  0  0  0  0  0
  187.4280  177.9230  138.4200 C   0  0  0  0  0  0  0  0  0  0  0  0
  187.9230  174.9410  136.4240 N   0  0  0  0  0  0  0  0  0  0  0  0
  185.2830  175.2600  135.4940 O   0  0  0  0  0  1  0  0  0  0  0  0
  186.0300  178.4110  138.1650 C   0  0  0  0  0  2  0  0  0  0  0  0
  185.0890  177.7440  138.9680 O   0  0  0  0  0  0  0  0  0  0  0  0
  182.0680  178.1320  139.8590 C   0  0  0  0  0  2  0  0  0  0  0  0
  182.7700  176.9790  137.5140 Cl  0  0  0  0  0  0  0  0  0  0  0  0
  184.4770  179.9980  139.2230 O   0  0  0  0  0  1  0  0  0  0  0  0
  183.3670  178.3450  140.6160 C   0  0  0  0  0  2  0  0  0  0  0  0
  184.0700  178.6610  139.3080 C   0  0  2  0  0  0  0  0  0  0  0  0
  182.7670  178.4410  138.5460 C   0  0  2  0  0  3  0  0  0  0  0  0
  188.3080  178.6450  139.4040 C   0  0  0  0  0  2  0  0  0  0  0  0
  187.9630  178.2820  140.8120 C   0  0  0  0  0  0  0  0  0  0  0  0
  186.8490  178.7860  141.3480 C   0  0  0  0  0  3  0  0  0  0  0  0
  188.8380  177.4020  141.5520 C   0  0  0  0  0  0  0  0  0  0  0  0
  190.4550  175.7850  142.9260 C   0  0  0  0  0  1  0  0  0  0  0  0
  189.5690  176.6700  142.1720 C   0  0  0  0  0  0  0  0  0  0  0  0
  186.0540  178.2470  143.8150 C   0  0  0  0  0  0  0  0  0  0  0  0
  186.4120  178.4910  142.6900 C   0  0  0  0  0  0  0  0  0  0  0  0
  187.4100  177.3930  146.9830 C   0  0  0  0  0  3  0  0  0  0  0  0
  185.6350  177.9590  145.1570 C   0  0  0  0  0  3  0  0  0  0  0  0
  186.5210  177.6770  146.0690 C   0  0  0  0  0  0  0  0  0  0  0  0
  187.8370  178.4120  147.9850 C   0  0  0  0  0  2  0  0  0  0  0  0
  189.1810  178.0440  148.5900 C   0  0  0  0  0  1  0  0  0  0  0  0
  2  8  2  0  0  0  0
  2  4  1  0  0  0  0
  3  1  1  0  0  0  0
  4  3  2  0  0  0  0
  5  1  2  0  0  0  0
  6  9  1  0  0  0  0
  7  6  1  0  0  0  0
  8  5  1  0  0  0  0
  9  5  1  0  0  0  0
  9 10  2  0  0  0  0
 10 21  1  0  0  0  0
 11  6  2  0  0  0  0
 11  8  1  0  0  0  0
 12  7  1  0  0  0  0
 13 10  1  0  0  0  0
 13 14  1  0  0  0  0
 14 19  1  0  0  0  0
 15 18  1  0  0  0  0
 19 17  1  6  0  0  0
 19 18  1  0  0  0  0
 20 16  1  6  0  0  0
 20 19  1  0  0  0  0
 20 15  1  0  0  0  0
 21 22  1  0  0  0  0
 22 23  2  0  0  0  0
 22 24  1  0  0  0  0
 23 28  1  0  0  0  0
 24 26  3  0  0  0  0
 26 25  1  0  0  0  0
 27 30  1  0  0  0  0
 28 27  3  0  0  0  0
 29 32  1  0  0  0  0
 30 31  2  0  0  0  0
 31 29  2  0  0  0  0
 32 33  1  0  0  0  0
M  END
>  <MODEL>
5

>  <REMARK>
 VINA RESULT:      -7.2      2.877      3.982
  Name = 
  9 active torsions:
  status: ('A' for Active; 'I' for Inactive)
    1  A    between atoms: C_1  and  C_18
    2  A    between atoms: C_2  and  C_7
    3  A    between atoms: C_3  and  C_8
    4  A    between atoms: C_3  and  C_17
    5  A    between atoms: O_6  and  C_15
    6  A    between atoms: O_6  and  C_31
    7  A    between atoms: C_9  and  C_10
    8  A    between atoms: C_15  and  C_27
    9  A    between atoms: C_17  and  C_27
                            x       y       z     vdW  Elec       q    Type
                         _______ _______ _______ _____ _____    ______ ____

>  <TORSDO>
F 9

$$$$
=
 OpenBabel10232411153D

 33 35  0  0  1  0  0  0  0  0999 V2000
  192.1620  177.0590  139.0350 N   0  0  0  0  0  0  0  0  0  0  0  0
  193.3080  174.8940  137.7310 C   0  0  0  0  0  3  0  0  0  0  0  0
  193.5130  176.8580  139.0690 C   0  0  0  0  0  3  0  0  0  0  0  0
  194.0730  175.7870  138.4240 N   0  0  0  0  0  0  0  0  0  0  0  0
  191.3980  176.1710  138.3510 C   0  0  0  0  0  0  0  0  0  0  0  0
  189.8100  174.9140  137.2950 C   0  0  0  0  0  0  0  0  0  0  0  0
  188.5670  174.4150  136.8000 N   0  0  0  0  0  2  0  0  0  0  0  0
  191.9360  175.1030  137.7010 C   0  0  0  0  0  0  0  0  0  0  0  0
  189.9590  176.1270  138.1370 C   0  0  0  0  0  0  0  0  0  0  0  0
  189.0130  176.9640  138.6010 C   0  0  0  0  0  0  0  0  0  0  0  0
  190.9440  174.3230  137.0450 N   0  0  0  0  0  0  0  0  0  0  0  0
  188.5210  173.2970  136.0390 O   0  0  0  0  0  1  0  0  0  0  0  0
  187.5690  176.7300  138.2590 C   0  0  0  0  0  2  0  0  0  0  0  0
  187.0130  177.8220  137.5680 O   0  0  0  0  0  0  0  0  0  0  0  0
  185.3440  175.8390  135.7370 C   0  0  0  0  0  2  0  0  0  0  0  0
  187.2120  177.5270  134.7490 Cl  0  0  0  0  0  0  0  0  0  0  0  0
  184.7030  178.2510  137.5990 O   0  0  0  0  0  1  0  0  0  0  0  0
  185.4390  175.9610  137.2480 C   0  0  0  0  0  2  0  0  0  0  0  0
  185.7340  177.4440  137.1030 C   0  0  2  0  0  0  0  0  0  0  0  0
  185.6450  177.3210  135.5850 C   0  0  2  0  0  3  0  0  0  0  0  0
  189.3980  178.1160  139.4890 C   0  0  0  0  0  2  0  0  0  0  0  0
  188.7210  178.0280  140.8190 C   0  0  0  0  0  0  0  0  0  0  0  0
  189.4190  177.5750  141.8620 C   0  0  0  0  0  3  0  0  0  0  0  0
  187.3400  178.4350  140.9400 C   0  0  0  0  0  0  0  0  0  0  0  0
  184.7900  179.1820  141.1750 C   0  0  0  0  0  1  0  0  0  0  0  0
  186.1880  178.7720  141.0450 C   0  0  0  0  0  0  0  0  0  0  0  0
  188.4230  177.3760  144.3070 C   0  0  0  0  0  0  0  0  0  0  0  0
  188.8730  177.4630  143.1920 C   0  0  0  0  0  0  0  0  0  0  0  0
  185.9760  178.8740  146.3980 C   0  0  0  0  0  3  0  0  0  0  0  0
  187.8920  177.2770  145.6360 C   0  0  0  0  0  3  0  0  0  0  0  0
  186.9350  178.0740  146.0170 C   0  0  0  0  0  0  0  0  0  0  0  0
  184.5590  178.4060  146.4550 C   0  0  0  0  0  2  0  0  0  0  0  0
  183.8120  178.7910  145.1900 C   0  0  0  0  0  1  0  0  0  0  0  0
  1  3  1  0  0  0  0
  2  4  1  0  0  0  0
  4  3  2  0  0  0  0
  5  1  2  0  0  0  0
  6  9  1  0  0  0  0
  7  6  1  0  0  0  0
  8  2  2  0  0  0  0
  8  5  1  0  0  0  0
  9  5  1  0  0  0  0
  9 10  2  0  0  0  0
 10 21  1  0  0  0  0
 11  6  2  0  0  0  0
 11  8  1  0  0  0  0
 12  7  1  0  0  0  0
 13 10  1  0  0  0  0
 14 13  1  0  0  0  0
 15 18  1  0  0  0  0
 19 18  1  0  0  0  0
 19 14  1  0  0  0  0
 19 17  1  1  0  0  0
 20 16  1  6  0  0  0
 20 15  1  0  0  0  0
 20 19  1  0  0  0  0
 21 22  1  0  0  0  0
 22 24  1  0  0  0  0
 22 23  2  0  0  0  0
 23 28  1  0  0  0  0
 24 26  3  0  0  0  0
 26 25  1  0  0  0  0
 27 30  1  0  0  0  0
 28 27  3  0  0  0  0
 29 32  1  0  0  0  0
 30 31  2  0  0  0  0
 31 29  2  0  0  0  0
 33 32  1  0  0  0  0
M  END
>  <MODEL>
6

>  <REMARK>
 VINA RESULT:      -7.0      4.214      5.720
  Name = 
  9 active torsions:
  status: ('A' for Active; 'I' for Inactive)
    1  A    between atoms: C_1  and  C_18
    2  A    between atoms: C_2  and  C_7
    3  A    between atoms: C_3  and  C_8
    4  A    between atoms: C_3  and  C_17
    5  A    between atoms: O_6  and  C_15
    6  A    between atoms: O_6  and  C_31
    7  A    between atoms: C_9  and  C_10
    8  A    between atoms: C_15  and  C_27
    9  A    between atoms: C_17  and  C_27
                            x       y       z     vdW  Elec       q    Type
                         _______ _______ _______ _____ _____    ______ ____

>  <TORSDO>
F 9

$$$$
=
 OpenBabel10232411153D

 33 35  0  0  1  0  0  0  0  0999 V2000
  188.3890  178.7820  139.3220 N   0  0  0  0  0  0  0  0  0  0  0  0
  190.6240  177.3040  138.6030 C   0  0  0  0  0  3  0  0  0  0  0  0
  188.9740  178.9510  138.0990 C   0  0  0  0  0  3  0  0  0  0  0  0
  190.0780  178.2190  137.7500 N   0  0  0  0  0  0  0  0  0  0  0  0
  188.9310  177.8770  140.1740 C   0  0  0  0  0  0  0  0  0  0  0  0
  189.5420  176.4460  141.8460 C   0  0  0  0  0  0  0  0  0  0  0  0
  189.5980  175.7280  143.0790 N   0  0  0  0  0  2  0  0  0  0  0  0
  190.0250  177.1380  139.8440 C   0  0  0  0  0  0  0  0  0  0  0  0
  188.5310  177.4820  141.5170 C   0  0  0  0  0  0  0  0  0  0  0  0
  187.5180  177.9520  142.2650 C   0  0  0  0  0  0  0  0  0  0  0  0
  190.4020  176.2480  140.8880 N   0  0  0  0  0  0  0  0  0  0  0  0
  190.5580  174.7990  143.2990 O   0  0  0  0  0  1  0  0  0  0  0  0
  187.2810  177.4000  143.6430 C   0  0  0  0  0  2  0  0  0  0  0  0
  187.5000  178.3690  144.6380 O   0  0  0  0  0  0  0  0  0  0  0  0
  187.8700  178.3680  147.7890 C   0  0  0  0  0  2  0  0  0  0  0  0
  189.8370  177.6400  146.0800 Cl  0  0  0  0  0  0  0  0  0  0  0  0
  186.0630  176.8730  145.7420 O   0  0  0  0  0  1  0  0  0  0  0  0
  186.7410  178.8890  146.9170 C   0  0  0  0  0  2  0  0  0  0  0  0
  187.0700  177.8370  145.8740 C   0  0  2  0  0  0  0  0  0  0  0  0
  188.2090  177.3170  146.7460 C   0  0  2  0  0  3  0  0  0  0  0  0
  186.6380  179.0520  141.7360 C   0  0  0  0  0  2  0  0  0  0  0  0
  185.2020  178.6380  141.7130 C   0  0  0  0  0  0  0  0  0  0  0  0
  184.6710  178.2360  140.5560 C   0  0  0  0  0  3  0  0  0  0  0  0
  184.4320  178.6830  142.9340 C   0  0  0  0  0  0  0  0  0  0  0  0
  183.0150  178.7760  145.1930 C   0  0  0  0  0  1  0  0  0  0  0  0
  183.7910  178.7240  143.9550 C   0  0  0  0  0  0  0  0  0  0  0  0
  182.1630  177.4300  140.3040 C   0  0  0  0  0  0  0  0  0  0  0  0
  183.3040  177.8010  140.4210 C   0  0  0  0  0  0  0  0  0  0  0  0
  180.1740  175.3430  138.2310 C   0  0  0  0  0  3  0  0  0  0  0  0
  180.8070  176.9820  140.1590 C   0  0  0  0  0  3  0  0  0  0  0  0
  180.4910  176.1630  139.1970 C   0  0  0  0  0  0  0  0  0  0  0  0
  179.9850  173.8850  138.4900 C   0  0  0  0  0  2  0  0  0  0  0  0
  180.5020  173.0580  137.3260 C   0  0  0  0  0  1  0  0  0  0  0  0
  1  5  1  0  0  0  0
  2  8  1  0  0  0  0
  3  1  2  0  0  0  0
  4  3  1  0  0  0  0
  4  2  2  0  0  0  0
  5  9  1  0  0  0  0
  6  7  1  0  0  0  0
  7 12  1  0  0  0  0
  8  5  2  0  0  0  0
  8 11  1  0  0  0  0
  9  6  1  0  0  0  0
  9 10  2  0  0  0  0
 10 13  1  0  0  0  0
 11  6  2  0  0  0  0
 13 14  1  0  0  0  0
 14 19  1  0  0  0  0
 18 15  1  0  0  0  0
 19 17  1  6  0  0  0
 19 20  1  0  0  0  0
 19 18  1  0  0  0  0
 20 16  1  6  0  0  0
 20 15  1  0  0  0  0
 21 10  1  0  0  0  0
 22 21  1  0  0  0  0
 22 24  1  0  0  0  0
 23 22  2  0  0  0  0
 24 26  3  0  0  0  0
 26 25  1  0  0  0  0
 27 28  3  0  0  0  0
 28 23  1  0  0  0  0
 29 32  1  0  0  0  0
 29 31  2  0  0  0  0
 30 27  1  0  0  0  0
 31 30  2  0  0  0  0
 33 32  1  0  0  0  0
M  END
>  <MODEL>
7

>  <REMARK>
 VINA RESULT:      -7.0      3.906      7.517
  Name = 
  9 active torsions:
  status: ('A' for Active; 'I' for Inactive)
    1  A    between atoms: C_1  and  C_18
    2  A    between atoms: C_2  and  C_7
    3  A    between atoms: C_3  and  C_8
    4  A    between atoms: C_3  and  C_17
    5  A    between atoms: O_6  and  C_15
    6  A    between atoms: O_6  and  C_31
    7  A    between atoms: C_9  and  C_10
    8  A    between atoms: C_15  and  C_27
    9  A    between atoms: C_17  and  C_27
                            x       y       z     vdW  Elec       q    Type
                         _______ _______ _______ _____ _____    ______ ____

>  <TORSDO>
F 9

$$$$
=
 OpenBabel10232411153D

 33 35  0  0  1  0  0  0  0  0999 V2000
  192.0760  176.9090  138.6340 N   0  0  0  0  0  0  0  0  0  0  0  0
  193.3870  174.6400  137.7210 C   0  0  0  0  0  3  0  0  0  0  0  0
  193.4260  176.7720  138.7910 C   0  0  0  0  0  3  0  0  0  0  0  0
  194.0680  175.6500  138.3390 N   0  0  0  0  0  0  0  0  0  0  0  0
  191.3950  175.9070  138.0240 C   0  0  0  0  0  0  0  0  0  0  0  0
  189.9340  174.4550  137.0380 C   0  0  0  0  0  0  0  0  0  0  0  0
  188.7490  173.8430  136.5280 N   0  0  0  0  0  2  0  0  0  0  0  0
  192.0160  174.7860  137.5660 C   0  0  0  0  0  0  0  0  0  0  0  0
  189.9780  175.7740  137.7160 C   0  0  0  0  0  0  0  0  0  0  0  0
  188.9740  176.6250  137.9940 C   0  0  0  0  0  0  0  0  0  0  0  0
  191.1020  173.8850  136.9520 N   0  0  0  0  0  0  0  0  0  0  0  0
  188.7960  172.6320  135.9240 O   0  0  0  0  0  1  0  0  0  0  0  0
  187.5680  176.2870  137.5840 C   0  0  0  0  0  2  0  0  0  0  0  0
  186.8840  177.4120  137.0900 O   0  0  0  0  0  0  0  0  0  0  0  0
  184.6860  175.7570  135.5090 C   0  0  0  0  0  2  0  0  0  0  0  0
  186.1950  177.6780  134.3460 Cl  0  0  0  0  0  0  0  0  0  0  0  0
  184.7070  177.7350  137.9140 O   0  0  0  0  0  1  0  0  0  0  0  0
  185.2470  175.5880  136.9110 C   0  0  0  0  0  2  0  0  0  0  0  0
  185.5160  177.0810  136.9760 C   0  0  2  0  0  0  0  0  0  0  0  0
  184.9590  177.2510  135.5670 C   0  0  2  0  0  3  0  0  0  0  0  0
  189.2520  177.9000  138.7420 C   0  0  0  0  0  2  0  0  0  0  0  0
  188.6770  177.8600  140.1210 C   0  0  0  0  0  0  0  0  0  0  0  0
  187.4720  178.3970  140.3270 C   0  0  0  0  0  3  0  0  0  0  0  0
  189.4340  177.2440  141.1870 C   0  0  0  0  0  0  0  0  0  0  0  0
  190.8200  176.1060  143.1610 C   0  0  0  0  0  1  0  0  0  0  0  0
  190.0610  176.7300  142.0790 C   0  0  0  0  0  0  0  0  0  0  0  0
  186.2600  178.3990  142.6800 C   0  0  0  0  0  0  0  0  0  0  0  0
  186.8160  178.3990  141.6100 C   0  0  0  0  0  0  0  0  0  0  0  0
  186.7060  177.2430  146.0070 C   0  0  0  0  0  3  0  0  0  0  0  0
  185.5910  178.3950  143.9500 C   0  0  0  0  0  3  0  0  0  0  0  0
  186.1480  177.8200  144.9780 C   0  0  0  0  0  0  0  0  0  0  0  0
  187.3950  178.0450  147.0610 C   0  0  0  0  0  2  0  0  0  0  0  0
  188.7090  177.3950  147.4620 C   0  0  0  0  0  1  0  0  0  0  0  0
  1  3  1  0  0  0  0
  2  4  1  0  0  0  0
  4  3  2  0  0  0  0
  5  1  2  0  0  0  0
  6  9  1  0  0  0  0
  7  6  1  0  0  0  0
  8  2  2  0  0  0  0
  8  5  1  0  0  0  0
  9 10  2  0  0  0  0
  9  5  1  0  0  0  0
 10 21  1  0  0  0  0
 11  6  2  0  0  0  0
 11  8  1  0  0  0  0
 12  7  1  0  0  0  0
 13 10  1  0  0  0  0
 14 13  1  0  0  0  0
 15 20  1  0  0  0  0
 15 18  1  0  0  0  0
 18 19  1  0  0  0  0
 19 14  1  0  0  0  0
 19 17  1  1  0  0  0
 20 16  1  6  0  0  0
 20 19  1  0  0  0  0
 21 22  1  0  0  0  0
 22 23  2  0  0  0  0
 22 24  1  0  0  0  0
 23 28  1  0  0  0  0
 24 26  3  0  0  0  0
 26 25  1  0  0  0  0
 27 30  1  0  0  0  0
 28 27  3  0  0  0  0
 29 32  1  0  0  0  0
 30 31  2  0  0  0  0
 31 29  2  0  0  0  0
 32 33  1  0  0  0  0
M  END
>  <MODEL>
8

>  <REMARK>
 VINA RESULT:      -6.9      4.290      5.884
  Name = 
  9 active torsions:
  status: ('A' for Active; 'I' for Inactive)
    1  A    between atoms: C_1  and  C_18
    2  A    between atoms: C_2  and  C_7
    3  A    between atoms: C_3  and  C_8
    4  A    between atoms: C_3  and  C_17
    5  A    between atoms: O_6  and  C_15
    6  A    between atoms: O_6  and  C_31
    7  A    between atoms: C_9  and  C_10
    8  A    between atoms: C_15  and  C_27
    9  A    between atoms: C_17  and  C_27
                            x       y       z     vdW  Elec       q    Type
                         _______ _______ _______ _____ _____    ______ ____

>  <TORSDO>
F 9

$$$$
=
 OpenBabel10232411153D

 33 35  0  0  1  0  0  0  0  0999 V2000
  185.0880  179.1510  138.8560 N   0  0  0  0  0  0  0  0  0  0  0  0
  183.0580  177.9500  137.3960 C   0  0  0  0  0  3  0  0  0  0  0  0
  183.8270  179.6760  138.8510 C   0  0  0  0  0  3  0  0  0  0  0  0
  182.8290  179.0790  138.1270 N   0  0  0  0  0  0  0  0  0  0  0  0
  185.3210  178.0320  138.1270 C   0  0  0  0  0  0  0  0  0  0  0  0
  186.0780  176.1650  137.0490 C   0  0  0  0  0  0  0  0  0  0  0  0
  186.9060  175.1120  136.5580 N   0  0  0  0  0  2  0  0  0  0  0  0
  184.3410  177.4220  137.4040 C   0  0  0  0  0  0  0  0  0  0  0  0
  186.5390  177.2550  137.9460 C   0  0  0  0  0  0  0  0  0  0  0  0
  187.7640  177.4820  138.4500 C   0  0  0  0  0  0  0  0  0  0  0  0
  184.8170  176.2600  136.7350 N   0  0  0  0  0  0  0  0  0  0  0  0
  186.4050  174.1580  135.7390 O   0  0  0  0  0  1  0  0  0  0  0  0
  188.8950  176.5450  138.1310 C   0  0  0  0  0  2  0  0  0  0  0  0
  189.9820  177.2180  137.5480 O   0  0  0  0  0  0  0  0  0  0  0  0
  191.7800  174.6090  137.7180 C   0  0  0  0  0  2  0  0  0  0  0  0
  192.4260  176.9210  138.9660 Cl  0  0  0  0  0  0  0  0  0  0  0  0
  190.8320  176.5380  135.4650 O   0  0  0  0  0  1  0  0  0  0  0  0
  190.3930  174.8300  137.1380 C   0  0  0  0  0  2  0  0  0  0  0  0
  190.7570  176.2730  136.8380 C   0  0  2  0  0  0  0  0  0  0  0  0
  192.1470  176.0540  137.4270 C   0  0  2  0  0  3  0  0  0  0  0  0
  188.0120  178.6920  139.3100 C   0  0  0  0  0  2  0  0  0  0  0  0
  188.0290  178.3350  140.7610 C   0  0  0  0  0  0  0  0  0  0  0  0
  186.8850  178.3870  141.4460 C   0  0  0  0  0  3  0  0  0  0  0  0
  189.2750  177.9460  141.3810 C   0  0  0  0  0  0  0  0  0  0  0  0
  191.5710  177.2160  142.5270 C   0  0  0  0  0  1  0  0  0  0  0  0
  190.3130  177.6170  141.8990 C   0  0  0  0  0  0  0  0  0  0  0  0
  186.7030  177.7710  144.0140 C   0  0  0  0  0  0  0  0  0  0  0  0
  186.7820  178.0490  142.8430 C   0  0  0  0  0  0  0  0  0  0  0  0
  188.7880  176.9860  146.7780 C   0  0  0  0  0  3  0  0  0  0  0  0
  186.6160  177.4450  145.4090 C   0  0  0  0  0  3  0  0  0  0  0  0
  187.7010  177.2160  146.0930 C   0  0  0  0  0  0  0  0  0  0  0  0
  189.3640  178.0240  147.6820 C   0  0  0  0  0  2  0  0  0  0  0  0
  188.3810  178.3880  148.7820 C   0  0  0  0  0  1  0  0  0  0  0  0
  2  8  2  0  0  0  0
  2  4  1  0  0  0  0
  3  1  1  0  0  0  0
  4  3  2  0  0  0  0
  5  1  2  0  0  0  0
  6  9  1  0  0  0  0
  7  6  1  0  0  0  0
  8  5  1  0  0  0  0
  9  5  1  0  0  0  0
  9 10  2  0  0  0  0
 10 21  1  0  0  0  0
 11  6  2  0  0  0  0
 11  8  1  0  0  0  0
 12  7  1  0  0  0  0
 13 10  1  0  0  0  0
 14 13  1  0  0  0  0
 18 15  1  0  0  0  0
 19 17  1  6  0  0  0
 19 18  1  0  0  0  0
 19 20  1  0  0  0  0
 19 14  1  0  0  0  0
 20 15  1  0  0  0  0
 20 16  1  1  0  0  0
 21 22  1  0  0  0  0
 22 24  1  0  0  0  0
 22 23  2  0  0  0  0
 23 28  1  0  0  0  0
 24 26  3  0  0  0  0
 26 25  1  0  0  0  0
 27 30  1  0  0  0  0
 28 27  3  0  0  0  0
 29 32  1  0  0  0  0
 30 31  2  0  0  0  0
 31 29  2  0  0  0  0
 32 33  1  0  0  0  0
M  END
>  <MODEL>
9

>  <REMARK>
 VINA RESULT:      -6.9      4.027      6.271
  Name = 
  9 active torsions:
  status: ('A' for Active; 'I' for Inactive)
    1  A    between atoms: C_1  and  C_18
    2  A    between atoms: C_2  and  C_7
    3  A    between atoms: C_3  and  C_8
    4  A    between atoms: C_3  and  C_17
    5  A    between atoms: O_6  and  C_15
    6  A    between atoms: O_6  and  C_31
    7  A    between atoms: C_9  and  C_10
    8  A    between atoms: C_15  and  C_27
    9  A    between atoms: C_17  and  C_27
                            x       y       z     vdW  Elec       q    Type
                         _______ _______ _______ _____ _____    ______ ____

>  <TORSDO>
F 9

$$$$
