=
 OpenBabel10232409393D

 58 66  0  0  1  0  0  0  0  0999 V2000
  188.3830  177.2730  141.1160 C   0  0  1  0  0  3  0  0  0  0  0  0
  184.3100  179.1110  141.4930 C   0  0  1  0  0  3  0  0  0  0  0  0
  183.2190  178.0570  141.2160 C   0  0  1  0  0  3  0  0  0  0  0  0
  182.1090  178.2040  142.2300 C   0  0  0  0  0  3  0  0  0  0  0  0
  182.4130  178.5250  143.4950 C   0  0  0  0  0  3  0  0  0  0  0  0
  183.7820  178.7850  143.8600 N   0  0  0  0  0  0  0  0  0  0  0  0
  189.0800  176.3830  142.1080 C   0  0  0  0  0  0  0  0  0  0  0  0
  191.0930  177.8070  141.7100 C   0  0  0  0  0  2  0  0  0  0  0  0
  190.7920  177.6390  140.2230 C   0  0  0  0  0  2  0  0  0  0  0  0
  188.9260  176.7940  138.6770 C   0  0  2  0  0  3  0  0  0  0  0  0
  188.4670  175.4730  142.6400 O   0  0  0  0  0  0  0  0  0  0  0  0
  190.5150  176.6280  142.4870 C   0  0  0  0  0  2  0  0  0  0  0  0
  184.6560  179.0670  142.9380 C   0  0  0  0  0  0  0  0  0  0  0  0
  186.8490  178.2020  138.0380 C   0  0  0  0  0  2  0  0  0  0  0  0
  185.8570  179.4700  139.5780 C   0  0  0  0  0  2  0  0  0  0  0  0
  186.0470  178.9220  143.1310 N   0  0  0  0  0  0  0  0  0  0  0  0
  187.3990  176.8210  138.4040 C   0  0  1  0  0  3  0  0  0  0  0  0
  186.5450  178.7840  141.9470 C   0  0  0  0  0  0  0  0  0  0  0  0
  187.1040  179.1120  139.0710 O   0  0  0  0  0  0  0  0  0  0  0  0
  187.9320  178.4910  141.7780 N   0  0  0  0  0  2  0  0  0  0  0  0
  189.2820  177.6340  139.9170 C   0  0  1  0  0  3  0  0  0  0  0  0
  185.5910  178.8250  140.8640 N   0  0  0  0  0  0  0  0  0  0  0  0
  182.5730  180.1390  138.4100 C   0  0  2  0  0  3  0  0  0  0  0  0
  182.6580  178.0810  139.7900 C   0  0  2  0  0  3  0  0  0  0  0  0
  180.9410  176.9720  138.1750 C   0  0  0  0  0  2  0  0  0  0  0  0
  181.8860  179.3810  139.5500 C   0  0  2  0  0  3  0  0  0  0  0  0
  182.1580  181.5790  138.4070 C   0  0  0  0  0  2  0  0  0  0  0  0
  181.8670  176.8070  139.3920 C   0  0  1  0  0  3  0  0  0  0  0  0
  180.2030  180.3200  137.9960 O   0  0  0  0  0  0  0  0  0  0  0  0
  181.2740  179.4290  138.1580 C   0  0  1  0  0  0  0  0  0  0  0  0
  181.3230  178.1660  137.3080 C   0  0  0  0  0  2  0  0  0  0  0  0
  180.7940  181.5700  137.7570 C   0  0  0  0  0  2  0  0  0  0  0  0
  182.7760  175.5890  139.2350 C   0  0  0  0  0  2  0  0  0  0  0  0
  182.3380  174.6990  138.0830 C   0  0  0  0  0  2  0  0  0  0  0  0
  182.8080  171.9560  137.5610 O   0  0  0  0  0  0  0  0  0  0  0  0
  183.4340  174.5600  137.1340 N   0  0  0  0  0  0  0  0  0  0  0  0
  183.8710  172.8720  136.9890 P   0  0  1  0  0  0  0  0  0  0  0  0
  181.8940  174.2400  135.1620 C   0  0  0  0  0  2  0  0  0  0  0  0
  185.3760  172.5630  137.6980 O   0  0  0  0  0  1  0  0  0  0  0  0
  183.3210  174.0510  134.6750 C   0  0  1  0  0  3  0  0  0  0  0  0
  183.0170  175.0570  135.8040 C   0  0  2  0  0  3  0  0  0  0  0  0
  183.9130  172.7430  135.2080 C   0  0  1  0  0  3  0  0  0  0  0  0
  185.2970  172.6350  134.7740 N   0  0  0  0  0  2  0  0  0  0  0  0
  185.2540  170.2520  134.3470 C   0  0  0  0  0  1  0  0  0  0  0  0
  185.8130  171.3540  135.2290 C   0  0  1  0  0  3  0  0  0  0  0  0
  188.1070  172.5520  134.3490 O   0  0  0  0  0  0  0  0  0  0  0  0
  188.1610  169.9400  134.3600 O   0  0  0  0  0  1  0  0  0  0  0  0
  187.6310  171.3500  135.1310 P   0  0  0  0  0  0  0  0  0  0  0  0
  188.2870  171.4090  136.6900 O   0  0  0  0  0  1  0  0  0  0  0  0
  186.9840  175.7940  137.4050 C   0  0  0  0  0  0  0  0  0  0  0  0
  186.1850  176.1410  136.3280 O   0  0  0  0  0  0  0  0  0  0  0  0
  187.3960  174.6100  137.5140 O   0  0  0  0  0  1  0  0  0  0  0  0
  189.7260  177.2400  137.4420 C   0  0  0  0  0  2  0  0  0  0  0  0
  190.6110  176.1320  136.8580 C   0  0  2  0  0  3  0  0  0  0  0  0
  190.0130  175.5060  135.6130 C   0  0  0  0  0  1  0  0  0  0  0  0
  190.9420  175.0530  137.8760 C   0  0  0  0  0  2  0  0  0  0  0  0
  191.4200  173.8580  137.1950 N   0  0  0  0  0  2  0  0  0  0  0  0
  192.8740  173.9410  137.1510 C   0  0  0  0  0  1  0  0  0  0  0  0
  1 20  1  1  0  0  0
  1  7  1  0  0  0  0
  2 13  1  1  0  0  0
  3  2  1  0  0  0  0
  3  4  1  1  0  0  0
  4  5  2  0  0  0  0
  5  6  1  0  0  0  0
  7 12  1  0  0  0  0
  7 11  2  0  0  0  0
  8 12  1  0  0  0  0
  9  8  1  0  0  0  0
 10 53  1  6  0  0  0
 10 21  1  0  0  0  0
 13 16  1  0  0  0  0
 13  6  2  0  0  0  0
 14 17  1  0  0  0  0
 14 19  1  0  0  0  0
 15 22  1  0  0  0  0
 17 50  1  6  0  0  0
 17 10  1  0  0  0  0
 18 16  2  0  0  0  0
 19 15  1  0  0  0  0
 20 18  1  0  0  0  0
 21  9  1  1  0  0  0
 21  1  1  0  0  0  0
 22  2  1  0  0  0  0
 22 18  1  0  0  0  0
 23 27  1  1  0  0  0
 23 26  1  0  0  0  0
 24  3  1  1  0  0  0
 25 28  1  0  0  0  0
 26 24  1  0  0  0  0
 28 24  1  0  0  0  0
 29 30  1  0  0  0  0
 30 23  1  0  0  0  0
 30 26  1  0  0  0  0
 31 30  1  0  0  0  0
 31 25  1  0  0  0  0
 32 29  1  0  0  0  0
 32 27  1  0  0  0  0
 33 28  1  0  0  0  0
 34 33  1  0  0  0  0
 36 34  1  0  0  0  0
 37 36  1  0  0  0  0
 37 35  2  0  0  0  0
 37 39  1  0  0  0  0
 38 41  1  0  0  0  0
 40 38  1  0  0  0  0
 40 42  1  0  0  0  0
 40 41  1  0  0  0  0
 41 36  1  0  0  0  0
 42 37  1  0  0  0  0
 43 42  1  0  0  0  0
 43 45  1  0  0  0  0
 44 45  1  0  0  0  0
 46 48  2  0  0  0  0
 47 48  1  0  0  0  0
 48 45  1  0  0  0  0
 48 49  1  0  0  0  0
 50 52  1  0  0  0  0
 51 50  2  0  0  0  0
 54 53  1  0  0  0  0
 54 56  1  0  0  0  0
 55 54  1  0  0  0  0
 57 56  1  0  0  0  0
 58 57  1  0  0  0  0
M  END
>  <MODEL>
1

>  <REMARK>
 VINA RESULT:      -4.8      0.000      0.000
  Name = 
  12 active torsions:
  status: ('A' for Active; 'I' for Inactive)
    1  A    between atoms: C_4  and  C_17
    2  A    between atoms: C_4  and  C_35
    3  A    between atoms: N_6  and  C_29
    4  A    between atoms: N_7  and  C_17
    5  A    between atoms: C_10  and  C_12
    6  A    between atoms: C_16  and  C_44
    7  A    between atoms: C_22  and  C_42
    8  A    between atoms: C_28  and  N_32
    9  A    between atoms: C_28  and  P_34
   10  A    between atoms: C_29  and  C_42
   11  A    between atoms: C_30  and  C_35
   12  A    between atoms: N_32  and  C_53
                            x       y       z     vdW  Elec       q    Type
                         _______ _______ _______ _____ _____    ______ ____

>  <TORSDO>
F 12

$$$$
=
 OpenBabel10232409393D

 58 66  0  0  1  0  0  0  0  0999 V2000
  188.3930  177.2480  141.3660 C   0  0  1  0  0  3  0  0  0  0  0  0
  184.3200  179.1190  141.5150 C   0  0  1  0  0  3  0  0  0  0  0  0
  183.2420  178.0830  141.1430 C   0  0  1  0  0  3  0  0  0  0  0  0
  182.0690  178.2180  142.0840 C   0  0  0  0  0  3  0  0  0  0  0  0
  182.2910  178.5070  143.3740 C   0  0  0  0  0  3  0  0  0  0  0  0
  183.6350  178.7460  143.8340 N   0  0  0  0  0  0  0  0  0  0  0  0
  189.0150  176.3290  142.3820 C   0  0  0  0  0  0  0  0  0  0  0  0
  191.0630  177.7410  142.1500 C   0  0  0  0  0  2  0  0  0  0  0  0
  190.8600  177.6090  140.6430 C   0  0  0  0  0  2  0  0  0  0  0  0
  189.0930  176.8180  138.9570 C   0  0  2  0  0  3  0  0  0  0  0  0
  188.3610  175.4140  142.8510 O   0  0  0  0  0  0  0  0  0  0  0  0
  190.4240  176.5520  142.8600 C   0  0  0  0  0  2  0  0  0  0  0  0
  184.5700  179.0390  142.9780 C   0  0  0  0  0  0  0  0  0  0  0  0
  187.0750  178.2610  138.2150 C   0  0  0  0  0  2  0  0  0  0  0  0
  185.9940  179.5050  139.7150 C   0  0  0  0  0  2  0  0  0  0  0  0
  185.9430  178.8760  143.2600 N   0  0  0  0  0  0  0  0  0  0  0  0
  187.5880  176.8670  138.5860 C   0  0  1  0  0  3  0  0  0  0  0  0
  186.5180  178.7590  142.1080 C   0  0  0  0  0  0  0  0  0  0  0  0
  187.2690  179.1450  139.2840 O   0  0  0  0  0  0  0  0  0  0  0  0
  187.9100  178.4550  142.0240 N   0  0  0  0  0  2  0  0  0  0  0  0
  189.3730  177.6260  140.2380 C   0  0  1  0  0  3  0  0  0  0  0  0
  185.6380  178.8340  140.9650 N   0  0  0  0  0  0  0  0  0  0  0  0
  182.7060  180.2510  138.3800 C   0  0  2  0  0  3  0  0  0  0  0  0
  182.7760  178.1440  139.6840 C   0  0  2  0  0  3  0  0  0  0  0  0
  181.2140  177.0410  137.9150 C   0  0  0  0  0  2  0  0  0  0  0  0
  181.9730  179.4250  139.4410 C   0  0  2  0  0  3  0  0  0  0  0  0
  182.2380  181.6750  138.4030 C   0  0  0  0  0  2  0  0  0  0  0  0
  182.0630  176.8600  139.1850 C   0  0  1  0  0  3  0  0  0  0  0  0
  180.3640  180.3660  137.8120 O   0  0  0  0  0  0  0  0  0  0  0  0
  181.4540  179.5070  138.0130 C   0  0  1  0  0  0  0  0  0  0  0  0
  181.6080  178.2810  137.1220 C   0  0  0  0  0  2  0  0  0  0  0  0
  180.9220  181.6440  137.6610 C   0  0  0  0  0  2  0  0  0  0  0  0
  183.0250  175.6820  139.0450 C   0  0  0  0  0  2  0  0  0  0  0  0
  183.4110  175.4350  137.5960 C   0  0  0  0  0  2  0  0  0  0  0  0
  184.0500  175.0090  134.8700 O   0  0  0  0  0  1  0  0  0  0  0  0
  182.7870  174.2030  137.1300 N   0  0  0  0  0  0  0  0  0  0  0  0
  182.9920  174.0620  135.3990 P   0  0  1  0  0  0  0  0  0  0  0  0
  184.8960  172.8460  137.4020 C   0  0  0  0  0  2  0  0  0  0  0  0
  181.5250  174.2850  134.5850 O   0  0  0  0  0  0  0  0  0  0  0  0
  183.8440  171.9530  136.7660 C   0  0  1  0  0  3  0  0  0  0  0  0
  183.4250  173.0370  137.7800 C   0  0  2  0  0  3  0  0  0  0  0  0
  183.5700  172.3740  135.3190 C   0  0  1  0  0  3  0  0  0  0  0  0
  182.5130  171.5380  134.7720 N   0  0  0  0  0  2  0  0  0  0  0  0
  180.7930  170.1060  135.6980 C   0  0  0  0  0  1  0  0  0  0  0  0
  182.2720  170.4490  135.7060 C   0  0  1  0  0  3  0  0  0  0  0  0
  184.4030  169.4090  134.3460 O   0  0  0  0  0  0  0  0  0  0  0  0
  182.2580  167.9150  134.3460 O   0  0  0  0  0  1  0  0  0  0  0  0
  183.2390  168.9870  135.2140 P   0  0  0  0  0  0  0  0  0  0  0  0
  183.8320  168.2040  136.5920 O   0  0  0  0  0  1  0  0  0  0  0  0
  187.2310  175.8660  137.5380 C   0  0  0  0  0  0  0  0  0  0  0  0
  187.8250  174.6150  137.5270 O   0  0  0  0  0  1  0  0  0  0  0  0
  186.3520  176.1420  136.6800 O   0  0  0  0  0  0  0  0  0  0  0  0
  189.9770  177.2840  137.7890 C   0  0  0  0  0  2  0  0  0  0  0  0
  190.8830  176.1780  137.2350 C   0  0  2  0  0  3  0  0  0  0  0  0
  192.2330  176.1310  137.9260 C   0  0  0  0  0  1  0  0  0  0  0  0
  191.0730  176.2780  135.7300 C   0  0  0  0  0  2  0  0  0  0  0  0
  189.8670  175.8310  135.0470 N   0  0  0  0  0  2  0  0  0  0  0  0
  190.0260  174.4070  134.7830 C   0  0  0  0  0  1  0  0  0  0  0  0
  1 20  1  1  0  0  0
  1  7  1  0  0  0  0
  2 13  1  1  0  0  0
  3  2  1  0  0  0  0
  3  4  1  1  0  0  0
  4  5  2  0  0  0  0
  5  6  1  0  0  0  0
  7 11  2  0  0  0  0
  7 12  1  0  0  0  0
  8 12  1  0  0  0  0
  9  8  1  0  0  0  0
 10 53  1  6  0  0  0
 10 21  1  0  0  0  0
 13 16  1  0  0  0  0
 13  6  2  0  0  0  0
 14 17  1  0  0  0  0
 14 19  1  0  0  0  0
 15 22  1  0  0  0  0
 17 50  1  6  0  0  0
 17 10  1  0  0  0  0
 18 16  2  0  0  0  0
 19 15  1  0  0  0  0
 20 18  1  0  0  0  0
 21  9  1  1  0  0  0
 21  1  1  0  0  0  0
 22  2  1  0  0  0  0
 22 18  1  0  0  0  0
 23 27  1  1  0  0  0
 23 26  1  0  0  0  0
 24  3  1  1  0  0  0
 25 28  1  0  0  0  0
 26 24  1  0  0  0  0
 28 24  1  0  0  0  0
 29 30  1  0  0  0  0
 30 23  1  0  0  0  0
 30 26  1  0  0  0  0
 31 25  1  0  0  0  0
 31 30  1  0  0  0  0
 32 29  1  0  0  0  0
 32 27  1  0  0  0  0
 33 28  1  0  0  0  0
 34 33  1  0  0  0  0
 35 37  1  0  0  0  0
 36 34  1  0  0  0  0
 36 41  1  0  0  0  0
 37 36  1  0  0  0  0
 38 41  1  0  0  0  0
 39 37  2  0  0  0  0
 40 38  1  0  0  0  0
 40 41  1  0  0  0  0
 42 37  1  0  0  0  0
 42 40  1  0  0  0  0
 43 42  1  0  0  0  0
 43 45  1  0  0  0  0
 44 45  1  0  0  0  0
 46 48  2  0  0  0  0
 47 48  1  0  0  0  0
 48 45  1  0  0  0  0
 48 49  1  0  0  0  0
 51 50  1  0  0  0  0
 52 50  2  0  0  0  0
 54 53  1  0  0  0  0
 54 55  1  0  0  0  0
 56 54  1  0  0  0  0
 57 56  1  0  0  0  0
 58 57  1  0  0  0  0
M  END
>  <MODEL>
2

>  <REMARK>
 VINA RESULT:      -4.5      1.735      2.285
  Name = 
  12 active torsions:
  status: ('A' for Active; 'I' for Inactive)
    1  A    between atoms: C_4  and  C_17
    2  A    between atoms: C_4  and  C_35
    3  A    between atoms: N_6  and  C_29
    4  A    between atoms: N_7  and  C_17
    5  A    between atoms: C_10  and  C_12
    6  A    between atoms: C_16  and  C_44
    7  A    between atoms: C_22  and  C_42
    8  A    between atoms: C_28  and  N_32
    9  A    between atoms: C_28  and  P_34
   10  A    between atoms: C_29  and  C_42
   11  A    between atoms: C_30  and  C_35
   12  A    between atoms: N_32  and  C_53
                            x       y       z     vdW  Elec       q    Type
                         _______ _______ _______ _____ _____    ______ ____

>  <TORSDO>
F 12

$$$$
=
 OpenBabel10232409393D

 58 66  0  0  1  0  0  0  0  0999 V2000
  182.7630  175.5330  137.0330 C   0  0  1  0  0  3  0  0  0  0  0  0
  186.9760  174.6480  135.7760 C   0  0  1  0  0  3  0  0  0  0  0  0
  187.8900  174.5310  137.0120 C   0  0  1  0  0  3  0  0  0  0  0  0
  188.8190  173.3520  136.8400 C   0  0  0  0  0  3  0  0  0  0  0  0
  188.3660  172.2400  136.2430 C   0  0  0  0  0  3  0  0  0  0  0  0
  187.0250  172.2020  135.7200 N   0  0  0  0  0  0  0  0  0  0  0  0
  181.7590  174.5710  137.6060 C   0  0  0  0  0  0  0  0  0  0  0  0
  180.1330  175.5850  136.0040 C   0  0  0  0  0  2  0  0  0  0  0  0
  180.6470  176.9360  136.4940 C   0  0  0  0  0  2  0  0  0  0  0  0
  182.5670  177.9240  137.8820 C   0  0  2  0  0  3  0  0  0  0  0  0
  182.0970  173.7900  138.4780 O   0  0  0  0  0  0  0  0  0  0  0  0
  180.3480  174.5300  137.0850 C   0  0  0  0  0  2  0  0  0  0  0  0
  186.3870  173.3130  135.4930 C   0  0  0  0  0  0  0  0  0  0  0  0
  184.9410  178.3510  136.9420 C   0  0  0  0  0  2  0  0  0  0  0  0
  185.8680  176.8660  135.5640 C   0  0  0  0  0  2  0  0  0  0  0  0
  184.9800  173.3810  135.3920 N   0  0  0  0  0  0  0  0  0  0  0  0
  184.0970  177.8870  138.1320 C   0  0  1  0  0  3  0  0  0  0  0  0
  184.6740  174.6030  135.6790 C   0  0  0  0  0  0  0  0  0  0  0  0
  184.6810  177.5480  135.8250 O   0  0  0  0  0  0  0  0  0  0  0  0
  183.3070  174.9970  135.7910 N   0  0  0  0  0  2  0  0  0  0  0  0
  182.1620  176.9290  136.7790 C   0  0  1  0  0  3  0  0  0  0  0  0
  185.7900  175.4670  135.9850 N   0  0  0  0  0  0  0  0  0  0  0  0
  188.9330  176.6690  139.6500 C   0  0  2  0  0  3  0  0  0  0  0  0
  188.6810  175.8010  137.3420 C   0  0  2  0  0  3  0  0  0  0  0  0
  189.4320  178.1210  136.4280 C   0  0  0  0  0  2  0  0  0  0  0  0
  187.9790  176.5840  138.4550 C   0  0  2  0  0  3  0  0  0  0  0  0
  188.1840  177.0240  140.9000 C   0  0  0  0  0  2  0  0  0  0  0  0
  189.0450  176.6680  136.1080 C   0  0  1  0  0  3  0  0  0  0  0  0
  187.9430  178.8580  139.4320 O   0  0  0  0  0  0  0  0  0  0  0  0
  188.7090  177.8770  138.7870 C   0  0  1  0  0  0  0  0  0  0  0  0
  189.8550  178.3070  137.8800 C   0  0  0  0  0  2  0  0  0  0  0  0
  187.9720  178.5170  140.7920 C   0  0  0  0  0  2  0  0  0  0  0  0
  190.0930  175.9980  135.2200 C   0  0  0  0  0  2  0  0  0  0  0  0
  191.4960  176.4940  135.5260 C   0  0  0  0  0  2  0  0  0  0  0  0
  194.0430  177.2880  136.4750 O   0  0  0  0  0  1  0  0  0  0  0  0
  192.4430  175.3980  135.3700 N   0  0  0  0  0  0  0  0  0  0  0  0
  194.0560  175.9620  135.7420 P   0  0  1  0  0  0  0  0  0  0  0  0
  192.2380  174.6700  137.7770 C   0  0  0  0  0  2  0  0  0  0  0  0
  195.0120  176.0560  134.3480 O   0  0  0  0  0  0  0  0  0  0  0  0
  193.3140  173.8200  137.1210 C   0  0  1  0  0  3  0  0  0  0  0  0
  192.1000  174.2980  136.2990 C   0  0  2  0  0  3  0  0  0  0  0  0
  194.5700  174.6490  136.8380 C   0  0  1  0  0  3  0  0  0  0  0  0
  195.5450  173.8150  136.1520 N   0  0  0  0  0  2  0  0  0  0  0  0
  196.9010  171.8570  136.5910 C   0  0  0  0  0  1  0  0  0  0  0  0
  196.3630  173.1570  137.1600 C   0  0  1  0  0  3  0  0  0  0  0  0
  199.0000  173.4110  137.8340 O   0  0  0  0  0  1  0  0  0  0  0  0
  197.3830  175.0510  139.0680 O   0  0  0  0  0  1  0  0  0  0  0  0
  197.7510  174.2380  137.6300 P   0  0  0  0  0  0  0  0  0  0  0  0
  198.0320  175.3720  136.4070 O   0  0  0  0  0  0  0  0  0  0  0  0
  184.4840  178.6060  139.3800 C   0  0  0  0  0  0  0  0  0  0  0  0
  185.1510  179.8190  139.3160 O   0  0  0  0  0  0  0  0  0  0  0  0
  184.1670  178.1330  140.5020 O   0  0  0  0  0  1  0  0  0  0  0  0
  182.0820  179.3480  137.5660 C   0  0  0  0  0  2  0  0  0  0  0  0
  181.1540  179.9270  138.6410 C   0  0  2  0  0  3  0  0  0  0  0  0
  180.6500  178.8700  139.6050 C   0  0  0  0  0  1  0  0  0  0  0  0
  179.9830  180.6940  138.0490 C   0  0  0  0  0  2  0  0  0  0  0  0
  180.0240  182.0810  138.4910 N   0  0  0  0  0  2  0  0  0  0  0  0
  180.5980  182.8620  137.4030 C   0  0  0  0  0  1  0  0  0  0  0  0
  1 20  1  6  0  0  0
  1  7  1  0  0  0  0
  2 13  1  1  0  0  0
  2 22  1  0  0  0  0
  2  3  1  0  0  0  0
  3  4  1  6  0  0  0
  5  4  2  0  0  0  0
  6  5  1  0  0  0  0
  7 11  2  0  0  0  0
  8  9  1  0  0  0  0
  8 12  1  0  0  0  0
 10 53  1  6  0  0  0
 10 17  1  0  0  0  0
 12  7  1  0  0  0  0
 13  6  2  0  0  0  0
 14 17  1  0  0  0  0
 15 19  1  0  0  0  0
 15 22  1  0  0  0  0
 16 13  1  0  0  0  0
 16 18  2  0  0  0  0
 17 50  1  1  0  0  0
 18 20  1  0  0  0  0
 18 22  1  0  0  0  0
 19 14  1  0  0  0  0
 21  9  1  1  0  0  0
 21  1  1  0  0  0  0
 21 10  1  0  0  0  0
 23 27  1  1  0  0  0
 24  3  1  6  0  0  0
 24 26  1  0  0  0  0
 25 31  1  0  0  0  0
 26 30  1  0  0  0  0
 26 23  1  0  0  0  0
 28 25  1  0  0  0  0
 28 24  1  0  0  0  0
 29 32  1  0  0  0  0
 30 29  1  0  0  0  0
 30 23  1  0  0  0  0
 31 30  1  0  0  0  0
 32 27  1  0  0  0  0
 33 34  1  0  0  0  0
 33 28  1  0  0  0  0
 36 34  1  0  0  0  0
 36 37  1  0  0  0  0
 36 41  1  0  0  0  0
 37 35  1  0  0  0  0
 37 42  1  0  0  0  0
 39 37  2  0  0  0  0
 40 38  1  0  0  0  0
 41 40  1  0  0  0  0
 41 38  1  0  0  0  0
 42 40  1  0  0  0  0
 43 42  1  0  0  0  0
 43 45  1  0  0  0  0
 44 45  1  0  0  0  0
 45 48  1  0  0  0  0
 48 46  1  0  0  0  0
 48 47  1  0  0  0  0
 49 48  2  0  0  0  0
 50 52  1  0  0  0  0
 51 50  2  0  0  0  0
 53 54  1  0  0  0  0
 54 55  1  0  0  0  0
 56 57  1  0  0  0  0
 56 54  1  0  0  0  0
 58 57  1  0  0  0  0
M  END
>  <MODEL>
3

>  <REMARK>
 VINA RESULT:      -4.5      3.849      9.325
  Name = 
  12 active torsions:
  status: ('A' for Active; 'I' for Inactive)
    1  A    between atoms: C_4  and  C_17
    2  A    between atoms: C_4  and  C_35
    3  A    between atoms: N_6  and  C_29
    4  A    between atoms: N_7  and  C_17
    5  A    between atoms: C_10  and  C_12
    6  A    between atoms: C_16  and  C_44
    7  A    between atoms: C_22  and  C_42
    8  A    between atoms: C_28  and  N_32
    9  A    between atoms: C_28  and  P_34
   10  A    between atoms: C_29  and  C_42
   11  A    between atoms: C_30  and  C_35
   12  A    between atoms: N_32  and  C_53
                            x       y       z     vdW  Elec       q    Type
                         _______ _______ _______ _____ _____    ______ ____

>  <TORSDO>
F 12

$$$$
=
 OpenBabel10232409393D

 58 66  0  0  1  0  0  0  0  0999 V2000
  183.2900  175.9990  137.5350 C   0  0  1  0  0  3  0  0  0  0  0  0
  187.2040  174.4820  135.9580 C   0  0  1  0  0  3  0  0  0  0  0  0
  188.2020  174.2730  137.1130 C   0  0  1  0  0  3  0  0  0  0  0  0
  188.9380  172.9690  136.9130 C   0  0  0  0  0  3  0  0  0  0  0  0
  188.2810  171.9150  136.4070 C   0  0  0  0  0  3  0  0  0  0  0  0
  186.9050  172.0530  136.0030 N   0  0  0  0  0  0  0  0  0  0  0  0
  182.2180  175.2080  138.2340 C   0  0  0  0  0  0  0  0  0  0  0  0
  180.6100  176.3950  136.7360 C   0  0  0  0  0  2  0  0  0  0  0  0
  181.3500  177.6720  137.1210 C   0  0  0  0  0  2  0  0  0  0  0  0
  183.5080  178.4180  138.2940 C   0  0  2  0  0  3  0  0  0  0  0  0
  182.5230  174.4130  139.1060 O   0  0  0  0  0  0  0  0  0  0  0  0
  180.7730  175.3540  137.8390 C   0  0  0  0  0  2  0  0  0  0  0  0
  186.4110  173.2370  135.7850 C   0  0  0  0  0  0  0  0  0  0  0  0
  185.8230  178.4720  137.1340 C   0  0  0  0  0  2  0  0  0  0  0  0
  186.4030  176.8270  135.7460 C   0  0  0  0  0  2  0  0  0  0  0  0
  185.0240  173.5020  135.8030 N   0  0  0  0  0  0  0  0  0  0  0  0
  185.0350  178.1700  138.4110 C   0  0  1  0  0  3  0  0  0  0  0  0
  184.9200  174.7640  136.0620 C   0  0  0  0  0  0  0  0  0  0  0  0
  185.3520  177.6800  136.0790 O   0  0  0  0  0  0  0  0  0  0  0  0
  183.6370  175.3530  136.2750 N   0  0  0  0  0  2  0  0  0  0  0  0
  182.8690  177.4580  137.2730 C   0  0  1  0  0  3  0  0  0  0  0  0
  186.1690  175.4680  136.2330 N   0  0  0  0  0  0  0  0  0  0  0  0
  190.5530  176.3760  135.4790 C   0  0  2  0  0  3  0  0  0  0  0  0
  189.1900  175.4260  137.3190 C   0  0  2  0  0  3  0  0  0  0  0  0
  190.7840  176.5640  139.0370 C   0  0  0  0  0  2  0  0  0  0  0  0
  190.4400  175.2070  136.4620 C   0  0  2  0  0  3  0  0  0  0  0  0
  191.4710  176.0280  134.3460 C   0  0  0  0  0  2  0  0  0  0  0  0
  189.5030  175.7430  138.8050 C   0  0  1  0  0  3  0  0  0  0  0  0
  192.7850  175.9860  136.3080 O   0  0  0  0  0  0  0  0  0  0  0  0
  191.4690  176.3100  136.6670 C   0  0  1  0  0  0  0  0  0  0  0  0
  191.2310  177.3140  137.7880 C   0  0  0  0  0  2  0  0  0  0  0  0
  192.8550  176.2060  134.9240 C   0  0  0  0  0  2  0  0  0  0  0  0
  188.3090  176.3640  139.5270 C   0  0  0  0  0  2  0  0  0  0  0  0
  188.7450  177.3380  140.6090 C   0  0  0  0  0  2  0  0  0  0  0  0
  190.7450  178.2240  142.4070 O   0  0  0  0  0  0  0  0  0  0  0  0
  188.5310  176.7370  141.9190 N   0  0  0  0  0  0  0  0  0  0  0  0
  189.8890  177.1020  142.9590 P   0  0  1  0  0  0  0  0  0  0  0  0
  187.3830  178.7830  142.8460 C   0  0  0  0  0  2  0  0  0  0  0  0
  190.8250  175.7240  143.2570 O   0  0  0  0  0  1  0  0  0  0  0  0
  187.5320  177.7780  143.9760 C   0  0  1  0  0  3  0  0  0  0  0  0
  187.3020  177.2870  142.5330 C   0  0  2  0  0  3  0  0  0  0  0  0
  188.9970  177.6510  144.4060 C   0  0  1  0  0  3  0  0  0  0  0  0
  189.1030  176.6340  145.4410 N   0  0  0  0  0  2  0  0  0  0  0  0
  188.5630  176.9490  147.7800 C   0  0  0  0  0  1  0  0  0  0  0  0
  189.5390  177.2840  146.6670 C   0  0  1  0  0  3  0  0  0  0  0  0
  191.7170  177.4780  148.3080 O   0  0  0  0  0  1  0  0  0  0  0  0
  192.2600  176.9130  145.8150 O   0  0  0  0  0  0  0  0  0  0  0  0
  191.2030  176.6990  147.1190 P   0  0  0  0  0  0  0  0  0  0  0  0
  191.1410  175.0560  147.5190 O   0  0  0  0  0  1  0  0  0  0  0  0
  185.6320  178.8640  139.5890 C   0  0  0  0  0  0  0  0  0  0  0  0
  184.8560  179.1670  140.6970 O   0  0  0  0  0  1  0  0  0  0  0  0
  186.8590  179.1420  139.5980 O   0  0  0  0  0  0  0  0  0  0  0  0
  183.2010  179.8860  137.9590 C   0  0  0  0  0  2  0  0  0  0  0  0
  182.0880  180.4870  138.8270 C   0  0  2  0  0  3  0  0  0  0  0  0
  181.7650  179.6290  140.0350 C   0  0  0  0  0  1  0  0  0  0  0  0
  180.8210  180.7720  138.0370 C   0  0  0  0  0  2  0  0  0  0  0  0
  180.0730  181.8500  138.6680 N   0  0  0  0  0  2  0  0  0  0  0  0
  180.0910  182.9810  137.7500 C   0  0  0  0  0  1  0  0  0  0  0  0
  1 20  1  6  0  0  0
  1  7  1  0  0  0  0
  2 13  1  1  0  0  0
  2 22  1  0  0  0  0
  2  3  1  0  0  0  0
  3  4  1  6  0  0  0
  5  4  2  0  0  0  0
  6  5  1  0  0  0  0
  7 11  2  0  0  0  0
  8  9  1  0  0  0  0
  8 12  1  0  0  0  0
 10 53  1  6  0  0  0
 10 17  1  0  0  0  0
 12  7  1  0  0  0  0
 13 16  1  0  0  0  0
 13  6  2  0  0  0  0
 14 17  1  0  0  0  0
 15 19  1  0  0  0  0
 15 22  1  0  0  0  0
 16 18  2  0  0  0  0
 17 50  1  1  0  0  0
 18 22  1  0  0  0  0
 18 20  1  0  0  0  0
 19 14  1  0  0  0  0
 21  9  1  1  0  0  0
 21  1  1  0  0  0  0
 21 10  1  0  0  0  0
 23 27  1  6  0  0  0
 23 26  1  0  0  0  0
 23 30  1  0  0  0  0
 24  3  1  1  0  0  0
 24 28  1  0  0  0  0
 26 30  1  0  0  0  0
 26 24  1  0  0  0  0
 27 32  1  0  0  0  0
 28 25  1  0  0  0  0
 28 33  1  0  0  0  0
 29 30  1  0  0  0  0
 30 31  1  0  0  0  0
 31 25  1  0  0  0  0
 32 29  1  0  0  0  0
 33 34  1  0  0  0  0
 34 36  1  0  0  0  0
 35 37  2  0  0  0  0
 36 41  1  0  0  0  0
 36 37  1  0  0  0  0
 37 39  1  0  0  0  0
 37 42  1  0  0  0  0
 38 40  1  0  0  0  0
 40 42  1  0  0  0  0
 41 38  1  0  0  0  0
 41 40  1  0  0  0  0
 42 43  1  0  0  0  0
 43 45  1  0  0  0  0
 45 48  1  0  0  0  0
 45 44  1  0  0  0  0
 47 48  2  0  0  0  0
 48 49  1  0  0  0  0
 48 46  1  0  0  0  0
 50 52  2  0  0  0  0
 50 51  1  0  0  0  0
 53 54  1  0  0  0  0
 54 55  1  0  0  0  0
 56 57  1  0  0  0  0
 56 54  1  0  0  0  0
 58 57  1  0  0  0  0
M  END
>  <MODEL>
4

>  <REMARK>
 VINA RESULT:      -3.1      3.414      9.818
  Name = 
  12 active torsions:
  status: ('A' for Active; 'I' for Inactive)
    1  A    between atoms: C_4  and  C_17
    2  A    between atoms: C_4  and  C_35
    3  A    between atoms: N_6  and  C_29
    4  A    between atoms: N_7  and  C_17
    5  A    between atoms: C_10  and  C_12
    6  A    between atoms: C_16  and  C_44
    7  A    between atoms: C_22  and  C_42
    8  A    between atoms: C_28  and  N_32
    9  A    between atoms: C_28  and  P_34
   10  A    between atoms: C_29  and  C_42
   11  A    between atoms: C_30  and  C_35
   12  A    between atoms: N_32  and  C_53
                            x       y       z     vdW  Elec       q    Type
                         _______ _______ _______ _____ _____    ______ ____

>  <TORSDO>
F 12

$$$$
=
 OpenBabel10232409393D

 58 66  0  0  1  0  0  0  0  0999 V2000
  185.0180  175.5930  136.9280 C   0  0  1  0  0  3  0  0  0  0  0  0
  189.1180  174.5030  135.4760 C   0  0  1  0  0  3  0  0  0  0  0  0
  190.0500  174.2150  136.6700 C   0  0  1  0  0  3  0  0  0  0  0  0
  190.8810  172.9890  136.3750 C   0  0  0  0  0  3  0  0  0  0  0  0
  190.3300  171.9670  135.7050 C   0  0  0  0  0  3  0  0  0  0  0  0
  188.9770  172.0730  135.2210 N   0  0  0  0  0  0  0  0  0  0  0  0
  183.9560  174.6640  137.4510 C   0  0  0  0  0  0  0  0  0  0  0  0
  182.3750  175.9250  135.9860 C   0  0  0  0  0  2  0  0  0  0  0  0
  183.0030  177.1890  136.5680 C   0  0  0  0  0  2  0  0  0  0  0  0
  185.0260  177.9120  137.9730 C   0  0  2  0  0  3  0  0  0  0  0  0
  184.2540  173.7900  138.2470 O   0  0  0  0  0  0  0  0  0  0  0  0
  182.5340  174.7720  136.9710 C   0  0  0  0  0  2  0  0  0  0  0  0
  188.4210  173.2440  135.1040 C   0  0  0  0  0  0  0  0  0  0  0  0
  187.4020  178.2380  136.9990 C   0  0  0  0  0  2  0  0  0  0  0  0
  188.1790  176.8060  135.4780 C   0  0  0  0  0  2  0  0  0  0  0  0
  187.0220  173.4240  135.0520 N   0  0  0  0  0  0  0  0  0  0  0  0
  186.5540  177.7400  138.1730 C   0  0  1  0  0  3  0  0  0  0  0  0
  186.8180  174.6380  135.4460 C   0  0  0  0  0  0  0  0  0  0  0  0
  187.0550  177.5520  135.8290 O   0  0  0  0  0  0  0  0  0  0  0  0
  185.4880  175.1220  135.6310 N   0  0  0  0  0  2  0  0  0  0  0  0
  184.5190  177.0460  136.8050 C   0  0  1  0  0  3  0  0  0  0  0  0
  188.0040  175.3880  135.7860 N   0  0  0  0  0  0  0  0  0  0  0  0
  192.3310  176.6540  135.4580 C   0  0  2  0  0  3  0  0  0  0  0  0
  190.9440  175.3910  137.0780 C   0  0  2  0  0  3  0  0  0  0  0  0
  192.3640  176.3930  139.0180 C   0  0  0  0  0  2  0  0  0  0  0  0
  192.2480  175.3630  136.2770 C   0  0  2  0  0  3  0  0  0  0  0  0
  193.3280  176.5120  134.3470 C   0  0  0  0  0  2  0  0  0  0  0  0
  191.1570  175.5310  138.6080 C   0  0  1  0  0  3  0  0  0  0  0  0
  194.5390  176.2980  136.3630 O   0  0  0  0  0  0  0  0  0  0  0  0
  193.1870  176.4900  136.6810 C   0  0  1  0  0  0  0  0  0  0  0  0
  192.8230  177.3250  137.9030 C   0  0  0  0  0  2  0  0  0  0  0  0
  194.6660  176.6990  135.0250 C   0  0  0  0  0  2  0  0  0  0  0  0
  189.8880  175.9790  139.3300 C   0  0  0  0  0  2  0  0  0  0  0  0
  190.1900  176.9450  140.4640 C   0  0  0  0  0  2  0  0  0  0  0  0
  191.9000  177.9080  142.5040 O   0  0  0  0  0  0  0  0  0  0  0  0
  189.8360  176.3270  141.7350 N   0  0  0  0  0  0  0  0  0  0  0  0
  191.0310  176.7460  142.9410 P   0  0  1  0  0  0  0  0  0  0  0  0
  188.4890  178.3150  142.5060 C   0  0  0  0  0  2  0  0  0  0  0  0
  191.9810  175.4090  143.3580 O   0  0  0  0  0  1  0  0  0  0  0  0
  188.5360  177.3110  143.6460 C   0  0  1  0  0  3  0  0  0  0  0  0
  188.5150  176.8190  142.1860 C   0  0  2  0  0  3  0  0  0  0  0  0
  189.9370  177.2470  144.2610 C   0  0  1  0  0  3  0  0  0  0  0  0
  189.9550  176.2300  145.3010 N   0  0  0  0  0  2  0  0  0  0  0  0
  191.2630  178.0600  146.1970 C   0  0  0  0  0  1  0  0  0  0  0  0
  190.4030  176.8560  146.5350 C   0  0  1  0  0  3  0  0  0  0  0  0
  188.2120  176.1820  148.0250 O   0  0  0  0  0  1  0  0  0  0  0  0
  187.9310  178.3240  146.5550 O   0  0  0  0  0  0  0  0  0  0  0  0
  188.9650  177.3900  147.5160 P   0  0  0  0  0  0  0  0  0  0  0  0
  189.4840  178.3150  148.8340 O   0  0  0  0  0  1  0  0  0  0  0  0
  187.0250  178.3230  139.4630 C   0  0  0  0  0  0  0  0  0  0  0  0
  188.2310  179.0020  139.5300 O   0  0  0  0  0  0  0  0  0  0  0  0
  186.3060  178.2370  140.4910 O   0  0  0  0  0  1  0  0  0  0  0  0
  184.6450  179.3900  137.7880 C   0  0  0  0  0  2  0  0  0  0  0  0
  183.6160  179.8850  138.8120 C   0  0  2  0  0  3  0  0  0  0  0  0
  183.1800  178.7960  139.7730 C   0  0  0  0  0  1  0  0  0  0  0  0
  182.3990  180.5190  138.1560 C   0  0  0  0  0  2  0  0  0  0  0  0
  181.1810  179.9870  138.7520 N   0  0  0  0  0  2  0  0  0  0  0  0
  180.5180  181.0910  139.4340 C   0  0  0  0  0  1  0  0  0  0  0  0
  1 20  1  6  0  0  0
  1  7  1  0  0  0  0
  2 13  1  1  0  0  0
  2 22  1  0  0  0  0
  2  3  1  0  0  0  0
  3  4  1  6  0  0  0
  5  4  2  0  0  0  0
  6  5  1  0  0  0  0
  7 11  2  0  0  0  0
  8  9  1  0  0  0  0
  8 12  1  0  0  0  0
 10 53  1  6  0  0  0
 10 17  1  0  0  0  0
 12  7  1  0  0  0  0
 13  6  2  0  0  0  0
 14 17  1  0  0  0  0
 15 22  1  0  0  0  0
 15 19  1  0  0  0  0
 16 13  1  0  0  0  0
 16 18  2  0  0  0  0
 17 50  1  1  0  0  0
 18 20  1  0  0  0  0
 18 22  1  0  0  0  0
 19 14  1  0  0  0  0
 21  9  1  1  0  0  0
 21  1  1  0  0  0  0
 21 10  1  0  0  0  0
 23 27  1  6  0  0  0
 23 26  1  0  0  0  0
 23 30  1  0  0  0  0
 24  3  1  1  0  0  0
 24 28  1  0  0  0  0
 26 30  1  0  0  0  0
 26 24  1  0  0  0  0
 27 32  1  0  0  0  0
 28 25  1  0  0  0  0
 28 33  1  0  0  0  0
 29 30  1  0  0  0  0
 30 31  1  0  0  0  0
 31 25  1  0  0  0  0
 32 29  1  0  0  0  0
 33 34  1  0  0  0  0
 34 36  1  0  0  0  0
 35 37  2  0  0  0  0
 36 41  1  0  0  0  0
 36 37  1  0  0  0  0
 37 39  1  0  0  0  0
 37 42  1  0  0  0  0
 38 40  1  0  0  0  0
 40 42  1  0  0  0  0
 41 38  1  0  0  0  0
 41 40  1  0  0  0  0
 42 43  1  0  0  0  0
 43 45  1  0  0  0  0
 44 45  1  0  0  0  0
 45 48  1  0  0  0  0
 47 48  2  0  0  0  0
 48 46  1  0  0  0  0
 48 49  1  0  0  0  0
 50 51  2  0  0  0  0
 50 52  1  0  0  0  0
 53 54  1  0  0  0  0
 54 55  1  0  0  0  0
 56 57  1  0  0  0  0
 56 54  1  0  0  0  0
 57 58  1  0  0  0  0
M  END
>  <MODEL>
5

>  <REMARK>
 VINA RESULT:      -3.0      3.560     10.129
  Name = 
  12 active torsions:
  status: ('A' for Active; 'I' for Inactive)
    1  A    between atoms: C_4  and  C_17
    2  A    between atoms: C_4  and  C_35
    3  A    between atoms: N_6  and  C_29
    4  A    between atoms: N_7  and  C_17
    5  A    between atoms: C_10  and  C_12
    6  A    between atoms: C_16  and  C_44
    7  A    between atoms: C_22  and  C_42
    8  A    between atoms: C_28  and  N_32
    9  A    between atoms: C_28  and  P_34
   10  A    between atoms: C_29  and  C_42
   11  A    between atoms: C_30  and  C_35
   12  A    between atoms: N_32  and  C_53
                            x       y       z     vdW  Elec       q    Type
                         _______ _______ _______ _____ _____    ______ ____

>  <TORSDO>
F 12

$$$$
