=
 OpenBabel10232411543D

 31 34  0  0  1  0  0  0  0  0999 V2000
  184.7510  178.3650  144.3430 C   0  0  0  0  0  0  0  0  0  0  0  0
  186.7130  178.6270  146.2660 C   0  0  0  0  0  2  0  0  0  0  0  0
  187.6340  178.1370  145.5060 C   0  0  2  0  0  3  0  0  0  0  0  0
  181.3580  178.8670  139.8440 N   0  0  0  0  0  1  0  0  0  0  0  0
  182.2150  178.7810  140.9780 C   0  0  0  0  0  0  0  0  0  0  0  0
  184.4510  178.3840  145.8400 C   0  0  0  0  0  2  0  0  0  0  0  0
  187.1860  177.6500  144.2080 N   0  0  1  0  0  0  0  0  0  0  0  0
  181.7060  178.9650  142.1700 N   0  0  0  0  0  0  0  0  0  0  0  0
  185.8730  177.9920  143.6600 C   0  0  2  0  0  3  0  0  0  0  0  0
  183.7510  178.5740  143.3190 C   0  0  0  0  0  0  0  0  0  0  0  0
  182.4630  178.8760  143.3930 C   0  0  0  0  0  3  0  0  0  0  0  0
  185.6340  177.9760  142.2420 N   0  0  0  0  0  0  0  0  0  0  0  0
  185.5450  178.9850  146.6650 C   0  0  0  0  0  2  0  0  0  0  0  0
  184.4020  178.3220  142.0710 C   0  0  0  0  0  0  0  0  0  0  0  0
  183.6910  178.4670  140.7570 C   0  0  0  0  0  0  0  0  0  0  0  0
  189.6650  177.6950  142.1240 C   0  0  1  0  0  3  0  0  0  0  0  0
  188.1620  177.5140  141.9200 C   0  0  0  0  0  2  0  0  0  0  0  0
  188.0530  176.8870  143.2950 C   0  0  1  0  0  3  0  0  0  0  0  0
  189.5320  177.1210  143.5330 C   0  0  0  0  0  2  0  0  0  0  0  0
  191.8010  177.2140  141.2490 C   0  0  0  0  0  1  0  0  0  0  0  0
  189.9330  176.9580  139.9020 C   0  0  0  0  0  1  0  0  0  0  0  0
  190.4140  176.7790  141.2630 N   0  0  0  0  0  0  0  0  0  0  0  0
  189.3890  177.3770  147.0890 C   0  0  0  0  0  0  0  0  0  0  0  0
  188.9820  177.9210  145.9720 N   0  0  0  0  0  0  0  0  0  0  0  0
  188.4430  176.9260  148.1560 C   0  0  0  0  0  2  0  0  0  0  0  0
  188.2730  177.9460  149.0910 O   0  0  0  0  0  1  0  0  0  0  0  0
  191.6180  176.4920  146.4940 C   0  0  0  0  0  1  0  0  0  0  0  0
  190.7550  177.2360  147.3430 O   0  0  0  0  0  0  0  0  0  0  0  0
  184.3280  179.5770  139.9320 C   0  0  0  0  0  2  0  0  0  0  0  0
  185.3440  179.0570  139.1290 O   0  0  0  0  0  0  0  0  0  0  0  0
  184.6980  178.1420  138.2980 C   0  0  0  0  0  1  0  0  0  0  0  0
  1  6  1  0  0  0  0
  2 13  1  0  0  0  0
  3 24  1  1  0  0  0
  3  2  1  0  0  0  0
  4  5  1  0  0  0  0
  5  8  1  0  0  0  0
  6 13  1  0  0  0  0
  7 18  1  6  0  0  0
  7  3  1  0  0  0  0
  8 11  2  0  0  0  0
  9 12  1  6  0  0  0
  9  7  1  0  0  0  0
  9  1  1  0  0  0  0
 10 11  1  0  0  0  0
 10  1  2  0  0  0  0
 14 12  2  0  0  0  0
 14 10  1  0  0  0  0
 15  5  2  0  0  0  0
 15 14  1  0  0  0  0
 16 22  1  6  0  0  0
 16 19  1  0  0  0  0
 17 16  1  0  0  0  0
 18 17  1  6  0  0  0
 18 19  1  0  0  0  0
 20 22  1  0  0  0  0
 21 22  1  0  0  0  0
 23 28  1  0  0  0  0
 23 25  1  0  0  0  0
 24 23  2  0  0  0  0
 25 26  1  0  0  0  0
 27 28  1  0  0  0  0
 29 15  1  0  0  0  0
 30 29  1  0  0  0  0
 31 30  1  0  0  0  0
M  END
>  <MODEL>
1

>  <REMARK>
 VINA RESULT:      -8.7      0.000      0.000
  Name = 
  7 active torsions:
  status: ('A' for Active; 'I' for Inactive)
    1  A    between atoms: C_1  and  O_12
    2  A    between atoms: C_1  and  C_31
    3  A    between atoms: C_3  and  C_5
    4  A    between atoms: C_3  and  O_27
    5  A    between atoms: N_6  and  C_9
    6  A    between atoms: N_16  and  C_23
    7  A    between atoms: N_19  and  C_20
                            x       y       z     vdW  Elec       q    Type
                         _______ _______ _______ _____ _____    ______ ____

>  <TORSDO>
F 7

$$$$
=
 OpenBabel10232411543D

 31 34  0  0  1  0  0  0  0  0999 V2000
  189.5010  177.2250  142.7420 C   0  0  0  0  0  0  0  0  0  0  0  0
  188.3360  178.4250  140.5460 C   0  0  0  0  0  2  0  0  0  0  0  0
  187.1730  178.4940  141.1020 C   0  0  2  0  0  3  0  0  0  0  0  0
  191.7860  175.9890  147.7670 N   0  0  0  0  0  1  0  0  0  0  0  0
  191.2280  176.3360  146.5040 C   0  0  0  0  0  0  0  0  0  0  0  0
  190.0360  177.0590  141.3220 C   0  0  0  0  0  2  0  0  0  0  0  0
  187.0640  177.8700  142.4140 N   0  0  0  0  0  0  0  0  0  0  0  0
  191.9690  176.2100  145.4300 N   0  0  0  0  0  0  0  0  0  0  0  0
  188.2420  177.4960  143.1970 C   0  0  0  0  0  0  0  0  0  0  0  0
  190.2600  176.9070  143.9310 C   0  0  2  0  0  3  0  0  0  0  0  0
  191.5100  176.5010  144.0960 C   0  0  0  0  0  3  0  0  0  0  0  0
  188.1750  177.3850  144.6300 N   0  0  0  0  0  0  0  0  0  0  0  0
  189.5730  178.1230  140.3760 C   0  0  0  0  0  2  0  0  0  0  0  0
  189.3560  177.0500  145.0290 C   0  0  0  0  0  0  0  0  0  0  0  0
  189.7870  176.8320  146.4500 C   0  0  0  0  0  0  0  0  0  0  0  0
  184.1160  179.0400  143.0660 C   0  0  1  0  0  3  0  0  0  0  0  0
  185.3660  178.8820  143.9290 C   0  0  0  0  0  2  0  0  0  0  0  0
  185.7790  177.6780  143.1060 C   0  0  1  0  0  3  0  0  0  0  0  0
  184.5760  177.8670  142.2040 C   0  0  0  0  0  2  0  0  0  0  0  0
  181.7950  179.4100  143.2570 C   0  0  0  0  0  1  0  0  0  0  0  0
  183.0780  179.2050  145.1750 C   0  0  0  0  0  1  0  0  0  0  0  0
  182.9190  178.6840  143.8260 N   0  0  0  0  0  0  0  0  0  0  0  0
  185.6560  178.8000  139.1600 C   0  0  0  0  0  0  0  0  0  0  0  0
  186.0150  178.9940  140.4020 N   0  0  0  0  0  0  0  0  0  0  0  0
  186.4930  178.0270  138.1930 C   0  0  0  0  0  2  0  0  0  0  0  0
  187.1030  178.9040  137.2960 O   0  0  0  0  0  1  0  0  0  0  0  0
  183.2200  178.6920  138.7640 C   0  0  0  0  0  1  0  0  0  0  0  0
  184.4710  179.3600  138.6770 O   0  0  0  0  0  0  0  0  0  0  0  0
  189.6660  178.1260  147.2430 C   0  0  0  0  0  2  0  0  0  0  0  0
  189.0420  177.8830  148.4670 O   0  0  0  0  0  0  0  0  0  0  0  0
  187.6810  178.0430  148.2040 C   0  0  0  0  0  1  0  0  0  0  0  0
  1  9  2  0  0  0  0
  1 10  1  0  0  0  0
  2  3  1  0  0  0  0
  3 24  1  6  0  0  0
  3  7  1  0  0  0  0
  5  4  1  0  0  0  0
  6  1  1  0  0  0  0
  7 18  1  0  0  0  0
  7  9  1  0  0  0  0
  8  5  1  0  0  0  0
  9 12  1  0  0  0  0
 10 11  1  6  0  0  0
 10 14  1  0  0  0  0
 11  8  2  0  0  0  0
 12 14  2  0  0  0  0
 13  2  1  0  0  0  0
 13  6  1  0  0  0  0
 14 15  1  0  0  0  0
 15  5  2  0  0  0  0
 15 29  1  0  0  0  0
 16 22  1  1  0  0  0
 16 17  1  0  0  0  0
 18 19  1  6  0  0  0
 18 17  1  0  0  0  0
 19 16  1  0  0  0  0
 20 22  1  0  0  0  0
 22 21  1  0  0  0  0
 23 24  2  0  0  0  0
 25 23  1  0  0  0  0
 26 25  1  0  0  0  0
 28 27  1  0  0  0  0
 28 23  1  0  0  0  0
 29 30  1  0  0  0  0
 31 30  1  0  0  0  0
M  END
>  <MODEL>
2

>  <REMARK>
 VINA RESULT:      -7.8      1.765      8.276
  Name = 
  7 active torsions:
  status: ('A' for Active; 'I' for Inactive)
    1  A    between atoms: C_1  and  O_12
    2  A    between atoms: C_1  and  C_31
    3  A    between atoms: C_3  and  C_5
    4  A    between atoms: C_3  and  O_27
    5  A    between atoms: N_6  and  C_9
    6  A    between atoms: N_16  and  C_23
    7  A    between atoms: N_19  and  C_20
                            x       y       z     vdW  Elec       q    Type
                         _______ _______ _______ _____ _____    ______ ____

>  <TORSDO>
F 7

$$$$
=
 OpenBabel10232411543D

 31 34  0  0  1  0  0  0  0  0999 V2000
  184.5500  178.5630  143.9380 C   0  0  0  0  0  0  0  0  0  0  0  0
  182.0840  178.7100  142.7050 C   0  0  0  0  0  2  0  0  0  0  0  0
  182.5930  178.8380  141.5260 C   0  0  2  0  0  3  0  0  0  0  0  0
  189.6250  177.0420  145.9200 N   0  0  0  0  0  1  0  0  0  0  0  0
  188.3350  177.3870  145.4260 C   0  0  0  0  0  0  0  0  0  0  0  0
  183.2890  179.0430  144.6530 C   0  0  0  0  0  2  0  0  0  0  0  0
  184.0450  178.9400  141.4750 N   0  0  0  0  0  0  0  0  0  0  0  0
  187.3760  177.6380  146.2830 N   0  0  0  0  0  0  0  0  0  0  0  0
  184.8900  178.5850  142.6150 C   0  0  0  0  0  0  0  0  0  0  0  0
  185.7560  178.1510  144.6210 C   0  0  0  0  0  0  0  0  0  0  0  0
  186.0400  178.0240  145.9080 C   0  0  0  0  0  3  0  0  0  0  0  0
  186.2590  178.1820  142.4280 N   0  0  0  0  0  0  0  0  0  0  0  0
  182.0190  178.6180  143.9860 C   0  0  0  0  0  2  0  0  0  0  0  0
  186.7340  177.9320  143.6020 C   0  0  0  0  0  0  0  0  0  0  0  0
  188.1230  177.4600  143.9180 C   0  0  2  0  0  3  0  0  0  0  0  0
  185.8510  177.9060  138.9940 C   0  0  1  0  0  3  0  0  0  0  0  0
  186.1930  178.7340  140.2300 C   0  0  0  0  0  2  0  0  0  0  0  0
  184.7820  179.2860  140.2490 C   0  0  1  0  0  3  0  0  0  0  0  0
  184.4140  178.4190  139.0610 C   0  0  0  0  0  2  0  0  0  0  0  0
  186.0740  177.6880  136.6560 C   0  0  0  0  0  1  0  0  0  0  0  0
  187.9490  178.1270  137.9440 C   0  0  0  0  0  1  0  0  0  0  0  0
  186.5340  178.4370  137.8150 N   0  0  0  0  0  0  0  0  0  0  0  0
  180.9950  178.2010  139.7360 C   0  0  0  0  0  0  0  0  0  0  0  0
  181.7770  179.0460  140.3550 N   0  0  0  0  0  0  0  0  0  0  0  0
  180.8770  176.7680  140.1440 C   0  0  0  0  0  2  0  0  0  0  0  0
  181.8430  176.0120  139.4800 O   0  0  0  0  0  1  0  0  0  0  0  0
  180.8810  179.0490  137.4180 C   0  0  0  0  0  1  0  0  0  0  0  0
  180.2620  178.6120  138.6200 O   0  0  0  0  0  0  0  0  0  0  0  0
  188.3670  176.0880  143.3050 C   0  0  0  0  0  2  0  0  0  0  0  0
  189.6620  176.0140  142.7900 O   0  0  0  0  0  0  0  0  0  0  0  0
  189.6560  176.8850  141.7010 C   0  0  0  0  0  1  0  0  0  0  0  0
  1 10  1  0  0  0  0
  1  6  1  0  0  0  0
  2 13  1  0  0  0  0
  3 24  1  1  0  0  0
  3  2  1  0  0  0  0
  5  4  1  0  0  0  0
  5  8  2  0  0  0  0
  7  3  1  0  0  0  0
  7  9  1  0  0  0  0
  9  1  2  0  0  0  0
 10 11  2  0  0  0  0
 11  8  1  0  0  0  0
 12  9  1  0  0  0  0
 12 14  2  0  0  0  0
 13  6  1  0  0  0  0
 14 15  1  0  0  0  0
 14 10  1  0  0  0  0
 15 29  1  6  0  0  0
 15  5  1  0  0  0  0
 16 22  1  6  0  0  0
 16 19  1  0  0  0  0
 16 17  1  0  0  0  0
 17 18  1  0  0  0  0
 18 19  1  6  0  0  0
 18  7  1  0  0  0  0
 20 22  1  0  0  0  0
 22 21  1  0  0  0  0
 23 25  1  0  0  0  0
 23 24  2  0  0  0  0
 26 25  1  0  0  0  0
 27 28  1  0  0  0  0
 28 23  1  0  0  0  0
 30 29  1  0  0  0  0
 31 30  1  0  0  0  0
M  END
>  <MODEL>
3

>  <REMARK>
 VINA RESULT:      -7.7      2.362      7.146
  Name = 
  7 active torsions:
  status: ('A' for Active; 'I' for Inactive)
    1  A    between atoms: C_1  and  O_12
    2  A    between atoms: C_1  and  C_31
    3  A    between atoms: C_3  and  C_5
    4  A    between atoms: C_3  and  O_27
    5  A    between atoms: N_6  and  C_9
    6  A    between atoms: N_16  and  C_23
    7  A    between atoms: N_19  and  C_20
                            x       y       z     vdW  Elec       q    Type
                         _______ _______ _______ _____ _____    ______ ____

>  <TORSDO>
F 7

$$$$
=
 OpenBabel10232411543D

 31 34  0  0  1  0  0  0  0  0999 V2000
  189.5670  177.2400  140.8010 C   0  0  0  0  0  0  0  0  0  0  0  0
  189.4870  176.4760  143.4520 C   0  0  0  0  0  2  0  0  0  0  0  0
  188.3530  177.0540  143.6660 C   0  0  2  0  0  3  0  0  0  0  0  0
  188.7900  177.8680  135.2330 N   0  0  0  0  0  1  0  0  0  0  0  0
  188.9800  177.6710  136.6300 C   0  0  0  0  0  0  0  0  0  0  0  0
  190.8200  176.9350  141.6170 C   0  0  0  0  0  2  0  0  0  0  0  0
  187.8160  177.8210  142.5500 N   0  0  1  0  0  0  0  0  0  0  0  0
  190.1540  177.2780  137.0590 N   0  0  0  0  0  0  0  0  0  0  0  0
  188.3320  177.6770  141.1890 C   0  0  2  0  0  3  0  0  0  0  0  0
  189.5420  177.3040  139.3560 C   0  0  0  0  0  0  0  0  0  0  0  0
  190.4770  177.0710  138.4480 C   0  0  0  0  0  3  0  0  0  0  0  0
  187.5150  177.9950  140.0480 N   0  0  0  0  0  0  0  0  0  0  0  0
  190.5580  176.1140  142.8410 C   0  0  0  0  0  2  0  0  0  0  0  0
  188.2360  177.7660  139.0020 C   0  0  0  0  0  0  0  0  0  0  0  0
  187.8110  177.9340  137.5730 C   0  0  0  0  0  0  0  0  0  0  0  0
  184.5960  178.0560  142.7920 C   0  0  1  0  0  3  0  0  0  0  0  0
  185.5610  178.3910  141.6580 C   0  0  0  0  0  2  0  0  0  0  0  0
  186.6430  178.7010  142.6730 C   0  0  1  0  0  3  0  0  0  0  0  0
  185.7110  178.3080  143.8020 C   0  0  0  0  0  2  0  0  0  0  0  0
  182.9050  178.9190  144.1910 C   0  0  0  0  0  1  0  0  0  0  0  0
  182.5380  178.7880  141.9070 C   0  0  0  0  0  1  0  0  0  0  0  0
  183.5580  179.0810  142.9020 N   0  0  0  0  0  0  0  0  0  0  0  0
  188.2740  177.4210  146.1210 C   0  0  0  0  0  0  0  0  0  0  0  0
  187.7430  177.0900  144.9730 N   0  0  0  0  0  0  0  0  0  0  0  0
  189.7200  177.7720  146.2660 C   0  0  0  0  0  2  0  0  0  0  0  0
  190.4180  176.6790  146.7760 O   0  0  0  0  0  1  0  0  0  0  0  0
  187.8770  178.1130  148.4590 C   0  0  0  0  0  1  0  0  0  0  0  0
  187.4970  177.4140  147.2820 O   0  0  0  0  0  0  0  0  0  0  0  0
  186.6710  176.9790  137.2450 C   0  0  0  0  0  2  0  0  0  0  0  0
  187.1130  175.6580  137.3210 O   0  0  0  0  0  0  0  0  0  0  0  0
  186.0190  174.8990  136.9030 C   0  0  0  0  0  1  0  0  0  0  0  0
  1  9  1  0  0  0  0
  1  6  1  0  0  0  0
  2  3  1  0  0  0  0
  3 24  1  1  0  0  0
  4  5  1  0  0  0  0
  5  8  1  0  0  0  0
  5 15  2  0  0  0  0
  6 13  1  0  0  0  0
  7 18  1  6  0  0  0
  7  3  1  0  0  0  0
  8 11  2  0  0  0  0
  9 12  1  6  0  0  0
  9  7  1  0  0  0  0
 10  1  2  0  0  0  0
 11 10  1  0  0  0  0
 13  2  1  0  0  0  0
 14 10  1  0  0  0  0
 14 12  2  0  0  0  0
 15 14  1  0  0  0  0
 16 22  1  1  0  0  0
 16 19  1  0  0  0  0
 17 16  1  0  0  0  0
 18 17  1  6  0  0  0
 18 19  1  0  0  0  0
 21 22  1  0  0  0  0
 22 20  1  0  0  0  0
 23 25  1  0  0  0  0
 23 28  1  0  0  0  0
 24 23  2  0  0  0  0
 25 26  1  0  0  0  0
 28 27  1  0  0  0  0
 29 30  1  0  0  0  0
 29 15  1  0  0  0  0
 31 30  1  0  0  0  0
M  END
>  <MODEL>
4

>  <REMARK>
 VINA RESULT:      -7.6      2.302      5.685
  Name = 
  7 active torsions:
  status: ('A' for Active; 'I' for Inactive)
    1  A    between atoms: C_1  and  O_12
    2  A    between atoms: C_1  and  C_31
    3  A    between atoms: C_3  and  C_5
    4  A    between atoms: C_3  and  O_27
    5  A    between atoms: N_6  and  C_9
    6  A    between atoms: N_16  and  C_23
    7  A    between atoms: N_19  and  C_20
                            x       y       z     vdW  Elec       q    Type
                         _______ _______ _______ _____ _____    ______ ____

>  <TORSDO>
F 7

$$$$
=
 OpenBabel10232411543D

 31 34  0  0  1  0  0  0  0  0999 V2000
  186.3470  178.3080  145.1980 C   0  0  0  0  0  0  0  0  0  0  0  0
  183.6510  178.6080  144.6860 C   0  0  0  0  0  2  0  0  0  0  0  0
  183.8330  178.8200  143.4260 C   0  0  0  0  0  0  0  0  0  0  0  0
  191.6960  176.5180  145.6310 N   0  0  0  0  0  1  0  0  0  0  0  0
  190.3370  176.9310  145.5280 C   0  0  0  0  0  0  0  0  0  0  0  0
  185.3440  178.7570  146.2580 C   0  0  0  0  0  2  0  0  0  0  0  0
  185.2230  178.8940  142.9940 N   0  0  0  0  0  0  0  0  0  0  0  0
  189.6530  177.1330  146.6260 N   0  0  0  0  0  0  0  0  0  0  0  0
  186.3240  178.4280  143.8370 C   0  0  0  0  0  0  0  0  0  0  0  0
  187.6720  177.8150  145.5010 C   0  0  0  0  0  0  0  0  0  0  0  0
  188.2830  177.5780  146.6520 C   0  0  0  0  0  3  0  0  0  0  0  0
  187.5750  178.0120  143.2610 N   0  0  0  0  0  0  0  0  0  0  0  0
  183.9240  178.4160  145.9270 C   0  0  0  0  0  2  0  0  0  0  0  0
  188.3340  177.6560  144.2440 C   0  0  0  0  0  0  0  0  0  0  0  0
  189.7350  177.1300  144.1410 C   0  0  2  0  0  3  0  0  0  0  0  0
  185.8230  178.0380  139.9300 C   0  0  1  0  0  3  0  0  0  0  0  0
  186.7430  178.4820  141.0640 C   0  0  0  0  0  2  0  0  0  0  0  0
  185.6210  179.3210  141.6430 C   0  0  1  0  0  3  0  0  0  0  0  0
  184.6820  178.8350  140.5570 C   0  0  0  0  0  2  0  0  0  0  0  0
  185.3710  178.1310  137.6170 C   0  0  0  0  0  1  0  0  0  0  0  0
  187.5700  178.1440  138.3500 C   0  0  0  0  0  1  0  0  0  0  0  0
  186.2400  178.6430  138.6650 N   0  0  0  0  0  0  0  0  0  0  0  0
  181.4610  179.1570  142.7770 C   0  0  2  0  0  3  0  0  0  0  0  0
  182.7450  179.1410  142.5350 N   0  0  0  0  0  0  0  0  0  0  0  0
  180.8860  178.7500  144.0960 C   0  0  0  0  0  2  0  0  0  0  0  0
  179.9820  177.7050  143.9090 O   0  0  0  0  0  1  0  0  0  0  0  0
  180.4090  178.7750  140.5740 C   0  0  0  0  0  1  0  0  0  0  0  0
  180.5620  179.5240  141.7720 O   0  0  0  0  0  0  0  0  0  0  0  0
  189.7480  175.8060  143.3880 C   0  0  0  0  0  2  0  0  0  0  0  0
  190.1220  176.0120  142.0600 O   0  0  0  0  0  0  0  0  0  0  0  0
  191.0280  177.0720  142.1110 C   0  0  0  0  0  1  0  0  0  0  0  0
  1 10  1  0  0  0  0
  1  6  1  0  0  0  0
  2 13  1  0  0  0  0
  3  2  1  0  0  0  0
  5  4  1  0  0  0  0
  5  8  2  0  0  0  0
  7  3  1  0  0  0  0
  7  9  1  0  0  0  0
  8 11  1  0  0  0  0
  9  1  2  0  0  0  0
 10 11  2  0  0  0  0
 12  9  1  0  0  0  0
 12 14  2  0  0  0  0
 13  6  1  0  0  0  0
 14 10  1  0  0  0  0
 15 29  1  1  0  0  0
 15 14  1  0  0  0  0
 15  5  1  0  0  0  0
 16 22  1  6  0  0  0
 16 19  1  0  0  0  0
 16 17  1  0  0  0  0
 17 18  1  0  0  0  0
 18 19  1  6  0  0  0
 18  7  1  0  0  0  0
 20 22  1  0  0  0  0
 21 22  1  0  0  0  0
 23 25  1  6  0  0  0
 24 23  1  0  0  0  0
 24  3  2  0  0  0  0
 26 25  1  0  0  0  0
 27 28  1  0  0  0  0
 28 23  1  0  0  0  0
 30 31  1  0  0  0  0
 30 29  1  0  0  0  0
M  END
>  <MODEL>
5

>  <REMARK>
 VINA RESULT:      -7.5      2.433      6.825
  Name = 
  7 active torsions:
  status: ('A' for Active; 'I' for Inactive)
    1  A    between atoms: C_1  and  O_12
    2  A    between atoms: C_1  and  C_31
    3  A    between atoms: C_3  and  C_5
    4  A    between atoms: C_3  and  O_27
    5  A    between atoms: N_6  and  C_9
    6  A    between atoms: N_16  and  C_23
    7  A    between atoms: N_19  and  C_20
                            x       y       z     vdW  Elec       q    Type
                         _______ _______ _______ _____ _____    ______ ____

>  <TORSDO>
F 7

$$$$
=
 OpenBabel10232411543D

 31 34  0  0  1  0  0  0  0  0999 V2000
  183.1000  178.8210  143.2400 C   0  0  0  0  0  0  0  0  0  0  0  0
  181.3310  178.4970  141.1460 C   0  0  0  0  0  2  0  0  0  0  0  0
  182.2510  178.6120  140.2480 C   0  0  2  0  0  3  0  0  0  0  0  0
  187.0970  178.2450  147.2030 N   0  0  0  0  0  1  0  0  0  0  0  0
  186.0810  178.3510  146.2100 C   0  0  0  0  0  0  0  0  0  0  0  0
  181.6150  179.1560  143.3470 C   0  0  0  0  0  2  0  0  0  0  0  0
  183.5830  178.9290  140.7470 N   0  0  0  0  0  0  0  0  0  0  0  0
  184.8390  178.5170  146.5920 N   0  0  0  0  0  0  0  0  0  0  0  0
  183.9360  178.7940  142.1600 C   0  0  0  0  0  0  0  0  0  0  0  0
  183.9710  178.6500  144.3820 C   0  0  2  0  0  3  0  0  0  0  0  0
  183.7300  178.6660  145.6850 C   0  0  0  0  0  3  0  0  0  0  0  0
  185.3010  178.5920  142.5680 N   0  0  0  0  0  0  0  0  0  0  0  0
  180.7710  178.4930  142.3030 C   0  0  0  0  0  2  0  0  0  0  0  0
  185.2930  178.5060  143.8560 C   0  0  0  0  0  0  0  0  0  0  0  0
  186.4830  178.2760  144.7410 C   0  0  0  0  0  0  0  0  0  0  0  0
  186.1970  177.9360  139.1160 C   0  0  1  0  0  3  0  0  0  0  0  0
  186.0410  178.7880  140.3730 C   0  0  0  0  0  2  0  0  0  0  0  0
  184.7040  179.2900  139.8650 C   0  0  1  0  0  3  0  0  0  0  0  0
  184.8210  178.3980  138.6440 C   0  0  0  0  0  2  0  0  0  0  0  0
  187.1790  177.7890  136.9770 C   0  0  0  0  0  1  0  0  0  0  0  0
  188.5310  178.1120  138.8310 C   0  0  0  0  0  1  0  0  0  0  0  0
  187.2470  178.4800  138.2540 N   0  0  0  0  0  0  0  0  0  0  0  0
  181.5030  179.5740  138.0850 C   0  0  0  0  0  0  0  0  0  0  0  0
  181.9530  178.6040  138.8370 N   0  0  0  0  0  0  0  0  0  0  0  0
  181.1400  180.9160  138.6360 C   0  0  0  0  0  2  0  0  0  0  0  0
  182.2340  181.7740  138.5340 O   0  0  0  0  0  1  0  0  0  0  0  0
  180.5270  180.2510  135.9180 C   0  0  0  0  0  1  0  0  0  0  0  0
  181.3010  179.3670  136.7180 O   0  0  0  0  0  0  0  0  0  0  0  0
  187.1000  176.9150  144.4520 C   0  0  0  0  0  2  0  0  0  0  0  0
  188.4800  177.0370  144.2900 O   0  0  0  0  0  0  0  0  0  0  0  0
  188.7320  176.5160  143.0210 C   0  0  0  0  0  1  0  0  0  0  0  0
  1  6  1  0  0  0  0
  1 10  1  0  0  0  0
  2 13  1  0  0  0  0
  3 24  1  6  0  0  0
  3  7  1  0  0  0  0
  3  2  1  0  0  0  0
  5  8  1  0  0  0  0
  5  4  1  0  0  0  0
  7  9  1  0  0  0  0
  9 12  1  0  0  0  0
  9  1  2  0  0  0  0
 10 11  1  1  0  0  0
 11  8  2  0  0  0  0
 12 14  2  0  0  0  0
 13  6  1  0  0  0  0
 14 10  1  0  0  0  0
 14 15  1  0  0  0  0
 15  5  2  0  0  0  0
 16 22  1  6  0  0  0
 16 17  1  0  0  0  0
 18 19  1  6  0  0  0
 18 17  1  0  0  0  0
 18  7  1  0  0  0  0
 19 16  1  0  0  0  0
 20 22  1  0  0  0  0
 22 21  1  0  0  0  0
 23 25  1  0  0  0  0
 23 24  2  0  0  0  0
 26 25  1  0  0  0  0
 27 28  1  0  0  0  0
 28 23  1  0  0  0  0
 29 15  1  0  0  0  0
 30 29  1  0  0  0  0
 31 30  1  0  0  0  0
M  END
>  <MODEL>
6

>  <REMARK>
 VINA RESULT:      -7.3      2.406      7.446
  Name = 
  7 active torsions:
  status: ('A' for Active; 'I' for Inactive)
    1  A    between atoms: C_1  and  O_12
    2  A    between atoms: C_1  and  C_31
    3  A    between atoms: C_3  and  C_5
    4  A    between atoms: C_3  and  O_27
    5  A    between atoms: N_6  and  C_9
    6  A    between atoms: N_16  and  C_23
    7  A    between atoms: N_19  and  C_20
                            x       y       z     vdW  Elec       q    Type
                         _______ _______ _______ _____ _____    ______ ____

>  <TORSDO>
F 7

$$$$
=
 OpenBabel10232411543D

 31 34  0  0  1  0  0  0  0  0999 V2000
  189.5180  177.7390  142.6380 C   0  0  0  0  0  0  0  0  0  0  0  0
  187.4560  177.6130  144.4680 C   0  0  0  0  0  2  0  0  0  0  0  0
  186.5760  178.0340  143.6230 C   0  0  2  0  0  3  0  0  0  0  0  0
  193.1520  176.9140  138.3820 N   0  0  0  0  0  1  0  0  0  0  0  0
  192.2340  177.0820  139.4570 C   0  0  0  0  0  0  0  0  0  0  0  0
  189.7370  177.8400  144.1460 C   0  0  0  0  0  2  0  0  0  0  0  0
  187.0910  178.4210  142.3170 N   0  0  1  0  0  0  0  0  0  0  0  0
  192.6790  176.9950  140.6870 N   0  0  0  0  0  0  0  0  0  0  0  0
  188.4330  178.0480  141.8690 C   0  0  2  0  0  3  0  0  0  0  0  0
  190.5730  177.4590  141.6890 C   0  0  0  0  0  0  0  0  0  0  0  0
  191.8560  177.1740  141.8550 C   0  0  0  0  0  3  0  0  0  0  0  0
  188.7490  177.9550  140.4690 N   0  0  0  0  0  0  0  0  0  0  0  0
  188.6010  177.2960  144.9560 C   0  0  0  0  0  2  0  0  0  0  0  0
  189.9900  177.6060  140.3920 C   0  0  0  0  0  0  0  0  0  0  0  0
  190.7720  177.3650  139.1340 C   0  0  0  0  0  0  0  0  0  0  0  0
  184.4700  178.3350  140.4180 C   0  0  1  0  0  3  0  0  0  0  0  0
  185.9600  178.2270  140.1060 C   0  0  0  0  0  2  0  0  0  0  0  0
  186.2720  179.1040  141.3020 C   0  0  1  0  0  3  0  0  0  0  0  0
  184.8000  179.1630  141.6570 C   0  0  0  0  0  2  0  0  0  0  0  0
  182.3960  179.2760  139.8010 C   0  0  0  0  0  1  0  0  0  0  0  0
  183.7900  178.4140  138.1620 C   0  0  0  0  0  1  0  0  0  0  0  0
  183.7930  179.1560  139.4140 N   0  0  0  0  0  0  0  0  0  0  0  0
  184.7310  178.7870  145.1040 C   0  0  0  0  0  0  0  0  0  0  0  0
  185.2040  178.2750  143.9980 N   0  0  0  0  0  0  0  0  0  0  0  0
  185.6070  179.1640  146.2550 C   0  0  0  0  0  2  0  0  0  0  0  0
  185.0060  178.7680  147.4490 O   0  0  0  0  0  1  0  0  0  0  0  0
  182.4350  178.8100  144.1890 C   0  0  0  0  0  1  0  0  0  0  0  0
  183.3540  178.9620  145.2630 O   0  0  0  0  0  0  0  0  0  0  0  0
  190.1850  176.1890  138.3660 C   0  0  0  0  0  2  0  0  0  0  0  0
  189.6770  176.6200  137.1400 O   0  0  0  0  0  0  0  0  0  0  0  0
  188.3090  176.3610  137.2160 C   0  0  0  0  0  1  0  0  0  0  0  0
  1  6  1  0  0  0  0
  2 13  1  0  0  0  0
  3 24  1  1  0  0  0
  3  2  1  0  0  0  0
  4  5  1  0  0  0  0
  5  8  1  0  0  0  0
  6 13  1  0  0  0  0
  7 18  1  6  0  0  0
  7  3  1  0  0  0  0
  8 11  2  0  0  0  0
  9 12  1  6  0  0  0
  9  7  1  0  0  0  0
  9  1  1  0  0  0  0
 10 11  1  0  0  0  0
 10  1  2  0  0  0  0
 14 12  2  0  0  0  0
 14 10  1  0  0  0  0
 15  5  2  0  0  0  0
 15 14  1  0  0  0  0
 16 22  1  6  0  0  0
 16 19  1  0  0  0  0
 17 16  1  0  0  0  0
 18 17  1  6  0  0  0
 18 19  1  0  0  0  0
 21 22  1  0  0  0  0
 22 20  1  0  0  0  0
 23 28  1  0  0  0  0
 23 25  1  0  0  0  0
 24 23  2  0  0  0  0
 25 26  1  0  0  0  0
 27 28  1  0  0  0  0
 29 15  1  0  0  0  0
 30 31  1  0  0  0  0
 30 29  1  0  0  0  0
M  END
>  <MODEL>
7

>  <REMARK>
 VINA RESULT:      -7.3      2.346      6.520
  Name = 
  7 active torsions:
  status: ('A' for Active; 'I' for Inactive)
    1  A    between atoms: C_1  and  O_12
    2  A    between atoms: C_1  and  C_31
    3  A    between atoms: C_3  and  C_5
    4  A    between atoms: C_3  and  O_27
    5  A    between atoms: N_6  and  C_9
    6  A    between atoms: N_16  and  C_23
    7  A    between atoms: N_19  and  C_20
                            x       y       z     vdW  Elec       q    Type
                         _______ _______ _______ _____ _____    ______ ____

>  <TORSDO>
F 7

$$$$
=
 OpenBabel10232411543D

 31 34  0  0  1  0  0  0  0  0999 V2000
  184.9790  178.7390  140.9280 C   0  0  0  0  0  0  0  0  0  0  0  0
  185.2510  178.0670  138.2650 C   0  0  0  0  0  2  0  0  0  0  0  0
  186.5390  178.0290  138.3250 C   0  0  2  0  0  3  0  0  0  0  0  0
  184.7580  178.8390  146.5800 N   0  0  0  0  0  1  0  0  0  0  0  0
  184.7990  178.7770  145.1580 C   0  0  0  0  0  0  0  0  0  0  0  0
  183.9330  179.0880  139.8710 C   0  0  0  0  0  2  0  0  0  0  0  0
  187.1230  178.4270  139.5990 N   0  0  0  0  0  0  0  0  0  0  0  0
  183.6990  179.0050  144.4840 N   0  0  0  0  0  0  0  0  0  0  0  0
  186.3240  178.5310  140.8200 C   0  0  0  0  0  0  0  0  0  0  0  0
  184.7240  178.7640  142.3510 C   0  0  2  0  0  3  0  0  0  0  0  0
  183.6200  178.9980  143.0450 C   0  0  0  0  0  3  0  0  0  0  0  0
  186.9320  178.4010  142.1180 N   0  0  0  0  0  0  0  0  0  0  0  0
  184.0330  178.2580  138.6290 C   0  0  0  0  0  2  0  0  0  0  0  0
  185.9840  178.5330  142.9850 C   0  0  0  0  0  0  0  0  0  0  0  0
  186.1250  178.4560  144.4770 C   0  0  0  0  0  0  0  0  0  0  0  0
  190.1160  177.2410  139.2560 C   0  0  1  0  0  3  0  0  0  0  0  0
  189.2440  177.4710  140.4880 C   0  0  0  0  0  2  0  0  0  0  0  0
  188.5670  178.6330  139.7900 C   0  0  1  0  0  3  0  0  0  0  0  0
  189.3830  178.3720  138.5390 C   0  0  0  0  0  2  0  0  0  0  0  0
  192.3660  176.7530  138.7430 C   0  0  0  0  0  1  0  0  0  0  0  0
  191.7840  177.2920  140.9210 C   0  0  0  0  0  1  0  0  0  0  0  0
  191.5030  177.6180  139.5310 N   0  0  0  0  0  0  0  0  0  0  0  0
  187.6220  176.6510  136.5660 C   0  0  0  0  0  0  0  0  0  0  0  0
  187.3560  177.7840  137.1610 N   0  0  0  0  0  0  0  0  0  0  0  0
  187.1350  175.3360  137.0860 C   0  0  0  0  0  2  0  0  0  0  0  0
  186.0850  174.8790  136.2900 O   0  0  0  0  0  1  0  0  0  0  0  0
  189.8000  176.2730  135.4630 C   0  0  0  0  0  1  0  0  0  0  0  0
  188.4250  176.6300  135.4230 O   0  0  0  0  0  0  0  0  0  0  0  0
  186.5850  177.0650  144.8920 C   0  0  0  0  0  2  0  0  0  0  0  0
  187.5750  177.1590  145.8710 O   0  0  0  0  0  0  0  0  0  0  0  0
  188.7600  177.3320  145.1550 C   0  0  0  0  0  1  0  0  0  0  0  0
  1 10  1  0  0  0  0
  2  3  1  0  0  0  0
  2 13  1  0  0  0  0
  3 24  1  6  0  0  0
  3  7  1  0  0  0  0
  5  4  1  0  0  0  0
  6  1  1  0  0  0  0
  7 18  1  0  0  0  0
  7  9  1  0  0  0  0
  8  5  1  0  0  0  0
  9  1  2  0  0  0  0
  9 12  1  0  0  0  0
 10 14  1  0  0  0  0
 10 11  1  1  0  0  0
 11  8  2  0  0  0  0
 12 14  2  0  0  0  0
 13  6  1  0  0  0  0
 14 15  1  0  0  0  0
 15 29  1  0  0  0  0
 15  5  2  0  0  0  0
 16 22  1  1  0  0  0
 16 17  1  0  0  0  0
 18 19  1  6  0  0  0
 18 17  1  0  0  0  0
 19 16  1  0  0  0  0
 20 22  1  0  0  0  0
 22 21  1  0  0  0  0
 23 25  1  0  0  0  0
 23 24  2  0  0  0  0
 26 25  1  0  0  0  0
 28 27  1  0  0  0  0
 28 23  1  0  0  0  0
 29 30  1  0  0  0  0
 31 30  1  0  0  0  0
M  END
>  <MODEL>
8

>  <REMARK>
 VINA RESULT:      -7.3      2.654      6.674
  Name = 
  7 active torsions:
  status: ('A' for Active; 'I' for Inactive)
    1  A    between atoms: C_1  and  O_12
    2  A    between atoms: C_1  and  C_31
    3  A    between atoms: C_3  and  C_5
    4  A    between atoms: C_3  and  O_27
    5  A    between atoms: N_6  and  C_9
    6  A    between atoms: N_16  and  C_23
    7  A    between atoms: N_19  and  C_20
                            x       y       z     vdW  Elec       q    Type
                         _______ _______ _______ _____ _____    ______ ____

>  <TORSDO>
F 7

$$$$
=
 OpenBabel10232411543D

 31 34  0  0  1  0  0  0  0  0999 V2000
  190.0400  177.2310  144.1190 C   0  0  0  0  0  0  0  0  0  0  0  0
  191.0740  177.7960  141.6230 C   0  0  0  0  0  2  0  0  0  0  0  0
  189.9100  177.8610  141.0690 C   0  0  2  0  0  3  0  0  0  0  0  0
  187.5790  177.3630  149.2110 N   0  0  0  0  0  1  0  0  0  0  0  0
  188.2120  177.3670  147.9350 C   0  0  0  0  0  0  0  0  0  0  0  0
  191.4460  176.8190  143.6880 C   0  0  0  0  0  2  0  0  0  0  0  0
  188.7830  177.5280  141.9290 N   0  0  0  0  0  0  0  0  0  0  0  0
  189.4910  177.0900  147.8640 N   0  0  0  0  0  0  0  0  0  0  0  0
  188.9110  177.4600  143.3850 C   0  0  0  0  0  0  0  0  0  0  0  0
  189.5960  177.2610  145.4950 C   0  0  2  0  0  3  0  0  0  0  0  0
  190.2360  177.0350  146.6330 C   0  0  0  0  0  3  0  0  0  0  0  0
  187.7710  177.6560  144.2400 N   0  0  0  0  0  0  0  0  0  0  0  0
  191.9710  177.5970  142.5220 C   0  0  0  0  0  2  0  0  0  0  0  0
  188.1950  177.5420  145.4540 C   0  0  0  0  0  0  0  0  0  0  0  0
  187.3740  177.6840  146.7020 C   0  0  0  0  0  0  0  0  0  0  0  0
  185.9190  178.8990  141.2980 C   0  0  1  0  0  3  0  0  0  0  0  0
  186.3610  177.9050  142.3690 C   0  0  0  0  0  2  0  0  0  0  0  0
  187.4120  177.3570  141.4240 C   0  0  1  0  0  3  0  0  0  0  0  0
  187.0230  178.3840  140.3790 C   0  0  0  0  0  2  0  0  0  0  0  0
  184.2910  179.4450  139.6810 C   0  0  0  0  0  1  0  0  0  0  0  0
  183.6190  178.8220  141.8090 C   0  0  0  0  0  1  0  0  0  0  0  0
  184.6010  178.5380  140.7740 N   0  0  0  0  0  0  0  0  0  0  0  0
  190.1260  177.3160  138.6560 C   0  0  0  0  0  0  0  0  0  0  0  0
  189.7450  178.0730  139.6520 N   0  0  0  0  0  0  0  0  0  0  0  0
  190.9080  176.0580  138.8560 C   0  0  0  0  0  2  0  0  0  0  0  0
  190.3870  175.0500  138.0450 O   0  0  0  0  0  1  0  0  0  0  0  0
  188.8630  178.6690  137.0190 C   0  0  0  0  0  1  0  0  0  0  0  0
  189.8430  177.6920  137.3400 O   0  0  0  0  0  0  0  0  0  0  0  0
  186.8230  179.0990  146.8130 C   0  0  0  0  0  2  0  0  0  0  0  0
  185.4700  179.0640  147.1520 O   0  0  0  0  0  0  0  0  0  0  0  0
  184.8230  178.7100  145.9680 C   0  0  0  0  0  1  0  0  0  0  0  0
  1 10  1  0  0  0  0
  2 13  1  0  0  0  0
  3 24  1  6  0  0  0
  3  2  1  0  0  0  0
  3  7  1  0  0  0  0
  5  4  1  0  0  0  0
  6  1  1  0  0  0  0
  7  9  1  0  0  0  0
  8  5  1  0  0  0  0
  9  1  2  0  0  0  0
  9 12  1  0  0  0  0
 10 11  1  6  0  0  0
 11  8  2  0  0  0  0
 12 14  2  0  0  0  0
 13  6  1  0  0  0  0
 14 10  1  0  0  0  0
 14 15  1  0  0  0  0
 15 29  1  0  0  0  0
 15  5  2  0  0  0  0
 16 22  1  6  0  0  0
 16 17  1  0  0  0  0
 18 19  1  6  0  0  0
 18  7  1  0  0  0  0
 18 17  1  0  0  0  0
 19 16  1  0  0  0  0
 20 22  1  0  0  0  0
 22 21  1  0  0  0  0
 23 25  1  0  0  0  0
 23 24  2  0  0  0  0
 26 25  1  0  0  0  0
 27 28  1  0  0  0  0
 28 23  1  0  0  0  0
 29 30  1  0  0  0  0
 31 30  1  0  0  0  0
M  END
>  <MODEL>
9

>  <REMARK>
 VINA RESULT:      -7.2      2.233      7.298
  Name = 
  7 active torsions:
  status: ('A' for Active; 'I' for Inactive)
    1  A    between atoms: C_1  and  O_12
    2  A    between atoms: C_1  and  C_31
    3  A    between atoms: C_3  and  C_5
    4  A    between atoms: C_3  and  O_27
    5  A    between atoms: N_6  and  C_9
    6  A    between atoms: N_16  and  C_23
    7  A    between atoms: N_19  and  C_20
                            x       y       z     vdW  Elec       q    Type
                         _______ _______ _______ _____ _____    ______ ____

>  <TORSDO>
F 7

$$$$
