=
 OpenBabel10222421403D

 47 50  0  0  1  0  0  0  0  0999 V2000
  187.0280  177.0930  137.7270 C   0  0  0  0  0  0  0  0  0  0  0  0
  185.7030  176.8000  137.2730 N   0  0  0  0  0  2  0  0  0  0  0  0
  188.7050  178.3470  138.7380 C   0  0  1  0  0  3  0  0  0  0  0  0
  188.3540  175.9180  137.5070 S   0  0  0  0  0  0  0  0  0  0  0  0
  190.7220  177.2940  137.8890 N   0  0  0  0  0  0  0  0  0  0  0  0
  189.4280  177.2500  138.0360 C   0  0  0  0  0  0  0  0  0  0  0  0
  187.3180  178.2120  138.3120 N   0  0  0  0  0  0  0  0  0  0  0  0
  193.3820  174.6980  137.3410 C   0  0  0  0  0  0  0  0  0  0  0  0
  193.3060  174.5710  135.9870 N   0  0  0  0  0  0  0  0  0  0  0  0
  194.3280  173.9360  138.0890 N   0  0  0  0  0  2  0  0  0  0  0  0
  191.5390  176.1680  135.8900 C   0  0  0  0  0  3  0  0  0  0  0  0
  191.6040  176.3360  137.2760 C   0  0  0  0  0  0  0  0  0  0  0  0
  192.5300  175.5830  138.0060 C   0  0  0  0  0  3  0  0  0  0  0  0
  192.4070  175.2760  135.2550 C   0  0  0  0  0  3  0  0  0  0  0  0
  198.3500  174.6570  138.5660 C   0  0  0  0  0  3  0  0  0  0  0  0
  195.2680  173.1180  137.4460 N   0  0  0  0  0  0  0  0  0  0  0  0
  196.5430  173.2490  137.6420 C   0  0  0  0  0  0  0  0  0  0  0  0
  197.6730  172.1940  136.7300 S   0  0  0  0  0  0  0  0  0  0  0  0
  197.0710  174.2730  138.5680 C   0  0  0  0  0  3  0  0  0  0  0  0
  199.3920  174.0790  137.6470 C   0  0  0  0  0  2  0  0  0  0  0  0
  198.7810  173.5790  136.3440 C   0  0  0  0  0  2  0  0  0  0  0  0
  188.1890  178.8610  141.0140 O   0  0  0  0  0  0  0  0  0  0  0  0
  188.8210  178.1160  140.2190 C   0  0  0  0  0  0  0  0  0  0  0  0
  189.7250  177.1350  140.7300 N   0  0  0  0  0  2  0  0  0  0  0  0
  191.9650  177.2930  141.6150 C   0  0  0  0  0  1  0  0  0  0  0  0
  190.4890  177.3800  141.9400 C   0  0  2  0  0  3  0  0  0  0  0  0
  190.1460  176.3300  142.9820 C   0  0  0  0  0  2  0  0  0  0  0  0
  191.0180  176.5410  144.2170 C   0  0  0  0  0  2  0  0  0  0  0  0
  186.8930  177.3860  146.0290 C   0  0  0  0  0  2  0  0  0  0  0  0
  190.3130  176.7950  146.6310 C   0  0  1  0  0  3  0  0  0  0  0  0
  188.1270  177.8730  146.0970 C   0  0  0  0  0  0  0  0  0  0  0  0
  189.0560  177.6680  147.6080 S   0  0  0  0  0  0  0  0  0  0  0  0
  190.3620  177.4550  145.2570 C   0  0  2  0  0  3  0  0  0  0  0  0
  191.6080  176.9120  147.2800 N   0  0  0  0  0  1  0  0  0  0  0  0
  188.9490  177.8740  144.8570 C   0  0  0  0  0  2  0  0  0  0  0  0
  184.6520  177.8040  137.1770 C   0  0  0  0  0  2  0  0  0  0  0  0
  183.6680  177.6640  138.3370 C   0  0  1  0  0  3  0  0  0  0  0  0
  183.3470  179.0170  138.9780 C   0  0  0  0  0  2  0  0  0  0  0  0
  183.4080  178.9900  140.5060 C   0  0  0  0  0  2  0  0  0  0  0  0
  184.8220  178.6660  140.9670 C   0  0  0  0  0  2  0  0  0  0  0  0
  183.6550  178.4120  143.0290 O   0  0  0  0  0  1  0  0  0  0  0  0
  184.9090  178.6840  142.4800 C   0  0  0  0  0  2  0  0  0  0  0  0
  182.4730  177.0230  137.8970 O   0  0  0  0  0  0  0  0  0  0  0  0
  182.0140  175.8210  138.4470 C   0  0  0  0  0  0  0  0  0  0  0  0
  181.4390  175.7950  139.6050 N   0  0  0  0  0  2  0  0  0  0  0  0
  182.9030  174.7910  136.5210 O   0  0  0  0  0  1  0  0  0  0  0  0
  182.1400  174.5600  137.6650 C   0  0  0  0  0  2  0  0  0  0  0  0
  1  7  2  0  0  0  0
  2  1  1  0  0  0  0
  3 23  1  1  0  0  0
  4  1  1  0  0  0  0
  4  6  1  0  0  0  0
  5  6  2  0  0  0  0
  6  3  1  0  0  0  0
  7  3  1  0  0  0  0
  8 13  1  0  0  0  0
  8 10  1  0  0  0  0
  9  8  2  0  0  0  0
 11 12  1  0  0  0  0
 12  5  1  0  0  0  0
 12 13  2  0  0  0  0
 14 11  2  0  0  0  0
 14  9  1  0  0  0  0
 15 19  2  0  0  0  0
 16 17  2  0  0  0  0
 16 10  1  0  0  0  0
 17 19  1  0  0  0  0
 18 17  1  0  0  0  0
 20 15  1  0  0  0  0
 21 18  1  0  0  0  0
 21 20  1  0  0  0  0
 23 24  1  0  0  0  0
 23 22  2  0  0  0  0
 24 26  1  0  0  0  0
 26 25  1  6  0  0  0
 26 27  1  0  0  0  0
 27 28  1  0  0  0  0
 29 31  2  0  0  0  0
 30 34  1  1  0  0  0
 30 32  1  0  0  0  0
 31 32  1  0  0  0  0
 33 28  1  6  0  0  0
 33 30  1  0  0  0  0
 35 33  1  0  0  0  0
 35 31  1  0  0  0  0
 36  2  1  0  0  0  0
 37 36  1  6  0  0  0
 37 38  1  0  0  0  0
 38 39  1  0  0  0  0
 39 40  1  0  0  0  0
 40 42  1  0  0  0  0
 42 41  1  0  0  0  0
 43 37  1  0  0  0  0
 43 44  1  0  0  0  0
 44 45  2  0  0  0  0
 46 47  1  0  0  0  0
 47 44  1  0  0  0  0
M  END
>  <MODEL>
1

>  <REMARK>
 VINA RESULT:      -7.2      0.000      0.000
  Name = 
  16 active torsions:
  status: ('A' for Active; 'I' for Inactive)
    1  A    between atoms: C_1  and  O_15
    2  A    between atoms: C_1  and  C_32
    3  A    between atoms: C_3  and  C_10
    4  A    between atoms: C_3  and  C_41
    5  A    between atoms: N_5  and  N_26
    6  A    between atoms: C_6  and  C_14
    7  A    between atoms: C_6  and  C_22
    8  A    between atoms: C_10  and  O_15
    9  A    between atoms: C_10  and  C_33
   10  A    between atoms: N_12  and  C_33
   11  A    between atoms: C_14  and  C_38
   12  A    between atoms: C_16  and  C_23
   13  A    between atoms: C_18  and  C_41
   14  A    between atoms: C_18  and  C_47
   15  A    between atoms: C_22  and  N_25
   16  A    between atoms: N_34  and  C_37
                            x       y       z     vdW  Elec       q    Type
                         _______ _______ _______ _____ _____    ______ ____

>  <TORSDO>
F 16

$$$$
=
 OpenBabel10222421403D

 47 50  0  0  1  0  0  0  0  0999 V2000
  186.9210  177.1550  137.7580 C   0  0  0  0  0  0  0  0  0  0  0  0
  185.5900  176.8950  137.3030 N   0  0  0  0  0  2  0  0  0  0  0  0
  188.6230  178.3600  138.7850 C   0  0  1  0  0  3  0  0  0  0  0  0
  188.2230  175.9580  137.5180 S   0  0  0  0  0  0  0  0  0  0  0  0
  190.6180  177.2810  137.9160 N   0  0  0  0  0  0  0  0  0  0  0  0
  189.3240  177.2600  138.0650 C   0  0  0  0  0  0  0  0  0  0  0  0
  187.2330  178.2580  138.3600 N   0  0  0  0  0  0  0  0  0  0  0  0
  193.2560  174.6740  137.3150 C   0  0  0  0  0  0  0  0  0  0  0  0
  193.1410  174.5350  135.9650 N   0  0  0  0  0  0  0  0  0  0  0  0
  194.2230  173.9180  138.0420 N   0  0  0  0  0  2  0  0  0  0  0  0
  191.3740  176.1350  135.9040 C   0  0  0  0  0  3  0  0  0  0  0  0
  191.4800  176.3160  137.2870 C   0  0  0  0  0  0  0  0  0  0  0  0
  192.4260  175.5670  137.9970 C   0  0  0  0  0  3  0  0  0  0  0  0
  192.2210  175.2350  135.2530 C   0  0  0  0  0  3  0  0  0  0  0  0
  198.2580  174.6300  138.4010 C   0  0  0  0  0  3  0  0  0  0  0  0
  195.1420  173.0910  137.3790 N   0  0  0  0  0  0  0  0  0  0  0  0
  196.4230  173.2210  137.5390 C   0  0  0  0  0  0  0  0  0  0  0  0
  197.5240  172.1540  136.6040 S   0  0  0  0  0  0  0  0  0  0  0  0
  196.9780  174.2500  138.4410 C   0  0  0  0  0  3  0  0  0  0  0  0
  199.2730  174.0420  137.4580 C   0  0  0  0  0  2  0  0  0  0  0  0
  198.6240  173.5340  136.1760 C   0  0  0  0  0  2  0  0  0  0  0  0
  188.0390  178.7780  141.0640 O   0  0  0  0  0  0  0  0  0  0  0  0
  188.7370  178.1040  140.2620 C   0  0  0  0  0  0  0  0  0  0  0  0
  189.7100  177.1850  140.7650 N   0  0  0  0  0  2  0  0  0  0  0  0
  191.9210  177.3880  141.7100 C   0  0  0  0  0  1  0  0  0  0  0  0
  190.4360  177.4600  141.9920 C   0  0  2  0  0  3  0  0  0  0  0  0
  190.0760  176.4240  143.0410 C   0  0  0  0  0  2  0  0  0  0  0  0
  190.9990  176.5860  144.2460 C   0  0  0  0  0  2  0  0  0  0  0  0
  186.9580  177.4210  146.2440 C   0  0  0  0  0  2  0  0  0  0  0  0
  190.3900  176.7690  146.6930 C   0  0  1  0  0  3  0  0  0  0  0  0
  188.2000  177.8910  146.2800 C   0  0  0  0  0  0  0  0  0  0  0  0
  189.1840  177.6250  147.7460 S   0  0  0  0  0  0  0  0  0  0  0  0
  190.3950  177.4740  145.3400 C   0  0  2  0  0  3  0  0  0  0  0  0
  191.7100  176.8490  147.2950 N   0  0  0  0  0  1  0  0  0  0  0  0
  188.9740  177.9220  145.0090 C   0  0  0  0  0  2  0  0  0  0  0  0
  184.5580  177.9210  137.2250 C   0  0  0  0  0  2  0  0  0  0  0  0
  183.2020  177.3520  137.6380 C   0  0  1  0  0  3  0  0  0  0  0  0
  182.9130  176.0130  136.9530 C   0  0  0  0  0  2  0  0  0  0  0  0
  181.4290  175.6450  136.9510 C   0  0  0  0  0  2  0  0  0  0  0  0
  181.1850  174.4560  137.8700 C   0  0  0  0  0  2  0  0  0  0  0  0
  180.2520  172.2630  137.9200 O   0  0  0  0  0  1  0  0  0  0  0  0
  180.7850  173.2330  137.0690 C   0  0  0  0  0  2  0  0  0  0  0  0
  183.1350  177.2140  139.0550 O   0  0  0  0  0  0  0  0  0  0  0  0
  183.0310  178.3100  139.9180 C   0  0  0  0  0  0  0  0  0  0  0  0
  181.9460  179.0120  139.9760 N   0  0  0  0  0  2  0  0  0  0  0  0
  184.9110  179.6890  140.2730 O   0  0  0  0  0  1  0  0  0  0  0  0
  184.1670  178.6450  140.8220 C   0  0  0  0  0  2  0  0  0  0  0  0
  1  7  2  0  0  0  0
  2  1  1  0  0  0  0
  3 23  1  1  0  0  0
  4  1  1  0  0  0  0
  4  6  1  0  0  0  0
  5  6  2  0  0  0  0
  6  3  1  0  0  0  0
  7  3  1  0  0  0  0
  8 13  1  0  0  0  0
  8 10  1  0  0  0  0
  9  8  2  0  0  0  0
 11 12  1  0  0  0  0
 12  5  1  0  0  0  0
 12 13  2  0  0  0  0
 14 11  2  0  0  0  0
 14  9  1  0  0  0  0
 15 19  2  0  0  0  0
 16 17  2  0  0  0  0
 16 10  1  0  0  0  0
 17 19  1  0  0  0  0
 18 17  1  0  0  0  0
 20 15  1  0  0  0  0
 21 18  1  0  0  0  0
 21 20  1  0  0  0  0
 23 24  1  0  0  0  0
 23 22  2  0  0  0  0
 24 26  1  0  0  0  0
 26 25  1  6  0  0  0
 26 27  1  0  0  0  0
 27 28  1  0  0  0  0
 29 31  2  0  0  0  0
 30 34  1  1  0  0  0
 30 32  1  0  0  0  0
 31 32  1  0  0  0  0
 33 28  1  6  0  0  0
 33 30  1  0  0  0  0
 35 33  1  0  0  0  0
 35 31  1  0  0  0  0
 36  2  1  0  0  0  0
 36 37  1  0  0  0  0
 37 38  1  6  0  0  0
 37 43  1  0  0  0  0
 39 38  1  0  0  0  0
 39 40  1  0  0  0  0
 42 40  1  0  0  0  0
 42 41  1  0  0  0  0
 43 44  1  0  0  0  0
 44 45  2  0  0  0  0
 44 47  1  0  0  0  0
 46 47  1  0  0  0  0
M  END
>  <MODEL>
2

>  <REMARK>
 VINA RESULT:      -7.1      1.051      2.648
  Name = 
  16 active torsions:
  status: ('A' for Active; 'I' for Inactive)
    1  A    between atoms: C_1  and  O_15
    2  A    between atoms: C_1  and  C_32
    3  A    between atoms: C_3  and  C_10
    4  A    between atoms: C_3  and  C_41
    5  A    between atoms: N_5  and  N_26
    6  A    between atoms: C_6  and  C_14
    7  A    between atoms: C_6  and  C_22
    8  A    between atoms: C_10  and  O_15
    9  A    between atoms: C_10  and  C_33
   10  A    between atoms: N_12  and  C_33
   11  A    between atoms: C_14  and  C_38
   12  A    between atoms: C_16  and  C_23
   13  A    between atoms: C_18  and  C_41
   14  A    between atoms: C_18  and  C_47
   15  A    between atoms: C_22  and  N_25
   16  A    between atoms: N_34  and  C_37
                            x       y       z     vdW  Elec       q    Type
                         _______ _______ _______ _____ _____    ______ ____

>  <TORSDO>
F 16

$$$$
=
 OpenBabel10222421403D

 47 50  0  0  1  0  0  0  0  0999 V2000
  188.6400  177.0440  137.7140 C   0  0  0  0  0  0  0  0  0  0  0  0
  187.4110  176.9680  136.9880 N   0  0  0  0  0  2  0  0  0  0  0  0
  190.1600  177.9120  139.2460 C   0  0  1  0  0  3  0  0  0  0  0  0
  189.9240  175.8260  137.4760 S   0  0  0  0  0  0  0  0  0  0  0  0
  192.2450  176.8810  138.5470 N   0  0  0  0  0  0  0  0  0  0  0  0
  190.9460  176.9220  138.4570 C   0  0  0  0  0  0  0  0  0  0  0  0
  188.8720  177.9890  138.5690 N   0  0  0  0  0  0  0  0  0  0  0  0
  194.7670  174.1720  137.9010 C   0  0  0  0  0  0  0  0  0  0  0  0
  195.0060  174.3890  136.5780 N   0  0  0  0  0  0  0  0  0  0  0  0
  195.4520  173.1350  138.6010 N   0  0  0  0  0  2  0  0  0  0  0  0
  193.4310  176.1780  136.5390 C   0  0  0  0  0  3  0  0  0  0  0  0
  193.1760  175.9940  137.9020 C   0  0  0  0  0  0  0  0  0  0  0  0
  193.8470  174.9720  138.5830 C   0  0  0  0  0  3  0  0  0  0  0  0
  194.3590  175.3620  135.8880 C   0  0  0  0  0  3  0  0  0  0  0  0
  194.8620  169.1320  137.8590 C   0  0  0  0  0  3  0  0  0  0  0  0
  196.4580  172.3820  137.9760 N   0  0  0  0  0  0  0  0  0  0  0  0
  196.2790  171.1430  137.6390 C   0  0  0  0  0  0  0  0  0  0  0  0
  197.6440  170.2430  136.8960 S   0  0  0  0  0  0  0  0  0  0  0  0
  194.9930  170.4610  137.8920 C   0  0  0  0  0  3  0  0  0  0  0  0
  195.9920  168.1910  137.5400 C   0  0  0  0  0  2  0  0  0  0  0  0
  197.3430  168.7790  137.9280 C   0  0  0  0  0  2  0  0  0  0  0  0
  188.9590  176.7030  140.9210 O   0  0  0  0  0  0  0  0  0  0  0  0
  189.9870  177.3740  140.6380 C   0  0  0  0  0  0  0  0  0  0  0  0
  190.9200  177.7120  141.6680 N   0  0  0  0  0  2  0  0  0  0  0  0
  191.4890  178.8670  143.7090 C   0  0  0  0  0  1  0  0  0  0  0  0
  190.4740  177.9770  143.0240 C   0  0  2  0  0  3  0  0  0  0  0  0
  190.3620  176.6700  143.7880 C   0  0  0  0  0  2  0  0  0  0  0  0
  188.9410  176.5220  144.3260 C   0  0  0  0  0  2  0  0  0  0  0  0
  185.3010  178.1220  146.6070 C   0  0  0  0  0  2  0  0  0  0  0  0
  188.6380  177.0100  146.7880 C   0  0  1  0  0  3  0  0  0  0  0  0
  186.5920  178.4040  146.4740 C   0  0  0  0  0  0  0  0  0  0  0  0
  187.6850  178.1260  147.8580 S   0  0  0  0  0  0  0  0  0  0  0  0
  188.5910  177.5830  145.3750 C   0  0  2  0  0  3  0  0  0  0  0  0
  190.0150  176.9460  147.2480 N   0  0  0  0  0  1  0  0  0  0  0  0
  187.2180  178.2070  145.1380 C   0  0  0  0  0  2  0  0  0  0  0  0
  186.4470  178.0590  136.9330 C   0  0  0  0  0  2  0  0  0  0  0  0
  185.2120  177.7280  137.7680 C   0  0  1  0  0  3  0  0  0  0  0  0
  184.6560  176.3400  137.4380 C   0  0  0  0  0  2  0  0  0  0  0  0
  183.1280  176.2860  137.4340 C   0  0  0  0  0  2  0  0  0  0  0  0
  182.5980  176.4170  138.8550 C   0  0  0  0  0  2  0  0  0  0  0  0
  180.5900  176.8690  140.0580 O   0  0  0  0  0  1  0  0  0  0  0  0
  181.0850  176.3220  138.8730 C   0  0  0  0  0  2  0  0  0  0  0  0
  185.5120  177.8280  139.1580 O   0  0  0  0  0  0  0  0  0  0  0  0
  185.1590  178.9410  139.9290 C   0  0  0  0  0  0  0  0  0  0  0  0
  184.4110  179.8770  139.4440 N   0  0  0  0  0  2  0  0  0  0  0  0
  184.4950  179.0420  142.1900 O   0  0  0  0  0  1  0  0  0  0  0  0
  185.6060  179.0240  141.3480 C   0  0  0  0  0  2  0  0  0  0  0  0
  1  7  2  0  0  0  0
  2  1  1  0  0  0  0
  3 23  1  1  0  0  0
  4  1  1  0  0  0  0
  4  6  1  0  0  0  0
  6  5  2  0  0  0  0
  6  3  1  0  0  0  0
  7  3  1  0  0  0  0
  8 13  1  0  0  0  0
  8 10  1  0  0  0  0
  9  8  2  0  0  0  0
 11 12  1  0  0  0  0
 12  5  1  0  0  0  0
 12 13  2  0  0  0  0
 14 11  2  0  0  0  0
 14  9  1  0  0  0  0
 15 19  2  0  0  0  0
 16 10  1  0  0  0  0
 17 19  1  0  0  0  0
 17 16  2  0  0  0  0
 18 17  1  0  0  0  0
 18 21  1  0  0  0  0
 20 15  1  0  0  0  0
 20 21  1  0  0  0  0
 23 22  2  0  0  0  0
 23 24  1  0  0  0  0
 24 26  1  0  0  0  0
 26 25  1  1  0  0  0
 26 27  1  0  0  0  0
 27 28  1  0  0  0  0
 30 34  1  1  0  0  0
 30 32  1  0  0  0  0
 31 29  2  0  0  0  0
 31 32  1  0  0  0  0
 33 28  1  6  0  0  0
 33 30  1  0  0  0  0
 35 33  1  0  0  0  0
 35 31  1  0  0  0  0
 36  2  1  0  0  0  0
 37 36  1  6  0  0  0
 37 43  1  0  0  0  0
 38 37  1  0  0  0  0
 39 38  1  0  0  0  0
 39 40  1  0  0  0  0
 40 42  1  0  0  0  0
 42 41  1  0  0  0  0
 43 44  1  0  0  0  0
 44 47  1  0  0  0  0
 45 44  2  0  0  0  0
 47 46  1  0  0  0  0
M  END
>  <MODEL>
3

>  <REMARK>
 VINA RESULT:      -6.9      2.070      3.231
  Name = 
  16 active torsions:
  status: ('A' for Active; 'I' for Inactive)
    1  A    between atoms: C_1  and  O_15
    2  A    between atoms: C_1  and  C_32
    3  A    between atoms: C_3  and  C_10
    4  A    between atoms: C_3  and  C_41
    5  A    between atoms: N_5  and  N_26
    6  A    between atoms: C_6  and  C_14
    7  A    between atoms: C_6  and  C_22
    8  A    between atoms: C_10  and  O_15
    9  A    between atoms: C_10  and  C_33
   10  A    between atoms: N_12  and  C_33
   11  A    between atoms: C_14  and  C_38
   12  A    between atoms: C_16  and  C_23
   13  A    between atoms: C_18  and  C_41
   14  A    between atoms: C_18  and  C_47
   15  A    between atoms: C_22  and  N_25
   16  A    between atoms: N_34  and  C_37
                            x       y       z     vdW  Elec       q    Type
                         _______ _______ _______ _____ _____    ______ ____

>  <TORSDO>
F 16

$$$$
=
 OpenBabel10222421403D

 47 50  0  0  1  0  0  0  0  0999 V2000
  188.8260  176.5860  138.0840 C   0  0  0  0  0  0  0  0  0  0  0  0
  187.5470  176.3610  137.4840 N   0  0  0  0  0  2  0  0  0  0  0  0
  190.3930  177.6720  139.4160 C   0  0  1  0  0  3  0  0  0  0  0  0
  190.1900  175.4740  137.7820 S   0  0  0  0  0  0  0  0  0  0  0  0
  192.4920  176.7890  138.5700 N   0  0  0  0  0  0  0  0  0  0  0  0
  191.1920  176.7110  138.6050 C   0  0  0  0  0  0  0  0  0  0  0  0
  189.0470  177.5970  138.8640 N   0  0  0  0  0  0  0  0  0  0  0  0
  195.0480  174.1480  137.7890 C   0  0  0  0  0  0  0  0  0  0  0  0
  195.2960  174.4460  136.4830 N   0  0  0  0  0  0  0  0  0  0  0  0
  195.7370  173.0780  138.4320 N   0  0  0  0  0  2  0  0  0  0  0  0
  193.7030  176.2190  136.5350 C   0  0  0  0  0  3  0  0  0  0  0  0
  193.4380  175.9510  137.8820 C   0  0  0  0  0  0  0  0  0  0  0  0
  194.1130  174.8970  138.5080 C   0  0  0  0  0  3  0  0  0  0  0  0
  194.6450  175.4520  135.8460 C   0  0  0  0  0  3  0  0  0  0  0  0
  195.3930  169.0180  137.8660 C   0  0  0  0  0  3  0  0  0  0  0  0
  196.7550  172.3730  137.7740 N   0  0  0  0  0  0  0  0  0  0  0  0
  196.6470  171.1130  137.4900 C   0  0  0  0  0  0  0  0  0  0  0  0
  198.0270  170.2820  136.6970 S   0  0  0  0  0  0  0  0  0  0  0  0
  195.4300  170.3530  137.8450 C   0  0  0  0  0  3  0  0  0  0  0  0
  196.5680  168.1460  137.5110 C   0  0  0  0  0  2  0  0  0  0  0  0
  197.8930  168.8420  137.7950 C   0  0  0  0  0  2  0  0  0  0  0  0
  190.5040  175.9730  141.0920 O   0  0  0  0  0  0  0  0  0  0  0  0
  190.3990  177.2030  140.8430 C   0  0  0  0  0  0  0  0  0  0  0  0
  190.1760  178.1270  141.9110 N   0  0  0  0  0  2  0  0  0  0  0  0
  190.2430  176.9380  144.0110 C   0  0  0  0  0  1  0  0  0  0  0  0
  189.3830  177.7550  143.0690 C   0  0  2  0  0  3  0  0  0  0  0  0
  188.1960  176.9200  142.6270 C   0  0  0  0  0  2  0  0  0  0  0  0
  187.3240  176.6020  143.8400 C   0  0  0  0  0  2  0  0  0  0  0  0
  183.5020  178.8740  144.9560 C   0  0  0  0  0  2  0  0  0  0  0  0
  186.5700  177.5440  146.0610 C   0  0  1  0  0  3  0  0  0  0  0  0
  184.8160  179.0220  145.0770 C   0  0  0  0  0  0  0  0  0  0  0  0
  185.5530  178.9070  146.6990 S   0  0  0  0  0  0  0  0  0  0  0  0
  186.8900  177.8580  144.6030 C   0  0  2  0  0  3  0  0  0  0  0  0
  187.8020  177.4520  146.8260 N   0  0  0  0  0  1  0  0  0  0  0  0
  185.6810  178.5390  143.9660 C   0  0  0  0  0  2  0  0  0  0  0  0
  186.4850  177.3580  137.4700 C   0  0  0  0  0  2  0  0  0  0  0  0
  185.1310  176.6970  137.2250 C   0  0  1  0  0  3  0  0  0  0  0  0
  185.2670  175.1930  136.9750 C   0  0  0  0  0  2  0  0  0  0  0  0
  183.9340  174.4470  137.0410 C   0  0  0  0  0  2  0  0  0  0  0  0
  184.1780  172.9630  137.2800 C   0  0  0  0  0  2  0  0  0  0  0  0
  182.8790  172.1390  135.4600 O   0  0  0  0  0  1  0  0  0  0  0  0
  184.1770  172.2020  135.9690 C   0  0  0  0  0  2  0  0  0  0  0  0
  184.2540  176.9450  138.3220 O   0  0  0  0  0  0  0  0  0  0  0  0
  183.4940  178.1140  138.4330 C   0  0  0  0  0  0  0  0  0  0  0  0
  182.5270  178.3610  137.6100 N   0  0  0  0  0  2  0  0  0  0  0  0
  184.4150  180.1950  139.0510 O   0  0  0  0  0  1  0  0  0  0  0  0
  183.7650  179.0640  139.5470 C   0  0  0  0  0  2  0  0  0  0  0  0
  1  7  2  0  0  0  0
  2  1  1  0  0  0  0
  3 23  1  1  0  0  0
  4  1  1  0  0  0  0
  4  6  1  0  0  0  0
  5  6  2  0  0  0  0
  6  3  1  0  0  0  0
  7  3  1  0  0  0  0
  8 10  1  0  0  0  0
  8 13  1  0  0  0  0
  9  8  2  0  0  0  0
 11 12  1  0  0  0  0
 12 13  2  0  0  0  0
 12  5  1  0  0  0  0
 14  9  1  0  0  0  0
 14 11  2  0  0  0  0
 16 10  1  0  0  0  0
 17 16  2  0  0  0  0
 17 19  1  0  0  0  0
 18 17  1  0  0  0  0
 18 21  1  0  0  0  0
 19 15  2  0  0  0  0
 20 21  1  0  0  0  0
 20 15  1  0  0  0  0
 23 22  2  0  0  0  0
 23 24  1  0  0  0  0
 24 26  1  0  0  0  0
 26 25  1  1  0  0  0
 27 26  1  0  0  0  0
 27 28  1  0  0  0  0
 29 31  2  0  0  0  0
 30 32  1  0  0  0  0
 30 34  1  1  0  0  0
 31 32  1  0  0  0  0
 33 28  1  6  0  0  0
 33 30  1  0  0  0  0
 35 33  1  0  0  0  0
 35 31  1  0  0  0  0
 36  2  1  0  0  0  0
 37 38  1  1  0  0  0
 37 36  1  0  0  0  0
 37 43  1  0  0  0  0
 38 39  1  0  0  0  0
 39 40  1  0  0  0  0
 41 42  1  0  0  0  0
 42 40  1  0  0  0  0
 43 44  1  0  0  0  0
 44 47  1  0  0  0  0
 45 44  2  0  0  0  0
 46 47  1  0  0  0  0
M  END
>  <MODEL>
4

>  <REMARK>
 VINA RESULT:      -6.9      2.429      3.911
  Name = 
  16 active torsions:
  status: ('A' for Active; 'I' for Inactive)
    1  A    between atoms: C_1  and  O_15
    2  A    between atoms: C_1  and  C_32
    3  A    between atoms: C_3  and  C_10
    4  A    between atoms: C_3  and  C_41
    5  A    between atoms: N_5  and  N_26
    6  A    between atoms: C_6  and  C_14
    7  A    between atoms: C_6  and  C_22
    8  A    between atoms: C_10  and  O_15
    9  A    between atoms: C_10  and  C_33
   10  A    between atoms: N_12  and  C_33
   11  A    between atoms: C_14  and  C_38
   12  A    between atoms: C_16  and  C_23
   13  A    between atoms: C_18  and  C_41
   14  A    between atoms: C_18  and  C_47
   15  A    between atoms: C_22  and  N_25
   16  A    between atoms: N_34  and  C_37
                            x       y       z     vdW  Elec       q    Type
                         _______ _______ _______ _____ _____    ______ ____

>  <TORSDO>
F 16

$$$$
=
 OpenBabel10222421403D

 47 50  0  0  1  0  0  0  0  0999 V2000
  186.2300  176.3650  136.8550 C   0  0  0  0  0  0  0  0  0  0  0  0
  184.8950  175.8660  136.9820 N   0  0  0  0  0  2  0  0  0  0  0  0
  187.8820  177.9580  136.4790 C   0  0  1  0  0  3  0  0  0  0  0  0
  187.6370  175.3000  137.1230 S   0  0  0  0  0  0  0  0  0  0  0  0
  189.8370  176.5830  136.0440 N   0  0  0  0  0  0  0  0  0  0  0  0
  188.6060  176.6560  136.4660 C   0  0  0  0  0  0  0  0  0  0  0  0
  186.4710  177.5990  136.5440 N   0  0  0  0  0  0  0  0  0  0  0  0
  192.6030  174.1360  136.7300 C   0  0  0  0  0  0  0  0  0  0  0  0
  192.3860  173.2520  135.7170 N   0  0  0  0  0  0  0  0  0  0  0  0
  193.6800  173.9410  137.6450 N   0  0  0  0  0  2  0  0  0  0  0  0
  190.5060  174.5070  134.9610 C   0  0  0  0  0  3  0  0  0  0  0  0
  190.7130  175.4440  135.9780 C   0  0  0  0  0  0  0  0  0  0  0  0
  191.7670  175.2460  136.8760 C   0  0  0  0  0  3  0  0  0  0  0  0
  191.3620  173.4100  134.8420 C   0  0  0  0  0  3  0  0  0  0  0  0
  197.5850  174.7890  136.6670 C   0  0  0  0  0  3  0  0  0  0  0  0
  194.6000  172.8970  137.4670 N   0  0  0  0  0  0  0  0  0  0  0  0
  195.8600  173.1200  137.2510 C   0  0  0  0  0  0  0  0  0  0  0  0
  196.9520  171.7220  136.9780 S   0  0  0  0  0  0  0  0  0  0  0  0
  196.3900  174.4980  137.1890 C   0  0  0  0  0  3  0  0  0  0  0  0
  198.5250  173.7530  136.1090 C   0  0  0  0  0  2  0  0  0  0  0  0
  197.7740  172.5370  135.5790 C   0  0  0  0  0  2  0  0  0  0  0  0
  188.9920  179.7470  137.6080 O   0  0  0  0  0  0  0  0  0  0  0  0
  188.2860  178.7100  137.7150 C   0  0  0  0  0  0  0  0  0  0  0  0
  187.9720  178.1960  139.0120 N   0  0  0  0  0  2  0  0  0  0  0  0
  189.8840  177.1460  140.0450 C   0  0  0  0  0  1  0  0  0  0  0  0
  188.9150  178.3070  140.1100 C   0  0  2  0  0  3  0  0  0  0  0  0
  188.1680  178.2600  141.4300 C   0  0  0  0  0  2  0  0  0  0  0  0
  188.7440  177.1410  142.2950 C   0  0  0  0  0  2  0  0  0  0  0  0
  188.9040  176.9110  146.8710 C   0  0  0  0  0  2  0  0  0  0  0  0
  190.6910  176.6920  143.8430 C   0  0  1  0  0  3  0  0  0  0  0  0
  189.5350  177.5400  145.8860 C   0  0  0  0  0  0  0  0  0  0  0  0
  191.2300  177.1080  145.5270 S   0  0  0  0  0  0  0  0  0  0  0  0
  189.5830  177.6690  143.4650 C   0  0  2  0  0  3  0  0  0  0  0  0
  191.8070  176.8320  142.9230 N   0  0  0  0  0  1  0  0  0  0  0  0
  188.7370  177.9630  144.7020 C   0  0  0  0  0  2  0  0  0  0  0  0
  183.7220  176.5970  136.5210 C   0  0  0  0  0  2  0  0  0  0  0  0
  182.8810  177.0660  137.7060 C   0  0  1  0  0  3  0  0  0  0  0  0
  182.9640  176.0930  138.8850 C   0  0  0  0  0  2  0  0  0  0  0  0
  181.6080  175.5100  139.2830 C   0  0  0  0  0  2  0  0  0  0  0  0
  180.5400  175.9450  138.2890 C   0  0  0  0  0  2  0  0  0  0  0  0
  181.0060  173.8260  137.3020 O   0  0  0  0  0  1  0  0  0  0  0  0
  179.9860  174.7480  137.5420 C   0  0  0  0  0  2  0  0  0  0  0  0
  183.2790  178.3750  138.1080 O   0  0  0  0  0  0  0  0  0  0  0  0
  182.8560  178.9590  139.3060 C   0  0  0  0  0  0  0  0  0  0  0  0
  181.6320  179.3480  139.4620 N   0  0  0  0  0  2  0  0  0  0  0  0
  185.0330  179.5760  139.9700 O   0  0  0  0  0  1  0  0  0  0  0  0
  183.8130  179.0890  140.4400 C   0  0  0  0  0  2  0  0  0  0  0  0
  1  2  1  0  0  0  0
  1  4  1  0  0  0  0
  3  7  1  0  0  0  0
  3 23  1  1  0  0  0
  5  6  2  0  0  0  0
  6  3  1  0  0  0  0
  6  4  1  0  0  0  0
  7  1  2  0  0  0  0
  8 13  1  0  0  0  0
  8 10  1  0  0  0  0
  9  8  2  0  0  0  0
 11 12  1  0  0  0  0
 12  5  1  0  0  0  0
 12 13  2  0  0  0  0
 14 11  2  0  0  0  0
 14  9  1  0  0  0  0
 15 19  2  0  0  0  0
 16 10  1  0  0  0  0
 17 16  2  0  0  0  0
 18 17  1  0  0  0  0
 19 17  1  0  0  0  0
 20 15  1  0  0  0  0
 21 20  1  0  0  0  0
 21 18  1  0  0  0  0
 22 23  2  0  0  0  0
 23 24  1  0  0  0  0
 24 26  1  0  0  0  0
 26 25  1  1  0  0  0
 26 27  1  0  0  0  0
 27 28  1  0  0  0  0
 30 34  1  6  0  0  0
 30 32  1  0  0  0  0
 31 29  2  0  0  0  0
 32 31  1  0  0  0  0
 33 28  1  6  0  0  0
 33 30  1  0  0  0  0
 33 35  1  0  0  0  0
 35 31  1  0  0  0  0
 36  2  1  0  0  0  0
 37 36  1  6  0  0  0
 37 43  1  0  0  0  0
 37 38  1  0  0  0  0
 38 39  1  0  0  0  0
 40 39  1  0  0  0  0
 41 42  1  0  0  0  0
 42 40  1  0  0  0  0
 43 44  1  0  0  0  0
 44 45  2  0  0  0  0
 44 47  1  0  0  0  0
 46 47  1  0  0  0  0
M  END
>  <MODEL>
5

>  <REMARK>
 VINA RESULT:      -6.7      1.829      3.088
  Name = 
  16 active torsions:
  status: ('A' for Active; 'I' for Inactive)
    1  A    between atoms: C_1  and  O_15
    2  A    between atoms: C_1  and  C_32
    3  A    between atoms: C_3  and  C_10
    4  A    between atoms: C_3  and  C_41
    5  A    between atoms: N_5  and  N_26
    6  A    between atoms: C_6  and  C_14
    7  A    between atoms: C_6  and  C_22
    8  A    between atoms: C_10  and  O_15
    9  A    between atoms: C_10  and  C_33
   10  A    between atoms: N_12  and  C_33
   11  A    between atoms: C_14  and  C_38
   12  A    between atoms: C_16  and  C_23
   13  A    between atoms: C_18  and  C_41
   14  A    between atoms: C_18  and  C_47
   15  A    between atoms: C_22  and  N_25
   16  A    between atoms: N_34  and  C_37
                            x       y       z     vdW  Elec       q    Type
                         _______ _______ _______ _____ _____    ______ ____

>  <TORSDO>
F 16

$$$$
=
 OpenBabel10222421403D

 47 50  0  0  1  0  0  0  0  0999 V2000
  189.9510  177.2630  140.8890 C   0  0  0  0  0  0  0  0  0  0  0  0
  189.8800  177.6380  142.2680 N   0  0  0  0  0  2  0  0  0  0  0  0
  189.1510  176.4840  138.8500 C   0  0  1  0  0  3  0  0  0  0  0  0
  191.4730  177.4270  139.9700 S   0  0  0  0  0  0  0  0  0  0  0  0
  191.1980  175.9070  137.6760 N   0  0  0  0  0  0  0  0  0  0  0  0
  190.6320  176.4980  138.6910 C   0  0  0  0  0  0  0  0  0  0  0  0
  188.9240  176.7940  140.2550 N   0  0  0  0  0  0  0  0  0  0  0  0
  194.8910  175.2240  137.7690 C   0  0  0  0  0  0  0  0  0  0  0  0
  195.2620  175.8010  136.5930 N   0  0  0  0  0  0  0  0  0  0  0  0
  195.8630  174.6150  138.6170 N   0  0  0  0  0  2  0  0  0  0  0  0
  193.0040  176.3970  136.1170 C   0  0  0  0  0  3  0  0  0  0  0  0
  192.5910  175.8300  137.3270 C   0  0  0  0  0  0  0  0  0  0  0  0
  193.5480  175.2290  138.1530 C   0  0  0  0  0  3  0  0  0  0  0  0
  194.3550  176.3770  135.7640 C   0  0  0  0  0  3  0  0  0  0  0  0
  197.7080  171.4610  136.7260 C   0  0  0  0  0  3  0  0  0  0  0  0
  197.2310  174.6820  138.3140 N   0  0  0  0  0  0  0  0  0  0  0  0
  197.8320  173.7540  137.6370 C   0  0  0  0  0  0  0  0  0  0  0  0
  199.5980  173.8990  137.3480 S   0  0  0  0  0  0  0  0  0  0  0  0
  197.0950  172.5730  137.1410 C   0  0  0  0  0  3  0  0  0  0  0  0
  199.2040  171.2970  136.6960 C   0  0  0  0  0  2  0  0  0  0  0  0
  199.8880  172.1530  137.7550 C   0  0  0  0  0  2  0  0  0  0  0  0
  188.7240  178.7700  138.3010 O   0  0  0  0  0  0  0  0  0  0  0  0
  188.5730  177.5620  137.9770 C   0  0  0  0  0  0  0  0  0  0  0  0
  187.7620  177.2250  136.8490 N   0  0  0  0  0  2  0  0  0  0  0  0
  185.7360  178.1820  137.7440 C   0  0  0  0  0  1  0  0  0  0  0  0
  186.5910  178.0120  136.5070 C   0  0  2  0  0  3  0  0  0  0  0  0
  185.7870  177.2910  135.4400 C   0  0  0  0  0  2  0  0  0  0  0  0
  184.4970  176.7550  136.0570 C   0  0  0  0  0  2  0  0  0  0  0  0
  187.1610  173.0780  136.6830 C   0  0  0  0  0  2  0  0  0  0  0  0
  184.0850  174.6440  137.3840 C   0  0  1  0  0  3  0  0  0  0  0  0
  185.9210  173.3510  136.2950 C   0  0  0  0  0  0  0  0  0  0  0  0
  184.5610  172.8910  137.3560 S   0  0  0  0  0  0  0  0  0  0  0  0
  184.4100  175.2260  136.0120 C   0  0  2  0  0  3  0  0  0  0  0  0
  182.6600  174.7610  137.6440 N   0  0  0  0  0  1  0  0  0  0  0  0
  185.6940  174.5840  135.4920 C   0  0  0  0  0  2  0  0  0  0  0  0
  188.7650  177.2840  143.1360 C   0  0  0  0  0  2  0  0  0  0  0  0
  189.1430  177.4760  144.6020 C   0  0  1  0  0  3  0  0  0  0  0  0
  187.9280  177.3530  145.5250 C   0  0  0  0  0  2  0  0  0  0  0  0
  186.6060  177.6770  144.8280 C   0  0  0  0  0  2  0  0  0  0  0  0
  185.7690  178.6050  145.6990 C   0  0  0  0  0  2  0  0  0  0  0  0
  184.5810  178.9820  143.6680 O   0  0  0  0  0  1  0  0  0  0  0  0
  184.4270  178.8810  145.0510 C   0  0  0  0  0  2  0  0  0  0  0  0
  190.1540  176.5440  144.9790 O   0  0  0  0  0  0  0  0  0  0  0  0
  191.3760  176.9370  145.5350 C   0  0  0  0  0  0  0  0  0  0  0  0
  191.9810  178.0040  145.1250 N   0  0  0  0  0  2  0  0  0  0  0  0
  191.9650  176.9070  147.8180 O   0  0  0  0  0  1  0  0  0  0  0  0
  191.9660  176.1450  146.6500 C   0  0  0  0  0  2  0  0  0  0  0  0
  1  2  1  0  0  0  0
  2 36  1  0  0  0  0
  3 23  1  6  0  0  0
  3  7  1  0  0  0  0
  4  1  1  0  0  0  0
  5  6  2  0  0  0  0
  6  3  1  0  0  0  0
  6  4  1  0  0  0  0
  7  1  2  0  0  0  0
  8 13  1  0  0  0  0
  8 10  1  0  0  0  0
  9  8  2  0  0  0  0
 11 12  1  0  0  0  0
 12  5  1  0  0  0  0
 12 13  2  0  0  0  0
 14 11  2  0  0  0  0
 14  9  1  0  0  0  0
 15 19  2  0  0  0  0
 16 10  1  0  0  0  0
 17 16  2  0  0  0  0
 18 17  1  0  0  0  0
 18 21  1  0  0  0  0
 19 17  1  0  0  0  0
 20 15  1  0  0  0  0
 20 21  1  0  0  0  0
 23 22  2  0  0  0  0
 24 23  1  0  0  0  0
 26 24  1  0  0  0  0
 26 25  1  1  0  0  0
 27 28  1  0  0  0  0
 27 26  1  0  0  0  0
 30 34  1  6  0  0  0
 31 29  2  0  0  0  0
 31 32  1  0  0  0  0
 32 30  1  0  0  0  0
 33 28  1  1  0  0  0
 33 30  1  0  0  0  0
 35 33  1  0  0  0  0
 35 31  1  0  0  0  0
 37 36  1  6  0  0  0
 37 43  1  0  0  0  0
 37 38  1  0  0  0  0
 39 38  1  0  0  0  0
 39 40  1  0  0  0  0
 41 42  1  0  0  0  0
 42 40  1  0  0  0  0
 43 44  1  0  0  0  0
 44 47  1  0  0  0  0
 45 44  2  0  0  0  0
 47 46  1  0  0  0  0
M  END
>  <MODEL>
6

>  <REMARK>
 VINA RESULT:      -6.6      2.639      7.207
  Name = 
  16 active torsions:
  status: ('A' for Active; 'I' for Inactive)
    1  A    between atoms: C_1  and  O_15
    2  A    between atoms: C_1  and  C_32
    3  A    between atoms: C_3  and  C_10
    4  A    between atoms: C_3  and  C_41
    5  A    between atoms: N_5  and  N_26
    6  A    between atoms: C_6  and  C_14
    7  A    between atoms: C_6  and  C_22
    8  A    between atoms: C_10  and  O_15
    9  A    between atoms: C_10  and  C_33
   10  A    between atoms: N_12  and  C_33
   11  A    between atoms: C_14  and  C_38
   12  A    between atoms: C_16  and  C_23
   13  A    between atoms: C_18  and  C_41
   14  A    between atoms: C_18  and  C_47
   15  A    between atoms: C_22  and  N_25
   16  A    between atoms: N_34  and  C_37
                            x       y       z     vdW  Elec       q    Type
                         _______ _______ _______ _____ _____    ______ ____

>  <TORSDO>
F 16

$$$$
=
 OpenBabel10222421403D

 47 50  0  0  1  0  0  0  0  0999 V2000
  187.8040  176.1380  137.3540 C   0  0  0  0  0  0  0  0  0  0  0  0
  186.5840  175.6610  136.7790 N   0  0  0  0  0  2  0  0  0  0  0  0
  189.1760  177.6030  138.5300 C   0  0  1  0  0  3  0  0  0  0  0  0
  189.3080  175.1840  137.2360 S   0  0  0  0  0  0  0  0  0  0  0  0
  191.3960  176.8910  137.8490 N   0  0  0  0  0  0  0  0  0  0  0  0
  190.1170  176.6480  137.8790 C   0  0  0  0  0  0  0  0  0  0  0  0
  187.8680  177.2710  137.9790 N   0  0  0  0  0  0  0  0  0  0  0  0
  194.3220  174.5610  137.5020 C   0  0  0  0  0  0  0  0  0  0  0  0
  194.5400  174.6600  136.1610 N   0  0  0  0  0  0  0  0  0  0  0  0
  195.1540  173.7330  138.3120 N   0  0  0  0  0  2  0  0  0  0  0  0
  192.7020  176.1600  135.9270 C   0  0  0  0  0  3  0  0  0  0  0  0
  192.4640  176.0950  137.3040 C   0  0  0  0  0  0  0  0  0  0  0  0
  193.2790  175.2770  138.0940 C   0  0  0  0  0  3  0  0  0  0  0  0
  193.7550  175.4320  135.3680 C   0  0  0  0  0  3  0  0  0  0  0  0
  194.9830  169.7110  137.4620 C   0  0  0  0  0  3  0  0  0  0  0  0
  196.2740  173.0820  137.7720 N   0  0  0  0  0  0  0  0  0  0  0  0
  196.2340  171.8400  137.4010 C   0  0  0  0  0  0  0  0  0  0  0  0
  197.7330  171.0760  136.7740 S   0  0  0  0  0  0  0  0  0  0  0  0
  194.9950  171.0460  137.5260 C   0  0  0  0  0  3  0  0  0  0  0  0
  196.2150  168.8770  137.2340 C   0  0  0  0  0  2  0  0  0  0  0  0
  197.4690  169.5690  137.7530 C   0  0  0  0  0  2  0  0  0  0  0  0
  188.2220  177.7170  140.7170 O   0  0  0  0  0  0  0  0  0  0  0  0
  189.1980  177.3500  140.0110 C   0  0  0  0  0  0  0  0  0  0  0  0
  190.3600  176.8010  140.6360 N   0  0  0  0  0  2  0  0  0  0  0  0
  192.3120  177.3380  141.9500 C   0  0  0  0  0  1  0  0  0  0  0  0
  190.8000  177.2650  141.9390 C   0  0  2  0  0  3  0  0  0  0  0  0
  190.3390  176.2910  143.0090 C   0  0  0  0  0  2  0  0  0  0  0  0
  191.1530  176.5180  144.2800 C   0  0  0  0  0  2  0  0  0  0  0  0
  186.9430  177.3200  145.9080 C   0  0  0  0  0  2  0  0  0  0  0  0
  190.3410  176.7770  146.6600 C   0  0  1  0  0  3  0  0  0  0  0  0
  188.1660  177.8240  146.0260 C   0  0  0  0  0  0  0  0  0  0  0  0
  189.0320  177.6410  147.5760 S   0  0  0  0  0  0  0  0  0  0  0  0
  190.4410  177.4300  145.2850 C   0  0  2  0  0  3  0  0  0  0  0  0
  191.6050  176.9160  147.3640 N   0  0  0  0  0  1  0  0  0  0  0  0
  189.0420  177.8270  144.8210 C   0  0  0  0  0  2  0  0  0  0  0  0
  185.4040  176.4970  136.6040 C   0  0  0  0  0  2  0  0  0  0  0  0
  184.2240  175.9320  137.3920 C   0  0  1  0  0  3  0  0  0  0  0  0
  183.7200  176.9180  138.4500 C   0  0  0  0  0  2  0  0  0  0  0  0
  184.3450  178.3090  138.3240 C   0  0  0  0  0  2  0  0  0  0  0  0
  184.9620  178.7260  139.6520 C   0  0  0  0  0  2  0  0  0  0  0  0
  184.1120  178.0370  141.7700 O   0  0  0  0  0  1  0  0  0  0  0  0
  183.8880  178.9120  140.7060 C   0  0  0  0  0  2  0  0  0  0  0  0
  183.1680  175.5650  136.5070 O   0  0  0  0  0  0  0  0  0  0  0  0
  182.5510  174.3100  136.5460 C   0  0  0  0  0  0  0  0  0  0  0  0
  183.2300  173.2280  136.3460 N   0  0  0  0  0  2  0  0  0  0  0  0
  180.9170  174.3960  138.2450 O   0  0  0  0  0  1  0  0  0  0  0  0
  181.1020  174.2130  136.8740 C   0  0  0  0  0  2  0  0  0  0  0  0
  1  7  2  0  0  0  0
  2  1  1  0  0  0  0
  3 23  1  1  0  0  0
  4  1  1  0  0  0  0
  4  6  1  0  0  0  0
  5  6  2  0  0  0  0
  6  3  1  0  0  0  0
  7  3  1  0  0  0  0
  8 13  1  0  0  0  0
  8 10  1  0  0  0  0
  9  8  2  0  0  0  0
 11 12  1  0  0  0  0
 12  5  1  0  0  0  0
 12 13  2  0  0  0  0
 14 11  2  0  0  0  0
 14  9  1  0  0  0  0
 15 19  2  0  0  0  0
 16 10  1  0  0  0  0
 17 19  1  0  0  0  0
 17 16  2  0  0  0  0
 18 17  1  0  0  0  0
 18 21  1  0  0  0  0
 20 15  1  0  0  0  0
 20 21  1  0  0  0  0
 23 24  1  0  0  0  0
 23 22  2  0  0  0  0
 24 26  1  0  0  0  0
 26 25  1  6  0  0  0
 26 27  1  0  0  0  0
 27 28  1  0  0  0  0
 29 31  2  0  0  0  0
 30 34  1  1  0  0  0
 30 32  1  0  0  0  0
 31 32  1  0  0  0  0
 33 28  1  6  0  0  0
 33 30  1  0  0  0  0
 35 33  1  0  0  0  0
 35 31  1  0  0  0  0
 36  2  1  0  0  0  0
 37 36  1  6  0  0  0
 37 38  1  0  0  0  0
 39 38  1  0  0  0  0
 39 40  1  0  0  0  0
 40 42  1  0  0  0  0
 42 41  1  0  0  0  0
 43 44  1  0  0  0  0
 43 37  1  0  0  0  0
 44 47  1  0  0  0  0
 45 44  2  0  0  0  0
 47 46  1  0  0  0  0
M  END
>  <MODEL>
7

>  <REMARK>
 VINA RESULT:      -6.6      1.617      2.065
  Name = 
  16 active torsions:
  status: ('A' for Active; 'I' for Inactive)
    1  A    between atoms: C_1  and  O_15
    2  A    between atoms: C_1  and  C_32
    3  A    between atoms: C_3  and  C_10
    4  A    between atoms: C_3  and  C_41
    5  A    between atoms: N_5  and  N_26
    6  A    between atoms: C_6  and  C_14
    7  A    between atoms: C_6  and  C_22
    8  A    between atoms: C_10  and  O_15
    9  A    between atoms: C_10  and  C_33
   10  A    between atoms: N_12  and  C_33
   11  A    between atoms: C_14  and  C_38
   12  A    between atoms: C_16  and  C_23
   13  A    between atoms: C_18  and  C_41
   14  A    between atoms: C_18  and  C_47
   15  A    between atoms: C_22  and  N_25
   16  A    between atoms: N_34  and  C_37
                            x       y       z     vdW  Elec       q    Type
                         _______ _______ _______ _____ _____    ______ ____

>  <TORSDO>
F 16

$$$$
=
 OpenBabel10222421403D

 47 50  0  0  1  0  0  0  0  0999 V2000
  188.1120  176.2010  136.5040 C   0  0  0  0  0  0  0  0  0  0  0  0
  186.8240  175.7910  136.0350 N   0  0  0  0  0  2  0  0  0  0  0  0
  189.7060  177.6770  137.3340 C   0  0  1  0  0  3  0  0  0  0  0  0
  189.4560  175.0330  136.6340 S   0  0  0  0  0  0  0  0  0  0  0  0
  191.7840  176.5070  136.8710 N   0  0  0  0  0  0  0  0  0  0  0  0
  190.4840  176.4700  136.9350 C   0  0  0  0  0  0  0  0  0  0  0  0
  188.3540  177.4250  136.8530 N   0  0  0  0  0  0  0  0  0  0  0  0
  194.3260  173.7510  137.1170 C   0  0  0  0  0  0  0  0  0  0  0  0
  194.5310  173.5080  135.7920 N   0  0  0  0  0  0  0  0  0  0  0  0
  195.0400  173.0170  138.1090 N   0  0  0  0  0  2  0  0  0  0  0  0
  192.9320  175.1700  135.1900 C   0  0  0  0  0  3  0  0  0  0  0  0
  192.7120  175.4580  136.5400 C   0  0  0  0  0  0  0  0  0  0  0  0
  193.4110  174.7310  137.5100 C   0  0  0  0  0  3  0  0  0  0  0  0
  193.8550  174.1850  134.8310 C   0  0  0  0  0  3  0  0  0  0  0  0
  198.9040  174.3100  137.5420 C   0  0  0  0  0  3  0  0  0  0  0  0
  196.0410  172.1010  137.7510 N   0  0  0  0  0  0  0  0  0  0  0  0
  197.2870  172.4470  137.6540 C   0  0  0  0  0  0  0  0  0  0  0  0
  198.4880  171.2180  137.1330 S   0  0  0  0  0  0  0  0  0  0  0  0
  197.7170  173.8340  137.9260 C   0  0  0  0  0  3  0  0  0  0  0  0
  199.9370  173.4880  136.8170 C   0  0  0  0  0  2  0  0  0  0  0  0
  199.2970  172.3780  135.9930 C   0  0  0  0  0  2  0  0  0  0  0  0
  188.9530  178.5890  139.4100 O   0  0  0  0  0  0  0  0  0  0  0  0
  189.7180  177.7710  138.8340 C   0  0  0  0  0  0  0  0  0  0  0  0
  190.6660  177.0230  139.6000 N   0  0  0  0  0  2  0  0  0  0  0  0
  192.7830  177.3100  140.7220 C   0  0  0  0  0  1  0  0  0  0  0  0
  191.2980  177.5960  140.7740 C   0  0  2  0  0  3  0  0  0  0  0  0
  190.7120  176.9680  142.0260 C   0  0  0  0  0  2  0  0  0  0  0  0
  191.6020  177.3010  143.2200 C   0  0  0  0  0  2  0  0  0  0  0  0
  187.3260  177.2510  144.8700 C   0  0  0  0  0  2  0  0  0  0  0  0
  190.7500  176.7680  145.5400 C   0  0  1  0  0  3  0  0  0  0  0  0
  188.5010  177.7880  145.1750 C   0  0  0  0  0  0  0  0  0  0  0  0
  189.3650  177.2120  146.6280 S   0  0  0  0  0  0  0  0  0  0  0  0
  190.8080  177.8100  144.4280 C   0  0  2  0  0  3  0  0  0  0  0  0
  191.9910  176.7840  146.2950 N   0  0  0  0  0  1  0  0  0  0  0  0
  189.3850  178.2210  144.0580 C   0  0  0  0  0  2  0  0  0  0  0  0
  185.7770  176.7290  135.6540 C   0  0  0  0  0  2  0  0  0  0  0  0
  184.5220  176.5040  136.4940 C   0  0  1  0  0  3  0  0  0  0  0  0
  183.9730  175.0840  136.3290 C   0  0  0  0  0  2  0  0  0  0  0  0
  183.7160  174.3790  137.6610 C   0  0  0  0  0  2  0  0  0  0  0  0
  184.4850  173.0660  137.7130 C   0  0  0  0  0  2  0  0  0  0  0  0
  186.4390  172.4560  136.4940 O   0  0  0  0  0  1  0  0  0  0  0  0
  185.0790  172.7390  136.3580 C   0  0  0  0  0  2  0  0  0  0  0  0
  184.7880  176.7810  137.8660 O   0  0  0  0  0  0  0  0  0  0  0  0
  184.6200  178.0520  138.4280 C   0  0  0  0  0  0  0  0  0  0  0  0
  185.6370  178.8120  138.6730 N   0  0  0  0  0  2  0  0  0  0  0  0
  183.2790  179.9450  138.8530 O   0  0  0  0  0  1  0  0  0  0  0  0
  183.2460  178.5590  138.6990 C   0  0  0  0  0  2  0  0  0  0  0  0
  1  4  1  0  0  0  0
  1  7  2  0  0  0  0
  2  1  1  0  0  0  0
  3 23  1  1  0  0  0
  4  6  1  0  0  0  0
  5  6  2  0  0  0  0
  6  3  1  0  0  0  0
  7  3  1  0  0  0  0
  8 13  1  0  0  0  0
  8 10  1  0  0  0  0
  9  8  2  0  0  0  0
 11 12  1  0  0  0  0
 12  5  1  0  0  0  0
 12 13  2  0  0  0  0
 14 11  2  0  0  0  0
 14  9  1  0  0  0  0
 15 19  2  0  0  0  0
 16 10  1  0  0  0  0
 17 16  2  0  0  0  0
 17 19  1  0  0  0  0
 18 17  1  0  0  0  0
 20 15  1  0  0  0  0
 21 20  1  0  0  0  0
 21 18  1  0  0  0  0
 23 22  2  0  0  0  0
 23 24  1  0  0  0  0
 24 26  1  0  0  0  0
 26 25  1  6  0  0  0
 26 27  1  0  0  0  0
 27 28  1  0  0  0  0
 29 31  2  0  0  0  0
 30 34  1  1  0  0  0
 30 32  1  0  0  0  0
 31 32  1  0  0  0  0
 33 28  1  6  0  0  0
 33 30  1  0  0  0  0
 35 33  1  0  0  0  0
 35 31  1  0  0  0  0
 36  2  1  0  0  0  0
 37 36  1  6  0  0  0
 37 43  1  0  0  0  0
 38 37  1  0  0  0  0
 38 39  1  0  0  0  0
 39 40  1  0  0  0  0
 42 41  1  0  0  0  0
 42 40  1  0  0  0  0
 43 44  1  0  0  0  0
 44 45  2  0  0  0  0
 44 47  1  0  0  0  0
 47 46  1  0  0  0  0
M  END
>  <MODEL>
8

>  <REMARK>
 VINA RESULT:      -6.6      1.808      3.034
  Name = 
  16 active torsions:
  status: ('A' for Active; 'I' for Inactive)
    1  A    between atoms: C_1  and  O_15
    2  A    between atoms: C_1  and  C_32
    3  A    between atoms: C_3  and  C_10
    4  A    between atoms: C_3  and  C_41
    5  A    between atoms: N_5  and  N_26
    6  A    between atoms: C_6  and  C_14
    7  A    between atoms: C_6  and  C_22
    8  A    between atoms: C_10  and  O_15
    9  A    between atoms: C_10  and  C_33
   10  A    between atoms: N_12  and  C_33
   11  A    between atoms: C_14  and  C_38
   12  A    between atoms: C_16  and  C_23
   13  A    between atoms: C_18  and  C_41
   14  A    between atoms: C_18  and  C_47
   15  A    between atoms: C_22  and  N_25
   16  A    between atoms: N_34  and  C_37
                            x       y       z     vdW  Elec       q    Type
                         _______ _______ _______ _____ _____    ______ ____

>  <TORSDO>
F 16

$$$$
=
 OpenBabel10222421403D

 47 50  0  0  1  0  0  0  0  0999 V2000
  188.5750  176.9580  138.1150 C   0  0  0  0  0  0  0  0  0  0  0  0
  187.2450  176.9250  137.5890 N   0  0  0  0  0  2  0  0  0  0  0  0
  190.3340  177.7520  139.4130 C   0  0  1  0  0  3  0  0  0  0  0  0
  189.7790  175.7280  137.6420 S   0  0  0  0  0  0  0  0  0  0  0  0
  192.2620  176.7100  138.3650 N   0  0  0  0  0  0  0  0  0  0  0  0
  190.9660  176.7750  138.4820 C   0  0  0  0  0  0  0  0  0  0  0  0
  188.9570  177.8720  138.9500 N   0  0  0  0  0  0  0  0  0  0  0  0
  194.4580  173.8830  137.2260 C   0  0  0  0  0  0  0  0  0  0  0  0
  194.6430  174.2430  135.9260 N   0  0  0  0  0  0  0  0  0  0  0  0
  195.0730  172.7060  137.7480 N   0  0  0  0  0  2  0  0  0  0  0  0
  193.2560  176.1610  136.2110 C   0  0  0  0  0  3  0  0  0  0  0  0
  193.0610  175.8300  137.5550 C   0  0  0  0  0  0  0  0  0  0  0  0
  193.6630  174.6720  138.0610 C   0  0  0  0  0  3  0  0  0  0  0  0
  194.0590  175.3510  135.4040 C   0  0  0  0  0  3  0  0  0  0  0  0
  195.5840  168.6990  138.5260 C   0  0  0  0  0  3  0  0  0  0  0  0
  195.9610  171.9490  136.9700 N   0  0  0  0  0  0  0  0  0  0  0  0
  196.0830  170.6660  137.1180 C   0  0  0  0  0  0  0  0  0  0  0  0
  197.2880  169.7890  136.1160 S   0  0  0  0  0  0  0  0  0  0  0  0
  195.2790  169.9340  138.1180 C   0  0  0  0  0  3  0  0  0  0  0  0
  196.7550  167.9130  138.0000 C   0  0  0  0  0  2  0  0  0  0  0  0
  197.8840  168.8260  137.5340 C   0  0  0  0  0  2  0  0  0  0  0  0
  190.3430  175.9220  140.9500 O   0  0  0  0  0  0  0  0  0  0  0  0
  190.3700  177.1720  140.7990 C   0  0  0  0  0  0  0  0  0  0  0  0
  190.3200  178.0270  141.9440 N   0  0  0  0  0  2  0  0  0  0  0  0
  190.4230  176.7820  144.0100 C   0  0  0  0  0  1  0  0  0  0  0  0
  189.5590  177.6550  143.1240 C   0  0  2  0  0  3  0  0  0  0  0  0
  188.3240  176.8760  142.7090 C   0  0  0  0  0  2  0  0  0  0  0  0
  187.4750  176.5830  143.9440 C   0  0  0  0  0  2  0  0  0  0  0  0
  183.5730  178.7870  144.9090 C   0  0  0  0  0  2  0  0  0  0  0  0
  186.6610  177.5940  146.1130 C   0  0  1  0  0  3  0  0  0  0  0  0
  184.8800  178.9770  145.0430 C   0  0  0  0  0  0  0  0  0  0  0  0
  185.5950  178.9510  146.6790 S   0  0  0  0  0  0  0  0  0  0  0  0
  186.9940  177.8570  144.6480 C   0  0  2  0  0  3  0  0  0  0  0  0
  187.8820  177.5690  146.8990 N   0  0  0  0  0  1  0  0  0  0  0  0
  185.7760  178.4750  143.9650 C   0  0  0  0  0  2  0  0  0  0  0  0
  186.3080  178.0330  137.7190 C   0  0  0  0  0  2  0  0  0  0  0  0
  184.9420  177.5300  138.1800 C   0  0  1  0  0  3  0  0  0  0  0  0
  183.9960  178.6840  138.5240 C   0  0  0  0  0  2  0  0  0  0  0  0
  183.5080  178.6520  139.9730 C   0  0  0  0  0  2  0  0  0  0  0  0
  182.0750  179.1620  140.0530 C   0  0  0  0  0  2  0  0  0  0  0  0
  180.8800  177.1230  140.3560 O   0  0  0  0  0  1  0  0  0  0  0  0
  181.1150  178.1570  139.4490 C   0  0  0  0  0  2  0  0  0  0  0  0
  184.3630  176.6890  137.1850 O   0  0  0  0  0  0  0  0  0  0  0  0
  183.8950  175.4000  137.4630 C   0  0  0  0  0  0  0  0  0  0  0  0
  182.9050  175.2110  138.2740 N   0  0  0  0  0  2  0  0  0  0  0  0
  185.7540  173.9530  137.3440 O   0  0  0  0  0  1  0  0  0  0  0  0
  184.5100  174.2300  136.7770 C   0  0  0  0  0  2  0  0  0  0  0  0
  1  7  2  0  0  0  0
  2 36  1  0  0  0  0
  2  1  1  0  0  0  0
  3 23  1  1  0  0  0
  4  1  1  0  0  0  0
  4  6  1  0  0  0  0
  5  6  2  0  0  0  0
  6  3  1  0  0  0  0
  7  3  1  0  0  0  0
  8 10  1  0  0  0  0
  8 13  1  0  0  0  0
  9  8  2  0  0  0  0
 11 12  1  0  0  0  0
 12 13  2  0  0  0  0
 12  5  1  0  0  0  0
 14  9  1  0  0  0  0
 14 11  2  0  0  0  0
 16 17  2  0  0  0  0
 16 10  1  0  0  0  0
 17 19  1  0  0  0  0
 18 17  1  0  0  0  0
 18 21  1  0  0  0  0
 19 15  2  0  0  0  0
 20 15  1  0  0  0  0
 21 20  1  0  0  0  0
 23 22  2  0  0  0  0
 23 24  1  0  0  0  0
 24 26  1  0  0  0  0
 26 25  1  1  0  0  0
 27 26  1  0  0  0  0
 27 28  1  0  0  0  0
 29 31  2  0  0  0  0
 30 32  1  0  0  0  0
 30 34  1  1  0  0  0
 31 32  1  0  0  0  0
 33 28  1  6  0  0  0
 33 30  1  0  0  0  0
 35 33  1  0  0  0  0
 35 31  1  0  0  0  0
 37 36  1  6  0  0  0
 37 38  1  0  0  0  0
 38 39  1  0  0  0  0
 39 40  1  0  0  0  0
 42 40  1  0  0  0  0
 42 41  1  0  0  0  0
 43 44  1  0  0  0  0
 43 37  1  0  0  0  0
 44 45  2  0  0  0  0
 47 46  1  0  0  0  0
 47 44  1  0  0  0  0
M  END
>  <MODEL>
9

>  <REMARK>
 VINA RESULT:      -6.5      2.319      2.956
  Name = 
  16 active torsions:
  status: ('A' for Active; 'I' for Inactive)
    1  A    between atoms: C_1  and  O_15
    2  A    between atoms: C_1  and  C_32
    3  A    between atoms: C_3  and  C_10
    4  A    between atoms: C_3  and  C_41
    5  A    between atoms: N_5  and  N_26
    6  A    between atoms: C_6  and  C_14
    7  A    between atoms: C_6  and  C_22
    8  A    between atoms: C_10  and  O_15
    9  A    between atoms: C_10  and  C_33
   10  A    between atoms: N_12  and  C_33
   11  A    between atoms: C_14  and  C_38
   12  A    between atoms: C_16  and  C_23
   13  A    between atoms: C_18  and  C_41
   14  A    between atoms: C_18  and  C_47
   15  A    between atoms: C_22  and  N_25
   16  A    between atoms: N_34  and  C_37
                            x       y       z     vdW  Elec       q    Type
                         _______ _______ _______ _____ _____    ______ ____

>  <TORSDO>
F 16

$$$$
