=
 OpenBabel10232411523D

 31 34  0  0  1  0  0  0  0  0999 V2000
  188.0080  177.9120  141.2080 C   0  0  0  0  0  0  0  0  0  0  0  0
  190.5960  176.3980  140.3930 O   0  0  0  0  0  0  0  0  0  0  0  0
  188.9950  177.1040  138.7620 C   0  0  1  0  0  0  0  0  0  0  0  0
  188.7360  177.3790  143.5640 C   0  0  0  0  0  0  0  0  0  0  0  0
  186.1720  178.8420  145.8490 C   0  0  0  0  0  1  0  0  0  0  0  0
  188.2730  177.5030  146.2940 C   0  0  0  0  0  0  0  0  0  0  0  0
  190.4040  177.2550  139.2680 C   0  0  2  0  0  3  0  0  0  0  0  0
  190.9930  175.9930  142.6790 C   0  0  0  0  0  3  0  0  0  0  0  0
  188.1740  177.7120  139.8230 N   0  0  0  0  0  0  0  0  0  0  0  0
  188.2110  178.1910  138.4030 C   0  0  2  0  0  3  0  0  0  0  0  0
  189.6150  176.7690  144.4840 C   0  0  0  0  0  0  0  0  0  0  0  0
  189.3610  176.8480  145.8160 N   0  0  0  0  0  0  0  0  0  0  0  0
  187.3890  178.1100  145.3890 C   0  0  0  0  0  0  0  0  0  0  0  0
  188.5510  175.8050  138.4920 O   0  0  0  0  0  1  0  0  0  0  0  0
  190.7300  176.0780  144.0380 C   0  0  0  0  0  3  0  0  0  0  0  0
  187.0690  178.6560  141.6000 O   0  0  0  0  0  0  0  0  0  0  0  0
  188.9850  177.3000  142.1620 C   0  0  0  0  0  0  0  0  0  0  0  0
  190.1670  176.5940  141.7250 C   0  0  0  0  0  0  0  0  0  0  0  0
  187.6450  178.0280  144.0570 N   0  0  0  0  0  0  0  0  0  0  0  0
  191.3390  176.8980  138.2130 N   0  0  0  0  0  2  0  0  0  0  0  0
  192.7520  176.8510  138.4270 C   0  0  0  0  0  0  0  0  0  0  0  0
  193.2410  177.1470  139.5500 O   0  0  0  0  0  0  0  0  0  0  0  0
  193.6550  176.4850  137.3010 C   0  0  0  0  0  2  0  0  0  0  0  0
  194.2430  175.1360  137.5320 C   0  0  0  0  0  0  0  0  0  0  0  0
  195.6190  174.9890  137.6490 O   0  0  0  0  0  0  0  0  0  0  0  0
  193.4920  174.1330  137.6540 O   0  0  0  0  0  1  0  0  0  0  0  0
  186.9620  177.8850  136.1320 C   0  0  0  0  0  1  0  0  0  0  0  0
  186.8900  177.8930  137.6560 C   0  0  2  0  0  3  0  0  0  0  0  0
  185.8300  178.7790  138.1070 N   0  0  0  0  0  1  0  0  0  0  0  0
  187.8800  177.5980  148.8610 N   0  0  0  0  0  0  0  0  0  0  0  0
  188.0550  177.5560  147.7170 C   0  0  0  0  0  0  0  0  0  0  0  0
  1 16  2  0  0  0  0
  1 17  1  0  0  0  0
  2 18  1  0  0  0  0
  3 14  1  6  0  0  0
  3  7  1  0  0  0  0
  3  9  1  0  0  0  0
  4 19  2  0  0  0  0
  4 11  1  0  0  0  0
  6 31  1  0  0  0  0
  7 20  1  6  0  0  0
  7  2  1  0  0  0  0
  8 15  2  0  0  0  0
  9  1  1  0  0  0  0
 10 28  1  6  0  0  0
 10  3  1  0  0  0  0
 10  9  1  0  0  0  0
 11 12  2  0  0  0  0
 12  6  1  0  0  0  0
 13  5  1  0  0  0  0
 13  6  2  0  0  0  0
 15 11  1  0  0  0  0
 17  4  1  0  0  0  0
 18 17  2  0  0  0  0
 18  8  1  0  0  0  0
 19 13  1  0  0  0  0
 20 21  1  0  0  0  0
 21 22  2  0  0  0  0
 23 24  1  0  0  0  0
 23 21  1  0  0  0  0
 24 25  2  0  0  0  0
 24 26  1  0  0  0  0
 28 27  1  6  0  0  0
 28 29  1  0  0  0  0
 31 30  3  0  0  0  0
M  END
>  <MODEL>
1

>  <REMARK>
 VINA RESULT:      -8.0      0.000      0.000
  Name = 
  5 active torsions:
  status: ('A' for Active; 'I' for Inactive)
    1  A    between atoms: N_3  and  C_9
    2  A    between atoms: C_8  and  C_26
    3  A    between atoms: C_10  and  C_15
    4  A    between atoms: C_13  and  C_28
    5  A    between atoms: C_15  and  C_17
                            x       y       z     vdW  Elec       q    Type
                         _______ _______ _______ _____ _____    ______ ____

>  <TORSDO>
F 5

$$$$
=
 OpenBabel10232411523D

 31 34  0  0  1  0  0  0  0  0999 V2000
  187.5090  178.2710  141.4710 C   0  0  0  0  0  0  0  0  0  0  0  0
  187.9370  177.7800  144.5090 O   0  0  0  0  0  0  0  0  0  0  0  0
  189.7020  177.4480  142.9290 C   0  0  1  0  0  0  0  0  0  0  0  0
  185.0860  178.5580  142.1130 C   0  0  0  0  0  0  0  0  0  0  0  0
  183.2140  179.3100  138.9720 C   0  0  0  0  0  1  0  0  0  0  0  0
  182.4580  179.0350  141.3720 C   0  0  0  0  0  0  0  0  0  0  0  0
  189.2280  178.2440  144.1140 C   0  0  2  0  0  3  0  0  0  0  0  0
  185.6140  178.0350  144.8050 C   0  0  0  0  0  3  0  0  0  0  0  0
  188.8120  177.8790  141.8370 N   0  0  0  0  0  0  0  0  0  0  0  0
  190.3030  178.0370  141.8260 C   0  0  2  0  0  3  0  0  0  0  0  0
  184.0440  178.5450  143.0640 C   0  0  0  0  0  0  0  0  0  0  0  0
  182.7660  178.7830  142.6690 N   0  0  0  0  0  0  0  0  0  0  0  0
  183.4850  179.0450  140.4160 C   0  0  0  0  0  0  0  0  0  0  0  0
  189.6790  176.0530  143.0470 O   0  0  0  0  0  1  0  0  0  0  0  0
  184.3110  178.2790  144.3970 C   0  0  0  0  0  3  0  0  0  0  0  0
  187.3040  178.6440  140.2850 O   0  0  0  0  0  0  0  0  0  0  0  0
  186.4320  178.3040  142.5100 C   0  0  0  0  0  0  0  0  0  0  0  0
  186.6870  178.0530  143.9090 C   0  0  0  0  0  0  0  0  0  0  0  0
  184.7620  178.8060  140.8140 N   0  0  0  0  0  0  0  0  0  0  0  0
  190.1660  178.0830  145.2140 N   0  0  0  0  0  2  0  0  0  0  0  0
  189.8650  177.2890  146.3640 C   0  0  0  0  0  0  0  0  0  0  0  0
  188.7500  176.7130  146.4730 O   0  0  0  0  0  0  0  0  0  0  0  0
  190.8680  177.1720  147.4590 C   0  0  0  0  0  2  0  0  0  0  0  0
  191.9110  176.1720  147.0960 C   0  0  0  0  0  0  0  0  0  0  0  0
  192.7740  175.6840  148.0680 O   0  0  0  0  0  1  0  0  0  0  0  0
  191.9910  175.7450  145.9150 O   0  0  0  0  0  0  0  0  0  0  0  0
  192.4750  177.2940  140.5850 C   0  0  0  0  0  1  0  0  0  0  0  0
  190.9780  177.0950  140.8020 C   0  0  2  0  0  3  0  0  0  0  0  0
  190.2750  177.1250  139.5310 N   0  0  0  0  0  1  0  0  0  0  0  0
  179.9820  179.4800  140.7220 N   0  0  0  0  0  0  0  0  0  0  0  0
  181.0850  179.2820  141.0110 C   0  0  0  0  0  0  0  0  0  0  0  0
  1  9  1  0  0  0  0
  1 17  1  0  0  0  0
  3 14  1  1  0  0  0
  3  7  1  0  0  0  0
  4 17  1  0  0  0  0
  4 11  1  0  0  0  0
  5 13  1  0  0  0  0
  6 12  1  0  0  0  0
  7  2  1  0  0  0  0
  7 20  1  1  0  0  0
  9  3  1  0  0  0  0
 10 28  1  6  0  0  0
 10  9  1  0  0  0  0
 10  3  1  0  0  0  0
 11 15  1  0  0  0  0
 12 11  2  0  0  0  0
 13 19  1  0  0  0  0
 13  6  2  0  0  0  0
 15  8  2  0  0  0  0
 16  1  2  0  0  0  0
 17 18  2  0  0  0  0
 18  2  1  0  0  0  0
 18  8  1  0  0  0  0
 19  4  2  0  0  0  0
 20 21  1  0  0  0  0
 21 22  2  0  0  0  0
 21 23  1  0  0  0  0
 24 23  1  0  0  0  0
 24 25  1  0  0  0  0
 26 24  2  0  0  0  0
 28 27  1  6  0  0  0
 29 28  1  0  0  0  0
 30 31  3  0  0  0  0
 31  6  1  0  0  0  0
M  END
>  <MODEL>
2

>  <REMARK>
 VINA RESULT:      -7.7      3.683      6.802
  Name = 
  5 active torsions:
  status: ('A' for Active; 'I' for Inactive)
    1  A    between atoms: N_3  and  C_9
    2  A    between atoms: C_8  and  C_26
    3  A    between atoms: C_10  and  C_15
    4  A    between atoms: C_13  and  C_28
    5  A    between atoms: C_15  and  C_17
                            x       y       z     vdW  Elec       q    Type
                         _______ _______ _______ _____ _____    ______ ____

>  <TORSDO>
F 5

$$$$
=
 OpenBabel10232411523D

 31 34  0  0  1  0  0  0  0  0999 V2000
  187.8980  177.8520  139.7210 C   0  0  0  0  0  0  0  0  0  0  0  0
  190.4990  176.1690  139.9580 O   0  0  0  0  0  0  0  0  0  0  0  0
  189.5330  176.6830  137.8310 C   0  0  1  0  0  0  0  0  0  0  0  0
  187.8260  177.6350  142.2340 C   0  0  0  0  0  0  0  0  0  0  0  0
  184.7920  179.4740  143.3930 C   0  0  0  0  0  1  0  0  0  0  0  0
  186.5540  178.1540  144.6410 C   0  0  0  0  0  0  0  0  0  0  0  0
  190.7240  176.8640  138.7320 C   0  0  2  0  0  3  0  0  0  0  0  0
  190.1430  176.0780  142.2850 C   0  0  0  0  0  3  0  0  0  0  0  0
  188.4690  177.4550  138.4960 N   0  0  0  0  0  0  0  0  0  0  0  0
  188.9750  177.7290  137.1110 C   0  0  2  0  0  3  0  0  0  0  0  0
  188.3330  177.1360  143.4520 C   0  0  0  0  0  0  0  0  0  0  0  0
  187.6870  177.4080  144.6150 N   0  0  0  0  0  0  0  0  0  0  0  0
  186.0360  178.6520  143.4360 C   0  0  0  0  0  0  0  0  0  0  0  0
  189.1040  175.3710  137.5990 O   0  0  0  0  0  1  0  0  0  0  0  0
  189.4800  176.3590  143.4700 C   0  0  0  0  0  3  0  0  0  0  0  0
  186.9400  178.6690  139.7010 O   0  0  0  0  0  0  0  0  0  0  0  0
  188.4890  177.3540  141.0020 C   0  0  0  0  0  0  0  0  0  0  0  0
  189.6950  176.5620  141.0520 C   0  0  0  0  0  0  0  0  0  0  0  0
  186.6850  178.3770  142.2730 N   0  0  0  0  0  0  0  0  0  0  0  0
  191.9120  176.3360  138.0790 N   0  0  0  0  0  2  0  0  0  0  0  0
  193.2300  176.5850  138.5720 C   0  0  0  0  0  0  0  0  0  0  0  0
  193.4090  177.3010  139.5930 O   0  0  0  0  0  0  0  0  0  0  0  0
  194.4040  176.0220  137.8510 C   0  0  0  0  0  2  0  0  0  0  0  0
  194.8730  174.7790  138.5240 C   0  0  0  0  0  0  0  0  0  0  0  0
  195.8150  174.8530  139.5420 O   0  0  0  0  0  1  0  0  0  0  0  0
  194.3930  173.6630  138.1950 O   0  0  0  0  0  0  0  0  0  0  0  0
  188.4790  177.0490  134.6410 C   0  0  0  0  0  1  0  0  0  0  0  0
  187.9320  177.3650  136.0290 C   0  0  2  0  0  3  0  0  0  0  0  0
  186.8990  178.3840  135.9450 N   0  0  0  0  0  1  0  0  0  0  0  0
  185.3970  178.6190  146.9200 N   0  0  0  0  0  0  0  0  0  0  0  0
  185.9120  178.4120  145.9050 C   0  0  0  0  0  0  0  0  0  0  0  0
  1 17  1  0  0  0  0
  2 18  1  0  0  0  0
  3 14  1  6  0  0  0
  3  9  1  0  0  0  0
  3  7  1  0  0  0  0
  4 19  2  0  0  0  0
  4 11  1  0  0  0  0
  5 13  1  0  0  0  0
  6 31  1  0  0  0  0
  7 20  1  6  0  0  0
  7  2  1  0  0  0  0
  8 15  2  0  0  0  0
  9  1  1  0  0  0  0
 10 28  1  6  0  0  0
 10  3  1  0  0  0  0
 10  9  1  0  0  0  0
 11 15  1  0  0  0  0
 11 12  2  0  0  0  0
 12  6  1  0  0  0  0
 13  6  2  0  0  0  0
 16  1  2  0  0  0  0
 17 18  2  0  0  0  0
 17  4  1  0  0  0  0
 18  8  1  0  0  0  0
 19 13  1  0  0  0  0
 20 21  1  0  0  0  0
 21 22  2  0  0  0  0
 23 24  1  0  0  0  0
 23 21  1  0  0  0  0
 24 25  1  0  0  0  0
 26 24  2  0  0  0  0
 28 27  1  6  0  0  0
 29 28  1  0  0  0  0
 31 30  3  0  0  0  0
M  END
>  <MODEL>
3

>  <REMARK>
 VINA RESULT:      -7.6      1.506      1.767
  Name = 
  5 active torsions:
  status: ('A' for Active; 'I' for Inactive)
    1  A    between atoms: N_3  and  C_9
    2  A    between atoms: C_8  and  C_26
    3  A    between atoms: C_10  and  C_15
    4  A    between atoms: C_13  and  C_28
    5  A    between atoms: C_15  and  C_17
                            x       y       z     vdW  Elec       q    Type
                         _______ _______ _______ _____ _____    ______ ____

>  <TORSDO>
F 5

$$$$
=
 OpenBabel10232411523D

 31 34  0  0  1  0  0  0  0  0999 V2000
  186.5380  178.1590  141.5030 C   0  0  0  0  0  0  0  0  0  0  0  0
  183.4950  178.7770  141.3920 O   0  0  0  0  0  0  0  0  0  0  0  0
  184.8380  178.7550  139.4130 C   0  0  1  0  0  0  0  0  0  0  0  0
  186.2130  178.2590  144.0030 C   0  0  0  0  0  0  0  0  0  0  0  0
  189.5390  177.5800  145.5560 C   0  0  0  0  0  1  0  0  0  0  0  0
  187.2770  178.1110  146.5580 C   0  0  0  0  0  0  0  0  0  0  0  0
  183.6920  178.1110  140.1450 C   0  0  2  0  0  3  0  0  0  0  0  0
  183.5010  178.8720  143.7450 C   0  0  0  0  0  3  0  0  0  0  0  0
  186.0190  178.3850  140.2130 N   0  0  0  0  0  0  0  0  0  0  0  0
  185.8230  178.0180  138.7720 C   0  0  2  0  0  3  0  0  0  0  0  0
  185.4110  178.4790  145.1430 C   0  0  0  0  0  0  0  0  0  0  0  0
  185.9620  178.3990  146.3820 N   0  0  0  0  0  0  0  0  0  0  0  0
  188.0860  177.8960  145.4320 C   0  0  0  0  0  0  0  0  0  0  0  0
  184.7860  180.1440  139.2440 O   0  0  0  0  0  1  0  0  0  0  0  0
  184.0680  178.7880  145.0080 C   0  0  0  0  0  3  0  0  0  0  0  0
  187.7220  177.7440  141.6100 O   0  0  0  0  0  0  0  0  0  0  0  0
  185.6520  178.3450  142.6940 C   0  0  0  0  0  0  0  0  0  0  0  0
  184.2440  178.6460  142.5830 C   0  0  0  0  0  0  0  0  0  0  0  0
  187.5320  177.9770  144.1930 N   0  0  0  0  0  0  0  0  0  0  0  0
  182.4850  178.2080  139.3390 N   0  0  0  0  0  2  0  0  0  0  0  0
  181.9820  177.1060  138.5820 C   0  0  0  0  0  0  0  0  0  0  0  0
  182.5910  176.0030  138.5700 O   0  0  0  0  0  0  0  0  0  0  0  0
  180.7450  177.2740  137.7710 C   0  0  0  0  0  2  0  0  0  0  0  0
  180.8870  178.4380  136.8520 C   0  0  0  0  0  0  0  0  0  0  0  0
  180.1240  179.5810  137.0540 O   0  0  0  0  0  1  0  0  0  0  0  0
  181.7220  178.4000  135.9110 O   0  0  0  0  0  0  0  0  0  0  0  0
  186.7670  178.3920  136.3680 C   0  0  0  0  0  1  0  0  0  0  0  0
  186.7880  178.7880  137.8410 C   0  0  2  0  0  3  0  0  0  0  0  0
  188.1460  178.7450  138.3560 N   0  0  0  0  0  1  0  0  0  0  0  0
  188.2320  177.9800  148.9710 N   0  0  0  0  0  0  0  0  0  0  0  0
  187.8060  178.0380  147.8960 C   0  0  0  0  0  0  0  0  0  0  0  0
  1 16  2  0  0  0  0
  1 17  1  0  0  0  0
  2 18  1  0  0  0  0
  3 14  1  6  0  0  0
  3  7  1  0  0  0  0
  3  9  1  0  0  0  0
  4 19  2  0  0  0  0
  4 11  1  0  0  0  0
  6 31  1  0  0  0  0
  7 20  1  6  0  0  0
  7  2  1  0  0  0  0
  8 15  2  0  0  0  0
  9  1  1  0  0  0  0
 10 28  1  6  0  0  0
 10  3  1  0  0  0  0
 10  9  1  0  0  0  0
 11 12  2  0  0  0  0
 12  6  1  0  0  0  0
 13  5  1  0  0  0  0
 13  6  2  0  0  0  0
 15 11  1  0  0  0  0
 17  4  1  0  0  0  0
 18 17  2  0  0  0  0
 18  8  1  0  0  0  0
 19 13  1  0  0  0  0
 21 20  1  0  0  0  0
 22 21  2  0  0  0  0
 23 21  1  0  0  0  0
 24 25  1  0  0  0  0
 24 23  1  0  0  0  0
 26 24  2  0  0  0  0
 28 27  1  6  0  0  0
 28 29  1  0  0  0  0
 31 30  3  0  0  0  0
M  END
>  <MODEL>
4

>  <REMARK>
 VINA RESULT:      -7.3      3.939      6.955
  Name = 
  5 active torsions:
  status: ('A' for Active; 'I' for Inactive)
    1  A    between atoms: N_3  and  C_9
    2  A    between atoms: C_8  and  C_26
    3  A    between atoms: C_10  and  C_15
    4  A    between atoms: C_13  and  C_28
    5  A    between atoms: C_15  and  C_17
                            x       y       z     vdW  Elec       q    Type
                         _______ _______ _______ _____ _____    ______ ____

>  <TORSDO>
F 5

$$$$
=
 OpenBabel10232411523D

 31 34  0  0  1  0  0  0  0  0999 V2000
  187.2700  177.6310  143.2060 C   0  0  0  0  0  0  0  0  0  0  0  0
  185.0100  178.8300  144.9700 O   0  0  0  0  0  0  0  0  0  0  0  0
  184.9030  178.9040  142.5810 C   0  0  1  0  0  0  0  0  0  0  0  0
  188.4860  177.3440  145.3980 C   0  0  0  0  0  0  0  0  0  0  0  0
  191.7810  175.7760  144.6120 C   0  0  0  0  0  1  0  0  0  0  0  0
  190.7450  176.5430  146.7890 C   0  0  0  0  0  0  0  0  0  0  0  0
  184.2710  178.3710  143.8380 C   0  0  2  0  0  3  0  0  0  0  0  0
  186.3960  178.5010  146.8450 C   0  0  0  0  0  3  0  0  0  0  0  0
  186.1820  178.1780  142.4970 N   0  0  0  0  0  0  0  0  0  0  0  0
  185.1050  178.1180  141.4560 C   0  0  2  0  0  3  0  0  0  0  0  0
  188.5800  177.5070  146.7960 C   0  0  0  0  0  0  0  0  0  0  0  0
  189.7010  177.1040  147.4490 N   0  0  0  0  0  0  0  0  0  0  0  0
  190.6670  176.3810  145.3980 C   0  0  0  0  0  0  0  0  0  0  0  0
  185.1260  180.2840  142.5160 O   0  0  0  0  0  1  0  0  0  0  0  0
  187.5420  178.0870  147.5080 C   0  0  0  0  0  3  0  0  0  0  0  0
  188.1410  176.9850  142.5660 O   0  0  0  0  0  0  0  0  0  0  0  0
  187.3190  177.7680  144.6950 C   0  0  0  0  0  0  0  0  0  0  0  0
  186.2430  178.3470  145.4640 C   0  0  0  0  0  0  0  0  0  0  0  0
  189.5440  176.7860  144.7470 N   0  0  0  0  0  0  0  0  0  0  0  0
  182.8960  178.8390  143.9260 N   0  0  0  0  0  2  0  0  0  0  0  0
  181.8880  178.4250  143.0020 C   0  0  0  0  0  0  0  0  0  0  0  0
  182.1670  177.6460  142.0520 O   0  0  0  0  0  0  0  0  0  0  0  0
  180.5010  178.9480  143.1440 C   0  0  0  0  0  2  0  0  0  0  0  0
  180.1840  179.8750  142.0210 C   0  0  0  0  0  0  0  0  0  0  0  0
  179.9830  181.2260  142.2710 O   0  0  0  0  0  1  0  0  0  0  0  0
  180.1320  179.4410  140.8410 O   0  0  0  0  0  0  0  0  0  0  0  0
  184.6760  178.5370  138.9160 C   0  0  0  0  0  1  0  0  0  0  0  0
  185.5150  178.8420  140.1530 C   0  0  2  0  0  3  0  0  0  0  0  0
  186.9260  178.6350  139.8700 N   0  0  0  0  0  1  0  0  0  0  0  0
  192.8420  175.8040  148.1340 N   0  0  0  0  0  0  0  0  0  0  0  0
  191.9080  176.1330  147.5350 C   0  0  0  0  0  0  0  0  0  0  0  0
  1 17  1  0  0  0  0
  2 18  1  0  0  0  0
  3 14  1  6  0  0  0
  3  7  1  0  0  0  0
  4 11  1  0  0  0  0
  5 13  1  0  0  0  0
  6 12  1  0  0  0  0
  6 31  1  0  0  0  0
  7 20  1  1  0  0  0
  7  2  1  0  0  0  0
  8 15  2  0  0  0  0
  9  3  1  0  0  0  0
  9  1  1  0  0  0  0
 10 28  1  6  0  0  0
 10  9  1  0  0  0  0
 10  3  1  0  0  0  0
 11 12  2  0  0  0  0
 11 15  1  0  0  0  0
 13  6  2  0  0  0  0
 16  1  2  0  0  0  0
 17  4  1  0  0  0  0
 17 18  2  0  0  0  0
 18  8  1  0  0  0  0
 19 13  1  0  0  0  0
 19  4  2  0  0  0  0
 21 23  1  0  0  0  0
 21 20  1  0  0  0  0
 22 21  2  0  0  0  0
 24 25  1  0  0  0  0
 24 23  1  0  0  0  0
 26 24  2  0  0  0  0
 28 27  1  6  0  0  0
 29 28  1  0  0  0  0
 31 30  3  0  0  0  0
M  END
>  <MODEL>
5

>  <REMARK>
 VINA RESULT:      -7.2      4.089      7.747
  Name = 
  5 active torsions:
  status: ('A' for Active; 'I' for Inactive)
    1  A    between atoms: N_3  and  C_9
    2  A    between atoms: C_8  and  C_26
    3  A    between atoms: C_10  and  C_15
    4  A    between atoms: C_13  and  C_28
    5  A    between atoms: C_15  and  C_17
                            x       y       z     vdW  Elec       q    Type
                         _______ _______ _______ _____ _____    ______ ____

>  <TORSDO>
F 5

$$$$
=
 OpenBabel10232411523D

 31 34  0  0  1  0  0  0  0  0999 V2000
  189.1460  177.1900  141.4350 C   0  0  0  0  0  0  0  0  0  0  0  0
  186.6640  178.4970  140.0990 O   0  0  0  0  0  0  0  0  0  0  0  0
  188.5750  177.8480  138.8170 C   0  0  1  0  0  0  0  0  0  0  0  0
  187.9680  177.7500  143.5940 C   0  0  0  0  0  0  0  0  0  0  0  0
  190.1550  176.5390  146.3670 C   0  0  0  0  0  1  0  0  0  0  0  0
  187.9310  177.7460  146.3660 C   0  0  0  0  0  0  0  0  0  0  0  0
  187.1090  177.6190  139.0670 C   0  0  2  0  0  3  0  0  0  0  0  0
  185.8310  178.9500  142.2560 C   0  0  0  0  0  3  0  0  0  0  0  0
  189.2240  177.3320  140.0350 N   0  0  0  0  0  0  0  0  0  0  0  0
  189.4770  176.8050  138.6540 C   0  0  2  0  0  3  0  0  0  0  0  0
  186.9010  178.3290  144.3120 C   0  0  0  0  0  0  0  0  0  0  0  0
  186.9110  178.3110  145.6700 N   0  0  0  0  0  0  0  0  0  0  0  0
  189.0010  177.1720  145.6640 C   0  0  0  0  0  0  0  0  0  0  0  0
  188.9820  179.1650  138.5740 O   0  0  0  0  0  1  0  0  0  0  0  0
  185.8460  178.9280  143.6430 C   0  0  0  0  0  3  0  0  0  0  0  0
  190.0400  176.5240  142.0220 O   0  0  0  0  0  0  0  0  0  0  0  0
  187.9760  177.7650  142.1680 C   0  0  0  0  0  0  0  0  0  0  0  0
  186.8530  178.3750  141.4950 C   0  0  0  0  0  0  0  0  0  0  0  0
  188.9880  177.1920  144.3040 N   0  0  0  0  0  0  0  0  0  0  0  0
  186.3630  177.8780  137.8450 N   0  0  0  0  0  2  0  0  0  0  0  0
  186.0670  176.8490  136.8980 C   0  0  0  0  0  0  0  0  0  0  0  0
  186.4700  175.6700  137.0840 O   0  0  0  0  0  0  0  0  0  0  0  0
  185.3050  177.1830  135.6630 C   0  0  0  0  0  2  0  0  0  0  0  0
  183.8580  176.8830  135.8540 C   0  0  0  0  0  0  0  0  0  0  0  0
  183.3060  175.7380  135.2960 O   0  0  0  0  0  0  0  0  0  0  0  0
  183.1420  177.6490  136.5500 O   0  0  0  0  0  1  0  0  0  0  0  0
  191.3150  176.5370  136.8220 C   0  0  0  0  0  1  0  0  0  0  0  0
  190.8910  177.1670  138.1450 C   0  0  2  0  0  3  0  0  0  0  0  0
  191.8890  176.9120  139.1690 N   0  0  0  0  0  1  0  0  0  0  0  0
  187.8540  177.7630  148.9630 N   0  0  0  0  0  0  0  0  0  0  0  0
  187.8880  177.7550  147.8060 C   0  0  0  0  0  0  0  0  0  0  0  0
  1 16  2  0  0  0  0
  1 17  1  0  0  0  0
  2 18  1  0  0  0  0
  3 14  1  6  0  0  0
  3  7  1  0  0  0  0
  3  9  1  0  0  0  0
  4 19  2  0  0  0  0
  4 11  1  0  0  0  0
  6 31  1  0  0  0  0
  7 20  1  6  0  0  0
  7  2  1  0  0  0  0
  8 15  2  0  0  0  0
  9  1  1  0  0  0  0
 10 28  1  6  0  0  0
 10  3  1  0  0  0  0
 10  9  1  0  0  0  0
 11 12  2  0  0  0  0
 12  6  1  0  0  0  0
 13  6  2  0  0  0  0
 13  5  1  0  0  0  0
 15 11  1  0  0  0  0
 17  4  1  0  0  0  0
 18 17  2  0  0  0  0
 18  8  1  0  0  0  0
 19 13  1  0  0  0  0
 21 22  2  0  0  0  0
 21 20  1  0  0  0  0
 23 24  1  0  0  0  0
 23 21  1  0  0  0  0
 24 26  1  0  0  0  0
 25 24  2  0  0  0  0
 28 27  1  6  0  0  0
 28 29  1  0  0  0  0
 31 30  3  0  0  0  0
M  END
>  <MODEL>
6

>  <REMARK>
 VINA RESULT:      -7.1      2.387      5.281
  Name = 
  5 active torsions:
  status: ('A' for Active; 'I' for Inactive)
    1  A    between atoms: N_3  and  C_9
    2  A    between atoms: C_8  and  C_26
    3  A    between atoms: C_10  and  C_15
    4  A    between atoms: C_13  and  C_28
    5  A    between atoms: C_15  and  C_17
                            x       y       z     vdW  Elec       q    Type
                         _______ _______ _______ _____ _____    ______ ____

>  <TORSDO>
F 5

$$$$
=
 OpenBabel10232411523D

 31 34  0  0  1  0  0  0  0  0999 V2000
  188.5380  177.5760  142.9180 C   0  0  0  0  0  0  0  0  0  0  0  0
  191.5440  177.2670  143.6420 O   0  0  0  0  0  0  0  0  0  0  0  0
  189.8860  177.6460  145.3250 C   0  0  1  0  0  0  0  0  0  0  0  0
  189.3690  177.5730  140.5360 C   0  0  0  0  0  0  0  0  0  0  0  0
  186.3680  177.9070  138.3410 C   0  0  0  0  0  1  0  0  0  0  0  0
  188.8380  177.7430  137.8210 C   0  0  0  0  0  0  0  0  0  0  0  0
  190.9170  176.6900  144.7880 C   0  0  2  0  0  3  0  0  0  0  0  0
  192.0340  177.3560  141.3400 C   0  0  0  0  0  3  0  0  0  0  0  0
  188.8320  177.6400  144.2950 N   0  0  0  0  0  0  0  0  0  0  0  0
  188.6220  177.2340  145.7220 C   0  0  2  0  0  3  0  0  0  0  0  0
  190.4100  177.5440  139.5840 C   0  0  0  0  0  0  0  0  0  0  0  0
  190.1170  177.6290  138.2610 N   0  0  0  0  0  0  0  0  0  0  0  0
  187.7950  177.7780  138.7570 C   0  0  0  0  0  0  0  0  0  0  0  0
  190.3040  178.9570  145.5810 O   0  0  0  0  0  1  0  0  0  0  0  0
  191.7300  177.4420  139.9900 C   0  0  0  0  0  3  0  0  0  0  0  0
  187.3300  177.5310  142.5630 O   0  0  0  0  0  0  0  0  0  0  0  0
  189.6580  177.4900  141.9300 C   0  0  0  0  0  0  0  0  0  0  0  0
  191.0410  177.3610  142.3250 C   0  0  0  0  0  0  0  0  0  0  0  0
  188.0900  177.6940  140.0820 N   0  0  0  0  0  0  0  0  0  0  0  0
  191.9140  176.4270  145.8130 N   0  0  0  0  0  2  0  0  0  0  0  0
  191.5710  175.8940  147.0940 C   0  0  0  0  0  0  0  0  0  0  0  0
  190.3700  175.6530  147.3890 O   0  0  0  0  0  0  0  0  0  0  0  0
  192.6400  175.6550  148.1020 C   0  0  0  0  0  2  0  0  0  0  0  0
  192.8600  176.8810  148.9200 C   0  0  0  0  0  0  0  0  0  0  0  0
  194.0060  177.0050  149.6940 O   0  0  0  0  0  1  0  0  0  0  0  0
  192.0230  177.8210  148.8840 O   0  0  0  0  0  0  0  0  0  0  0  0
  187.8640  178.2200  148.0160 C   0  0  0  0  0  1  0  0  0  0  0  0
  187.7570  178.2560  146.4950 C   0  0  2  0  0  3  0  0  0  0  0  0
  186.3660  178.1700  146.0850 N   0  0  0  0  0  1  0  0  0  0  0  0
  188.3880  177.8970  135.2660 N   0  0  0  0  0  0  0  0  0  0  0  0
  188.5880  177.8280  136.4040 C   0  0  0  0  0  0  0  0  0  0  0  0
  1  9  1  0  0  0  0
  2  7  1  0  0  0  0
  3 14  1  1  0  0  0
  3 10  1  0  0  0  0
  4 17  1  0  0  0  0
  5 13  1  0  0  0  0
  6 12  2  0  0  0  0
  6 13  1  0  0  0  0
  7  3  1  0  0  0  0
  7 20  1  1  0  0  0
  8 18  1  0  0  0  0
  9  3  1  0  0  0  0
  9 10  1  0  0  0  0
 10 28  1  1  0  0  0
 11 15  1  0  0  0  0
 11  4  2  0  0  0  0
 12 11  1  0  0  0  0
 13 19  2  0  0  0  0
 15  8  2  0  0  0  0
 16  1  2  0  0  0  0
 17 18  2  0  0  0  0
 17  1  1  0  0  0  0
 18  2  1  0  0  0  0
 19  4  1  0  0  0  0
 20 21  1  0  0  0  0
 21 22  2  0  0  0  0
 21 23  1  0  0  0  0
 23 24  1  0  0  0  0
 24 25  1  0  0  0  0
 26 24  2  0  0  0  0
 28 27  1  1  0  0  0
 29 28  1  0  0  0  0
 30 31  3  0  0  0  0
 31  6  1  0  0  0  0
M  END
>  <MODEL>
7

>  <REMARK>
 VINA RESULT:      -7.0      3.470      7.816
  Name = 
  5 active torsions:
  status: ('A' for Active; 'I' for Inactive)
    1  A    between atoms: N_3  and  C_9
    2  A    between atoms: C_8  and  C_26
    3  A    between atoms: C_10  and  C_15
    4  A    between atoms: C_13  and  C_28
    5  A    between atoms: C_15  and  C_17
                            x       y       z     vdW  Elec       q    Type
                         _______ _______ _______ _____ _____    ______ ____

>  <TORSDO>
F 5

$$$$
=
 OpenBabel10232411523D

 31 34  0  0  1  0  0  0  0  0999 V2000
  187.0410  177.6960  143.7270 C   0  0  0  0  0  0  0  0  0  0  0  0
  188.6730  177.6940  141.0830 O   0  0  0  0  0  0  0  0  0  0  0  0
  189.7320  177.3860  143.2050 C   0  0  1  0  0  0  0  0  0  0  0  0
  185.1220  178.4050  142.2500 C   0  0  0  0  0  0  0  0  0  0  0  0
  182.1380  178.7900  144.4610 C   0  0  0  0  0  1  0  0  0  0  0  0
  182.4660  179.1480  141.9770 C   0  0  0  0  0  0  0  0  0  0  0  0
  189.4140  176.7650  141.8730 C   0  0  2  0  0  3  0  0  0  0  0  0
  186.7290  178.4190  139.9670 C   0  0  0  0  0  3  0  0  0  0  0  0
  188.4230  177.4680  143.8770 N   0  0  0  0  0  0  0  0  0  0  0  0
  189.5970  176.6970  144.4020 C   0  0  2  0  0  3  0  0  0  0  0  0
  184.5910  178.7730  140.9970 C   0  0  0  0  0  0  0  0  0  0  0  0
  183.2850  179.1320  140.8950 N   0  0  0  0  0  0  0  0  0  0  0  0
  182.9830  178.7890  143.2310 C   0  0  0  0  0  0  0  0  0  0  0  0
  190.3470  178.6440  143.1920 O   0  0  0  0  0  1  0  0  0  0  0  0
  185.3950  178.7840  139.8680 C   0  0  0  0  0  3  0  0  0  0  0  0
  186.2950  177.5500  144.7320 O   0  0  0  0  0  0  0  0  0  0  0  0
  186.4930  178.0310  142.3760 C   0  0  0  0  0  0  0  0  0  0  0  0
  187.3030  178.0280  141.1810 C   0  0  0  0  0  0  0  0  0  0  0  0
  184.2910  178.4310  143.3290 N   0  0  0  0  0  0  0  0  0  0  0  0
  190.6520  176.4180  141.1910 N   0  0  0  0  0  2  0  0  0  0  0  0
  191.0680  177.0670  139.9880 C   0  0  0  0  0  0  0  0  0  0  0  0
  190.3530  177.9580  139.4580 O   0  0  0  0  0  0  0  0  0  0  0  0
  192.3430  176.6590  139.3360 C   0  0  0  0  0  2  0  0  0  0  0  0
  192.0620  175.9370  138.0630 C   0  0  0  0  0  0  0  0  0  0  0  0
  191.4420  174.6950  138.0910 O   0  0  0  0  0  1  0  0  0  0  0  0
  192.3540  176.4670  136.9600 O   0  0  0  0  0  0  0  0  0  0  0  0
  191.5240  176.7730  146.1600 C   0  0  0  0  0  1  0  0  0  0  0  0
  190.2020  177.3510  145.6660 C   0  0  2  0  0  3  0  0  0  0  0  0
  189.2290  177.3830  146.7460 N   0  0  0  0  0  1  0  0  0  0  0  0
  179.9820  179.8470  141.6740 N   0  0  0  0  0  0  0  0  0  0  0  0
  181.0880  179.5360  141.8090 C   0  0  0  0  0  0  0  0  0  0  0  0
  1  9  1  0  0  0  0
  1 16  2  0  0  0  0
  2 18  1  0  0  0  0
  2  7  1  0  0  0  0
  3 14  1  1  0  0  0
  3  9  1  0  0  0  0
  3 10  1  0  0  0  0
  4 17  1  0  0  0  0
  4 19  1  0  0  0  0
  6 13  1  0  0  0  0
  7 20  1  6  0  0  0
  7  3  1  0  0  0  0
  8 18  1  0  0  0  0
  9 10  1  0  0  0  0
 10 28  1  1  0  0  0
 11  4  2  0  0  0  0
 12 11  1  0  0  0  0
 12  6  2  0  0  0  0
 13 19  2  0  0  0  0
 13  5  1  0  0  0  0
 15  8  2  0  0  0  0
 15 11  1  0  0  0  0
 17  1  1  0  0  0  0
 18 17  2  0  0  0  0
 21 20  1  0  0  0  0
 22 21  2  0  0  0  0
 23 21  1  0  0  0  0
 24 25  1  0  0  0  0
 24 23  1  0  0  0  0
 26 24  2  0  0  0  0
 28 27  1  1  0  0  0
 28 29  1  0  0  0  0
 30 31  3  0  0  0  0
 31  6  1  0  0  0  0
M  END
>  <MODEL>
8

>  <REMARK>
 VINA RESULT:      -7.0      3.058      5.769
  Name = 
  5 active torsions:
  status: ('A' for Active; 'I' for Inactive)
    1  A    between atoms: N_3  and  C_9
    2  A    between atoms: C_8  and  C_26
    3  A    between atoms: C_10  and  C_15
    4  A    between atoms: C_13  and  C_28
    5  A    between atoms: C_15  and  C_17
                            x       y       z     vdW  Elec       q    Type
                         _______ _______ _______ _____ _____    ______ ____

>  <TORSDO>
F 5

$$$$
=
 OpenBabel10232411523D

 31 34  0  0  1  0  0  0  0  0999 V2000
  187.4510  177.8960  139.8100 C   0  0  0  0  0  0  0  0  0  0  0  0
  188.0580  178.1310  142.8480 O   0  0  0  0  0  0  0  0  0  0  0  0
  185.9280  178.7450  141.9490 C   0  0  1  0  0  0  0  0  0  0  0  0
  189.9100  177.3650  139.6140 C   0  0  0  0  0  0  0  0  0  0  0  0
  190.6040  176.7700  135.9940 C   0  0  0  0  0  1  0  0  0  0  0  0
  192.1040  176.7590  138.0330 C   0  0  0  0  0  0  0  0  0  0  0  0
  186.6680  177.8060  142.8630 C   0  0  2  0  0  3  0  0  0  0  0  0
  190.3160  177.6720  142.3590 C   0  0  0  0  0  3  0  0  0  0  0  0
  186.3780  178.3510  140.6020 N   0  0  0  0  0  0  0  0  0  0  0  0
  184.9520  178.3100  141.0640 C   0  0  2  0  0  3  0  0  0  0  0  0
  191.1940  177.2080  140.1750 C   0  0  0  0  0  0  0  0  0  0  0  0
  192.2500  176.9110  139.3730 N   0  0  0  0  0  0  0  0  0  0  0  0
  190.8320  176.9180  137.4610 C   0  0  0  0  0  0  0  0  0  0  0  0
  186.1310  180.1160  142.1430 O   0  0  0  0  0  1  0  0  0  0  0  0
  191.3910  177.3670  141.5370 C   0  0  0  0  0  3  0  0  0  0  0  0
  187.2310  177.6220  138.6000 O   0  0  0  0  0  0  0  0  0  0  0  0
  188.7910  177.6830  140.4400 C   0  0  0  0  0  0  0  0  0  0  0  0
  189.0190  177.8200  141.8590 C   0  0  0  0  0  0  0  0  0  0  0  0
  189.7780  177.2170  138.2660 N   0  0  0  0  0  0  0  0  0  0  0  0
  186.1480  177.9350  144.2150 N   0  0  0  0  0  2  0  0  0  0  0  0
  186.8700  177.4750  145.3580 C   0  0  0  0  0  0  0  0  0  0  0  0
  187.9900  176.9120  145.2270 O   0  0  0  0  0  0  0  0  0  0  0  0
  186.2770  177.6300  146.7150 C   0  0  0  0  0  2  0  0  0  0  0  0
  185.4160  178.8450  146.7640 C   0  0  0  0  0  0  0  0  0  0  0  0
  184.1110  178.7910  146.2940 O   0  0  0  0  0  0  0  0  0  0  0  0
  185.8600  179.9120  147.2620 O   0  0  0  0  0  1  0  0  0  0  0  0
  182.5930  179.1060  140.2820 C   0  0  0  0  0  1  0  0  0  0  0  0
  184.0880  179.3930  140.3770 C   0  0  2  0  0  3  0  0  0  0  0  0
  184.6230  179.7250  139.0670 N   0  0  0  0  0  1  0  0  0  0  0  0
  194.1870  176.1880  136.5890 N   0  0  0  0  0  0  0  0  0  0  0  0
  193.2590  176.4420  137.2320 C   0  0  0  0  0  0  0  0  0  0  0  0
  1 17  1  0  0  0  0
  1  9  1  0  0  0  0
  2  7  1  0  0  0  0
  3 14  1  1  0  0  0
  3  7  1  0  0  0  0
  4 11  1  0  0  0  0
  4 17  1  0  0  0  0
  5 13  1  0  0  0  0
  6 12  1  0  0  0  0
  7 20  1  1  0  0  0
  9 10  1  0  0  0  0
  9  3  1  0  0  0  0
 10 28  1  6  0  0  0
 10  3  1  0  0  0  0
 11 15  1  0  0  0  0
 12 11  2  0  0  0  0
 13  6  2  0  0  0  0
 13 19  1  0  0  0  0
 15  8  2  0  0  0  0
 16  1  2  0  0  0  0
 17 18  2  0  0  0  0
 18  8  1  0  0  0  0
 18  2  1  0  0  0  0
 19  4  2  0  0  0  0
 20 21  1  0  0  0  0
 21 23  1  0  0  0  0
 22 21  2  0  0  0  0
 23 24  1  0  0  0  0
 24 26  1  0  0  0  0
 25 24  2  0  0  0  0
 28 27  1  6  0  0  0
 29 28  1  0  0  0  0
 30 31  3  0  0  0  0
 31  6  1  0  0  0  0
M  END
>  <MODEL>
9

>  <REMARK>
 VINA RESULT:      -7.0      3.105      7.798
  Name = 
  5 active torsions:
  status: ('A' for Active; 'I' for Inactive)
    1  A    between atoms: N_3  and  C_9
    2  A    between atoms: C_8  and  C_26
    3  A    between atoms: C_10  and  C_15
    4  A    between atoms: C_13  and  C_28
    5  A    between atoms: C_15  and  C_17
                            x       y       z     vdW  Elec       q    Type
                         _______ _______ _______ _____ _____    ______ ____

>  <TORSDO>
F 5

$$$$
