=
 OpenBabel10222421343D

 65 77  0  0  1  0  0  0  0  0999 V2000
  190.8540  176.4100  142.9710 C   0  0  0  0  0  0  0  0  0  0  0  0
  189.6130  176.9460  141.0750 N   0  0  0  0  0  2  0  0  0  0  0  0
  186.0330  177.6370  144.5450 C   0  0  0  0  0  3  0  0  0  0  0  0
  189.2550  178.3290  143.0460 C   0  0  0  0  0  2  0  0  0  0  0  0
  188.5550  178.2920  144.3620 C   0  0  0  0  0  0  0  0  0  0  0  0
  189.5190  176.9130  142.5350 C   0  0  2  0  0  3  0  0  0  0  0  0
  190.4520  176.3580  145.4170 C   0  0  0  0  0  2  0  0  0  0  0  0
  189.3010  178.5980  145.6260 C   0  0  0  0  0  2  0  0  0  0  0  0
  187.2940  177.9570  144.4390 C   0  0  0  0  0  0  0  0  0  0  0  0
  191.0470  176.8400  140.8010 C   0  0  1  0  0  3  0  0  0  0  0  0
  191.2110  176.0150  144.2650 O   0  0  0  0  0  0  0  0  0  0  0  0
  191.6850  176.3300  141.9960 N   0  0  0  0  0  0  0  0  0  0  0  0
  190.6320  177.8380  145.7070 C   0  0  0  0  0  2  0  0  0  0  0  0
  191.4940  175.1760  138.7710 C   0  0  0  0  0  0  0  0  0  0  0  0
  191.2920  175.9640  139.6580 C   0  0  0  0  0  0  0  0  0  0  0  0
  191.7340  174.2070  137.7890 N   0  0  0  0  0  2  0  0  0  0  0  0
  195.4310  171.7980  137.5160 O   0  0  0  0  0  1  0  0  0  0  0  0
  193.2260  173.4610  134.6770 C   0  0  2  0  0  3  0  0  0  0  0  0
  193.9980  176.9790  134.3470 C   0  0  0  0  0  2  0  0  0  0  0  0
  194.1710  176.3840  135.5240 C   0  0  0  0  0  0  0  0  0  0  0  0
  196.4360  175.4260  135.4120 C   0  0  0  0  0  2  0  0  0  0  0  0
  191.8160  173.6920  135.2610 C   0  0  1  0  0  0  0  0  0  0  0  0
  195.5230  176.3850  136.1520 C   0  0  0  0  0  2  0  0  0  0  0  0
  191.9360  175.2220  135.5540 C   0  0  1  0  0  0  0  0  0  0  0  0
  195.1740  171.9750  135.1390 C   0  0  0  0  0  2  0  0  0  0  0  0
  197.2200  174.5820  136.3690 C   0  0  0  0  0  0  0  0  0  0  0  0
  197.1030  173.0800  136.3080 C   0  0  1  0  0  3  0  0  0  0  0  0
  193.6610  172.0260  134.8670 C   0  0  1  0  0  3  0  0  0  0  0  0
  191.1130  174.3980  136.4780 C   0  0  2  0  0  3  0  0  0  0  0  0
  198.0320  175.1140  137.1110 O   0  0  0  0  0  0  0  0  0  0  0  0
  193.1270  175.7180  136.1830 O   0  0  0  0  0  0  0  0  0  0  0  0
  192.8480  172.7510  135.9200 C   0  0  1  0  0  3  0  0  0  0  0  0
  197.8980  172.4700  137.2840 O   0  0  0  0  0  1  0  0  0  0  0  0
  195.6390  172.6500  136.4310 C   0  0  2  0  0  3  0  0  0  0  0  0
  189.9880  177.0540  136.9190 C   0  0  0  0  0  2  0  0  0  0  0  0
  187.6780  177.9940  136.5580 C   0  0  0  0  0  2  0  0  0  0  0  0
  190.1600  177.0090  135.4240 C   0  0  0  0  0  0  0  0  0  0  0  0
  187.8670  177.8880  135.0340 C   0  0  0  0  0  2  0  0  0  0  0  0
  188.9960  178.1410  137.3290 C   0  0  0  0  0  2  0  0  0  0  0  0
  189.3250  177.9140  134.5700 C   0  0  0  0  0  2  0  0  0  0  0  0
  191.0520  176.2010  134.8340 C   0  0  0  0  0  3  0  0  0  0  0  0
  185.2330  179.8660  144.4620 O   0  0  0  0  0  0  0  0  0  0  0  0
  184.9840  178.6560  144.7100 C   0  0  0  0  0  0  0  0  0  0  0  0
  180.8050  181.6670  138.3350 C   0  0  2  0  0  3  0  0  0  0  0  0
  182.8100  179.4240  145.4440 O   0  0  0  0  0  0  0  0  0  0  0  0
  181.0980  178.3240  141.7800 C   0  0  1  0  0  3  0  0  0  0  0  0
  182.1610  182.3280  138.3470 C   0  0  0  0  0  2  0  0  0  0  0  0
  183.1310  181.3700  138.6860 O   0  0  0  0  0  0  0  0  0  0  0  0
  183.6020  178.2880  145.1760 C   0  0  1  0  0  3  0  0  0  0  0  0
  180.3660  179.3120  138.7780 N   0  0  0  0  0  2  0  0  0  0  0  0
  182.6430  179.1330  139.4850 C   0  0  1  0  0  3  0  0  0  0  0  0
  182.5370  178.7450  144.2440 C   0  0  2  0  0  0  0  0  0  0  0  0
  182.5800  179.8550  140.6980 O   0  0  0  0  0  0  0  0  0  0  0  0
  181.3530  178.3560  139.2480 C   0  0  1  0  0  3  0  0  0  0  0  0
  181.1330  180.2530  137.9640 C   0  0  2  0  0  3  0  0  0  0  0  0
  182.8020  179.6590  143.0530 C   0  0  0  0  0  2  0  0  0  0  0  0
  182.6030  180.1140  138.3240 C   0  0  1  0  0  3  0  0  0  0  0  0
  181.1960  178.0370  144.2860 C   0  0  0  0  0  2  0  0  0  0  0  0
  182.5070  178.9310  141.7520 C   0  0  1  0  0  3  0  0  0  0  0  0
  180.8720  177.5680  140.4750 C   0  0  0  0  0  2  0  0  0  0  0  0
  180.9550  177.3450  142.9440 C   0  0  0  0  0  2  0  0  0  0  0  0
  179.9820  182.2800  137.3090 N   0  0  0  0  0  2  0  0  0  0  0  0
  180.0100  183.8820  135.4930 C   0  0  0  0  0  2  0  0  0  0  0  0
  180.7020  182.6210  135.0200 C   0  0  0  0  0  2  0  0  0  0  0  0
  180.8580  183.0740  136.4550 C   0  0  0  0  0  3  0  0  0  0  0  0
  1 11  1  0  0  0  0
  2  6  1  0  0  0  0
  3 43  1  0  0  0  0
  4  5  1  0  0  0  0
  5  9  2  0  0  0  0
  5  8  1  0  0  0  0
  6  1  1  0  0  0  0
  6  4  1  1  0  0  0
  7 13  1  0  0  0  0
  8 13  1  0  0  0  0
  9  3  2  0  0  0  0
 10 15  1  6  0  0  0
 10  2  1  0  0  0  0
 10 12  1  0  0  0  0
 11  7  1  0  0  0  0
 12  1  2  0  0  0  0
 14 15  3  0  0  0  0
 16 14  1  0  0  0  0
 18 28  1  0  0  0  0
 18 22  1  0  0  0  0
 18 32  1  0  0  0  0
 19 20  2  0  0  0  0
 20 23  1  0  0  0  0
 20 31  1  0  0  0  0
 21 23  1  0  0  0  0
 21 26  1  0  0  0  0
 22 24  1  0  0  0  0
 22 32  1  0  0  0  0
 22 29  1  0  0  0  0
 24 31  1  0  0  0  0
 24 29  1  0  0  0  0
 25 34  1  0  0  0  0
 26 30  2  0  0  0  0
 27 26  1  0  0  0  0
 27 34  1  0  0  0  0
 27 33  1  0  0  0  0
 28 25  1  0  0  0  0
 28 32  1  0  0  0  0
 29 16  1  0  0  0  0
 34 17  1  0  0  0  0
 35 39  1  0  0  0  0
 36 39  1  0  0  0  0
 37 35  1  0  0  0  0
 38 36  1  0  0  0  0
 40 38  1  0  0  0  0
 40 37  1  0  0  0  0
 41 37  2  0  0  0  0
 41 24  1  0  0  0  0
 42 43  2  0  0  0  0
 43 49  1  0  0  0  0
 44 47  1  0  0  0  0
 46 61  1  0  0  0  0
 47 48  1  0  0  0  0
 49 45  1  0  0  0  0
 50 54  1  0  0  0  0
 51 53  1  0  0  0  0
 52 58  1  0  0  0  0
 52 49  1  0  0  0  0
 52 45  1  0  0  0  0
 53 59  1  0  0  0  0
 54 51  1  0  0  0  0
 54 60  1  0  0  0  0
 55 57  1  0  0  0  0
 55 44  1  0  0  0  0
 55 50  1  0  0  0  0
 56 52  1  0  0  0  0
 57 48  1  0  0  0  0
 57 51  1  0  0  0  0
 59 46  1  0  0  0  0
 59 56  1  0  0  0  0
 60 46  1  0  0  0  0
 61 58  1  0  0  0  0
 62 44  1  0  0  0  0
 63 65  1  0  0  0  0
 64 63  1  0  0  0  0
 64 65  1  0  0  0  0
 65 62  1  0  0  0  0
M  END
>  <MODEL>
1

>  <REMARK>
 VINA RESULT:      -5.1      0.000      0.000
  Name = 
  8 active torsions:
  status: ('A' for Active; 'I' for Inactive)
    1  A    between atoms: C_2  and  N_16
    2  A    between atoms: C_7  and  N_60
    3  A    between atoms: N_16  and  C_58
    4  A    between atoms: C_17  and  C_19
    5  A    between atoms: C_19  and  C_21
    6  A    between atoms: C_27  and  C_50
    7  A    between atoms: C_29  and  C_62
    8  A    between atoms: C_45  and  N_60
                            x       y       z     vdW  Elec       q    Type
                         _______ _______ _______ _____ _____    ______ ____

>  <TORSDO>
F 8

$$$$
