=
 OpenBabel10232409483D

 45 49  0  0  1  0  0  0  0  0999 V2000
  188.2060  178.1700  140.1550 C   0  0  0  0  0  0  0  0  0  0  0  0
  186.9430  178.6140  140.0080 N   0  0  0  0  0  0  0  0  0  0  0  0
  188.4900  177.8110  141.4180 N   0  0  0  0  0  0  0  0  0  0  0  0
  189.1870  178.0790  139.1560 C   0  0  0  0  0  0  0  0  0  0  0  0
  190.7000  177.2460  140.8130 C   0  0  0  0  0  3  0  0  0  0  0  0
  190.4150  177.6110  139.5270 N   0  0  0  0  0  0  0  0  0  0  0  0
  187.3830  178.0160  142.1490 C   0  0  0  0  0  3  0  0  0  0  0  0
  189.7060  177.3390  141.7950 C   0  0  0  0  0  0  0  0  0  0  0  0
  186.4370  178.5120  141.2590 C   0  0  0  0  0  0  0  0  0  0  0  0
  185.0620  178.8890  141.6090 C   0  0  0  0  0  0  0  0  0  0  0  0
  184.8530  179.8030  142.4520 O   0  0  0  0  0  0  0  0  0  0  0  0
  183.9660  178.2130  140.9900 N   0  0  0  0  0  2  0  0  0  0  0  0
  181.9420  179.1450  140.0420 C   0  0  2  0  0  3  0  0  0  0  0  0
  181.6600  177.7380  140.3970 C   0  0  1  0  0  3  0  0  0  0  0  0
  182.5820  178.5540  141.2790 C   0  0  1  0  0  3  0  0  0  0  0  0
  180.6680  178.5760  139.8530 O   0  0  0  0  0  0  0  0  0  0  0  0
  188.9120  178.4430  137.7410 C   0  0  0  0  0  0  0  0  0  0  0  0
  189.2090  179.5970  137.3290 O   0  0  0  0  0  0  0  0  0  0  0  0
  188.3080  177.5320  136.8130 N   0  0  0  0  0  2  0  0  0  0  0  0
  188.0580  176.1520  137.0760 C   0  0  0  0  0  3  0  0  0  0  0  0
  182.9450  174.2040  137.0180 C   0  0  0  0  0  0  0  0  0  0  0  0
  184.1100  173.2950  137.1120 C   0  0  0  0  0  0  0  0  0  0  0  0
  186.8380  175.6970  137.0600 C   0  0  0  0  0  0  0  0  0  0  0  0
  184.6290  177.4060  136.8580 O   0  0  0  0  0  0  0  0  0  0  0  0
  184.4640  176.1590  136.9380 C   0  0  0  0  0  0  0  0  0  0  0  0
  186.4160  172.9300  137.2210 F   0  0  0  0  0  0  0  0  0  0  0  0
  185.6140  175.2390  137.0420 C   0  0  0  0  0  0  0  0  0  0  0  0
  185.3610  173.7830  137.1250 C   0  0  0  0  0  0  0  0  0  0  0  0
  183.1440  175.6170  136.9290 N   0  0  0  0  0  2  0  0  0  0  0  0
  181.7730  173.7410  137.0190 O   0  0  0  0  0  0  0  0  0  0  0  0
  183.8860  171.8200  137.2000 C   0  0  0  0  0  1  0  0  0  0  0  0
  190.0050  176.9720  143.2100 C   0  0  0  0  0  2  0  0  0  0  0  0
  191.3180  176.5170  143.3130 O   0  0  0  0  0  0  0  0  0  0  0  0
  191.5960  176.5590  144.6790 C   0  0  0  0  0  2  0  0  0  0  0  0
  190.5210  177.3490  145.4030 C   0  0  0  0  0  2  0  0  0  0  0  0
  190.5390  177.0430  146.7670 O   0  0  0  0  0  0  0  0  0  0  0  0
  189.0220  177.5170  147.3620 P   0  0  2  0  0  0  0  0  0  0  0  0
  189.1990  178.5900  148.4170 O   0  0  0  0  0  1  0  0  0  0  0  0
  188.2370  176.1790  148.0430 O   0  0  0  0  0  0  0  0  0  0  0  0
  188.1020  178.1320  146.0760 O   0  0  0  0  0  0  0  0  0  0  0  0
  186.8420  177.5460  146.2070 C   0  0  0  0  0  2  0  0  0  0  0  0
  185.3650  179.7390  145.1160 O   0  0  0  0  0  0  0  0  0  0  0  0
  184.2990  178.1890  146.9310 O   0  0  0  0  0  1  0  0  0  0  0  0
  185.6020  178.8320  146.5220 P   0  0  0  0  0  0  0  0  0  0  0  0
  186.1450  179.8470  147.7620 O   0  0  0  0  0  1  0  0  0  0  0  0
  1  3  1  0  0  0  0
  2  1  2  0  0  0  0
  2  9  1  0  0  0  0
  3  8  1  0  0  0  0
  3  7  1  0  0  0  0
  4  6  2  0  0  0  0
  4  1  1  0  0  0  0
  5  8  2  0  0  0  0
  6  5  1  0  0  0  0
  8 32  1  0  0  0  0
  9 10  1  0  0  0  0
  9  7  2  0  0  0  0
 10 11  2  0  0  0  0
 12 10  1  0  0  0  0
 13 16  1  1  0  0  0
 13 14  1  0  0  0  0
 13 15  1  0  0  0  0
 14 16  1  1  0  0  0
 14 15  1  0  0  0  0
 15 12  1  6  0  0  0
 17  4  1  0  0  0  0
 18 17  2  0  0  0  0
 19 20  1  0  0  0  0
 19 17  1  0  0  0  0
 21 30  2  0  0  0  0
 21 22  1  0  0  0  0
 22 28  2  0  0  0  0
 22 31  1  0  0  0  0
 23 20  2  0  0  0  0
 24 25  2  0  0  0  0
 25 27  1  0  0  0  0
 27 23  2  0  0  0  0
 27 28  1  0  0  0  0
 28 26  1  0  0  0  0
 29 25  1  0  0  0  0
 29 21  1  0  0  0  0
 32 33  1  0  0  0  0
 33 34  1  0  0  0  0
 34 35  1  0  0  0  0
 35 36  1  0  0  0  0
 36 37  1  0  0  0  0
 37 39  2  1  0  0  0
 37 38  1  0  0  0  0
 40 41  1  0  0  0  0
 40 37  1  0  0  0  0
 41 44  1  0  0  0  0
 42 44  2  0  0  0  0
 44 43  1  0  0  0  0
 44 45  1  0  0  0  0
M  END
>  <MODEL>
1

>  <REMARK>
 VINA RESULT:      -8.1      0.000      0.000
  Name = 
  13 active torsions:
  status: ('A' for Active; 'I' for Inactive)
    1  A    between atoms: C_1  and  O_22
    2  A    between atoms: C_1  and  C_41
    3  A    between atoms: C_2  and  N_37
    4  A    between atoms: C_6  and  O_16
    5  A    between atoms: C_6  and  P_36
    6  A    between atoms: O_8  and  C_9
    7  A    between atoms: O_8  and  P_12
    8  A    between atoms: C_9  and  C_19
    9  A    between atoms: C_10  and  C_42
   10  A    between atoms: P_12  and  O_16
   11  A    between atoms: N_13  and  C_30
   12  A    between atoms: C_19  and  O_22
   13  A    between atoms: C_21  and  C_26
                            x       y       z     vdW  Elec       q    Type
                         _______ _______ _______ _____ _____    ______ ____

>  <TORSDO>
F 13

$$$$
=
 OpenBabel10232409483D

 45 49  0  0  1  0  0  0  0  0999 V2000
  185.1500  176.7160  137.3390 C   0  0  0  0  0  0  0  0  0  0  0  0
  184.2120  175.7740  137.5600 N   0  0  0  0  0  0  0  0  0  0  0  0
  186.2000  176.2540  136.6400 N   0  0  0  0  0  0  0  0  0  0  0  0
  185.1200  178.0490  137.7750 C   0  0  0  0  0  0  0  0  0  0  0  0
  187.2550  178.3620  136.7390 C   0  0  0  0  0  3  0  0  0  0  0  0
  186.1890  178.8360  137.4510 N   0  0  0  0  0  0  0  0  0  0  0  0
  185.9630  174.9590  136.3750 C   0  0  0  0  0  3  0  0  0  0  0  0
  187.2630  177.0300  136.3090 C   0  0  0  0  0  0  0  0  0  0  0  0
  184.7300  174.6810  136.9520 C   0  0  0  0  0  0  0  0  0  0  0  0
  184.0570  173.3770  136.9230 C   0  0  0  0  0  0  0  0  0  0  0  0
  184.5540  172.3970  137.5400 O   0  0  0  0  0  0  0  0  0  0  0  0
  182.8390  173.2270  136.1900 N   0  0  0  0  0  2  0  0  0  0  0  0
  181.2710  171.8230  137.3870 C   0  0  2  0  0  3  0  0  0  0  0  0
  180.6240  172.2350  136.1220 C   0  0  1  0  0  3  0  0  0  0  0  0
  182.1150  171.9670  136.1400 C   0  0  1  0  0  3  0  0  0  0  0  0
  179.9820  171.3760  137.0350 O   0  0  0  0  0  0  0  0  0  0  0  0
  183.9710  178.6100  138.5330 C   0  0  0  0  0  0  0  0  0  0  0  0
  182.8530  178.7290  137.9630 O   0  0  0  0  0  0  0  0  0  0  0  0
  184.0800  179.0340  139.8980 N   0  0  0  0  0  2  0  0  0  0  0  0
  185.2230  178.8240  140.7250 C   0  0  0  0  0  3  0  0  0  0  0  0
  184.6930  178.5150  146.1620 C   0  0  0  0  0  0  0  0  0  0  0  0
  185.9770  178.1920  145.4980 C   0  0  0  0  0  0  0  0  0  0  0  0
  185.0880  178.7510  142.0170 C   0  0  0  0  0  0  0  0  0  0  0  0
  182.6590  179.3350  143.2810 O   0  0  0  0  0  0  0  0  0  0  0  0
  183.6630  178.9910  143.9610 C   0  0  0  0  0  0  0  0  0  0  0  0
  187.2880  177.9790  143.5740 F   0  0  0  0  0  0  0  0  0  0  0  0
  184.9520  178.6760  143.3160 C   0  0  0  0  0  0  0  0  0  0  0  0
  186.0960  178.2700  144.1630 C   0  0  0  0  0  0  0  0  0  0  0  0
  183.5610  178.9040  145.3820 N   0  0  0  0  0  2  0  0  0  0  0  0
  184.5910  178.4510  147.4160 O   0  0  0  0  0  0  0  0  0  0  0  0
  187.1500  177.7830  146.3270 C   0  0  0  0  0  1  0  0  0  0  0  0
  188.4300  176.4860  135.5530 C   0  0  0  0  0  2  0  0  0  0  0  0
  189.6170  176.9140  136.1460 O   0  0  0  0  0  0  0  0  0  0  0  0
  189.8020  176.0450  137.2220 C   0  0  0  0  0  2  0  0  0  0  0  0
  190.4750  176.7770  138.3690 C   0  0  0  0  0  2  0  0  0  0  0  0
  190.6910  175.8980  139.4360 O   0  0  0  0  0  0  0  0  0  0  0  0
  190.5040  176.8320  140.8410 P   0  0  2  0  0  0  0  0  0  0  0  0
  189.2450  177.6680  140.7370 O   0  0  0  0  0  0  0  0  0  0  0  0
  191.8460  177.8500  141.0260 O   0  0  0  0  0  1  0  0  0  0  0  0
  190.3850  175.7890  142.1740 O   0  0  0  0  0  0  0  0  0  0  0  0
  189.8460  176.5610  143.2040 C   0  0  0  0  0  2  0  0  0  0  0  0
  190.3230  176.8310  146.0110 O   0  0  0  0  0  1  0  0  0  0  0  0
  192.0720  175.6460  144.4730 O   0  0  0  0  0  1  0  0  0  0  0  0
  191.0880  176.7910  144.5060 P   0  0  0  0  0  0  0  0  0  0  0  0
  191.9100  178.2480  144.2520 O   0  0  0  0  0  0  0  0  0  0  0  0
  1  2  2  0  0  0  0
  1  4  1  0  0  0  0
  3  1  1  0  0  0  0
  4 17  1  0  0  0  0
  5  6  1  0  0  0  0
  6  4  2  0  0  0  0
  7  3  1  0  0  0  0
  7  9  2  0  0  0  0
  8  3  1  0  0  0  0
  8  5  2  0  0  0  0
  9  2  1  0  0  0  0
 10  9  1  0  0  0  0
 10 11  2  0  0  0  0
 12 10  1  0  0  0  0
 13 16  1  6  0  0  0
 14 15  1  0  0  0  0
 14 16  1  6  0  0  0
 14 13  1  0  0  0  0
 15 12  1  1  0  0  0
 15 13  1  0  0  0  0
 17 19  1  0  0  0  0
 18 17  2  0  0  0  0
 19 20  1  0  0  0  0
 20 23  2  0  0  0  0
 21 30  2  0  0  0  0
 22 21  1  0  0  0  0
 22 31  1  0  0  0  0
 23 27  2  0  0  0  0
 24 25  2  0  0  0  0
 25 29  1  0  0  0  0
 26 28  1  0  0  0  0
 27 25  1  0  0  0  0
 27 28  1  0  0  0  0
 28 22  2  0  0  0  0
 29 21  1  0  0  0  0
 32 33  1  0  0  0  0
 32  8  1  0  0  0  0
 33 34  1  0  0  0  0
 34 35  1  0  0  0  0
 35 36  1  0  0  0  0
 36 37  1  0  0  0  0
 37 38  2  6  0  0  0
 37 39  1  0  0  0  0
 37 40  1  0  0  0  0
 40 41  1  0  0  0  0
 41 44  1  0  0  0  0
 43 44  1  0  0  0  0
 44 42  1  0  0  0  0
 45 44  2  0  0  0  0
M  END
>  <MODEL>
2

>  <REMARK>
 VINA RESULT:      -8.0      2.746      7.274
  Name = 
  13 active torsions:
  status: ('A' for Active; 'I' for Inactive)
    1  A    between atoms: C_1  and  O_22
    2  A    between atoms: C_1  and  C_41
    3  A    between atoms: C_2  and  N_37
    4  A    between atoms: C_6  and  O_16
    5  A    between atoms: C_6  and  P_36
    6  A    between atoms: O_8  and  C_9
    7  A    between atoms: O_8  and  P_12
    8  A    between atoms: C_9  and  C_19
    9  A    between atoms: C_10  and  C_42
   10  A    between atoms: P_12  and  O_16
   11  A    between atoms: N_13  and  C_30
   12  A    between atoms: C_19  and  O_22
   13  A    between atoms: C_21  and  C_26
                            x       y       z     vdW  Elec       q    Type
                         _______ _______ _______ _____ _____    ______ ____

>  <TORSDO>
F 13

$$$$
=
 OpenBabel10232409483D

 45 49  0  0  1  0  0  0  0  0999 V2000
  183.3620  177.2420  139.3460 C   0  0  0  0  0  0  0  0  0  0  0  0
  182.3040  176.4350  139.5580 N   0  0  0  0  0  0  0  0  0  0  0  0
  183.9640  177.0160  138.1680 N   0  0  0  0  0  0  0  0  0  0  0  0
  183.8580  178.2230  140.2180 C   0  0  0  0  0  0  0  0  0  0  0  0
  185.5670  178.6900  138.6090 C   0  0  0  0  0  3  0  0  0  0  0  0
  184.9570  178.9230  139.8100 N   0  0  0  0  0  0  0  0  0  0  0  0
  183.2900  176.0260  137.5600 C   0  0  0  0  0  3  0  0  0  0  0  0
  185.0530  177.7110  137.7510 C   0  0  0  0  0  0  0  0  0  0  0  0
  182.2670  175.6810  138.4350 C   0  0  0  0  0  0  0  0  0  0  0  0
  181.2680  174.6330  138.1960 C   0  0  0  0  0  0  0  0  0  0  0  0
  180.1460  174.6900  138.7670 O   0  0  0  0  0  0  0  0  0  0  0  0
  181.5760  173.5510  137.3150 N   0  0  0  0  0  2  0  0  0  0  0  0
  180.5660  172.2680  135.5270 C   0  0  2  0  0  3  0  0  0  0  0  0
  181.3340  171.3270  136.3710 C   0  0  1  0  0  3  0  0  0  0  0  0
  180.6210  172.4940  137.0220 C   0  0  1  0  0  3  0  0  0  0  0  0
  180.5930  170.8850  135.2590 O   0  0  0  0  0  0  0  0  0  0  0  0
  183.2110  178.5240  141.5230 C   0  0  0  0  0  0  0  0  0  0  0  0
  181.9830  178.8020  141.5560 O   0  0  0  0  0  0  0  0  0  0  0  0
  183.9340  178.5200  142.7610 N   0  0  0  0  0  2  0  0  0  0  0  0
  185.2820  178.0780  142.9130 C   0  0  0  0  0  3  0  0  0  0  0  0
  187.6590  178.0700  147.8420 C   0  0  0  0  0  0  0  0  0  0  0  0
  188.3160  177.4400  146.6730 C   0  0  0  0  0  0  0  0  0  0  0  0
  185.8390  178.0790  144.0890 C   0  0  0  0  0  0  0  0  0  0  0  0
  184.5950  179.2460  146.3100 O   0  0  0  0  0  0  0  0  0  0  0  0
  185.7260  178.7020  146.4270 C   0  0  0  0  0  0  0  0  0  0  0  0
  188.3490  176.8710  144.4070 F   0  0  0  0  0  0  0  0  0  0  0  0
  186.4000  178.0780  145.2710 C   0  0  0  0  0  0  0  0  0  0  0  0
  187.7230  177.4470  145.4680 C   0  0  0  0  0  0  0  0  0  0  0  0
  186.3760  178.6850  147.6970 N   0  0  0  0  0  2  0  0  0  0  0  0
  188.2250  178.0710  148.9680 O   0  0  0  0  0  0  0  0  0  0  0  0
  189.6540  176.7980  146.8410 C   0  0  0  0  0  1  0  0  0  0  0  0
  185.7200  177.4220  136.4480 C   0  0  0  0  0  2  0  0  0  0  0  0
  186.8280  178.2540  136.2900 O   0  0  0  0  0  0  0  0  0  0  0  0
  187.5030  177.7310  135.1860 C   0  0  0  0  0  2  0  0  0  0  0  0
  188.9750  177.5580  135.5120 C   0  0  0  0  0  2  0  0  0  0  0  0
  189.2910  178.2480  136.6860 O   0  0  0  0  0  0  0  0  0  0  0  0
  189.9710  177.0930  137.7270 P   0  0  2  0  0  0  0  0  0  0  0  0
  191.1310  176.4030  137.0380 O   0  0  0  0  0  0  0  0  0  0  0  0
  188.7960  175.9450  138.1430 O   0  0  0  0  0  1  0  0  0  0  0  0
  190.5260  177.8790  139.1230 O   0  0  0  0  0  0  0  0  0  0  0  0
  191.0040  176.8660  139.9570 C   0  0  0  0  0  2  0  0  0  0  0  0
  190.2440  175.5640  142.3870 O   0  0  0  0  0  1  0  0  0  0  0  0
  191.1780  178.0050  142.4220 O   0  0  0  0  0  1  0  0  0  0  0  0
  190.3080  177.0670  141.6190 P   0  0  0  0  0  0  0  0  0  0  0  0
  188.7460  177.7080  141.5040 O   0  0  0  0  0  0  0  0  0  0  0  0
  1  2  2  0  0  0  0
  1  4  1  0  0  0  0
  3  1  1  0  0  0  0
  4 17  1  0  0  0  0
  5  6  1  0  0  0  0
  6  4  2  0  0  0  0
  7  3  1  0  0  0  0
  7  9  2  0  0  0  0
  8  3  1  0  0  0  0
  8  5  2  0  0  0  0
  9  2  1  0  0  0  0
 10  9  1  0  0  0  0
 10 11  2  0  0  0  0
 12 10  1  0  0  0  0
 13 16  1  1  0  0  0
 13 14  1  0  0  0  0
 13 15  1  0  0  0  0
 14 16  1  1  0  0  0
 14 15  1  0  0  0  0
 15 12  1  6  0  0  0
 17 18  2  0  0  0  0
 17 19  1  0  0  0  0
 19 20  1  0  0  0  0
 20 23  2  0  0  0  0
 21 30  2  0  0  0  0
 22 31  1  0  0  0  0
 22 21  1  0  0  0  0
 23 27  2  0  0  0  0
 24 25  2  0  0  0  0
 25 29  1  0  0  0  0
 26 28  1  0  0  0  0
 27 28  1  0  0  0  0
 27 25  1  0  0  0  0
 28 22  2  0  0  0  0
 29 21  1  0  0  0  0
 32  8  1  0  0  0  0
 33 32  1  0  0  0  0
 34 35  1  0  0  0  0
 34 33  1  0  0  0  0
 35 36  1  0  0  0  0
 36 37  1  0  0  0  0
 37 38  2  6  0  0  0
 37 39  1  0  0  0  0
 37 40  1  0  0  0  0
 40 41  1  0  0  0  0
 41 44  1  0  0  0  0
 44 42  1  0  0  0  0
 44 43  1  0  0  0  0
 45 44  2  0  0  0  0
M  END
>  <MODEL>
3

>  <REMARK>
 VINA RESULT:      -7.9      3.175      8.542
  Name = 
  13 active torsions:
  status: ('A' for Active; 'I' for Inactive)
    1  A    between atoms: C_1  and  O_22
    2  A    between atoms: C_1  and  C_41
    3  A    between atoms: C_2  and  N_37
    4  A    between atoms: C_6  and  O_16
    5  A    between atoms: C_6  and  P_36
    6  A    between atoms: O_8  and  C_9
    7  A    between atoms: O_8  and  P_12
    8  A    between atoms: C_9  and  C_19
    9  A    between atoms: C_10  and  C_42
   10  A    between atoms: P_12  and  O_16
   11  A    between atoms: N_13  and  C_30
   12  A    between atoms: C_19  and  O_22
   13  A    between atoms: C_21  and  C_26
                            x       y       z     vdW  Elec       q    Type
                         _______ _______ _______ _____ _____    ______ ____

>  <TORSDO>
F 13

$$$$
=
 OpenBabel10232409483D

 45 49  0  0  1  0  0  0  0  0999 V2000
  190.7760  176.5000  138.4280 C   0  0  0  0  0  0  0  0  0  0  0  0
  191.6740  175.5030  138.5540 N   0  0  0  0  0  0  0  0  0  0  0  0
  190.2710  176.5950  137.1870 N   0  0  0  0  0  0  0  0  0  0  0  0
  190.3730  177.3990  139.4270 C   0  0  0  0  0  0  0  0  0  0  0  0
  188.9440  178.4410  137.8150 C   0  0  0  0  0  3  0  0  0  0  0  0
  189.4560  178.3490  139.0780 N   0  0  0  0  0  0  0  0  0  0  0  0
  190.8420  175.6280  136.4500 C   0  0  0  0  0  3  0  0  0  0  0  0
  189.3550  177.5320  136.8330 C   0  0  0  0  0  0  0  0  0  0  0  0
  191.7060  174.9630  137.3130 C   0  0  0  0  0  0  0  0  0  0  0  0
  192.5560  173.8250  136.9480 C   0  0  0  0  0  0  0  0  0  0  0  0
  192.1620  172.9930  136.0860 O   0  0  0  0  0  0  0  0  0  0  0  0
  193.8310  173.6660  137.5750 N   0  0  0  0  0  2  0  0  0  0  0  0
  195.9950  173.1280  136.6310 C   0  0  2  0  0  3  0  0  0  0  0  0
  196.0050  172.6930  138.0450 C   0  0  1  0  0  3  0  0  0  0  0  0
  194.7270  172.5710  137.2410 C   0  0  1  0  0  3  0  0  0  0  0  0
  197.1130  172.4870  137.2010 O   0  0  0  0  0  0  0  0  0  0  0  0
  190.8880  177.3190  140.8190 C   0  0  0  0  0  0  0  0  0  0  0  0
  192.1300  177.3800  141.0250 O   0  0  0  0  0  0  0  0  0  0  0  0
  190.0240  177.1660  141.9530 N   0  0  0  0  0  2  0  0  0  0  0  0
  188.6000  177.2380  141.9050 C   0  0  0  0  0  3  0  0  0  0  0  0
  185.7320  178.4620  146.4010 C   0  0  0  0  0  0  0  0  0  0  0  0
  185.0800  178.3890  145.0730 C   0  0  0  0  0  0  0  0  0  0  0  0
  187.9260  177.5310  142.9790 C   0  0  0  0  0  0  0  0  0  0  0  0
  189.1520  177.6970  145.4910 O   0  0  0  0  0  0  0  0  0  0  0  0
  187.9150  177.9050  145.3720 C   0  0  0  0  0  0  0  0  0  0  0  0
  185.1730  178.0160  142.7680 F   0  0  0  0  0  0  0  0  0  0  0  0
  187.2480  177.8260  144.0580 C   0  0  0  0  0  0  0  0  0  0  0  0
  185.7940  178.0880  143.9760 C   0  0  0  0  0  0  0  0  0  0  0  0
  187.1360  178.2240  146.5250 N   0  0  0  0  0  2  0  0  0  0  0  0
  185.0550  178.7340  147.4290 O   0  0  0  0  0  0  0  0  0  0  0  0
  183.6130  178.6460  144.9600 C   0  0  0  0  0  1  0  0  0  0  0  0
  188.8290  177.6320  135.4410 C   0  0  0  0  0  2  0  0  0  0  0  0
  187.4830  177.2670  135.4170 O   0  0  0  0  0  0  0  0  0  0  0  0
  187.5000  175.8860  135.2200 C   0  0  0  0  0  2  0  0  0  0  0  0
  186.1620  175.2890  135.6160 C   0  0  0  0  0  2  0  0  0  0  0  0
  185.2220  176.3060  135.8090 O   0  0  0  0  0  0  0  0  0  0  0  0
  184.0390  175.6480  136.8330 P   0  0  2  0  0  0  0  0  0  0  0  0
  184.6180  174.4720  137.5930 O   0  0  0  0  0  1  0  0  0  0  0  0
  182.7160  175.1300  135.9100 O   0  0  0  0  0  0  0  0  0  0  0  0
  183.5440  176.8440  137.9290 O   0  0  0  0  0  0  0  0  0  0  0  0
  184.4660  177.8820  137.7900 C   0  0  0  0  0  2  0  0  0  0  0  0
  184.1110  180.4550  138.9870 O   0  0  0  0  0  0  0  0  0  0  0  0
  183.5530  178.2780  140.3220 O   0  0  0  0  0  1  0  0  0  0  0  0
  184.5270  178.8520  139.3210 P   0  0  0  0  0  0  0  0  0  0  0  0
  186.0920  178.7980  139.9620 O   0  0  0  0  0  1  0  0  0  0  0  0
  1  2  2  0  0  0  0
  1  4  1  0  0  0  0
  3  1  1  0  0  0  0
  4 17  1  0  0  0  0
  5  6  1  0  0  0  0
  6  4  2  0  0  0  0
  7  3  1  0  0  0  0
  7  9  2  0  0  0  0
  8  3  1  0  0  0  0
  8  5  2  0  0  0  0
  9  2  1  0  0  0  0
 10  9  1  0  0  0  0
 10 12  1  0  0  0  0
 11 10  2  0  0  0  0
 13 16  1  6  0  0  0
 13 15  1  0  0  0  0
 13 14  1  0  0  0  0
 14 16  1  6  0  0  0
 15 12  1  1  0  0  0
 15 14  1  0  0  0  0
 17 18  2  0  0  0  0
 17 19  1  0  0  0  0
 20 19  1  0  0  0  0
 20 23  2  0  0  0  0
 21 29  1  0  0  0  0
 21 30  2  0  0  0  0
 22 21  1  0  0  0  0
 23 27  2  0  0  0  0
 25 24  2  0  0  0  0
 25 29  1  0  0  0  0
 26 28  1  0  0  0  0
 27 25  1  0  0  0  0
 28 27  1  0  0  0  0
 28 22  2  0  0  0  0
 31 22  1  0  0  0  0
 32  8  1  0  0  0  0
 33 32  1  0  0  0  0
 34 33  1  0  0  0  0
 34 35  1  0  0  0  0
 35 36  1  0  0  0  0
 36 37  1  0  0  0  0
 37 39  2  6  0  0  0
 37 38  1  0  0  0  0
 37 40  1  0  0  0  0
 41 40  1  0  0  0  0
 41 44  1  0  0  0  0
 42 44  2  0  0  0  0
 44 45  1  0  0  0  0
 44 43  1  0  0  0  0
M  END
>  <MODEL>
4

>  <REMARK>
 VINA RESULT:      -7.8      4.164      9.437
  Name = 
  13 active torsions:
  status: ('A' for Active; 'I' for Inactive)
    1  A    between atoms: C_1  and  O_22
    2  A    between atoms: C_1  and  C_41
    3  A    between atoms: C_2  and  N_37
    4  A    between atoms: C_6  and  O_16
    5  A    between atoms: C_6  and  P_36
    6  A    between atoms: O_8  and  C_9
    7  A    between atoms: O_8  and  P_12
    8  A    between atoms: C_9  and  C_19
    9  A    between atoms: C_10  and  C_42
   10  A    between atoms: P_12  and  O_16
   11  A    between atoms: N_13  and  C_30
   12  A    between atoms: C_19  and  O_22
   13  A    between atoms: C_21  and  C_26
                            x       y       z     vdW  Elec       q    Type
                         _______ _______ _______ _____ _____    ______ ____

>  <TORSDO>
F 13

$$$$
=
 OpenBabel10232409483D

 45 49  0  0  1  0  0  0  0  0999 V2000
  189.8630  177.6150  139.0690 C   0  0  0  0  0  0  0  0  0  0  0  0
  190.7720  177.3700  138.1050 N   0  0  0  0  0  0  0  0  0  0  0  0
  190.1930  177.0680  140.2500 N   0  0  0  0  0  0  0  0  0  0  0  0
  188.6680  178.3370  138.9310 C   0  0  0  0  0  0  0  0  0  0  0  0
  188.2190  177.8970  141.2410 C   0  0  0  0  0  3  0  0  0  0  0  0
  187.8790  178.4550  140.0410 N   0  0  0  0  0  0  0  0  0  0  0  0
  191.3650  176.4350  140.0820 C   0  0  0  0  0  3  0  0  0  0  0  0
  189.4190  177.1850  141.3590 C   0  0  0  0  0  0  0  0  0  0  0  0
  191.7070  176.6330  138.7490 C   0  0  0  0  0  0  0  0  0  0  0  0
  192.9170  176.1160  138.1010 C   0  0  0  0  0  0  0  0  0  0  0  0
  193.7330  176.9110  137.5600 O   0  0  0  0  0  0  0  0  0  0  0  0
  193.1640  174.7080  138.0860 N   0  0  0  0  0  2  0  0  0  0  0  0
  195.4510  174.0410  138.5150 C   0  0  2  0  0  3  0  0  0  0  0  0
  194.6930  172.8230  138.1530 C   0  0  1  0  0  3  0  0  0  0  0  0
  194.3550  174.1360  137.4770 C   0  0  1  0  0  3  0  0  0  0  0  0
  196.0730  172.7790  138.4280 O   0  0  0  0  0  0  0  0  0  0  0  0
  188.2720  178.9790  137.6500 C   0  0  0  0  0  0  0  0  0  0  0  0
  188.9760  179.9130  137.1820 O   0  0  0  0  0  0  0  0  0  0  0  0
  187.1040  178.5820  136.9180 N   0  0  0  0  0  2  0  0  0  0  0  0
  186.2960  177.4490  137.2290 C   0  0  0  0  0  3  0  0  0  0  0  0
  181.7010  178.0390  140.1420 C   0  0  0  0  0  0  0  0  0  0  0  0
  182.0380  176.7500  139.4940 C   0  0  0  0  0  0  0  0  0  0  0  0
  185.2040  177.5990  137.9220 C   0  0  0  0  0  0  0  0  0  0  0  0
  184.5450  180.0380  139.1280 O   0  0  0  0  0  0  0  0  0  0  0  0
  183.7810  179.0430  139.2460 C   0  0  0  0  0  0  0  0  0  0  0  0
  183.4630  175.4200  138.2040 F   0  0  0  0  0  0  0  0  0  0  0  0
  184.1060  177.7490  138.6170 C   0  0  0  0  0  0  0  0  0  0  0  0
  183.1680  176.6160  138.7820 C   0  0  0  0  0  0  0  0  0  0  0  0
  182.5760  179.1610  140.0020 N   0  0  0  0  0  2  0  0  0  0  0  0
  180.6450  178.1550  140.8190 O   0  0  0  0  0  0  0  0  0  0  0  0
  181.1120  175.5880  139.6460 C   0  0  0  0  0  1  0  0  0  0  0  0
  189.7950  176.5460  142.6530 C   0  0  0  0  0  2  0  0  0  0  0  0
  189.9360  177.5210  143.6390 O   0  0  0  0  0  0  0  0  0  0  0  0
  190.5690  176.8630  144.6930 C   0  0  0  0  0  2  0  0  0  0  0  0
  189.9670  177.3020  146.0160 C   0  0  0  0  0  2  0  0  0  0  0  0
  188.9040  178.1810  145.7890 O   0  0  0  0  0  0  0  0  0  0  0  0
  187.7030  177.7430  146.9060 P   0  0  2  0  0  0  0  0  0  0  0  0
  187.3860  178.9200  147.8050 O   0  0  0  0  0  0  0  0  0  0  0  0
  188.2520  176.4440  147.8460 O   0  0  0  0  0  1  0  0  0  0  0  0
  186.3090  177.2880  146.0540 O   0  0  0  0  0  0  0  0  0  0  0  0
  185.4560  178.3920  146.1190 C   0  0  0  0  0  2  0  0  0  0  0  0
  185.1110  180.3630  144.0760 O   0  0  0  0  0  1  0  0  0  0  0  0
  185.4590  177.8490  143.4520 O   0  0  0  0  0  0  0  0  0  0  0  0
  184.7970  178.7500  144.4680 P   0  0  0  0  0  0  0  0  0  0  0  0
  183.1270  178.4820  144.4560 O   0  0  0  0  0  1  0  0  0  0  0  0
  1  3  1  0  0  0  0
  2  9  1  0  0  0  0
  2  1  2  0  0  0  0
  3  8  1  0  0  0  0
  4  1  1  0  0  0  0
  4  6  2  0  0  0  0
  5  8  2  0  0  0  0
  6  5  1  0  0  0  0
  7  3  1  0  0  0  0
  8 32  1  0  0  0  0
  9  7  2  0  0  0  0
 10  9  1  0  0  0  0
 11 10  2  0  0  0  0
 12 10  1  0  0  0  0
 13 16  1  6  0  0  0
 14 16  1  6  0  0  0
 14 13  1  0  0  0  0
 15 12  1  1  0  0  0
 15 14  1  0  0  0  0
 15 13  1  0  0  0  0
 17  4  1  0  0  0  0
 18 17  2  0  0  0  0
 19 20  1  0  0  0  0
 19 17  1  0  0  0  0
 20 23  2  0  0  0  0
 21 30  2  0  0  0  0
 22 31  1  0  0  0  0
 22 21  1  0  0  0  0
 23 27  2  0  0  0  0
 24 25  2  0  0  0  0
 25 29  1  0  0  0  0
 26 28  1  0  0  0  0
 27 28  1  0  0  0  0
 27 25  1  0  0  0  0
 28 22  2  0  0  0  0
 29 21  1  0  0  0  0
 32 33  1  0  0  0  0
 33 34  1  0  0  0  0
 34 35  1  0  0  0  0
 36 35  1  0  0  0  0
 36 37  1  0  0  0  0
 37 38  2  1  0  0  0
 37 39  1  0  0  0  0
 40 41  1  0  0  0  0
 40 37  1  0  0  0  0
 42 44  1  0  0  0  0
 43 44  2  0  0  0  0
 44 41  1  0  0  0  0
 45 44  1  0  0  0  0
M  END
>  <MODEL>
5

>  <REMARK>
 VINA RESULT:      -7.7      2.784      5.849
  Name = 
  13 active torsions:
  status: ('A' for Active; 'I' for Inactive)
    1  A    between atoms: C_1  and  O_22
    2  A    between atoms: C_1  and  C_41
    3  A    between atoms: C_2  and  N_37
    4  A    between atoms: C_6  and  O_16
    5  A    between atoms: C_6  and  P_36
    6  A    between atoms: O_8  and  C_9
    7  A    between atoms: O_8  and  P_12
    8  A    between atoms: C_9  and  C_19
    9  A    between atoms: C_10  and  C_42
   10  A    between atoms: P_12  and  O_16
   11  A    between atoms: N_13  and  C_30
   12  A    between atoms: C_19  and  O_22
   13  A    between atoms: C_21  and  C_26
                            x       y       z     vdW  Elec       q    Type
                         _______ _______ _______ _____ _____    ______ ____

>  <TORSDO>
F 13

$$$$
=
 OpenBabel10232409483D

 45 49  0  0  1  0  0  0  0  0999 V2000
  191.3030  176.4610  138.5050 C   0  0  0  0  0  0  0  0  0  0  0  0
  192.5490  176.0280  138.2330 N   0  0  0  0  0  0  0  0  0  0  0  0
  190.4480  176.2670  137.4880 N   0  0  0  0  0  0  0  0  0  0  0  0
  190.8670  177.0780  139.6880 C   0  0  0  0  0  0  0  0  0  0  0  0
  188.6890  177.2540  138.7120 C   0  0  0  0  0  3  0  0  0  0  0  0
  189.5560  177.4540  139.7490 N   0  0  0  0  0  0  0  0  0  0  0  0
  191.1370  175.6790  136.4960 C   0  0  0  0  0  3  0  0  0  0  0  0
  189.1420  176.6320  137.5420 C   0  0  0  0  0  0  0  0  0  0  0  0
  192.4340  175.5390  136.9760 C   0  0  0  0  0  0  0  0  0  0  0  0
  193.5510  174.9460  136.2320 C   0  0  0  0  0  0  0  0  0  0  0  0
  193.3530  173.9580  135.4760 O   0  0  0  0  0  0  0  0  0  0  0  0
  194.8640  175.4970  136.3730 N   0  0  0  0  0  2  0  0  0  0  0  0
  197.0720  176.0360  135.5400 C   0  0  2  0  0  3  0  0  0  0  0  0
  197.2250  174.9640  136.5480 C   0  0  1  0  0  3  0  0  0  0  0  0
  196.0070  174.9670  135.6470 C   0  0  1  0  0  3  0  0  0  0  0  0
  198.3300  175.4800  135.8430 O   0  0  0  0  0  0  0  0  0  0  0  0
  191.7720  177.2940  140.8480 C   0  0  0  0  0  0  0  0  0  0  0  0
  193.0180  177.3310  140.6640 O   0  0  0  0  0  0  0  0  0  0  0  0
  191.2830  177.4560  142.1870 N   0  0  0  0  0  2  0  0  0  0  0  0
  189.9080  177.5940  142.5380 C   0  0  0  0  0  3  0  0  0  0  0  0
  188.3820  177.6500  147.7930 C   0  0  0  0  0  0  0  0  0  0  0  0
  187.4200  177.9690  146.7120 C   0  0  0  0  0  0  0  0  0  0  0  0
  189.5540  177.6070  143.7910 C   0  0  0  0  0  0  0  0  0  0  0  0
  191.3700  177.0310  145.8430 O   0  0  0  0  0  0  0  0  0  0  0  0
  190.1710  177.3120  146.1140 C   0  0  0  0  0  0  0  0  0  0  0  0
  186.9030  178.2390  144.4490 F   0  0  0  0  0  0  0  0  0  0  0  0
  189.1980  177.6220  145.0490 C   0  0  0  0  0  0  0  0  0  0  0  0
  187.8050  177.9530  145.4260 C   0  0  0  0  0  0  0  0  0  0  0  0
  189.7390  177.3330  147.4740 N   0  0  0  0  0  2  0  0  0  0  0  0
  188.0120  177.6560  148.9970 O   0  0  0  0  0  0  0  0  0  0  0  0
  186.0070  178.3040  147.0620 C   0  0  0  0  0  1  0  0  0  0  0  0
  188.2180  176.4280  136.3880 C   0  0  0  0  0  2  0  0  0  0  0  0
  187.2410  177.4220  136.3840 O   0  0  0  0  0  0  0  0  0  0  0  0
  186.0540  176.7450  136.6650 C   0  0  0  0  0  2  0  0  0  0  0  0
  185.0630  177.6860  137.3270 C   0  0  0  0  0  2  0  0  0  0  0  0
  185.7440  178.6300  138.1020 O   0  0  0  0  0  0  0  0  0  0  0  0
  184.6230  179.1670  139.2580 P   0  0  2  0  0  0  0  0  0  0  0  0
  184.0680  180.5140  138.8450 O   0  0  0  0  0  0  0  0  0  0  0  0
  185.3870  179.3060  140.7640 O   0  0  0  0  0  1  0  0  0  0  0  0
  183.3610  178.0380  139.3550 O   0  0  0  0  0  0  0  0  0  0  0  0
  182.1850  178.7850  139.2530 C   0  0  0  0  0  2  0  0  0  0  0  0
  180.3710  177.3760  140.9570 O   0  0  0  0  0  0  0  0  0  0  0  0
  182.3230  178.7870  141.9710 O   0  0  0  0  0  1  0  0  0  0  0  0
  181.3160  178.7710  140.8460 P   0  0  0  0  0  0  0  0  0  0  0  0
  180.3230  180.1360  140.9580 O   0  0  0  0  0  1  0  0  0  0  0  0
  1  4  1  0  0  0  0
  2  1  2  0  0  0  0
  3  8  1  0  0  0  0
  3  1  1  0  0  0  0
  4  6  2  0  0  0  0
  4 17  1  0  0  0  0
  5  6  1  0  0  0  0
  7  9  2  0  0  0  0
  7  3  1  0  0  0  0
  8  5  2  0  0  0  0
  9  2  1  0  0  0  0
 10 12  1  0  0  0  0
 10  9  1  0  0  0  0
 11 10  2  0  0  0  0
 13 15  1  0  0  0  0
 13 16  1  6  0  0  0
 13 14  1  0  0  0  0
 14 16  1  6  0  0  0
 15 12  1  1  0  0  0
 15 14  1  0  0  0  0
 17 19  1  0  0  0  0
 18 17  2  0  0  0  0
 19 20  1  0  0  0  0
 20 23  2  0  0  0  0
 21 30  2  0  0  0  0
 22 31  1  0  0  0  0
 22 21  1  0  0  0  0
 23 27  2  0  0  0  0
 24 25  2  0  0  0  0
 25 29  1  0  0  0  0
 26 28  1  0  0  0  0
 27 28  1  0  0  0  0
 27 25  1  0  0  0  0
 28 22  2  0  0  0  0
 29 21  1  0  0  0  0
 32  8  1  0  0  0  0
 33 32  1  0  0  0  0
 33 34  1  0  0  0  0
 34 35  1  0  0  0  0
 35 36  1  0  0  0  0
 36 37  1  0  0  0  0
 37 38  2  6  0  0  0
 37 40  1  0  0  0  0
 37 39  1  0  0  0  0
 41 40  1  0  0  0  0
 41 44  1  0  0  0  0
 44 42  2  0  0  0  0
 44 45  1  0  0  0  0
 44 43  1  0  0  0  0
M  END
>  <MODEL>
6

>  <REMARK>
 VINA RESULT:      -7.5      4.189      9.689
  Name = 
  13 active torsions:
  status: ('A' for Active; 'I' for Inactive)
    1  A    between atoms: C_1  and  O_22
    2  A    between atoms: C_1  and  C_41
    3  A    between atoms: C_2  and  N_37
    4  A    between atoms: C_6  and  O_16
    5  A    between atoms: C_6  and  P_36
    6  A    between atoms: O_8  and  C_9
    7  A    between atoms: O_8  and  P_12
    8  A    between atoms: C_9  and  C_19
    9  A    between atoms: C_10  and  C_42
   10  A    between atoms: P_12  and  O_16
   11  A    between atoms: N_13  and  C_30
   12  A    between atoms: C_19  and  O_22
   13  A    between atoms: C_21  and  C_26
                            x       y       z     vdW  Elec       q    Type
                         _______ _______ _______ _____ _____    ______ ____

>  <TORSDO>
F 13

$$$$
=
 OpenBabel10232409483D

 45 49  0  0  1  0  0  0  0  0999 V2000
  188.6360  177.8880  139.4310 C   0  0  0  0  0  0  0  0  0  0  0  0
  187.3640  178.3300  139.4750 N   0  0  0  0  0  0  0  0  0  0  0  0
  189.1680  177.7050  140.6510 N   0  0  0  0  0  0  0  0  0  0  0  0
  189.4000  177.6410  138.2810 C   0  0  0  0  0  0  0  0  0  0  0  0
  191.2190  177.0220  139.7070 C   0  0  0  0  0  3  0  0  0  0  0  0
  190.6830  177.2080  138.4650 N   0  0  0  0  0  0  0  0  0  0  0  0
  188.2240  178.0290  141.5500 C   0  0  0  0  0  3  0  0  0  0  0  0
  190.4390  177.2690  140.8430 C   0  0  0  0  0  0  0  0  0  0  0  0
  187.1160  178.4130  140.8040 C   0  0  0  0  0  0  0  0  0  0  0  0
  185.8340  178.8590  141.3610 C   0  0  0  0  0  0  0  0  0  0  0  0
  185.0490  179.5530  140.6610 O   0  0  0  0  0  0  0  0  0  0  0  0
  185.4840  178.5020  142.7000 N   0  0  0  0  0  2  0  0  0  0  0  0
  184.1050  178.2770  144.6770 C   0  0  2  0  0  3  0  0  0  0  0  0
  184.4810  179.7030  144.5570 C   0  0  1  0  0  3  0  0  0  0  0  0
  184.2200  178.8950  143.3020 C   0  0  1  0  0  3  0  0  0  0  0  0
  183.6440  179.2450  145.5920 O   0  0  0  0  0  0  0  0  0  0  0  0
  188.8470  177.8090  136.9110 C   0  0  0  0  0  0  0  0  0  0  0  0
  189.1930  178.8050  136.2210 O   0  0  0  0  0  0  0  0  0  0  0  0
  187.9190  176.8800  136.3350 N   0  0  0  0  0  2  0  0  0  0  0  0
  187.5520  175.6310  136.9190 C   0  0  0  0  0  3  0  0  0  0  0  0
  182.5910  173.5050  136.0210 C   0  0  0  0  0  0  0  0  0  0  0  0
  183.6470  172.7240  136.7050 C   0  0  0  0  0  0  0  0  0  0  0  0
  186.3700  175.1330  136.7000 C   0  0  0  0  0  0  0  0  0  0  0  0
  184.3740  176.5920  135.3850 O   0  0  0  0  0  0  0  0  0  0  0  0
  184.1450  175.4190  135.7860 C   0  0  0  0  0  0  0  0  0  0  0  0
  185.8130  172.5230  137.5590 F   0  0  0  0  0  0  0  0  0  0  0  0
  185.1830  174.6300  136.4780 C   0  0  0  0  0  0  0  0  0  0  0  0
  184.8610  173.2550  136.9200 C   0  0  0  0  0  0  0  0  0  0  0  0
  182.8610  174.8340  135.5710 N   0  0  0  0  0  2  0  0  0  0  0  0
  181.4490  173.0050  135.8330 O   0  0  0  0  0  0  0  0  0  0  0  0
  183.3500  171.3340  137.1660 C   0  0  0  0  0  1  0  0  0  0  0  0
  191.0150  177.0980  142.2090 C   0  0  0  0  0  2  0  0  0  0  0  0
  190.9660  175.7540  142.5770 O   0  0  0  0  0  0  0  0  0  0  0  0
  191.5200  175.7230  143.8570 C   0  0  0  0  0  2  0  0  0  0  0  0
  191.0510  176.9260  144.6560 C   0  0  0  0  0  2  0  0  0  0  0  0
  191.9700  177.2180  145.6680 O   0  0  0  0  0  0  0  0  0  0  0  0
  191.3040  176.5740  147.0900 P   0  0  2  0  0  0  0  0  0  0  0  0
  191.4000  177.5930  148.2070 O   0  0  0  0  0  1  0  0  0  0  0  0
  192.1510  175.1740  147.5280 O   0  0  0  0  0  0  0  0  0  0  0  0
  189.6750  176.1970  146.8050 O   0  0  0  0  0  0  0  0  0  0  0  0
  188.9430  177.1800  147.4710 C   0  0  0  0  0  2  0  0  0  0  0  0
  188.1090  178.4140  145.0290 O   0  0  0  0  0  0  0  0  0  0  0  0
  186.7020  176.4850  146.0930 O   0  0  0  0  0  1  0  0  0  0  0  0
  187.5370  177.6930  146.4460 P   0  0  0  0  0  0  0  0  0  0  0  0
  186.5900  178.8030  147.3010 O   0  0  0  0  0  1  0  0  0  0  0  0
  1  2  2  0  0  0  0
  1  3  1  0  0  0  0
  2  9  1  0  0  0  0
  3  8  1  0  0  0  0
  3  7  1  0  0  0  0
  4  6  2  0  0  0  0
  4  1  1  0  0  0  0
  5  8  2  0  0  0  0
  6  5  1  0  0  0  0
  8 32  1  0  0  0  0
  9 10  1  0  0  0  0
  9  7  2  0  0  0  0
 10 12  1  0  0  0  0
 11 10  2  0  0  0  0
 13 16  1  1  0  0  0
 14 13  1  0  0  0  0
 14 16  1  1  0  0  0
 15 12  1  6  0  0  0
 15 14  1  0  0  0  0
 15 13  1  0  0  0  0
 17  4  1  0  0  0  0
 18 17  2  0  0  0  0
 19 17  1  0  0  0  0
 19 20  1  0  0  0  0
 21 22  1  0  0  0  0
 22 28  2  0  0  0  0
 22 31  1  0  0  0  0
 23 20  2  0  0  0  0
 24 25  2  0  0  0  0
 25 27  1  0  0  0  0
 27 23  2  0  0  0  0
 27 28  1  0  0  0  0
 28 26  1  0  0  0  0
 29 25  1  0  0  0  0
 29 21  1  0  0  0  0
 30 21  2  0  0  0  0
 32 33  1  0  0  0  0
 33 34  1  0  0  0  0
 34 35  1  0  0  0  0
 35 36  1  0  0  0  0
 36 37  1  0  0  0  0
 37 39  2  1  0  0  0
 37 38  1  0  0  0  0
 40 37  1  0  0  0  0
 40 41  1  0  0  0  0
 42 44  2  0  0  0  0
 43 44  1  0  0  0  0
 44 45  1  0  0  0  0
 44 41  1  0  0  0  0
M  END
>  <MODEL>
7

>  <REMARK>
 VINA RESULT:      -7.5      1.731      2.206
  Name = 
  13 active torsions:
  status: ('A' for Active; 'I' for Inactive)
    1  A    between atoms: C_1  and  O_22
    2  A    between atoms: C_1  and  C_41
    3  A    between atoms: C_2  and  N_37
    4  A    between atoms: C_6  and  O_16
    5  A    between atoms: C_6  and  P_36
    6  A    between atoms: O_8  and  C_9
    7  A    between atoms: O_8  and  P_12
    8  A    between atoms: C_9  and  C_19
    9  A    between atoms: C_10  and  C_42
   10  A    between atoms: P_12  and  O_16
   11  A    between atoms: N_13  and  C_30
   12  A    between atoms: C_19  and  O_22
   13  A    between atoms: C_21  and  C_26
                            x       y       z     vdW  Elec       q    Type
                         _______ _______ _______ _____ _____    ______ ____

>  <TORSDO>
F 13

$$$$
=
 OpenBabel10232409483D

 45 49  0  0  1  0  0  0  0  0999 V2000
  189.3620  177.7020  139.2690 C   0  0  0  0  0  0  0  0  0  0  0  0
  190.3780  177.3900  138.4420 N   0  0  0  0  0  0  0  0  0  0  0  0
  189.6640  177.5120  140.5630 N   0  0  0  0  0  0  0  0  0  0  0  0
  188.0880  178.1600  138.8990 C   0  0  0  0  0  0  0  0  0  0  0  0
  187.5090  178.2100  141.2210 C   0  0  0  0  0  3  0  0  0  0  0  0
  187.1960  178.4040  139.9050 N   0  0  0  0  0  0  0  0  0  0  0  0
  190.9280  177.0620  140.6150 C   0  0  0  0  0  3  0  0  0  0  0  0
  188.7870  177.7570  141.5700 C   0  0  0  0  0  0  0  0  0  0  0  0
  191.3530  176.9930  139.2930 C   0  0  0  0  0  0  0  0  0  0  0  0
  192.6800  176.5470  138.8530 C   0  0  0  0  0  0  0  0  0  0  0  0
  193.7140  176.9670  139.4390 O   0  0  0  0  0  0  0  0  0  0  0  0
  192.7900  175.6360  137.7570 N   0  0  0  0  0  2  0  0  0  0  0  0
  194.4160  173.8610  138.0180 C   0  0  2  0  0  3  0  0  0  0  0  0
  193.8920  173.7860  136.6360 C   0  0  1  0  0  3  0  0  0  0  0  0
  194.0750  175.1410  137.2880 C   0  0  1  0  0  3  0  0  0  0  0  0
  194.8910  172.9060  137.0970 O   0  0  0  0  0  0  0  0  0  0  0  0
  187.7150  178.4050  137.4810 C   0  0  0  0  0  0  0  0  0  0  0  0
  187.8970  179.5470  136.9810 O   0  0  0  0  0  0  0  0  0  0  0  0
  187.1420  177.3890  136.6480 N   0  0  0  0  0  2  0  0  0  0  0  0
  187.0170  176.0150  137.0120 C   0  0  0  0  0  3  0  0  0  0  0  0
  182.1650  173.5010  136.7190 C   0  0  0  0  0  0  0  0  0  0  0  0
  183.4070  172.7400  136.9860 C   0  0  0  0  0  0  0  0  0  0  0  0
  185.8590  175.4250  136.9390 C   0  0  0  0  0  0  0  0  0  0  0  0
  183.5070  176.8500  136.4090 O   0  0  0  0  0  0  0  0  0  0  0  0
  183.4690  175.6030  136.5860 C   0  0  0  0  0  0  0  0  0  0  0  0
  185.7200  172.6500  137.3120 F   0  0  0  0  0  0  0  0  0  0  0  0
  184.6960  174.8310  136.8640 C   0  0  0  0  0  0  0  0  0  0  0  0
  184.5930  173.3670  137.0560 C   0  0  0  0  0  0  0  0  0  0  0  0
  182.2200  174.9160  136.5200 N   0  0  0  0  0  2  0  0  0  0  0  0
  181.0540  172.9100  136.6660 O   0  0  0  0  0  0  0  0  0  0  0  0
  183.3340  171.2620  137.1870 C   0  0  0  0  0  1  0  0  0  0  0  0
  189.1390  177.5140  142.9990 C   0  0  0  0  0  2  0  0  0  0  0  0
  188.1350  176.7650  143.6120 O   0  0  0  0  0  0  0  0  0  0  0  0
  188.0250  177.3100  144.8910 C   0  0  0  0  0  2  0  0  0  0  0  0
  186.8250  178.2370  144.9590 C   0  0  0  0  0  2  0  0  0  0  0  0
  185.7300  177.6510  144.3160 O   0  0  0  0  0  0  0  0  0  0  0  0
  184.4950  178.8150  144.3630 P   0  0  2  0  0  0  0  0  0  0  0  0
  185.0770  180.1890  144.1010 O   0  0  0  0  0  0  0  0  0  0  0  0
  183.7570  178.7950  145.8880 O   0  0  0  0  0  1  0  0  0  0  0  0
  183.3530  178.4440  143.1650 O   0  0  0  0  0  0  0  0  0  0  0  0
  184.0850  178.3000  141.9850 C   0  0  0  0  0  2  0  0  0  0  0  0
  183.6760  179.3940  139.3740 O   0  0  0  0  0  0  0  0  0  0  0  0
  182.7250  177.0390  139.9940 O   0  0  0  0  0  1  0  0  0  0  0  0
  182.9700  178.4180  140.5590 P   0  0  0  0  0  0  0  0  0  0  0  0
  181.5000  179.0970  141.0470 O   0  0  0  0  0  1  0  0  0  0  0  0
  1  3  1  0  0  0  0
  2  1  2  0  0  0  0
  2  9  1  0  0  0  0
  3  7  1  0  0  0  0
  3  8  1  0  0  0  0
  4  1  1  0  0  0  0
  4  6  2  0  0  0  0
  5  8  2  0  0  0  0
  6  5  1  0  0  0  0
  8 32  1  0  0  0  0
  9  7  2  0  0  0  0
 10  9  1  0  0  0  0
 10 11  2  0  0  0  0
 12 10  1  0  0  0  0
 13 16  1  6  0  0  0
 14 16  1  6  0  0  0
 14 15  1  0  0  0  0
 14 13  1  0  0  0  0
 15 12  1  1  0  0  0
 15 13  1  0  0  0  0
 17  4  1  0  0  0  0
 18 17  2  0  0  0  0
 19 20  1  0  0  0  0
 19 17  1  0  0  0  0
 21 22  1  0  0  0  0
 22 28  2  0  0  0  0
 22 31  1  0  0  0  0
 23 20  2  0  0  0  0
 24 25  2  0  0  0  0
 25 27  1  0  0  0  0
 27 23  2  0  0  0  0
 27 28  1  0  0  0  0
 28 26  1  0  0  0  0
 29 25  1  0  0  0  0
 29 21  1  0  0  0  0
 30 21  2  0  0  0  0
 32 33  1  0  0  0  0
 33 34  1  0  0  0  0
 34 35  1  0  0  0  0
 36 37  1  0  0  0  0
 36 35  1  0  0  0  0
 37 38  2  6  0  0  0
 37 39  1  0  0  0  0
 40 37  1  0  0  0  0
 41 40  1  0  0  0  0
 42 44  2  0  0  0  0
 43 44  1  0  0  0  0
 44 45  1  0  0  0  0
 44 41  1  0  0  0  0
M  END
>  <MODEL>
8

>  <REMARK>
 VINA RESULT:      -7.4      2.700      5.896
  Name = 
  13 active torsions:
  status: ('A' for Active; 'I' for Inactive)
    1  A    between atoms: C_1  and  O_22
    2  A    between atoms: C_1  and  C_41
    3  A    between atoms: C_2  and  N_37
    4  A    between atoms: C_6  and  O_16
    5  A    between atoms: C_6  and  P_36
    6  A    between atoms: O_8  and  C_9
    7  A    between atoms: O_8  and  P_12
    8  A    between atoms: C_9  and  C_19
    9  A    between atoms: C_10  and  C_42
   10  A    between atoms: P_12  and  O_16
   11  A    between atoms: N_13  and  C_30
   12  A    between atoms: C_19  and  O_22
   13  A    between atoms: C_21  and  C_26
                            x       y       z     vdW  Elec       q    Type
                         _______ _______ _______ _____ _____    ______ ____

>  <TORSDO>
F 13

$$$$
=
 OpenBabel10232409483D

 45 49  0  0  1  0  0  0  0  0999 V2000
  188.0480  178.1250  139.3820 C   0  0  0  0  0  0  0  0  0  0  0  0
  189.2330  177.7810  138.8410 N   0  0  0  0  0  0  0  0  0  0  0  0
  188.0770  178.1590  140.7240 N   0  0  0  0  0  0  0  0  0  0  0  0
  186.8610  178.4120  138.6920 C   0  0  0  0  0  0  0  0  0  0  0  0
  185.7970  178.7600  140.8070 C   0  0  0  0  0  3  0  0  0  0  0  0
  185.7630  178.7260  139.4420 N   0  0  0  0  0  0  0  0  0  0  0  0
  189.3230  177.8310  141.1040 C   0  0  0  0  0  3  0  0  0  0  0  0
  186.9930  178.4760  141.4780 C   0  0  0  0  0  0  0  0  0  0  0  0
  190.0230  177.6010  139.9260 C   0  0  0  0  0  0  0  0  0  0  0  0
  191.4340  177.2090  139.8430 C   0  0  0  0  0  0  0  0  0  0  0  0
  192.1610  177.2470  140.8720 O   0  0  0  0  0  0  0  0  0  0  0  0
  191.9780  176.7870  138.5900 N   0  0  0  0  0  2  0  0  0  0  0  0
  193.4050  174.9200  138.0100 C   0  0  2  0  0  3  0  0  0  0  0  0
  193.6340  175.9830  137.0080 C   0  0  1  0  0  3  0  0  0  0  0  0
  193.3620  176.3670  138.4480 C   0  0  1  0  0  3  0  0  0  0  0  0
  194.3460  174.7690  136.9730 O   0  0  0  0  0  0  0  0  0  0  0  0
  186.7870  178.4080  137.2070 C   0  0  0  0  0  0  0  0  0  0  0  0
  187.0880  179.4520  136.5690 O   0  0  0  0  0  0  0  0  0  0  0  0
  186.3750  177.2560  136.4580 N   0  0  0  0  0  2  0  0  0  0  0  0
  186.1540  175.9620  137.0160 C   0  0  0  0  0  3  0  0  0  0  0  0
  181.5510  173.2180  135.9060 C   0  0  0  0  0  0  0  0  0  0  0  0
  182.6750  172.5720  136.6230 C   0  0  0  0  0  0  0  0  0  0  0  0
  185.0560  175.3160  136.7460 C   0  0  0  0  0  0  0  0  0  0  0  0
  182.9360  176.5210  135.3690 O   0  0  0  0  0  0  0  0  0  0  0  0
  182.8490  175.3220  135.7500 C   0  0  0  0  0  0  0  0  0  0  0  0
  184.8150  172.6440  137.5580 F   0  0  0  0  0  0  0  0  0  0  0  0
  183.9540  174.6660  136.4740 C   0  0  0  0  0  0  0  0  0  0  0  0
  183.8000  173.2540  136.8900 C   0  0  0  0  0  0  0  0  0  0  0  0
  181.6610  174.5780  135.4800 N   0  0  0  0  0  2  0  0  0  0  0  0
  180.4930  172.5760  135.6690 O   0  0  0  0  0  0  0  0  0  0  0  0
  182.5460  171.1490  137.0580 C   0  0  0  0  0  1  0  0  0  0  0  0
  187.0440  178.4810  142.9690 C   0  0  0  0  0  2  0  0  0  0  0  0
  186.0860  177.6050  143.4770 O   0  0  0  0  0  0  0  0  0  0  0  0
  185.3000  178.3960  144.3160 C   0  0  0  0  0  2  0  0  0  0  0  0
  185.9820  178.5620  145.6620 C   0  0  0  0  0  2  0  0  0  0  0  0
  186.4290  177.3220  146.1290 O   0  0  0  0  0  0  0  0  0  0  0  0
  187.8860  177.6360  146.9390 P   0  0  2  0  0  0  0  0  0  0  0  0
  188.3680  176.3780  147.6330 O   0  0  0  0  0  0  0  0  0  0  0  0
  187.6420  178.8580  148.0880 O   0  0  0  0  0  1  0  0  0  0  0  0
  189.0420  178.1360  145.8040 O   0  0  0  0  0  0  0  0  0  0  0  0
  189.4800  176.9670  145.1790 C   0  0  0  0  0  2  0  0  0  0  0  0
  191.7520  175.8220  143.8720 O   0  0  0  0  0  0  0  0  0  0  0  0
  191.6570  178.3860  144.3700 O   0  0  0  0  0  1  0  0  0  0  0  0
  191.2770  177.0400  144.9410 P   0  0  0  0  0  0  0  0  0  0  0  0
  192.0520  176.8200  146.4280 O   0  0  0  0  0  1  0  0  0  0  0  0
  1  3  1  0  0  0  0
  2  1  2  0  0  0  0
  2  9  1  0  0  0  0
  3  7  1  0  0  0  0
  3  8  1  0  0  0  0
  4  1  1  0  0  0  0
  4  6  2  0  0  0  0
  5  8  2  0  0  0  0
  6  5  1  0  0  0  0
  8 32  1  0  0  0  0
  9  7  2  0  0  0  0
 10  9  1  0  0  0  0
 10 11  2  0  0  0  0
 12 10  1  0  0  0  0
 13 16  1  1  0  0  0
 13 15  1  0  0  0  0
 14 16  1  1  0  0  0
 14 13  1  0  0  0  0
 14 15  1  0  0  0  0
 15 12  1  6  0  0  0
 17  4  1  0  0  0  0
 18 17  2  0  0  0  0
 19 20  1  0  0  0  0
 19 17  1  0  0  0  0
 21 22  1  0  0  0  0
 22 28  2  0  0  0  0
 22 31  1  0  0  0  0
 23 20  2  0  0  0  0
 24 25  2  0  0  0  0
 25 27  1  0  0  0  0
 27 23  2  0  0  0  0
 27 28  1  0  0  0  0
 28 26  1  0  0  0  0
 29 25  1  0  0  0  0
 29 21  1  0  0  0  0
 30 21  2  0  0  0  0
 32 33  1  0  0  0  0
 33 34  1  0  0  0  0
 34 35  1  0  0  0  0
 35 36  1  0  0  0  0
 36 37  1  0  0  0  0
 37 38  2  1  0  0  0
 37 39  1  0  0  0  0
 40 37  1  0  0  0  0
 41 40  1  0  0  0  0
 42 44  2  0  0  0  0
 43 44  1  0  0  0  0
 44 41  1  0  0  0  0
 44 45  1  0  0  0  0
M  END
>  <MODEL>
9

>  <REMARK>
 VINA RESULT:      -7.4      2.246      5.442
  Name = 
  13 active torsions:
  status: ('A' for Active; 'I' for Inactive)
    1  A    between atoms: C_1  and  O_22
    2  A    between atoms: C_1  and  C_41
    3  A    between atoms: C_2  and  N_37
    4  A    between atoms: C_6  and  O_16
    5  A    between atoms: C_6  and  P_36
    6  A    between atoms: O_8  and  C_9
    7  A    between atoms: O_8  and  P_12
    8  A    between atoms: C_9  and  C_19
    9  A    between atoms: C_10  and  C_42
   10  A    between atoms: P_12  and  O_16
   11  A    between atoms: N_13  and  C_30
   12  A    between atoms: C_19  and  O_22
   13  A    between atoms: C_21  and  C_26
                            x       y       z     vdW  Elec       q    Type
                         _______ _______ _______ _____ _____    ______ ____

>  <TORSDO>
F 13

$$$$
