=
 OpenBabel10232411073D

 39 42  0  0  1  0  0  0  0  0999 V2000
  181.2810  179.6200  137.5040 C   0  0  0  0  0  2  0  0  0  0  0  0
  185.7100  175.3700  136.6010 C   0  0  0  0  0  2  0  0  0  0  0  0
  182.4190  178.3960  140.3780 C   0  0  0  0  0  2  0  0  0  0  0  0
  187.9470  176.5050  136.4060 C   0  0  1  0  0  3  0  0  0  0  0  0
  186.5910  177.9110  143.0300 C   0  0  0  0  0  0  0  0  0  0  0  0
  187.1450  175.4100  137.1050 C   0  0  0  0  0  2  0  0  0  0  0  0
  182.8430  175.8800  136.1710 C   0  0  0  0  0  3  0  0  0  0  0  0
  181.1510  179.6020  139.0240 C   0  0  1  0  0  3  0  0  0  0  0  0
  185.0420  176.5530  137.0180 O   0  0  0  0  0  0  0  0  0  0  0  0
  181.0200  177.4100  136.4180 N   0  0  0  0  0  0  0  0  0  0  0  0
  188.7870  179.3350  138.5510 C   0  0  0  0  0  1  0  0  0  0  0  0
  185.8790  178.4400  144.1580 N   0  0  0  0  0  0  0  0  0  0  0  0
  186.0840  178.1740  141.6620 C   0  0  0  0  0  0  0  0  0  0  0  0
  181.4930  176.2030  135.9990 C   0  0  0  0  0  3  0  0  0  0  0  0
  187.9100  178.1070  138.3880 C   0  0  1  0  0  3  0  0  0  0  0  0
  186.9280  177.9800  140.6390 C   0  0  0  0  0  3  0  0  0  0  0  0
  184.6900  178.7660  141.4770 C   0  0  2  0  0  3  0  0  0  0  0  0
  183.9430  178.9720  142.8120 C   0  0  0  0  0  2  0  0  0  0  0  0
  187.6500  177.2450  143.2040 O   0  0  0  0  0  0  0  0  0  0  0  0
  186.6310  178.2610  139.2020 C   0  0  0  0  0  2  0  0  0  0  0  0
  183.1900  178.0450  137.1810 C   0  0  0  0  0  3  0  0  0  0  0  0
  184.8700  179.4600  143.9140 C   0  0  0  0  0  2  0  0  0  0  0  0
  182.4170  179.5740  139.6240 O   0  0  0  0  0  0  0  0  0  0  0  0
  180.4040  180.8420  139.4740 C   0  0  0  0  0  1  0  0  0  0  0  0
  187.5890  177.9120  136.9110 C   0  0  0  0  0  2  0  0  0  0  0  0
  181.8370  178.3320  136.9990 C   0  0  0  0  0  0  0  0  0  0  0  0
  183.6960  176.8140  136.7780 C   0  0  0  0  0  0  0  0  0  0  0  0
  183.8410  177.8710  140.5670 C   0  0  0  0  0  2  0  0  0  0  0  0
  185.0200  178.1590  146.4310 C   0  0  0  0  0  2  0  0  0  0  0  0
  186.0380  179.2730  146.4540 C   0  0  0  0  0  2  0  0  0  0  0  0
  186.2410  178.0830  145.5280 C   0  0  0  0  0  3  0  0  0  0  0  0
  189.4380  176.2320  136.5430 C   0  0  0  0  0  2  0  0  0  0  0  0
  189.6840  175.2150  137.6510 C   0  0  0  0  0  2  0  0  0  0  0  0
  190.9210  175.5650  138.4770 C   0  0  2  0  0  3  0  0  0  0  0  0
  190.5440  176.1390  139.6920 O   0  0  0  0  0  1  0  0  0  0  0  0
  191.8540  176.5080  137.7220 C   0  0  0  0  0  2  0  0  0  0  0  0
  193.4920  174.6030  137.5850 C   0  0  0  0  0  1  0  0  0  0  0  0
  193.3230  176.0950  137.8050 C   0  0  1  0  0  3  0  0  0  0  0  0
  194.0940  176.8070  136.8860 O   0  0  0  0  0  1  0  0  0  0  0  0
  1  8  1  0  0  0  0
  2  9  1  0  0  0  0
  2  6  1  0  0  0  0
  3 28  1  0  0  0  0
  4 32  1  1  0  0  0
  4 25  1  0  0  0  0
  4  6  1  0  0  0  0
  5 19  2  0  0  0  0
  5 12  1  0  0  0  0
  7 27  1  0  0  0  0
  8 24  1  1  0  0  0
  8 23  1  0  0  0  0
 10 26  2  0  0  0  0
 12 31  1  0  0  0  0
 13  5  1  0  0  0  0
 14  7  2  0  0  0  0
 14 10  1  0  0  0  0
 15 11  1  6  0  0  0
 15 20  1  0  0  0  0
 16 13  2  0  0  0  0
 17 28  1  6  0  0  0
 17 13  1  0  0  0  0
 17 18  1  0  0  0  0
 18 22  1  0  0  0  0
 20 16  1  0  0  0  0
 22 12  1  0  0  0  0
 23  3  1  0  0  0  0
 25 15  1  0  0  0  0
 26 21  1  0  0  0  0
 26  1  1  0  0  0  0
 27  9  1  0  0  0  0
 27 21  2  0  0  0  0
 29 30  1  0  0  0  0
 31 29  1  0  0  0  0
 31 30  1  0  0  0  0
 32 33  1  0  0  0  0
 33 34  1  0  0  0  0
 34 35  1  1  0  0  0
 36 38  1  0  0  0  0
 36 34  1  0  0  0  0
 38 37  1  6  0  0  0
 39 38  1  0  0  0  0
M  END
>  <MODEL>
1

>  <REMARK>
 VINA RESULT:      -6.9      0.000      0.000
  Name = 
  6 active torsions:
  status: ('A' for Active; 'I' for Inactive)
    1  A    between atoms: C_3  and  C_5
    2  A    between atoms: C_3  and  C_35
    3  A    between atoms: C_8  and  C_26
    4  A    between atoms: C_8  and  C_35
    5  A    between atoms: N_16  and  C_38
    6  A    between atoms: C_23  and  C_26
                            x       y       z     vdW  Elec       q    Type
                         _______ _______ _______ _____ _____    ______ ____

>  <TORSDO>
F 6

$$$$
=
 OpenBabel10232411073D

 39 42  0  0  1  0  0  0  0  0999 V2000
  188.3290  178.9420  136.6450 C   0  0  0  0  0  2  0  0  0  0  0  0
  187.4250  177.2240  142.5370 C   0  0  0  0  0  2  0  0  0  0  0  0
  186.0920  176.4940  136.8860 C   0  0  0  0  0  2  0  0  0  0  0  0
  185.6690  178.6870  143.5880 C   0  0  1  0  0  3  0  0  0  0  0  0
  181.7210  175.3980  138.9750 C   0  0  0  0  0  0  0  0  0  0  0  0
  186.1190  177.2540  143.3190 C   0  0  0  0  0  2  0  0  0  0  0  0
  189.4480  177.2570  140.4010 C   0  0  0  0  0  3  0  0  0  0  0  0
  187.4180  177.9680  135.9040 C   0  0  1  0  0  3  0  0  0  0  0  0
  187.1900  177.7220  141.2290 O   0  0  0  0  0  0  0  0  0  0  0  0
  189.9780  177.8740  138.1510 N   0  0  0  0  0  0  0  0  0  0  0  0
  182.7200  179.7010  141.6930 C   0  0  0  0  0  1  0  0  0  0  0  0
  181.2700  174.9530  137.6870 N   0  0  0  0  0  0  0  0  0  0  0  0
  182.8720  176.3280  139.0620 C   0  0  0  0  0  0  0  0  0  0  0  0
  190.3530  177.3170  139.3360 C   0  0  0  0  0  3  0  0  0  0  0  0
  183.8360  178.6800  141.8180 C   0  0  1  0  0  3  0  0  0  0  0  0
  183.0490  176.9910  140.2130 C   0  0  0  0  0  3  0  0  0  0  0  0
  183.7220  176.5910  137.8220 C   0  0  2  0  0  3  0  0  0  0  0  0
  183.2700  175.7670  136.5980 C   0  0  0  0  0  2  0  0  0  0  0  0
  181.1270  175.0130  140.0220 O   0  0  0  0  0  0  0  0  0  0  0  0
  184.1000  178.0220  140.4690 C   0  0  0  0  0  2  0  0  0  0  0  0
  187.8070  178.3560  139.0150 C   0  0  0  0  0  3  0  0  0  0  0  0
  181.7550  175.6610  136.5100 C   0  0  0  0  0  2  0  0  0  0  0  0
  186.1860  177.8510  136.5610 O   0  0  0  0  0  0  0  0  0  0  0  0
  187.1950  178.4720  134.4920 C   0  0  0  0  0  1  0  0  0  0  0  0
  185.0910  179.3690  142.3380 C   0  0  0  0  0  2  0  0  0  0  0  0
  188.7320  178.3930  137.9720 C   0  0  0  0  0  0  0  0  0  0  0  0
  188.1570  177.7770  140.2300 C   0  0  0  0  0  0  0  0  0  0  0  0
  185.1970  176.2860  138.1070 C   0  0  0  0  0  2  0  0  0  0  0  0
  180.8790  172.5400  137.6390 C   0  0  0  0  0  2  0  0  0  0  0  0
  180.4940  173.1000  136.2900 C   0  0  0  0  0  2  0  0  0  0  0  0
  180.2470  173.9200  137.5480 C   0  0  0  0  0  3  0  0  0  0  0  0
  184.6760  178.7170  144.7410 C   0  0  0  0  0  2  0  0  0  0  0  0
  185.0850  177.7130  145.8110 C   0  0  0  0  0  2  0  0  0  0  0  0
  185.9720  178.3510  146.8790 C   0  0  2  0  0  3  0  0  0  0  0  0
  185.7060  179.7180  146.9750 O   0  0  0  0  0  1  0  0  0  0  0  0
  187.4530  178.1280  146.5860 C   0  0  0  0  0  2  0  0  0  0  0  0
  189.6660  177.2640  147.4150 C   0  0  0  0  0  1  0  0  0  0  0  0
  188.1780  177.3660  147.6950 C   0  0  1  0  0  3  0  0  0  0  0  0
  187.9630  177.9660  148.9370 O   0  0  0  0  0  1  0  0  0  0  0  0
  1 26  1  0  0  0  0
  2  6  1  0  0  0  0
  3 28  1  0  0  0  0
  4 32  1  1  0  0  0
  5 13  1  0  0  0  0
  5 19  2  0  0  0  0
  6  4  1  0  0  0  0
  8 24  1  6  0  0  0
  8 23  1  0  0  0  0
  8  1  1  0  0  0  0
  9  2  1  0  0  0  0
 10 14  1  0  0  0  0
 12  5  1  0  0  0  0
 13 16  2  0  0  0  0
 14  7  2  0  0  0  0
 15 11  1  6  0  0  0
 15 25  1  0  0  0  0
 16 20  1  0  0  0  0
 17 18  1  6  0  0  0
 17 28  1  0  0  0  0
 17 13  1  0  0  0  0
 20 15  1  0  0  0  0
 21 27  2  0  0  0  0
 22 18  1  0  0  0  0
 22 12  1  0  0  0  0
 23  3  1  0  0  0  0
 25  4  1  0  0  0  0
 26 10  2  0  0  0  0
 26 21  1  0  0  0  0
 27  7  1  0  0  0  0
 27  9  1  0  0  0  0
 30 31  1  0  0  0  0
 30 29  1  0  0  0  0
 31 29  1  0  0  0  0
 31 12  1  0  0  0  0
 32 33  1  0  0  0  0
 33 34  1  0  0  0  0
 34 35  1  6  0  0  0
 36 34  1  0  0  0  0
 36 38  1  0  0  0  0
 38 37  1  6  0  0  0
 38 39  1  0  0  0  0
M  END
>  <MODEL>
2

>  <REMARK>
 VINA RESULT:      -6.2      2.782      8.118
  Name = 
  6 active torsions:
  status: ('A' for Active; 'I' for Inactive)
    1  A    between atoms: C_3  and  C_5
    2  A    between atoms: C_3  and  C_35
    3  A    between atoms: C_8  and  C_26
    4  A    between atoms: C_8  and  C_35
    5  A    between atoms: N_16  and  C_38
    6  A    between atoms: C_23  and  C_26
                            x       y       z     vdW  Elec       q    Type
                         _______ _______ _______ _____ _____    ______ ____

>  <TORSDO>
F 6

$$$$
=
 OpenBabel10232411073D

 39 42  0  0  1  0  0  0  0  0999 V2000
  182.7260  179.1770  141.5840 C   0  0  0  0  0  2  0  0  0  0  0  0
  185.3360  175.7760  137.0990 C   0  0  0  0  0  2  0  0  0  0  0  0
  185.4980  177.6700  142.6340 C   0  0  0  0  0  2  0  0  0  0  0  0
  186.8610  177.2220  135.7170 C   0  0  1  0  0  3  0  0  0  0  0  0
  190.3590  177.3370  141.6700 C   0  0  0  0  0  0  0  0  0  0  0  0
  186.7340  175.9290  136.5190 C   0  0  0  0  0  2  0  0  0  0  0  0
  182.9400  175.9520  138.7990 C   0  0  0  0  0  3  0  0  0  0  0  0
  183.6600  178.8960  142.7580 C   0  0  1  0  0  3  0  0  0  0  0  0
  185.1380  176.7720  138.0910 O   0  0  0  0  0  0  0  0  0  0  0  0
  181.7800  177.1580  140.5090 N   0  0  0  0  0  0  0  0  0  0  0  0
  188.9570  179.7550  137.3000 C   0  0  0  0  0  1  0  0  0  0  0  0
  190.6040  177.5740  143.0640 N   0  0  0  0  0  0  0  0  0  0  0  0
  189.0630  177.7470  141.0790 C   0  0  0  0  0  0  0  0  0  0  0  0
  181.8330  176.1110  139.6390 C   0  0  0  0  0  3  0  0  0  0  0  0
  188.1900  178.4610  137.5040 C   0  0  1  0  0  3  0  0  0  0  0  0
  188.9900  177.8390  139.7440 C   0  0  0  0  0  3  0  0  0  0  0  0
  187.9170  178.1650  141.9970 C   0  0  2  0  0  3  0  0  0  0  0  0
  188.2720  178.0480  143.4930 C   0  0  0  0  0  2  0  0  0  0  0  0
  191.2510  176.8030  140.9520 O   0  0  0  0  0  0  0  0  0  0  0  0
  187.8010  178.3060  138.9690 C   0  0  0  0  0  2  0  0  0  0  0  0
  183.8980  177.9510  139.7520 C   0  0  0  0  0  3  0  0  0  0  0  0
  189.7050  178.4730  143.7740 C   0  0  0  0  0  2  0  0  0  0  0  0
  184.9970  178.9440  142.3430 O   0  0  0  0  0  0  0  0  0  0  0  0
  183.4250  179.9320  143.8390 C   0  0  0  0  0  1  0  0  0  0  0  0
  186.9530  178.4660  136.6140 C   0  0  0  0  0  2  0  0  0  0  0  0
  182.7820  178.0760  140.5800 C   0  0  0  0  0  0  0  0  0  0  0  0
  183.9870  176.8830  138.8670 C   0  0  0  0  0  0  0  0  0  0  0  0
  186.6680  177.3220  141.7160 C   0  0  0  0  0  2  0  0  0  0  0  0
  191.6300  175.5680  144.0140 C   0  0  0  0  0  2  0  0  0  0  0  0
  191.4430  176.5680  145.1310 C   0  0  0  0  0  2  0  0  0  0  0  0
  191.7940  177.0530  143.7320 C   0  0  0  0  0  3  0  0  0  0  0  0
  188.0490  177.1370  134.7690 C   0  0  0  0  0  2  0  0  0  0  0  0
  188.7480  175.7920  134.9240 C   0  0  0  0  0  2  0  0  0  0  0  0
  190.2570  175.9520  135.0890 C   0  0  2  0  0  3  0  0  0  0  0  0
  190.9030  174.7410  134.8340 O   0  0  0  0  0  1  0  0  0  0  0  0
  190.6210  176.4510  136.4850 C   0  0  0  0  0  2  0  0  0  0  0  0
  192.7650  176.3530  137.7990 C   0  0  0  0  0  1  0  0  0  0  0  0
  191.6230  175.5490  137.2050 C   0  0  1  0  0  3  0  0  0  0  0  0
  190.9940  174.8010  138.2010 O   0  0  0  0  0  1  0  0  0  0  0  0
  1  8  1  0  0  0  0
  2  9  1  0  0  0  0
  4 32  1  1  0  0  0
  4  6  1  0  0  0  0
  4 25  1  0  0  0  0
  5 12  1  0  0  0  0
  6  2  1  0  0  0  0
  7 27  2  0  0  0  0
  7 14  1  0  0  0  0
  8 24  1  1  0  0  0
  9 27  1  0  0  0  0
 10 26  1  0  0  0  0
 12 31  1  0  0  0  0
 12 22  1  0  0  0  0
 13  5  1  0  0  0  0
 13 17  1  0  0  0  0
 14 10  2  0  0  0  0
 15 11  1  1  0  0  0
 15 20  1  0  0  0  0
 16 13  2  0  0  0  0
 17 28  1  1  0  0  0
 17 18  1  0  0  0  0
 18 22  1  0  0  0  0
 19  5  2  0  0  0  0
 20 16  1  0  0  0  0
 21 26  2  0  0  0  0
 23  3  1  0  0  0  0
 23  8  1  0  0  0  0
 25 15  1  0  0  0  0
 26  1  1  0  0  0  0
 27 21  1  0  0  0  0
 28  3  1  0  0  0  0
 29 30  1  0  0  0  0
 31 29  1  0  0  0  0
 31 30  1  0  0  0  0
 32 33  1  0  0  0  0
 33 34  1  0  0  0  0
 34 35  1  1  0  0  0
 34 36  1  0  0  0  0
 36 38  1  0  0  0  0
 38 37  1  1  0  0  0
 38 39  1  0  0  0  0
M  END
>  <MODEL>
3

>  <REMARK>
 VINA RESULT:      -6.0      2.525      3.641
  Name = 
  6 active torsions:
  status: ('A' for Active; 'I' for Inactive)
    1  A    between atoms: C_3  and  C_5
    2  A    between atoms: C_3  and  C_35
    3  A    between atoms: C_8  and  C_26
    4  A    between atoms: C_8  and  C_35
    5  A    between atoms: N_16  and  C_38
    6  A    between atoms: C_23  and  C_26
                            x       y       z     vdW  Elec       q    Type
                         _______ _______ _______ _____ _____    ______ ____

>  <TORSDO>
F 6

$$$$
=
 OpenBabel10232411073D

 39 42  0  0  1  0  0  0  0  0999 V2000
  187.8490  171.3230  135.4670 C   0  0  0  0  0  2  0  0  0  0  0  0
  187.2850  177.3850  136.6640 C   0  0  0  0  0  2  0  0  0  0  0  0
  190.4600  173.0500  134.3460 C   0  0  0  0  0  2  0  0  0  0  0  0
  188.1720  177.8810  138.9650 C   0  0  1  0  0  3  0  0  0  0  0  0
  194.0850  176.0760  135.8870 C   0  0  0  0  0  0  0  0  0  0  0  0
  188.2230  178.2550  137.4860 C   0  0  0  0  0  2  0  0  0  0  0  0
  186.0970  175.1960  135.0950 C   0  0  0  0  0  3  0  0  0  0  0  0
  189.1680  171.2890  134.7020 C   0  0  1  0  0  3  0  0  0  0  0  0
  187.7770  176.0530  136.6600 O   0  0  0  0  0  0  0  0  0  0  0  0
  186.1550  172.8700  134.5360 N   0  0  0  0  0  0  0  0  0  0  0  0
  191.1880  176.2300  140.1870 C   0  0  0  0  0  1  0  0  0  0  0  0
  195.0160  175.2430  135.1810 N   0  0  0  0  0  0  0  0  0  0  0  0
  192.7620  175.5260  136.2690 C   0  0  0  0  0  0  0  0  0  0  0  0
  185.5880  174.1010  134.3890 C   0  0  0  0  0  3  0  0  0  0  0  0
  190.4000  176.6440  138.9580 C   0  0  1  0  0  3  0  0  0  0  0  0
  192.0660  176.1810  137.2080 C   0  0  0  0  0  3  0  0  0  0  0  0
  192.3050  174.1920  135.6850 C   0  0  2  0  0  3  0  0  0  0  0  0
  193.3170  173.5950  134.6860 C   0  0  0  0  0  2  0  0  0  0  0  0
  194.4010  177.2600  136.1960 O   0  0  0  0  0  0  0  0  0  0  0  0
  190.7550  175.7470  137.7790 C   0  0  0  0  0  2  0  0  0  0  0  0
  187.7380  173.7360  136.0960 C   0  0  0  0  0  3  0  0  0  0  0  0
  194.7550  173.8120  135.1330 C   0  0  0  0  0  2  0  0  0  0  0  0
  190.1180  172.1090  135.3240 O   0  0  0  0  0  0  0  0  0  0  0  0
  189.6810  169.8630  134.6580 C   0  0  0  0  0  1  0  0  0  0  0  0
  188.9110  176.5680  139.2670 C   0  0  0  0  0  2  0  0  0  0  0  0
  187.2100  172.6680  135.3720 C   0  0  0  0  0  0  0  0  0  0  0  0
  187.1920  175.0070  135.9520 C   0  0  0  0  0  0  0  0  0  0  0  0
  190.9500  174.3480  134.9850 C   0  0  0  0  0  2  0  0  0  0  0  0
  197.3100  174.6750  134.5500 C   0  0  0  0  0  2  0  0  0  0  0  0
  197.3730  175.6720  135.6820 C   0  0  0  0  0  2  0  0  0  0  0  0
  196.2660  175.7760  134.6430 C   0  0  0  0  0  3  0  0  0  0  0  0
  188.7100  179.0240  139.8140 C   0  0  0  0  0  2  0  0  0  0  0  0
  188.3240  178.8190  141.2730 C   0  0  0  0  0  2  0  0  0  0  0  0
  186.8460  178.4680  141.4260 C   0  0  2  0  0  3  0  0  0  0  0  0
  186.0550  179.5960  141.2040 O   0  0  0  0  0  1  0  0  0  0  0  0
  186.5450  177.8850  142.8040 C   0  0  0  0  0  2  0  0  0  0  0  0
  187.7330  177.4820  144.9860 C   0  0  0  0  0  1  0  0  0  0  0  0
  187.7740  177.2790  143.4820 C   0  0  1  0  0  3  0  0  0  0  0  0
  187.8890  175.9200  143.1840 O   0  0  0  0  0  1  0  0  0  0  0  0
  2  6  1  0  0  0  0
  3 28  1  0  0  0  0
  3 23  1  0  0  0  0
  4 25  1  0  0  0  0
  4 32  1  1  0  0  0
  5 19  2  0  0  0  0
  5 13  1  0  0  0  0
  6  4  1  0  0  0  0
  7 27  1  0  0  0  0
  8 24  1  1  0  0  0
  8 23  1  0  0  0  0
  8  1  1  0  0  0  0
  9  2  1  0  0  0  0
 10 26  2  0  0  0  0
 12  5  1  0  0  0  0
 13 16  2  0  0  0  0
 14 10  1  0  0  0  0
 14  7  2  0  0  0  0
 15 25  1  0  0  0  0
 15 11  1  1  0  0  0
 16 20  1  0  0  0  0
 17 18  1  6  0  0  0
 17 13  1  0  0  0  0
 18 22  1  0  0  0  0
 20 15  1  0  0  0  0
 22 12  1  0  0  0  0
 26  1  1  0  0  0  0
 26 21  1  0  0  0  0
 27 21  2  0  0  0  0
 27  9  1  0  0  0  0
 28 17  1  0  0  0  0
 29 31  1  0  0  0  0
 29 30  1  0  0  0  0
 31 12  1  0  0  0  0
 31 30  1  0  0  0  0
 32 33  1  0  0  0  0
 33 34  1  0  0  0  0
 34 35  1  1  0  0  0
 34 36  1  0  0  0  0
 36 38  1  0  0  0  0
 38 37  1  1  0  0  0
 39 38  1  0  0  0  0
M  END
>  <MODEL>
4

>  <REMARK>
 VINA RESULT:      -5.8      3.714      9.276
  Name = 
  6 active torsions:
  status: ('A' for Active; 'I' for Inactive)
    1  A    between atoms: C_3  and  C_5
    2  A    between atoms: C_3  and  C_35
    3  A    between atoms: C_8  and  C_26
    4  A    between atoms: C_8  and  C_35
    5  A    between atoms: N_16  and  C_38
    6  A    between atoms: C_23  and  C_26
                            x       y       z     vdW  Elec       q    Type
                         _______ _______ _______ _____ _____    ______ ____

>  <TORSDO>
F 6

$$$$
=
 OpenBabel10232411073D

 39 42  0  0  1  0  0  0  0  0999 V2000
  190.1850  176.8290  140.6870 C   0  0  0  0  0  2  0  0  0  0  0  0
  188.9010  174.6810  135.0100 C   0  0  0  0  0  2  0  0  0  0  0  0
  187.7200  178.5370  139.2510 C   0  0  0  0  0  2  0  0  0  0  0  0
  187.2530  172.7880  135.1720 C   0  0  1  0  0  3  0  0  0  0  0  0
  183.1890  177.9500  137.3010 C   0  0  0  0  0  0  0  0  0  0  0  0
  187.5760  174.1250  134.5110 C   0  0  0  0  0  2  0  0  0  0  0  0
  190.9980  176.0260  136.5770 C   0  0  0  0  0  3  0  0  0  0  0  0
  189.2150  178.0020  140.7920 C   0  0  1  0  0  3  0  0  0  0  0  0
  188.7640  175.0410  136.3770 O   0  0  0  0  0  0  0  0  0  0  0  0
  191.6680  176.8870  138.7070 N   0  0  0  0  0  0  0  0  0  0  0  0
  184.4860  172.9330  137.5470 C   0  0  0  0  0  1  0  0  0  0  0  0
  182.7470  179.0440  138.1170 N   0  0  0  0  0  0  0  0  0  0  0  0
  184.4190  177.2110  137.6780 C   0  0  0  0  0  0  0  0  0  0  0  0
  191.9440  176.6560  137.3930 C   0  0  0  0  0  3  0  0  0  0  0  0
  185.4950  173.7410  136.7520 C   0  0  1  0  0  3  0  0  0  0  0  0
  184.6140  176.0070  137.1230 C   0  0  0  0  0  3  0  0  0  0  0  0
  185.3360  177.7790  138.7580 C   0  0  2  0  0  3  0  0  0  0  0  0
  184.8550  179.1410  139.3000 C   0  0  0  0  0  2  0  0  0  0  0  0
  182.5230  177.6090  136.2840 O   0  0  0  0  0  0  0  0  0  0  0  0
  185.7460  175.0820  137.4300 C   0  0  0  0  0  2  0  0  0  0  0  0
  189.5210  175.8720  138.4790 C   0  0  0  0  0  3  0  0  0  0  0  0
  183.3410  179.1960  139.4390 C   0  0  0  0  0  2  0  0  0  0  0  0
  187.9540  177.6420  140.3000 O   0  0  0  0  0  0  0  0  0  0  0  0
  189.0930  178.4190  142.2440 C   0  0  0  0  0  1  0  0  0  0  0  0
  186.7890  172.9470  136.6290 C   0  0  0  0  0  2  0  0  0  0  0  0
  190.4840  176.5080  139.2620 C   0  0  0  0  0  0  0  0  0  0  0  0
  189.7690  175.6390  137.1310 C   0  0  0  0  0  0  0  0  0  0  0  0
  186.7640  177.9350  138.2230 C   0  0  0  0  0  2  0  0  0  0  0  0
  181.0460  180.6050  138.9240 C   0  0  0  0  0  2  0  0  0  0  0  0
  180.3370  179.4110  138.3290 C   0  0  0  0  0  2  0  0  0  0  0  0
  181.6380  179.9040  137.7120 C   0  0  0  0  0  3  0  0  0  0  0  0
  186.2240  172.0290  134.3460 C   0  0  0  0  0  2  0  0  0  0  0  0
  186.2830  170.5420  134.6720 C   0  0  0  0  0  2  0  0  0  0  0  0
  184.9290  170.0080  135.1350 C   0  0  2  0  0  3  0  0  0  0  0  0
  184.8870  168.6190  135.0060 O   0  0  0  0  0  1  0  0  0  0  0  0
  183.7790  170.6380  134.3550 C   0  0  0  0  0  2  0  0  0  0  0  0
  181.7260  172.0030  134.8600 C   0  0  0  0  0  1  0  0  0  0  0  0
  182.4800  170.7190  135.1570 C   0  0  1  0  0  3  0  0  0  0  0  0
  181.6670  169.6140  134.9020 O   0  0  0  0  0  1  0  0  0  0  0  0
  1  8  1  0  0  0  0
  2  9  1  0  0  0  0
  3 23  1  0  0  0  0
  4 32  1  6  0  0  0
  4 25  1  0  0  0  0
  5 13  1  0  0  0  0
  5 12  1  0  0  0  0
  6  2  1  0  0  0  0
  6  4  1  0  0  0  0
  7 27  2  0  0  0  0
  7 14  1  0  0  0  0
  8 24  1  1  0  0  0
  9 27  1  0  0  0  0
 10 26  1  0  0  0  0
 12 22  1  0  0  0  0
 13 17  1  0  0  0  0
 14 10  2  0  0  0  0
 15 20  1  0  0  0  0
 15 11  1  1  0  0  0
 16 20  1  0  0  0  0
 16 13  2  0  0  0  0
 17 28  1  6  0  0  0
 17 18  1  0  0  0  0
 18 22  1  0  0  0  0
 19  5  2  0  0  0  0
 21 26  2  0  0  0  0
 23  8  1  0  0  0  0
 25 15  1  0  0  0  0
 26  1  1  0  0  0  0
 27 21  1  0  0  0  0
 28  3  1  0  0  0  0
 30 29  1  0  0  0  0
 31 12  1  0  0  0  0
 31 30  1  0  0  0  0
 31 29  1  0  0  0  0
 32 33  1  0  0  0  0
 33 34  1  0  0  0  0
 34 35  1  6  0  0  0
 36 34  1  0  0  0  0
 36 38  1  0  0  0  0
 38 37  1  6  0  0  0
 39 38  1  0  0  0  0
M  END
>  <MODEL>
5

>  <REMARK>
 VINA RESULT:      -5.2      3.483      7.821
  Name = 
  6 active torsions:
  status: ('A' for Active; 'I' for Inactive)
    1  A    between atoms: C_3  and  C_5
    2  A    between atoms: C_3  and  C_35
    3  A    between atoms: C_8  and  C_26
    4  A    between atoms: C_8  and  C_35
    5  A    between atoms: N_16  and  C_38
    6  A    between atoms: C_23  and  C_26
                            x       y       z     vdW  Elec       q    Type
                         _______ _______ _______ _____ _____    ______ ____

>  <TORSDO>
F 6

$$$$
=
 OpenBabel10232411073D

 39 42  0  0  1  0  0  0  0  0999 V2000
  181.3080  179.3360  137.5650 C   0  0  0  0  0  2  0  0  0  0  0  0
  185.6560  174.9700  136.8460 C   0  0  0  0  0  2  0  0  0  0  0  0
  182.5780  178.3690  140.4820 C   0  0  0  0  0  2  0  0  0  0  0  0
  187.8890  176.0550  136.4380 C   0  0  1  0  0  3  0  0  0  0  0  0
  186.8730  178.0820  142.9610 C   0  0  0  0  0  0  0  0  0  0  0  0
  187.1140  175.0390  137.2740 C   0  0  0  0  0  2  0  0  0  0  0  0
  182.7760  175.4710  136.5110 C   0  0  0  0  0  3  0  0  0  0  0  0
  181.2540  179.4600  139.0840 C   0  0  1  0  0  3  0  0  0  0  0  0
  185.0190  176.1930  137.1830 O   0  0  0  0  0  0  0  0  0  0  0  0
  180.9780  177.0390  136.7030 N   0  0  0  0  0  0  0  0  0  0  0  0
  188.8540  179.0610  138.2680 C   0  0  0  0  0  1  0  0  0  0  0  0
  186.2220  178.7220  144.0680 N   0  0  0  0  0  0  0  0  0  0  0  0
  186.3010  178.2240  141.6000 C   0  0  0  0  0  0  0  0  0  0  0  0
  181.4210  175.7930  136.3750 C   0  0  0  0  0  3  0  0  0  0  0  0
  187.9610  177.8330  138.2620 C   0  0  1  0  0  3  0  0  0  0  0  0
  187.0920  177.9270  140.5600 C   0  0  0  0  0  3  0  0  0  0  0  0
  184.9030  178.8140  141.4300 C   0  0  2  0  0  3  0  0  0  0  0  0
  184.2250  179.1500  142.7740 C   0  0  0  0  0  2  0  0  0  0  0  0
  187.9350  177.4230  143.1440 O   0  0  0  0  0  0  0  0  0  0  0  0
  186.7260  178.0770  139.1190 C   0  0  0  0  0  2  0  0  0  0  0  0
  183.1880  177.7160  137.2970 C   0  0  0  0  0  3  0  0  0  0  0  0
  185.2090  179.7270  143.7800 C   0  0  0  0  0  2  0  0  0  0  0  0
  182.5470  179.4730  139.6220 O   0  0  0  0  0  0  0  0  0  0  0  0
  180.5390  180.7450  139.4530 C   0  0  0  0  0  1  0  0  0  0  0  0
  187.5670  177.5060  136.8270 C   0  0  0  0  0  2  0  0  0  0  0  0
  181.8300  178.0010  137.1560 C   0  0  0  0  0  0  0  0  0  0  0  0
  183.6640  176.4470  136.9860 C   0  0  0  0  0  0  0  0  0  0  0  0
  184.0050  177.8480  140.6490 C   0  0  0  0  0  2  0  0  0  0  0  0
  185.6130  177.6540  146.1820 C   0  0  0  0  0  2  0  0  0  0  0  0
  185.6770  179.1440  146.4160 C   0  0  0  0  0  2  0  0  0  0  0  0
  186.6480  178.4890  145.4460 C   0  0  0  0  0  3  0  0  0  0  0  0
  189.3820  175.7780  136.5270 C   0  0  0  0  0  2  0  0  0  0  0  0
  189.6540  174.2940  136.3150 C   0  0  0  0  0  2  0  0  0  0  0  0
  191.0350  173.8910  136.8280 C   0  0  2  0  0  3  0  0  0  0  0  0
  191.5990  174.9320  137.5680 O   0  0  0  0  0  1  0  0  0  0  0  0
  191.9680  173.5010  135.6850 C   0  0  0  0  0  2  0  0  0  0  0  0
  192.9820  171.5220  134.5060 C   0  0  0  0  0  1  0  0  0  0  0  0
  192.5640  172.1020  135.8450 C   0  0  1  0  0  3  0  0  0  0  0  0
  193.6510  172.1200  136.7200 O   0  0  0  0  0  1  0  0  0  0  0  0
  1  8  1  0  0  0  0
  2  9  1  0  0  0  0
  2  6  1  0  0  0  0
  3 28  1  0  0  0  0
  4 32  1  1  0  0  0
  4 25  1  0  0  0  0
  4  6  1  0  0  0  0
  5 19  2  0  0  0  0
  5 12  1  0  0  0  0
  7 27  1  0  0  0  0
  8 24  1  6  0  0  0
  8 23  1  0  0  0  0
 10 26  2  0  0  0  0
 12 31  1  0  0  0  0
 13  5  1  0  0  0  0
 14  7  2  0  0  0  0
 14 10  1  0  0  0  0
 15 11  1  6  0  0  0
 15 20  1  0  0  0  0
 16 13  2  0  0  0  0
 17 28  1  1  0  0  0
 17 13  1  0  0  0  0
 17 18  1  0  0  0  0
 18 22  1  0  0  0  0
 20 16  1  0  0  0  0
 22 12  1  0  0  0  0
 23  3  1  0  0  0  0
 25 15  1  0  0  0  0
 26 21  1  0  0  0  0
 26  1  1  0  0  0  0
 27  9  1  0  0  0  0
 27 21  2  0  0  0  0
 29 30  1  0  0  0  0
 31 29  1  0  0  0  0
 31 30  1  0  0  0  0
 33 32  1  0  0  0  0
 33 34  1  0  0  0  0
 34 35  1  6  0  0  0
 36 38  1  0  0  0  0
 36 34  1  0  0  0  0
 38 37  1  6  0  0  0
 38 39  1  0  0  0  0
M  END
>  <MODEL>
6

>  <REMARK>
 VINA RESULT:      -5.2      1.411      1.563
  Name = 
  6 active torsions:
  status: ('A' for Active; 'I' for Inactive)
    1  A    between atoms: C_3  and  C_5
    2  A    between atoms: C_3  and  C_35
    3  A    between atoms: C_8  and  C_26
    4  A    between atoms: C_8  and  C_35
    5  A    between atoms: N_16  and  C_38
    6  A    between atoms: C_23  and  C_26
                            x       y       z     vdW  Elec       q    Type
                         _______ _______ _______ _____ _____    ______ ____

>  <TORSDO>
F 6

$$$$
=
 OpenBabel10232411073D

 39 42  0  0  1  0  0  0  0  0999 V2000
  189.1760  177.3440  136.0880 C   0  0  0  0  0  2  0  0  0  0  0  0
  184.4140  178.3770  139.9270 C   0  0  0  0  0  2  0  0  0  0  0  0
  187.5120  174.5470  136.7680 C   0  0  0  0  0  2  0  0  0  0  0  0
  182.3850  179.0490  138.6000 C   0  0  1  0  0  3  0  0  0  0  0  0
  182.9890  172.5210  136.4290 C   0  0  0  0  0  0  0  0  0  0  0  0
  182.9400  178.1060  139.6640 C   0  0  0  0  0  2  0  0  0  0  0  0
  187.3530  178.4260  139.7900 C   0  0  0  0  0  3  0  0  0  0  0  0
  189.0940  175.8310  135.9050 C   0  0  1  0  0  3  0  0  0  0  0  0
  185.1610  178.0130  138.7760 O   0  0  0  0  0  0  0  0  0  0  0  0
  189.3030  178.0950  138.4430 N   0  0  0  0  0  0  0  0  0  0  0  0
  181.6220  177.4230  135.4240 C   0  0  0  0  0  1  0  0  0  0  0  0
  183.6000  171.3720  135.8250 N   0  0  0  0  0  0  0  0  0  0  0  0
  183.7070  173.8180  136.4160 C   0  0  0  0  0  0  0  0  0  0  0  0
  188.7440  178.4300  139.6400 C   0  0  0  0  0  3  0  0  0  0  0  0
  182.3520  177.2980  136.7490 C   0  0  1  0  0  3  0  0  0  0  0  0
  182.9920  174.9250  136.6610 C   0  0  0  0  0  3  0  0  0  0  0  0
  185.1770  173.8600  136.0070 C   0  0  2  0  0  3  0  0  0  0  0  0
  185.7540  172.4640  135.6970 C   0  0  0  0  0  2  0  0  0  0  0  0
  181.8410  172.4290  136.9480 O   0  0  0  0  0  0  0  0  0  0  0  0
  183.5160  176.3240  136.6180 C   0  0  0  0  0  2  0  0  0  0  0  0
  187.1460  177.7560  137.4800 C   0  0  0  0  0  3  0  0  0  0  0  0
  184.7540  171.5840  134.9620 C   0  0  0  0  0  2  0  0  0  0  0  0
  187.7640  175.4320  135.7140 O   0  0  0  0  0  0  0  0  0  0  0  0
  189.9220  175.4300  134.7010 C   0  0  0  0  0  1  0  0  0  0  0  0
  182.8430  178.6730  137.1820 C   0  0  0  0  0  2  0  0  0  0  0  0
  188.5360  177.7640  137.3670 C   0  0  0  0  0  0  0  0  0  0  0  0
  186.5490  178.0750  138.6950 C   0  0  0  0  0  0  0  0  0  0  0  0
  186.0220  174.5130  137.1060 C   0  0  0  0  0  2  0  0  0  0  0  0
  184.0180  168.9820  135.5160 C   0  0  0  0  0  2  0  0  0  0  0  0
  182.9070  169.3850  134.5760 C   0  0  0  0  0  2  0  0  0  0  0  0
  183.0130  170.0390  135.9460 C   0  0  0  0  0  3  0  0  0  0  0  0
  180.8670  179.1070  138.6910 C   0  0  0  0  0  2  0  0  0  0  0  0
  180.3870  180.5450  138.5350 C   0  0  0  0  0  2  0  0  0  0  0  0
  181.3690  181.3860  137.7230 C   0  0  2  0  0  3  0  0  0  0  0  0
  182.0760  182.2490  138.5630 O   0  0  0  0  0  1  0  0  0  0  0  0
  180.6590  182.1860  136.6340 C   0  0  0  0  0  2  0  0  0  0  0  0
  180.6610  184.4030  135.4430 C   0  0  0  0  0  1  0  0  0  0  0  0
  180.8530  183.6950  136.7730 C   0  0  1  0  0  3  0  0  0  0  0  0
  179.9830  184.2240  137.7280 O   0  0  0  0  0  1  0  0  0  0  0  0
  1 26  1  0  0  0  0
  3 28  1  0  0  0  0
  4 32  1  6  0  0  0
  4  6  1  0  0  0  0
  5 19  2  0  0  0  0
  6  2  1  0  0  0  0
  8 24  1  6  0  0  0
  8  1  1  0  0  0  0
  9  2  1  0  0  0  0
 10 14  2  0  0  0  0
 12 31  1  0  0  0  0
 12  5  1  0  0  0  0
 13  5  1  0  0  0  0
 13 16  2  0  0  0  0
 14  7  1  0  0  0  0
 15 11  1  6  0  0  0
 15 25  1  0  0  0  0
 17 18  1  1  0  0  0
 17 13  1  0  0  0  0
 17 28  1  0  0  0  0
 20 16  1  0  0  0  0
 20 15  1  0  0  0  0
 21 27  1  0  0  0  0
 22 18  1  0  0  0  0
 22 12  1  0  0  0  0
 23  8  1  0  0  0  0
 23  3  1  0  0  0  0
 25  4  1  0  0  0  0
 26 21  2  0  0  0  0
 26 10  1  0  0  0  0
 27  9  1  0  0  0  0
 27  7  2  0  0  0  0
 29 31  1  0  0  0  0
 30 29  1  0  0  0  0
 30 31  1  0  0  0  0
 33 32  1  0  0  0  0
 34 33  1  0  0  0  0
 34 35  1  1  0  0  0
 36 38  1  0  0  0  0
 36 34  1  0  0  0  0
 38 37  1  6  0  0  0
 38 39  1  0  0  0  0
M  END
>  <MODEL>
7

>  <REMARK>
 VINA RESULT:      -5.0      3.402      9.589
  Name = 
  6 active torsions:
  status: ('A' for Active; 'I' for Inactive)
    1  A    between atoms: C_3  and  C_5
    2  A    between atoms: C_3  and  C_35
    3  A    between atoms: C_8  and  C_26
    4  A    between atoms: C_8  and  C_35
    5  A    between atoms: N_16  and  C_38
    6  A    between atoms: C_23  and  C_26
                            x       y       z     vdW  Elec       q    Type
                         _______ _______ _______ _____ _____    ______ ____

>  <TORSDO>
F 6

$$$$
=
 OpenBabel10232411073D

 39 42  0  0  1  0  0  0  0  0999 V2000
  194.1510  176.4010  137.3680 C   0  0  0  0  0  2  0  0  0  0  0  0
  188.4490  177.4350  139.5820 C   0  0  0  0  0  2  0  0  0  0  0  0
  192.2540  173.6740  137.2120 C   0  0  0  0  0  2  0  0  0  0  0  0
  186.9800  178.3430  137.7530 C   0  0  1  0  0  3  0  0  0  0  0  0
  188.0090  171.9840  135.2640 C   0  0  0  0  0  0  0  0  0  0  0  0
  187.1280  177.2840  138.8420 C   0  0  0  0  0  2  0  0  0  0  0  0
  191.2760  177.3010  140.3890 C   0  0  0  0  0  3  0  0  0  0  0  0
  194.0760  174.9160  137.0230 C   0  0  1  0  0  3  0  0  0  0  0  0
  189.5120  177.1160  138.6980 O   0  0  0  0  0  0  0  0  0  0  0  0
  193.5410  176.9520  139.7030 N   0  0  0  0  0  0  0  0  0  0  0  0
  187.2190  177.0300  134.3560 C   0  0  0  0  0  1  0  0  0  0  0  0
  188.7390  170.8490  134.7770 N   0  0  0  0  0  0  0  0  0  0  0  0
  188.7400  173.2280  135.6040 C   0  0  0  0  0  0  0  0  0  0  0  0
  192.6400  177.2250  140.6880 C   0  0  0  0  0  3  0  0  0  0  0  0
  187.4790  176.7520  135.8260 C   0  0  1  0  0  3  0  0  0  0  0  0
  188.0260  174.3570  135.7160 C   0  0  0  0  0  3  0  0  0  0  0  0
  190.2640  173.2050  135.6880 C   0  0  2  0  0  3  0  0  0  0  0  0
  190.8590  171.8030  135.4430 C   0  0  0  0  0  2  0  0  0  0  0  0
  186.7520  171.9270  135.3810 O   0  0  0  0  0  0  0  0  0  0  0  0
  188.5870  175.7170  135.9770 C   0  0  0  0  0  2  0  0  0  0  0  0
  191.7980  176.8330  138.0790 C   0  0  0  0  0  3  0  0  0  0  0  0
  190.1160  171.0530  134.3480 C   0  0  0  0  0  2  0  0  0  0  0  0
  192.8650  174.6220  136.3840 O   0  0  0  0  0  0  0  0  0  0  0  0
  195.2320  174.5580  136.1110 C   0  0  0  0  0  1  0  0  0  0  0  0
  187.8560  178.0520  136.5240 C   0  0  0  0  0  2  0  0  0  0  0  0
  193.1500  176.7580  138.4140 C   0  0  0  0  0  0  0  0  0  0  0  0
  190.8540  177.0930  139.0670 C   0  0  0  0  0  0  0  0  0  0  0  0
  190.7350  173.7110  137.0560 C   0  0  0  0  0  2  0  0  0  0  0  0
  187.8940  168.8530  135.9100 C   0  0  0  0  0  2  0  0  0  0  0  0
  189.0270  168.4290  135.0070 C   0  0  0  0  0  2  0  0  0  0  0  0
  188.0960  169.5520  134.5760 C   0  0  0  0  0  3  0  0  0  0  0  0
  185.5160  178.4940  137.3640 C   0  0  0  0  0  2  0  0  0  0  0  0
  184.7540  177.2150  137.6850 C   0  0  0  0  0  2  0  0  0  0  0  0
  183.5590  177.4800  138.5980 C   0  0  2  0  0  3  0  0  0  0  0  0
  182.3660  177.2360  137.9150 O   0  0  0  0  0  1  0  0  0  0  0  0
  183.5670  178.9090  139.1350 C   0  0  0  0  0  2  0  0  0  0  0  0
  183.7790  177.6330  141.2930 C   0  0  0  0  0  1  0  0  0  0  0  0
  183.9010  178.9910  140.6240 C   0  0  1  0  0  3  0  0  0  0  0  0
  185.1810  179.5100  140.8210 O   0  0  0  0  0  1  0  0  0  0  0  0
  1 26  1  0  0  0  0
  4 32  1  6  0  0  0
  4  6  1  0  0  0  0
  5 19  2  0  0  0  0
  5 13  1  0  0  0  0
  6  2  1  0  0  0  0
  7 14  1  0  0  0  0
  8 24  1  6  0  0  0
  8  1  1  0  0  0  0
  9 27  1  0  0  0  0
  9  2  1  0  0  0  0
 10 14  2  0  0  0  0
 12  5  1  0  0  0  0
 13 17  1  0  0  0  0
 13 16  2  0  0  0  0
 15 11  1  6  0  0  0
 15 20  1  0  0  0  0
 15 25  1  0  0  0  0
 16 20  1  0  0  0  0
 17 18  1  1  0  0  0
 17 28  1  0  0  0  0
 21 26  2  0  0  0  0
 21 27  1  0  0  0  0
 22 12  1  0  0  0  0
 22 18  1  0  0  0  0
 23  8  1  0  0  0  0
 23  3  1  0  0  0  0
 25  4  1  0  0  0  0
 26 10  1  0  0  0  0
 27  7  2  0  0  0  0
 28  3  1  0  0  0  0
 30 29  1  0  0  0  0
 31 12  1  0  0  0  0
 31 30  1  0  0  0  0
 31 29  1  0  0  0  0
 32 33  1  0  0  0  0
 33 34  1  0  0  0  0
 34 35  1  6  0  0  0
 34 36  1  0  0  0  0
 36 38  1  0  0  0  0
 38 39  1  0  0  0  0
 38 37  1  6  0  0  0
M  END
>  <MODEL>
8

>  <REMARK>
 VINA RESULT:      -4.7      3.663      9.998
  Name = 
  6 active torsions:
  status: ('A' for Active; 'I' for Inactive)
    1  A    between atoms: C_3  and  C_5
    2  A    between atoms: C_3  and  C_35
    3  A    between atoms: C_8  and  C_26
    4  A    between atoms: C_8  and  C_35
    5  A    between atoms: N_16  and  C_38
    6  A    between atoms: C_23  and  C_26
                            x       y       z     vdW  Elec       q    Type
                         _______ _______ _______ _____ _____    ______ ____

>  <TORSDO>
F 6

$$$$
=
 OpenBabel10232411073D

 39 42  0  0  1  0  0  0  0  0999 V2000
  192.7570  175.8490  135.9620 C   0  0  0  0  0  2  0  0  0  0  0  0
  188.1910  177.6550  139.7540 C   0  0  0  0  0  2  0  0  0  0  0  0
  190.5930  173.3920  136.5430 C   0  0  0  0  0  2  0  0  0  0  0  0
  186.3470  178.7200  138.4140 C   0  0  1  0  0  3  0  0  0  0  0  0
  185.7820  172.2440  136.0820 C   0  0  0  0  0  0  0  0  0  0  0  0
  186.6980  177.6670  139.4620 C   0  0  0  0  0  2  0  0  0  0  0  0
  191.0910  177.1640  139.6630 C   0  0  0  0  0  3  0  0  0  0  0  0
  192.4010  174.3820  135.7390 C   0  0  1  0  0  3  0  0  0  0  0  0
  188.8810  177.1860  138.6050 O   0  0  0  0  0  0  0  0  0  0  0  0
  192.9730  176.5100  138.3380 N   0  0  0  0  0  0  0  0  0  0  0  0
  185.3610  177.3360  135.1850 C   0  0  0  0  0  1  0  0  0  0  0  0
  186.1830  171.0160  135.4580 N   0  0  0  0  0  0  0  0  0  0  0  0
  186.7260  173.3870  136.1140 C   0  0  0  0  0  0  0  0  0  0  0  0
  192.4610  176.9140  139.5350 C   0  0  0  0  0  3  0  0  0  0  0  0
  186.0290  177.0480  136.5170 C   0  0  1  0  0  3  0  0  0  0  0  0
  186.2230  174.6010  136.3770 C   0  0  0  0  0  3  0  0  0  0  0  0
  188.1870  173.1660  135.7290 C   0  0  2  0  0  3  0  0  0  0  0  0
  188.5040  171.6950  135.3910 C   0  0  0  0  0  2  0  0  0  0  0  0
  184.6260  172.3540  136.5810 O   0  0  0  0  0  0  0  0  0  0  0  0
  186.9960  175.8800  136.3790 C   0  0  0  0  0  2  0  0  0  0  0  0
  190.8100  176.5970  137.3340 C   0  0  0  0  0  3  0  0  0  0  0  0
  187.3730  171.0320  134.6190 C   0  0  0  0  0  2  0  0  0  0  0  0
  191.0250  174.2400  135.5170 O   0  0  0  0  0  0  0  0  0  0  0  0
  193.1650  173.8630  134.5380 C   0  0  0  0  0  1  0  0  0  0  0  0
  186.7570  178.2990  136.9940 C   0  0  0  0  0  2  0  0  0  0  0  0
  192.1800  176.3510  137.2430 C   0  0  0  0  0  0  0  0  0  0  0  0
  190.2580  176.9930  138.5470 C   0  0  0  0  0  0  0  0  0  0  0  0
  189.1160  173.6260  136.8580 C   0  0  0  0  0  2  0  0  0  0  0  0
  185.6580  168.8960  134.3590 C   0  0  0  0  0  2  0  0  0  0  0  0
  184.4110  169.7470  134.3460 C   0  0  0  0  0  2  0  0  0  0  0  0
  185.3590  169.8120  135.5340 C   0  0  0  0  0  3  0  0  0  0  0  0
  184.8640  179.0550  138.4840 C   0  0  0  0  0  2  0  0  0  0  0  0
  184.1420  178.0550  139.3780 C   0  0  0  0  0  2  0  0  0  0  0  0
  182.6380  178.3180  139.4240 C   0  0  2  0  0  3  0  0  0  0  0  0
  181.9580  177.1660  139.8240 O   0  0  0  0  0  1  0  0  0  0  0  0
  182.1080  178.7920  138.0740 C   0  0  0  0  0  2  0  0  0  0  0  0
  181.8470  181.2630  138.4710 C   0  0  0  0  0  1  0  0  0  0  0  0
  181.1250  179.9580  138.1880 C   0  0  1  0  0  3  0  0  0  0  0  0
  180.3540  180.0760  137.0320 O   0  0  0  0  0  1  0  0  0  0  0  0
  1 26  1  0  0  0  0
  3 28  1  0  0  0  0
  4 32  1  6  0  0  0
  4  6  1  0  0  0  0
  5 13  1  0  0  0  0
  5 19  2  0  0  0  0
  6  2  1  0  0  0  0
  8 24  1  6  0  0  0
  8  1  1  0  0  0  0
  9  2  1  0  0  0  0
 10 14  2  0  0  0  0
 12 31  1  0  0  0  0
 12  5  1  0  0  0  0
 13 16  2  0  0  0  0
 14  7  1  0  0  0  0
 15 11  1  6  0  0  0
 15 25  1  0  0  0  0
 16 20  1  0  0  0  0
 17 18  1  1  0  0  0
 17 13  1  0  0  0  0
 17 28  1  0  0  0  0
 20 15  1  0  0  0  0
 21 27  1  0  0  0  0
 22 18  1  0  0  0  0
 22 12  1  0  0  0  0
 23  8  1  0  0  0  0
 23  3  1  0  0  0  0
 25  4  1  0  0  0  0
 26 21  2  0  0  0  0
 26 10  1  0  0  0  0
 27  9  1  0  0  0  0
 27  7  2  0  0  0  0
 29 31  1  0  0  0  0
 30 29  1  0  0  0  0
 30 31  1  0  0  0  0
 32 33  1  0  0  0  0
 33 34  1  0  0  0  0
 34 35  1  6  0  0  0
 36 38  1  0  0  0  0
 36 34  1  0  0  0  0
 38 37  1  6  0  0  0
 39 38  1  0  0  0  0
M  END
>  <MODEL>
9

>  <REMARK>
 VINA RESULT:      -4.6      3.542      9.844
  Name = 
  6 active torsions:
  status: ('A' for Active; 'I' for Inactive)
    1  A    between atoms: C_3  and  C_5
    2  A    between atoms: C_3  and  C_35
    3  A    between atoms: C_8  and  C_26
    4  A    between atoms: C_8  and  C_35
    5  A    between atoms: N_16  and  C_38
    6  A    between atoms: C_23  and  C_26
                            x       y       z     vdW  Elec       q    Type
                         _______ _______ _______ _____ _____    ______ ____

>  <TORSDO>
F 6

$$$$
