=
 OpenBabel10232410153D

 41 46  0  0  1  0  0  0  0  0999 V2000
  190.4210  177.3210  144.2560 C   0  0  0  0  0  3  0  0  0  0  0  0
  188.3530  177.4460  145.5230 C   0  0  0  0  0  0  0  0  0  0  0  0
  188.2860  177.6660  143.0970 C   0  0  0  0  0  0  0  0  0  0  0  0
  186.2700  177.7620  144.4330 C   0  0  0  0  0  3  0  0  0  0  0  0
  187.0050  177.5920  145.5610 N   0  0  0  0  0  0  0  0  0  0  0  0
  191.1140  177.1110  145.4470 C   0  0  0  0  0  3  0  0  0  0  0  0
  189.0920  177.2380  146.7050 C   0  0  0  0  0  0  0  0  0  0  0  0
  190.4440  177.0740  146.6290 N   0  0  0  0  0  0  0  0  0  0  0  0
  189.0280  177.4840  144.2810 C   0  0  0  0  0  0  0  0  0  0  0  0
  186.8870  177.7960  143.1820 C   0  0  0  0  0  0  0  0  0  0  0  0
  190.6510  176.7600  140.2380 C   0  0  0  0  0  2  0  0  0  0  0  0
  188.6590  177.1160  138.7570 C   0  0  0  0  0  3  0  0  0  0  0  0
  188.9680  177.6630  141.7890 C   0  0  0  0  0  0  0  0  0  0  0  0
  188.6420  178.7070  140.7710 C   0  0  0  0  0  2  0  0  0  0  0  0
  189.8870  176.7400  141.5240 C   0  0  0  0  0  3  0  0  0  0  0  0
  187.8750  178.0740  139.6210 C   0  0  0  0  0  2  0  0  0  0  0  0
  189.8120  176.4810  139.0170 C   0  0  0  0  0  0  0  0  0  0  0  0
  191.5550  175.6870  137.3070 C   0  0  0  0  0  0  0  0  0  0  0  0
  190.3030  175.5950  138.0030 N   0  0  0  0  0  2  0  0  0  0  0  0
  192.3600  176.6310  137.5270 O   0  0  0  0  0  0  0  0  0  0  0  0
  191.8830  174.6860  136.2590 C   0  0  0  0  0  2  0  0  0  0  0  0
  193.1570  175.1010  135.5430 C   0  0  0  0  0  2  0  0  0  0  0  0
  194.1900  173.4870  137.2430 C   0  0  0  0  0  2  0  0  0  0  0  0
  194.6800  173.3240  134.8640 O   0  0  0  0  0  1  0  0  0  0  0  0
  194.3260  174.1940  135.9010 C   0  0  0  0  0  0  0  0  0  0  0  0
  195.3950  174.2600  137.7410 C   0  0  0  0  0  0  0  0  0  0  0  0
  196.4890  173.4430  138.0320 O   0  0  0  0  0  1  0  0  0  0  0  0
  195.0930  175.1330  138.7860 O   0  0  0  0  0  1  0  0  0  0  0  0
  195.5260  174.9700  136.4100 C   0  0  0  0  0  2  0  0  0  0  0  0
  187.7660  178.5550  148.3570 C   0  0  0  0  0  2  0  0  0  0  0  0
  189.0990  178.2080  148.9810 C   0  0  0  0  0  2  0  0  0  0  0  0
  188.4210  177.2150  148.0510 C   0  0  0  0  0  3  0  0  0  0  0  0
  186.0320  177.9900  141.9690 C   0  0  0  0  0  2  0  0  0  0  0  0
  184.9410  179.0120  142.2350 C   0  0  0  0  0  2  0  0  0  0  0  0
  183.5650  178.4110  142.0120 C   0  0  0  0  0  2  0  0  0  0  0  0
  182.5980  178.8440  143.0640 C   0  0  0  0  0  0  0  0  0  0  0  0
  183.3960  179.1710  145.4500 O   0  0  0  0  0  0  0  0  0  0  0  0
  183.0110  179.0090  144.2920 C   0  0  0  0  0  0  0  0  0  0  0  0
  181.2700  179.4010  142.6520 C   0  0  1  0  0  3  0  0  0  0  0  0
  180.9410  178.9280  141.3630 O   0  0  0  0  0  0  0  0  0  0  0  0
  180.2750  178.3260  142.4400 C   0  0  0  0  0  2  0  0  0  0  0  0
  1  9  2  0  0  0  0
  1  6  1  0  0  0  0
  2  5  1  0  0  0  0
  2  7  2  0  0  0  0
  3 10  2  0  0  0  0
  3  9  1  0  0  0  0
  4  5  2  0  0  0  0
  6  8  2  0  0  0  0
  7 32  1  0  0  0  0
  8  7  1  0  0  0  0
  9  2  1  0  0  0  0
 10  4  1  0  0  0  0
 11 15  1  0  0  0  0
 12 17  2  0  0  0  0
 12 16  1  0  0  0  0
 13  3  1  0  0  0  0
 14 13  1  0  0  0  0
 15 13  2  0  0  0  0
 16 14  1  0  0  0  0
 17 11  1  0  0  0  0
 18 20  2  0  0  0  0
 18 19  1  0  0  0  0
 19 17  1  0  0  0  0
 21 18  1  0  0  0  0
 22 25  1  0  0  0  0
 22 21  1  0  0  0  0
 23 26  1  0  0  0  0
 24 25  1  0  0  0  0
 25 29  1  0  0  0  0
 25 23  1  0  0  0  0
 26 27  1  0  0  0  0
 26 28  1  0  0  0  0
 29 26  1  0  0  0  0
 30 31  1  0  0  0  0
 32 30  1  0  0  0  0
 32 31  1  0  0  0  0
 33 34  1  0  0  0  0
 33 10  1  0  0  0  0
 35 34  1  0  0  0  0
 35 36  1  0  0  0  0
 36 38  2  0  0  0  0
 38 37  2  0  0  0  0
 39 36  1  1  0  0  0
 40 41  1  0  0  0  0
 40 39  1  0  0  0  0
 41 39  1  0  0  0  0
M  END
>  <MODEL>
1

>  <REMARK>
 VINA RESULT:      -9.0      0.000      0.000
  Name = 
  11 active torsions:
  status: ('A' for Active; 'I' for Inactive)
    1  A    between atoms: C_1  and  C_27
    2  A    between atoms: C_2  and  C_6
    3  A    between atoms: C_2  and  C_39
    4  A    between atoms: C_4  and  C_33
    5  A    between atoms: C_6  and  C_8
    6  A    between atoms: N_7  and  C_38
    7  A    between atoms: C_8  and  C_27
    8  A    between atoms: C_10  and  C_31
    9  A    between atoms: C_15  and  C_17
   10  A    between atoms: C_22  and  C_30
   11  A    between atoms: C_31  and  C_33
                            x       y       z     vdW  Elec       q    Type
                         _______ _______ _______ _____ _____    ______ ____

>  <TORSDO>
F 11

$$$$
=
 OpenBabel10232410153D

 41 46  0  0  1  0  0  0  0  0999 V2000
  190.3870  177.3140  144.3150 C   0  0  0  0  0  3  0  0  0  0  0  0
  188.2420  177.4740  145.4420 C   0  0  0  0  0  0  0  0  0  0  0  0
  188.3380  177.6770  143.0160 C   0  0  0  0  0  0  0  0  0  0  0  0
  186.2390  177.8080  144.2150 C   0  0  0  0  0  3  0  0  0  0  0  0
  186.8960  177.6370  145.3890 N   0  0  0  0  0  0  0  0  0  0  0  0
  190.9970  177.1030  145.5510 C   0  0  0  0  0  3  0  0  0  0  0  0
  188.8980  177.2650  146.6710 C   0  0  0  0  0  0  0  0  0  0  0  0
  190.2500  177.0820  146.6860 N   0  0  0  0  0  0  0  0  0  0  0  0
  188.9980  177.4950  144.2470 C   0  0  0  0  0  0  0  0  0  0  0  0
  186.9380  177.8260  143.0070 C   0  0  0  0  0  0  0  0  0  0  0  0
  190.9000  176.7480  140.3400 C   0  0  0  0  0  2  0  0  0  0  0  0
  189.0050  177.0360  138.7230 C   0  0  0  0  0  3  0  0  0  0  0  0
  189.1040  177.6570  141.7560 C   0  0  0  0  0  0  0  0  0  0  0  0
  188.8310  178.6720  140.6940 C   0  0  0  0  0  2  0  0  0  0  0  0
  190.0530  176.7440  141.5740 C   0  0  0  0  0  3  0  0  0  0  0  0
  188.1510  178.0000  139.5110 C   0  0  0  0  0  2  0  0  0  0  0  0
  190.1480  176.4280  139.0740 C   0  0  0  0  0  0  0  0  0  0  0  0
  191.9780  175.6680  137.4400 C   0  0  0  0  0  0  0  0  0  0  0  0
  190.7190  175.5270  138.1150 N   0  0  0  0  0  2  0  0  0  0  0  0
  192.7160  176.6720  137.6290 O   0  0  0  0  0  0  0  0  0  0  0  0
  192.3950  174.6410  136.4510 C   0  0  0  0  0  2  0  0  0  0  0  0
  193.8030  174.9430  135.9690 C   0  0  0  0  0  2  0  0  0  0  0  0
  195.5500  174.4320  137.7710 C   0  0  0  0  0  2  0  0  0  0  0  0
  194.2930  172.6610  136.6720 O   0  0  0  0  0  1  0  0  0  0  0  0
  194.8150  173.9520  136.5270 C   0  0  0  0  0  0  0  0  0  0  0  0
  196.8430  174.4120  136.9790 C   0  0  0  0  0  0  0  0  0  0  0  0
  197.7630  173.4750  137.4550 O   0  0  0  0  0  1  0  0  0  0  0  0
  197.4090  175.6770  136.8210 O   0  0  0  0  0  1  0  0  0  0  0  0
  196.1110  173.9420  135.7400 C   0  0  0  0  0  2  0  0  0  0  0  0
  187.5880  178.6430  148.2850 C   0  0  0  0  0  2  0  0  0  0  0  0
  188.8390  178.1550  148.9790 C   0  0  0  0  0  2  0  0  0  0  0  0
  188.1400  177.2600  147.9700 C   0  0  0  0  0  3  0  0  0  0  0  0
  186.1680  178.0220  141.7390 C   0  0  0  0  0  2  0  0  0  0  0  0
  184.8640  178.7520  142.0070 C   0  0  0  0  0  2  0  0  0  0  0  0
  183.6870  178.0030  141.4070 C   0  0  0  0  0  2  0  0  0  0  0  0
  183.5560  178.2680  139.9430 C   0  0  0  0  0  0  0  0  0  0  0  0
  184.3120  180.4960  138.9930 O   0  0  0  0  0  0  0  0  0  0  0  0
  183.9430  179.4170  139.4580 C   0  0  0  0  0  0  0  0  0  0  0  0
  183.3020  177.1220  139.0120 C   0  0  1  0  0  3  0  0  0  0  0  0
  182.6650  176.0780  139.7140 O   0  0  0  0  0  0  0  0  0  0  0  0
  181.8550  176.8500  138.8700 C   0  0  0  0  0  2  0  0  0  0  0  0
  1  6  1  0  0  0  0
  2  7  2  0  0  0  0
  3  9  1  0  0  0  0
  4  5  2  0  0  0  0
  5  2  1  0  0  0  0
  6  8  2  0  0  0  0
  7  8  1  0  0  0  0
  7 32  1  0  0  0  0
  9  1  2  0  0  0  0
  9  2  1  0  0  0  0
 10  3  2  0  0  0  0
 10  4  1  0  0  0  0
 11 15  1  0  0  0  0
 12 17  2  0  0  0  0
 12 16  1  0  0  0  0
 13  3  1  0  0  0  0
 14 13  1  0  0  0  0
 15 13  2  0  0  0  0
 16 14  1  0  0  0  0
 17 11  1  0  0  0  0
 18 20  2  0  0  0  0
 18 19  1  0  0  0  0
 19 17  1  0  0  0  0
 21 18  1  0  0  0  0
 22 21  1  0  0  0  0
 22 25  1  0  0  0  0
 25 24  1  0  0  0  0
 25 23  1  0  0  0  0
 26 27  1  0  0  0  0
 26 23  1  0  0  0  0
 28 26  1  0  0  0  0
 29 25  1  0  0  0  0
 29 26  1  0  0  0  0
 30 31  1  0  0  0  0
 32 30  1  0  0  0  0
 32 31  1  0  0  0  0
 33 34  1  0  0  0  0
 33 10  1  0  0  0  0
 35 34  1  0  0  0  0
 36 35  1  0  0  0  0
 37 38  2  0  0  0  0
 38 36  2  0  0  0  0
 39 40  1  0  0  0  0
 39 36  1  1  0  0  0
 41 39  1  0  0  0  0
 41 40  1  0  0  0  0
M  END
>  <MODEL>
2

>  <REMARK>
 VINA RESULT:      -8.8      1.668      1.977
  Name = 
  11 active torsions:
  status: ('A' for Active; 'I' for Inactive)
    1  A    between atoms: C_1  and  C_27
    2  A    between atoms: C_2  and  C_6
    3  A    between atoms: C_2  and  C_39
    4  A    between atoms: C_4  and  C_33
    5  A    between atoms: C_6  and  C_8
    6  A    between atoms: N_7  and  C_38
    7  A    between atoms: C_8  and  C_27
    8  A    between atoms: C_10  and  C_31
    9  A    between atoms: C_15  and  C_17
   10  A    between atoms: C_22  and  C_30
   11  A    between atoms: C_31  and  C_33
                            x       y       z     vdW  Elec       q    Type
                         _______ _______ _______ _____ _____    ______ ____

>  <TORSDO>
F 11

$$$$
=
 OpenBabel10232410153D

 41 46  0  0  1  0  0  0  0  0999 V2000
  186.3190  177.7240  137.7950 C   0  0  0  0  0  3  0  0  0  0  0  0
  184.8450  178.4940  139.5640 C   0  0  0  0  0  0  0  0  0  0  0  0
  187.2200  178.2080  140.0260 C   0  0  0  0  0  0  0  0  0  0  0  0
  185.6850  178.9870  141.7280 C   0  0  0  0  0  3  0  0  0  0  0  0
  184.6580  178.9000  140.8460 N   0  0  0  0  0  0  0  0  0  0  0  0
  185.2290  177.6950  136.9270 C   0  0  0  0  0  3  0  0  0  0  0  0
  183.7680  178.4440  138.6570 C   0  0  0  0  0  0  0  0  0  0  0  0
  183.9940  178.0510  137.3700 N   0  0  0  0  0  0  0  0  0  0  0  0
  186.1390  178.1320  139.1250 C   0  0  0  0  0  0  0  0  0  0  0  0
  186.9830  178.6510  141.3410 C   0  0  0  0  0  0  0  0  0  0  0  0
  190.6110  176.4850  139.6740 C   0  0  0  0  0  2  0  0  0  0  0  0
  190.3080  176.8550  137.2120 C   0  0  0  0  0  3  0  0  0  0  0  0
  188.5850  177.8780  139.5730 C   0  0  0  0  0  0  0  0  0  0  0  0
  189.2850  178.7620  138.5930 C   0  0  0  0  0  2  0  0  0  0  0  0
  189.1980  176.8010  140.0540 C   0  0  0  0  0  3  0  0  0  0  0  0
  189.3890  178.0520  137.2520 C   0  0  0  0  0  2  0  0  0  0  0  0
  190.7930  176.1190  138.2230 C   0  0  0  0  0  0  0  0  0  0  0  0
  193.0490  175.0180  137.6820 C   0  0  0  0  0  0  0  0  0  0  0  0
  191.6260  175.0060  137.8690 N   0  0  0  0  0  2  0  0  0  0  0  0
  193.7170  176.0810  137.7950 O   0  0  0  0  0  0  0  0  0  0  0  0
  193.7430  173.7660  137.2850 C   0  0  0  0  0  2  0  0  0  0  0  0
  195.0710  173.6690  138.0170 C   0  0  0  0  0  2  0  0  0  0  0  0
  197.5870  173.3110  137.7030 C   0  0  0  0  0  2  0  0  0  0  0  0
  195.9950  172.8280  135.9250 O   0  0  0  0  0  1  0  0  0  0  0  0
  196.2460  173.6210  137.0520 C   0  0  0  0  0  0  0  0  0  0  0  0
  198.0680  174.6920  137.3020 C   0  0  0  0  0  0  0  0  0  0  0  0
  199.1180  174.6620  136.3820 O   0  0  0  0  0  1  0  0  0  0  0  0
  198.3440  175.5150  138.3940 O   0  0  0  0  0  1  0  0  0  0  0  0
  196.7320  175.0040  136.6620 C   0  0  0  0  0  2  0  0  0  0  0  0
  181.5690  177.5410  139.4120 C   0  0  0  0  0  2  0  0  0  0  0  0
  181.3690  178.2370  138.0850 C   0  0  0  0  0  2  0  0  0  0  0  0
  182.3690  178.7940  139.0850 C   0  0  0  0  0  3  0  0  0  0  0  0
  188.0810  178.7590  142.3530 C   0  0  0  0  0  2  0  0  0  0  0  0
  187.8560  177.7880  143.4980 C   0  0  0  0  0  2  0  0  0  0  0  0
  189.0290  176.8350  143.6410 C   0  0  0  0  0  2  0  0  0  0  0  0
  189.9850  177.2920  144.6920 C   0  0  0  0  0  0  0  0  0  0  0  0
  189.3510  177.0960  147.1420 O   0  0  0  0  0  0  0  0  0  0  0  0
  189.6540  177.1920  145.9520 C   0  0  0  0  0  0  0  0  0  0  0  0
  191.4150  177.5400  144.3230 C   0  0  1  0  0  3  0  0  0  0  0  0
  191.4850  177.9860  142.9860 O   0  0  0  0  0  0  0  0  0  0  0  0
  191.6460  178.9610  143.9800 C   0  0  0  0  0  2  0  0  0  0  0  0
  1  9  1  0  0  0  0
  2  5  1  0  0  0  0
  3 10  2  0  0  0  0
  5  4  2  0  0  0  0
  6  8  1  0  0  0  0
  6  1  2  0  0  0  0
  7 32  1  0  0  0  0
  7  2  1  0  0  0  0
  8  7  2  0  0  0  0
  9  2  2  0  0  0  0
  9  3  1  0  0  0  0
 10  4  1  0  0  0  0
 10 33  1  0  0  0  0
 11 15  1  0  0  0  0
 12 16  1  0  0  0  0
 12 17  2  0  0  0  0
 13  3  1  0  0  0  0
 13 15  2  0  0  0  0
 14 13  1  0  0  0  0
 16 14  1  0  0  0  0
 17 11  1  0  0  0  0
 18 20  2  0  0  0  0
 18 19  1  0  0  0  0
 19 17  1  0  0  0  0
 21 18  1  0  0  0  0
 21 22  1  0  0  0  0
 24 25  1  0  0  0  0
 25 23  1  0  0  0  0
 25 22  1  0  0  0  0
 26 23  1  0  0  0  0
 26 28  1  0  0  0  0
 27 26  1  0  0  0  0
 29 25  1  0  0  0  0
 29 26  1  0  0  0  0
 31 32  1  0  0  0  0
 31 30  1  0  0  0  0
 32 30  1  0  0  0  0
 33 34  1  0  0  0  0
 34 35  1  0  0  0  0
 35 36  1  0  0  0  0
 36 38  2  0  0  0  0
 38 37  2  0  0  0  0
 39 36  1  1  0  0  0
 40 41  1  0  0  0  0
 40 39  1  0  0  0  0
 41 39  1  0  0  0  0
M  END
>  <MODEL>
3

>  <REMARK>
 VINA RESULT:      -8.5      3.070      6.263
  Name = 
  11 active torsions:
  status: ('A' for Active; 'I' for Inactive)
    1  A    between atoms: C_1  and  C_27
    2  A    between atoms: C_2  and  C_6
    3  A    between atoms: C_2  and  C_39
    4  A    between atoms: C_4  and  C_33
    5  A    between atoms: C_6  and  C_8
    6  A    between atoms: N_7  and  C_38
    7  A    between atoms: C_8  and  C_27
    8  A    between atoms: C_10  and  C_31
    9  A    between atoms: C_15  and  C_17
   10  A    between atoms: C_22  and  C_30
   11  A    between atoms: C_31  and  C_33
                            x       y       z     vdW  Elec       q    Type
                         _______ _______ _______ _____ _____    ______ ____

>  <TORSDO>
F 11

$$$$
=
 OpenBabel10232410153D

 41 46  0  0  1  0  0  0  0  0999 V2000
  186.0380  177.7250  137.6870 C   0  0  0  0  0  3  0  0  0  0  0  0
  184.8020  178.4000  139.6650 C   0  0  0  0  0  0  0  0  0  0  0  0
  187.2290  178.2120  139.7760 C   0  0  0  0  0  0  0  0  0  0  0  0
  185.9230  178.8950  141.6970 C   0  0  0  0  0  3  0  0  0  0  0  0
  184.7850  178.7780  140.9690 N   0  0  0  0  0  0  0  0  0  0  0  0
  184.8360  177.6620  136.9830 C   0  0  0  0  0  3  0  0  0  0  0  0
  183.6090  178.3170  138.9200 C   0  0  0  0  0  0  0  0  0  0  0  0
  183.6640  177.9560  137.6060 N   0  0  0  0  0  0  0  0  0  0  0  0
  186.0340  178.1030  139.0380 C   0  0  0  0  0  0  0  0  0  0  0  0
  187.1650  178.6230  141.1210 C   0  0  0  0  0  0  0  0  0  0  0  0
  190.5440  176.5750  138.8180 C   0  0  0  0  0  2  0  0  0  0  0  0
  189.9450  177.2230  136.4710 C   0  0  0  0  0  3  0  0  0  0  0  0
  188.5270  177.9500  139.1260 C   0  0  0  0  0  0  0  0  0  0  0  0
  189.1060  178.9480  138.1770 C   0  0  0  0  0  2  0  0  0  0  0  0
  189.1890  176.8310  139.4010 C   0  0  0  0  0  3  0  0  0  0  0  0
  189.0430  178.3980  136.7600 C   0  0  0  0  0  2  0  0  0  0  0  0
  190.5460  176.3800  137.3240 C   0  0  0  0  0  0  0  0  0  0  0  0
  191.0280  173.9200  136.7660 C   0  0  0  0  0  0  0  0  0  0  0  0
  191.3250  175.3240  136.7440 N   0  0  0  0  0  2  0  0  0  0  0  0
  190.0090  173.4740  137.3580 O   0  0  0  0  0  0  0  0  0  0  0  0
  191.9730  172.9640  136.1330 C   0  0  0  0  0  2  0  0  0  0  0  0
  193.0150  173.7320  135.3380 C   0  0  0  0  0  2  0  0  0  0  0  0
  194.3840  173.4090  137.4780 C   0  0  0  0  0  2  0  0  0  0  0  0
  195.2400  172.7410  135.3000 O   0  0  0  0  0  1  0  0  0  0  0  0
  194.3950  173.6310  135.9720 C   0  0  0  0  0  0  0  0  0  0  0  0
  195.0450  174.7620  137.6540 C   0  0  0  0  0  0  0  0  0  0  0  0
  196.3300  174.6790  138.1940 O   0  0  0  0  0  1  0  0  0  0  0  0
  194.2430  175.6810  138.3310 O   0  0  0  0  0  1  0  0  0  0  0  0
  195.0480  174.9870  136.1560 C   0  0  0  0  0  2  0  0  0  0  0  0
  181.6260  177.3160  140.0540 C   0  0  0  0  0  2  0  0  0  0  0  0
  181.1720  177.9270  138.7480 C   0  0  0  0  0  2  0  0  0  0  0  0
  182.2730  178.5990  139.5510 C   0  0  0  0  0  3  0  0  0  0  0  0
  188.3910  178.7640  141.9680 C   0  0  0  0  0  2  0  0  0  0  0  0
  188.2810  177.9130  143.2210 C   0  0  0  0  0  2  0  0  0  0  0  0
  189.2240  176.7250  143.1560 C   0  0  0  0  0  2  0  0  0  0  0  0
  190.6240  177.1140  143.5030 C   0  0  0  0  0  0  0  0  0  0  0  0
  192.3500  177.3760  141.6630 O   0  0  0  0  0  0  0  0  0  0  0  0
  191.5100  177.2450  142.5540 C   0  0  0  0  0  0  0  0  0  0  0  0
  190.9130  177.6670  144.8650 C   0  0  1  0  0  3  0  0  0  0  0  0
  190.2100  176.9210  145.8350 O   0  0  0  0  0  0  0  0  0  0  0  0
  191.5840  176.6660  145.7240 C   0  0  0  0  0  2  0  0  0  0  0  0
  1  9  1  0  0  0  0
  2  5  1  0  0  0  0
  3 10  2  0  0  0  0
  5  4  2  0  0  0  0
  6  8  1  0  0  0  0
  6  1  2  0  0  0  0
  7 32  1  0  0  0  0
  7  2  1  0  0  0  0
  8  7  2  0  0  0  0
  9  2  2  0  0  0  0
  9  3  1  0  0  0  0
 10  4  1  0  0  0  0
 10 33  1  0  0  0  0
 11 15  1  0  0  0  0
 12 16  1  0  0  0  0
 12 17  2  0  0  0  0
 13 15  2  0  0  0  0
 13  3  1  0  0  0  0
 14 13  1  0  0  0  0
 16 14  1  0  0  0  0
 17 11  1  0  0  0  0
 18 20  2  0  0  0  0
 19 18  1  0  0  0  0
 19 17  1  0  0  0  0
 21 18  1  0  0  0  0
 22 25  1  0  0  0  0
 22 21  1  0  0  0  0
 23 26  1  0  0  0  0
 24 25  1  0  0  0  0
 25 29  1  0  0  0  0
 25 23  1  0  0  0  0
 26 27  1  0  0  0  0
 26 28  1  0  0  0  0
 29 26  1  0  0  0  0
 31 32  1  0  0  0  0
 31 30  1  0  0  0  0
 32 30  1  0  0  0  0
 33 34  1  0  0  0  0
 35 34  1  0  0  0  0
 35 36  1  0  0  0  0
 37 38  2  0  0  0  0
 38 36  2  0  0  0  0
 39 36  1  6  0  0  0
 39 41  1  0  0  0  0
 39 40  1  0  0  0  0
 41 40  1  0  0  0  0
M  END
>  <MODEL>
4

>  <REMARK>
 VINA RESULT:      -8.4      3.200      6.334
  Name = 
  11 active torsions:
  status: ('A' for Active; 'I' for Inactive)
    1  A    between atoms: C_1  and  C_27
    2  A    between atoms: C_2  and  C_6
    3  A    between atoms: C_2  and  C_39
    4  A    between atoms: C_4  and  C_33
    5  A    between atoms: C_6  and  C_8
    6  A    between atoms: N_7  and  C_38
    7  A    between atoms: C_8  and  C_27
    8  A    between atoms: C_10  and  C_31
    9  A    between atoms: C_15  and  C_17
   10  A    between atoms: C_22  and  C_30
   11  A    between atoms: C_31  and  C_33
                            x       y       z     vdW  Elec       q    Type
                         _______ _______ _______ _____ _____    ______ ____

>  <TORSDO>
F 11

$$$$
=
 OpenBabel10232410153D

 41 46  0  0  1  0  0  0  0  0999 V2000
  186.1660  176.9590  136.7510 C   0  0  0  0  0  3  0  0  0  0  0  0
  186.1100  178.1630  138.8590 C   0  0  0  0  0  0  0  0  0  0  0  0
  188.2120  177.2050  138.0840 C   0  0  0  0  0  0  0  0  0  0  0  0
  188.0730  178.4340  140.1640 C   0  0  0  0  0  3  0  0  0  0  0  0
  186.7460  178.6330  139.9620 N   0  0  0  0  0  0  0  0  0  0  0  0
  184.8100  177.2320  136.5830 C   0  0  0  0  0  3  0  0  0  0  0  0
  184.7380  178.4110  138.6550 C   0  0  0  0  0  0  0  0  0  0  0  0
  184.1340  177.9420  137.5240 N   0  0  0  0  0  0  0  0  0  0  0  0
  186.8350  177.4300  137.8910 C   0  0  0  0  0  0  0  0  0  0  0  0
  188.8350  177.7250  139.2340 C   0  0  0  0  0  0  0  0  0  0  0  0
  190.5150  176.4600  135.1280 C   0  0  0  0  0  2  0  0  0  0  0  0
  191.3990  174.5980  136.5570 C   0  0  0  0  0  3  0  0  0  0  0  0
  188.9930  176.4820  137.0620 C   0  0  0  0  0  0  0  0  0  0  0  0
  188.8940  174.9950  136.9550 C   0  0  0  0  0  2  0  0  0  0  0  0
  189.7730  177.1580  136.2240 C   0  0  0  0  0  3  0  0  0  0  0  0
  190.1920  174.3630  137.4330 C   0  0  0  0  0  2  0  0  0  0  0  0
  191.5970  175.5290  135.6110 C   0  0  0  0  0  0  0  0  0  0  0  0
  194.0950  176.1000  135.4540 C   0  0  0  0  0  0  0  0  0  0  0  0
  192.8760  175.5260  134.9620 N   0  0  0  0  0  2  0  0  0  0  0  0
  194.1350  176.7160  136.5530 O   0  0  0  0  0  0  0  0  0  0  0  0
  195.3250  176.0240  134.6240 C   0  0  0  0  0  2  0  0  0  0  0  0
  196.1280  174.7970  135.0190 C   0  0  0  0  0  2  0  0  0  0  0  0
  198.5340  174.3750  135.7900 C   0  0  0  0  0  2  0  0  0  0  0  0
  197.4370  176.5180  136.1420 O   0  0  0  0  0  1  0  0  0  0  0  0
  197.2350  175.1400  136.0050 C   0  0  0  0  0  0  0  0  0  0  0  0
  198.3350  173.7140  137.1410 C   0  0  0  0  0  0  0  0  0  0  0  0
  199.3210  174.0570  138.0690 O   0  0  0  0  0  1  0  0  0  0  0  0
  198.1440  172.3360  137.0550 O   0  0  0  0  0  1  0  0  0  0  0  0
  197.0400  174.4690  137.3510 C   0  0  0  0  0  2  0  0  0  0  0  0
  183.2390  178.2080  140.6380 C   0  0  0  0  0  2  0  0  0  0  0  0
  182.4500  178.8190  139.5030 C   0  0  0  0  0  2  0  0  0  0  0  0
  183.9210  179.1630  139.6680 C   0  0  0  0  0  3  0  0  0  0  0  0
  190.2930  177.5300  139.5050 C   0  0  0  0  0  2  0  0  0  0  0  0
  190.5020  176.5690  140.6620 C   0  0  0  0  0  2  0  0  0  0  0  0
  191.0790  177.2870  141.8690 C   0  0  0  0  0  2  0  0  0  0  0  0
  190.4680  176.8010  143.1420 C   0  0  0  0  0  0  0  0  0  0  0  0
  188.0980  175.8950  143.1370 O   0  0  0  0  0  0  0  0  0  0  0  0
  189.2470  176.3380  143.1360 C   0  0  0  0  0  0  0  0  0  0  0  0
  191.3510  176.5390  144.3240 C   0  0  1  0  0  3  0  0  0  0  0  0
  191.7550  177.7660  144.8910 O   0  0  0  0  0  0  0  0  0  0  0  0
  190.7530  177.0610  145.5730 C   0  0  0  0  0  2  0  0  0  0  0  0
  1  9  1  0  0  0  0
  2  5  1  0  0  0  0
  3 10  2  0  0  0  0
  5  4  2  0  0  0  0
  6  1  2  0  0  0  0
  6  8  1  0  0  0  0
  7  2  1  0  0  0  0
  7 32  1  0  0  0  0
  8  7  2  0  0  0  0
  9  3  1  0  0  0  0
  9  2  2  0  0  0  0
 10 33  1  0  0  0  0
 10  4  1  0  0  0  0
 11 17  1  0  0  0  0
 11 15  1  0  0  0  0
 12 16  1  0  0  0  0
 13  3  1  0  0  0  0
 14 13  1  0  0  0  0
 14 16  1  0  0  0  0
 15 13  2  0  0  0  0
 17 12  2  0  0  0  0
 18 20  2  0  0  0  0
 19 18  1  0  0  0  0
 19 17  1  0  0  0  0
 21 22  1  0  0  0  0
 21 18  1  0  0  0  0
 22 25  1  0  0  0  0
 23 25  1  0  0  0  0
 23 26  1  0  0  0  0
 25 24  1  0  0  0  0
 25 29  1  0  0  0  0
 26 29  1  0  0  0  0
 26 27  1  0  0  0  0
 28 26  1  0  0  0  0
 31 32  1  0  0  0  0
 31 30  1  0  0  0  0
 32 30  1  0  0  0  0
 33 34  1  0  0  0  0
 34 35  1  0  0  0  0
 35 36  1  0  0  0  0
 38 37  2  0  0  0  0
 38 36  2  0  0  0  0
 39 36  1  6  0  0  0
 39 40  1  0  0  0  0
 39 41  1  0  0  0  0
 40 41  1  0  0  0  0
M  END
>  <MODEL>
5

>  <REMARK>
 VINA RESULT:      -8.4      3.181      6.727
  Name = 
  11 active torsions:
  status: ('A' for Active; 'I' for Inactive)
    1  A    between atoms: C_1  and  C_27
    2  A    between atoms: C_2  and  C_6
    3  A    between atoms: C_2  and  C_39
    4  A    between atoms: C_4  and  C_33
    5  A    between atoms: C_6  and  C_8
    6  A    between atoms: N_7  and  C_38
    7  A    between atoms: C_8  and  C_27
    8  A    between atoms: C_10  and  C_31
    9  A    between atoms: C_15  and  C_17
   10  A    between atoms: C_22  and  C_30
   11  A    between atoms: C_31  and  C_33
                            x       y       z     vdW  Elec       q    Type
                         _______ _______ _______ _____ _____    ______ ____

>  <TORSDO>
F 11

$$$$
=
 OpenBabel10232410153D

 41 46  0  0  1  0  0  0  0  0999 V2000
  189.3040  174.6040  137.4080 C   0  0  0  0  0  3  0  0  0  0  0  0
  187.3230  174.4900  136.0090 C   0  0  0  0  0  0  0  0  0  0  0  0
  187.6720  176.4360  137.4330 C   0  0  0  0  0  0  0  0  0  0  0  0
  185.7330  176.2510  135.9960 C   0  0  0  0  0  3  0  0  0  0  0  0
  186.1650  175.0400  135.5630 N   0  0  0  0  0  0  0  0  0  0  0  0
  189.7130  173.3740  136.8940 C   0  0  0  0  0  3  0  0  0  0  0  0
  187.7680  173.2460  135.5190 C   0  0  0  0  0  0  0  0  0  0  0  0
  188.9480  172.7310  135.9730 N   0  0  0  0  0  0  0  0  0  0  0  0
  188.1050  175.1800  136.9640 C   0  0  0  0  0  0  0  0  0  0  0  0
  186.4730  176.9770  136.9310 C   0  0  0  0  0  0  0  0  0  0  0  0
  188.8740  178.1300  140.6390 C   0  0  0  0  0  2  0  0  0  0  0  0
  191.1270  177.2090  140.0310 C   0  0  0  0  0  3  0  0  0  0  0  0
  188.4970  177.1900  138.3960 C   0  0  0  0  0  0  0  0  0  0  0  0
  189.7650  177.8420  137.9490 C   0  0  0  0  0  2  0  0  0  0  0  0
  188.1000  177.3050  139.6590 C   0  0  0  0  0  3  0  0  0  0  0  0
  190.9540  177.0970  138.5360 C   0  0  0  0  0  2  0  0  0  0  0  0
  190.2390  177.5800  140.9670 C   0  0  0  0  0  0  0  0  0  0  0  0
  190.6320  176.4470  143.2370 C   0  0  0  0  0  0  0  0  0  0  0  0
  190.6890  177.5560  142.3280 N   0  0  0  0  0  2  0  0  0  0  0  0
  190.1240  175.3450  142.8970 O   0  0  0  0  0  0  0  0  0  0  0  0
  191.1240  176.6180  144.6290 C   0  0  0  0  0  2  0  0  0  0  0  0
  190.2670  177.6470  145.3460 C   0  0  0  0  0  2  0  0  0  0  0  0
  188.4790  176.5980  146.8500 C   0  0  0  0  0  2  0  0  0  0  0  0
  190.8530  176.3720  147.3380 O   0  0  0  0  0  1  0  0  0  0  0  0
  189.8810  177.1840  146.7430 C   0  0  0  0  0  0  0  0  0  0  0  0
  188.0980  177.7500  147.7600 C   0  0  0  0  0  0  0  0  0  0  0  0
  187.7830  177.3410  149.0580 O   0  0  0  0  0  1  0  0  0  0  0  0
  187.1200  178.5800  147.2130 O   0  0  0  0  0  1  0  0  0  0  0  0
  189.4890  178.3370  147.6480 C   0  0  0  0  0  2  0  0  0  0  0  0
  186.0740  171.4410  135.2200 C   0  0  0  0  0  2  0  0  0  0  0  0
  187.3630  171.0000  134.5640 C   0  0  0  0  0  2  0  0  0  0  0  0
  186.9590  172.4640  134.5220 C   0  0  0  0  0  3  0  0  0  0  0  0
  185.9510  178.3050  137.3800 C   0  0  0  0  0  2  0  0  0  0  0  0
  184.7340  178.1330  138.2710 C   0  0  0  0  0  2  0  0  0  0  0  0
  184.8730  178.9460  139.5460 C   0  0  0  0  0  2  0  0  0  0  0  0
  184.1170  178.3300  140.6760 C   0  0  0  0  0  0  0  0  0  0  0  0
  181.9710  177.0580  140.2120 O   0  0  0  0  0  0  0  0  0  0  0  0
  183.0110  177.6790  140.4340 C   0  0  0  0  0  0  0  0  0  0  0  0
  184.7870  178.1760  142.0070 C   0  0  1  0  0  3  0  0  0  0  0  0
  185.5270  179.3410  142.2990 O   0  0  0  0  0  0  0  0  0  0  0  0
  184.3080  179.1870  142.9750 C   0  0  0  0  0  2  0  0  0  0  0  0
  2  9  1  0  0  0  0
  3 13  1  0  0  0  0
  4 10  2  0  0  0  0
  5  4  1  0  0  0  0
  5  2  2  0  0  0  0
  6  1  2  0  0  0  0
  7  8  2  0  0  0  0
  7  2  1  0  0  0  0
  8  6  1  0  0  0  0
  9  1  1  0  0  0  0
  9  3  2  0  0  0  0
 10 33  1  0  0  0  0
 10  3  1  0  0  0  0
 11 17  1  0  0  0  0
 12 17  2  0  0  0  0
 13 15  2  0  0  0  0
 14 13  1  0  0  0  0
 14 16  1  0  0  0  0
 15 11  1  0  0  0  0
 16 12  1  0  0  0  0
 17 19  1  0  0  0  0
 18 21  1  0  0  0  0
 19 18  1  0  0  0  0
 20 18  2  0  0  0  0
 21 22  1  0  0  0  0
 22 25  1  0  0  0  0
 23 26  1  0  0  0  0
 25 23  1  0  0  0  0
 25 24  1  0  0  0  0
 25 29  1  0  0  0  0
 26 27  1  0  0  0  0
 28 26  1  0  0  0  0
 29 26  1  0  0  0  0
 31 30  1  0  0  0  0
 32 31  1  0  0  0  0
 32 30  1  0  0  0  0
 32  7  1  0  0  0  0
 33 34  1  0  0  0  0
 34 35  1  0  0  0  0
 35 36  1  0  0  0  0
 37 38  2  0  0  0  0
 38 36  2  0  0  0  0
 39 36  1  6  0  0  0
 39 40  1  0  0  0  0
 39 41  1  0  0  0  0
 40 41  1  0  0  0  0
M  END
>  <MODEL>
6

>  <REMARK>
 VINA RESULT:      -8.4      3.528      8.820
  Name = 
  11 active torsions:
  status: ('A' for Active; 'I' for Inactive)
    1  A    between atoms: C_1  and  C_27
    2  A    between atoms: C_2  and  C_6
    3  A    between atoms: C_2  and  C_39
    4  A    between atoms: C_4  and  C_33
    5  A    between atoms: C_6  and  C_8
    6  A    between atoms: N_7  and  C_38
    7  A    between atoms: C_8  and  C_27
    8  A    between atoms: C_10  and  C_31
    9  A    between atoms: C_15  and  C_17
   10  A    between atoms: C_22  and  C_30
   11  A    between atoms: C_31  and  C_33
                            x       y       z     vdW  Elec       q    Type
                         _______ _______ _______ _____ _____    ______ ____

>  <TORSDO>
F 11

$$$$
=
 OpenBabel10232410153D

 41 46  0  0  1  0  0  0  0  0999 V2000
  185.9370  178.0040  138.0390 C   0  0  0  0  0  3  0  0  0  0  0  0
  184.9040  178.5380  140.1710 C   0  0  0  0  0  0  0  0  0  0  0  0
  187.3200  178.2470  140.0520 C   0  0  0  0  0  0  0  0  0  0  0  0
  186.2130  178.7970  142.1330 C   0  0  0  0  0  3  0  0  0  0  0  0
  185.0130  178.7920  141.5000 N   0  0  0  0  0  0  0  0  0  0  0  0
  184.6790  178.0540  137.4410 C   0  0  0  0  0  3  0  0  0  0  0  0
  183.6500  178.5720  139.5290 C   0  0  0  0  0  0  0  0  0  0  0  0
  183.5780  178.3330  138.1870 N   0  0  0  0  0  0  0  0  0  0  0  0
  186.0640  178.2540  139.4130 C   0  0  0  0  0  0  0  0  0  0  0  0
  187.3890  178.5320  141.4280 C   0  0  0  0  0  0  0  0  0  0  0  0
  190.3800  176.5230  138.5500 C   0  0  0  0  0  2  0  0  0  0  0  0
  189.7340  177.6900  136.4260 C   0  0  0  0  0  3  0  0  0  0  0  0
  188.5450  177.9970  139.2690 C   0  0  0  0  0  0  0  0  0  0  0  0
  189.1810  179.1060  138.4940 C   0  0  0  0  0  2  0  0  0  0  0  0
  189.0940  176.7870  139.2690 C   0  0  0  0  0  3  0  0  0  0  0  0
  188.9830  178.8640  137.0060 C   0  0  0  0  0  2  0  0  0  0  0  0
  190.2830  176.6360  137.0500 C   0  0  0  0  0  0  0  0  0  0  0  0
  190.9530  174.2330  136.4450 C   0  0  0  0  0  0  0  0  0  0  0  0
  190.9090  175.6490  136.2200 N   0  0  0  0  0  2  0  0  0  0  0  0
  190.4350  173.7150  137.4710 O   0  0  0  0  0  0  0  0  0  0  0  0
  191.6780  173.3630  135.4830 C   0  0  0  0  0  2  0  0  0  0  0  0
  192.8780  172.7360  136.1720 C   0  0  0  0  0  2  0  0  0  0  0  0
  195.3950  173.0810  136.5000 C   0  0  0  0  0  2  0  0  0  0  0  0
  194.0240  174.7120  135.3230 O   0  0  0  0  0  1  0  0  0  0  0  0
  194.0270  173.7240  136.3140 C   0  0  0  0  0  0  0  0  0  0  0  0
  195.4640  173.6960  137.8840 C   0  0  0  0  0  0  0  0  0  0  0  0
  196.4880  174.6380  138.0150 O   0  0  0  0  0  1  0  0  0  0  0  0
  195.4830  172.7470  138.9060 O   0  0  0  0  0  1  0  0  0  0  0  0
  194.1010  174.3290  137.7030 C   0  0  0  0  0  2  0  0  0  0  0  0
  181.5430  177.5830  140.4250 C   0  0  0  0  0  2  0  0  0  0  0  0
  181.1800  178.6310  139.3970 C   0  0  0  0  0  2  0  0  0  0  0  0
  182.3860  178.8440  140.2970 C   0  0  0  0  0  3  0  0  0  0  0  0
  188.6860  178.5450  142.1740 C   0  0  0  0  0  2  0  0  0  0  0  0
  188.7090  177.4610  143.2360 C   0  0  0  0  0  2  0  0  0  0  0  0
  189.3660  177.9610  144.5100 C   0  0  0  0  0  2  0  0  0  0  0  0
  188.5210  177.6860  145.7100 C   0  0  0  0  0  0  0  0  0  0  0  0
  186.0080  178.0200  145.5840 O   0  0  0  0  0  0  0  0  0  0  0  0
  187.2290  177.8620  145.6430 C   0  0  0  0  0  0  0  0  0  0  0  0
  189.1010  176.9070  146.8510 C   0  0  1  0  0  3  0  0  0  0  0  0
  190.4940  177.1210  146.9060 O   0  0  0  0  0  0  0  0  0  0  0  0
  189.7180  177.7990  147.8570 C   0  0  0  0  0  2  0  0  0  0  0  0
  1  9  1  0  0  0  0
  2  5  1  0  0  0  0
  3 10  2  0  0  0  0
  5  4  2  0  0  0  0
  6  1  2  0  0  0  0
  6  8  1  0  0  0  0
  7  2  1  0  0  0  0
  7 32  1  0  0  0  0
  8  7  2  0  0  0  0
  9  3  1  0  0  0  0
  9  2  2  0  0  0  0
 10  4  1  0  0  0  0
 10 33  1  0  0  0  0
 11 15  1  0  0  0  0
 12 16  1  0  0  0  0
 12 17  2  0  0  0  0
 13  3  1  0  0  0  0
 14 13  1  0  0  0  0
 15 13  2  0  0  0  0
 16 14  1  0  0  0  0
 17 11  1  0  0  0  0
 18 20  2  0  0  0  0
 19 18  1  0  0  0  0
 19 17  1  0  0  0  0
 21 22  1  0  0  0  0
 21 18  1  0  0  0  0
 22 25  1  0  0  0  0
 23 26  1  0  0  0  0
 24 25  1  0  0  0  0
 25 23  1  0  0  0  0
 25 29  1  0  0  0  0
 26 27  1  0  0  0  0
 26 28  1  0  0  0  0
 29 26  1  0  0  0  0
 31 32  1  0  0  0  0
 31 30  1  0  0  0  0
 32 30  1  0  0  0  0
 33 34  1  0  0  0  0
 34 35  1  0  0  0  0
 35 36  1  0  0  0  0
 37 38  2  0  0  0  0
 38 36  2  0  0  0  0
 39 36  1  6  0  0  0
 39 40  1  0  0  0  0
 39 41  1  0  0  0  0
 40 41  1  0  0  0  0
M  END
>  <MODEL>
7

>  <REMARK>
 VINA RESULT:      -8.4      2.511      5.832
  Name = 
  11 active torsions:
  status: ('A' for Active; 'I' for Inactive)
    1  A    between atoms: C_1  and  C_27
    2  A    between atoms: C_2  and  C_6
    3  A    between atoms: C_2  and  C_39
    4  A    between atoms: C_4  and  C_33
    5  A    between atoms: C_6  and  C_8
    6  A    between atoms: N_7  and  C_38
    7  A    between atoms: C_8  and  C_27
    8  A    between atoms: C_10  and  C_31
    9  A    between atoms: C_15  and  C_17
   10  A    between atoms: C_22  and  C_30
   11  A    between atoms: C_31  and  C_33
                            x       y       z     vdW  Elec       q    Type
                         _______ _______ _______ _____ _____    ______ ____

>  <TORSDO>
F 11

$$$$
=
 OpenBabel10232410153D

 41 46  0  0  1  0  0  0  0  0999 V2000
  191.8120  175.2480  135.1790 C   0  0  0  0  0  3  0  0  0  0  0  0
  193.5210  175.4520  136.8920 C   0  0  0  0  0  0  0  0  0  0  0  0
  191.2980  176.3590  137.3050 C   0  0  0  0  0  0  0  0  0  0  0  0
  193.0520  176.5050  138.9660 C   0  0  0  0  0  3  0  0  0  0  0  0
  193.9060  175.8690  138.1250 N   0  0  0  0  0  0  0  0  0  0  0  0
  192.7260  174.5650  134.3780 C   0  0  0  0  0  3  0  0  0  0  0  0
  194.4160  174.7640  136.0490 C   0  0  0  0  0  0  0  0  0  0  0  0
  193.9900  174.3400  134.8240 N   0  0  0  0  0  0  0  0  0  0  0  0
  192.1990  175.6940  136.4510 C   0  0  0  0  0  0  0  0  0  0  0  0
  191.7340  176.7590  138.5820 C   0  0  0  0  0  0  0  0  0  0  0  0
  187.5360  175.9080  136.8170 C   0  0  0  0  0  2  0  0  0  0  0  0
  187.4040  178.3860  137.1780 C   0  0  0  0  0  3  0  0  0  0  0  0
  189.9020  176.5810  136.8800 C   0  0  0  0  0  0  0  0  0  0  0  0
  189.5660  177.7160  135.9680 C   0  0  0  0  0  2  0  0  0  0  0  0
  188.9460  175.7560  137.2950 C   0  0  0  0  0  3  0  0  0  0  0  0
  188.7940  178.7750  136.7390 C   0  0  0  0  0  2  0  0  0  0  0  0
  186.8560  177.1670  137.2910 C   0  0  0  0  0  0  0  0  0  0  0  0
  184.3070  177.0990  136.9850 C   0  0  0  0  0  0  0  0  0  0  0  0
  185.5070  177.1090  137.7730 N   0  0  0  0  0  2  0  0  0  0  0  0
  184.3470  177.1740  135.7280 O   0  0  0  0  0  0  0  0  0  0  0  0
  182.9870  177.0650  137.6660 C   0  0  0  0  0  2  0  0  0  0  0  0
  182.4860  178.4840  137.8730 C   0  0  0  0  0  2  0  0  0  0  0  0
  182.8800  177.8810  140.3300 C   0  0  0  0  0  2  0  0  0  0  0  0
  183.8240  179.8950  139.3410 O   0  0  0  0  0  1  0  0  0  0  0  0
  182.7650  178.9810  139.2830 C   0  0  0  0  0  0  0  0  0  0  0  0
  181.6420  178.4360  141.0080 C   0  0  0  0  0  0  0  0  0  0  0  0
  181.8940  178.9350  142.2870 O   0  0  0  0  0  1  0  0  0  0  0  0
  180.5630  177.5530  140.9870 O   0  0  0  0  0  1  0  0  0  0  0  0
  181.5230  179.5250  139.9620 C   0  0  0  0  0  2  0  0  0  0  0  0
  196.7910  175.4710  135.7740 C   0  0  0  0  0  2  0  0  0  0  0  0
  196.6520  174.0550  135.2620 C   0  0  0  0  0  2  0  0  0  0  0  0
  195.8380  174.5050  136.4640 C   0  0  0  0  0  3  0  0  0  0  0  0
  190.8340  177.4680  139.5440 C   0  0  0  0  0  2  0  0  0  0  0  0
  191.3330  177.3050  140.9690 C   0  0  0  0  0  2  0  0  0  0  0  0
  190.2720  176.6660  141.8470 C   0  0  0  0  0  2  0  0  0  0  0  0
  189.8460  177.5790  142.9490 C   0  0  0  0  0  0  0  0  0  0  0  0
  191.4870  179.2710  143.8890 O   0  0  0  0  0  0  0  0  0  0  0  0
  190.6940  178.4460  143.4320 C   0  0  0  0  0  0  0  0  0  0  0  0
  188.3870  177.7250  143.2550 C   0  0  1  0  0  3  0  0  0  0  0  0
  187.7550  176.4680  143.1440 O   0  0  0  0  0  0  0  0  0  0  0  0
  188.0020  176.9330  144.4440 C   0  0  0  0  0  2  0  0  0  0  0  0
  1  9  1  0  0  0  0
  2  5  1  0  0  0  0
  3 10  2  0  0  0  0
  5  4  2  0  0  0  0
  6  8  1  0  0  0  0
  6  1  2  0  0  0  0
  7 32  1  0  0  0  0
  7  2  1  0  0  0  0
  8  7  2  0  0  0  0
  9  2  2  0  0  0  0
  9  3  1  0  0  0  0
 10  4  1  0  0  0  0
 10 33  1  0  0  0  0
 11 17  1  0  0  0  0
 11 15  1  0  0  0  0
 12 17  2  0  0  0  0
 13 15  2  0  0  0  0
 13  3  1  0  0  0  0
 14 16  1  0  0  0  0
 14 13  1  0  0  0  0
 16 12  1  0  0  0  0
 17 19  1  0  0  0  0
 18 21  1  0  0  0  0
 18 19  1  0  0  0  0
 20 18  2  0  0  0  0
 21 22  1  0  0  0  0
 22 25  1  0  0  0  0
 23 26  1  0  0  0  0
 25 24  1  0  0  0  0
 25 29  1  0  0  0  0
 25 23  1  0  0  0  0
 26 27  1  0  0  0  0
 28 26  1  0  0  0  0
 29 26  1  0  0  0  0
 30 32  1  0  0  0  0
 31 30  1  0  0  0  0
 31 32  1  0  0  0  0
 33 34  1  0  0  0  0
 34 35  1  0  0  0  0
 35 36  1  0  0  0  0
 36 38  2  0  0  0  0
 38 37  2  0  0  0  0
 39 36  1  6  0  0  0
 39 41  1  0  0  0  0
 40 39  1  0  0  0  0
 40 41  1  0  0  0  0
M  END
>  <MODEL>
8

>  <REMARK>
 VINA RESULT:      -8.1      3.989      9.988
  Name = 
  11 active torsions:
  status: ('A' for Active; 'I' for Inactive)
    1  A    between atoms: C_1  and  C_27
    2  A    between atoms: C_2  and  C_6
    3  A    between atoms: C_2  and  C_39
    4  A    between atoms: C_4  and  C_33
    5  A    between atoms: C_6  and  C_8
    6  A    between atoms: N_7  and  C_38
    7  A    between atoms: C_8  and  C_27
    8  A    between atoms: C_10  and  C_31
    9  A    between atoms: C_15  and  C_17
   10  A    between atoms: C_22  and  C_30
   11  A    between atoms: C_31  and  C_33
                            x       y       z     vdW  Elec       q    Type
                         _______ _______ _______ _____ _____    ______ ____

>  <TORSDO>
F 11

$$$$
=
 OpenBabel10232410153D

 41 46  0  0  1  0  0  0  0  0999 V2000
  185.4140  178.7070  145.2820 C   0  0  0  0  0  3  0  0  0  0  0  0
  187.5280  177.5490  145.5740 C   0  0  0  0  0  0  0  0  0  0  0  0
  186.7190  178.0130  143.3230 C   0  0  0  0  0  0  0  0  0  0  0  0
  188.8230  176.8780  143.7020 C   0  0  0  0  0  3  0  0  0  0  0  0
  188.6280  176.9570  145.0420 N   0  0  0  0  0  0  0  0  0  0  0  0
  185.2920  178.7910  146.6680 C   0  0  0  0  0  3  0  0  0  0  0  0
  187.3640  177.6480  146.9700 C   0  0  0  0  0  0  0  0  0  0  0  0
  186.2560  178.2680  147.4710 N   0  0  0  0  0  0  0  0  0  0  0  0
  186.5400  178.0900  144.7180 C   0  0  0  0  0  0  0  0  0  0  0  0
  187.8830  177.4060  142.8150 C   0  0  0  0  0  0  0  0  0  0  0  0
  184.9210  179.1630  140.1550 C   0  0  0  0  0  2  0  0  0  0  0  0
  182.8310  178.4140  141.3200 C   0  0  0  0  0  3  0  0  0  0  0  0
  185.7210  178.6110  142.4160 C   0  0  0  0  0  0  0  0  0  0  0  0
  184.5540  179.3600  142.9720 C   0  0  0  0  0  2  0  0  0  0  0  0
  185.8730  178.4990  141.1000 C   0  0  0  0  0  3  0  0  0  0  0  0
  183.2830  178.5530  142.7540 C   0  0  0  0  0  2  0  0  0  0  0  0
  183.5250  178.5980  140.1870 C   0  0  0  0  0  0  0  0  0  0  0  0
  182.1610  179.3230  138.1350 C   0  0  0  0  0  0  0  0  0  0  0  0
  182.8270  178.3540  138.9580 N   0  0  0  0  0  2  0  0  0  0  0  0
  182.1100  180.5390  138.4640 O   0  0  0  0  0  0  0  0  0  0  0  0
  181.4620  178.8770  136.9020 C   0  0  0  0  0  2  0  0  0  0  0  0
  181.1420  177.3960  137.0080 C   0  0  0  0  0  2  0  0  0  0  0  0
  183.0060  175.7290  136.4560 C   0  0  0  0  0  2  0  0  0  0  0  0
  180.9820  175.8730  135.1130 O   0  0  0  0  0  1  0  0  0  0  0  0
  181.8590  176.5860  135.9380 C   0  0  0  0  0  0  0  0  0  0  0  0
  183.9660  176.5690  135.6360 C   0  0  0  0  0  0  0  0  0  0  0  0
  184.5980  175.8460  134.6220 O   0  0  0  0  0  1  0  0  0  0  0  0
  184.8710  177.2880  136.4170 O   0  0  0  0  0  1  0  0  0  0  0  0
  182.8270  177.4260  135.1270 C   0  0  0  0  0  2  0  0  0  0  0  0
  188.7860  178.0860  148.9710 C   0  0  0  0  0  2  0  0  0  0  0  0
  189.6910  177.8130  147.7920 C   0  0  0  0  0  2  0  0  0  0  0  0
  188.3740  177.0660  147.9190 C   0  0  0  0  0  3  0  0  0  0  0  0
  188.1430  177.2890  141.3460 C   0  0  0  0  0  2  0  0  0  0  0  0
  189.5950  177.6020  141.0290 C   0  0  0  0  0  2  0  0  0  0  0  0
  189.7260  178.2450  139.6600 C   0  0  0  0  0  2  0  0  0  0  0  0
  189.4860  177.2590  138.5640 C   0  0  0  0  0  0  0  0  0  0  0  0
  190.8560  175.1260  138.4660 O   0  0  0  0  0  0  0  0  0  0  0  0
  190.1950  176.1640  138.5150 C   0  0  0  0  0  0  0  0  0  0  0  0
  188.2360  177.3660  137.7450 C   0  0  1  0  0  3  0  0  0  0  0  0
  187.6770  178.6520  137.9050 O   0  0  0  0  0  0  0  0  0  0  0  0
  188.3590  178.4110  136.7040 C   0  0  0  0  0  2  0  0  0  0  0  0
  1  6  1  0  0  0  0
  2  7  2  0  0  0  0
  3  9  1  0  0  0  0
  4  5  2  0  0  0  0
  5  2  1  0  0  0  0
  6  8  2  0  0  0  0
  7  8  1  0  0  0  0
  7 32  1  0  0  0  0
  9  1  2  0  0  0  0
  9  2  1  0  0  0  0
 10  3  2  0  0  0  0
 10  4  1  0  0  0  0
 11 17  1  0  0  0  0
 11 15  1  0  0  0  0
 12 16  1  0  0  0  0
 13 14  1  0  0  0  0
 13  3  1  0  0  0  0
 15 13  2  0  0  0  0
 16 14  1  0  0  0  0
 17 12  2  0  0  0  0
 18 20  2  0  0  0  0
 18 19  1  0  0  0  0
 19 17  1  0  0  0  0
 21 22  1  0  0  0  0
 21 18  1  0  0  0  0
 24 25  1  0  0  0  0
 25 23  1  0  0  0  0
 25 22  1  0  0  0  0
 26 28  1  0  0  0  0
 26 23  1  0  0  0  0
 27 26  1  0  0  0  0
 29 26  1  0  0  0  0
 29 25  1  0  0  0  0
 31 32  1  0  0  0  0
 31 30  1  0  0  0  0
 32 30  1  0  0  0  0
 33 10  1  0  0  0  0
 34 33  1  0  0  0  0
 35 34  1  0  0  0  0
 36 35  1  0  0  0  0
 37 38  2  0  0  0  0
 38 36  2  0  0  0  0
 39 40  1  0  0  0  0
 39 36  1  1  0  0  0
 41 39  1  0  0  0  0
 41 40  1  0  0  0  0
M  END
>  <MODEL>
9

>  <REMARK>
 VINA RESULT:      -8.1      3.673      7.888
  Name = 
  11 active torsions:
  status: ('A' for Active; 'I' for Inactive)
    1  A    between atoms: C_1  and  C_27
    2  A    between atoms: C_2  and  C_6
    3  A    between atoms: C_2  and  C_39
    4  A    between atoms: C_4  and  C_33
    5  A    between atoms: C_6  and  C_8
    6  A    between atoms: N_7  and  C_38
    7  A    between atoms: C_8  and  C_27
    8  A    between atoms: C_10  and  C_31
    9  A    between atoms: C_15  and  C_17
   10  A    between atoms: C_22  and  C_30
   11  A    between atoms: C_31  and  C_33
                            x       y       z     vdW  Elec       q    Type
                         _______ _______ _______ _____ _____    ______ ____

>  <TORSDO>
F 11

$$$$
