=
 OpenBabel10232412373D

 37 40  0  0  1  0  0  0  0  0999 V2000
  188.5460  177.2290  139.3890 C   0  0  0  0  0  3  0  0  0  0  0  0
  191.0030  177.2410  140.2650 C   0  0  0  0  0  0  0  0  0  0  0  0
  189.7760  177.2300  139.8160 C   0  0  0  0  0  0  0  0  0  0  0  0
  191.1650  176.2130  144.0080 C   0  0  1  0  0  3  0  0  0  0  0  0
  191.2740  177.5180  141.6460 N   0  0  0  0  0  2  0  0  0  0  0  0
  190.8590  175.2330  143.1070 N   0  0  0  0  0  0  0  0  0  0  0  0
  191.1360  176.5500  142.6870 C   0  0  0  0  0  0  0  0  0  0  0  0
  188.7800  177.5480  146.7010 C   0  0  0  0  0  0  0  0  0  0  0  0
  187.5830  177.3420  144.5950 C   0  0  0  0  0  3  0  0  0  0  0  0
  187.6060  177.6790  145.9470 C   0  0  0  0  0  3  0  0  0  0  0  0
  191.1400  176.9490  146.7880 O   0  0  0  0  0  1  0  0  0  0  0  0
  189.9200  176.6920  144.7100 C   0  0  0  0  0  0  0  0  0  0  0  0
  188.7350  176.8580  143.9790 C   0  0  0  0  0  3  0  0  0  0  0  0
  189.9500  177.0610  146.0730 C   0  0  0  0  0  0  0  0  0  0  0  0
  189.7180  178.5240  148.6700 O   0  0  0  0  0  0  0  0  0  0  0  0
  188.7430  177.9390  148.1290 C   0  0  0  0  0  0  0  0  0  0  0  0
  187.6180  177.6610  148.8960 O   0  0  0  0  0  1  0  0  0  0  0  0
  191.2650  175.0580  138.3530 O   0  0  0  0  0  0  0  0  0  0  0  0
  192.1750  175.9270  138.4210 C   0  0  0  0  0  0  0  0  0  0  0  0
  192.0740  177.0240  139.3390 N   0  0  0  0  0  2  0  0  0  0  0  0
  193.8670  176.8350  136.9520 N   0  0  0  0  0  0  0  0  0  0  0  0
  194.9660  176.4420  136.1890 N   0  0  0  0  0  2  0  0  0  0  0  0
  195.1680  175.0070  136.3010 C   0  0  2  0  0  3  0  0  0  0  0  0
  194.0590  174.5430  137.2480 C   0  0  0  0  0  2  0  0  0  0  0  0
  193.3460  175.8190  137.5450 C   0  0  0  0  0  0  0  0  0  0  0  0
  196.7230  173.6360  137.5030 O   0  0  0  0  0  1  0  0  0  0  0  0
  196.5120  174.7130  136.8830 C   0  0  0  0  0  0  0  0  0  0  0  0
  197.5450  175.6240  136.7150 O   0  0  0  0  0  0  0  0  0  0  0  0
  187.6620  178.3870  139.6850 C   0  0  0  0  0  2  0  0  0  0  0  0
  187.5960  178.6050  141.1850 C   0  0  0  0  0  2  0  0  0  0  0  0
  186.2440  179.1790  141.5800 C   0  0  0  0  0  2  0  0  0  0  0  0
  184.0200  178.0630  141.3730 C   0  0  0  0  0  2  0  0  0  0  0  0
  183.9340  179.3190  138.8090 C   0  0  0  0  0  2  0  0  0  0  0  0
  185.1610  178.7450  140.6050 C   0  0  1  0  0  3  0  0  0  0  0  0
  184.6860  179.8510  139.8730 O   0  0  0  0  0  0  0  0  0  0  0  0
  182.6470  178.4790  140.8340 C   0  0  0  0  0  2  0  0  0  0  0  0
  182.6590  178.6170  139.3080 C   0  0  0  0  0  2  0  0  0  0  0  0
  1 29  1  0  0  0  0
  1  3  2  0  0  0  0
  2  5  1  0  0  0  0
  3  2  2  0  0  0  0
  4 12  1  1  0  0  0
  5  7  1  0  0  0  0
  6  4  1  0  0  0  0
  7  6  2  0  0  0  0
  7  4  1  0  0  0  0
  8 16  1  0  0  0  0
  9 10  1  0  0  0  0
 10  8  2  0  0  0  0
 12 14  2  0  0  0  0
 13  9  2  0  0  0  0
 13 12  1  0  0  0  0
 14  8  1  0  0  0  0
 14 11  1  0  0  0  0
 16 15  2  0  0  0  0
 16 17  1  0  0  0  0
 18 19  2  0  0  0  0
 19 20  1  0  0  0  0
 20  2  1  0  0  0  0
 21 25  2  0  0  0  0
 22 23  1  0  0  0  0
 22 21  1  0  0  0  0
 23 27  1  1  0  0  0
 23 24  1  0  0  0  0
 24 25  1  0  0  0  0
 25 19  1  0  0  0  0
 27 26  1  0  0  0  0
 28 27  2  0  0  0  0
 29 30  1  0  0  0  0
 30 31  1  0  0  0  0
 33 37  1  0  0  0  0
 33 35  1  0  0  0  0
 34 32  1  0  0  0  0
 34 31  1  1  0  0  0
 35 34  1  0  0  0  0
 36 32  1  0  0  0  0
 37 36  1  0  0  0  0
M  END
>  <MODEL>
1

>  <REMARK>
 VINA RESULT:      -9.2      0.000      0.000
  Name = 
  10 active torsions:
  status: ('A' for Active; 'I' for Inactive)
    1  A    between atoms: C_1  and  C_15
    2  A    between atoms: C_6  and  C_36
    3  A    between atoms: C_7  and  C_26
    4  A    between atoms: C_8  and  C_24
    5  A    between atoms: C_9  and  C_34
    6  A    between atoms: N_11  and  C_13
    7  A    between atoms: C_13  and  N_20
    8  A    between atoms: C_16  and  C_26
    9  A    between atoms: C_16  and  C_34
   10  A    between atoms: C_18  and  C_29
                            x       y       z     vdW  Elec       q    Type
                         _______ _______ _______ _____ _____    ______ ____

>  <TORSDO>
F 10

$$$$
=
 OpenBabel10232412373D

 37 40  0  0  1  0  0  0  0  0999 V2000
  191.6770  177.6590  142.2940 C   0  0  0  0  0  3  0  0  0  0  0  0
  191.1630  176.9840  139.8260 C   0  0  0  0  0  0  0  0  0  0  0  0
  191.4310  177.3260  141.0590 C   0  0  0  0  0  0  0  0  0  0  0  0
  187.7590  178.0290  138.2710 C   0  0  1  0  0  3  0  0  0  0  0  0
  189.8150  176.7070  139.4210 N   0  0  0  0  0  2  0  0  0  0  0  0
  188.7710  178.9460  138.2260 N   0  0  0  0  0  0  0  0  0  0  0  0
  188.9700  177.6660  138.7830 C   0  0  0  0  0  0  0  0  0  0  0  0
  184.5040  178.6770  140.1980 C   0  0  0  0  0  0  0  0  0  0  0  0
  186.3900  178.8340  141.7250 C   0  0  0  0  0  3  0  0  0  0  0  0
  185.0190  178.8930  141.4840 C   0  0  0  0  0  3  0  0  0  0  0  0
  184.9160  178.1480  137.8560 O   0  0  0  0  0  1  0  0  0  0  0  0
  186.7900  178.3670  139.3760 C   0  0  0  0  0  0  0  0  0  0  0  0
  187.2690  178.5650  140.6780 C   0  0  0  0  0  3  0  0  0  0  0  0
  185.3990  178.3990  139.1380 C   0  0  0  0  0  0  0  0  0  0  0  0
  182.2890  177.8090  140.4150 O   0  0  0  0  0  1  0  0  0  0  0  0
  183.0360  178.7370  140.0100 C   0  0  0  0  0  0  0  0  0  0  0  0
  182.4630  179.8340  139.3780 O   0  0  0  0  0  0  0  0  0  0  0  0
  191.7000  174.7160  138.0780 O   0  0  0  0  0  0  0  0  0  0  0  0
  192.4880  175.7000  138.0680 C   0  0  0  0  0  0  0  0  0  0  0  0
  192.2490  176.8400  138.9020 N   0  0  0  0  0  2  0  0  0  0  0  0
  194.1480  176.7450  136.6540 N   0  0  0  0  0  0  0  0  0  0  0  0
  195.2540  176.4320  135.8660 N   0  0  0  0  0  2  0  0  0  0  0  0
  195.4980  174.9990  135.8880 C   0  0  2  0  0  3  0  0  0  0  0  0
  194.4060  174.4450  136.8070 C   0  0  0  0  0  2  0  0  0  0  0  0
  193.6580  175.6800  137.1840 C   0  0  0  0  0  0  0  0  0  0  0  0
  197.2640  173.5210  136.5540 O   0  0  0  0  0  0  0  0  0  0  0  0
  196.8520  174.7080  136.4490 C   0  0  0  0  0  0  0  0  0  0  0  0
  197.6740  175.7580  136.8320 O   0  0  0  0  0  1  0  0  0  0  0  0
  191.1520  176.8200  143.4020 C   0  0  0  0  0  2  0  0  0  0  0  0
  191.0090  177.6630  144.6550 C   0  0  0  0  0  2  0  0  0  0  0  0
  190.1750  176.9330  145.6960 C   0  0  0  0  0  2  0  0  0  0  0  0
  187.9630  177.6510  144.7870 C   0  0  0  0  0  2  0  0  0  0  0  0
  187.2900  178.1010  147.5260 C   0  0  0  0  0  2  0  0  0  0  0  0
  188.8970  177.6970  146.0050 C   0  0  1  0  0  3  0  0  0  0  0  0
  188.2670  177.1610  147.1450 O   0  0  0  0  0  0  0  0  0  0  0  0
  186.5040  177.4400  145.2020 C   0  0  0  0  0  2  0  0  0  0  0  0
  186.1650  178.2070  146.4830 C   0  0  0  0  0  2  0  0  0  0  0  0
  1 29  1  0  0  0  0
  2  3  2  0  0  0  0
  3  1  2  0  0  0  0
  4  7  1  0  0  0  0
  4 12  1  1  0  0  0
  5  2  1  0  0  0  0
  6  4  1  0  0  0  0
  6  7  2  0  0  0  0
  7  5  1  0  0  0  0
  8 10  1  0  0  0  0
 10  9  2  0  0  0  0
 11 14  1  0  0  0  0
 12 13  2  0  0  0  0
 13  9  1  0  0  0  0
 14 12  1  0  0  0  0
 14  8  2  0  0  0  0
 16  8  1  0  0  0  0
 16 15  1  0  0  0  0
 17 16  2  0  0  0  0
 19 18  2  0  0  0  0
 19 20  1  0  0  0  0
 20  2  1  0  0  0  0
 21 25  2  0  0  0  0
 22 23  1  0  0  0  0
 22 21  1  0  0  0  0
 23 27  1  1  0  0  0
 23 24  1  0  0  0  0
 24 25  1  0  0  0  0
 25 19  1  0  0  0  0
 27 26  2  0  0  0  0
 27 28  1  0  0  0  0
 29 30  1  0  0  0  0
 30 31  1  0  0  0  0
 32 36  1  0  0  0  0
 32 34  1  0  0  0  0
 34 31  1  6  0  0  0
 34 35  1  0  0  0  0
 35 33  1  0  0  0  0
 36 37  1  0  0  0  0
 37 33  1  0  0  0  0
M  END
>  <MODEL>
2

>  <REMARK>
 VINA RESULT:      -8.9      1.402      5.841
  Name = 
  10 active torsions:
  status: ('A' for Active; 'I' for Inactive)
    1  A    between atoms: C_1  and  C_15
    2  A    between atoms: C_6  and  C_36
    3  A    between atoms: C_7  and  C_26
    4  A    between atoms: C_8  and  C_24
    5  A    between atoms: C_9  and  C_34
    6  A    between atoms: N_11  and  C_13
    7  A    between atoms: C_13  and  N_20
    8  A    between atoms: C_16  and  C_26
    9  A    between atoms: C_16  and  C_34
   10  A    between atoms: C_18  and  C_29
                            x       y       z     vdW  Elec       q    Type
                         _______ _______ _______ _____ _____    ______ ____

>  <TORSDO>
F 10

$$$$
=
 OpenBabel10232412373D

 37 40  0  0  1  0  0  0  0  0999 V2000
  190.4780  175.7890  142.9680 C   0  0  0  0  0  3  0  0  0  0  0  0
  189.9450  176.8580  140.6480 C   0  0  0  0  0  0  0  0  0  0  0  0
  190.2010  176.3210  141.8120 C   0  0  0  0  0  0  0  0  0  0  0  0
  191.4120  176.6260  137.0580 C   0  0  1  0  0  3  0  0  0  0  0  0
  190.9940  177.0620  139.6910 N   0  0  0  0  0  2  0  0  0  0  0  0
  190.1030  176.2690  137.2200 N   0  0  0  0  0  0  0  0  0  0  0  0
  190.8720  176.7330  138.3060 C   0  0  0  0  0  0  0  0  0  0  0  0
  194.3300  174.1760  137.5130 C   0  0  0  0  0  0  0  0  0  0  0  0
  192.5690  173.1020  136.2270 C   0  0  0  0  0  3  0  0  0  0  0  0
  193.8260  173.0630  136.8270 C   0  0  0  0  0  3  0  0  0  0  0  0
  194.0060  176.4630  138.2880 O   0  0  0  0  0  1  0  0  0  0  0  0
  192.2840  175.4010  136.9550 C   0  0  0  0  0  0  0  0  0  0  0  0
  191.8000  174.2620  136.2970 C   0  0  0  0  0  3  0  0  0  0  0  0
  193.5460  175.3510  137.5870 C   0  0  0  0  0  0  0  0  0  0  0  0
  195.8560  173.3240  139.1420 O   0  0  0  0  0  1  0  0  0  0  0  0
  195.6660  174.0660  138.1430 C   0  0  0  0  0  0  0  0  0  0  0  0
  196.7360  174.7900  137.6300 O   0  0  0  0  0  0  0  0  0  0  0  0
  188.5040  179.0570  141.9050 O   0  0  0  0  0  0  0  0  0  0  0  0
  187.9260  178.3690  141.0210 C   0  0  0  0  0  0  0  0  0  0  0  0
  188.6080  177.2900  140.3700 N   0  0  0  0  0  2  0  0  0  0  0  0
  186.1310  178.6740  139.4310 N   0  0  0  0  0  0  0  0  0  0  0  0
  184.7790  179.0080  139.3720 N   0  0  0  0  0  2  0  0  0  0  0  0
  184.2670  179.2690  140.7070 C   0  0  2  0  0  3  0  0  0  0  0  0
  185.4720  179.0430  141.6230 C   0  0  0  0  0  2  0  0  0  0  0  0
  186.5430  178.6850  140.6490 C   0  0  0  0  0  0  0  0  0  0  0  0
  182.4300  178.5080  142.0440 O   0  0  0  0  0  1  0  0  0  0  0  0
  183.1680  178.3140  141.0410 C   0  0  0  0  0  0  0  0  0  0  0  0
  182.9410  177.2180  140.2210 O   0  0  0  0  0  0  0  0  0  0  0  0
  191.5870  176.3440  143.7870 C   0  0  0  0  0  2  0  0  0  0  0  0
  191.0740  177.5040  144.6190 C   0  0  0  0  0  2  0  0  0  0  0  0
  190.6080  177.0160  145.9820 C   0  0  0  0  0  2  0  0  0  0  0  0
  188.3910  177.8510  145.1920 C   0  0  0  0  0  2  0  0  0  0  0  0
  187.7180  177.8780  147.9680 C   0  0  0  0  0  2  0  0  0  0  0  0
  189.3260  177.7180  146.4030 C   0  0  1  0  0  3  0  0  0  0  0  0
  188.6990  177.0130  147.4490 O   0  0  0  0  0  0  0  0  0  0  0  0
  186.9330  177.5710  145.5700 C   0  0  0  0  0  2  0  0  0  0  0  0
  186.5910  178.1340  146.9530 C   0  0  0  0  0  2  0  0  0  0  0  0
  1 29  1  0  0  0  0
  2  3  2  0  0  0  0
  3  1  2  0  0  0  0
  4 12  1  1  0  0  0
  4  6  1  0  0  0  0
  4  7  1  0  0  0  0
  5  2  1  0  0  0  0
  6  7  2  0  0  0  0
  7  5  1  0  0  0  0
  8 14  1  0  0  0  0
  8 16  1  0  0  0  0
  9 13  2  0  0  0  0
  9 10  1  0  0  0  0
 10  8  2  0  0  0  0
 12 14  2  0  0  0  0
 13 12  1  0  0  0  0
 14 11  1  0  0  0  0
 16 15  1  0  0  0  0
 17 16  2  0  0  0  0
 19 18  2  0  0  0  0
 20  2  1  0  0  0  0
 20 19  1  0  0  0  0
 21 25  2  0  0  0  0
 22 21  1  0  0  0  0
 22 23  1  0  0  0  0
 23 27  1  1  0  0  0
 23 24  1  0  0  0  0
 25 19  1  0  0  0  0
 25 24  1  0  0  0  0
 27 26  1  0  0  0  0
 28 27  2  0  0  0  0
 29 30  1  0  0  0  0
 30 31  1  0  0  0  0
 32 36  1  0  0  0  0
 32 34  1  0  0  0  0
 34 31  1  6  0  0  0
 34 35  1  0  0  0  0
 35 33  1  0  0  0  0
 36 37  1  0  0  0  0
 37 33  1  0  0  0  0
M  END
>  <MODEL>
3

>  <REMARK>
 VINA RESULT:      -8.9      2.324      9.213
  Name = 
  10 active torsions:
  status: ('A' for Active; 'I' for Inactive)
    1  A    between atoms: C_1  and  C_15
    2  A    between atoms: C_6  and  C_36
    3  A    between atoms: C_7  and  C_26
    4  A    between atoms: C_8  and  C_24
    5  A    between atoms: C_9  and  C_34
    6  A    between atoms: N_11  and  C_13
    7  A    between atoms: C_13  and  N_20
    8  A    between atoms: C_16  and  C_26
    9  A    between atoms: C_16  and  C_34
   10  A    between atoms: C_18  and  C_29
                            x       y       z     vdW  Elec       q    Type
                         _______ _______ _______ _____ _____    ______ ____

>  <TORSDO>
F 10

$$$$
=
 OpenBabel10232412373D

 37 40  0  0  1  0  0  0  0  0999 V2000
  190.7890  177.0270  141.6790 C   0  0  0  0  0  3  0  0  0  0  0  0
  188.6520  177.8940  140.4580 C   0  0  0  0  0  0  0  0  0  0  0  0
  189.7270  177.4560  141.0600 C   0  0  0  0  0  0  0  0  0  0  0  0
  185.9190  178.5470  143.1410 C   0  0  1  0  0  3  0  0  0  0  0  0
  187.7270  178.7490  141.1450 N   0  0  0  0  0  2  0  0  0  0  0  0
  186.5020  177.3110  143.1350 N   0  0  0  0  0  0  0  0  0  0  0  0
  186.9040  178.3120  142.2270 C   0  0  0  0  0  0  0  0  0  0  0  0
  182.1460  178.9010  142.5400 C   0  0  0  0  0  0  0  0  0  0  0  0
  183.2120  178.0840  140.5130 C   0  0  0  0  0  3  0  0  0  0  0  0
  182.0690  178.4780  141.2060 C   0  0  0  0  0  3  0  0  0  0  0  0
  183.5190  179.3650  144.4980 O   0  0  0  0  0  1  0  0  0  0  0  0
  184.5600  178.4940  142.4910 C   0  0  0  0  0  0  0  0  0  0  0  0
  184.4510  178.0980  141.1500 C   0  0  0  0  0  3  0  0  0  0  0  0
  183.4050  178.9200  143.1830 C   0  0  0  0  0  0  0  0  0  0  0  0
  180.3250  180.4020  142.9110 O   0  0  0  0  0  0  0  0  0  0  0  0
  180.8970  179.3230  143.2150 C   0  0  0  0  0  0  0  0  0  0  0  0
  180.3380  178.5200  144.2020 O   0  0  0  0  0  1  0  0  0  0  0  0
  188.8730  179.4710  138.0180 O   0  0  0  0  0  0  0  0  0  0  0  0
  188.4960  178.2710  137.9420 C   0  0  0  0  0  0  0  0  0  0  0  0
  188.3900  177.4590  139.1190 N   0  0  0  0  0  2  0  0  0  0  0  0
  189.0580  177.1600  135.8690 N   0  0  0  0  0  0  0  0  0  0  0  0
  188.4700  176.6970  134.6930 N   0  0  0  0  0  2  0  0  0  0  0  0
  187.0430  176.9740  134.7000 C   0  0  2  0  0  3  0  0  0  0  0  0
  186.8010  177.6640  136.0450 C   0  0  0  0  0  2  0  0  0  0  0  0
  188.1710  177.6960  136.6320 C   0  0  0  0  0  0  0  0  0  0  0  0
  186.8490  174.5860  134.6390 O   0  0  0  0  0  1  0  0  0  0  0  0
  186.2640  175.7020  134.6150 C   0  0  0  0  0  0  0  0  0  0  0  0
  184.8790  175.7520  134.5350 O   0  0  0  0  0  0  0  0  0  0  0  0
  190.6550  176.3850  143.0130 C   0  0  0  0  0  2  0  0  0  0  0  0
  190.3320  177.4390  144.0540 C   0  0  0  0  0  2  0  0  0  0  0  0
  190.6690  176.9320  145.4480 C   0  0  0  0  0  2  0  0  0  0  0  0
  189.9010  177.3470  147.7870 C   0  0  0  0  0  2  0  0  0  0  0  0
  187.3330  177.7090  146.5910 C   0  0  0  0  0  2  0  0  0  0  0  0
  189.4540  176.9970  146.3600 C   0  0  1  0  0  3  0  0  0  0  0  0
  188.5250  177.9390  145.8780 O   0  0  0  0  0  0  0  0  0  0  0  0
  188.9450  178.3430  148.4510 C   0  0  0  0  0  2  0  0  0  0  0  0
  187.4860  178.0560  148.0820 C   0  0  0  0  0  2  0  0  0  0  0  0
  1 29  1  0  0  0  0
  2  3  2  0  0  0  0
  2  5  1  0  0  0  0
  3  1  2  0  0  0  0
  4 12  1  6  0  0  0
  5  7  1  0  0  0  0
  6  4  1  0  0  0  0
  7  6  2  0  0  0  0
  7  4  1  0  0  0  0
  8 14  1  0  0  0  0
  8 16  1  0  0  0  0
  9 13  2  0  0  0  0
  9 10  1  0  0  0  0
 10  8  2  0  0  0  0
 12 14  2  0  0  0  0
 13 12  1  0  0  0  0
 14 11  1  0  0  0  0
 15 16  2  0  0  0  0
 16 17  1  0  0  0  0
 19 18  2  0  0  0  0
 19 20  1  0  0  0  0
 20  2  1  0  0  0  0
 21 25  2  0  0  0  0
 22 23  1  0  0  0  0
 22 21  1  0  0  0  0
 23 27  1  1  0  0  0
 23 24  1  0  0  0  0
 24 25  1  0  0  0  0
 25 19  1  0  0  0  0
 27 26  1  0  0  0  0
 28 27  2  0  0  0  0
 29 30  1  0  0  0  0
 30 31  1  0  0  0  0
 32 36  1  0  0  0  0
 33 37  1  0  0  0  0
 34 31  1  6  0  0  0
 34 32  1  0  0  0  0
 35 34  1  0  0  0  0
 35 33  1  0  0  0  0
 37 36  1  0  0  0  0
M  END
>  <MODEL>
4

>  <REMARK>
 VINA RESULT:      -8.8      4.005      7.273
  Name = 
  10 active torsions:
  status: ('A' for Active; 'I' for Inactive)
    1  A    between atoms: C_1  and  C_15
    2  A    between atoms: C_6  and  C_36
    3  A    between atoms: C_7  and  C_26
    4  A    between atoms: C_8  and  C_24
    5  A    between atoms: C_9  and  C_34
    6  A    between atoms: N_11  and  C_13
    7  A    between atoms: C_13  and  N_20
    8  A    between atoms: C_16  and  C_26
    9  A    between atoms: C_16  and  C_34
   10  A    between atoms: C_18  and  C_29
                            x       y       z     vdW  Elec       q    Type
                         _______ _______ _______ _____ _____    ______ ____

>  <TORSDO>
F 10

$$$$
=
 OpenBabel10232412373D

 37 40  0  0  1  0  0  0  0  0999 V2000
  185.7720  179.4760  141.6010 C   0  0  0  0  0  3  0  0  0  0  0  0
  188.0460  178.3370  141.0180 C   0  0  0  0  0  0  0  0  0  0  0  0
  186.9120  178.9120  141.3200 C   0  0  0  0  0  0  0  0  0  0  0  0
  187.0760  177.8210  137.2920 C   0  0  1  0  0  3  0  0  0  0  0  0
  188.2480  177.7520  139.7240 N   0  0  0  0  0  2  0  0  0  0  0  0
  186.3640  178.7500  137.9970 N   0  0  0  0  0  0  0  0  0  0  0  0
  187.4260  178.0380  138.5920 C   0  0  0  0  0  0  0  0  0  0  0  0
  186.1770  174.1220  136.8070 C   0  0  0  0  0  0  0  0  0  0  0  0
  184.1600  175.3830  137.3060 C   0  0  0  0  0  3  0  0  0  0  0  0
  184.7930  174.1760  137.0160 C   0  0  0  0  0  3  0  0  0  0  0  0
  188.3140  175.2900  136.7180 O   0  0  0  0  0  1  0  0  0  0  0  0
  186.2870  176.5440  137.1550 C   0  0  0  0  0  0  0  0  0  0  0  0
  184.9040  176.5580  137.3820 C   0  0  0  0  0  3  0  0  0  0  0  0
  186.9320  175.3150  136.8890 C   0  0  0  0  0  0  0  0  0  0  0  0
  187.5470  172.2420  137.3540 O   0  0  0  0  0  1  0  0  0  0  0  0
  186.7920  172.8060  136.5180 C   0  0  0  0  0  0  0  0  0  0  0  0
  186.5380  172.1720  135.3070 O   0  0  0  0  0  0  0  0  0  0  0  0
  188.6870  176.0410  142.6940 O   0  0  0  0  0  0  0  0  0  0  0  0
  189.3390  177.1100  142.8410 C   0  0  0  0  0  0  0  0  0  0  0  0
  189.0630  178.2550  142.0250 N   0  0  0  0  0  2  0  0  0  0  0  0
  191.0350  178.2630  144.1210 N   0  0  0  0  0  0  0  0  0  0  0  0
  191.9810  178.0370  145.1200 N   0  0  0  0  0  2  0  0  0  0  0  0
  191.9510  176.6450  145.5350 C   0  0  2  0  0  3  0  0  0  0  0  0
  190.8510  176.0190  144.6750 C   0  0  0  0  0  2  0  0  0  0  0  0
  190.3990  177.1780  143.8520 C   0  0  0  0  0  0  0  0  0  0  0  0
  192.4470  176.0960  147.8150 O   0  0  0  0  0  1  0  0  0  0  0  0
  191.6080  176.5390  146.9850 C   0  0  0  0  0  0  0  0  0  0  0  0
  190.3600  176.9580  147.4250 O   0  0  0  0  0  0  0  0  0  0  0  0
  184.5050  178.7380  141.3580 C   0  0  0  0  0  2  0  0  0  0  0  0
  183.9300  178.2650  142.6790 C   0  0  0  0  0  2  0  0  0  0  0  0
  184.2320  179.2680  143.7810 C   0  0  0  0  0  2  0  0  0  0  0  0
  185.9930  177.6660  144.5310 C   0  0  0  0  0  2  0  0  0  0  0  0
  185.5720  178.8310  147.1050 C   0  0  0  0  0  2  0  0  0  0  0  0
  184.8500  178.5830  144.9890 C   0  0  1  0  0  3  0  0  0  0  0  0
  185.3090  179.5380  145.9160 O   0  0  0  0  0  0  0  0  0  0  0  0
  187.1950  177.7460  145.4780 C   0  0  0  0  0  2  0  0  0  0  0  0
  186.7550  177.8610  146.9400 C   0  0  0  0  0  2  0  0  0  0  0  0
  2  3  2  0  0  0  0
  2 20  1  0  0  0  0
  3  1  2  0  0  0  0
  4 12  1  1  0  0  0
  4  6  1  0  0  0  0
  4  7  1  0  0  0  0
  5  2  1  0  0  0  0
  6  7  2  0  0  0  0
  7  5  1  0  0  0  0
  8 14  2  0  0  0  0
  8 10  1  0  0  0  0
  9 13  1  0  0  0  0
 10  9  2  0  0  0  0
 11 14  1  0  0  0  0
 12 13  2  0  0  0  0
 14 12  1  0  0  0  0
 16  8  1  0  0  0  0
 16 15  1  0  0  0  0
 17 16  2  0  0  0  0
 18 19  2  0  0  0  0
 19 25  1  0  0  0  0
 20 19  1  0  0  0  0
 21 22  1  0  0  0  0
 22 23  1  0  0  0  0
 23 27  1  1  0  0  0
 24 23  1  0  0  0  0
 25 21  2  0  0  0  0
 25 24  1  0  0  0  0
 27 28  2  0  0  0  0
 27 26  1  0  0  0  0
 29  1  1  0  0  0  0
 29 30  1  0  0  0  0
 30 31  1  0  0  0  0
 32 34  1  0  0  0  0
 32 36  1  0  0  0  0
 34 31  1  6  0  0  0
 34 35  1  0  0  0  0
 35 33  1  0  0  0  0
 36 37  1  0  0  0  0
 37 33  1  0  0  0  0
M  END
>  <MODEL>
5

>  <REMARK>
 VINA RESULT:      -8.6      4.332      8.308
  Name = 
  10 active torsions:
  status: ('A' for Active; 'I' for Inactive)
    1  A    between atoms: C_1  and  C_15
    2  A    between atoms: C_6  and  C_36
    3  A    between atoms: C_7  and  C_26
    4  A    between atoms: C_8  and  C_24
    5  A    between atoms: C_9  and  C_34
    6  A    between atoms: N_11  and  C_13
    7  A    between atoms: C_13  and  N_20
    8  A    between atoms: C_16  and  C_26
    9  A    between atoms: C_16  and  C_34
   10  A    between atoms: C_18  and  C_29
                            x       y       z     vdW  Elec       q    Type
                         _______ _______ _______ _____ _____    ______ ____

>  <TORSDO>
F 10

$$$$
=
 OpenBabel10232412373D

 37 40  0  0  1  0  0  0  0  0999 V2000
  188.2120  177.0770  138.3350 C   0  0  0  0  0  3  0  0  0  0  0  0
  190.4480  177.1940  139.6740 C   0  0  0  0  0  0  0  0  0  0  0  0
  189.3330  177.1290  138.9950 C   0  0  0  0  0  0  0  0  0  0  0  0
  190.0370  176.6230  143.4950 C   0  0  1  0  0  3  0  0  0  0  0  0
  190.4510  177.6530  141.0330 N   0  0  0  0  0  2  0  0  0  0  0  0
  189.9730  175.5200  142.6910 N   0  0  0  0  0  0  0  0  0  0  0  0
  190.2120  176.8010  142.1540 C   0  0  0  0  0  0  0  0  0  0  0  0
  187.0970  177.8960  145.6060 C   0  0  0  0  0  0  0  0  0  0  0  0
  186.3580  177.5610  143.3140 C   0  0  0  0  0  3  0  0  0  0  0  0
  186.0930  177.9380  144.6290 C   0  0  0  0  0  3  0  0  0  0  0  0
  189.4190  177.4360  146.1830 O   0  0  0  0  0  1  0  0  0  0  0  0
  188.6550  177.0500  143.9170 C   0  0  0  0  0  0  0  0  0  0  0  0
  187.6330  177.1260  142.9590 C   0  0  0  0  0  3  0  0  0  0  0  0
  188.3920  177.4590  145.2420 C   0  0  0  0  0  0  0  0  0  0  0  0
  187.3300  177.8220  147.9830 O   0  0  0  0  0  1  0  0  0  0  0  0
  186.7550  178.3250  146.9820 C   0  0  0  0  0  0  0  0  0  0  0  0
  185.7860  179.3010  147.1830 O   0  0  0  0  0  0  0  0  0  0  0  0
  191.0330  174.7430  138.2100 O   0  0  0  0  0  0  0  0  0  0  0  0
  191.9280  175.6240  138.3170 C   0  0  0  0  0  0  0  0  0  0  0  0
  191.6730  176.8480  139.0170 N   0  0  0  0  0  2  0  0  0  0  0  0
  193.8800  176.3080  137.0640 N   0  0  0  0  0  0  0  0  0  0  0  0
  195.0990  175.8160  136.6010 N   0  0  0  0  0  2  0  0  0  0  0  0
  195.2600  174.4240  136.9890 C   0  0  2  0  0  3  0  0  0  0  0  0
  193.9850  174.1020  137.7720 C   0  0  0  0  0  2  0  0  0  0  0  0
  193.2430  175.3940  137.7100 C   0  0  0  0  0  0  0  0  0  0  0  0
  196.5270  174.8220  138.9830 O   0  0  0  0  0  1  0  0  0  0  0  0
  196.4640  174.2590  137.8570 C   0  0  0  0  0  0  0  0  0  0  0  0
  197.5110  173.4560  137.4290 O   0  0  0  0  0  0  0  0  0  0  0  0
  187.3240  178.2690  138.2950 C   0  0  0  0  0  2  0  0  0  0  0  0
  185.8740  177.8230  138.2860 C   0  0  0  0  0  2  0  0  0  0  0  0
  185.0180  178.7820  139.0980 C   0  0  0  0  0  2  0  0  0  0  0  0
  183.5050  178.1210  140.9720 C   0  0  0  0  0  2  0  0  0  0  0  0
  181.4840  178.0510  138.9540 C   0  0  0  0  0  2  0  0  0  0  0  0
  183.6770  178.1540  139.4460 C   0  0  1  0  0  3  0  0  0  0  0  0
  182.6270  178.8660  138.8350 O   0  0  0  0  0  0  0  0  0  0  0  0
  182.0760  178.4850  141.3880 C   0  0  0  0  0  2  0  0  0  0  0  0
  181.0410  177.9020  140.4200 C   0  0  0  0  0  2  0  0  0  0  0  0
  1  3  2  0  0  0  0
  2  5  1  0  0  0  0
  3  2  2  0  0  0  0
  4 12  1  6  0  0  0
  5  7  1  0  0  0  0
  6  4  1  0  0  0  0
  7  6  2  0  0  0  0
  7  4  1  0  0  0  0
  8 16  1  0  0  0  0
  9 10  1  0  0  0  0
 10  8  2  0  0  0  0
 12 14  2  0  0  0  0
 13  9  2  0  0  0  0
 13 12  1  0  0  0  0
 14  8  1  0  0  0  0
 14 11  1  0  0  0  0
 16 17  2  0  0  0  0
 16 15  1  0  0  0  0
 18 19  2  0  0  0  0
 19 20  1  0  0  0  0
 20  2  1  0  0  0  0
 21 25  2  0  0  0  0
 22 23  1  0  0  0  0
 22 21  1  0  0  0  0
 23 24  1  0  0  0  0
 23 27  1  1  0  0  0
 25 24  1  0  0  0  0
 25 19  1  0  0  0  0
 27 26  1  0  0  0  0
 28 27  2  0  0  0  0
 29  1  1  0  0  0  0
 30 29  1  0  0  0  0
 30 31  1  0  0  0  0
 32 36  1  0  0  0  0
 33 37  1  0  0  0  0
 34 31  1  1  0  0  0
 34 32  1  0  0  0  0
 35 33  1  0  0  0  0
 35 34  1  0  0  0  0
 37 36  1  0  0  0  0
M  END
>  <MODEL>
6

>  <REMARK>
 VINA RESULT:      -8.4      1.353      1.724
  Name = 
  10 active torsions:
  status: ('A' for Active; 'I' for Inactive)
    1  A    between atoms: C_1  and  C_15
    2  A    between atoms: C_6  and  C_36
    3  A    between atoms: C_7  and  C_26
    4  A    between atoms: C_8  and  C_24
    5  A    between atoms: C_9  and  C_34
    6  A    between atoms: N_11  and  C_13
    7  A    between atoms: C_13  and  N_20
    8  A    between atoms: C_16  and  C_26
    9  A    between atoms: C_16  and  C_34
   10  A    between atoms: C_18  and  C_29
                            x       y       z     vdW  Elec       q    Type
                         _______ _______ _______ _____ _____    ______ ____

>  <TORSDO>
F 10

$$$$
=
 OpenBabel10232412373D

 37 40  0  0  1  0  0  0  0  0999 V2000
  186.1760  179.2510  141.6540 C   0  0  0  0  0  3  0  0  0  0  0  0
  188.4260  177.9310  141.7040 C   0  0  0  0  0  0  0  0  0  0  0  0
  187.3010  178.5970  141.6900 C   0  0  0  0  0  0  0  0  0  0  0  0
  189.3540  177.9780  137.9320 C   0  0  1  0  0  3  0  0  0  0  0  0
  188.9220  177.3060  140.5120 N   0  0  0  0  0  2  0  0  0  0  0  0
  188.9690  179.1630  138.4930 N   0  0  0  0  0  0  0  0  0  0  0  0
  189.0560  177.9860  139.2630 C   0  0  0  0  0  0  0  0  0  0  0  0
  187.0740  175.4470  136.1650 C   0  0  0  0  0  0  0  0  0  0  0  0
  186.0880  177.6640  136.0130 C   0  0  0  0  0  3  0  0  0  0  0  0
  186.0460  176.2980  135.7380 C   0  0  0  0  0  3  0  0  0  0  0  0
  189.1870  175.1680  137.3450 O   0  0  0  0  0  1  0  0  0  0  0  0
  188.2230  177.3800  137.1340 C   0  0  0  0  0  0  0  0  0  0  0  0
  187.1660  178.2000  136.7130 C   0  0  0  0  0  3  0  0  0  0  0  0
  188.1660  175.9920  136.8800 C   0  0  0  0  0  0  0  0  0  0  0  0
  186.3260  173.2220  136.6110 O   0  0  0  0  0  1  0  0  0  0  0  0
  186.9630  174.0030  135.8560 C   0  0  0  0  0  0  0  0  0  0  0  0
  187.5680  173.4900  134.7140 O   0  0  0  0  0  0  0  0  0  0  0  0
  187.5120  176.5400  144.0960 O   0  0  0  0  0  0  0  0  0  0  0  0
  188.6360  177.1110  144.1090 C   0  0  0  0  0  0  0  0  0  0  0  0
  189.1250  177.7930  142.9470 N   0  0  0  0  0  2  0  0  0  0  0  0
  188.9490  176.9140  146.4980 N   0  0  0  0  0  0  0  0  0  0  0  0
  189.9540  176.9100  147.4640 N   0  0  0  0  0  2  0  0  0  0  0  0
  191.2530  177.0890  146.8380 C   0  0  2  0  0  3  0  0  0  0  0  0
  190.9400  177.1950  145.3440 C   0  0  0  0  0  2  0  0  0  0  0  0
  189.4540  177.0700  145.3260 C   0  0  0  0  0  0  0  0  0  0  0  0
  192.3270  175.0380  146.2200 O   0  0  0  0  0  0  0  0  0  0  0  0
  192.1300  175.9110  147.1080 C   0  0  0  0  0  0  0  0  0  0  0  0
  192.7560  175.7900  148.3410 O   0  0  0  0  0  1  0  0  0  0  0  0
  184.9670  178.6070  141.0780 C   0  0  0  0  0  2  0  0  0  0  0  0
  184.9680  178.7800  139.5710 C   0  0  0  0  0  2  0  0  0  0  0  0
  183.5730  179.1260  139.0740 C   0  0  0  0  0  2  0  0  0  0  0  0
  182.2290  178.2040  137.1830 C   0  0  0  0  0  2  0  0  0  0  0  0
  182.9600  175.6620  138.2620 C   0  0  0  0  0  2  0  0  0  0  0  0
  182.8600  177.8910  138.5480 C   0  0  1  0  0  3  0  0  0  0  0  0
  183.7550  176.8080  138.4530 O   0  0  0  0  0  0  0  0  0  0  0  0
  182.4000  177.0400  136.2010 C   0  0  0  0  0  2  0  0  0  0  0  0
  182.2460  175.6850  136.8990 C   0  0  0  0  0  2  0  0  0  0  0  0
  1  3  2  0  0  0  0
  2 20  1  0  0  0  0
  3  2  2  0  0  0  0
  4 12  1  6  0  0  0
  4  6  1  0  0  0  0
  4  7  1  0  0  0  0
  5  2  1  0  0  0  0
  6  7  2  0  0  0  0
  7  5  1  0  0  0  0
  8 14  1  0  0  0  0
  9 13  2  0  0  0  0
 10  9  1  0  0  0  0
 10  8  2  0  0  0  0
 13 12  1  0  0  0  0
 14 12  2  0  0  0  0
 14 11  1  0  0  0  0
 16  8  1  0  0  0  0
 16 15  1  0  0  0  0
 17 16  2  0  0  0  0
 18 19  2  0  0  0  0
 19 25  1  0  0  0  0
 20 19  1  0  0  0  0
 21 22  1  0  0  0  0
 23 27  1  6  0  0  0
 23 22  1  0  0  0  0
 24 23  1  0  0  0  0
 25 24  1  0  0  0  0
 25 21  2  0  0  0  0
 26 27  2  0  0  0  0
 27 28  1  0  0  0  0
 29  1  1  0  0  0  0
 30 29  1  0  0  0  0
 31 30  1  0  0  0  0
 32 34  1  0  0  0  0
 33 35  1  0  0  0  0
 34 31  1  6  0  0  0
 35 34  1  0  0  0  0
 36 37  1  0  0  0  0
 36 32  1  0  0  0  0
 37 33  1  0  0  0  0
M  END
>  <MODEL>
7

>  <REMARK>
 VINA RESULT:      -8.2      3.762      8.232
  Name = 
  10 active torsions:
  status: ('A' for Active; 'I' for Inactive)
    1  A    between atoms: C_1  and  C_15
    2  A    between atoms: C_6  and  C_36
    3  A    between atoms: C_7  and  C_26
    4  A    between atoms: C_8  and  C_24
    5  A    between atoms: C_9  and  C_34
    6  A    between atoms: N_11  and  C_13
    7  A    between atoms: C_13  and  N_20
    8  A    between atoms: C_16  and  C_26
    9  A    between atoms: C_16  and  C_34
   10  A    between atoms: C_18  and  C_29
                            x       y       z     vdW  Elec       q    Type
                         _______ _______ _______ _____ _____    ______ ____

>  <TORSDO>
F 10

$$$$
=
 OpenBabel10232412373D

 37 40  0  0  1  0  0  0  0  0999 V2000
  190.1170  177.1690  141.6990 C   0  0  0  0  0  3  0  0  0  0  0  0
  190.0580  176.7800  139.1200 C   0  0  0  0  0  0  0  0  0  0  0  0
  190.0980  176.9790  140.4110 C   0  0  0  0  0  0  0  0  0  0  0  0
  186.8800  177.9170  137.1960 C   0  0  1  0  0  3  0  0  0  0  0  0
  188.8120  176.5160  138.4590 N   0  0  0  0  0  2  0  0  0  0  0  0
  187.8230  178.8700  137.4570 N   0  0  0  0  0  0  0  0  0  0  0  0
  188.0170  177.5280  137.8410 C   0  0  0  0  0  0  0  0  0  0  0  0
  183.4370  177.4970  138.8380 C   0  0  0  0  0  0  0  0  0  0  0  0
  184.8810  178.7850  140.3100 C   0  0  0  0  0  3  0  0  0  0  0  0
  183.6500  178.1910  140.0370 C   0  0  0  0  0  3  0  0  0  0  0  0
  184.3200  176.7000  136.7120 O   0  0  0  0  0  1  0  0  0  0  0  0
  185.7290  178.0350  138.1620 C   0  0  0  0  0  0  0  0  0  0  0  0
  185.9160  178.7010  139.3810 C   0  0  0  0  0  3  0  0  0  0  0  0
  184.4900  177.4090  137.8980 C   0  0  0  0  0  0  0  0  0  0  0  0
  181.6270  176.0600  139.4420 O   0  0  0  0  0  1  0  0  0  0  0  0
  182.1120  176.8740  138.6140 C   0  0  0  0  0  0  0  0  0  0  0  0
  181.3830  177.1870  137.4730 O   0  0  0  0  0  0  0  0  0  0  0  0
  191.4910  174.4630  138.0850 O   0  0  0  0  0  0  0  0  0  0  0  0
  191.9720  175.6140  137.9050 C   0  0  0  0  0  0  0  0  0  0  0  0
  191.2890  176.7790  138.3860 N   0  0  0  0  0  2  0  0  0  0  0  0
  193.7440  176.9090  136.8910 N   0  0  0  0  0  0  0  0  0  0  0  0
  194.9520  176.7520  136.2150 N   0  0  0  0  0  2  0  0  0  0  0  0
  195.2580  175.3390  136.0540 C   0  0  2  0  0  3  0  0  0  0  0  0
  194.0880  174.6220  136.7300 C   0  0  0  0  0  2  0  0  0  0  0  0
  193.2420  175.7620  137.1870 C   0  0  0  0  0  0  0  0  0  0  0  0
  197.5910  175.6630  136.4970 O   0  0  0  0  0  0  0  0  0  0  0  0
  196.5440  175.0020  136.7350 C   0  0  0  0  0  0  0  0  0  0  0  0
  196.5790  173.9680  137.6590 O   0  0  0  0  0  1  0  0  0  0  0  0
  189.4550  176.1870  142.5980 C   0  0  0  0  0  2  0  0  0  0  0  0
  188.6290  176.9250  143.6350 C   0  0  0  0  0  2  0  0  0  0  0  0
  187.4870  177.6770  142.9700 C   0  0  0  0  0  2  0  0  0  0  0  0
  186.7520  177.7200  145.3550 C   0  0  0  0  0  2  0  0  0  0  0  0
  184.3240  178.7950  144.3040 C   0  0  0  0  0  2  0  0  0  0  0  0
  186.2830  177.7690  143.8940 C   0  0  1  0  0  3  0  0  0  0  0  0
  185.5550  178.9470  143.6380 O   0  0  0  0  0  0  0  0  0  0  0  0
  185.9790  178.7110  146.2310 C   0  0  0  0  0  2  0  0  0  0  0  0
  184.5020  178.7830  145.8320 C   0  0  0  0  0  2  0  0  0  0  0  0
  1 29  1  0  0  0  0
  2  3  2  0  0  0  0
  3  1  2  0  0  0  0
  4  6  1  0  0  0  0
  4  7  1  0  0  0  0
  4 12  1  1  0  0  0
  5  2  1  0  0  0  0
  6  7  2  0  0  0  0
  7  5  1  0  0  0  0
  8 10  1  0  0  0  0
 10  9  2  0  0  0  0
 11 14  1  0  0  0  0
 12 13  2  0  0  0  0
 13  9  1  0  0  0  0
 14 12  1  0  0  0  0
 14  8  2  0  0  0  0
 16  8  1  0  0  0  0
 16 15  1  0  0  0  0
 17 16  2  0  0  0  0
 19 18  2  0  0  0  0
 19 20  1  0  0  0  0
 20  2  1  0  0  0  0
 21 25  2  0  0  0  0
 22 21  1  0  0  0  0
 23 22  1  0  0  0  0
 23 24  1  0  0  0  0
 23 27  1  1  0  0  0
 24 25  1  0  0  0  0
 25 19  1  0  0  0  0
 26 27  2  0  0  0  0
 27 28  1  0  0  0  0
 29 30  1  0  0  0  0
 31 30  1  0  0  0  0
 32 36  1  0  0  0  0
 33 37  1  0  0  0  0
 34 31  1  6  0  0  0
 34 32  1  0  0  0  0
 35 34  1  0  0  0  0
 35 33  1  0  0  0  0
 37 36  1  0  0  0  0
M  END
>  <MODEL>
8

>  <REMARK>
 VINA RESULT:      -8.1      2.538      6.084
  Name = 
  10 active torsions:
  status: ('A' for Active; 'I' for Inactive)
    1  A    between atoms: C_1  and  C_15
    2  A    between atoms: C_6  and  C_36
    3  A    between atoms: C_7  and  C_26
    4  A    between atoms: C_8  and  C_24
    5  A    between atoms: C_9  and  C_34
    6  A    between atoms: N_11  and  C_13
    7  A    between atoms: C_13  and  N_20
    8  A    between atoms: C_16  and  C_26
    9  A    between atoms: C_16  and  C_34
   10  A    between atoms: C_18  and  C_29
                            x       y       z     vdW  Elec       q    Type
                         _______ _______ _______ _____ _____    ______ ____

>  <TORSDO>
F 10

$$$$
=
 OpenBabel10232412373D

 37 40  0  0  1  0  0  0  0  0999 V2000
  190.6930  177.2040  141.3060 C   0  0  0  0  0  3  0  0  0  0  0  0
  191.5150  176.9850  138.8400 C   0  0  0  0  0  0  0  0  0  0  0  0
  191.1150  177.0940  140.0790 C   0  0  0  0  0  0  0  0  0  0  0  0
  188.2960  178.5580  137.3400 C   0  0  1  0  0  3  0  0  0  0  0  0
  190.6110  177.2300  137.7540 N   0  0  0  0  0  2  0  0  0  0  0  0
  188.6080  178.8900  138.6280 N   0  0  0  0  0  0  0  0  0  0  0  0
  189.4410  178.0400  137.8710 C   0  0  0  0  0  0  0  0  0  0  0  0
  184.8770  176.8530  137.6950 C   0  0  0  0  0  0  0  0  0  0  0  0
  186.4470  175.3050  136.6700 C   0  0  0  0  0  3  0  0  0  0  0  0
  185.1690  175.5980  137.1440 C   0  0  0  0  0  3  0  0  0  0  0  0
  185.6320  179.0940  138.2800 O   0  0  0  0  0  1  0  0  0  0  0  0
  187.2010  177.5220  137.3130 C   0  0  0  0  0  0  0  0  0  0  0  0
  187.4540  176.2640  136.7470 C   0  0  0  0  0  3  0  0  0  0  0  0
  185.8990  177.8270  137.7680 C   0  0  0  0  0  0  0  0  0  0  0  0
  182.5640  177.3480  137.3550 O   0  0  0  0  0  0  0  0  0  0  0  0
  183.4960  177.1070  138.1670 C   0  0  0  0  0  0  0  0  0  0  0  0
  183.2120  177.0810  139.5270 O   0  0  0  0  0  1  0  0  0  0  0  0
  192.3840  174.4360  137.7260 O   0  0  0  0  0  0  0  0  0  0  0  0
  193.2510  175.2910  138.0520 C   0  0  0  0  0  0  0  0  0  0  0  0
  192.8610  176.5620  138.5890 N   0  0  0  0  0  2  0  0  0  0  0  0
  195.3300  175.3320  136.8200 N   0  0  0  0  0  0  0  0  0  0  0  0
  196.6570  174.9150  136.9170 N   0  0  0  0  0  2  0  0  0  0  0  0
  196.8730  174.2140  138.1720 C   0  0  2  0  0  3  0  0  0  0  0  0
  195.5090  174.2530  138.8650 C   0  0  0  0  0  2  0  0  0  0  0  0
  194.6730  174.9850  137.8700 C   0  0  0  0  0  0  0  0  0  0  0  0
  197.5820  175.4850  140.0750 O   0  0  0  0  0  1  0  0  0  0  0  0
  197.9000  174.9200  138.9940 C   0  0  0  0  0  0  0  0  0  0  0  0
  199.2240  174.9310  138.5770 O   0  0  0  0  0  0  0  0  0  0  0  0
  189.4550  176.4960  141.7260 C   0  0  0  0  0  2  0  0  0  0  0  0
  189.5160  176.2020  143.2130 C   0  0  0  0  0  2  0  0  0  0  0  0
  190.2860  177.2940  143.9400 C   0  0  0  0  0  2  0  0  0  0  0  0
  188.0160  177.8780  144.8010 C   0  0  0  0  0  2  0  0  0  0  0  0
  189.2330  177.6540  147.3750 C   0  0  0  0  0  2  0  0  0  0  0  0
  189.5100  177.7960  145.1470 C   0  0  1  0  0  3  0  0  0  0  0  0
  189.7250  176.9550  146.2560 O   0  0  0  0  0  0  0  0  0  0  0  0
  187.1390  177.3890  145.9580 C   0  0  0  0  0  2  0  0  0  0  0  0
  187.7050  177.8200  147.3150 C   0  0  0  0  0  2  0  0  0  0  0  0
  1 29  1  0  0  0  0
  2  3  2  0  0  0  0
  3  1  2  0  0  0  0
  4 12  1  1  0  0  0
  4  7  1  0  0  0  0
  4  6  1  0  0  0  0
  5  7  1  0  0  0  0
  5  2  1  0  0  0  0
  7  6  2  0  0  0  0
  8 14  1  0  0  0  0
  8 16  1  0  0  0  0
  9 13  2  0  0  0  0
  9 10  1  0  0  0  0
 10  8  2  0  0  0  0
 12 14  2  0  0  0  0
 13 12  1  0  0  0  0
 14 11  1  0  0  0  0
 15 16  2  0  0  0  0
 16 17  1  0  0  0  0
 18 19  2  0  0  0  0
 19 20  1  0  0  0  0
 20  2  1  0  0  0  0
 21 22  1  0  0  0  0
 21 25  2  0  0  0  0
 22 23  1  0  0  0  0
 23 24  1  0  0  0  0
 23 27  1  1  0  0  0
 25 19  1  0  0  0  0
 25 24  1  0  0  0  0
 27 26  1  0  0  0  0
 28 27  2  0  0  0  0
 29 30  1  0  0  0  0
 30 31  1  0  0  0  0
 32 34  1  0  0  0  0
 32 36  1  0  0  0  0
 34 31  1  6  0  0  0
 34 35  1  0  0  0  0
 35 33  1  0  0  0  0
 36 37  1  0  0  0  0
 37 33  1  0  0  0  0
M  END
>  <MODEL>
9

>  <REMARK>
 VINA RESULT:      -8.1      2.264      6.618
  Name = 
  10 active torsions:
  status: ('A' for Active; 'I' for Inactive)
    1  A    between atoms: C_1  and  C_15
    2  A    between atoms: C_6  and  C_36
    3  A    between atoms: C_7  and  C_26
    4  A    between atoms: C_8  and  C_24
    5  A    between atoms: C_9  and  C_34
    6  A    between atoms: N_11  and  C_13
    7  A    between atoms: C_13  and  N_20
    8  A    between atoms: C_16  and  C_26
    9  A    between atoms: C_16  and  C_34
   10  A    between atoms: C_18  and  C_29
                            x       y       z     vdW  Elec       q    Type
                         _______ _______ _______ _____ _____    ______ ____

>  <TORSDO>
F 10

$$$$
