=
 OpenBabel10232407533D

 26 29  0  0  1  0  0  0  0  0999 V2000
  190.5980  178.7030  143.8650 C   0  0  0  0  0  2  0  0  0  0  0  0
  188.6550  176.9400  147.8050 N   0  0  0  0  0  0  0  0  0  0  0  0
  189.8270  177.7090  141.7350 C   0  0  2  0  0  3  0  0  0  0  0  0
  189.2470  178.3960  144.5300 C   0  0  1  0  0  3  0  0  0  0  0  0
  188.5440  177.1460  142.3450 C   0  0  2  0  0  3  0  0  0  0  0  0
  188.3350  177.6370  146.6950 C   0  0  0  0  0  0  0  0  0  0  0  0
  191.6150  176.5720  145.7070 C   0  0  0  0  0  1  0  0  0  0  0  0
  190.2060  176.9580  140.6220 O   0  0  0  0  0  1  0  0  0  0  0  0
  188.1680  177.8390  143.6330 C   0  0  0  0  0  0  0  0  0  0  0  0
  186.8720  177.8770  144.0050 C   0  0  0  0  0  0  0  0  0  0  0  0
  190.3020  176.9000  146.3300 C   0  0  0  0  0  0  0  0  0  0  0  0
  186.4170  178.4010  145.3270 C   0  0  0  0  0  3  0  0  0  0  0  0
  189.3220  177.6510  145.7850 N   0  0  0  0  0  0  0  0  0  0  0  0
  190.9450  177.7140  142.7620 C   0  0  0  0  0  2  0  0  0  0  0  0
  188.6660  175.7730  142.5730 O   0  0  0  0  0  1  0  0  0  0  0  0
  189.8990  176.4650  147.5740 C   0  0  0  0  0  3  0  0  0  0  0  0
  187.0400  178.3170  146.5120 C   0  0  0  0  0  0  0  0  0  0  0  0
  186.3650  178.8190  147.6610 N   0  0  0  0  0  1  0  0  0  0  0  0
  185.9120  177.4510  143.0690 O   0  0  0  0  0  0  0  0  0  0  0  0
  182.6060  179.0740  143.6610 C   0  0  0  0  0  3  0  0  0  0  0  0
  184.6430  178.0130  142.8600 C   0  0  0  0  0  0  0  0  0  0  0  0
  180.8590  179.5780  142.1210 F   0  0  0  0  0  0  0  0  0  0  0  0
  182.8410  178.5280  141.3160 C   0  0  0  0  0  3  0  0  0  0  0  0
  182.0890  179.0670  142.3620 C   0  0  0  0  0  0  0  0  0  0  0  0
  183.8760  178.5470  143.9100 C   0  0  0  0  0  3  0  0  0  0  0  0
  184.1120  178.0010  141.5660 C   0  0  0  0  0  3  0  0  0  0  0  0
  3  8  1  6  0  0  0
  3  5  1  0  0  0  0
  3 14  1  0  0  0  0
  4  1  1  6  0  0  0
  4 13  1  0  0  0  0
  5 15  1  1  0  0  0
  5  9  1  0  0  0  0
  6  2  2  0  0  0  0
  7 11  1  0  0  0  0
  9 10  2  0  0  0  0
  9  4  1  0  0  0  0
 10 12  1  0  0  0  0
 11 16  2  0  0  0  0
 12 17  2  0  0  0  0
 13 11  1  0  0  0  0
 13  6  1  0  0  0  0
 14  1  1  0  0  0  0
 16  2  1  0  0  0  0
 17  6  1  0  0  0  0
 17 18  1  0  0  0  0
 19 10  1  0  0  0  0
 20 25  1  0  0  0  0
 21 19  1  0  0  0  0
 21 25  2  0  0  0  0
 22 24  1  0  0  0  0
 23 26  2  0  0  0  0
 23 24  1  0  0  0  0
 24 20  2  0  0  0  0
 26 21  1  0  0  0  0
M  END
>  <MODEL>
1

>  <REMARK>
 VINA RESULT:      -8.9      0.000      0.000
  Name = 
  2 active torsions:
  status: ('A' for Active; 'I' for Inactive)
    1  A    between atoms: O_1  and  C_5
    2  A    between atoms: O_1  and  C_15
                            x       y       z     vdW  Elec       q    Type
                         _______ _______ _______ _____ _____    ______ ____

>  <TORSDO>
F 2

$$$$
=
 OpenBabel10232407533D

 26 29  0  0  1  0  0  0  0  0999 V2000
  182.3050  177.4720  138.7900 C   0  0  0  0  0  2  0  0  0  0  0  0
  180.1490  180.5020  141.7190 N   0  0  0  0  0  0  0  0  0  0  0  0
  184.7500  177.7540  138.5420 C   0  0  2  0  0  3  0  0  0  0  0  0
  182.3550  178.0370  140.2180 C   0  0  1  0  0  3  0  0  0  0  0  0
  184.8930  178.5400  139.8450 C   0  0  2  0  0  3  0  0  0  0  0  0
  181.0490  179.4970  141.7200 C   0  0  0  0  0  0  0  0  0  0  0  0
  180.8880  180.0380  138.1780 C   0  0  0  0  0  1  0  0  0  0  0  0
  185.7780  178.0860  137.6600 O   0  0  0  0  0  1  0  0  0  0  0  0
  183.7280  178.3200  140.7800 C   0  0  0  0  0  0  0  0  0  0  0  0
  183.9150  178.4620  142.1080 C   0  0  0  0  0  0  0  0  0  0  0  0
  180.7830  179.9880  139.6630 C   0  0  0  0  0  0  0  0  0  0  0  0
  182.8000  178.4160  143.0990 C   0  0  0  0  0  3  0  0  0  0  0  0
  181.4410  179.1450  140.4850 N   0  0  0  0  0  0  0  0  0  0  0  0
  183.4030  178.0330  137.8990 C   0  0  0  0  0  2  0  0  0  0  0  0
  185.0310  179.9060  139.5850 O   0  0  0  0  0  1  0  0  0  0  0  0
  179.9820  180.8210  140.4160 C   0  0  0  0  0  3  0  0  0  0  0  0
  181.5390  178.8520  142.9520 C   0  0  0  0  0  0  0  0  0  0  0  0
  180.6690  178.7800  144.0760 N   0  0  0  0  0  1  0  0  0  0  0  0
  185.2370  178.6020  142.5700 O   0  0  0  0  0  0  0  0  0  0  0  0
  185.6120  178.8480  146.2730 C   0  0  0  0  0  3  0  0  0  0  0  0
  185.6880  178.4010  143.8830 C   0  0  0  0  0  0  0  0  0  0  0  0
  187.1740  177.7770  147.7190 F   0  0  0  0  0  0  0  0  0  0  0  0
  187.2750  177.3340  145.3790 C   0  0  0  0  0  3  0  0  0  0  0  0
  186.6910  177.9820  146.4710 C   0  0  0  0  0  0  0  0  0  0  0  0
  185.1140  179.0580  144.9840 C   0  0  0  0  0  3  0  0  0  0  0  0
  186.7750  177.5460  144.0910 C   0  0  0  0  0  3  0  0  0  0  0  0
  2  6  2  0  0  0  0
  3  8  1  6  0  0  0
  3  5  1  0  0  0  0
  4  1  1  6  0  0  0
  4 13  1  0  0  0  0
  4  9  1  0  0  0  0
  5 15  1  6  0  0  0
  5  9  1  0  0  0  0
  6 17  1  0  0  0  0
  7 11  1  0  0  0  0
  9 10  2  0  0  0  0
 10 19  1  0  0  0  0
 10 12  1  0  0  0  0
 11 16  2  0  0  0  0
 11 13  1  0  0  0  0
 13  6  1  0  0  0  0
 14  3  1  0  0  0  0
 14  1  1  0  0  0  0
 16  2  1  0  0  0  0
 17 12  2  0  0  0  0
 17 18  1  0  0  0  0
 19 21  1  0  0  0  0
 20 24  1  0  0  0  0
 21 26  2  0  0  0  0
 21 25  1  0  0  0  0
 23 24  2  0  0  0  0
 24 22  1  0  0  0  0
 25 20  2  0  0  0  0
 26 23  1  0  0  0  0
M  END
>  <MODEL>
2

>  <REMARK>
 VINA RESULT:      -8.3      4.152      7.589
  Name = 
  2 active torsions:
  status: ('A' for Active; 'I' for Inactive)
    1  A    between atoms: O_1  and  C_5
    2  A    between atoms: O_1  and  C_15
                            x       y       z     vdW  Elec       q    Type
                         _______ _______ _______ _____ _____    ______ ____

>  <TORSDO>
F 2

$$$$
=
 OpenBabel10232407533D

 26 29  0  0  1  0  0  0  0  0999 V2000
  182.3300  177.0010  139.4690 C   0  0  0  0  0  2  0  0  0  0  0  0
  180.7220  180.0330  142.7300 N   0  0  0  0  0  0  0  0  0  0  0  0
  184.4290  177.6440  138.3290 C   0  0  2  0  0  3  0  0  0  0  0  0
  182.7450  177.7720  140.7310 C   0  0  1  0  0  3  0  0  0  0  0  0
  184.8410  178.6270  139.4250 C   0  0  2  0  0  3  0  0  0  0  0  0
  181.7570  179.2020  142.4850 C   0  0  0  0  0  0  0  0  0  0  0  0
  180.2890  179.1780  139.2110 C   0  0  0  0  0  1  0  0  0  0  0  0
  185.0020  178.0070  137.1100 O   0  0  0  0  0  1  0  0  0  0  0  0
  184.1370  178.3580  140.7330 C   0  0  0  0  0  0  0  0  0  0  0  0
  184.7320  178.7240  141.8860 C   0  0  0  0  0  0  0  0  0  0  0  0
  180.7090  179.3330  140.6320 C   0  0  0  0  0  0  0  0  0  0  0  0
  184.0560  178.6420  143.2150 C   0  0  0  0  0  3  0  0  0  0  0  0
  181.7680  178.7410  141.2230 N   0  0  0  0  0  0  0  0  0  0  0  0
  182.9170  177.5980  138.1990 C   0  0  0  0  0  2  0  0  0  0  0  0
  184.5960  179.9430  139.0250 O   0  0  0  0  0  1  0  0  0  0  0  0
  180.0590  180.1240  141.5560 C   0  0  0  0  0  3  0  0  0  0  0  0
  182.7600  178.8370  143.5020 C   0  0  0  0  0  0  0  0  0  0  0  0
  182.3600  178.7890  144.8670 N   0  0  0  0  0  1  0  0  0  0  0  0
  186.0720  179.1480  141.8240 O   0  0  0  0  0  0  0  0  0  0  0  0
  189.3700  177.5310  141.1720 C   0  0  0  0  0  3  0  0  0  0  0  0
  187.2100  178.3370  141.9500 C   0  0  0  0  0  0  0  0  0  0  0  0
  190.4950  175.8210  142.3920 F   0  0  0  0  0  0  0  0  0  0  0  0
  188.3750  176.5880  143.1650 C   0  0  0  0  0  3  0  0  0  0  0  0
  189.4260  176.6390  142.2460 C   0  0  0  0  0  0  0  0  0  0  0  0
  188.2650  178.3750  141.0220 C   0  0  0  0  0  3  0  0  0  0  0  0
  187.2710  177.4320  143.0150 C   0  0  0  0  0  3  0  0  0  0  0  0
  3  8  1  6  0  0  0
  3  5  1  0  0  0  0
  4  1  1  6  0  0  0
  4  9  1  0  0  0  0
  4 13  1  0  0  0  0
  5 15  1  6  0  0  0
  5  9  1  0  0  0  0
  6  2  2  0  0  0  0
  6 17  1  0  0  0  0
  7 11  1  0  0  0  0
  9 10  2  0  0  0  0
 10 12  1  0  0  0  0
 11 13  1  0  0  0  0
 11 16  2  0  0  0  0
 12 17  2  0  0  0  0
 13  6  1  0  0  0  0
 14  3  1  0  0  0  0
 14  1  1  0  0  0  0
 16  2  1  0  0  0  0
 17 18  1  0  0  0  0
 19 10  1  0  0  0  0
 19 21  1  0  0  0  0
 20 24  1  0  0  0  0
 21 26  2  0  0  0  0
 24 22  1  0  0  0  0
 24 23  2  0  0  0  0
 25 20  2  0  0  0  0
 25 21  1  0  0  0  0
 26 23  1  0  0  0  0
M  END
>  <MODEL>
3

>  <REMARK>
 VINA RESULT:      -8.2      3.879      7.563
  Name = 
  2 active torsions:
  status: ('A' for Active; 'I' for Inactive)
    1  A    between atoms: O_1  and  C_5
    2  A    between atoms: O_1  and  C_15
                            x       y       z     vdW  Elec       q    Type
                         _______ _______ _______ _____ _____    ______ ____

>  <TORSDO>
F 2

$$$$
=
 OpenBabel10232407533D

 26 29  0  0  1  0  0  0  0  0999 V2000
  190.1230  178.4140  144.6840 C   0  0  0  0  0  2  0  0  0  0  0  0
  185.4330  178.0440  144.1570 N   0  0  0  0  0  0  0  0  0  0  0  0
  191.4830  176.6930  143.5410 C   0  0  2  0  0  3  0  0  0  0  0  0
  189.0180  178.2860  143.6240 C   0  0  1  0  0  3  0  0  0  0  0  0
  190.3670  176.3110  142.5700 C   0  0  2  0  0  3  0  0  0  0  0  0
  186.5550  178.2880  143.4490 C   0  0  0  0  0  0  0  0  0  0  0  0
  188.0960  177.1270  146.4740 C   0  0  0  0  0  1  0  0  0  0  0  0
  192.3570  175.6210  143.7230 O   0  0  0  0  0  1  0  0  0  0  0  0
  189.3180  177.3910  142.4460 C   0  0  0  0  0  0  0  0  0  0  0  0
  188.6040  177.4850  141.3060 C   0  0  0  0  0  0  0  0  0  0  0  0
  187.2430  177.5790  145.3380 C   0  0  0  0  0  0  0  0  0  0  0  0
  187.4470  178.4140  141.1420 C   0  0  0  0  0  3  0  0  0  0  0  0
  187.6760  178.0350  144.1450 N   0  0  0  0  0  0  0  0  0  0  0  0
  190.9010  177.1210  144.8770 C   0  0  0  0  0  2  0  0  0  0  0  0
  189.7600  175.1140  142.9610 O   0  0  0  0  0  1  0  0  0  0  0  0
  185.8650  177.5880  145.3530 C   0  0  0  0  0  3  0  0  0  0  0  0
  186.5450  178.7870  142.0620 C   0  0  0  0  0  0  0  0  0  0  0  0
  185.4700  179.6230  141.6470 N   0  0  0  0  0  1  0  0  0  0  0  0
  189.0180  176.7050  140.2100 O   0  0  0  0  0  0  0  0  0  0  0  0
  189.2530  178.5720  136.9890 C   0  0  0  0  0  3  0  0  0  0  0  0
  188.9100  177.0480  138.8540 C   0  0  0  0  0  0  0  0  0  0  0  0
  188.4520  177.9800  134.8240 F   0  0  0  0  0  0  0  0  0  0  0  0
  188.0950  176.4760  136.6390 C   0  0  0  0  0  3  0  0  0  0  0  0
  188.6000  177.6780  136.1360 C   0  0  0  0  0  0  0  0  0  0  0  0
  189.4040  178.2600  138.3430 C   0  0  0  0  0  3  0  0  0  0  0  0
  188.2480  176.1660  137.9930 C   0  0  0  0  0  3  0  0  0  0  0  0
  1 14  1  0  0  0  0
  2 16  1  0  0  0  0
  3  8  1  1  0  0  0
  3 14  1  0  0  0  0
  4 13  1  0  0  0  0
  4  1  1  1  0  0  0
  5 15  1  1  0  0  0
  5  3  1  0  0  0  0
  6 13  1  0  0  0  0
  6  2  2  0  0  0  0
  9  5  1  0  0  0  0
  9  4  1  0  0  0  0
 10  9  2  0  0  0  0
 11 16  2  0  0  0  0
 11  7  1  0  0  0  0
 12 10  1  0  0  0  0
 12 17  2  0  0  0  0
 13 11  1  0  0  0  0
 17  6  1  0  0  0  0
 18 17  1  0  0  0  0
 19 10  1  0  0  0  0
 20 25  1  0  0  0  0
 21 19  1  0  0  0  0
 22 24  1  0  0  0  0
 23 26  2  0  0  0  0
 24 23  1  0  0  0  0
 24 20  2  0  0  0  0
 25 21  2  0  0  0  0
 26 21  1  0  0  0  0
M  END
>  <MODEL>
4

>  <REMARK>
 VINA RESULT:      -8.0      3.595      5.204
  Name = 
  2 active torsions:
  status: ('A' for Active; 'I' for Inactive)
    1  A    between atoms: O_1  and  C_5
    2  A    between atoms: O_1  and  C_15
                            x       y       z     vdW  Elec       q    Type
                         _______ _______ _______ _____ _____    ______ ____

>  <TORSDO>
F 2

$$$$
=
 OpenBabel10232407533D

 26 29  0  0  1  0  0  0  0  0999 V2000
  189.4920  174.7160  137.1100 C   0  0  0  0  0  2  0  0  0  0  0  0
  187.4750  178.9920  137.3460 N   0  0  0  0  0  0  0  0  0  0  0  0
  191.8840  174.6080  137.7300 C   0  0  2  0  0  3  0  0  0  0  0  0
  189.2740  175.9150  138.0460 C   0  0  1  0  0  3  0  0  0  0  0  0
  191.8470  175.9250  138.5040 C   0  0  2  0  0  3  0  0  0  0  0  0
  188.0300  178.0460  138.1310 C   0  0  0  0  0  0  0  0  0  0  0  0
  189.0600  176.7460  134.9500 C   0  0  0  0  0  1  0  0  0  0  0  0
  193.1740  174.3550  137.2640 O   0  0  0  0  0  1  0  0  0  0  0  0
  190.4460  176.3140  138.9110 C   0  0  0  0  0  0  0  0  0  0  0  0
  190.2690  177.0860  140.0020 C   0  0  0  0  0  0  0  0  0  0  0  0
  188.5180  177.4590  136.1400 C   0  0  0  0  0  0  0  0  0  0  0  0
  188.9430  177.6470  140.3980 C   0  0  0  0  0  3  0  0  0  0  0  0
  188.6550  177.0860  137.4300 N   0  0  0  0  0  0  0  0  0  0  0  0
  190.9110  174.6490  136.5650 C   0  0  0  0  0  2  0  0  0  0  0  0
  192.4170  176.9560  137.7520 O   0  0  0  0  0  1  0  0  0  0  0  0
  187.7880  178.6280  136.0830 C   0  0  0  0  0  3  0  0  0  0  0  0
  187.9470  178.0650  139.6030 C   0  0  0  0  0  0  0  0  0  0  0  0
  186.8010  178.6490  140.2130 N   0  0  0  0  0  1  0  0  0  0  0  0
  191.3850  177.3160  140.8270 O   0  0  0  0  0  0  0  0  0  0  0  0
  191.4910  178.4680  144.3740 C   0  0  0  0  0  3  0  0  0  0  0  0
  191.3990  177.3210  142.2300 C   0  0  0  0  0  0  0  0  0  0  0  0
  191.5190  177.1950  146.3880 F   0  0  0  0  0  0  0  0  0  0  0  0
  191.4420  176.0500  144.2990 C   0  0  0  0  0  3  0  0  0  0  0  0
  191.4820  177.2360  145.0350 C   0  0  0  0  0  0  0  0  0  0  0  0
  191.4520  178.5100  142.9770 C   0  0  0  0  0  3  0  0  0  0  0  0
  191.4030  176.0940  142.9020 C   0  0  0  0  0  3  0  0  0  0  0  0
  2  6  2  0  0  0  0
  3  8  1  6  0  0  0
  3  5  1  0  0  0  0
  4  1  1  6  0  0  0
  4  9  1  0  0  0  0
  5 15  1  6  0  0  0
  5  9  1  0  0  0  0
  6 17  1  0  0  0  0
  7 11  1  0  0  0  0
  9 10  2  0  0  0  0
 10 12  1  0  0  0  0
 10 19  1  0  0  0  0
 11 13  1  0  0  0  0
 13  4  1  0  0  0  0
 13  6  1  0  0  0  0
 14  1  1  0  0  0  0
 14  3  1  0  0  0  0
 16 11  2  0  0  0  0
 16  2  1  0  0  0  0
 17 18  1  0  0  0  0
 17 12  2  0  0  0  0
 19 21  1  0  0  0  0
 20 24  1  0  0  0  0
 21 26  2  0  0  0  0
 21 25  1  0  0  0  0
 23 24  2  0  0  0  0
 24 22  1  0  0  0  0
 25 20  2  0  0  0  0
 26 23  1  0  0  0  0
M  END
>  <MODEL>
5

>  <REMARK>
 VINA RESULT:      -7.9      5.055      8.106
  Name = 
  2 active torsions:
  status: ('A' for Active; 'I' for Inactive)
    1  A    between atoms: O_1  and  C_5
    2  A    between atoms: O_1  and  C_15
                            x       y       z     vdW  Elec       q    Type
                         _______ _______ _______ _____ _____    ______ ____

>  <TORSDO>
F 2

$$$$
=
 OpenBabel10232407533D

 26 29  0  0  1  0  0  0  0  0999 V2000
  186.6550  176.7580  145.1380 C   0  0  0  0  0  2  0  0  0  0  0  0
  190.4570  178.4380  142.8730 N   0  0  0  0  0  0  0  0  0  0  0  0
  184.6730  178.2360  145.1770 C   0  0  2  0  0  3  0  0  0  0  0  0
  187.1140  177.3610  143.8010 C   0  0  1  0  0  3  0  0  0  0  0  0
  185.1440  179.0690  143.9850 C   0  0  2  0  0  3  0  0  0  0  0  0
  189.1880  178.0400  142.6460 C   0  0  0  0  0  0  0  0  0  0  0  0
  189.0500  178.1880  146.2280 C   0  0  0  0  0  1  0  0  0  0  0  0
  183.8260  178.9900  145.9910 O   0  0  0  0  0  1  0  0  0  0  0  0
  186.1720  178.3440  143.1490 C   0  0  0  0  0  0  0  0  0  0  0  0
  186.2870  178.6490  141.8400 C   0  0  0  0  0  0  0  0  0  0  0  0
  189.3440  178.1890  144.7670 C   0  0  0  0  0  0  0  0  0  0  0  0
  187.3680  178.1020  140.9670 C   0  0  0  0  0  3  0  0  0  0  0  0
  188.4880  177.8580  143.7780 N   0  0  0  0  0  0  0  0  0  0  0  0
  185.8620  177.7430  145.9830 C   0  0  0  0  0  2  0  0  0  0  0  0
  185.6680  180.2910  144.4120 O   0  0  0  0  0  1  0  0  0  0  0  0
  190.5580  178.5410  144.2160 C   0  0  0  0  0  3  0  0  0  0  0  0
  188.6380  177.8200  141.2960 C   0  0  0  0  0  0  0  0  0  0  0  0
  189.5170  177.3860  140.2640 N   0  0  0  0  0  1  0  0  0  0  0  0
  185.3010  179.4760  141.2730 O   0  0  0  0  0  0  0  0  0  0  0  0
  182.9610  179.0770  138.3960 C   0  0  0  0  0  3  0  0  0  0  0  0
  184.2230  179.0640  140.4760 C   0  0  0  0  0  0  0  0  0  0  0  0
  180.9340  177.8330  138.2430 F   0  0  0  0  0  0  0  0  0  0  0  0
  182.1480  177.8150  140.2940 C   0  0  0  0  0  3  0  0  0  0  0  0
  182.0030  178.2360  138.9690 C   0  0  0  0  0  0  0  0  0  0  0  0
  184.0640  179.4920  139.1470 C   0  0  0  0  0  3  0  0  0  0  0  0
  183.2520  178.2310  141.0430 C   0  0  0  0  0  3  0  0  0  0  0  0
  1 14  1  0  0  0  0
  2 16  1  0  0  0  0
  3 14  1  0  0  0  0
  3  8  1  1  0  0  0
  4  1  1  1  0  0  0
  5 15  1  1  0  0  0
  5  3  1  0  0  0  0
  6  2  2  0  0  0  0
  6 13  1  0  0  0  0
  9  4  1  0  0  0  0
  9  5  1  0  0  0  0
 10  9  2  0  0  0  0
 11  7  1  0  0  0  0
 12 17  2  0  0  0  0
 12 10  1  0  0  0  0
 13  4  1  0  0  0  0
 13 11  1  0  0  0  0
 16 11  2  0  0  0  0
 17  6  1  0  0  0  0
 18 17  1  0  0  0  0
 19 10  1  0  0  0  0
 20 24  2  0  0  0  0
 20 25  1  0  0  0  0
 21 26  1  0  0  0  0
 21 19  1  0  0  0  0
 22 24  1  0  0  0  0
 23 26  2  0  0  0  0
 24 23  1  0  0  0  0
 25 21  2  0  0  0  0
M  END
>  <MODEL>
6

>  <REMARK>
 VINA RESULT:      -7.9      2.554      4.537
  Name = 
  2 active torsions:
  status: ('A' for Active; 'I' for Inactive)
    1  A    between atoms: O_1  and  C_5
    2  A    between atoms: O_1  and  C_15
                            x       y       z     vdW  Elec       q    Type
                         _______ _______ _______ _____ _____    ______ ____

>  <TORSDO>
F 2

$$$$
=
 OpenBabel10232407533D

 26 29  0  0  1  0  0  0  0  0999 V2000
  183.6310  179.8530  138.6550 C   0  0  0  0  0  2  0  0  0  0  0  0
  187.5470  177.2110  138.3380 N   0  0  0  0  0  0  0  0  0  0  0  0
  181.9330  179.0880  140.2830 C   0  0  2  0  0  3  0  0  0  0  0  0
  184.7580  179.2320  139.4950 C   0  0  1  0  0  3  0  0  0  0  0  0
  182.9280  178.2370  141.0730 C   0  0  2  0  0  3  0  0  0  0  0  0
  186.8830  178.0110  139.1990 C   0  0  0  0  0  0  0  0  0  0  0  0
  184.3030  177.6570  136.7320 C   0  0  0  0  0  1  0  0  0  0  0  0
  180.6400  178.5880  140.4350 O   0  0  0  0  0  1  0  0  0  0  0  0
  184.3590  178.6530  140.8300 C   0  0  0  0  0  0  0  0  0  0  0  0
  185.2810  178.4220  141.7870 C   0  0  0  0  0  0  0  0  0  0  0  0
  185.5110  177.6670  137.6040 C   0  0  0  0  0  0  0  0  0  0  0  0
  186.7420  178.6550  141.5860 C   0  0  0  0  0  3  0  0  0  0  0  0
  185.6480  178.3250  138.7740 N   0  0  0  0  0  0  0  0  0  0  0  0
  182.3100  179.1150  138.8120 C   0  0  0  0  0  2  0  0  0  0  0  0
  182.7760  176.8830  140.7620 O   0  0  0  0  0  1  0  0  0  0  0  0
  186.6770  176.9860  137.3280 C   0  0  0  0  0  3  0  0  0  0  0  0
  187.4630  178.4920  140.4670 C   0  0  0  0  0  0  0  0  0  0  0  0
  188.8700  178.6940  140.5390 N   0  0  0  0  0  1  0  0  0  0  0  0
  184.8220  177.9970  143.0470 O   0  0  0  0  0  0  0  0  0  0  0  0
  187.3700  177.5160  145.7290 C   0  0  0  0  0  3  0  0  0  0  0  0
  185.5150  178.0910  144.2640 C   0  0  0  0  0  0  0  0  0  0  0  0
  187.4300  178.3880  147.9460 F   0  0  0  0  0  0  0  0  0  0  0  0
  185.5970  178.9540  146.5320 C   0  0  0  0  0  3  0  0  0  0  0  0
  186.8060  178.2890  146.7480 C   0  0  0  0  0  0  0  0  0  0  0  0
  186.7260  177.4150  144.4930 C   0  0  0  0  0  3  0  0  0  0  0  0
  184.9540  178.8520  145.2950 C   0  0  0  0  0  3  0  0  0  0  0  0
  1 14  1  0  0  0  0
  2  6  2  0  0  0  0
  3  8  1  6  0  0  0
  3  5  1  0  0  0  0
  4  1  1  6  0  0  0
  4  9  1  0  0  0  0
  5 15  1  6  0  0  0
  6 17  1  0  0  0  0
  7 11  1  0  0  0  0
  9  5  1  0  0  0  0
  9 10  2  0  0  0  0
 10 19  1  0  0  0  0
 11 13  1  0  0  0  0
 12 10  1  0  0  0  0
 13  6  1  0  0  0  0
 13  4  1  0  0  0  0
 14  3  1  0  0  0  0
 16 11  2  0  0  0  0
 16  2  1  0  0  0  0
 17 18  1  0  0  0  0
 17 12  2  0  0  0  0
 19 21  1  0  0  0  0
 20 24  1  0  0  0  0
 21 25  1  0  0  0  0
 21 26  2  0  0  0  0
 23 24  2  0  0  0  0
 24 22  1  0  0  0  0
 25 20  2  0  0  0  0
 26 23  1  0  0  0  0
M  END
>  <MODEL>
7

>  <REMARK>
 VINA RESULT:      -7.8      3.977      7.247
  Name = 
  2 active torsions:
  status: ('A' for Active; 'I' for Inactive)
    1  A    between atoms: O_1  and  C_5
    2  A    between atoms: O_1  and  C_15
                            x       y       z     vdW  Elec       q    Type
                         _______ _______ _______ _____ _____    ______ ____

>  <TORSDO>
F 2

$$$$
=
 OpenBabel10232407533D

 26 29  0  0  1  0  0  0  0  0999 V2000
  190.2010  178.2860  144.5610 C   0  0  0  0  0  2  0  0  0  0  0  0
  185.5710  178.2210  143.5770 N   0  0  0  0  0  0  0  0  0  0  0  0
  191.5160  176.3640  143.7270 C   0  0  2  0  0  3  0  0  0  0  0  0
  189.1990  178.1390  143.4060 C   0  0  1  0  0  3  0  0  0  0  0  0
  190.4710  175.9730  142.6810 C   0  0  2  0  0  3  0  0  0  0  0  0
  186.7740  178.3090  142.9720 C   0  0  0  0  0  0  0  0  0  0  0  0
  187.9060  177.3360  146.2350 C   0  0  0  0  0  1  0  0  0  0  0  0
  192.2730  175.2510  144.0950 O   0  0  0  0  0  1  0  0  0  0  0  0
  189.5360  177.1120  142.3510 C   0  0  0  0  0  0  0  0  0  0  0  0
  188.9480  177.1480  141.1380 C   0  0  0  0  0  0  0  0  0  0  0  0
  187.2110  177.7380  144.9800 C   0  0  0  0  0  0  0  0  0  0  0  0
  187.8960  178.1420  140.7710 C   0  0  0  0  0  3  0  0  0  0  0  0
  187.7960  178.0420  143.8020 N   0  0  0  0  0  0  0  0  0  0  0  0
  190.8440  176.9630  144.9500 C   0  0  0  0  0  2  0  0  0  0  0  0
  189.7300  174.8700  143.1110 O   0  0  0  0  0  1  0  0  0  0  0  0
  185.8430  177.8520  144.8480 C   0  0  0  0  0  3  0  0  0  0  0  0
  186.9420  178.6700  141.5530 C   0  0  0  0  0  0  0  0  0  0  0  0
  185.9880  179.5400  140.9540 N   0  0  0  0  0  1  0  0  0  0  0  0
  189.3990  176.2360  140.1660 O   0  0  0  0  0  0  0  0  0  0  0  0
  192.7650  177.2870  138.9510 C   0  0  0  0  0  3  0  0  0  0  0  0
  190.5660  176.3470  139.3960 C   0  0  0  0  0  0  0  0  0  0  0  0
  193.9410  176.6460  136.9790 F   0  0  0  0  0  0  0  0  0  0  0  0
  191.7820  175.7220  137.3890 C   0  0  0  0  0  3  0  0  0  0  0  0
  192.8420  176.5510  137.7650 C   0  0  0  0  0  0  0  0  0  0  0  0
  191.6310  177.1870  139.7610 C   0  0  0  0  0  3  0  0  0  0  0  0
  190.6490  175.6240  138.2010 C   0  0  0  0  0  3  0  0  0  0  0  0
  1 14  1  0  0  0  0
  2 16  1  0  0  0  0
  3  8  1  1  0  0  0
  3 14  1  0  0  0  0
  4 13  1  0  0  0  0
  4  1  1  1  0  0  0
  5 15  1  1  0  0  0
  5  3  1  0  0  0  0
  6  2  2  0  0  0  0
  6 13  1  0  0  0  0
  9  5  1  0  0  0  0
  9  4  1  0  0  0  0
 10  9  2  0  0  0  0
 11  7  1  0  0  0  0
 12 10  1  0  0  0  0
 12 17  2  0  0  0  0
 13 11  1  0  0  0  0
 16 11  2  0  0  0  0
 17  6  1  0  0  0  0
 18 17  1  0  0  0  0
 19 10  1  0  0  0  0
 20 25  1  0  0  0  0
 21 25  2  0  0  0  0
 21 19  1  0  0  0  0
 22 24  1  0  0  0  0
 23 24  1  0  0  0  0
 23 26  2  0  0  0  0
 24 20  2  0  0  0  0
 26 21  1  0  0  0  0
M  END
>  <MODEL>
8

>  <REMARK>
 VINA RESULT:      -7.7      3.994      6.355
  Name = 
  2 active torsions:
  status: ('A' for Active; 'I' for Inactive)
    1  A    between atoms: O_1  and  C_5
    2  A    between atoms: O_1  and  C_15
                            x       y       z     vdW  Elec       q    Type
                         _______ _______ _______ _____ _____    ______ ____

>  <TORSDO>
F 2

$$$$
=
 OpenBabel10232407533D

 26 29  0  0  1  0  0  0  0  0999 V2000
  186.5920  176.7990  143.7250 C   0  0  0  0  0  2  0  0  0  0  0  0
  190.7700  177.0040  145.9430 N   0  0  0  0  0  0  0  0  0  0  0  0
  186.3100  178.3230  141.7970 C   0  0  2  0  0  3  0  0  0  0  0  0
  188.1080  176.7300  143.4850 C   0  0  1  0  0  3  0  0  0  0  0  0
  187.8140  178.5190  141.6030 C   0  0  2  0  0  3  0  0  0  0  0  0
  190.2230  176.6610  144.7570 C   0  0  0  0  0  0  0  0  0  0  0  0
  187.3830  178.3390  146.1690 C   0  0  0  0  0  1  0  0  0  0  0  0
  185.6090  179.4240  141.3040 O   0  0  0  0  0  1  0  0  0  0  0  0
  188.6240  177.4180  142.2450 C   0  0  0  0  0  0  0  0  0  0  0  0
  189.8410  177.1230  141.7440 C   0  0  0  0  0  0  0  0  0  0  0  0
  188.6720  177.6890  145.7980 C   0  0  0  0  0  0  0  0  0  0  0  0
  190.7790  176.1610  142.3960 C   0  0  0  0  0  3  0  0  0  0  0  0
  188.9400  177.0440  144.6440 N   0  0  0  0  0  0  0  0  0  0  0  0
  185.9870  178.1170  143.2660 C   0  0  0  0  0  2  0  0  0  0  0  0
  188.2200  179.7550  142.1130 O   0  0  0  0  0  1  0  0  0  0  0  0
  189.7910  177.6620  146.6030 C   0  0  0  0  0  3  0  0  0  0  0  0
  190.9590  175.9350  143.7060 C   0  0  0  0  0  0  0  0  0  0  0  0
  191.9820  175.0250  144.0960 N   0  0  0  0  0  1  0  0  0  0  0  0
  190.2050  177.7130  140.5200 O   0  0  0  0  0  0  0  0  0  0  0  0
  191.5480  175.9290  137.5320 C   0  0  0  0  0  3  0  0  0  0  0  0
  190.2930  177.0690  139.2770 C   0  0  0  0  0  0  0  0  0  0  0  0
  190.4360  175.2540  135.5350 F   0  0  0  0  0  0  0  0  0  0  0  0
  189.1900  176.3800  137.2260 C   0  0  0  0  0  3  0  0  0  0  0  0
  190.3910  175.8460  136.7520 C   0  0  0  0  0  0  0  0  0  0  0  0
  191.5000  176.5400  138.7880 C   0  0  0  0  0  3  0  0  0  0  0  0
  189.1440  176.9900  138.4830 C   0  0  0  0  0  3  0  0  0  0  0  0
  2 16  1  0  0  0  0
  3  8  1  1  0  0  0
  3 14  1  0  0  0  0
  4  1  1  1  0  0  0
  4 13  1  0  0  0  0
  5  3  1  0  0  0  0
  5 15  1  1  0  0  0
  5  9  1  0  0  0  0
  6  2  2  0  0  0  0
  9  4  1  0  0  0  0
 10  9  2  0  0  0  0
 10 12  1  0  0  0  0
 11  7  1  0  0  0  0
 11 16  2  0  0  0  0
 12 17  2  0  0  0  0
 13  6  1  0  0  0  0
 13 11  1  0  0  0  0
 14  1  1  0  0  0  0
 17 18  1  0  0  0  0
 17  6  1  0  0  0  0
 19 10  1  0  0  0  0
 20 25  1  0  0  0  0
 21 19  1  0  0  0  0
 22 24  1  0  0  0  0
 23 26  2  0  0  0  0
 24 23  1  0  0  0  0
 24 20  2  0  0  0  0
 25 21  2  0  0  0  0
 26 21  1  0  0  0  0
M  END
>  <MODEL>
9

>  <REMARK>
 VINA RESULT:      -7.5      3.524      6.014
  Name = 
  2 active torsions:
  status: ('A' for Active; 'I' for Inactive)
    1  A    between atoms: O_1  and  C_5
    2  A    between atoms: O_1  and  C_15
                            x       y       z     vdW  Elec       q    Type
                         _______ _______ _______ _____ _____    ______ ____

>  <TORSDO>
F 2

$$$$
