=
 OpenBabel10232409193D

 30 36  0  0  1  0  0  0  0  0999 V2000
  189.7100  179.1190  142.1580 C   0  0  0  0  0  2  0  0  0  0  0  0
  186.9100  176.1250  144.9720 C   0  0  0  0  0  2  0  0  0  0  0  0
  187.0540  178.6780  147.7510 C   0  0  2  0  0  3  0  0  0  0  0  0
  188.3290  177.8310  148.0350 C   0  0  0  0  0  1  0  0  0  0  0  0
  186.1120  179.2630  146.0210 C   0  0  2  0  0  3  0  0  0  0  0  0
  186.6130  178.0900  143.3140 C   0  0  0  0  0  2  0  0  0  0  0  0
  192.1200  175.4790  146.9080 C   0  0  0  0  0  3  0  0  0  0  0  0
  187.2520  176.7260  143.6010 C   0  0  1  0  0  3  0  0  0  0  0  0
  191.2590  176.4540  147.4090 C   0  0  0  0  0  3  0  0  0  0  0  0
  189.5200  178.1900  147.0630 C   0  0  0  0  0  2  0  0  0  0  0  0
  191.3250  175.9230  144.6990 N   0  0  0  0  0  0  0  0  0  0  0  0
  192.1400  175.2260  145.5340 C   0  0  0  0  0  3  0  0  0  0  0  0
  189.6000  177.6270  144.1830 C   0  0  1  0  0  3  0  0  0  0  0  0
  190.4490  178.6410  143.4010 C   0  0  0  0  0  2  0  0  0  0  0  0
  188.7570  176.6610  143.3040 C   0  0  2  0  0  3  0  0  0  0  0  0
  185.2170  178.1730  143.9290 C   0  0  0  0  0  2  0  0  0  0  0  0
  185.8160  179.5000  147.4760 C   0  0  0  0  0  2  0  0  0  0  0  0
  189.0150  176.7860  141.8210 C   0  0  0  0  0  3  0  0  0  0  0  0
  185.2620  178.1060  145.4660 C   0  0  1  0  0  3  0  0  0  0  0  0
  186.2870  177.0860  146.0020 C   0  0  2  0  0  3  0  0  0  0  0  0
  188.3110  177.8650  147.3330 C   0  0  2  0  0  0  0  0  0  0  0  0
  190.4280  177.1670  146.5390 C   0  0  0  0  0  0  0  0  0  0  0  0
  187.2060  178.2470  146.3800 C   0  0  2  0  0  0  0  0  0  0  0  0
  190.4680  176.8760  145.1580 C   0  0  0  0  0  0  0  0  0  0  0  0
  189.4260  177.9390  141.2780 C   0  0  0  0  0  0  0  0  0  0  0  0
  189.7320  178.0070  139.8210 C   0  0  0  0  0  2  0  0  0  0  0  0
  187.8490  176.7840  138.0770 O   0  0  0  0  0  1  0  0  0  0  0  0
  188.6620  178.7060  139.1270 N   0  0  0  0  0  2  0  0  0  0  0  0
  187.7500  178.0250  138.2660 C   0  0  0  0  0  0  0  0  0  0  0  0
  186.7430  178.7390  137.6290 O   0  0  0  0  0  0  0  0  0  0  0  0
  1 14  1  0  0  0  0
  3 17  1  6  0  0  0
  5 23  1  0  0  0  0
  5 17  1  1  0  0  0
  6 16  1  0  0  0  0
  7  9  1  0  0  0  0
  8  6  1  1  0  0  0
  8  2  1  0  0  0  0
 10 21  1  0  0  0  0
 11 24  2  0  0  0  0
 11 12  1  0  0  0  0
 12  7  2  0  0  0  0
 13 14  1  6  0  0  0
 13 24  1  0  0  0  0
 15 18  1  6  0  0  0
 15  8  1  0  0  0  0
 15 13  1  0  0  0  0
 19 16  1  6  0  0  0
 19 20  1  0  0  0  0
 19  5  1  0  0  0  0
 20  2  1  6  0  0  0
 20 23  1  0  0  0  0
 21  3  1  0  0  0  0
 21  4  1  1  0  0  0
 22 10  1  0  0  0  0
 22  9  2  0  0  0  0
 23 21  1  0  0  0  0
 23  3  1  0  0  0  0
 24 22  1  0  0  0  0
 25 18  2  0  0  0  0
 25  1  1  0  0  0  0
 26 25  1  0  0  0  0
 27 29  1  0  0  0  0
 28 26  1  0  0  0  0
 29 28  1  0  0  0  0
 30 29  2  0  0  0  0
M  END
>  <MODEL>
1

>  <REMARK>
 VINA RESULT:      -8.9      0.000      0.000
  Name = 
  2 active torsions:
  status: ('A' for Active; 'I' for Inactive)
    1  A    between atoms: C_10  and  N_13
    2  A    between atoms: C_10  and  C_30
                            x       y       z     vdW  Elec       q    Type
                         _______ _______ _______ _____ _____    ______ ____

>  <TORSDO>
F 2

$$$$
=
 OpenBabel10232409193D

 30 36  0  0  1  0  0  0  0  0999 V2000
  190.9380  178.8800  142.2850 C   0  0  0  0  0  2  0  0  0  0  0  0
  187.4870  175.8900  144.2520 C   0  0  0  0  0  2  0  0  0  0  0  0
  186.7610  178.5190  146.8630 C   0  0  2  0  0  3  0  0  0  0  0  0
  187.9110  177.7140  147.5370 C   0  0  0  0  0  1  0  0  0  0  0  0
  186.3600  179.0320  144.9140 C   0  0  2  0  0  3  0  0  0  0  0  0
  187.6570  177.8000  142.5140 C   0  0  0  0  0  2  0  0  0  0  0  0
  191.9070  175.4350  147.6530 C   0  0  0  0  0  3  0  0  0  0  0  0
  188.2070  176.4620  143.0220 C   0  0  1  0  0  3  0  0  0  0  0  0
  190.9190  176.4000  147.8460 C   0  0  0  0  0  3  0  0  0  0  0  0
  189.3290  178.0790  146.9470 C   0  0  0  0  0  2  0  0  0  0  0  0
  191.7900  175.7980  145.2940 N   0  0  0  0  0  0  0  0  0  0  0  0
  192.3350  175.1450  146.3550 C   0  0  0  0  0  3  0  0  0  0  0  0
  190.2630  177.4400  144.2380 C   0  0  1  0  0  3  0  0  0  0  0  0
  191.2860  178.4550  143.7060 C   0  0  0  0  0  2  0  0  0  0  0  0
  189.7330  176.4290  143.1830 C   0  0  2  0  0  3  0  0  0  0  0  0
  186.1400  177.8620  142.6900 C   0  0  0  0  0  2  0  0  0  0  0  0
  185.6450  179.3000  146.2090 C   0  0  0  0  0  2  0  0  0  0  0  0
  190.4140  176.5210  141.8370 C   0  0  0  0  0  3  0  0  0  0  0  0
  185.7320  177.8380  144.1730 C   0  0  1  0  0  3  0  0  0  0  0  0
  186.5710  176.8610  145.0200 C   0  0  2  0  0  3  0  0  0  0  0  0
  188.1000  177.7290  146.8600 C   0  0  2  0  0  0  0  0  0  0  0  0
  190.3690  177.0660  146.7470 C   0  0  0  0  0  0  0  0  0  0  0  0
  187.3180  178.0560  145.6120 C   0  0  2  0  0  0  0  0  0  0  0  0
  190.8190  176.7400  145.4490 C   0  0  0  0  0  0  0  0  0  0  0  0
  190.9460  177.6690  141.4010 C   0  0  0  0  0  0  0  0  0  0  0  0
  191.6660  177.7060  140.0960 C   0  0  0  0  0  2  0  0  0  0  0  0
  193.2280  176.8810  137.8690 O   0  0  0  0  0  0  0  0  0  0  0  0
  192.8720  176.8970  140.1780 N   0  0  0  0  0  2  0  0  0  0  0  0
  193.6090  176.5220  139.0150 C   0  0  0  0  0  0  0  0  0  0  0  0
  194.7570  175.7510  139.1480 O   0  0  0  0  0  1  0  0  0  0  0  0
  1 14  1  0  0  0  0
  3 17  1  6  0  0  0
  5 23  1  0  0  0  0
  5 17  1  1  0  0  0
  6 16  1  0  0  0  0
  7  9  1  0  0  0  0
  8  6  1  1  0  0  0
  8 15  1  0  0  0  0
  8  2  1  0  0  0  0
 11 24  2  0  0  0  0
 11 12  1  0  0  0  0
 12  7  2  0  0  0  0
 13 14  1  6  0  0  0
 13 24  1  0  0  0  0
 15 18  1  6  0  0  0
 15 13  1  0  0  0  0
 19 16  1  6  0  0  0
 19  5  1  0  0  0  0
 19 20  1  0  0  0  0
 20  2  1  6  0  0  0
 20 23  1  0  0  0  0
 21  3  1  0  0  0  0
 21 10  1  0  0  0  0
 21  4  1  1  0  0  0
 22 10  1  0  0  0  0
 22  9  2  0  0  0  0
 23 21  1  0  0  0  0
 23  3  1  0  0  0  0
 24 22  1  0  0  0  0
 25 18  2  0  0  0  0
 25  1  1  0  0  0  0
 26 28  1  0  0  0  0
 26 25  1  0  0  0  0
 27 29  2  0  0  0  0
 29 30  1  0  0  0  0
 29 28  1  0  0  0  0
M  END
>  <MODEL>
2

>  <REMARK>
 VINA RESULT:      -7.9      2.172      2.539
  Name = 
  2 active torsions:
  status: ('A' for Active; 'I' for Inactive)
    1  A    between atoms: C_10  and  N_13
    2  A    between atoms: C_10  and  C_30
                            x       y       z     vdW  Elec       q    Type
                         _______ _______ _______ _____ _____    ______ ____

>  <TORSDO>
F 2

$$$$
=
 OpenBabel10232409193D

 30 36  0  0  1  0  0  0  0  0999 V2000
  192.7600  176.2020  136.5800 C   0  0  0  0  0  2  0  0  0  0  0  0
  188.0900  174.5930  137.1450 C   0  0  0  0  0  2  0  0  0  0  0  0
  186.8410  178.0390  136.2340 C   0  0  2  0  0  3  0  0  0  0  0  0
  187.0320  178.1690  137.7740 C   0  0  0  0  0  1  0  0  0  0  0  0
  187.8670  177.0230  134.7720 C   0  0  2  0  0  3  0  0  0  0  0  0
  189.8570  174.8440  135.2710 C   0  0  0  0  0  2  0  0  0  0  0  0
  189.1860  177.5170  141.7880 C   0  0  0  0  0  3  0  0  0  0  0  0
  189.5340  174.3490  136.6850 C   0  0  1  0  0  3  0  0  0  0  0  0
  188.6500  178.1120  140.6460 C   0  0  0  0  0  3  0  0  0  0  0  0
  188.5460  178.3570  138.1790 C   0  0  0  0  0  2  0  0  0  0  0  0
  190.6170  176.1860  140.4120 N   0  0  0  0  0  0  0  0  0  0  0  0
  190.1810  176.5460  141.6490 C   0  0  0  0  0  3  0  0  0  0  0  0
  190.6420  176.3160  137.9370 C   0  0  1  0  0  3  0  0  0  0  0  0
  192.0370  176.9180  137.7130 C   0  0  0  0  0  2  0  0  0  0  0  0
  190.5550  174.7760  137.7500 C   0  0  2  0  0  3  0  0  0  0  0  0
  188.6530  174.6640  134.3470 C   0  0  0  0  0  2  0  0  0  0  0  0
  186.6550  177.9120  134.7400 C   0  0  0  0  0  2  0  0  0  0  0  0
  191.8870  174.1020  137.5130 C   0  0  0  0  0  3  0  0  0  0  0  0
  187.4620  175.5380  134.7790 C   0  0  1  0  0  3  0  0  0  0  0  0
  187.2660  175.5900  136.3070 C   0  0  2  0  0  3  0  0  0  0  0  0
  187.5790  177.7730  137.5760 C   0  0  2  0  0  0  0  0  0  0  0  0
  189.1090  177.7360  139.3800 C   0  0  0  0  0  0  0  0  0  0  0  0
  187.8470  177.0040  136.3070 C   0  0  2  0  0  0  0  0  0  0  0  0
  190.1090  176.7430  139.2780 C   0  0  0  0  0  0  0  0  0  0  0  0
  192.9060  174.7530  136.9370 C   0  0  0  0  0  0  0  0  0  0  0  0
  194.2240  174.0760  136.7780 C   0  0  0  0  0  2  0  0  0  0  0  0
  195.3590  173.1690  139.2210 O   0  0  0  0  0  0  0  0  0  0  0  0
  195.2370  174.7880  137.5410 N   0  0  0  0  0  2  0  0  0  0  0  0
  195.7640  174.2700  138.7620 C   0  0  0  0  0  0  0  0  0  0  0  0
  196.7330  174.9880  139.4500 O   0  0  0  0  0  1  0  0  0  0  0  0
  1 25  1  0  0  0  0
  1 14  1  0  0  0  0
  3 17  1  6  0  0  0
  3 23  1  0  0  0  0
  3 21  1  0  0  0  0
  5 17  1  6  0  0  0
  5 19  1  0  0  0  0
  5 23  1  0  0  0  0
  8  6  1  6  0  0  0
  8  2  1  0  0  0  0
  8 15  1  0  0  0  0
  9  7  2  0  0  0  0
 10 22  1  0  0  0  0
 11 12  2  0  0  0  0
 12  7  1  0  0  0  0
 13 14  1  1  0  0  0
 13 24  1  0  0  0  0
 15 18  1  6  0  0  0
 15 13  1  0  0  0  0
 16  6  1  0  0  0  0
 19 16  1  1  0  0  0
 19 20  1  0  0  0  0
 20  2  1  1  0  0  0
 21  4  1  1  0  0  0
 21 10  1  0  0  0  0
 22  9  1  0  0  0  0
 23 20  1  0  0  0  0
 23 21  1  0  0  0  0
 24 22  2  0  0  0  0
 24 11  1  0  0  0  0
 25 18  2  0  0  0  0
 26 25  1  0  0  0  0
 26 28  1  0  0  0  0
 28 29  1  0  0  0  0
 29 27  2  0  0  0  0
 29 30  1  0  0  0  0
M  END
>  <MODEL>
3

>  <REMARK>
 VINA RESULT:      -7.1      4.862      8.570
  Name = 
  2 active torsions:
  status: ('A' for Active; 'I' for Inactive)
    1  A    between atoms: C_10  and  N_13
    2  A    between atoms: C_10  and  C_30
                            x       y       z     vdW  Elec       q    Type
                         _______ _______ _______ _____ _____    ______ ____

>  <TORSDO>
F 2

$$$$
=
 OpenBabel10232409193D

 30 36  0  0  1  0  0  0  0  0999 V2000
  185.3520  180.3590  143.7200 C   0  0  0  0  0  2  0  0  0  0  0  0
  187.8630  176.0770  143.4530 C   0  0  0  0  0  2  0  0  0  0  0  0
  191.0500  178.0320  142.9190 C   0  0  2  0  0  3  0  0  0  0  0  0
  190.5300  177.8720  141.4600 C   0  0  0  0  0  1  0  0  0  0  0  0
  190.1080  178.2960  144.7250 C   0  0  2  0  0  3  0  0  0  0  0  0
  187.1920  177.8420  145.2230 C   0  0  0  0  0  2  0  0  0  0  0  0
  187.3340  177.7810  138.1490 C   0  0  0  0  0  3  0  0  0  0  0  0
  186.7470  176.9280  144.0760 C   0  0  1  0  0  3  0  0  0  0  0  0
  188.4170  178.1560  138.9440 C   0  0  0  0  0  3  0  0  0  0  0  0
  189.3550  178.8720  141.1270 C   0  0  0  0  0  2  0  0  0  0  0  0
  185.8770  178.0510  140.0230 N   0  0  0  0  0  0  0  0  0  0  0  0
  186.0580  177.7350  138.7120 C   0  0  0  0  0  3  0  0  0  0  0  0
  186.6510  178.7660  142.2660 C   0  0  1  0  0  3  0  0  0  0  0  0
  185.9860  180.1480  142.3520 C   0  0  0  0  0  2  0  0  0  0  0  0
  185.8950  177.6280  143.0070 C   0  0  2  0  0  3  0  0  0  0  0  0
  188.2840  177.1700  146.0560 C   0  0  0  0  0  2  0  0  0  0  0  0
  191.5550  178.1860  144.3340 C   0  0  0  0  0  2  0  0  0  0  0  0
  184.5570  178.0380  143.5760 C   0  0  0  0  0  3  0  0  0  0  0  0
  189.5720  176.9490  145.2430 C   0  0  1  0  0  3  0  0  0  0  0  0
  189.3080  176.4900  143.7950 C   0  0  2  0  0  3  0  0  0  0  0  0
  189.9410  177.9780  141.8310 C   0  0  2  0  0  0  0  0  0  0  0  0
  188.2180  178.4810  140.2890 C   0  0  0  0  0  0  0  0  0  0  0  0
  189.6660  177.8950  143.3110 C   0  0  2  0  0  0  0  0  0  0  0  0
  186.9140  178.4130  140.8270 C   0  0  0  0  0  0  0  0  0  0  0  0
  184.3110  179.3030  143.9410 C   0  0  0  0  0  0  0  0  0  0  0  0
  182.9590  179.6830  144.4380 C   0  0  0  0  0  2  0  0  0  0  0  0
  180.7250  180.2170  142.7620 O   0  0  0  0  0  0  0  0  0  0  0  0
  181.9820  178.6930  144.0100 N   0  0  0  0  0  2  0  0  0  0  0  0
  180.8840  179.0340  143.1640 C   0  0  0  0  0  0  0  0  0  0  0  0
  179.9820  178.0500  142.7820 O   0  0  0  0  0  1  0  0  0  0  0  0
  1 25  1  0  0  0  0
  3 23  1  0  0  0  0
  3 17  1  1  0  0  0
  5 17  1  6  0  0  0
  5 19  1  0  0  0  0
  6 16  1  0  0  0  0
  7 12  2  0  0  0  0
  7  9  1  0  0  0  0
  8  2  1  6  0  0  0
  8  6  1  0  0  0  0
  9 22  2  0  0  0  0
 10 21  1  0  0  0  0
 11 24  2  0  0  0  0
 12 11  1  0  0  0  0
 13 14  1  6  0  0  0
 13 15  1  0  0  0  0
 14  1  1  0  0  0  0
 15 18  1  1  0  0  0
 15  8  1  0  0  0  0
 18 25  2  0  0  0  0
 19 16  1  1  0  0  0
 20  2  1  1  0  0  0
 20 19  1  0  0  0  0
 21  4  1  6  0  0  0
 21  3  1  0  0  0  0
 21 23  1  0  0  0  0
 22 24  1  0  0  0  0
 22 10  1  0  0  0  0
 23 20  1  0  0  0  0
 23  5  1  0  0  0  0
 24 13  1  0  0  0  0
 25 26  1  0  0  0  0
 27 29  2  0  0  0  0
 28 26  1  0  0  0  0
 29 28  1  0  0  0  0
 30 29  1  0  0  0  0
M  END
>  <MODEL>
4

>  <REMARK>
 VINA RESULT:      -6.3      3.145      6.329
  Name = 
  2 active torsions:
  status: ('A' for Active; 'I' for Inactive)
    1  A    between atoms: C_10  and  N_13
    2  A    between atoms: C_10  and  C_30
                            x       y       z     vdW  Elec       q    Type
                         _______ _______ _______ _____ _____    ______ ____

>  <TORSDO>
F 2

$$$$
=
 OpenBabel10232409193D

 30 36  0  0  1  0  0  0  0  0999 V2000
  190.7560  176.2860  135.3310 C   0  0  0  0  0  2  0  0  0  0  0  0
  186.7100  174.2170  137.3450 C   0  0  0  0  0  2  0  0  0  0  0  0
  184.6860  177.2080  136.2420 C   0  0  2  0  0  3  0  0  0  0  0  0
  185.2010  177.6720  137.6370 C   0  0  0  0  0  1  0  0  0  0  0  0
  185.5130  176.0640  134.7490 C   0  0  2  0  0  3  0  0  0  0  0  0
  187.9230  174.3170  135.0610 C   0  0  0  0  0  2  0  0  0  0  0  0
  188.3040  178.1390  141.0030 C   0  0  0  0  0  3  0  0  0  0  0  0
  188.0290  174.0790  136.5720 C   0  0  1  0  0  3  0  0  0  0  0  0
  187.4210  178.4140  139.9590 C   0  0  0  0  0  3  0  0  0  0  0  0
  186.7080  178.1390  137.5980 C   0  0  0  0  0  2  0  0  0  0  0  0
  189.5940  176.7610  139.5380 N   0  0  0  0  0  0  0  0  0  0  0  0
  189.3970  177.3030  140.7700 C   0  0  0  0  0  3  0  0  0  0  0  0
  189.0240  176.3890  137.1550 C   0  0  1  0  0  3  0  0  0  0  0  0
  190.1980  177.1140  136.4810 C   0  0  0  0  0  2  0  0  0  0  0  0
  189.1740  174.8450  137.2500 C   0  0  2  0  0  3  0  0  0  0  0  0
  186.5910  173.7940  134.5250 C   0  0  0  0  0  2  0  0  0  0  0  0
  184.1870  176.7580  134.8890 C   0  0  0  0  0  2  0  0  0  0  0  0
  190.5140  174.3220  136.7880 C   0  0  0  0  0  3  0  0  0  0  0  0
  185.3940  174.5700  135.1030 C   0  0  1  0  0  3  0  0  0  0  0  0
  185.5500  174.9040  136.6000 C   0  0  2  0  0  3  0  0  0  0  0  0
  185.7490  177.3210  137.3710 C   0  0  2  0  0  0  0  0  0  0  0  0
  187.6360  177.8540  138.6960 C   0  0  0  0  0  0  0  0  0  0  0  0
  185.8520  176.3530  136.2190 C   0  0  2  0  0  0  0  0  0  0  0  0
  188.7460  177.0040  138.5010 C   0  0  0  0  0  0  0  0  0  0  0  0
  191.2390  174.9720  135.8690 C   0  0  0  0  0  0  0  0  0  0  0  0
  192.5840  174.4600  135.4850 C   0  0  0  0  0  2  0  0  0  0  0  0
  194.2820  176.4430  136.6080 O   0  0  0  0  0  0  0  0  0  0  0  0
  193.4000  174.2810  136.6750 N   0  0  0  0  0  2  0  0  0  0  0  0
  194.2300  175.3250  137.1850 C   0  0  0  0  0  0  0  0  0  0  0  0
  194.9870  175.1030  138.3280 O   0  0  0  0  0  1  0  0  0  0  0  0
  1 25  1  0  0  0  0
  1 14  1  0  0  0  0
  3 17  1  6  0  0  0
  3 21  1  0  0  0  0
  5 17  1  1  0  0  0
  5 19  1  0  0  0  0
  5 23  1  0  0  0  0
  8  6  1  6  0  0  0
  8 15  1  0  0  0  0
  8  2  1  0  0  0  0
  9  7  2  0  0  0  0
 10 22  1  0  0  0  0
 11 12  2  0  0  0  0
 12  7  1  0  0  0  0
 13 14  1  1  0  0  0
 13 15  1  0  0  0  0
 13 24  1  0  0  0  0
 15 18  1  6  0  0  0
 16  6  1  0  0  0  0
 19 16  1  6  0  0  0
 19 20  1  0  0  0  0
 20  2  1  6  0  0  0
 21 10  1  0  0  0  0
 21  4  1  1  0  0  0
 22  9  1  0  0  0  0
 23  3  1  0  0  0  0
 23 20  1  0  0  0  0
 23 21  1  0  0  0  0
 24 22  2  0  0  0  0
 24 11  1  0  0  0  0
 25 18  2  0  0  0  0
 26 25  1  0  0  0  0
 26 28  1  0  0  0  0
 27 29  2  0  0  0  0
 28 29  1  0  0  0  0
 29 30  1  0  0  0  0
M  END
>  <MODEL>
5

>  <REMARK>
 VINA RESULT:      -6.1      5.063      8.662
  Name = 
  2 active torsions:
  status: ('A' for Active; 'I' for Inactive)
    1  A    between atoms: C_10  and  N_13
    2  A    between atoms: C_10  and  C_30
                            x       y       z     vdW  Elec       q    Type
                         _______ _______ _______ _____ _____    ______ ____

>  <TORSDO>
F 2

$$$$
