=
 OpenBabel10232409443D

 25 26  0  0  1  0  0  0  0  0999 V2000
  191.2150  177.0760  146.4310 C   0  0  1  0  0  3  0  0  0  0  0  0
  189.8840  176.5900  144.3870 C   0  0  1  0  0  3  0  0  0  0  0  0
  191.2940  176.5120  144.9960 C   0  0  0  0  0  2  0  0  0  0  0  0
  189.7830  177.4200  146.6040 C   0  0  0  0  0  0  0  0  0  0  0  0
  187.6690  177.4000  145.4250 C   0  0  0  0  0  0  0  0  0  0  0  0
  187.0430  177.9530  146.5760 C   0  0  0  0  0  0  0  0  0  0  0  0
  189.0470  177.1540  145.4770 C   0  0  0  0  0  0  0  0  0  0  0  0
  187.8200  178.2340  147.7200 C   0  0  0  0  0  3  0  0  0  0  0  0
  189.1940  177.9690  147.7390 C   0  0  0  0  0  3  0  0  0  0  0  0
  192.4770  176.7930  148.3530 N   0  0  0  0  0  1  0  0  0  0  0  0
  192.4100  175.1500  146.8650 O   0  0  0  0  0  1  0  0  0  0  0  0
  191.6510  176.1120  147.4490 N   0  0  0  0  0  0  0  0  0  0  0  0
  190.0910  177.0510  141.9110 C   0  0  0  0  0  0  0  0  0  0  0  0
  190.2550  175.8250  141.6670 O   0  0  0  0  0  0  0  0  0  0  0  0
  189.8900  177.5000  143.2510 N   0  0  0  0  0  2  0  0  0  0  0  0
  190.0460  178.0480  140.7900 C   0  0  1  0  0  3  0  0  0  0  0  0
  190.8950  177.6950  139.7330 O   0  0  0  0  0  1  0  0  0  0  0  0
  188.7320  178.3180  140.3500 O   0  0  0  0  0  0  0  0  0  0  0  0
  187.5080  177.8770  138.3530 C   0  0  0  0  0  1  0  0  0  0  0  0
  188.7470  178.5020  138.9570 C   0  0  0  0  0  2  0  0  0  0  0  0
  185.6030  178.2470  146.6120 C   0  0  0  0  0  3  0  0  0  0  0  0
  185.1550  179.3810  146.2960 O   0  0  0  0  0  0  0  0  0  0  0  0
  186.9850  177.0890  144.2390 O   0  0  0  0  0  0  0  0  0  0  0  0
  186.8050  177.9660  143.2450 O   0  0  0  0  0  0  0  0  0  0  0  0
  185.4300  177.9530  143.0130 C   0  0  0  0  0  1  0  0  0  0  0  0
  1  4  1  0  0  0  0
  1 12  1  1  0  0  0
  2 15  1  6  0  0  0
  2  3  1  0  0  0  0
  2  7  1  0  0  0  0
  3  1  1  0  0  0  0
  4  9  1  0  0  0  0
  5  7  1  0  0  0  0
  5  6  2  0  0  0  0
  6 21  1  0  0  0  0
  6  8  1  0  0  0  0
  7  4  2  0  0  0  0
  8  9  2  0  0  0  0
 11 12  1  0  0  0  0
 12 10  1  0  0  0  0
 13 15  1  0  0  0  0
 14 13  2  0  0  0  0
 16 17  1  6  0  0  0
 16 13  1  0  0  0  0
 18 16  1  0  0  0  0
 19 20  1  0  0  0  0
 20 18  1  0  0  0  0
 22 21  2  0  0  0  0
 23  5  1  0  0  0  0
 24 23  1  0  0  0  0
 25 24  1  0  0  0  0
M  END
>  <MODEL>
1

>  <REMARK>
 VINA RESULT:      -7.4      0.000      0.000
  Name = 
  8 active torsions:
  status: ('A' for Active; 'I' for Inactive)
    1  A    between atoms: C_1  and  C_7
    2  A    between atoms: C_1  and  O_8
    3  A    between atoms: C_2  and  N_12
    4  A    between atoms: C_4  and  N_24
    5  A    between atoms: O_8  and  C_19
    6  A    between atoms: O_11  and  O_17
    7  A    between atoms: C_13  and  O_17
    8  A    between atoms: C_15  and  C_18
                            x       y       z     vdW  Elec       q    Type
                         _______ _______ _______ _____ _____    ______ ____

>  <TORSDO>
F 8

$$$$
=
 OpenBabel10232409443D

 25 26  0  0  1  0  0  0  0  0999 V2000
  186.1830  177.9930  143.6390 C   0  0  1  0  0  3  0  0  0  0  0  0
  188.0230  178.3490  142.0050 C   0  0  1  0  0  3  0  0  0  0  0  0
  186.4990  178.4170  142.1890 C   0  0  0  0  0  2  0  0  0  0  0  0
  187.5160  177.7340  144.2360 C   0  0  0  0  0  0  0  0  0  0  0  0
  189.8750  177.7430  143.6930 C   0  0  0  0  0  0  0  0  0  0  0  0
  190.1640  177.3300  145.0230 C   0  0  0  0  0  0  0  0  0  0  0  0
  188.5320  177.9290  143.3350 C   0  0  0  0  0  0  0  0  0  0  0  0
  189.1020  177.1210  145.9280 C   0  0  0  0  0  3  0  0  0  0  0  0
  187.7740  177.3220  145.5400 C   0  0  0  0  0  3  0  0  0  0  0  0
  184.3990  178.4030  145.0600 N   0  0  0  0  0  1  0  0  0  0  0  0
  184.9170  179.9200  143.5270 O   0  0  0  0  0  1  0  0  0  0  0  0
  185.4610  179.0270  144.3920 N   0  0  0  0  0  0  0  0  0  0  0  0
  188.6350  177.6640  139.6500 C   0  0  0  0  0  0  0  0  0  0  0  0
  188.6220  178.8650  139.2660 O   0  0  0  0  0  0  0  0  0  0  0  0
  188.3530  177.3370  141.0110 N   0  0  0  0  0  2  0  0  0  0  0  0
  189.0020  176.5660  138.6950 C   0  0  1  0  0  3  0  0  0  0  0  0
  188.0780  176.4440  137.6490 O   0  0  0  0  0  1  0  0  0  0  0  0
  190.3280  176.6730  138.2230 O   0  0  0  0  0  0  0  0  0  0  0  0
  192.2660  175.3660  137.7540 C   0  0  0  0  0  1  0  0  0  0  0  0
  190.7530  175.4130  137.7690 C   0  0  0  0  0  2  0  0  0  0  0  0
  191.5400  177.1090  145.4860 C   0  0  0  0  0  3  0  0  0  0  0  0
  191.8030  176.9160  146.7020 O   0  0  0  0  0  0  0  0  0  0  0  0
  190.8570  177.9750  142.7170 O   0  0  0  0  0  0  0  0  0  0  0  0
  191.5070  176.9910  142.0840 O   0  0  0  0  0  0  0  0  0  0  0  0
  192.0470  177.6010  140.9520 C   0  0  0  0  0  1  0  0  0  0  0  0
  1  4  1  0  0  0  0
  1 12  1  1  0  0  0
  2 15  1  6  0  0  0
  2  3  1  0  0  0  0
  2  7  1  0  0  0  0
  3  1  1  0  0  0  0
  4  9  1  0  0  0  0
  5  6  2  0  0  0  0
  6 21  1  0  0  0  0
  6  8  1  0  0  0  0
  7  5  1  0  0  0  0
  7  4  2  0  0  0  0
  9  8  2  0  0  0  0
 11 12  1  0  0  0  0
 12 10  1  0  0  0  0
 13 15  1  0  0  0  0
 14 13  2  0  0  0  0
 16 17  1  6  0  0  0
 16 13  1  0  0  0  0
 18 16  1  0  0  0  0
 19 20  1  0  0  0  0
 20 18  1  0  0  0  0
 21 22  2  0  0  0  0
 23  5  1  0  0  0  0
 24 23  1  0  0  0  0
 25 24  1  0  0  0  0
M  END
>  <MODEL>
2

>  <REMARK>
 VINA RESULT:      -6.7      2.868      5.071
  Name = 
  8 active torsions:
  status: ('A' for Active; 'I' for Inactive)
    1  A    between atoms: C_1  and  C_7
    2  A    between atoms: C_1  and  O_8
    3  A    between atoms: C_2  and  N_12
    4  A    between atoms: C_4  and  N_24
    5  A    between atoms: O_8  and  C_19
    6  A    between atoms: O_11  and  O_17
    7  A    between atoms: C_13  and  O_17
    8  A    between atoms: C_15  and  C_18
                            x       y       z     vdW  Elec       q    Type
                         _______ _______ _______ _____ _____    ______ ____

>  <TORSDO>
F 8

$$$$
=
 OpenBabel10232409443D

 25 26  0  0  1  0  0  0  0  0999 V2000
  188.9510  177.8050  146.1880 C   0  0  1  0  0  3  0  0  0  0  0  0
  188.2680  177.0250  143.9280 C   0  0  1  0  0  3  0  0  0  0  0  0
  189.4400  177.0700  144.9210 C   0  0  0  0  0  2  0  0  0  0  0  0
  187.5310  178.1190  145.8950 C   0  0  0  0  0  0  0  0  0  0  0  0
  185.8500  177.8830  144.1710 C   0  0  0  0  0  0  0  0  0  0  0  0
  184.9190  178.5520  145.0120 C   0  0  0  0  0  0  0  0  0  0  0  0
  187.1540  177.6910  144.6480 C   0  0  0  0  0  0  0  0  0  0  0  0
  185.3330  178.9980  146.2850 C   0  0  0  0  0  3  0  0  0  0  0  0
  186.6410  178.7840  146.7330 C   0  0  0  0  0  3  0  0  0  0  0  0
  189.2200  177.8620  148.4890 N   0  0  0  0  0  1  0  0  0  0  0  0
  190.1990  176.2390  147.3370 O   0  0  0  0  0  1  0  0  0  0  0  0
  189.0700  176.9880  147.4030 N   0  0  0  0  0  0  0  0  0  0  0  0
  189.4110  177.2490  141.6840 C   0  0  0  0  0  0  0  0  0  0  0  0
  189.8450  176.0680  141.7550 O   0  0  0  0  0  0  0  0  0  0  0  0
  188.6070  177.7870  142.7350 N   0  0  0  0  0  2  0  0  0  0  0  0
  189.6840  178.0880  140.4700 C   0  0  1  0  0  3  0  0  0  0  0  0
  190.6410  177.5030  139.6280 O   0  0  0  0  0  1  0  0  0  0  0  0
  188.5080  178.4410  139.7730 O   0  0  0  0  0  0  0  0  0  0  0  0
  187.3600  178.0900  137.7140 C   0  0  0  0  0  1  0  0  0  0  0  0
  188.2750  177.4940  138.7620 C   0  0  0  0  0  2  0  0  0  0  0  0
  183.5320  178.8000  144.5940 C   0  0  0  0  0  3  0  0  0  0  0  0
  183.1840  179.8990  144.0860 O   0  0  0  0  0  0  0  0  0  0  0  0
  185.5380  177.4050  142.8880 O   0  0  0  0  0  0  0  0  0  0  0  0
  184.7700  178.0760  142.0220 O   0  0  0  0  0  0  0  0  0  0  0  0
  185.6150  179.0460  141.4860 C   0  0  0  0  0  1  0  0  0  0  0  0
  1 12  1  1  0  0  0
  2 15  1  6  0  0  0
  2  7  1  0  0  0  0
  2  3  1  0  0  0  0
  3  1  1  0  0  0  0
  4  1  1  0  0  0  0
  4  9  1  0  0  0  0
  5  7  1  0  0  0  0
  5  6  2  0  0  0  0
  6  8  1  0  0  0  0
  7  4  2  0  0  0  0
  8  9  2  0  0  0  0
 11 12  1  0  0  0  0
 12 10  1  0  0  0  0
 13 14  2  0  0  0  0
 13 15  1  0  0  0  0
 16 17  1  6  0  0  0
 16 13  1  0  0  0  0
 18 16  1  0  0  0  0
 19 20  1  0  0  0  0
 20 18  1  0  0  0  0
 21  6  1  0  0  0  0
 22 21  2  0  0  0  0
 23  5  1  0  0  0  0
 24 23  1  0  0  0  0
 25 24  1  0  0  0  0
M  END
>  <MODEL>
3

>  <REMARK>
 VINA RESULT:      -6.6      1.648      2.138
  Name = 
  8 active torsions:
  status: ('A' for Active; 'I' for Inactive)
    1  A    between atoms: C_1  and  C_7
    2  A    between atoms: C_1  and  O_8
    3  A    between atoms: C_2  and  N_12
    4  A    between atoms: C_4  and  N_24
    5  A    between atoms: O_8  and  C_19
    6  A    between atoms: O_11  and  O_17
    7  A    between atoms: C_13  and  O_17
    8  A    between atoms: C_15  and  C_18
                            x       y       z     vdW  Elec       q    Type
                         _______ _______ _______ _____ _____    ______ ____

>  <TORSDO>
F 8

$$$$
=
 OpenBabel10232409443D

 25 26  0  0  1  0  0  0  0  0999 V2000
  185.1070  178.1340  143.9460 C   0  0  1  0  0  3  0  0  0  0  0  0
  185.4190  179.0200  141.6440 C   0  0  1  0  0  3  0  0  0  0  0  0
  184.4160  178.9100  142.8040 C   0  0  0  0  0  2  0  0  0  0  0  0
  186.4680  177.8610  143.4240 C   0  0  0  0  0  0  0  0  0  0  0  0
  187.8580  178.2030  141.4720 C   0  0  0  0  0  0  0  0  0  0  0  0
  188.9170  177.5190  142.1300 C   0  0  0  0  0  0  0  0  0  0  0  0
  186.6410  178.3480  142.1530 C   0  0  0  0  0  0  0  0  0  0  0  0
  188.7120  177.0130  143.4310 C   0  0  0  0  0  3  0  0  0  0  0  0
  187.4870  177.1810  144.0840 C   0  0  0  0  0  3  0  0  0  0  0  0
  185.4840  178.0000  146.2280 N   0  0  0  0  0  1  0  0  0  0  0  0
  183.9400  179.4050  145.4790 O   0  0  0  0  0  1  0  0  0  0  0  0
  185.1670  178.8980  145.1990 N   0  0  0  0  0  0  0  0  0  0  0  0
  184.4740  178.9670  139.3000 C   0  0  0  0  0  0  0  0  0  0  0  0
  184.5350  180.2230  139.2160 O   0  0  0  0  0  0  0  0  0  0  0  0
  184.9100  178.3000  140.4850 N   0  0  0  0  0  2  0  0  0  0  0  0
  183.9970  178.1500  138.1350 C   0  0  1  0  0  3  0  0  0  0  0  0
  185.0480  177.4840  137.4900 O   0  0  0  0  0  1  0  0  0  0  0  0
  182.9420  177.2760  138.4750 O   0  0  0  0  0  0  0  0  0  0  0  0
  181.6720  178.5370  136.8990 C   0  0  0  0  0  1  0  0  0  0  0  0
  181.7190  177.9450  138.2920 C   0  0  0  0  0  2  0  0  0  0  0  0
  190.2250  177.3170  141.4920 C   0  0  0  0  0  3  0  0  0  0  0  0
  190.4490  176.3250  140.7480 O   0  0  0  0  0  0  0  0  0  0  0  0
  187.9600  178.7400  140.1790 O   0  0  0  0  0  0  0  0  0  0  0  0
  187.9380  177.9900  139.0700 O   0  0  0  0  0  0  0  0  0  0  0  0
  188.9220  178.5480  138.2540 C   0  0  0  0  0  1  0  0  0  0  0  0
  1 12  1  1  0  0  0
  2 15  1  6  0  0  0
  2  7  1  0  0  0  0
  2  3  1  0  0  0  0
  3  1  1  0  0  0  0
  4  1  1  0  0  0  0
  4  9  1  0  0  0  0
  5  6  2  0  0  0  0
  5  7  1  0  0  0  0
  6  8  1  0  0  0  0
  7  4  2  0  0  0  0
  8  9  2  0  0  0  0
 12 11  1  0  0  0  0
 12 10  1  0  0  0  0
 13 15  1  0  0  0  0
 14 13  2  0  0  0  0
 16 17  1  1  0  0  0
 16 18  1  0  0  0  0
 16 13  1  0  0  0  0
 19 20  1  0  0  0  0
 20 18  1  0  0  0  0
 21  6  1  0  0  0  0
 22 21  2  0  0  0  0
 23  5  1  0  0  0  0
 24 23  1  0  0  0  0
 25 24  1  0  0  0  0
M  END
>  <MODEL>
4

>  <REMARK>
 VINA RESULT:      -6.6      3.459      6.280
  Name = 
  8 active torsions:
  status: ('A' for Active; 'I' for Inactive)
    1  A    between atoms: C_1  and  C_7
    2  A    between atoms: C_1  and  O_8
    3  A    between atoms: C_2  and  N_12
    4  A    between atoms: C_4  and  N_24
    5  A    between atoms: O_8  and  C_19
    6  A    between atoms: O_11  and  O_17
    7  A    between atoms: C_13  and  O_17
    8  A    between atoms: C_15  and  C_18
                            x       y       z     vdW  Elec       q    Type
                         _______ _______ _______ _____ _____    ______ ____

>  <TORSDO>
F 8

$$$$
=
 OpenBabel10232409443D

 25 26  0  0  1  0  0  0  0  0999 V2000
  186.0920  178.8250  141.7760 C   0  0  1  0  0  3  0  0  0  0  0  0
  187.2300  177.2950  143.3730 C   0  0  1  0  0  3  0  0  0  0  0  0
  185.9480  178.1090  143.1370 C   0  0  0  0  0  2  0  0  0  0  0  0
  187.4140  178.3760  141.2730 C   0  0  0  0  0  0  0  0  0  0  0  0
  189.3040  176.9880  141.8730 C   0  0  0  0  0  0  0  0  0  0  0  0
  189.9300  177.3430  140.6470 C   0  0  0  0  0  0  0  0  0  0  0  0
  188.0430  177.5330  142.1540 C   0  0  0  0  0  0  0  0  0  0  0  0
  189.2720  178.2230  139.7630 C   0  0  0  0  0  3  0  0  0  0  0  0
  188.0110  178.7450  140.0720 C   0  0  0  0  0  3  0  0  0  0  0  0
  184.6940  179.6360  140.1160 N   0  0  0  0  0  1  0  0  0  0  0  0
  183.9150  178.1050  141.5190 O   0  0  0  0  0  1  0  0  0  0  0  0
  185.0240  178.4760  140.8310 N   0  0  0  0  0  0  0  0  0  0  0  0
  187.4280  177.6530  145.8670 C   0  0  0  0  0  0  0  0  0  0  0  0
  186.3480  177.0350  146.0710 O   0  0  0  0  0  0  0  0  0  0  0  0
  187.9310  177.8100  144.5400 N   0  0  0  0  0  2  0  0  0  0  0  0
  188.2290  178.1830  147.0210 C   0  0  1  0  0  3  0  0  0  0  0  0
  187.7710  177.6940  148.2520 O   0  0  0  0  0  1  0  0  0  0  0  0
  189.6180  177.9900  146.8560 O   0  0  0  0  0  0  0  0  0  0  0  0
  191.4650  176.5650  147.3480 C   0  0  0  0  0  1  0  0  0  0  0  0
  189.9580  176.7070  147.3170 C   0  0  0  0  0  2  0  0  0  0  0  0
  191.2520  176.8220  140.2710 C   0  0  0  0  0  3  0  0  0  0  0  0
  192.3100  177.4400  140.5600 O   0  0  0  0  0  0  0  0  0  0  0  0
  189.8750  176.1230  142.8200 O   0  0  0  0  0  0  0  0  0  0  0  0
  190.7180  176.5360  143.7750 O   0  0  0  0  0  0  0  0  0  0  0  0
  191.6730  175.5230  143.8590 C   0  0  0  0  0  1  0  0  0  0  0  0
  1 12  1  6  0  0  0
  1  3  1  0  0  0  0
  2 15  1  1  0  0  0
  3  2  1  0  0  0  0
  4  1  1  0  0  0  0
  4  7  1  0  0  0  0
  5  7  2  0  0  0  0
  5 23  1  0  0  0  0
  6  5  1  0  0  0  0
  7  2  1  0  0  0  0
  8  9  1  0  0  0  0
  8  6  2  0  0  0  0
  9  4  2  0  0  0  0
 10 12  1  0  0  0  0
 12 11  1  0  0  0  0
 13 14  2  0  0  0  0
 13 16  1  0  0  0  0
 15 13  1  0  0  0  0
 16 17  1  1  0  0  0
 18 16  1  0  0  0  0
 18 20  1  0  0  0  0
 20 19  1  0  0  0  0
 21 22  2  0  0  0  0
 21  6  1  0  0  0  0
 23 24  1  0  0  0  0
 24 25  1  0  0  0  0
M  END
>  <MODEL>
5

>  <REMARK>
 VINA RESULT:      -6.6      2.541      7.233
  Name = 
  8 active torsions:
  status: ('A' for Active; 'I' for Inactive)
    1  A    between atoms: C_1  and  C_7
    2  A    between atoms: C_1  and  O_8
    3  A    between atoms: C_2  and  N_12
    4  A    between atoms: C_4  and  N_24
    5  A    between atoms: O_8  and  C_19
    6  A    between atoms: O_11  and  O_17
    7  A    between atoms: C_13  and  O_17
    8  A    between atoms: C_15  and  C_18
                            x       y       z     vdW  Elec       q    Type
                         _______ _______ _______ _____ _____    ______ ____

>  <TORSDO>
F 8

$$$$
=
 OpenBabel10232409443D

 25 26  0  0  1  0  0  0  0  0999 V2000
  190.6990  176.5480  146.8670 C   0  0  1  0  0  3  0  0  0  0  0  0
  189.0610  178.0990  145.8200 C   0  0  1  0  0  3  0  0  0  0  0  0
  189.5830  177.5720  147.1660 C   0  0  0  0  0  2  0  0  0  0  0  0
  190.7990  176.5480  145.3870 C   0  0  0  0  0  0  0  0  0  0  0  0
  189.8230  177.5600  143.4170 C   0  0  0  0  0  0  0  0  0  0  0  0
  190.7080  176.7960  142.6080 C   0  0  0  0  0  0  0  0  0  0  0  0
  189.8950  177.4030  144.8080 C   0  0  0  0  0  0  0  0  0  0  0  0
  191.6190  175.9120  143.2240 C   0  0  0  0  0  3  0  0  0  0  0  0
  191.6690  175.7840  144.6160 C   0  0  0  0  0  3  0  0  0  0  0  0
  192.5950  175.7210  147.9090 N   0  0  0  0  0  1  0  0  0  0  0  0
  191.7600  177.6600  148.5880 O   0  0  0  0  0  1  0  0  0  0  0  0
  191.9830  176.9070  147.4820 N   0  0  0  0  0  0  0  0  0  0  0  0
  186.6090  178.3400  146.3840 C   0  0  0  0  0  0  0  0  0  0  0  0
  186.8580  179.2660  147.2020 O   0  0  0  0  0  0  0  0  0  0  0  0
  187.6650  177.7180  145.6510 N   0  0  0  0  0  2  0  0  0  0  0  0
  185.1920  177.9150  146.1260 C   0  0  1  0  0  3  0  0  0  0  0  0
  184.3070  178.4100  147.0940 O   0  0  0  0  0  1  0  0  0  0  0  0
  184.7630  178.2100  144.8140 O   0  0  0  0  0  0  0  0  0  0  0  0
  182.9120  179.1020  143.6060 C   0  0  0  0  0  1  0  0  0  0  0  0
  183.7360  179.1670  144.8740 C   0  0  0  0  0  2  0  0  0  0  0  0
  190.7010  176.8940  141.1420 C   0  0  0  0  0  3  0  0  0  0  0  0
  191.5790  177.5510  140.5220 O   0  0  0  0  0  0  0  0  0  0  0  0
  188.8790  178.4630  142.9020 O   0  0  0  0  0  0  0  0  0  0  0  0
  187.6810  178.0860  142.4380 O   0  0  0  0  0  0  0  0  0  0  0  0
  187.5590  178.7440  141.2150 C   0  0  0  0  0  1  0  0  0  0  0  0
  1  3  1  0  0  0  0
  1 12  1  1  0  0  0
  2 15  1  6  0  0  0
  2  3  1  0  0  0  0
  4  1  1  0  0  0  0
  5  7  2  0  0  0  0
  6  8  2  0  0  0  0
  6  5  1  0  0  0  0
  7  4  1  0  0  0  0
  7  2  1  0  0  0  0
  8  9  1  0  0  0  0
  9  4  2  0  0  0  0
 12 10  1  0  0  0  0
 12 11  1  0  0  0  0
 13 14  2  0  0  0  0
 15 13  1  0  0  0  0
 16 13  1  0  0  0  0
 16 17  1  1  0  0  0
 18 20  1  0  0  0  0
 18 16  1  0  0  0  0
 19 20  1  0  0  0  0
 21  6  1  0  0  0  0
 22 21  2  0  0  0  0
 23  5  1  0  0  0  0
 24 23  1  0  0  0  0
 25 24  1  0  0  0  0
M  END
>  <MODEL>
6

>  <REMARK>
 VINA RESULT:      -6.4      1.791      5.210
  Name = 
  8 active torsions:
  status: ('A' for Active; 'I' for Inactive)
    1  A    between atoms: C_1  and  C_7
    2  A    between atoms: C_1  and  O_8
    3  A    between atoms: C_2  and  N_12
    4  A    between atoms: C_4  and  N_24
    5  A    between atoms: O_8  and  C_19
    6  A    between atoms: O_11  and  O_17
    7  A    between atoms: C_13  and  O_17
    8  A    between atoms: C_15  and  C_18
                            x       y       z     vdW  Elec       q    Type
                         _______ _______ _______ _____ _____    ______ ____

>  <TORSDO>
F 8

$$$$
=
 OpenBabel10232409443D

 25 26  0  0  1  0  0  0  0  0999 V2000
  190.5350  177.1820  144.1830 C   0  0  1  0  0  3  0  0  0  0  0  0
  188.7700  176.9170  142.4510 C   0  0  1  0  0  3  0  0  0  0  0  0
  190.2770  176.7740  142.7160 C   0  0  0  0  0  2  0  0  0  0  0  0
  189.1870  177.5070  144.7080 C   0  0  0  0  0  0  0  0  0  0  0  0
  186.8630  177.6150  144.0390 C   0  0  0  0  0  0  0  0  0  0  0  0
  186.5240  178.0420  145.3520 C   0  0  0  0  0  0  0  0  0  0  0  0
  188.2120  177.3620  143.7530 C   0  0  0  0  0  0  0  0  0  0  0  0
  187.5440  178.1980  146.3140 C   0  0  0  0  0  3  0  0  0  0  0  0
  188.8800  177.9320  145.9970 C   0  0  0  0  0  3  0  0  0  0  0  0
  191.9680  176.7210  145.9440 N   0  0  0  0  0  1  0  0  0  0  0  0
  191.9860  175.3870  144.1730 O   0  0  0  0  0  1  0  0  0  0  0  0
  191.1630  176.1140  144.9700 N   0  0  0  0  0  0  0  0  0  0  0  0
  188.6990  177.6920  140.0460 C   0  0  0  0  0  0  0  0  0  0  0  0
  189.0250  176.5450  139.6370 O   0  0  0  0  0  0  0  0  0  0  0  0
  188.5440  177.9440  141.4440 N   0  0  0  0  0  2  0  0  0  0  0  0
  188.4120  178.7940  139.0690 C   0  0  1  0  0  3  0  0  0  0  0  0
  189.5410  179.1390  138.3130 O   0  0  0  0  0  1  0  0  0  0  0  0
  187.2890  178.5260  138.2560 O   0  0  0  0  0  0  0  0  0  0  0  0
  186.5580  177.8950  136.0760 C   0  0  0  0  0  1  0  0  0  0  0  0
  187.7170  178.3700  136.9260 C   0  0  0  0  0  2  0  0  0  0  0  0
  185.1370  178.3320  145.7410 C   0  0  0  0  0  3  0  0  0  0  0  0
  184.8560  178.8050  146.8740 O   0  0  0  0  0  0  0  0  0  0  0  0
  185.9240  177.4320  143.0110 O   0  0  0  0  0  0  0  0  0  0  0  0
  185.4330  178.4390  142.2800 O   0  0  0  0  0  0  0  0  0  0  0  0
  184.1630  178.0070  141.9000 C   0  0  0  0  0  1  0  0  0  0  0  0
  1  4  1  0  0  0  0
  1 12  1  1  0  0  0
  2 15  1  6  0  0  0
  2  3  1  0  0  0  0
  2  7  1  0  0  0  0
  3  1  1  0  0  0  0
  4  9  1  0  0  0  0
  5  6  2  0  0  0  0
  6 21  1  0  0  0  0
  6  8  1  0  0  0  0
  7  5  1  0  0  0  0
  7  4  2  0  0  0  0
  9  8  2  0  0  0  0
 11 12  1  0  0  0  0
 12 10  1  0  0  0  0
 13 15  1  0  0  0  0
 14 13  2  0  0  0  0
 16 17  1  6  0  0  0
 16 13  1  0  0  0  0
 18 16  1  0  0  0  0
 19 20  1  0  0  0  0
 20 18  1  0  0  0  0
 21 22  2  0  0  0  0
 23  5  1  0  0  0  0
 24 23  1  0  0  0  0
 25 24  1  0  0  0  0
M  END
>  <MODEL>
7

>  <REMARK>
 VINA RESULT:      -6.3      1.672      2.113
  Name = 
  8 active torsions:
  status: ('A' for Active; 'I' for Inactive)
    1  A    between atoms: C_1  and  C_7
    2  A    between atoms: C_1  and  O_8
    3  A    between atoms: C_2  and  N_12
    4  A    between atoms: C_4  and  N_24
    5  A    between atoms: O_8  and  C_19
    6  A    between atoms: O_11  and  O_17
    7  A    between atoms: C_13  and  O_17
    8  A    between atoms: C_15  and  C_18
                            x       y       z     vdW  Elec       q    Type
                         _______ _______ _______ _____ _____    ______ ____

>  <TORSDO>
F 8

$$$$
=
 OpenBabel10232409443D

 25 26  0  0  1  0  0  0  0  0999 V2000
  187.9810  177.7300  141.1960 C   0  0  1  0  0  3  0  0  0  0  0  0
  189.4240  177.8760  143.2170 C   0  0  1  0  0  3  0  0  0  0  0  0
  189.4460  177.7320  141.6870 C   0  0  0  0  0  2  0  0  0  0  0  0
  187.1870  177.9030  142.4370 C   0  0  0  0  0  0  0  0  0  0  0  0
  187.4330  178.1530  144.8310 C   0  0  0  0  0  0  0  0  0  0  0  0
  186.0180  178.2290  144.9510 C   0  0  0  0  0  0  0  0  0  0  0  0
  187.9810  177.9830  143.5520 C   0  0  0  0  0  0  0  0  0  0  0  0
  185.2200  178.1290  143.7920 C   0  0  0  0  0  3  0  0  0  0  0  0
  185.8000  177.9660  142.5290 C   0  0  0  0  0  3  0  0  0  0  0  0
  186.8430  178.2830  139.2560 N   0  0  0  0  0  1  0  0  0  0  0  0
  188.8480  179.1630  139.6090 O   0  0  0  0  0  1  0  0  0  0  0  0
  187.7000  178.8030  140.2360 N   0  0  0  0  0  0  0  0  0  0  0  0
  191.2120  176.6970  144.5580 C   0  0  0  0  0  0  0  0  0  0  0  0
  191.8510  177.7730  144.7070 O   0  0  0  0  0  0  0  0  0  0  0  0
  189.9830  176.6800  143.8310 N   0  0  0  0  0  2  0  0  0  0  0  0
  191.7030  175.4280  145.1920 C   0  0  1  0  0  3  0  0  0  0  0  0
  192.2050  174.5240  144.2460 O   0  0  0  0  0  1  0  0  0  0  0  0
  192.6160  175.6600  146.2440 O   0  0  0  0  0  0  0  0  0  0  0  0
  192.9080  175.7890  148.6060 C   0  0  0  0  0  1  0  0  0  0  0  0
  191.9460  175.5130  147.4700 C   0  0  0  0  0  2  0  0  0  0  0  0
  185.3560  178.4040  146.2510 C   0  0  0  0  0  3  0  0  0  0  0  0
  184.1590  178.7870  146.3340 O   0  0  0  0  0  0  0  0  0  0  0  0
  188.3140  178.2390  145.9210 O   0  0  0  0  0  0  0  0  0  0  0  0
  187.9640  177.9200  147.1740 O   0  0  0  0  0  0  0  0  0  0  0  0
  188.8960  176.9590  147.5620 C   0  0  0  0  0  1  0  0  0  0  0  0
  1 12  1  6  0  0  0
  1  3  1  0  0  0  0
  1  4  1  0  0  0  0
  2  7  1  0  0  0  0
  2 15  1  1  0  0  0
  3  2  1  0  0  0  0
  4  9  2  0  0  0  0
  4  7  1  0  0  0  0
  5  6  1  0  0  0  0
  5 23  1  0  0  0  0
  6 21  1  0  0  0  0
  7  5  2  0  0  0  0
  8  6  2  0  0  0  0
  9  8  1  0  0  0  0
 10 12  1  0  0  0  0
 11 12  1  0  0  0  0
 13 14  2  0  0  0  0
 13 16  1  0  0  0  0
 15 13  1  0  0  0  0
 16 17  1  6  0  0  0
 16 18  1  0  0  0  0
 18 20  1  0  0  0  0
 20 19  1  0  0  0  0
 21 22  2  0  0  0  0
 23 24  1  0  0  0  0
 24 25  1  0  0  0  0
M  END
>  <MODEL>
8

>  <REMARK>
 VINA RESULT:      -6.1      2.174      5.856
  Name = 
  8 active torsions:
  status: ('A' for Active; 'I' for Inactive)
    1  A    between atoms: C_1  and  C_7
    2  A    between atoms: C_1  and  O_8
    3  A    between atoms: C_2  and  N_12
    4  A    between atoms: C_4  and  N_24
    5  A    between atoms: O_8  and  C_19
    6  A    between atoms: O_11  and  O_17
    7  A    between atoms: C_13  and  O_17
    8  A    between atoms: C_15  and  C_18
                            x       y       z     vdW  Elec       q    Type
                         _______ _______ _______ _____ _____    ______ ____

>  <TORSDO>
F 8

$$$$
=
 OpenBabel10232409443D

 25 26  0  0  1  0  0  0  0  0999 V2000
  188.1630  177.5750  138.3440 C   0  0  1  0  0  3  0  0  0  0  0  0
  188.0440  178.4690  140.6620 C   0  0  1  0  0  3  0  0  0  0  0  0
  189.0040  177.9290  139.5900 C   0  0  0  0  0  2  0  0  0  0  0  0
  186.7800  177.9490  138.7270 C   0  0  0  0  0  0  0  0  0  0  0  0
  185.4980  178.8600  140.5670 C   0  0  0  0  0  0  0  0  0  0  0  0
  184.3210  178.7500  139.7780 C   0  0  0  0  0  0  0  0  0  0  0  0
  186.7130  178.4420  140.0060 C   0  0  0  0  0  0  0  0  0  0  0  0
  184.4100  178.2270  138.4710 C   0  0  0  0  0  3  0  0  0  0  0  0
  185.6400  177.8240  137.9390 C   0  0  0  0  0  3  0  0  0  0  0  0
  189.7370  177.6630  136.6470 N   0  0  0  0  0  1  0  0  0  0  0  0
  188.9530  179.5630  137.4790 O   0  0  0  0  0  1  0  0  0  0  0  0
  188.5910  178.3000  137.1410 N   0  0  0  0  0  0  0  0  0  0  0  0
  188.9900  177.6980  142.8750 C   0  0  0  0  0  0  0  0  0  0  0  0
  189.8610  178.6090  142.8540 O   0  0  0  0  0  0  0  0  0  0  0  0
  188.0430  177.5780  141.8130 N   0  0  0  0  0  2  0  0  0  0  0  0
  188.8990  176.7620  144.0460 C   0  0  1  0  0  3  0  0  0  0  0  0
  189.9830  176.9040  144.9220 O   0  0  0  0  0  1  0  0  0  0  0  0
  187.6590  176.8440  144.7160 O   0  0  0  0  0  0  0  0  0  0  0  0
  186.5090  177.9240  146.5030 C   0  0  0  0  0  1  0  0  0  0  0  0
  187.6440  178.0070  145.5050 C   0  0  0  0  0  2  0  0  0  0  0  0
  183.0040  179.1610  140.2850 C   0  0  0  0  0  3  0  0  0  0  0  0
  182.4070  178.5020  141.1770 O   0  0  0  0  0  0  0  0  0  0  0  0
  185.5150  179.3640  141.8780 O   0  0  0  0  0  0  0  0  0  0  0  0
  185.1810  178.6330  142.9480 O   0  0  0  0  0  0  0  0  0  0  0  0
  184.4970  179.5210  143.7770 C   0  0  0  0  0  1  0  0  0  0  0  0
  1 12  1  6  0  0  0
  1  4  1  0  0  0  0
  1  3  1  0  0  0  0
  2 15  1  1  0  0  0
  3  2  1  0  0  0  0
  4  7  1  0  0  0  0
  5 23  1  0  0  0  0
  6 21  1  0  0  0  0
  6  5  1  0  0  0  0
  7  5  2  0  0  0  0
  7  2  1  0  0  0  0
  8  6  2  0  0  0  0
  9  8  1  0  0  0  0
  9  4  2  0  0  0  0
 10 12  1  0  0  0  0
 12 11  1  0  0  0  0
 13 16  1  0  0  0  0
 14 13  2  0  0  0  0
 15 13  1  0  0  0  0
 16 18  1  0  0  0  0
 16 17  1  1  0  0  0
 18 20  1  0  0  0  0
 20 19  1  0  0  0  0
 21 22  2  0  0  0  0
 23 24  1  0  0  0  0
 24 25  1  0  0  0  0
M  END
>  <MODEL>
9

>  <REMARK>
 VINA RESULT:      -6.1      2.983      6.963
  Name = 
  8 active torsions:
  status: ('A' for Active; 'I' for Inactive)
    1  A    between atoms: C_1  and  C_7
    2  A    between atoms: C_1  and  O_8
    3  A    between atoms: C_2  and  N_12
    4  A    between atoms: C_4  and  N_24
    5  A    between atoms: O_8  and  C_19
    6  A    between atoms: O_11  and  O_17
    7  A    between atoms: C_13  and  O_17
    8  A    between atoms: C_15  and  C_18
                            x       y       z     vdW  Elec       q    Type
                         _______ _______ _______ _____ _____    ______ ____

>  <TORSDO>
F 8

$$$$
