=
 OpenBabel10232407583D

 44 46  0  0  1  0  0  0  0  0999 V2000
  188.5200  178.2370  139.3750 C   0  0  2  0  0  3  0  0  0  0  0  0
  188.8400  178.7920  140.7360 C   0  0  0  0  0  3  0  0  0  0  0  0
  188.9310  178.0640  141.8200 C   0  0  0  0  0  0  0  0  0  0  0  0
  189.0250  177.3390  142.8990 C   0  0  0  0  0  0  0  0  0  0  0  0
  188.7130  175.8820  142.8360 C   0  0  0  0  0  1  0  0  0  0  0  0
  189.4530  177.9830  144.1820 C   0  0  2  0  0  3  0  0  0  0  0  0
  191.8150  177.7210  143.9920 O   0  0  0  0  0  0  0  0  0  0  0  0
  191.0870  179.8870  144.1620 O   0  0  0  0  0  1  0  0  0  0  0  0
  190.8470  178.5190  144.0820 C   0  0  0  0  0  0  0  0  0  0  0  0
  189.3420  177.0390  145.2840 N   0  0  0  0  0  2  0  0  0  0  0  0
  189.6740  177.7660  146.5000 C   0  0  0  0  0  2  0  0  0  0  0  0
  190.2900  176.8250  147.5210 C   0  0  0  0  0  2  0  0  0  0  0  0
  192.1950  175.8270  147.0240 C   0  0  0  0  0  1  0  0  0  0  0  0
  191.6750  177.0030  147.5660 O   0  0  0  0  0  0  0  0  0  0  0  0
  187.1530  177.5580  139.2950 C   0  0  0  0  0  2  0  0  0  0  0  0
  186.2040  178.4150  138.4780 C   0  0  1  0  0  3  0  0  0  0  0  0
  186.4790  178.2090  137.0500 C   0  0  0  0  0  0  0  0  0  0  0  0
  186.7070  178.0340  135.8790 C   0  0  0  0  0  3  0  0  0  0  0  0
  184.7690  178.0340  138.8060 C   0  0  0  0  0  2  0  0  0  0  0  0
  183.3910  180.1010  138.7340 C   0  0  0  0  0  2  0  0  0  0  0  0
  184.0990  179.1230  139.6350 C   0  0  1  0  0  3  0  0  0  0  0  0
  182.9750  178.5130  140.4340 C   0  0  2  0  0  3  0  0  0  0  0  0
  181.7630  179.2510  140.1080 N   0  0  0  0  0  2  0  0  0  0  0  0
  181.9680  179.8170  138.8370 N   0  0  0  0  0  2  0  0  0  0  0  0
  183.7090  178.7690  144.6370 C   0  0  0  0  0  0  0  0  0  0  0  0
  184.7330  178.4480  143.7950 C   0  0  0  0  0  0  0  0  0  0  0  0
  184.1210  178.8180  145.9840 N   0  0  0  0  0  0  0  0  0  0  0  0
  184.5370  178.3430  142.4180 C   0  0  0  0  0  3  0  0  0  0  0  0
  182.4150  178.9970  144.1670 C   0  0  0  0  0  3  0  0  0  0  0  0
  185.5520  178.5100  146.0170 C   0  0  0  0  0  2  0  0  0  0  0  0
  182.1880  178.8970  142.7840 C   0  0  0  0  0  3  0  0  0  0  0  0
  185.9840  178.2390  144.5590 C   0  0  0  0  0  3  0  0  0  0  0  0
  183.2430  178.5730  141.9060 C   0  0  0  0  0  0  0  0  0  0  0  0
  189.6200  177.2800  138.9520 C   0  0  0  0  0  2  0  0  0  0  0  0
  189.0650  176.2220  138.0120 C   0  0  0  0  0  2  0  0  0  0  0  0
  190.0010  175.9980  136.8720 C   0  0  0  0  0  0  0  0  0  0  0  0
  190.1660  176.8680  136.0320 O   0  0  0  0  0  0  0  0  0  0  0  0
  190.7050  174.6870  136.7410 C   0  0  0  0  0  2  0  0  0  0  0  0
  191.5870  174.4830  137.8770 N   0  0  0  0  0  2  0  0  0  0  0  0
  192.9270  174.3030  137.3430 C   0  0  0  0  0  2  0  0  0  0  0  0
  193.6140  175.6290  137.2290 C   0  0  0  0  0  0  0  0  0  0  0  0
  193.6730  176.3940  138.2560 N   0  0  0  0  0  2  0  0  0  0  0  0
  194.8810  177.3060  136.0840 O   0  0  0  0  0  1  0  0  0  0  0  0
  194.1540  176.1240  135.9210 C   0  0  0  0  0  2  0  0  0  0  0  0
  1 34  1  1  0  0  0
  1  2  1  0  0  0  0
  2  3  2  0  0  0  0
  3  4  2  0  0  0  0
  5  4  1  0  0  0  0
  6  4  1  6  0  0  0
  6 10  1  0  0  0  0
  7  9  2  0  0  0  0
  9  8  1  0  0  0  0
  9  6  1  0  0  0  0
 10 11  1  0  0  0  0
 11 12  1  0  0  0  0
 12 14  1  0  0  0  0
 13 14  1  0  0  0  0
 15  1  1  0  0  0  0
 16 17  1  6  0  0  0
 16 19  1  0  0  0  0
 16 15  1  0  0  0  0
 18 17  3  0  0  0  0
 20 24  1  0  0  0  0
 20 21  1  0  0  0  0
 21 19  1  6  0  0  0
 21 22  1  0  0  0  0
 22 33  1  1  0  0  0
 23 22  1  0  0  0  0
 24 23  1  0  0  0  0
 25 27  2  0  0  0  0
 26 32  2  0  0  0  0
 26 25  1  0  0  0  0
 27 30  1  0  0  0  0
 28 26  1  0  0  0  0
 29 25  1  0  0  0  0
 31 29  2  0  0  0  0
 32 30  1  0  0  0  0
 33 28  2  0  0  0  0
 33 31  1  0  0  0  0
 35 34  1  0  0  0  0
 36 35  1  0  0  0  0
 37 36  2  0  0  0  0
 38 36  1  0  0  0  0
 38 39  1  0  0  0  0
 40 39  1  0  0  0  0
 41 40  1  0  0  0  0
 41 42  2  0  0  0  0
 44 43  1  0  0  0  0
 44 41  1  0  0  0  0
M  END
>  <MODEL>
1

>  <REMARK>
 VINA RESULT:      -7.1      0.000      0.000
  Name = 
  21 active torsions:
  status: ('A' for Active; 'I' for Inactive)
    1  A    between atoms: C_2  and  C_11
    2  A    between atoms: C_2  and  C_21
    3  A    between atoms: C_3  and  C_7
    4  A    between atoms: C_3  and  O_41
    5  A    between atoms: C_4  and  C_10
    6  A    between atoms: C_7  and  N_35
    7  A    between atoms: C_10  and  C_13
    8  A    between atoms: C_10  and  C_31
    9  A    between atoms: C_11  and  C_13
   10  A    between atoms: N_14  and  C_19
   11  A    between atoms: N_14  and  C_21
   12  A    between atoms: C_17  and  C_32
   13  A    between atoms: C_19  and  C_25
   14  A    between atoms: C_20  and  C_22
   15  A    between atoms: C_20  and  C_24
   16  A    between atoms: C_24  and  C_31
   17  A    between atoms: C_24  and  C_34
   18  A    between atoms: C_25  and  C_30
   19  A    between atoms: C_28  and  C_44
   20  A    between atoms: C_29  and  C_32
   21  A    between atoms: C_32  and  N_35
                            x       y       z     vdW  Elec       q    Type
                         _______ _______ _______ _____ _____    ______ ____

>  <TORSDO>
F 21

$$$$
=
 OpenBabel10232407583D

 44 46  0  0  1  0  0  0  0  0999 V2000
  186.2660  177.6750  144.1760 C   0  0  2  0  0  3  0  0  0  0  0  0
  187.4430  176.9080  143.6380 C   0  0  0  0  0  3  0  0  0  0  0  0
  188.0960  177.2380  142.5530 C   0  0  0  0  0  0  0  0  0  0  0  0
  188.7510  177.5690  141.4760 C   0  0  0  0  0  0  0  0  0  0  0  0
  188.2760  178.7160  140.6490 C   0  0  0  0  0  1  0  0  0  0  0  0
  189.9720  176.7930  141.0900 C   0  0  2  0  0  3  0  0  0  0  0  0
  190.6280  175.3150  142.8420 O   0  0  0  0  0  0  0  0  0  0  0  0
  191.6720  177.3550  142.8490 O   0  0  0  0  0  1  0  0  0  0  0  0
  190.7890  176.4340  142.2920 C   0  0  0  0  0  0  0  0  0  0  0  0
  190.7690  177.5440  140.1320 N   0  0  0  0  0  2  0  0  0  0  0  0
  191.5090  176.5720  139.3410 C   0  0  0  0  0  2  0  0  0  0  0  0
  192.9830  176.9370  139.3090 C   0  0  0  0  0  2  0  0  0  0  0  0
  192.5830  176.2640  137.2450 C   0  0  0  0  0  1  0  0  0  0  0  0
  193.5980  176.3560  138.1970 O   0  0  0  0  0  0  0  0  0  0  0  0
  185.7350  178.7400  143.2160 C   0  0  0  0  0  2  0  0  0  0  0  0
  184.4200  178.2770  142.6170 C   0  0  1  0  0  3  0  0  0  0  0  0
  183.3320  178.5740  143.5590 C   0  0  0  0  0  0  0  0  0  0  0  0
  182.4370  178.8210  144.3270 C   0  0  0  0  0  3  0  0  0  0  0  0
  184.1890  178.9880  141.2940 C   0  0  0  0  0  2  0  0  0  0  0  0
  182.1520  177.9600  140.3080 C   0  0  0  0  0  2  0  0  0  0  0  0
  183.6570  178.0180  140.2470 C   0  0  1  0  0  3  0  0  0  0  0  0
  183.9260  178.5780  138.8720 C   0  0  2  0  0  3  0  0  0  0  0  0
  182.6490  178.6440  138.1750 N   0  0  0  0  0  2  0  0  0  0  0  0
  181.6540  178.7120  139.1670 N   0  0  0  0  0  2  0  0  0  0  0  0
  186.6710  176.0900  136.7400 C   0  0  2  0  0  3  0  0  0  0  0  0
  187.1180  177.2440  137.3160 C   0  0  0  0  0  0  0  0  0  0  0  0
  187.7020  175.3860  136.0850 N   0  0  0  0  0  0  0  0  0  0  0  0
  186.2550  178.0910  138.0120 C   0  0  0  0  0  3  0  0  0  0  0  0
  185.3310  175.7060  136.8090 C   0  0  0  0  0  3  0  0  0  0  0  0
  188.9370  176.1520  136.2620 C   0  0  0  0  0  3  0  0  0  0  0  0
  184.4400  176.5400  137.5040 C   0  0  0  0  0  3  0  0  0  0  0  0
  188.5670  177.4150  137.0710 C   0  0  0  0  0  3  0  0  0  0  0  0
  184.8950  177.7310  138.1080 C   0  0  0  0  0  0  0  0  0  0  0  0
  186.6390  178.2960  145.5110 C   0  0  0  0  0  2  0  0  0  0  0  0
  187.2040  177.2380  146.4450 C   0  0  0  0  0  2  0  0  0  0  0  0
  188.0040  177.8780  147.5290 C   0  0  0  0  0  0  0  0  0  0  0  0
  187.4580  178.5820  148.3630 O   0  0  0  0  0  0  0  0  0  0  0  0
  189.4850  177.6870  147.5640 C   0  0  0  0  0  2  0  0  0  0  0  0
  189.8880  176.7520  146.5270 N   0  0  0  0  0  2  0  0  0  0  0  0
  191.2890  177.0170  146.2420 C   0  0  0  0  0  2  0  0  0  0  0  0
  192.1230  175.8400  146.6410 C   0  0  0  0  0  0  0  0  0  0  0  0
  192.2980  174.8840  145.8040 N   0  0  0  0  0  2  0  0  0  0  0  0
  192.6880  176.9310  148.6950 O   0  0  0  0  0  1  0  0  0  0  0  0
  192.6830  175.7060  148.0250 C   0  0  0  0  0  2  0  0  0  0  0  0
  1 15  1  6  0  0  0
  1 34  1  0  0  0  0
  2  1  1  0  0  0  0
  3  2  2  0  0  0  0
  4  3  2  0  0  0  0
  5  4  1  0  0  0  0
  6 10  1  6  0  0  0
  6  4  1  0  0  0  0
  6  9  1  0  0  0  0
  9  7  2  0  0  0  0
  9  8  1  0  0  0  0
 11 10  1  0  0  0  0
 12 11  1  0  0  0  0
 13 14  1  0  0  0  0
 14 12  1  0  0  0  0
 16 19  1  6  0  0  0
 16 15  1  0  0  0  0
 16 17  1  0  0  0  0
 17 18  3  0  0  0  0
 21 20  1  0  0  0  0
 21 19  1  1  0  0  0
 22 33  1  6  0  0  0
 22 21  1  0  0  0  0
 23 22  1  0  0  0  0
 23 24  1  0  0  0  0
 24 20  1  0  0  0  0
 25 29  1  6  0  0  0
 25 26  1  0  0  0  0
 26 28  1  0  0  0  0
 27 30  2  0  0  0  0
 27 25  1  0  0  0  0
 28 33  2  0  0  0  0
 29 31  2  0  0  0  0
 30 32  1  0  0  0  0
 31 33  1  0  0  0  0
 32 26  2  0  0  0  0
 34 35  1  0  0  0  0
 35 36  1  0  0  0  0
 36 38  1  0  0  0  0
 36 37  2  0  0  0  0
 39 38  1  0  0  0  0
 40 39  1  0  0  0  0
 40 41  1  0  0  0  0
 41 44  1  0  0  0  0
 42 41  2  0  0  0  0
 44 43  1  0  0  0  0
M  END
>  <MODEL>
2

>  <REMARK>
 VINA RESULT:      -7.1      1.973      7.395
  Name = 
  21 active torsions:
  status: ('A' for Active; 'I' for Inactive)
    1  A    between atoms: C_2  and  C_11
    2  A    between atoms: C_2  and  C_21
    3  A    between atoms: C_3  and  C_7
    4  A    between atoms: C_3  and  O_41
    5  A    between atoms: C_4  and  C_10
    6  A    between atoms: C_7  and  N_35
    7  A    between atoms: C_10  and  C_13
    8  A    between atoms: C_10  and  C_31
    9  A    between atoms: C_11  and  C_13
   10  A    between atoms: N_14  and  C_19
   11  A    between atoms: N_14  and  C_21
   12  A    between atoms: C_17  and  C_32
   13  A    between atoms: C_19  and  C_25
   14  A    between atoms: C_20  and  C_22
   15  A    between atoms: C_20  and  C_24
   16  A    between atoms: C_24  and  C_31
   17  A    between atoms: C_24  and  C_34
   18  A    between atoms: C_25  and  C_30
   19  A    between atoms: C_28  and  C_44
   20  A    between atoms: C_29  and  C_32
   21  A    between atoms: C_32  and  N_35
                            x       y       z     vdW  Elec       q    Type
                         _______ _______ _______ _____ _____    ______ ____

>  <TORSDO>
F 21

$$$$
=
 OpenBabel10232407583D

 44 46  0  0  1  0  0  0  0  0999 V2000
  187.6650  177.8900  141.6770 C   0  0  2  0  0  3  0  0  0  0  0  0
  188.0500  177.3160  143.0130 C   0  0  0  0  0  3  0  0  0  0  0  0
  189.0700  177.7310  143.7190 C   0  0  0  0  0  0  0  0  0  0  0  0
  190.0830  178.1460  144.4260 C   0  0  0  0  0  0  0  0  0  0  0  0
  190.9940  179.1870  143.8670 C   0  0  0  0  0  1  0  0  0  0  0  0
  190.3120  177.5730  145.7910 C   0  0  2  0  0  3  0  0  0  0  0  0
  191.7630  175.9780  144.7730 O   0  0  0  0  0  0  0  0  0  0  0  0
  192.2410  176.4720  146.9590 O   0  0  0  0  0  1  0  0  0  0  0  0
  191.4900  176.6490  145.8010 C   0  0  0  0  0  0  0  0  0  0  0  0
  189.1170  176.8880  146.2610 N   0  0  0  0  0  2  0  0  0  0  0  0
  188.9130  177.2910  147.6440 C   0  0  0  0  0  2  0  0  0  0  0  0
  187.5980  178.0370  147.7830 C   0  0  0  0  0  2  0  0  0  0  0  0
  185.7210  178.6700  146.8090 C   0  0  0  0  0  1  0  0  0  0  0  0
  186.7640  177.7500  146.7000 O   0  0  0  0  0  0  0  0  0  0  0  0
  188.7200  178.8210  141.0800 C   0  0  0  0  0  2  0  0  0  0  0  0
  189.4060  178.1330  139.9150 C   0  0  1  0  0  3  0  0  0  0  0  0
  190.7370  177.6810  140.3400 C   0  0  0  0  0  0  0  0  0  0  0  0
  191.8280  177.3040  140.6900 C   0  0  0  0  0  3  0  0  0  0  0  0
  188.5640  176.9540  139.4550 C   0  0  0  0  0  2  0  0  0  0  0  0
  188.8290  178.1550  137.2960 C   0  0  0  0  0  2  0  0  0  0  0  0
  187.9430  177.2340  138.0930 C   0  0  1  0  0  3  0  0  0  0  0  0
  187.9440  175.9630  137.2790 C   0  0  2  0  0  3  0  0  0  0  0  0
  188.6410  176.2500  136.0330 N   0  0  0  0  0  2  0  0  0  0  0  0
  189.4920  177.3390  136.2910 N   0  0  0  0  0  2  0  0  0  0  0  0
  183.9460  174.6470  136.5410 C   0  0  0  0  0  0  0  0  0  0  0  0
  184.8720  173.7560  136.9970 C   0  0  0  0  0  0  0  0  0  0  0  0
  182.6800  174.0540  136.3580 N   0  0  0  0  0  0  0  0  0  0  0  0
  186.1910  174.1390  137.2420 C   0  0  0  0  0  3  0  0  0  0  0  0
  184.2710  175.9790  136.2860 C   0  0  0  0  0  3  0  0  0  0  0  0
  182.7950  172.6460  136.7420 C   0  0  0  0  0  2  0  0  0  0  0  0
  185.5930  176.3940  136.5230 C   0  0  0  0  0  3  0  0  0  0  0  0
  184.2650  172.4150  137.1580 C   0  0  0  0  0  3  0  0  0  0  0  0
  186.5550  175.4800  137.0020 C   0  0  0  0  0  0  0  0  0  0  0  0
  186.3300  178.6040  141.8030 C   0  0  0  0  0  2  0  0  0  0  0  0
  185.5630  178.0800  143.0060 C   0  0  0  0  0  2  0  0  0  0  0  0
  184.4180  178.9800  143.3240 C   0  0  0  0  0  0  0  0  0  0  0  0
  184.6200  180.0930  143.7850 O   0  0  0  0  0  0  0  0  0  0  0  0
  183.0190  178.4990  143.1160 C   0  0  0  0  0  2  0  0  0  0  0  0
  182.3750  179.2840  142.0780 N   0  0  0  0  0  2  0  0  0  0  0  0
  181.9350  178.3510  141.0540 C   0  0  0  0  0  2  0  0  0  0  0  0
  182.8600  178.4110  139.8780 C   0  0  0  0  0  0  0  0  0  0  0  0
  183.5490  177.3750  139.5690 N   0  0  0  0  0  2  0  0  0  0  0  0
  184.3950  180.1150  139.1920 O   0  0  0  0  0  1  0  0  0  0  0  0
  183.0700  179.6810  139.1070 C   0  0  0  0  0  2  0  0  0  0  0  0
  1 15  1  1  0  0  0
  1 34  1  0  0  0  0
  1  2  1  0  0  0  0
  2  3  2  0  0  0  0
  3  4  2  0  0  0  0
  5  4  1  0  0  0  0
  6  4  1  6  0  0  0
  6  9  1  0  0  0  0
  6 10  1  0  0  0  0
  7  9  2  0  0  0  0
  9  8  1  0  0  0  0
 10 11  1  0  0  0  0
 11 12  1  0  0  0  0
 14 13  1  0  0  0  0
 14 12  1  0  0  0  0
 16 19  1  1  0  0  0
 16 17  1  0  0  0  0
 16 15  1  0  0  0  0
 17 18  3  0  0  0  0
 20 21  1  0  0  0  0
 21 19  1  1  0  0  0
 22 33  1  6  0  0  0
 22 21  1  0  0  0  0
 23 24  1  0  0  0  0
 23 22  1  0  0  0  0
 24 20  1  0  0  0  0
 25 26  1  0  0  0  0
 26 32  2  0  0  0  0
 26 28  1  0  0  0  0
 27 25  2  0  0  0  0
 27 30  1  0  0  0  0
 29 31  2  0  0  0  0
 29 25  1  0  0  0  0
 30 32  1  0  0  0  0
 31 33  1  0  0  0  0
 33 28  2  0  0  0  0
 34 35  1  0  0  0  0
 35 36  1  0  0  0  0
 36 37  2  0  0  0  0
 38 36  1  0  0  0  0
 39 38  1  0  0  0  0
 40 39  1  0  0  0  0
 41 40  1  0  0  0  0
 42 41  2  0  0  0  0
 44 43  1  0  0  0  0
 44 41  1  0  0  0  0
M  END
>  <MODEL>
3

>  <REMARK>
 VINA RESULT:      -6.7      3.022      7.341
  Name = 
  21 active torsions:
  status: ('A' for Active; 'I' for Inactive)
    1  A    between atoms: C_2  and  C_11
    2  A    between atoms: C_2  and  C_21
    3  A    between atoms: C_3  and  C_7
    4  A    between atoms: C_3  and  O_41
    5  A    between atoms: C_4  and  C_10
    6  A    between atoms: C_7  and  N_35
    7  A    between atoms: C_10  and  C_13
    8  A    between atoms: C_10  and  C_31
    9  A    between atoms: C_11  and  C_13
   10  A    between atoms: N_14  and  C_19
   11  A    between atoms: N_14  and  C_21
   12  A    between atoms: C_17  and  C_32
   13  A    between atoms: C_19  and  C_25
   14  A    between atoms: C_20  and  C_22
   15  A    between atoms: C_20  and  C_24
   16  A    between atoms: C_24  and  C_31
   17  A    between atoms: C_24  and  C_34
   18  A    between atoms: C_25  and  C_30
   19  A    between atoms: C_28  and  C_44
   20  A    between atoms: C_29  and  C_32
   21  A    between atoms: C_32  and  N_35
                            x       y       z     vdW  Elec       q    Type
                         _______ _______ _______ _____ _____    ______ ____

>  <TORSDO>
F 21

$$$$
=
 OpenBabel10232407583D

 44 46  0  0  1  0  0  0  0  0999 V2000
  189.4630  177.8820  141.7520 C   0  0  2  0  0  3  0  0  0  0  0  0
  189.7270  177.4640  140.3310 C   0  0  0  0  0  3  0  0  0  0  0  0
  190.9220  177.2600  139.8390 C   0  0  0  0  0  0  0  0  0  0  0  0
  192.1120  177.0520  139.3490 C   0  0  0  0  0  0  0  0  0  0  0  0
  193.3130  177.3260  140.1900 C   0  0  0  0  0  1  0  0  0  0  0  0
  192.2510  176.5370  137.9490 C   0  0  2  0  0  3  0  0  0  0  0  0
  191.6970  174.2180  137.9510 O   0  0  0  0  0  1  0  0  0  0  0  0
  190.0740  175.6060  137.1180 O   0  0  0  0  0  0  0  0  0  0  0  0
  191.3210  175.3920  137.6980 C   0  0  0  0  0  0  0  0  0  0  0  0
  193.6290  176.1480  137.6870 N   0  0  0  0  0  2  0  0  0  0  0  0
  193.8590  176.3390  136.2630 C   0  0  0  0  0  2  0  0  0  0  0  0
  194.9460  175.3950  135.7770 C   0  0  0  0  0  2  0  0  0  0  0  0
  196.7850  174.5910  136.6950 C   0  0  0  0  0  1  0  0  0  0  0  0
  196.1860  175.7840  136.2890 O   0  0  0  0  0  0  0  0  0  0  0  0
  190.2530  177.0800  142.7850 C   0  0  0  0  0  2  0  0  0  0  0  0
  191.4940  177.8520  143.1910 C   0  0  1  0  0  3  0  0  0  0  0  0
  191.0910  179.1460  143.7580 C   0  0  0  0  0  0  0  0  0  0  0  0
  190.7590  180.2100  144.2180 C   0  0  0  0  0  3  0  0  0  0  0  0
  192.2820  177.0450  144.2100 C   0  0  0  0  0  2  0  0  0  0  0  0
  191.9690  174.8510  145.3350 C   0  0  0  0  0  2  0  0  0  0  0  0
  191.3490  176.1970  145.0640 C   0  0  1  0  0  3  0  0  0  0  0  0
  191.2430  176.8120  146.4380 C   0  0  2  0  0  3  0  0  0  0  0  0
  191.6150  175.7840  147.4000 N   0  0  0  0  0  2  0  0  0  0  0  0
  192.4330  174.8690  146.7130 N   0  0  0  0  0  2  0  0  0  0  0  0
  187.2910  178.1890  147.3060 C   0  0  0  0  0  0  0  0  0  0  0  0
  187.5630  177.6620  146.0780 C   0  0  0  0  0  0  0  0  0  0  0  0
  185.9440  178.5860  147.4300 N   0  0  0  0  0  0  0  0  0  0  0  0
  188.8410  177.2100  145.7470 C   0  0  0  0  0  2  0  0  0  0  0  0
  188.2750  178.3110  148.2880 C   0  0  0  0  0  3  0  0  0  0  0  0
  185.2780  178.2780  146.1630 C   0  0  0  0  0  3  0  0  0  0  0  0
  189.5710  177.8640  147.9830 C   0  0  0  0  0  3  0  0  0  0  0  0
  186.3500  177.6730  145.2300 C   0  0  0  0  0  3  0  0  0  0  0  0
  189.8600  177.3120  146.7170 C   0  0  0  0  0  0  0  0  0  0  0  0
  187.9730  177.7960  142.0320 C   0  0  0  0  0  2  0  0  0  0  0  0
  187.1860  178.4290  140.8970 C   0  0  0  0  0  2  0  0  0  0  0  0
  185.8880  178.9640  141.4010 C   0  0  0  0  0  0  0  0  0  0  0  0
  185.8350  179.5350  142.4790 O   0  0  0  0  0  0  0  0  0  0  0  0
  184.6440  178.7600  140.6000 C   0  0  0  0  0  2  0  0  0  0  0  0
  184.7570  179.4500  139.3260 N   0  0  0  0  0  2  0  0  0  0  0  0
  184.3960  178.4930  138.2940 C   0  0  0  0  0  2  0  0  0  0  0  0
  185.6290  177.9980  137.6030 C   0  0  0  0  0  0  0  0  0  0  0  0
  186.6390  178.7780  137.4890 N   0  0  0  0  0  2  0  0  0  0  0  0
  186.7510  175.8890  137.4420 O   0  0  0  0  0  1  0  0  0  0  0  0
  185.6790  176.6440  136.9590 C   0  0  0  0  0  2  0  0  0  0  0  0
  1  2  1  6  0  0  0
  1 34  1  0  0  0  0
  1 15  1  0  0  0  0
  3  2  2  0  0  0  0
  4  3  2  0  0  0  0
  4  5  1  0  0  0  0
  6 10  1  1  0  0  0
  6  4  1  0  0  0  0
  8  9  2  0  0  0  0
  9  6  1  0  0  0  0
  9  7  1  0  0  0  0
 11 10  1  0  0  0  0
 12 11  1  0  0  0  0
 12 14  1  0  0  0  0
 14 13  1  0  0  0  0
 16 15  1  1  0  0  0
 16 17  1  0  0  0  0
 16 19  1  0  0  0  0
 17 18  3  0  0  0  0
 20 24  1  0  0  0  0
 21 19  1  6  0  0  0
 21 20  1  0  0  0  0
 21 22  1  0  0  0  0
 22 33  1  1  0  0  0
 22 23  1  0  0  0  0
 24 23  1  0  0  0  0
 25 27  1  0  0  0  0
 25 29  2  0  0  0  0
 26 25  1  0  0  0  0
 28 26  1  0  0  0  0
 28 33  1  0  0  0  0
 30 27  2  0  0  0  0
 31 29  1  0  0  0  0
 32 26  2  0  0  0  0
 32 30  1  0  0  0  0
 33 31  2  0  0  0  0
 35 36  1  0  0  0  0
 35 34  1  0  0  0  0
 36 37  2  0  0  0  0
 38 36  1  0  0  0  0
 39 38  1  0  0  0  0
 40 39  1  0  0  0  0
 41 40  1  0  0  0  0
 42 41  2  0  0  0  0
 44 43  1  0  0  0  0
 44 41  1  0  0  0  0
M  END
>  <MODEL>
4

>  <REMARK>
 VINA RESULT:      -6.6      2.539      8.070
  Name = 
  21 active torsions:
  status: ('A' for Active; 'I' for Inactive)
    1  A    between atoms: C_2  and  C_11
    2  A    between atoms: C_2  and  C_21
    3  A    between atoms: C_3  and  C_7
    4  A    between atoms: C_3  and  O_41
    5  A    between atoms: C_4  and  C_10
    6  A    between atoms: C_7  and  N_35
    7  A    between atoms: C_10  and  C_13
    8  A    between atoms: C_10  and  C_31
    9  A    between atoms: C_11  and  C_13
   10  A    between atoms: N_14  and  C_19
   11  A    between atoms: N_14  and  C_21
   12  A    between atoms: C_17  and  C_32
   13  A    between atoms: C_19  and  C_25
   14  A    between atoms: C_20  and  C_22
   15  A    between atoms: C_20  and  C_24
   16  A    between atoms: C_24  and  C_31
   17  A    between atoms: C_24  and  C_34
   18  A    between atoms: C_25  and  C_30
   19  A    between atoms: C_28  and  C_44
   20  A    between atoms: C_29  and  C_32
   21  A    between atoms: C_32  and  N_35
                            x       y       z     vdW  Elec       q    Type
                         _______ _______ _______ _____ _____    ______ ____

>  <TORSDO>
F 21

$$$$
=
 OpenBabel10232407583D

 44 46  0  0  1  0  0  0  0  0999 V2000
  189.4240  177.7900  141.7850 C   0  0  2  0  0  3  0  0  0  0  0  0
  189.6680  177.0910  140.4760 C   0  0  0  0  0  3  0  0  0  0  0  0
  190.8480  176.9620  139.9250 C   0  0  0  0  0  0  0  0  0  0  0  0
  192.0230  176.8290  139.3770 C   0  0  0  0  0  0  0  0  0  0  0  0
  193.2080  177.4780  140.0100 C   0  0  0  0  0  1  0  0  0  0  0  0
  192.1630  176.0230  138.1220 C   0  0  2  0  0  3  0  0  0  0  0  0
  194.3780  175.1450  138.1890 O   0  0  0  0  0  1  0  0  0  0  0  0
  194.0620  176.8780  136.7220 O   0  0  0  0  0  0  0  0  0  0  0  0
  193.5870  175.9720  137.6660 C   0  0  0  0  0  0  0  0  0  0  0  0
  191.3060  176.5600  137.0760 N   0  0  0  0  0  2  0  0  0  0  0  0
  190.7470  175.4230  136.3600 C   0  0  0  0  0  2  0  0  0  0  0  0
  190.4610  175.8020  134.9170 C   0  0  0  0  0  2  0  0  0  0  0  0
  189.0120  177.4050  134.4700 C   0  0  0  0  0  1  0  0  0  0  0  0
  189.0960  176.0400  134.7430 O   0  0  0  0  0  0  0  0  0  0  0  0
  190.1290  177.1350  142.9730 C   0  0  0  0  0  2  0  0  0  0  0  0
  191.4100  177.8860  143.2830 C   0  0  1  0  0  3  0  0  0  0  0  0
  191.0730  179.2230  143.7880 C   0  0  0  0  0  0  0  0  0  0  0  0
  190.8010  180.3210  144.2070 C   0  0  0  0  0  3  0  0  0  0  0  0
  192.2130  177.1120  144.3170 C   0  0  0  0  0  2  0  0  0  0  0  0
  191.9510  174.9600  145.5320 C   0  0  0  0  0  2  0  0  0  0  0  0
  191.2940  176.2730  145.1950 C   0  0  1  0  0  3  0  0  0  0  0  0
  191.1480  176.9430  146.5390 C   0  0  2  0  0  3  0  0  0  0  0  0
  191.5380  175.9700  147.5500 N   0  0  0  0  0  2  0  0  0  0  0  0
  192.3940  175.0530  146.9150 N   0  0  0  0  0  2  0  0  0  0  0  0
  187.1400  178.2240  147.2880 C   0  0  0  0  0  0  0  0  0  0  0  0
  187.4780  177.7680  146.0480 C   0  0  0  0  0  0  0  0  0  0  0  0
  185.7830  178.5980  147.3680 N   0  0  0  0  0  0  0  0  0  0  0  0
  188.7770  177.3500  145.7550 C   0  0  0  0  0  2  0  0  0  0  0  0
  188.0740  178.3040  148.3210 C   0  0  0  0  0  3  0  0  0  0  0  0
  185.1830  178.3510  146.0560 C   0  0  0  0  0  3  0  0  0  0  0  0
  189.3900  177.8900  148.0560 C   0  0  0  0  0  3  0  0  0  0  0  0
  186.3070  177.8100  145.1440 C   0  0  0  0  0  3  0  0  0  0  0  0
  189.7470  177.4110  146.7780 C   0  0  0  0  0  0  0  0  0  0  0  0
  187.9290  177.8810  142.0340 C   0  0  0  0  0  2  0  0  0  0  0  0
  187.2250  178.4510  140.8140 C   0  0  0  0  0  2  0  0  0  0  0  0
  185.9050  179.0290  141.1990 C   0  0  0  0  0  0  0  0  0  0  0  0
  185.8070  179.7310  142.1930 O   0  0  0  0  0  0  0  0  0  0  0  0
  184.6930  178.7090  140.3860 C   0  0  0  0  0  2  0  0  0  0  0  0
  184.8430  179.2440  139.0430 N   0  0  0  0  0  2  0  0  0  0  0  0
  184.5930  178.1470  138.1220 C   0  0  0  0  0  2  0  0  0  0  0  0
  185.8330  177.8450  137.3390 C   0  0  0  0  0  0  0  0  0  0  0  0
  186.8110  178.6740  137.3700 N   0  0  0  0  0  2  0  0  0  0  0  0
  186.2420  175.4930  137.1710 O   0  0  0  0  0  1  0  0  0  0  0  0
  185.9260  176.6440  136.4460 C   0  0  0  0  0  2  0  0  0  0  0  0
  1  2  1  6  0  0  0
  1 34  1  0  0  0  0
  1 15  1  0  0  0  0
  3  2  2  0  0  0  0
  4  3  2  0  0  0  0
  4  5  1  0  0  0  0
  6 10  1  6  0  0  0
  6  4  1  0  0  0  0
  8  9  2  0  0  0  0
  9  6  1  0  0  0  0
  9  7  1  0  0  0  0
 11 10  1  0  0  0  0
 12 11  1  0  0  0  0
 13 14  1  0  0  0  0
 14 12  1  0  0  0  0
 16 15  1  1  0  0  0
 16 17  1  0  0  0  0
 16 19  1  0  0  0  0
 17 18  3  0  0  0  0
 20 24  1  0  0  0  0
 21 19  1  6  0  0  0
 21 20  1  0  0  0  0
 21 22  1  0  0  0  0
 22 33  1  1  0  0  0
 22 23  1  0  0  0  0
 24 23  1  0  0  0  0
 25 27  1  0  0  0  0
 25 29  2  0  0  0  0
 26 25  1  0  0  0  0
 28 26  1  0  0  0  0
 28 33  1  0  0  0  0
 30 27  2  0  0  0  0
 31 29  1  0  0  0  0
 32 26  2  0  0  0  0
 32 30  1  0  0  0  0
 33 31  2  0  0  0  0
 35 36  1  0  0  0  0
 35 34  1  0  0  0  0
 36 37  2  0  0  0  0
 38 36  1  0  0  0  0
 39 38  1  0  0  0  0
 40 39  1  0  0  0  0
 41 42  2  0  0  0  0
 41 40  1  0  0  0  0
 44 43  1  0  0  0  0
 44 41  1  0  0  0  0
M  END
>  <MODEL>
5

>  <REMARK>
 VINA RESULT:      -6.6      2.586      8.102
  Name = 
  21 active torsions:
  status: ('A' for Active; 'I' for Inactive)
    1  A    between atoms: C_2  and  C_11
    2  A    between atoms: C_2  and  C_21
    3  A    between atoms: C_3  and  C_7
    4  A    between atoms: C_3  and  O_41
    5  A    between atoms: C_4  and  C_10
    6  A    between atoms: C_7  and  N_35
    7  A    between atoms: C_10  and  C_13
    8  A    between atoms: C_10  and  C_31
    9  A    between atoms: C_11  and  C_13
   10  A    between atoms: N_14  and  C_19
   11  A    between atoms: N_14  and  C_21
   12  A    between atoms: C_17  and  C_32
   13  A    between atoms: C_19  and  C_25
   14  A    between atoms: C_20  and  C_22
   15  A    between atoms: C_20  and  C_24
   16  A    between atoms: C_24  and  C_31
   17  A    between atoms: C_24  and  C_34
   18  A    between atoms: C_25  and  C_30
   19  A    between atoms: C_28  and  C_44
   20  A    between atoms: C_29  and  C_32
   21  A    between atoms: C_32  and  N_35
                            x       y       z     vdW  Elec       q    Type
                         _______ _______ _______ _____ _____    ______ ____

>  <TORSDO>
F 21

$$$$
=
 OpenBabel10232407583D

 44 46  0  0  1  0  0  0  0  0999 V2000
  190.6770  176.6460  139.1500 C   0  0  2  0  0  3  0  0  0  0  0  0
  189.6160  177.4050  138.4020 C   0  0  0  0  0  3  0  0  0  0  0  0
  188.5670  176.8470  137.8530 C   0  0  0  0  0  0  0  0  0  0  0  0
  187.5200  176.2930  137.3100 C   0  0  0  0  0  0  0  0  0  0  0  0
  187.3800  174.8080  137.3290 C   0  0  0  0  0  1  0  0  0  0  0  0
  186.4730  177.1590  136.6800 C   0  0  2  0  0  3  0  0  0  0  0  0
  187.4490  178.1050  134.7210 O   0  0  0  0  0  0  0  0  0  0  0  0
  187.3380  179.5100  136.5280 O   0  0  0  0  0  1  0  0  0  0  0  0
  187.0910  178.2860  135.9130 C   0  0  0  0  0  0  0  0  0  0  0  0
  185.5580  177.6650  137.6910 N   0  0  0  0  0  2  0  0  0  0  0  0
  184.3470  176.8620  137.6080 C   0  0  0  0  0  2  0  0  0  0  0  0
  183.2400  177.4980  138.4320 C   0  0  0  0  0  2  0  0  0  0  0  0
  182.9520  178.3760  140.4360 C   0  0  0  0  0  1  0  0  0  0  0  0
  183.4430  177.2410  139.7900 O   0  0  0  0  0  0  0  0  0  0  0  0
  191.2730  177.4190  140.3260 C   0  0  0  0  0  2  0  0  0  0  0  0
  190.7760  176.8250  141.6300 C   0  0  1  0  0  3  0  0  0  0  0  0
  191.1550  177.7140  142.7370 C   0  0  0  0  0  0  0  0  0  0  0  0
  191.4600  178.4450  143.6460 C   0  0  0  0  0  3  0  0  0  0  0  0
  189.2660  176.6630  141.5700 C   0  0  0  0  0  2  0  0  0  0  0  0
  188.1650  178.8270  141.0380 C   0  0  0  0  0  2  0  0  0  0  0  0
  188.5680  177.8880  142.1460 C   0  0  1  0  0  3  0  0  0  0  0  0
  187.2470  177.4700  142.7420 C   0  0  2  0  0  3  0  0  0  0  0  0
  186.2130  178.2760  142.1100 N   0  0  0  0  0  2  0  0  0  0  0  0
  186.7280  178.6850  140.8660 N   0  0  0  0  0  2  0  0  0  0  0  0
  187.1510  178.0960  146.9690 C   0  0  0  0  0  0  0  0  0  0  0  0
  188.2990  177.6510  146.3820 C   0  0  0  0  0  0  0  0  0  0  0  0
  187.2910  178.2570  148.3630 N   0  0  0  0  0  0  0  0  0  0  0  0
  188.3730  177.4230  145.0080 C   0  0  0  0  0  3  0  0  0  0  0  0
  185.9930  178.3350  146.2290 C   0  0  0  0  0  3  0  0  0  0  0  0
  188.6650  177.8900  148.7100 C   0  0  0  0  0  2  0  0  0  0  0  0
  186.0370  178.1130  144.8420 C   0  0  0  0  0  3  0  0  0  0  0  0
  189.3590  177.4620  147.3990 C   0  0  0  0  0  3  0  0  0  0  0  0
  187.2230  177.6600  144.2270 C   0  0  0  0  0  0  0  0  0  0  0  0
  191.7670  176.2210  138.1810 C   0  0  0  0  0  2  0  0  0  0  0  0
  191.5010  174.8150  137.6710 C   0  0  0  0  0  2  0  0  0  0  0  0
  191.5180  174.7920  136.1790 C   0  0  0  0  0  0  0  0  0  0  0  0
  190.8340  175.5790  135.5440 O   0  0  0  0  0  0  0  0  0  0  0  0
  192.3420  173.7710  135.4660 C   0  0  0  0  0  2  0  0  0  0  0  0
  193.5480  174.3890  134.9400 N   0  0  0  0  0  2  0  0  0  0  0  0
  194.6660  173.5680  135.3730 C   0  0  0  0  0  2  0  0  0  0  0  0
  195.0200  173.8940  136.7910 C   0  0  0  0  0  0  0  0  0  0  0  0
  195.3580  175.0930  137.0920 N   0  0  0  0  0  2  0  0  0  0  0  0
  195.4940  173.3600  139.0760 O   0  0  0  0  0  1  0  0  0  0  0  0
  195.0790  172.8340  137.8500 C   0  0  0  0  0  2  0  0  0  0  0  0
  1 34  1  6  0  0  0
  1 15  1  0  0  0  0
  2  1  1  0  0  0  0
  3  2  2  0  0  0  0
  4  5  1  0  0  0  0
  4  3  2  0  0  0  0
  6  9  1  1  0  0  0
  6  4  1  0  0  0  0
  6 10  1  0  0  0  0
  7  9  2  0  0  0  0
  9  8  1  0  0  0  0
 11 10  1  0  0  0  0
 11 12  1  0  0  0  0
 12 14  1  0  0  0  0
 14 13  1  0  0  0  0
 16 15  1  6  0  0  0
 16 17  1  0  0  0  0
 17 18  3  0  0  0  0
 19 16  1  0  0  0  0
 20 21  1  0  0  0  0
 21 19  1  6  0  0  0
 21 22  1  0  0  0  0
 22 33  1  1  0  0  0
 23 22  1  0  0  0  0
 24 20  1  0  0  0  0
 24 23  1  0  0  0  0
 25 27  2  0  0  0  0
 26 25  1  0  0  0  0
 26 32  2  0  0  0  0
 27 30  1  0  0  0  0
 28 26  1  0  0  0  0
 29 25  1  0  0  0  0
 31 29  2  0  0  0  0
 32 30  1  0  0  0  0
 33 31  1  0  0  0  0
 33 28  2  0  0  0  0
 35 34  1  0  0  0  0
 36 35  1  0  0  0  0
 37 36  2  0  0  0  0
 38 36  1  0  0  0  0
 39 40  1  0  0  0  0
 39 38  1  0  0  0  0
 40 41  1  0  0  0  0
 41 42  2  0  0  0  0
 41 44  1  0  0  0  0
 44 43  1  0  0  0  0
M  END
>  <MODEL>
6

>  <REMARK>
 VINA RESULT:      -6.5      3.182      6.078
  Name = 
  21 active torsions:
  status: ('A' for Active; 'I' for Inactive)
    1  A    between atoms: C_2  and  C_11
    2  A    between atoms: C_2  and  C_21
    3  A    between atoms: C_3  and  C_7
    4  A    between atoms: C_3  and  O_41
    5  A    between atoms: C_4  and  C_10
    6  A    between atoms: C_7  and  N_35
    7  A    between atoms: C_10  and  C_13
    8  A    between atoms: C_10  and  C_31
    9  A    between atoms: C_11  and  C_13
   10  A    between atoms: N_14  and  C_19
   11  A    between atoms: N_14  and  C_21
   12  A    between atoms: C_17  and  C_32
   13  A    between atoms: C_19  and  C_25
   14  A    between atoms: C_20  and  C_22
   15  A    between atoms: C_20  and  C_24
   16  A    between atoms: C_24  and  C_31
   17  A    between atoms: C_24  and  C_34
   18  A    between atoms: C_25  and  C_30
   19  A    between atoms: C_28  and  C_44
   20  A    between atoms: C_29  and  C_32
   21  A    between atoms: C_32  and  N_35
                            x       y       z     vdW  Elec       q    Type
                         _______ _______ _______ _____ _____    ______ ____

>  <TORSDO>
F 21

$$$$
=
 OpenBabel10232407583D

 44 46  0  0  1  0  0  0  0  0999 V2000
  185.8870  178.4380  140.5150 C   0  0  2  0  0  3  0  0  0  0  0  0
  187.3750  178.4700  140.7330 C   0  0  0  0  0  3  0  0  0  0  0  0
  187.9840  177.8530  141.7130 C   0  0  0  0  0  0  0  0  0  0  0  0
  188.5920  177.2350  142.6870 C   0  0  0  0  0  0  0  0  0  0  0  0
  187.7880  176.5200  143.7200 C   0  0  0  0  0  1  0  0  0  0  0  0
  190.0880  177.2490  142.7470 C   0  0  2  0  0  3  0  0  0  0  0  0
  191.5480  177.9650  141.0030 O   0  0  0  0  0  1  0  0  0  0  0  0
  190.2480  176.1470  140.4980 O   0  0  0  0  0  0  0  0  0  0  0  0
  190.6870  177.1290  141.3800 C   0  0  0  0  0  0  0  0  0  0  0  0
  190.5720  176.1870  143.6150 N   0  0  0  0  0  2  0  0  0  0  0  0
  191.4660  176.8040  144.5830 C   0  0  0  0  0  2  0  0  0  0  0  0
  190.7050  177.1500  145.8520 C   0  0  0  0  0  2  0  0  0  0  0  0
  192.1700  175.7420  146.7150 C   0  0  0  0  0  1  0  0  0  0  0  0
  191.5170  176.9480  146.9710 O   0  0  0  0  0  0  0  0  0  0  0  0
  185.4500  179.0170  139.1700 C   0  0  0  0  0  2  0  0  0  0  0  0
  184.0630  178.5110  138.8230 C   0  0  1  0  0  3  0  0  0  0  0  0
  183.1220  179.6390  138.8370 C   0  0  0  0  0  0  0  0  0  0  0  0
  182.3530  180.5670  138.8550 C   0  0  0  0  0  3  0  0  0  0  0  0
  184.0920  177.8580  137.4500 C   0  0  0  0  0  2  0  0  0  0  0  0
  184.0230  175.3770  137.3240 C   0  0  0  0  0  2  0  0  0  0  0  0
  184.9180  176.5790  137.4790 C   0  0  1  0  0  3  0  0  0  0  0  0
  185.7870  176.5240  136.2460 C   0  0  2  0  0  3  0  0  0  0  0  0
  185.4950  175.2690  135.5680 N   0  0  0  0  0  2  0  0  0  0  0  0
  184.2000  174.8900  135.9650 N   0  0  0  0  0  2  0  0  0  0  0  0
  189.9520  176.8210  137.1570 C   0  0  0  0  0  0  0  0  0  0  0  0
  189.4000  175.5940  136.9320 C   0  0  0  0  0  0  0  0  0  0  0  0
  191.3320  176.7420  137.4340 N   0  0  0  0  0  0  0  0  0  0  0  0
  188.0430  175.4490  136.6420 C   0  0  0  0  0  3  0  0  0  0  0  0
  189.1890  177.9880  137.1180 C   0  0  0  0  0  3  0  0  0  0  0  0
  191.7120  175.3290  137.3740 C   0  0  0  0  0  2  0  0  0  0  0  0
  187.8190  177.8720  136.8290 C   0  0  0  0  0  3  0  0  0  0  0  0
  190.4260  174.5340  137.0560 C   0  0  0  0  0  3  0  0  0  0  0  0
  187.2420  176.6080  136.5880 C   0  0  0  0  0  0  0  0  0  0  0  0
  185.1970  179.1600  141.6590 C   0  0  0  0  0  2  0  0  0  0  0  0
  184.5900  178.1570  142.6260 C   0  0  0  0  0  2  0  0  0  0  0  0
  183.2880  178.6640  143.1500 C   0  0  0  0  0  0  0  0  0  0  0  0
  182.3610  178.8800  142.3860 O   0  0  0  0  0  0  0  0  0  0  0  0
  183.1390  178.9460  144.6090 C   0  0  0  0  0  2  0  0  0  0  0  0
  184.4240  179.3150  145.1760 N   0  0  0  0  0  2  0  0  0  0  0  0
  184.6710  178.4110  146.2870 C   0  0  0  0  0  2  0  0  0  0  0  0
  185.9490  178.7820  146.9740 C   0  0  0  0  0  0  0  0  0  0  0  0
  186.0390  179.9190  147.5570 N   0  0  0  0  0  2  0  0  0  0  0  0
  187.8760  177.9360  148.1140 O   0  0  0  0  0  1  0  0  0  0  0  0
  187.1570  177.8950  146.9170 C   0  0  0  0  0  2  0  0  0  0  0  0
  1 15  1  6  0  0  0
  1  2  1  0  0  0  0
  1 34  1  0  0  0  0
  2  3  2  0  0  0  0
  3  4  2  0  0  0  0
  4  6  1  0  0  0  0
  4  5  1  0  0  0  0
  6  9  1  6  0  0  0
  6 10  1  0  0  0  0
  7  9  1  0  0  0  0
  8  9  2  0  0  0  0
 10 11  1  0  0  0  0
 11 12  1  0  0  0  0
 12 14  1  0  0  0  0
 13 14  1  0  0  0  0
 16 19  1  6  0  0  0
 16 17  1  0  0  0  0
 16 15  1  0  0  0  0
 17 18  3  0  0  0  0
 20 21  1  0  0  0  0
 21 19  1  6  0  0  0
 22 33  1  1  0  0  0
 22 21  1  0  0  0  0
 23 24  1  0  0  0  0
 23 22  1  0  0  0  0
 24 20  1  0  0  0  0
 25 27  2  0  0  0  0
 26 32  2  0  0  0  0
 26 25  1  0  0  0  0
 28 26  1  0  0  0  0
 29 25  1  0  0  0  0
 30 27  1  0  0  0  0
 31 29  2  0  0  0  0
 32 30  1  0  0  0  0
 33 28  2  0  0  0  0
 33 31  1  0  0  0  0
 34 35  1  0  0  0  0
 35 36  1  0  0  0  0
 36 38  1  0  0  0  0
 37 36  2  0  0  0  0
 38 39  1  0  0  0  0
 39 40  1  0  0  0  0
 40 41  1  0  0  0  0
 41 42  2  0  0  0  0
 44 41  1  0  0  0  0
 44 43  1  0  0  0  0
M  END
>  <MODEL>
7

>  <REMARK>
 VINA RESULT:      -6.3      2.567      7.495
  Name = 
  21 active torsions:
  status: ('A' for Active; 'I' for Inactive)
    1  A    between atoms: C_2  and  C_11
    2  A    between atoms: C_2  and  C_21
    3  A    between atoms: C_3  and  C_7
    4  A    between atoms: C_3  and  O_41
    5  A    between atoms: C_4  and  C_10
    6  A    between atoms: C_7  and  N_35
    7  A    between atoms: C_10  and  C_13
    8  A    between atoms: C_10  and  C_31
    9  A    between atoms: C_11  and  C_13
   10  A    between atoms: N_14  and  C_19
   11  A    between atoms: N_14  and  C_21
   12  A    between atoms: C_17  and  C_32
   13  A    between atoms: C_19  and  C_25
   14  A    between atoms: C_20  and  C_22
   15  A    between atoms: C_20  and  C_24
   16  A    between atoms: C_24  and  C_31
   17  A    between atoms: C_24  and  C_34
   18  A    between atoms: C_25  and  C_30
   19  A    between atoms: C_28  and  C_44
   20  A    between atoms: C_29  and  C_32
   21  A    between atoms: C_32  and  N_35
                            x       y       z     vdW  Elec       q    Type
                         _______ _______ _______ _____ _____    ______ ____

>  <TORSDO>
F 21

$$$$
=
 OpenBabel10232407583D

 44 46  0  0  1  0  0  0  0  0999 V2000
  185.9240  177.9900  143.3590 C   0  0  2  0  0  3  0  0  0  0  0  0
  187.1940  177.2360  143.0760 C   0  0  0  0  0  3  0  0  0  0  0  0
  187.9410  177.4340  142.0200 C   0  0  0  0  0  0  0  0  0  0  0  0
  188.6890  177.6330  140.9710 C   0  0  0  0  0  0  0  0  0  0  0  0
  188.2410  178.5920  139.9200 C   0  0  0  0  0  1  0  0  0  0  0  0
  189.9870  176.8980  140.8430 C   0  0  2  0  0  3  0  0  0  0  0  0
  191.2460  177.4440  142.7920 O   0  0  0  0  0  1  0  0  0  0  0  0
  190.4160  175.3090  142.7370 O   0  0  0  0  0  0  0  0  0  0  0  0
  190.5650  176.5780  142.1860 C   0  0  0  0  0  0  0  0  0  0  0  0
  190.9310  177.6700  140.0480 N   0  0  0  0  0  2  0  0  0  0  0  0
  191.4070  176.7950  138.9870 C   0  0  0  0  0  2  0  0  0  0  0  0
  190.2750  175.9130  138.4880 C   0  0  0  0  0  2  0  0  0  0  0  0
  191.4180  174.9240  136.8800 C   0  0  0  0  0  1  0  0  0  0  0  0
  190.7730  174.6700  138.0900 O   0  0  0  0  0  0  0  0  0  0  0  0
  185.4140  178.8040  142.1710 C   0  0  0  0  0  2  0  0  0  0  0  0
  184.0250  178.3310  141.7860 C   0  0  1  0  0  3  0  0  0  0  0  0
  183.0630  178.7930  142.7970 C   0  0  0  0  0  0  0  0  0  0  0  0
  182.2700  179.1700  143.6220 C   0  0  0  0  0  3  0  0  0  0  0  0
  183.6640  178.8810  140.4160 C   0  0  0  0  0  2  0  0  0  0  0  0
  181.6770  177.8780  139.3090 C   0  0  0  0  0  2  0  0  0  0  0  0
  183.1680  177.7680  139.5020 C   0  0  1  0  0  3  0  0  0  0  0  0
  183.7140  177.9890  138.1130 C   0  0  2  0  0  3  0  0  0  0  0  0
  182.5760  178.0340  137.2050 N   0  0  0  0  0  2  0  0  0  0  0  0
  181.4630  178.4140  137.9740 N   0  0  0  0  0  2  0  0  0  0  0  0
  186.4360  174.9320  136.8850 C   0  0  2  0  0  3  0  0  0  0  0  0
  185.1800  174.5890  137.2900 C   0  0  0  0  0  0  0  0  0  0  0  0
  187.2010  173.8100  136.5080 N   0  0  0  0  0  0  0  0  0  0  0  0
  184.2620  175.5520  137.7090 C   0  0  0  0  0  3  0  0  0  0  0  0
  186.8690  176.2590  136.8790 C   0  0  0  0  0  3  0  0  0  0  0  0
  186.3550  172.6270  136.6750 C   0  0  0  0  0  3  0  0  0  0  0  0
  185.9660  177.2510  137.2960 C   0  0  0  0  0  3  0  0  0  0  0  0
  184.9970  173.1220  137.2180 C   0  0  0  0  0  3  0  0  0  0  0  0
  184.6630  176.9040  137.7100 C   0  0  0  0  0  0  0  0  0  0  0  0
  186.1300  178.8820  144.5710 C   0  0  0  0  0  2  0  0  0  0  0  0
  185.8350  178.1140  145.8480 C   0  0  0  0  0  2  0  0  0  0  0  0
  187.0540  178.0420  146.7040 C   0  0  0  0  0  0  0  0  0  0  0  0
  186.9530  178.0590  147.9210 O   0  0  0  0  0  0  0  0  0  0  0  0
  188.4030  177.9930  146.0650 C   0  0  0  0  0  2  0  0  0  0  0  0
  189.2180  176.9760  146.7070 N   0  0  0  0  0  2  0  0  0  0  0  0
  190.5490  177.0780  146.1330 C   0  0  0  0  0  2  0  0  0  0  0  0
  191.5680  176.5950  147.1170 C   0  0  0  0  0  0  0  0  0  0  0  0
  191.7700  177.2670  148.1900 N   0  0  0  0  0  2  0  0  0  0  0  0
  192.2680  174.9520  145.5230 O   0  0  0  0  0  1  0  0  0  0  0  0
  192.4250  175.3960  146.8380 C   0  0  0  0  0  2  0  0  0  0  0  0
  1 15  1  6  0  0  0
  1 34  1  0  0  0  0
  2  1  1  0  0  0  0
  3  2  2  0  0  0  0
  4  3  2  0  0  0  0
  5  4  1  0  0  0  0
  6 10  1  6  0  0  0
  6  4  1  0  0  0  0
  6  9  1  0  0  0  0
  9  8  2  0  0  0  0
  9  7  1  0  0  0  0
 11 10  1  0  0  0  0
 12 11  1  0  0  0  0
 13 14  1  0  0  0  0
 14 12  1  0  0  0  0
 16 19  1  6  0  0  0
 16 15  1  0  0  0  0
 16 17  1  0  0  0  0
 17 18  3  0  0  0  0
 20 21  1  0  0  0  0
 21 19  1  1  0  0  0
 22 33  1  6  0  0  0
 22 21  1  0  0  0  0
 23 24  1  0  0  0  0
 23 22  1  0  0  0  0
 24 20  1  0  0  0  0
 25 29  1  1  0  0  0
 25 26  1  0  0  0  0
 26 28  1  0  0  0  0
 27 30  2  0  0  0  0
 27 25  1  0  0  0  0
 28 33  2  0  0  0  0
 29 31  2  0  0  0  0
 30 32  1  0  0  0  0
 31 33  1  0  0  0  0
 32 26  2  0  0  0  0
 34 35  1  0  0  0  0
 35 36  1  0  0  0  0
 36 37  2  0  0  0  0
 38 36  1  0  0  0  0
 38 39  1  0  0  0  0
 40 39  1  0  0  0  0
 40 41  1  0  0  0  0
 41 42  2  0  0  0  0
 43 44  1  0  0  0  0
 44 41  1  0  0  0  0
M  END
>  <MODEL>
8

>  <REMARK>
 VINA RESULT:      -6.3      2.332      7.399
  Name = 
  21 active torsions:
  status: ('A' for Active; 'I' for Inactive)
    1  A    between atoms: C_2  and  C_11
    2  A    between atoms: C_2  and  C_21
    3  A    between atoms: C_3  and  C_7
    4  A    between atoms: C_3  and  O_41
    5  A    between atoms: C_4  and  C_10
    6  A    between atoms: C_7  and  N_35
    7  A    between atoms: C_10  and  C_13
    8  A    between atoms: C_10  and  C_31
    9  A    between atoms: C_11  and  C_13
   10  A    between atoms: N_14  and  C_19
   11  A    between atoms: N_14  and  C_21
   12  A    between atoms: C_17  and  C_32
   13  A    between atoms: C_19  and  C_25
   14  A    between atoms: C_20  and  C_22
   15  A    between atoms: C_20  and  C_24
   16  A    between atoms: C_24  and  C_31
   17  A    between atoms: C_24  and  C_34
   18  A    between atoms: C_25  and  C_30
   19  A    between atoms: C_28  and  C_44
   20  A    between atoms: C_29  and  C_32
   21  A    between atoms: C_32  and  N_35
                            x       y       z     vdW  Elec       q    Type
                         _______ _______ _______ _____ _____    ______ ____

>  <TORSDO>
F 21

$$$$
=
 OpenBabel10232407583D

 44 46  0  0  1  0  0  0  0  0999 V2000
  188.7650  178.0190  141.6800 C   0  0  2  0  0  3  0  0  0  0  0  0
  188.5320  177.5620  140.2660 C   0  0  0  0  0  3  0  0  0  0  0  0
  189.4710  177.0910  139.4860 C   0  0  0  0  0  0  0  0  0  0  0  0
  190.4040  176.6180  138.7100 C   0  0  0  0  0  0  0  0  0  0  0  0
  191.8180  176.6000  139.1850 C   0  0  0  0  0  1  0  0  0  0  0  0
  190.0390  176.0940  137.3550 C   0  0  2  0  0  3  0  0  0  0  0  0
  190.2320  173.7180  137.3870 O   0  0  0  0  0  1  0  0  0  0  0  0
  192.0220  174.8270  136.4830 O   0  0  0  0  0  0  0  0  0  0  0  0
  190.7540  174.8140  137.0560 C   0  0  0  0  0  0  0  0  0  0  0  0
  190.3210  177.0910  136.3330 N   0  0  0  0  0  2  0  0  0  0  0  0
  189.1430  177.1710  135.4810 C   0  0  0  0  0  2  0  0  0  0  0  0
  188.0170  177.8820  136.2110 C   0  0  0  0  0  2  0  0  0  0  0  0
  186.0430  177.6240  137.1640 C   0  0  0  0  0  1  0  0  0  0  0  0
  186.8420  177.1290  136.1330 O   0  0  0  0  0  0  0  0  0  0  0  0
  189.6790  177.0940  142.4830 C   0  0  0  0  0  2  0  0  0  0  0  0
  191.0540  177.7200  142.6120 C   0  0  1  0  0  3  0  0  0  0  0  0
  190.9510  178.9430  143.4190 C   0  0  0  0  0  0  0  0  0  0  0  0
  190.8680  179.9440  144.0870 C   0  0  0  0  0  3  0  0  0  0  0  0
  192.0030  176.7290  143.2650 C   0  0  0  0  0  2  0  0  0  0  0  0
  191.9250  174.5570  144.4700 C   0  0  0  0  0  2  0  0  0  0  0  0
  191.2810  175.9110  144.3270 C   0  0  1  0  0  3  0  0  0  0  0  0
  191.5080  176.5450  145.6770 C   0  0  2  0  0  3  0  0  0  0  0  0
  192.0770  175.5230  146.5440 N   0  0  0  0  0  2  0  0  0  0  0  0
  192.6980  174.5830  145.7020 N   0  0  0  0  0  2  0  0  0  0  0  0
  187.8850  178.0060  147.4130 C   0  0  0  0  0  0  0  0  0  0  0  0
  187.8770  177.5490  146.1280 C   0  0  0  0  0  0  0  0  0  0  0  0
  186.6120  178.4420  147.8330 N   0  0  0  0  0  0  0  0  0  0  0  0
  189.0380  177.0730  145.5180 C   0  0  0  0  0  2  0  0  0  0  0  0
  189.0530  178.0300  148.1770 C   0  0  0  0  0  3  0  0  0  0  0  0
  185.6890  178.2400  146.7150 C   0  0  0  0  0  3  0  0  0  0  0  0
  190.2370  177.5570  147.5880 C   0  0  0  0  0  3  0  0  0  0  0  0
  186.5190  177.6570  145.5500 C   0  0  0  0  0  3  0  0  0  0  0  0
  190.2360  177.0760  146.2620 C   0  0  0  0  0  0  0  0  0  0  0  0
  187.4280  178.1900  142.3800 C   0  0  0  0  0  2  0  0  0  0  0  0
  186.4280  178.8590  141.4510 C   0  0  0  0  0  2  0  0  0  0  0  0
  185.0720  178.8750  142.0720 C   0  0  0  0  0  0  0  0  0  0  0  0
  184.8620  179.5410  143.0720 O   0  0  0  0  0  0  0  0  0  0  0  0
  183.9830  178.0360  141.4870 C   0  0  0  0  0  2  0  0  0  0  0  0
  182.9110  178.8870  141.0000 N   0  0  0  0  0  2  0  0  0  0  0  0
  183.0830  179.0010  139.5620 C   0  0  0  0  0  2  0  0  0  0  0  0
  181.7500  179.1580  138.8990 C   0  0  0  0  0  0  0  0  0  0  0  0
  180.8540  178.2580  139.0720 N   0  0  0  0  0  2  0  0  0  0  0  0
  181.8950  181.5130  138.4950 O   0  0  0  0  0  1  0  0  0  0  0  0
  181.4670  180.2950  137.9620 C   0  0  0  0  0  2  0  0  0  0  0  0
  1  2  1  6  0  0  0
  1 34  1  0  0  0  0
  1 15  1  0  0  0  0
  3  2  2  0  0  0  0
  4  5  1  0  0  0  0
  4  3  2  0  0  0  0
  6 10  1  6  0  0  0
  6  4  1  0  0  0  0
  8  9  2  0  0  0  0
  9  6  1  0  0  0  0
  9  7  1  0  0  0  0
 11 12  1  0  0  0  0
 11 10  1  0  0  0  0
 14 12  1  0  0  0  0
 14 13  1  0  0  0  0
 16 15  1  1  0  0  0
 16 19  1  0  0  0  0
 16 17  1  0  0  0  0
 17 18  3  0  0  0  0
 20 24  1  0  0  0  0
 21 19  1  6  0  0  0
 21 20  1  0  0  0  0
 21 22  1  0  0  0  0
 22 33  1  1  0  0  0
 22 23  1  0  0  0  0
 24 23  1  0  0  0  0
 25 27  1  0  0  0  0
 25 29  2  0  0  0  0
 26 25  1  0  0  0  0
 28 26  1  0  0  0  0
 28 33  1  0  0  0  0
 30 27  2  0  0  0  0
 31 29  1  0  0  0  0
 32 26  2  0  0  0  0
 32 30  1  0  0  0  0
 33 31  2  0  0  0  0
 35 36  1  0  0  0  0
 35 34  1  0  0  0  0
 36 37  2  0  0  0  0
 38 36  1  0  0  0  0
 39 38  1  0  0  0  0
 40 39  1  0  0  0  0
 41 42  2  0  0  0  0
 41 40  1  0  0  0  0
 44 43  1  0  0  0  0
 44 41  1  0  0  0  0
M  END
>  <MODEL>
9

>  <REMARK>
 VINA RESULT:      -6.3      2.748      8.798
  Name = 
  21 active torsions:
  status: ('A' for Active; 'I' for Inactive)
    1  A    between atoms: C_2  and  C_11
    2  A    between atoms: C_2  and  C_21
    3  A    between atoms: C_3  and  C_7
    4  A    between atoms: C_3  and  O_41
    5  A    between atoms: C_4  and  C_10
    6  A    between atoms: C_7  and  N_35
    7  A    between atoms: C_10  and  C_13
    8  A    between atoms: C_10  and  C_31
    9  A    between atoms: C_11  and  C_13
   10  A    between atoms: N_14  and  C_19
   11  A    between atoms: N_14  and  C_21
   12  A    between atoms: C_17  and  C_32
   13  A    between atoms: C_19  and  C_25
   14  A    between atoms: C_20  and  C_22
   15  A    between atoms: C_20  and  C_24
   16  A    between atoms: C_24  and  C_31
   17  A    between atoms: C_24  and  C_34
   18  A    between atoms: C_25  and  C_30
   19  A    between atoms: C_28  and  C_44
   20  A    between atoms: C_29  and  C_32
   21  A    between atoms: C_32  and  N_35
                            x       y       z     vdW  Elec       q    Type
                         _______ _______ _______ _____ _____    ______ ____

>  <TORSDO>
F 21

$$$$
