=
 OpenBabel10232412303D

 29 31  0  0  0  0  0  0  0  0999 V2000
  182.9870  179.1230  144.5630 C   0  0  0  0  0  3  0  0  0  0  0  0
  184.3400  179.0170  144.2050 C   0  0  0  0  0  0  0  0  0  0  0  0
  182.3250  178.6390  142.2820 C   0  0  0  0  0  0  0  0  0  0  0  0
  181.9860  178.9350  143.6080 C   0  0  0  0  0  3  0  0  0  0  0  0
  184.6850  178.7220  142.8770 C   0  0  0  0  0  0  0  0  0  0  0  0
  183.6720  178.5350  141.9230 C   0  0  0  0  0  3  0  0  0  0  0  0
  181.3190  178.4430  141.2850 N   0  0  0  0  0  2  0  0  0  0  0  0
  181.6300  178.0880  139.9090 C   0  0  0  0  0  2  0  0  0  0  0  0
  182.4730  175.8730  139.7260 O   0  0  0  0  0  0  0  0  0  0  0  0
  181.4590  176.6230  139.7210 C   0  0  0  0  0  0  0  0  0  0  0  0
  179.9860  174.7720  139.0510 C   0  0  0  0  0  1  0  0  0  0  0  0
  180.1840  176.1010  139.5070 O   0  0  0  0  0  0  0  0  0  0  0  0
  186.0360  178.6180  142.5310 O   0  0  0  0  0  0  0  0  0  0  0  0
  186.5020  178.7560  141.1940 C   0  0  0  0  0  2  0  0  0  0  0  0
  188.0010  178.5280  141.1480 C   0  0  0  0  0  2  0  0  0  0  0  0
  188.9840  177.3380  139.4020 C   0  0  0  0  0  1  0  0  0  0  0  0
  188.4760  178.6440  139.7800 N   0  0  0  0  0  2  0  0  0  0  0  0
  185.3570  179.2010  145.1470 O   0  0  0  0  0  0  0  0  0  0  0  0
  185.5190  178.3600  146.2810 C   0  0  0  0  0  2  0  0  0  0  0  0
  187.6720  177.5970  145.2580 C   0  0  0  0  0  3  0  0  0  0  0  0
  191.7760  176.8390  147.5630 O   0  0  0  0  0  0  0  0  0  0  0  0
  188.9290  177.6360  147.7750 C   0  0  0  0  0  3  0  0  0  0  0  0
  186.9460  177.9580  146.4030 C   0  0  0  0  0  0  0  0  0  0  0  0
  189.0190  177.2530  145.3870 C   0  0  0  0  0  0  0  0  0  0  0  0
  191.5720  176.4980  144.9060 S   0  0  0  0  0  0  0  0  0  0  0  0
  187.5760  177.9840  147.6580 C   0  0  0  0  0  3  0  0  0  0  0  0
  189.8900  176.8510  144.2430 C   0  0  0  0  0  2  0  0  0  0  0  0
  191.0200  176.8900  146.5580 C   0  0  0  0  0  0  0  0  0  0  0  0
  189.6300  177.2710  146.6240 C   0  0  0  0  0  0  0  0  0  0  0  0
  2  1  1  0  0  0  0
  2 18  1  0  0  0  0
  3  4  1  0  0  0  0
  4  1  2  0  0  0  0
  5  2  2  0  0  0  0
  6  3  2  0  0  0  0
  6  5  1  0  0  0  0
  7  3  1  0  0  0  0
  8  7  1  0  0  0  0
 10  9  2  0  0  0  0
 10  8  1  0  0  0  0
 11 12  1  0  0  0  0
 12 10  1  0  0  0  0
 13  5  1  0  0  0  0
 14 13  1  0  0  0  0
 15 14  1  0  0  0  0
 16 17  1  0  0  0  0
 17 15  1  0  0  0  0
 18 19  1  0  0  0  0
 19 23  1  0  0  0  0
 20 24  2  0  0  0  0
 20 23  1  0  0  0  0
 23 26  2  0  0  0  0
 24 29  1  0  0  0  0
 25 28  1  0  0  0  0
 26 22  1  0  0  0  0
 27 25  1  0  0  0  0
 27 24  1  0  0  0  0
 28 29  1  0  0  0  0
 28 21  2  0  0  0  0
 29 22  2  0  0  0  0
M  END
>  <MODEL>
1

>  <REMARK>
 VINA RESULT:      -7.8      0.000      0.000
  Name = 
  11 active torsions:
  status: ('A' for Active; 'I' for Inactive)
    1  A    between atoms: C_2  and  O_26
    2  A    between atoms: C_4  and  N_17
    3  A    between atoms: C_9  and  C_16
    4  A    between atoms: C_9  and  O_25
    5  A    between atoms: C_10  and  C_23
    6  A    between atoms: C_16  and  N_17
    7  A    between atoms: O_18  and  C_19
    8  A    between atoms: O_18  and  C_22
    9  A    between atoms: C_22  and  C_29
   10  A    between atoms: C_23  and  O_26
   11  A    between atoms: N_28  and  C_29
                            x       y       z     vdW  Elec       q    Type
                         _______ _______ _______ _____ _____    ______ ____

>  <TORSDO>
F 11

$$$$
=
 OpenBabel10232412303D

 29 31  0  0  0  0  0  0  0  0999 V2000
  183.0620  179.1630  144.5660 C   0  0  0  0  0  3  0  0  0  0  0  0
  184.4340  179.0730  144.2820 C   0  0  0  0  0  0  0  0  0  0  0  0
  182.5300  178.6650  142.2540 C   0  0  0  0  0  0  0  0  0  0  0  0
  182.1170  178.9600  143.5590 C   0  0  0  0  0  3  0  0  0  0  0  0
  184.8530  178.7790  142.9750 C   0  0  0  0  0  0  0  0  0  0  0  0
  183.8960  178.5770  141.9680 C   0  0  0  0  0  3  0  0  0  0  0  0
  181.5820  178.4540  141.2050 N   0  0  0  0  0  2  0  0  0  0  0  0
  181.1060  179.5240  140.3430 C   0  0  0  0  0  2  0  0  0  0  0  0
  182.8220  180.2200  138.8510 O   0  0  0  0  0  0  0  0  0  0  0  0
  181.8240  179.4730  139.0410 C   0  0  0  0  0  0  0  0  0  0  0  0
  182.2360  178.0770  137.0600 C   0  0  0  0  0  1  0  0  0  0  0  0
  181.3630  178.6240  138.0360 O   0  0  0  0  0  0  0  0  0  0  0  0
  186.2220  178.6920  142.7030 O   0  0  0  0  0  0  0  0  0  0  0  0
  186.7440  178.6550  141.3810 C   0  0  0  0  0  2  0  0  0  0  0  0
  188.2520  178.4970  141.4290 C   0  0  0  0  0  2  0  0  0  0  0  0
  187.6120  178.1500  139.2150 C   0  0  0  0  0  1  0  0  0  0  0  0
  188.7560  178.1630  140.1070 N   0  0  0  0  0  2  0  0  0  0  0  0
  185.3960  179.2720  145.2770 O   0  0  0  0  0  0  0  0  0  0  0  0
  185.5310  178.4130  146.4010 C   0  0  0  0  0  2  0  0  0  0  0  0
  187.6960  177.6380  145.4140 C   0  0  0  0  0  3  0  0  0  0  0  0
  191.7580  176.8590  147.7860 O   0  0  0  0  0  0  0  0  0  0  0  0
  188.9120  177.6720  147.9510 C   0  0  0  0  0  3  0  0  0  0  0  0
  186.9530  178.0030  146.5470 C   0  0  0  0  0  0  0  0  0  0  0  0
  189.0390  177.2860  145.5660 C   0  0  0  0  0  0  0  0  0  0  0  0
  191.5950  176.5180  145.1260 S   0  0  0  0  0  0  0  0  0  0  0  0
  187.5630  178.0270  147.8120 C   0  0  0  0  0  3  0  0  0  0  0  0
  189.9270  176.8800  144.4360 C   0  0  0  0  0  2  0  0  0  0  0  0
  191.0180  176.9140  146.7680 C   0  0  0  0  0  0  0  0  0  0  0  0
  189.6300  177.3030  146.8110 C   0  0  0  0  0  0  0  0  0  0  0  0
  2  1  1  0  0  0  0
  2 18  1  0  0  0  0
  3  4  1  0  0  0  0
  4  1  2  0  0  0  0
  5  2  2  0  0  0  0
  6  3  2  0  0  0  0
  6  5  1  0  0  0  0
  7  3  1  0  0  0  0
  8  7  1  0  0  0  0
  9 10  2  0  0  0  0
 10  8  1  0  0  0  0
 11 12  1  0  0  0  0
 12 10  1  0  0  0  0
 13  5  1  0  0  0  0
 14 15  1  0  0  0  0
 14 13  1  0  0  0  0
 16 17  1  0  0  0  0
 17 15  1  0  0  0  0
 18 19  1  0  0  0  0
 19 23  1  0  0  0  0
 20 24  2  0  0  0  0
 20 23  1  0  0  0  0
 23 26  2  0  0  0  0
 24 29  1  0  0  0  0
 25 28  1  0  0  0  0
 26 22  1  0  0  0  0
 27 25  1  0  0  0  0
 27 24  1  0  0  0  0
 28 29  1  0  0  0  0
 28 21  2  0  0  0  0
 29 22  2  0  0  0  0
M  END
>  <MODEL>
2

>  <REMARK>
 VINA RESULT:      -7.7      1.399      1.496
  Name = 
  11 active torsions:
  status: ('A' for Active; 'I' for Inactive)
    1  A    between atoms: C_2  and  O_26
    2  A    between atoms: C_4  and  N_17
    3  A    between atoms: C_9  and  C_16
    4  A    between atoms: C_9  and  O_25
    5  A    between atoms: C_10  and  C_23
    6  A    between atoms: C_16  and  N_17
    7  A    between atoms: O_18  and  C_19
    8  A    between atoms: O_18  and  C_22
    9  A    between atoms: C_22  and  C_29
   10  A    between atoms: C_23  and  O_26
   11  A    between atoms: N_28  and  C_29
                            x       y       z     vdW  Elec       q    Type
                         _______ _______ _______ _____ _____    ______ ____

>  <TORSDO>
F 11

$$$$
=
 OpenBabel10232412303D

 29 31  0  0  0  0  0  0  0  0999 V2000
  186.5610  178.4500  147.2740 C   0  0  0  0  0  3  0  0  0  0  0  0
  186.3770  178.5440  145.8860 C   0  0  0  0  0  0  0  0  0  0  0  0
  188.5800  177.1510  146.9380 C   0  0  0  0  0  0  0  0  0  0  0  0
  187.6550  177.7580  147.7970 C   0  0  0  0  0  3  0  0  0  0  0  0
  187.3000  177.9360  145.0210 C   0  0  0  0  0  0  0  0  0  0  0  0
  188.3980  177.2420  145.5550 C   0  0  0  0  0  3  0  0  0  0  0  0
  189.7090  176.4370  147.4480 N   0  0  0  0  0  2  0  0  0  0  0  0
  191.0660  176.9550  147.3840 C   0  0  0  0  0  2  0  0  0  0  0  0
  192.4820  175.2450  146.5330 O   0  0  0  0  0  0  0  0  0  0  0  0
  191.8060  176.2800  146.2840 C   0  0  0  0  0  0  0  0  0  0  0  0
  191.4160  176.0410  143.8690 C   0  0  0  0  0  1  0  0  0  0  0  0
  191.7700  176.8220  145.0000 O   0  0  0  0  0  0  0  0  0  0  0  0
  187.1070  178.0360  143.6390 O   0  0  0  0  0  0  0  0  0  0  0  0
  187.9030  177.3290  142.6970 C   0  0  0  0  0  2  0  0  0  0  0  0
  187.9250  178.0790  141.3790 C   0  0  0  0  0  2  0  0  0  0  0  0
  188.9900  178.3560  139.3240 C   0  0  0  0  0  1  0  0  0  0  0  0
  188.9540  177.5260  140.5140 N   0  0  0  0  0  2  0  0  0  0  0  0
  185.2870  179.2330  145.3430 O   0  0  0  0  0  0  0  0  0  0  0  0
  183.9460  178.7800  145.4740 C   0  0  0  0  0  2  0  0  0  0  0  0
  184.0590  178.6460  142.9780 C   0  0  0  0  0  3  0  0  0  0  0  0
  180.3550  178.7410  139.9790 O   0  0  0  0  0  0  0  0  0  0  0  0
  181.2590  178.8470  142.7990 C   0  0  0  0  0  3  0  0  0  0  0  0
  183.2870  178.7830  144.1410 C   0  0  0  0  0  0  0  0  0  0  0  0
  183.4210  178.6190  141.7370 C   0  0  0  0  0  0  0  0  0  0  0  0
  182.8780  178.4930  139.0890 S   0  0  0  0  0  0  0  0  0  0  0  0
  181.8890  178.8750  144.0510 C   0  0  0  0  0  3  0  0  0  0  0  0
  184.1370  178.4800  140.4330 C   0  0  0  0  0  2  0  0  0  0  0  0
  181.5720  178.6700  140.2930 C   0  0  0  0  0  0  0  0  0  0  0  0
  182.0480  178.7200  141.6540 C   0  0  0  0  0  0  0  0  0  0  0  0
  1  4  1  0  0  0  0
  2  1  2  0  0  0  0
  3  7  1  0  0  0  0
  3  4  2  0  0  0  0
  5  6  2  0  0  0  0
  5  2  1  0  0  0  0
  6  3  1  0  0  0  0
  8  7  1  0  0  0  0
 10  9  2  0  0  0  0
 10  8  1  0  0  0  0
 11 12  1  0  0  0  0
 12 10  1  0  0  0  0
 13  5  1  0  0  0  0
 14 13  1  0  0  0  0
 15 14  1  0  0  0  0
 16 17  1  0  0  0  0
 17 15  1  0  0  0  0
 18 19  1  0  0  0  0
 18  2  1  0  0  0  0
 20 23  1  0  0  0  0
 21 28  2  0  0  0  0
 22 26  1  0  0  0  0
 23 19  1  0  0  0  0
 24 20  2  0  0  0  0
 25 28  1  0  0  0  0
 25 27  1  0  0  0  0
 26 23  2  0  0  0  0
 27 24  1  0  0  0  0
 28 29  1  0  0  0  0
 29 24  1  0  0  0  0
 29 22  2  0  0  0  0
M  END
>  <MODEL>
3

>  <REMARK>
 VINA RESULT:      -7.5      2.886      8.031
  Name = 
  11 active torsions:
  status: ('A' for Active; 'I' for Inactive)
    1  A    between atoms: C_2  and  O_26
    2  A    between atoms: C_4  and  N_17
    3  A    between atoms: C_9  and  C_16
    4  A    between atoms: C_9  and  O_25
    5  A    between atoms: C_10  and  C_23
    6  A    between atoms: C_16  and  N_17
    7  A    between atoms: O_18  and  C_19
    8  A    between atoms: O_18  and  C_22
    9  A    between atoms: C_22  and  C_29
   10  A    between atoms: C_23  and  O_26
   11  A    between atoms: N_28  and  C_29
                            x       y       z     vdW  Elec       q    Type
                         _______ _______ _______ _____ _____    ______ ____

>  <TORSDO>
F 11

$$$$
=
 OpenBabel10232412303D

 29 31  0  0  0  0  0  0  0  0999 V2000
  192.1420  177.5000  140.9800 C   0  0  0  0  0  3  0  0  0  0  0  0
  190.7800  177.2750  140.7270 C   0  0  0  0  0  0  0  0  0  0  0  0
  192.7000  176.7680  138.7370 C   0  0  0  0  0  0  0  0  0  0  0  0
  193.0950  177.2480  139.9920 C   0  0  0  0  0  3  0  0  0  0  0  0
  190.3780  176.7920  139.4720 C   0  0  0  0  0  0  0  0  0  0  0  0
  191.3440  176.5410  138.4840 C   0  0  0  0  0  3  0  0  0  0  0  0
  193.6560  176.5020  137.7080 N   0  0  0  0  0  2  0  0  0  0  0  0
  193.8540  175.1800  137.1370 C   0  0  0  0  0  2  0  0  0  0  0  0
  194.6320  173.1880  138.1770 O   0  0  0  0  0  0  0  0  0  0  0  0
  194.8230  174.4170  137.9690 C   0  0  0  0  0  0  0  0  0  0  0  0
  196.4140  174.7310  139.8160 C   0  0  0  0  0  1  0  0  0  0  0  0
  195.9110  175.0790  138.5360 O   0  0  0  0  0  0  0  0  0  0  0  0
  189.0180  176.5710  139.2300 O   0  0  0  0  0  0  0  0  0  0  0  0
  188.2610  177.3530  138.3160 C   0  0  0  0  0  2  0  0  0  0  0  0
  187.3940  178.3370  139.0780 C   0  0  0  0  0  2  0  0  0  0  0  0
  185.1350  178.6450  139.5580 C   0  0  0  0  0  1  0  0  0  0  0  0
  186.0720  178.3980  138.4780 N   0  0  0  0  0  2  0  0  0  0  0  0
  189.8100  177.5210  141.7040 O   0  0  0  0  0  0  0  0  0  0  0  0
  189.3630  176.5250  142.6140 C   0  0  0  0  0  2  0  0  0  0  0  0
  187.0920  177.5240  142.9430 C   0  0  0  0  0  3  0  0  0  0  0  0
  185.1410  178.7850  147.1060 O   0  0  0  0  0  0  0  0  0  0  0  0
  187.5090  177.6610  145.7220 C   0  0  0  0  0  3  0  0  0  0  0  0
  188.3080  177.0930  143.4950 C   0  0  0  0  0  0  0  0  0  0  0  0
  186.1000  178.0250  143.7880 C   0  0  0  0  0  0  0  0  0  0  0  0
  183.8130  179.0690  144.7880 S   0  0  0  0  0  0  0  0  0  0  0  0
  188.5120  177.1550  144.8830 C   0  0  0  0  0  3  0  0  0  0  0  0
  184.7700  178.5140  143.3160 C   0  0  0  0  0  2  0  0  0  0  0  0
  185.1750  178.6340  145.8570 C   0  0  0  0  0  0  0  0  0  0  0  0
  186.3100  178.0930  145.1500 C   0  0  0  0  0  0  0  0  0  0  0  0
  2  1  1  0  0  0  0
  2 18  1  0  0  0  0
  3  4  1  0  0  0  0
  4  1  2  0  0  0  0
  5  2  2  0  0  0  0
  6  3  2  0  0  0  0
  6  5  1  0  0  0  0
  7  3  1  0  0  0  0
  8  7  1  0  0  0  0
  8 10  1  0  0  0  0
 10  9  2  0  0  0  0
 10 12  1  0  0  0  0
 12 11  1  0  0  0  0
 13  5  1  0  0  0  0
 14 15  1  0  0  0  0
 14 13  1  0  0  0  0
 17 15  1  0  0  0  0
 17 16  1  0  0  0  0
 18 19  1  0  0  0  0
 19 23  1  0  0  0  0
 20 23  2  0  0  0  0
 20 24  1  0  0  0  0
 23 26  1  0  0  0  0
 24 29  2  0  0  0  0
 25 28  1  0  0  0  0
 26 22  2  0  0  0  0
 27 24  1  0  0  0  0
 27 25  1  0  0  0  0
 28 21  2  0  0  0  0
 29 22  1  0  0  0  0
 29 28  1  0  0  0  0
M  END
>  <MODEL>
4

>  <REMARK>
 VINA RESULT:      -7.3      4.519      8.533
  Name = 
  11 active torsions:
  status: ('A' for Active; 'I' for Inactive)
    1  A    between atoms: C_2  and  O_26
    2  A    between atoms: C_4  and  N_17
    3  A    between atoms: C_9  and  C_16
    4  A    between atoms: C_9  and  O_25
    5  A    between atoms: C_10  and  C_23
    6  A    between atoms: C_16  and  N_17
    7  A    between atoms: O_18  and  C_19
    8  A    between atoms: O_18  and  C_22
    9  A    between atoms: C_22  and  C_29
   10  A    between atoms: C_23  and  O_26
   11  A    between atoms: N_28  and  C_29
                            x       y       z     vdW  Elec       q    Type
                         _______ _______ _______ _____ _____    ______ ____

>  <TORSDO>
F 11

$$$$
=
 OpenBabel10232412303D

 29 31  0  0  0  0  0  0  0  0999 V2000
  188.7290  178.0460  138.4590 C   0  0  0  0  0  3  0  0  0  0  0  0
  189.0100  177.9950  139.8330 C   0  0  0  0  0  0  0  0  0  0  0  0
  190.6600  176.6570  137.9920 C   0  0  0  0  0  0  0  0  0  0  0  0
  189.5480  177.3810  137.5440 C   0  0  0  0  0  3  0  0  0  0  0  0
  190.1230  177.2720  140.2870 C   0  0  0  0  0  0  0  0  0  0  0  0
  190.9420  176.6060  139.3600 C   0  0  0  0  0  3  0  0  0  0  0  0
  191.5140  175.9670  137.0760 N   0  0  0  0  0  2  0  0  0  0  0  0
  192.4810  174.9670  137.4990 C   0  0  0  0  0  2  0  0  0  0  0  0
  194.0240  176.7330  137.1060 O   0  0  0  0  0  0  0  0  0  0  0  0
  193.8590  175.5040  137.3350 C   0  0  0  0  0  0  0  0  0  0  0  0
  195.2550  173.9110  138.5820 C   0  0  0  0  0  1  0  0  0  0  0  0
  194.9470  174.6350  137.4020 O   0  0  0  0  0  0  0  0  0  0  0  0
  190.3940  177.2270  141.6580 O   0  0  0  0  0  0  0  0  0  0  0  0
  191.6980  177.4180  142.1930 C   0  0  0  0  0  2  0  0  0  0  0  0
  191.6100  177.6380  143.6910 C   0  0  0  0  0  2  0  0  0  0  0  0
  191.7210  176.5200  145.7330 C   0  0  0  0  0  1  0  0  0  0  0  0
  191.2860  176.3860  144.3550 N   0  0  0  0  0  2  0  0  0  0  0  0
  188.2010  178.6540  140.7640 O   0  0  0  0  0  0  0  0  0  0  0  0
  186.8180  178.3660  140.9240 C   0  0  0  0  0  2  0  0  0  0  0  0
  187.4710  177.9410  143.3020 C   0  0  0  0  0  3  0  0  0  0  0  0
  184.6750  178.4570  147.1290 O   0  0  0  0  0  0  0  0  0  0  0  0
  184.8910  178.6400  144.1790 C   0  0  0  0  0  3  0  0  0  0  0  0
  186.4860  178.3070  142.3730 C   0  0  0  0  0  0  0  0  0  0  0  0
  187.1500  177.9210  144.6610 C   0  0  0  0  0  0  0  0  0  0  0  0
  187.2360  177.6740  147.3540 S   0  0  0  0  0  0  0  0  0  0  0  0
  185.2010  178.6630  142.8120 C   0  0  0  0  0  3  0  0  0  0  0  0
  188.1130  177.5470  145.7400 C   0  0  0  0  0  2  0  0  0  0  0  0
  185.7430  178.1870  146.5200 C   0  0  0  0  0  0  0  0  0  0  0  0
  185.8840  178.2630  145.0860 C   0  0  0  0  0  0  0  0  0  0  0  0
  1  2  1  0  0  0  0
  2  5  2  0  0  0  0
  2 18  1  0  0  0  0
  3  6  2  0  0  0  0
  4  3  1  0  0  0  0
  4  1  2  0  0  0  0
  5 13  1  0  0  0  0
  6  5  1  0  0  0  0
  7  8  1  0  0  0  0
  7  3  1  0  0  0  0
  9 10  2  0  0  0  0
 10 12  1  0  0  0  0
 10  8  1  0  0  0  0
 12 11  1  0  0  0  0
 13 14  1  0  0  0  0
 14 15  1  0  0  0  0
 15 17  1  0  0  0  0
 17 16  1  0  0  0  0
 18 19  1  0  0  0  0
 19 23  1  0  0  0  0
 20 24  1  0  0  0  0
 22 29  1  0  0  0  0
 23 26  1  0  0  0  0
 23 20  2  0  0  0  0
 24 29  2  0  0  0  0
 24 27  1  0  0  0  0
 26 22  2  0  0  0  0
 27 25  1  0  0  0  0
 28 21  2  0  0  0  0
 28 25  1  0  0  0  0
 29 28  1  0  0  0  0
M  END
>  <MODEL>
5

>  <REMARK>
 VINA RESULT:      -7.2      4.070      7.994
  Name = 
  11 active torsions:
  status: ('A' for Active; 'I' for Inactive)
    1  A    between atoms: C_2  and  O_26
    2  A    between atoms: C_4  and  N_17
    3  A    between atoms: C_9  and  C_16
    4  A    between atoms: C_9  and  O_25
    5  A    between atoms: C_10  and  C_23
    6  A    between atoms: C_16  and  N_17
    7  A    between atoms: O_18  and  C_19
    8  A    between atoms: O_18  and  C_22
    9  A    between atoms: C_22  and  C_29
   10  A    between atoms: C_23  and  O_26
   11  A    between atoms: N_28  and  C_29
                            x       y       z     vdW  Elec       q    Type
                         _______ _______ _______ _____ _____    ______ ____

>  <TORSDO>
F 11

$$$$
=
 OpenBabel10232412303D

 29 31  0  0  0  0  0  0  0  0999 V2000
  190.1450  177.3740  140.6150 C   0  0  0  0  0  3  0  0  0  0  0  0
  188.8870  177.9570  140.3960 C   0  0  0  0  0  0  0  0  0  0  0  0
  190.4120  177.0040  138.2350 C   0  0  0  0  0  0  0  0  0  0  0  0
  190.9020  176.9020  139.5430 C   0  0  0  0  0  3  0  0  0  0  0  0
  188.3900  178.0610  139.0870 C   0  0  0  0  0  0  0  0  0  0  0  0
  189.1590  177.5820  138.0130 C   0  0  0  0  0  3  0  0  0  0  0  0
  191.1680  176.5270  137.1190 N   0  0  0  0  0  2  0  0  0  0  0  0
  191.9820  175.3240  137.1730 C   0  0  0  0  0  2  0  0  0  0  0  0
  193.7760  176.8690  137.3880 O   0  0  0  0  0  0  0  0  0  0  0  0
  193.4220  175.6930  137.1050 C   0  0  0  0  0  0  0  0  0  0  0  0
  194.9710  173.8530  137.6140 C   0  0  0  0  0  1  0  0  0  0  0  0
  194.3560  174.7420  136.6950 O   0  0  0  0  0  0  0  0  0  0  0  0
  187.1360  178.6430  138.8790 O   0  0  0  0  0  0  0  0  0  0  0  0
  186.1590  178.0810  138.0120 C   0  0  0  0  0  2  0  0  0  0  0  0
  184.7720  178.5000  138.4610 C   0  0  0  0  0  2  0  0  0  0  0  0
  184.2620  178.8550  140.7070 C   0  0  0  0  0  1  0  0  0  0  0  0
  184.8750  179.4650  139.5420 N   0  0  0  0  0  2  0  0  0  0  0  0
  188.1140  178.4370  141.4570 O   0  0  0  0  0  0  0  0  0  0  0  0
  187.2140  177.6150  142.1890 C   0  0  0  0  0  2  0  0  0  0  0  0
  189.0190  177.2450  143.8820 C   0  0  0  0  0  3  0  0  0  0  0  0
  188.5220  177.4280  148.6200 O   0  0  0  0  0  0  0  0  0  0  0  0
  187.1920  177.6550  145.9810 C   0  0  0  0  0  3  0  0  0  0  0  0
  187.6710  177.5100  143.6000 C   0  0  0  0  0  0  0  0  0  0  0  0
  189.4370  177.1810  145.2120 C   0  0  0  0  0  0  0  0  0  0  0  0
  190.9000  176.9240  147.4740 S   0  0  0  0  0  0  0  0  0  0  0  0
  186.7610  177.7220  144.6490 C   0  0  0  0  0  3  0  0  0  0  0  0
  190.8430  176.9040  145.6330 C   0  0  0  0  0  2  0  0  0  0  0  0
  189.1510  177.2790  147.5390 C   0  0  0  0  0  0  0  0  0  0  0  0
  188.5370  177.3810  146.2380 C   0  0  0  0  0  0  0  0  0  0  0  0
  2  1  1  0  0  0  0
  2 18  1  0  0  0  0
  3  4  1  0  0  0  0
  4  1  2  0  0  0  0
  5  2  2  0  0  0  0
  6  3  2  0  0  0  0
  6  5  1  0  0  0  0
  7  8  1  0  0  0  0
  7  3  1  0  0  0  0
 10  8  1  0  0  0  0
 10  9  2  0  0  0  0
 12 10  1  0  0  0  0
 12 11  1  0  0  0  0
 13  5  1  0  0  0  0
 14 15  1  0  0  0  0
 14 13  1  0  0  0  0
 15 17  1  0  0  0  0
 17 16  1  0  0  0  0
 18 19  1  0  0  0  0
 19 23  1  0  0  0  0
 20 24  1  0  0  0  0
 22 29  1  0  0  0  0
 23 20  2  0  0  0  0
 23 26  1  0  0  0  0
 24 27  1  0  0  0  0
 24 29  2  0  0  0  0
 25 28  1  0  0  0  0
 26 22  2  0  0  0  0
 27 25  1  0  0  0  0
 28 21  2  0  0  0  0
 29 28  1  0  0  0  0
M  END
>  <MODEL>
6

>  <REMARK>
 VINA RESULT:      -7.1      3.824      7.217
  Name = 
  11 active torsions:
  status: ('A' for Active; 'I' for Inactive)
    1  A    between atoms: C_2  and  O_26
    2  A    between atoms: C_4  and  N_17
    3  A    between atoms: C_9  and  C_16
    4  A    between atoms: C_9  and  O_25
    5  A    between atoms: C_10  and  C_23
    6  A    between atoms: C_16  and  N_17
    7  A    between atoms: O_18  and  C_19
    8  A    between atoms: O_18  and  C_22
    9  A    between atoms: C_22  and  C_29
   10  A    between atoms: C_23  and  O_26
   11  A    between atoms: N_28  and  C_29
                            x       y       z     vdW  Elec       q    Type
                         _______ _______ _______ _____ _____    ______ ____

>  <TORSDO>
F 11

$$$$
=
 OpenBabel10232412303D

 29 31  0  0  0  0  0  0  0  0999 V2000
  182.6240  178.4090  141.4930 C   0  0  0  0  0  3  0  0  0  0  0  0
  184.0080  178.6050  141.6170 C   0  0  0  0  0  0  0  0  0  0  0  0
  182.6770  179.3120  139.2440 C   0  0  0  0  0  0  0  0  0  0  0  0
  181.9630  178.7600  140.3140 C   0  0  0  0  0  3  0  0  0  0  0  0
  184.7280  179.1600  140.5480 C   0  0  0  0  0  0  0  0  0  0  0  0
  184.0550  179.5100  139.3660 C   0  0  0  0  0  3  0  0  0  0  0  0
  182.0240  179.6800  138.0270 N   0  0  0  0  0  2  0  0  0  0  0  0
  180.7420  180.3660  137.9940 C   0  0  0  0  0  2  0  0  0  0  0  0
  181.5460  182.6010  138.1070 O   0  0  0  0  0  0  0  0  0  0  0  0
  180.9230  181.7340  137.4370 C   0  0  0  0  0  0  0  0  0  0  0  0
  180.7260  181.3410  135.0180 C   0  0  0  0  0  1  0  0  0  0  0  0
  180.3700  182.0480  136.1960 O   0  0  0  0  0  0  0  0  0  0  0  0
  186.1070  179.3510  140.6820 O   0  0  0  0  0  0  0  0  0  0  0  0
  187.0650  178.4140  140.2050 C   0  0  0  0  0  2  0  0  0  0  0  0
  188.1590  178.2280  141.2390 C   0  0  0  0  0  2  0  0  0  0  0  0
  190.0350  176.9030  141.6310 C   0  0  0  0  0  1  0  0  0  0  0  0
  189.3420  177.6660  140.6100 N   0  0  0  0  0  2  0  0  0  0  0  0
  184.6880  178.2600  142.7890 O   0  0  0  0  0  0  0  0  0  0  0  0
  184.2440  178.6510  144.0820 C   0  0  0  0  0  2  0  0  0  0  0  0
  186.5500  177.8670  144.6570 C   0  0  0  0  0  3  0  0  0  0  0  0
  188.5850  178.0160  148.9650 O   0  0  0  0  0  0  0  0  0  0  0  0
  186.1680  178.5880  147.3490 C   0  0  0  0  0  3  0  0  0  0  0  0
  185.3260  178.4140  145.0730 C   0  0  0  0  0  0  0  0  0  0  0  0
  187.5660  177.6800  145.5960 C   0  0  0  0  0  0  0  0  0  0  0  0
  189.8970  177.0610  146.8230 S   0  0  0  0  0  0  0  0  0  0  0  0
  185.1400  178.7810  146.4160 C   0  0  0  0  0  3  0  0  0  0  0  0
  188.9060  177.1060  145.2710 C   0  0  0  0  0  2  0  0  0  0  0  0
  188.5330  177.7700  147.7320 C   0  0  0  0  0  0  0  0  0  0  0  0
  187.3740  178.0330  146.9150 C   0  0  0  0  0  0  0  0  0  0  0  0
  1  2  1  0  0  0  0
  2 18  1  0  0  0  0
  3  6  2  0  0  0  0
  3  4  1  0  0  0  0
  4  1  2  0  0  0  0
  5 13  1  0  0  0  0
  5  2  2  0  0  0  0
  6  5  1  0  0  0  0
  7  3  1  0  0  0  0
  8  7  1  0  0  0  0
 10  8  1  0  0  0  0
 10  9  2  0  0  0  0
 11 12  1  0  0  0  0
 12 10  1  0  0  0  0
 14 13  1  0  0  0  0
 14 15  1  0  0  0  0
 17 15  1  0  0  0  0
 17 16  1  0  0  0  0
 18 19  1  0  0  0  0
 19 23  1  0  0  0  0
 20 23  2  0  0  0  0
 20 24  1  0  0  0  0
 23 26  1  0  0  0  0
 24 29  2  0  0  0  0
 25 28  1  0  0  0  0
 26 22  2  0  0  0  0
 27 24  1  0  0  0  0
 27 25  1  0  0  0  0
 28 21  2  0  0  0  0
 29 22  1  0  0  0  0
 29 28  1  0  0  0  0
M  END
>  <MODEL>
7

>  <REMARK>
 VINA RESULT:      -7.1      2.806      3.472
  Name = 
  11 active torsions:
  status: ('A' for Active; 'I' for Inactive)
    1  A    between atoms: C_2  and  O_26
    2  A    between atoms: C_4  and  N_17
    3  A    between atoms: C_9  and  C_16
    4  A    between atoms: C_9  and  O_25
    5  A    between atoms: C_10  and  C_23
    6  A    between atoms: C_16  and  N_17
    7  A    between atoms: O_18  and  C_19
    8  A    between atoms: O_18  and  C_22
    9  A    between atoms: C_22  and  C_29
   10  A    between atoms: C_23  and  O_26
   11  A    between atoms: N_28  and  C_29
                            x       y       z     vdW  Elec       q    Type
                         _______ _______ _______ _____ _____    ______ ____

>  <TORSDO>
F 11

$$$$
=
 OpenBabel10232412303D

 29 31  0  0  0  0  0  0  0  0999 V2000
  192.2640  177.3740  140.8530 C   0  0  0  0  0  3  0  0  0  0  0  0
  190.9220  177.0350  140.6210 C   0  0  0  0  0  0  0  0  0  0  0  0
  192.8120  176.8660  138.5480 C   0  0  0  0  0  0  0  0  0  0  0  0
  193.2030  177.2910  139.8240 C   0  0  0  0  0  3  0  0  0  0  0  0
  190.5260  176.6070  139.3450 C   0  0  0  0  0  0  0  0  0  0  0  0
  191.4770  176.5260  138.3150 C   0  0  0  0  0  3  0  0  0  0  0  0
  193.7540  176.7710  137.4760 N   0  0  0  0  0  2  0  0  0  0  0  0
  194.0690  175.5170  136.8110 C   0  0  0  0  0  2  0  0  0  0  0  0
  194.2890  173.5150  138.0750 O   0  0  0  0  0  0  0  0  0  0  0  0
  194.7970  174.6230  137.7510 C   0  0  0  0  0  0  0  0  0  0  0  0
  197.1680  174.2110  138.2530 C   0  0  0  0  0  1  0  0  0  0  0  0
  196.0150  175.0370  138.2880 O   0  0  0  0  0  0  0  0  0  0  0  0
  189.1860  176.2720  139.1240 O   0  0  0  0  0  0  0  0  0  0  0  0
  188.3930  176.8880  138.1170 C   0  0  0  0  0  2  0  0  0  0  0  0
  188.1880  178.3530  138.4510 C   0  0  0  0  0  2  0  0  0  0  0  0
  188.9230  178.2650  136.2420 C   0  0  0  0  0  1  0  0  0  0  0  0
  188.5140  179.1730  137.2970 N   0  0  0  0  0  2  0  0  0  0  0  0
  189.9670  177.1130  141.6400 O   0  0  0  0  0  0  0  0  0  0  0  0
  189.7590  176.0700  142.5830 C   0  0  0  0  0  2  0  0  0  0  0  0
  189.5880  176.7860  144.9750 C   0  0  0  0  0  3  0  0  0  0  0  0
  185.6980  178.4980  147.1340 O   0  0  0  0  0  0  0  0  0  0  0  0
  186.8740  177.4390  144.6280 C   0  0  0  0  0  3  0  0  0  0  0  0
  188.9690  176.5880  143.7320 C   0  0  0  0  0  0  0  0  0  0  0  0
  188.8380  177.3020  146.0340 C   0  0  0  0  0  0  0  0  0  0  0  0
  188.0310  178.2340  148.4420 S   0  0  0  0  0  0  0  0  0  0  0  0
  187.6160  176.9220  143.5580 C   0  0  0  0  0  3  0  0  0  0  0  0
  189.3880  177.5520  147.4000 C   0  0  0  0  0  2  0  0  0  0  0  0
  186.9030  178.1400  147.0610 C   0  0  0  0  0  0  0  0  0  0  0  0
  187.5080  177.6190  145.8600 C   0  0  0  0  0  0  0  0  0  0  0  0
  2  1  1  0  0  0  0
  2 18  1  0  0  0  0
  3  4  1  0  0  0  0
  4  1  2  0  0  0  0
  5  2  2  0  0  0  0
  6  3  2  0  0  0  0
  6  5  1  0  0  0  0
  7  3  1  0  0  0  0
  8  7  1  0  0  0  0
  8 10  1  0  0  0  0
 10  9  2  0  0  0  0
 10 12  1  0  0  0  0
 11 12  1  0  0  0  0
 13  5  1  0  0  0  0
 14 15  1  0  0  0  0
 14 13  1  0  0  0  0
 16 17  1  0  0  0  0
 17 15  1  0  0  0  0
 18 19  1  0  0  0  0
 19 23  1  0  0  0  0
 20 24  1  0  0  0  0
 22 29  1  0  0  0  0
 23 20  2  0  0  0  0
 24 27  1  0  0  0  0
 26 23  1  0  0  0  0
 26 22  2  0  0  0  0
 27 25  1  0  0  0  0
 28 21  2  0  0  0  0
 28 25  1  0  0  0  0
 29 24  2  0  0  0  0
 29 28  1  0  0  0  0
M  END
>  <MODEL>
8

>  <REMARK>
 VINA RESULT:      -7.1      4.557      8.476
  Name = 
  11 active torsions:
  status: ('A' for Active; 'I' for Inactive)
    1  A    between atoms: C_2  and  O_26
    2  A    between atoms: C_4  and  N_17
    3  A    between atoms: C_9  and  C_16
    4  A    between atoms: C_9  and  O_25
    5  A    between atoms: C_10  and  C_23
    6  A    between atoms: C_16  and  N_17
    7  A    between atoms: O_18  and  C_19
    8  A    between atoms: O_18  and  C_22
    9  A    between atoms: C_22  and  C_29
   10  A    between atoms: C_23  and  O_26
   11  A    between atoms: N_28  and  C_29
                            x       y       z     vdW  Elec       q    Type
                         _______ _______ _______ _____ _____    ______ ____

>  <TORSDO>
F 11

$$$$
=
 OpenBabel10232412303D

 29 31  0  0  0  0  0  0  0  0999 V2000
  184.8570  178.7690  139.9100 C   0  0  0  0  0  3  0  0  0  0  0  0
  186.0230  178.7720  140.6910 C   0  0  0  0  0  0  0  0  0  0  0  0
  186.1300  178.0460  137.9770 C   0  0  0  0  0  0  0  0  0  0  0  0
  184.9100  178.4080  138.5620 C   0  0  0  0  0  3  0  0  0  0  0  0
  187.2480  178.4120  140.1100 C   0  0  0  0  0  0  0  0  0  0  0  0
  187.2930  178.0500  138.7530 C   0  0  0  0  0  3  0  0  0  0  0  0
  186.2110  177.6740  136.5990 N   0  0  0  0  0  2  0  0  0  0  0  0
  185.2530  176.7830  135.9650 C   0  0  0  0  0  2  0  0  0  0  0  0
  186.3790  174.7450  135.4820 O   0  0  0  0  0  0  0  0  0  0  0  0
  185.6120  175.3700  136.2630 C   0  0  0  0  0  0  0  0  0  0  0  0
  183.6790  174.8080  137.6760 C   0  0  0  0  0  1  0  0  0  0  0  0
  185.0670  174.7460  137.3840 O   0  0  0  0  0  0  0  0  0  0  0  0
  188.4040  178.4170  140.8970 O   0  0  0  0  0  0  0  0  0  0  0  0
  189.0320  177.2260  141.3530 C   0  0  0  0  0  2  0  0  0  0  0  0
  190.3130  176.9920  140.5760 C   0  0  0  0  0  2  0  0  0  0  0  0
  191.4030  177.2330  142.6220 C   0  0  0  0  0  1  0  0  0  0  0  0
  191.4210  177.6620  141.2360 N   0  0  0  0  0  2  0  0  0  0  0  0
  185.9910  179.1290  142.0430 O   0  0  0  0  0  0  0  0  0  0  0  0
  185.1440  178.4900  142.9890 C   0  0  0  0  0  2  0  0  0  0  0  0
  187.1610  177.6890  144.2350 C   0  0  0  0  0  3  0  0  0  0  0  0
  187.8760  177.9980  148.9390 O   0  0  0  0  0  0  0  0  0  0  0  0
  186.0440  178.5410  146.6730 C   0  0  0  0  0  3  0  0  0  0  0  0
  185.8880  178.2780  144.2590 C   0  0  0  0  0  0  0  0  0  0  0  0
  187.8580  177.5260  145.4340 C   0  0  0  0  0  0  0  0  0  0  0  0
  189.7170  176.9210  147.3040 S   0  0  0  0  0  0  0  0  0  0  0  0
  185.3350  178.7100  145.4760 C   0  0  0  0  0  3  0  0  0  0  0  0
  189.2160  176.9120  145.5320 C   0  0  0  0  0  2  0  0  0  0  0  0
  188.1720  177.6960  147.7530 C   0  0  0  0  0  0  0  0  0  0  0  0
  187.3060  177.9440  146.6270 C   0  0  0  0  0  0  0  0  0  0  0  0
  1  2  1  0  0  0  0
  2 18  1  0  0  0  0
  3  4  1  0  0  0  0
  3  6  2  0  0  0  0
  4  1  2  0  0  0  0
  5  2  2  0  0  0  0
  5 13  1  0  0  0  0
  6  5  1  0  0  0  0
  7  3  1  0  0  0  0
  8 10  1  0  0  0  0
  8  7  1  0  0  0  0
  9 10  2  0  0  0  0
 10 12  1  0  0  0  0
 12 11  1  0  0  0  0
 13 14  1  0  0  0  0
 15 17  1  0  0  0  0
 15 14  1  0  0  0  0
 17 16  1  0  0  0  0
 18 19  1  0  0  0  0
 19 23  1  0  0  0  0
 20 23  2  0  0  0  0
 20 24  1  0  0  0  0
 23 26  1  0  0  0  0
 24 27  1  0  0  0  0
 24 29  2  0  0  0  0
 25 28  1  0  0  0  0
 26 22  2  0  0  0  0
 27 25  1  0  0  0  0
 28 21  2  0  0  0  0
 29 22  1  0  0  0  0
 29 28  1  0  0  0  0
M  END
>  <MODEL>
9

>  <REMARK>
 VINA RESULT:      -7.0      2.791      4.082
  Name = 
  11 active torsions:
  status: ('A' for Active; 'I' for Inactive)
    1  A    between atoms: C_2  and  O_26
    2  A    between atoms: C_4  and  N_17
    3  A    between atoms: C_9  and  C_16
    4  A    between atoms: C_9  and  O_25
    5  A    between atoms: C_10  and  C_23
    6  A    between atoms: C_16  and  N_17
    7  A    between atoms: O_18  and  C_19
    8  A    between atoms: O_18  and  C_22
    9  A    between atoms: C_22  and  C_29
   10  A    between atoms: C_23  and  O_26
   11  A    between atoms: N_28  and  C_29
                            x       y       z     vdW  Elec       q    Type
                         _______ _______ _______ _____ _____    ______ ____

>  <TORSDO>
F 11

$$$$
