=
 OpenBabel10232411183D

 50 58  0  0  1  0  0  0  0  0999 V2000
  189.5080  177.3220  139.1940 C   0  0  1  0  0  3  0  0  0  0  0  0
  184.5380  179.0500  138.8630 C   0  0  0  0  0  3  0  0  0  0  0  0
  187.1410  175.3700  137.2070 C   0  0  0  0  0  3  0  0  0  0  0  0
  181.7830  176.6650  137.9300 N   0  0  0  0  0  2  0  0  0  0  0  0
  186.9100  178.6110  138.4170 N   0  0  0  0  0  0  0  0  0  0  0  0
  185.5900  178.3880  138.2410 C   0  0  0  0  0  0  0  0  0  0  0  0
  188.5070  175.5120  137.7650 N   0  0  0  0  0  0  0  0  0  0  0  0
  184.1450  176.6480  137.4510 N   0  0  0  0  0  0  0  0  0  0  0  0
  183.0720  177.2770  138.0180 C   0  0  0  0  0  0  0  0  0  0  0  0
  185.3660  177.2380  137.5270 C   0  0  0  0  0  0  0  0  0  0  0  0
  187.4820  177.5940  137.7230 C   0  0  0  0  0  0  0  0  0  0  0  0
  186.5920  176.7490  137.1680 C   0  0  0  0  0  0  0  0  0  0  0  0
  188.6330  176.8770  138.1130 N   0  0  0  0  0  0  0  0  0  0  0  0
  183.2530  178.4930  138.7280 C   0  0  0  0  0  2  0  0  0  0  0  0
  180.5900  177.2440  138.5310 C   0  0  0  0  0  2  0  0  0  0  0  0
  180.1950  176.4260  139.7480 C   0  0  0  0  0  2  0  0  0  0  0  0
  181.1420  175.4510  139.9960 F   0  0  0  0  0  0  0  0  0  0  0  0
  188.3540  177.9380  141.2270 C   0  0  2  0  0  3  0  0  0  0  0  0
  188.9640  176.8900  140.5580 C   0  0  2  0  0  3  0  0  0  0  0  0
  190.9170  177.7870  142.4190 C   0  0  0  0  0  0  0  0  0  0  0  0
  189.7500  177.5830  141.6290 N   0  0  0  0  0  0  0  0  0  0  0  0
  191.9000  177.0100  142.2980 O   0  0  0  0  0  0  0  0  0  0  0  0
  187.3860  177.4120  142.2710 C   0  0  1  0  0  3  0  0  0  0  0  0
  186.8130  178.5630  143.0800 C   0  0  2  0  0  3  0  0  0  0  0  0
  185.9800  177.9220  141.9960 C   0  0  1  0  0  3  0  0  0  0  0  0
  185.9240  179.4200  142.2010 C   0  0  0  0  0  2  0  0  0  0  0  0
  190.9480  178.8940  143.4170 C   0  0  0  0  0  2  0  0  0  0  0  0
  190.9880  178.3280  144.8230 C   0  0  0  0  0  2  0  0  0  0  0  0
  189.6690  178.2890  145.3580 O   0  0  0  0  0  0  0  0  0  0  0  0
  189.3310  177.4350  146.4090 C   0  0  0  0  0  0  0  0  0  0  0  0
  190.0870  176.4780  146.7370 O   0  0  0  0  0  0  0  0  0  0  0  0
  188.0720  177.6860  147.1740 C   0  0  2  0  0  0  0  0  0  0  0  0
  188.1600  178.3460  148.4930 C   0  0  0  0  0  2  0  0  0  0  0  0
  188.0480  176.9430  148.3680 O   0  0  0  0  0  0  0  0  0  0  0  0
  186.7230  177.6340  146.4720 C   0  0  0  0  0  2  0  0  0  0  0  0
  185.9420  178.9230  146.6850 C   0  0  0  0  0  2  0  0  0  0  0  0
  184.1240  178.8130  145.4430 C   0  0  0  0  0  1  0  0  0  0  0  0
  184.5760  178.6460  146.7510 O   0  0  0  0  0  0  0  0  0  0  0  0
  190.8830  176.7790  138.9860 C   0  0  0  0  0  3  0  0  0  0  0  0
  191.4590  176.7910  137.7860 C   0  0  0  0  0  3  0  0  0  0  0  0
  192.7750  176.2730  137.5830 N   0  0  0  0  0  0  0  0  0  0  0  0
  193.5270  175.6760  138.5280 C   0  0  0  0  0  3  0  0  0  0  0  0
  193.4860  176.2720  136.4410 C   0  0  0  0  0  3  0  0  0  0  0  0
  194.6830  175.6630  136.7390 C   0  0  0  0  0  0  0  0  0  0  0  0
  194.7190  175.2800  138.0320 N   0  0  0  0  0  0  0  0  0  0  0  0
  196.4470  174.0860  136.0550 C   0  0  0  0  0  2  0  0  0  0  0  0
  195.7680  175.3940  135.7500 C   0  0  2  0  0  3  0  0  0  0  0  0
  197.8860  174.4410  135.8720 C   0  0  0  0  0  2  0  0  0  0  0  0
  196.7460  176.3970  135.8080 O   0  0  0  0  0  0  0  0  0  0  0  0
  197.8910  175.8050  135.3660 N   0  0  0  0  0  2  0  0  0  0  0  0
  1 39  1  6  0  0  0
  3  7  2  0  0  0  0
  4  9  1  0  0  0  0
  4 15  1  0  0  0  0
  6  5  1  0  0  0  0
  6  2  2  0  0  0  0
  7 13  1  0  0  0  0
  8 10  1  0  0  0  0
  8  9  2  0  0  0  0
  9 14  1  0  0  0  0
 10  6  1  0  0  0  0
 11 13  1  0  0  0  0
 11  5  2  0  0  0  0
 12  3  1  0  0  0  0
 12 10  2  0  0  0  0
 12 11  1  0  0  0  0
 13  1  1  0  0  0  0
 14  2  1  0  0  0  0
 15 16  1  0  0  0  0
 16 17  1  0  0  0  0
 18 21  1  1  0  0  0
 19  1  1  6  0  0  0
 19 18  1  0  0  0  0
 19 21  1  0  0  0  0
 20 27  1  0  0  0  0
 21 20  1  0  0  0  0
 22 20  2  0  0  0  0
 23 18  1  6  0  0  0
 23 24  1  0  0  0  0
 24 26  1  6  0  0  0
 25 26  1  6  0  0  0
 25 23  1  0  0  0  0
 25 24  1  0  0  0  0
 27 28  1  0  0  0  0
 28 29  1  0  0  0  0
 29 30  1  0  0  0  0
 30 31  2  0  0  0  0
 30 32  1  0  0  0  0
 32 35  1  6  0  0  0
 32 34  1  0  0  0  0
 32 33  1  0  0  0  0
 34 33  1  0  0  0  0
 35 36  1  0  0  0  0
 36 38  1  0  0  0  0
 37 38  1  0  0  0  0
 40 39  2  0  0  0  0
 41 40  1  0  0  0  0
 41 42  1  0  0  0  0
 43 44  2  0  0  0  0
 43 41  1  0  0  0  0
 44 45  1  0  0  0  0
 45 42  2  0  0  0  0
 47 49  1  0  0  0  0
 47 46  1  0  0  0  0
 47 44  1  1  0  0  0
 48 46  1  0  0  0  0
 50 49  1  0  0  0  0
 50 48  1  0  0  0  0
M  END
>  <MODEL>
1

>  <REMARK>
 VINA RESULT:      -7.7      0.000      0.000
  Name = 
  16 active torsions:
  status: ('A' for Active; 'I' for Inactive)
    1  A    between atoms: C_3  and  C_18
    2  A    between atoms: C_3  and  O_21
    3  A    between atoms: N_4  and  C_41
    4  A    between atoms: N_5  and  C_9
    5  A    between atoms: C_7  and  C_18
    6  A    between atoms: C_7  and  C_29
    7  A    between atoms: C_8  and  C_11
    8  A    between atoms: C_9  and  C_32
    9  A    between atoms: C_13  and  C_19
   10  A    between atoms: C_13  and  C_43
   11  A    between atoms: C_15  and  C_44
   12  A    between atoms: C_17  and  C_22
   13  A    between atoms: O_21  and  C_43
   14  A    between atoms: C_29  and  O_35
   15  A    between atoms: C_40  and  C_44
   16  A    between atoms: C_44  and  N_49
                            x       y       z     vdW  Elec       q    Type
                         _______ _______ _______ _____ _____    ______ ____

>  <TORSDO>
F 16

$$$$
=
 OpenBabel10232411183D

 50 58  0  0  1  0  0  0  0  0999 V2000
  187.5170  177.9660  137.6830 C   0  0  1  0  0  3  0  0  0  0  0  0
  191.9030  175.0500  137.9070 C   0  0  0  0  0  3  0  0  0  0  0  0
  189.4220  177.4930  134.5990 C   0  0  0  0  0  3  0  0  0  0  0  0
  194.5430  175.4290  135.2540 N   0  0  0  0  0  2  0  0  0  0  0  0
  189.5820  175.7880  137.6150 N   0  0  0  0  0  0  0  0  0  0  0  0
  190.8080  175.4600  137.1550 C   0  0  0  0  0  0  0  0  0  0  0  0
  188.2750  178.1270  135.2920 N   0  0  0  0  0  0  0  0  0  0  0  0
  192.1670  175.8330  135.2180 N   0  0  0  0  0  0  0  0  0  0  0  0
  193.2700  175.4080  135.9040 C   0  0  0  0  0  0  0  0  0  0  0  0
  190.9580  175.8020  135.8350 C   0  0  0  0  0  0  0  0  0  0  0  0
  188.9660  176.2750  136.5070 C   0  0  0  0  0  0  0  0  0  0  0  0
  189.7530  176.2960  135.4150 C   0  0  0  0  0  0  0  0  0  0  0  0
  188.0830  177.3750  136.4740 N   0  0  0  0  0  0  0  0  0  0  0  0
  193.1520  175.0030  137.2600 C   0  0  0  0  0  2  0  0  0  0  0  0
  195.7750  175.0260  135.9160 C   0  0  0  0  0  2  0  0  0  0  0  0
  196.2400  173.6980  135.3430 C   0  0  0  0  0  2  0  0  0  0  0  0
  197.5660  173.7800  134.9620 F   0  0  0  0  0  0  0  0  0  0  0  0
  185.2100  177.4740  137.1560 C   0  0  2  0  0  3  0  0  0  0  0  0
  186.2160  177.2670  138.0840 C   0  0  2  0  0  3  0  0  0  0  0  0
  184.6160  179.3300  139.2090 C   0  0  0  0  0  0  0  0  0  0  0  0
  185.1870  178.3100  138.3950 N   0  0  0  0  0  0  0  0  0  0  0  0
  185.1100  179.5810  140.3390 O   0  0  0  0  0  0  0  0  0  0  0  0
  184.1520  176.3900  137.2660 C   0  0  1  0  0  3  0  0  0  0  0  0
  182.9000  176.8020  136.5120 C   0  0  2  0  0  3  0  0  0  0  0  0
  183.8500  175.8020  135.8970 C   0  0  1  0  0  3  0  0  0  0  0  0
  183.1830  176.8430  135.0240 C   0  0  0  0  0  2  0  0  0  0  0  0
  183.4080  180.0630  138.7330 C   0  0  0  0  0  2  0  0  0  0  0  0
  182.1550  179.2790  139.0700 C   0  0  0  0  0  2  0  0  0  0  0  0
  181.7700  179.5540  140.4130 O   0  0  0  0  0  0  0  0  0  0  0  0
  181.8950  178.5960  141.4210 C   0  0  0  0  0  0  0  0  0  0  0  0
  182.3770  177.4550  141.1760 O   0  0  0  0  0  0  0  0  0  0  0  0
  181.4840  178.9480  142.8140 C   0  0  2  0  0  0  0  0  0  0  0  0
  180.0450  178.9560  143.1510 C   0  0  0  0  0  2  0  0  0  0  0  0
  180.7430  180.1430  142.8380 O   0  0  0  0  0  0  0  0  0  0  0  0
  182.4990  178.9120  143.9470 C   0  0  0  0  0  2  0  0  0  0  0  0
  183.8440  179.4640  143.4970 C   0  0  0  0  0  2  0  0  0  0  0  0
  184.1990  178.7080  145.5370 C   0  0  0  0  0  1  0  0  0  0  0  0
  184.6880  179.6140  144.5980 O   0  0  0  0  0  0  0  0  0  0  0  0
  188.5120  177.8930  138.7930 C   0  0  0  0  0  3  0  0  0  0  0  0
  188.1280  177.8460  140.0670 C   0  0  0  0  0  3  0  0  0  0  0  0
  189.0780  177.7750  141.1320 N   0  0  0  0  0  0  0  0  0  0  0  0
  190.3490  177.3450  141.0110 C   0  0  0  0  0  3  0  0  0  0  0  0
  188.8920  178.1270  142.4170 C   0  0  0  0  0  3  0  0  0  0  0  0
  190.0880  177.8870  143.0540 C   0  0  0  0  0  0  0  0  0  0  0  0
  191.0050  177.4070  142.1880 N   0  0  0  0  0  0  0  0  0  0  0  0
  191.4240  177.2650  145.0280 C   0  0  0  0  0  2  0  0  0  0  0  0
  190.3600  178.1840  144.4900 C   0  0  2  0  0  3  0  0  0  0  0  0
  190.8580  176.8910  146.3580 C   0  0  0  0  0  2  0  0  0  0  0  0
  189.2060  177.9850  145.2610 O   0  0  0  0  0  0  0  0  0  0  0  0
  189.6590  177.6990  146.5140 N   0  0  0  0  0  2  0  0  0  0  0  0
  1 39  1  1  0  0  0
  3  7  2  0  0  0  0
  3 12  1  0  0  0  0
  4  9  1  0  0  0  0
  4 15  1  0  0  0  0
  6  5  1  0  0  0  0
  6  2  2  0  0  0  0
  7 13  1  0  0  0  0
  8 10  1  0  0  0  0
  8  9  2  0  0  0  0
  9 14  1  0  0  0  0
 10  6  1  0  0  0  0
 11  5  2  0  0  0  0
 12 10  2  0  0  0  0
 12 11  1  0  0  0  0
 13 11  1  0  0  0  0
 13  1  1  0  0  0  0
 14  2  1  0  0  0  0
 16 15  1  0  0  0  0
 17 16  1  0  0  0  0
 18 19  1  0  0  0  0
 18 21  1  1  0  0  0
 19  1  1  6  0  0  0
 19 21  1  0  0  0  0
 20 22  2  0  0  0  0
 21 20  1  0  0  0  0
 23 18  1  6  0  0  0
 24 26  1  6  0  0  0
 24 23  1  0  0  0  0
 25 26  1  6  0  0  0
 25 24  1  0  0  0  0
 25 23  1  0  0  0  0
 27 28  1  0  0  0  0
 27 20  1  0  0  0  0
 28 29  1  0  0  0  0
 29 30  1  0  0  0  0
 30 32  1  0  0  0  0
 31 30  2  0  0  0  0
 32 34  1  0  0  0  0
 32 33  1  0  0  0  0
 32 35  1  1  0  0  0
 34 33  1  0  0  0  0
 36 35  1  0  0  0  0
 36 38  1  0  0  0  0
 38 37  1  0  0  0  0
 39 40  2  0  0  0  0
 40 41  1  0  0  0  0
 41 43  1  0  0  0  0
 42 41  1  0  0  0  0
 42 45  2  0  0  0  0
 43 44  2  0  0  0  0
 45 44  1  0  0  0  0
 46 48  1  0  0  0  0
 47 44  1  6  0  0  0
 47 46  1  0  0  0  0
 47 49  1  0  0  0  0
 48 50  1  0  0  0  0
 49 50  1  0  0  0  0
M  END
>  <MODEL>
2

>  <REMARK>
 VINA RESULT:      -7.1      3.619      8.515
  Name = 
  16 active torsions:
  status: ('A' for Active; 'I' for Inactive)
    1  A    between atoms: C_3  and  C_18
    2  A    between atoms: C_3  and  O_21
    3  A    between atoms: N_4  and  C_41
    4  A    between atoms: N_5  and  C_9
    5  A    between atoms: C_7  and  C_18
    6  A    between atoms: C_7  and  C_29
    7  A    between atoms: C_8  and  C_11
    8  A    between atoms: C_9  and  C_32
    9  A    between atoms: C_13  and  C_19
   10  A    between atoms: C_13  and  C_43
   11  A    between atoms: C_15  and  C_44
   12  A    between atoms: C_17  and  C_22
   13  A    between atoms: O_21  and  C_43
   14  A    between atoms: C_29  and  O_35
   15  A    between atoms: C_40  and  C_44
   16  A    between atoms: C_44  and  N_49
                            x       y       z     vdW  Elec       q    Type
                         _______ _______ _______ _____ _____    ______ ____

>  <TORSDO>
F 16

$$$$
=
 OpenBabel10232411183D

 50 58  0  0  1  0  0  0  0  0999 V2000
  188.9950  177.6600  139.0590 C   0  0  1  0  0  3  0  0  0  0  0  0
  183.9260  179.1110  139.0320 C   0  0  0  0  0  3  0  0  0  0  0  0
  186.6240  175.5790  137.2130 C   0  0  0  0  0  3  0  0  0  0  0  0
  181.2560  176.5760  138.2610 N   0  0  0  0  0  2  0  0  0  0  0  0
  186.2880  178.8030  138.4430 N   0  0  0  0  0  0  0  0  0  0  0  0
  184.9740  178.5070  138.3460 C   0  0  0  0  0  0  0  0  0  0  0  0
  188.0110  175.7970  137.6880 N   0  0  0  0  0  0  0  0  0  0  0  0
  183.5820  176.6900  137.6400 N   0  0  0  0  0  0  0  0  0  0  0  0
  182.5120  177.2580  138.2730 C   0  0  0  0  0  0  0  0  0  0  0  0
  184.7710  177.3460  137.6450 C   0  0  0  0  0  0  0  0  0  0  0  0
  186.8720  177.8190  137.7130 C   0  0  0  0  0  0  0  0  0  0  0  0
  185.9990  176.9260  137.2100 C   0  0  0  0  0  0  0  0  0  0  0  0
  188.0830  177.1670  138.0310 N   0  0  0  0  0  0  0  0  0  0  0  0
  182.6680  178.4830  138.9740 C   0  0  0  0  0  2  0  0  0  0  0  0
  180.0710  177.0880  138.9340 C   0  0  0  0  0  2  0  0  0  0  0  0
  179.9830  176.4810  140.3240 C   0  0  0  0  0  2  0  0  0  0  0  0
  180.4510  177.3750  141.2670 F   0  0  0  0  0  0  0  0  0  0  0  0
  188.0550  178.1530  141.2310 C   0  0  2  0  0  3  0  0  0  0  0  0
  188.5950  177.1490  140.4450 C   0  0  2  0  0  3  0  0  0  0  0  0
  190.7260  177.9560  142.1430 C   0  0  0  0  0  0  0  0  0  0  0  0
  189.4850  177.7870  141.4670 N   0  0  0  0  0  0  0  0  0  0  0  0
  191.6940  177.1950  141.8790 O   0  0  0  0  0  0  0  0  0  0  0  0
  187.2000  177.5610  142.3370 C   0  0  1  0  0  3  0  0  0  0  0  0
  186.5660  178.6710  143.1570 C   0  0  2  0  0  3  0  0  0  0  0  0
  185.7390  177.9300  142.1340 C   0  0  1  0  0  3  0  0  0  0  0  0
  185.5520  179.4200  142.3170 C   0  0  0  0  0  2  0  0  0  0  0  0
  190.8570  179.0050  143.1940 C   0  0  0  0  0  2  0  0  0  0  0  0
  190.4860  178.4360  144.5490 C   0  0  0  0  0  2  0  0  0  0  0  0
  191.6480  177.8990  145.1740 O   0  0  0  0  0  0  0  0  0  0  0  0
  191.6530  176.6210  145.7350 C   0  0  0  0  0  0  0  0  0  0  0  0
  191.8350  175.5980  145.0160 O   0  0  0  0  0  0  0  0  0  0  0  0
  191.4760  176.4730  147.2110 C   0  0  2  0  0  0  0  0  0  0  0  0
  192.5670  175.8670  148.0010 C   0  0  0  0  0  2  0  0  0  0  0  0
  191.4450  175.1170  147.5840 O   0  0  0  0  0  0  0  0  0  0  0  0
  190.3990  177.2640  147.9380 C   0  0  0  0  0  2  0  0  0  0  0  0
  189.0090  176.8780  147.4510 C   0  0  0  0  0  2  0  0  0  0  0  0
  187.0650  177.5460  146.6550 C   0  0  0  0  0  1  0  0  0  0  0  0
  188.3300  178.0130  147.0060 O   0  0  0  0  0  0  0  0  0  0  0  0
  190.3920  177.2470  138.7340 C   0  0  0  0  0  3  0  0  0  0  0  0
  190.6630  176.0330  138.2600 C   0  0  0  0  0  3  0  0  0  0  0  0
  192.0000  175.6340  137.9470 N   0  0  0  0  0  0  0  0  0  0  0  0
  193.0810  176.4350  138.0020 C   0  0  0  0  0  3  0  0  0  0  0  0
  192.4190  174.4150  137.5620 C   0  0  0  0  0  3  0  0  0  0  0  0
  193.7800  174.5200  137.3850 C   0  0  0  0  0  0  0  0  0  0  0  0
  194.2060  175.7700  137.6620 N   0  0  0  0  0  0  0  0  0  0  0  0
  195.4770  173.7350  135.7810 C   0  0  0  0  0  2  0  0  0  0  0  0
  194.6770  173.3890  137.0080 C   0  0  2  0  0  3  0  0  0  0  0  0
  195.3860  172.4710  134.9930 C   0  0  0  0  0  2  0  0  0  0  0  0
  193.9260  172.2430  136.7090 O   0  0  0  0  0  0  0  0  0  0  0  0
  194.7030  171.5200  135.8560 N   0  0  0  0  0  2  0  0  0  0  0  0
  1 39  1  6  0  0  0
  3  7  2  0  0  0  0
  4  9  1  0  0  0  0
  4 15  1  0  0  0  0
  6  5  1  0  0  0  0
  6  2  2  0  0  0  0
  7 13  1  0  0  0  0
  8 10  1  0  0  0  0
  8  9  2  0  0  0  0
  9 14  1  0  0  0  0
 10  6  1  0  0  0  0
 11 13  1  0  0  0  0
 11  5  2  0  0  0  0
 12  3  1  0  0  0  0
 12 10  2  0  0  0  0
 12 11  1  0  0  0  0
 13  1  1  0  0  0  0
 14  2  1  0  0  0  0
 15 16  1  0  0  0  0
 16 17  1  0  0  0  0
 18 21  1  1  0  0  0
 19  1  1  6  0  0  0
 19 18  1  0  0  0  0
 19 21  1  0  0  0  0
 20 27  1  0  0  0  0
 21 20  1  0  0  0  0
 22 20  2  0  0  0  0
 23 18  1  6  0  0  0
 23 24  1  0  0  0  0
 24 26  1  6  0  0  0
 25 26  1  6  0  0  0
 25 23  1  0  0  0  0
 25 24  1  0  0  0  0
 27 28  1  0  0  0  0
 28 29  1  0  0  0  0
 29 30  1  0  0  0  0
 30 32  1  0  0  0  0
 31 30  2  0  0  0  0
 32 34  1  0  0  0  0
 32 35  1  1  0  0  0
 32 33  1  0  0  0  0
 34 33  1  0  0  0  0
 36 35  1  0  0  0  0
 37 38  1  0  0  0  0
 38 36  1  0  0  0  0
 40 39  2  0  0  0  0
 41 42  1  0  0  0  0
 41 40  1  0  0  0  0
 43 41  1  0  0  0  0
 44 43  2  0  0  0  0
 44 45  1  0  0  0  0
 45 42  2  0  0  0  0
 46 47  1  0  0  0  0
 47 44  1  6  0  0  0
 48 46  1  0  0  0  0
 48 50  1  0  0  0  0
 49 47  1  0  0  0  0
 50 49  1  0  0  0  0
M  END
>  <MODEL>
3

>  <REMARK>
 VINA RESULT:      -7.1      1.608      2.138
  Name = 
  16 active torsions:
  status: ('A' for Active; 'I' for Inactive)
    1  A    between atoms: C_3  and  C_18
    2  A    between atoms: C_3  and  O_21
    3  A    between atoms: N_4  and  C_41
    4  A    between atoms: N_5  and  C_9
    5  A    between atoms: C_7  and  C_18
    6  A    between atoms: C_7  and  C_29
    7  A    between atoms: C_8  and  C_11
    8  A    between atoms: C_9  and  C_32
    9  A    between atoms: C_13  and  C_19
   10  A    between atoms: C_13  and  C_43
   11  A    between atoms: C_15  and  C_44
   12  A    between atoms: C_17  and  C_22
   13  A    between atoms: O_21  and  C_43
   14  A    between atoms: C_29  and  O_35
   15  A    between atoms: C_40  and  C_44
   16  A    between atoms: C_44  and  N_49
                            x       y       z     vdW  Elec       q    Type
                         _______ _______ _______ _____ _____    ______ ____

>  <TORSDO>
F 16

$$$$
=
 OpenBabel10232411183D

 50 58  0  0  1  0  0  0  0  0999 V2000
  190.0790  175.9030  137.1660 C   0  0  1  0  0  3  0  0  0  0  0  0
  189.7170  176.2330  142.4150 C   0  0  0  0  0  3  0  0  0  0  0  0
  187.8850  178.4640  138.5760 C   0  0  0  0  0  3  0  0  0  0  0  0
  186.7320  177.8990  143.9860 N   0  0  0  0  0  2  0  0  0  0  0  0
  190.3760  176.5750  140.0770 N   0  0  0  0  0  0  0  0  0  0  0  0
  189.6960  176.9020  141.1970 C   0  0  0  0  0  0  0  0  0  0  0  0
  188.4200  177.7800  137.3750 N   0  0  0  0  0  0  0  0  0  0  0  0
  187.7700  178.1790  141.8280 N   0  0  0  0  0  0  0  0  0  0  0  0
  187.7650  177.5720  143.0530 C   0  0  0  0  0  0  0  0  0  0  0  0
  188.7590  177.8730  140.9490 C   0  0  0  0  0  0  0  0  0  0  0  0
  189.8680  177.4330  139.1550 C   0  0  0  0  0  0  0  0  0  0  0  0
  188.8990  178.2340  139.6370 C   0  0  0  0  0  0  0  0  0  0  0  0
  189.5970  177.1240  137.8060 N   0  0  0  0  0  0  0  0  0  0  0  0
  188.7450  176.5930  143.3670 C   0  0  0  0  0  2  0  0  0  0  0  0
  186.6280  177.2810  145.3000 C   0  0  0  0  0  2  0  0  0  0  0  0
  185.9370  178.2420  146.2520 C   0  0  0  0  0  2  0  0  0  0  0  0
  185.6620  179.4350  145.6110 F   0  0  0  0  0  0  0  0  0  0  0  0
  188.1380  175.3950  135.8180 C   0  0  2  0  0  3  0  0  0  0  0  0
  189.4790  175.7360  135.7680 C   0  0  2  0  0  3  0  0  0  0  0  0
  189.4360  172.9260  135.3430 C   0  0  0  0  0  0  0  0  0  0  0  0
  189.1190  174.2950  135.5700 N   0  0  0  0  0  0  0  0  0  0  0  0
  190.6290  172.5840  135.1320 O   0  0  0  0  0  0  0  0  0  0  0  0
  187.4480  175.7530  134.5140 C   0  0  1  0  0  3  0  0  0  0  0  0
  186.0570  175.1440  134.4750 C   0  0  2  0  0  3  0  0  0  0  0  0
  186.2230  176.6130  134.7800 C   0  0  1  0  0  3  0  0  0  0  0  0
  185.1730  175.8070  135.5120 C   0  0  0  0  0  2  0  0  0  0  0  0
  188.3430  171.9120  135.3130 C   0  0  0  0  0  2  0  0  0  0  0  0
  187.4290  172.0930  136.5080 C   0  0  0  0  0  2  0  0  0  0  0  0
  186.0910  172.2800  136.0590 O   0  0  0  0  0  0  0  0  0  0  0  0
  185.0230  172.3610  136.9540 C   0  0  0  0  0  0  0  0  0  0  0  0
  185.1560  172.9310  138.0740 O   0  0  0  0  0  0  0  0  0  0  0  0
  183.6970  171.7960  136.5590 C   0  0  2  0  0  0  0  0  0  0  0  0
  183.5720  170.3350  136.3780 C   0  0  0  0  0  2  0  0  0  0  0  0
  183.7570  171.2070  135.2830 O   0  0  0  0  0  0  0  0  0  0  0  0
  182.4310  172.6230  136.7200 C   0  0  0  0  0  2  0  0  0  0  0  0
  182.2590  173.5970  135.5620 C   0  0  0  0  0  2  0  0  0  0  0  0
  181.7900  174.7020  137.4120 C   0  0  0  0  0  1  0  0  0  0  0  0
  181.6990  174.7890  136.0240 O   0  0  0  0  0  0  0  0  0  0  0  0
  191.5700  175.9270  137.0930 C   0  0  0  0  0  3  0  0  0  0  0  0
  192.2910  174.8220  137.2680 C   0  0  0  0  0  3  0  0  0  0  0  0
  193.7190  174.8420  137.1980 N   0  0  0  0  0  0  0  0  0  0  0  0
  194.4380  175.3160  136.1630 C   0  0  0  0  0  3  0  0  0  0  0  0
  194.5880  174.4160  138.1320 C   0  0  0  0  0  3  0  0  0  0  0  0
  195.8430  174.6450  137.6160 C   0  0  0  0  0  0  0  0  0  0  0  0
  195.7640  175.2120  136.3940 N   0  0  0  0  0  0  0  0  0  0  0  0
  196.9600  174.6300  139.8120 C   0  0  0  0  0  2  0  0  0  0  0  0
  197.1210  174.3740  138.3380 C   0  0  2  0  0  3  0  0  0  0  0  0
  198.2220  175.3610  140.1320 C   0  0  0  0  0  2  0  0  0  0  0  0
  198.1370  175.2200  137.8740 O   0  0  0  0  0  0  0  0  0  0  0  0
  199.0130  175.3290  138.9120 N   0  0  0  0  0  2  0  0  0  0  0  0
  1 39  1  6  0  0  0
  1 13  1  0  0  0  0
  2 14  1  0  0  0  0
  3 12  1  0  0  0  0
  4 15  1  0  0  0  0
  5  6  1  0  0  0  0
  6  2  2  0  0  0  0
  7 13  1  0  0  0  0
  7  3  2  0  0  0  0
  8  9  2  0  0  0  0
  9 14  1  0  0  0  0
  9  4  1  0  0  0  0
 10  6  1  0  0  0  0
 10  8  1  0  0  0  0
 11 12  1  0  0  0  0
 11  5  2  0  0  0  0
 12 10  2  0  0  0  0
 13 11  1  0  0  0  0
 15 16  1  0  0  0  0
 17 16  1  0  0  0  0
 18 21  1  6  0  0  0
 19 18  1  0  0  0  0
 19  1  1  1  0  0  0
 20 21  1  0  0  0  0
 21 19  1  0  0  0  0
 22 20  2  0  0  0  0
 23 25  1  0  0  0  0
 23 18  1  1  0  0  0
 24 23  1  0  0  0  0
 24 25  1  0  0  0  0
 24 26  1  1  0  0  0
 25 26  1  1  0  0  0
 27 20  1  0  0  0  0
 27 28  1  0  0  0  0
 29 28  1  0  0  0  0
 29 30  1  0  0  0  0
 30 31  2  0  0  0  0
 32 35  1  1  0  0  0
 32 30  1  0  0  0  0
 33 32  1  0  0  0  0
 34 33  1  0  0  0  0
 34 32  1  0  0  0  0
 36 38  1  0  0  0  0
 36 35  1  0  0  0  0
 38 37  1  0  0  0  0
 39 40  2  0  0  0  0
 41 40  1  0  0  0  0
 41 43  1  0  0  0  0
 42 45  2  0  0  0  0
 42 41  1  0  0  0  0
 44 43  2  0  0  0  0
 45 44  1  0  0  0  0
 46 48  1  0  0  0  0
 47 44  1  6  0  0  0
 47 46  1  0  0  0  0
 49 47  1  0  0  0  0
 49 50  1  0  0  0  0
 50 48  1  0  0  0  0
M  END
>  <MODEL>
4

>  <REMARK>
 VINA RESULT:      -7.1      4.295      7.724
  Name = 
  16 active torsions:
  status: ('A' for Active; 'I' for Inactive)
    1  A    between atoms: C_3  and  C_18
    2  A    between atoms: C_3  and  O_21
    3  A    between atoms: N_4  and  C_41
    4  A    between atoms: N_5  and  C_9
    5  A    between atoms: C_7  and  C_18
    6  A    between atoms: C_7  and  C_29
    7  A    between atoms: C_8  and  C_11
    8  A    between atoms: C_9  and  C_32
    9  A    between atoms: C_13  and  C_19
   10  A    between atoms: C_13  and  C_43
   11  A    between atoms: C_15  and  C_44
   12  A    between atoms: C_17  and  C_22
   13  A    between atoms: O_21  and  C_43
   14  A    between atoms: C_29  and  O_35
   15  A    between atoms: C_40  and  C_44
   16  A    between atoms: C_44  and  N_49
                            x       y       z     vdW  Elec       q    Type
                         _______ _______ _______ _____ _____    ______ ____

>  <TORSDO>
F 16

$$$$
=
 OpenBabel10232411183D

 50 58  0  0  1  0  0  0  0  0999 V2000
  190.1760  177.8750  138.8670 C   0  0  1  0  0  3  0  0  0  0  0  0
  187.3370  177.0370  143.2290 C   0  0  0  0  0  3  0  0  0  0  0  0
  191.9710  177.2250  141.9840 C   0  0  0  0  0  3  0  0  0  0  0  0
  188.9050  177.5400  146.6110 N   0  0  0  0  0  2  0  0  0  0  0  0
  188.6380  176.7230  141.1730 N   0  0  0  0  0  0  0  0  0  0  0  0
  188.4960  176.7540  142.5150 C   0  0  0  0  0  0  0  0  0  0  0  0
  192.0250  177.5640  140.5420 N   0  0  0  0  0  0  0  0  0  0  0  0
  189.8630  176.9930  144.4680 N   0  0  0  0  0  0  0  0  0  0  0  0
  188.7500  177.2460  145.2210 C   0  0  0  0  0  0  0  0  0  0  0  0
  189.7110  176.7030  143.1500 C   0  0  0  0  0  0  0  0  0  0  0  0
  189.9780  176.5770  141.0160 C   0  0  0  0  0  0  0  0  0  0  0  0
  190.6600  176.5540  142.1760 C   0  0  0  0  0  0  0  0  0  0  0  0
  190.7620  177.1980  140.0200 N   0  0  0  0  0  0  0  0  0  0  0  0
  187.4680  177.2650  144.6120 C   0  0  0  0  0  2  0  0  0  0  0  0
  187.7820  177.8540  147.4830 C   0  0  0  0  0  2  0  0  0  0  0  0
  188.3080  178.2760  148.8440 C   0  0  0  0  0  2  0  0  0  0  0  0
  189.6870  178.3470  148.8220 F   0  0  0  0  0  0  0  0  0  0  0  0
  190.2500  175.7180  137.7780 C   0  0  2  0  0  3  0  0  0  0  0  0
  190.4090  177.0790  137.5800 C   0  0  2  0  0  3  0  0  0  0  0  0
  193.0560  176.0760  137.8350 C   0  0  0  0  0  0  0  0  0  0  0  0
  191.6460  176.2510  137.7470 N   0  0  0  0  0  0  0  0  0  0  0  0
  193.8240  177.0560  137.6510 O   0  0  0  0  0  0  0  0  0  0  0  0
  189.9530  175.0210  136.4630 C   0  0  1  0  0  3  0  0  0  0  0  0
  189.1540  173.7530  136.7130 C   0  0  2  0  0  3  0  0  0  0  0  0
  188.4550  174.9910  136.2040 C   0  0  1  0  0  3  0  0  0  0  0  0
  187.7710  174.1060  137.2240 C   0  0  0  0  0  2  0  0  0  0  0  0
  193.6160  174.7190  138.1010 C   0  0  0  0  0  2  0  0  0  0  0  0
  195.0240  174.8350  138.6510 C   0  0  0  0  0  2  0  0  0  0  0  0
  195.9170  174.0890  137.8300 O   0  0  0  0  0  0  0  0  0  0  0  0
  196.7110  174.7080  136.8620 C   0  0  0  0  0  0  0  0  0  0  0  0
  197.7640  175.3270  137.1850 O   0  0  0  0  0  0  0  0  0  0  0  0
  196.3210  174.6010  135.4240 C   0  0  2  0  0  0  0  0  0  0  0  0
  196.4840  173.3030  134.7370 C   0  0  0  0  0  2  0  0  0  0  0  0
  197.4400  174.3350  134.6140 O   0  0  0  0  0  0  0  0  0  0  0  0
  195.4260  175.6550  134.7900 C   0  0  0  0  0  2  0  0  0  0  0  0
  196.1790  176.9610  134.5770 C   0  0  0  0  0  2  0  0  0  0  0  0
  196.2890  179.1300  134.9520 C   0  0  0  0  0  1  0  0  0  0  0  0
  195.5120  178.0040  135.2190 O   0  0  0  0  0  0  0  0  0  0  0  0
  188.7160  178.0850  139.0930 C   0  0  0  0  0  3  0  0  0  0  0  0
  187.8320  177.9270  138.1100 C   0  0  0  0  0  3  0  0  0  0  0  0
  186.4330  178.1260  138.3240 N   0  0  0  0  0  0  0  0  0  0  0  0
  185.4600  177.7810  137.4590 C   0  0  0  0  0  3  0  0  0  0  0  0
  185.8400  178.6670  139.4040 C   0  0  0  0  0  3  0  0  0  0  0  0
  184.4880  178.6380  139.1490 C   0  0  0  0  0  0  0  0  0  0  0  0
  184.2370  178.0830  137.9450 N   0  0  0  0  0  0  0  0  0  0  0  0
  182.9260  177.9330  140.9180 C   0  0  0  0  0  2  0  0  0  0  0  0
  183.4350  179.0920  140.1030 C   0  0  2  0  0  3  0  0  0  0  0  0
  181.4520  178.1750  140.9010 C   0  0  0  0  0  2  0  0  0  0  0  0
  182.3410  179.6300  139.4100 O   0  0  0  0  0  0  0  0  0  0  0  0
  181.2740  179.4580  140.2390 N   0  0  0  0  0  2  0  0  0  0  0  0
  1 39  1  1  0  0  0
  1 13  1  0  0  0  0
  2 14  1  0  0  0  0
  3 12  1  0  0  0  0
  4 15  1  0  0  0  0
  5  6  1  0  0  0  0
  6 10  1  0  0  0  0
  6  2  2  0  0  0  0
  7  3  2  0  0  0  0
  8  9  2  0  0  0  0
  9  4  1  0  0  0  0
 10  8  1  0  0  0  0
 11  5  2  0  0  0  0
 11 12  1  0  0  0  0
 12 10  2  0  0  0  0
 13  7  1  0  0  0  0
 13 11  1  0  0  0  0
 14  9  1  0  0  0  0
 15 16  1  0  0  0  0
 17 16  1  0  0  0  0
 18 21  1  6  0  0  0
 19 21  1  0  0  0  0
 19 18  1  0  0  0  0
 19  1  1  1  0  0  0
 20 27  1  0  0  0  0
 21 20  1  0  0  0  0
 22 20  2  0  0  0  0
 23 24  1  0  0  0  0
 23 18  1  1  0  0  0
 24 26  1  1  0  0  0
 25 23  1  0  0  0  0
 25 24  1  0  0  0  0
 25 26  1  1  0  0  0
 27 28  1  0  0  0  0
 29 28  1  0  0  0  0
 30 31  2  0  0  0  0
 30 29  1  0  0  0  0
 32 35  1  6  0  0  0
 32 30  1  0  0  0  0
 33 32  1  0  0  0  0
 34 33  1  0  0  0  0
 34 32  1  0  0  0  0
 36 35  1  0  0  0  0
 36 38  1  0  0  0  0
 37 38  1  0  0  0  0
 40 41  1  0  0  0  0
 40 39  2  0  0  0  0
 41 43  1  0  0  0  0
 42 45  2  0  0  0  0
 42 41  1  0  0  0  0
 44 43  2  0  0  0  0
 45 44  1  0  0  0  0
 47 44  1  6  0  0  0
 47 46  1  0  0  0  0
 48 46  1  0  0  0  0
 49 47  1  0  0  0  0
 49 50  1  0  0  0  0
 50 48  1  0  0  0  0
M  END
>  <MODEL>
5

>  <REMARK>
 VINA RESULT:      -6.8      3.820     10.385
  Name = 
  16 active torsions:
  status: ('A' for Active; 'I' for Inactive)
    1  A    between atoms: C_3  and  C_18
    2  A    between atoms: C_3  and  O_21
    3  A    between atoms: N_4  and  C_41
    4  A    between atoms: N_5  and  C_9
    5  A    between atoms: C_7  and  C_18
    6  A    between atoms: C_7  and  C_29
    7  A    between atoms: C_8  and  C_11
    8  A    between atoms: C_9  and  C_32
    9  A    between atoms: C_13  and  C_19
   10  A    between atoms: C_13  and  C_43
   11  A    between atoms: C_15  and  C_44
   12  A    between atoms: C_17  and  C_22
   13  A    between atoms: O_21  and  C_43
   14  A    between atoms: C_29  and  O_35
   15  A    between atoms: C_40  and  C_44
   16  A    between atoms: C_44  and  N_49
                            x       y       z     vdW  Elec       q    Type
                         _______ _______ _______ _____ _____    ______ ____

>  <TORSDO>
F 16

$$$$
=
 OpenBabel10232411183D

 50 58  0  0  1  0  0  0  0  0999 V2000
  189.9330  177.9280  138.8310 C   0  0  1  0  0  3  0  0  0  0  0  0
  187.4140  176.9950  143.3680 C   0  0  0  0  0  3  0  0  0  0  0  0
  191.9480  177.2970  141.8150 C   0  0  0  0  0  3  0  0  0  0  0  0
  189.1960  177.5100  146.6410 N   0  0  0  0  0  2  0  0  0  0  0  0
  188.5790  176.7240  141.2260 N   0  0  0  0  0  0  0  0  0  0  0  0
  188.5280  176.7430  142.5750 C   0  0  0  0  0  0  0  0  0  0  0  0
  191.8970  177.6470  140.3760 N   0  0  0  0  0  0  0  0  0  0  0  0
  190.0180  176.9990  144.4330 N   0  0  0  0  0  0  0  0  0  0  0  0
  188.9530  177.2210  145.2620 C   0  0  0  0  0  0  0  0  0  0  0  0
  189.7840  176.7150  143.1270 C   0  0  0  0  0  0  0  0  0  0  0  0
  189.9090  176.6100  140.9780 C   0  0  0  0  0  0  0  0  0  0  0  0
  190.6680  176.5940  142.0900 C   0  0  0  0  0  0  0  0  0  0  0  0
  190.6100  177.2560  139.9370 N   0  0  0  0  0  0  0  0  0  0  0  0
  187.6320  177.2160  144.7400 C   0  0  0  0  0  2  0  0  0  0  0  0
  188.1270  177.7910  147.5890 C   0  0  0  0  0  2  0  0  0  0  0  0
  188.7250  178.3730  148.8580 C   0  0  0  0  0  2  0  0  0  0  0  0
  190.1020  178.2730  148.8270 F   0  0  0  0  0  0  0  0  0  0  0  0
  190.0920  175.8670  137.5780 C   0  0  2  0  0  3  0  0  0  0  0  0
  190.2370  177.2410  137.4980 C   0  0  2  0  0  3  0  0  0  0  0  0
  192.8870  176.2570  137.7920 C   0  0  0  0  0  0  0  0  0  0  0  0
  191.4790  176.4190  137.6540 N   0  0  0  0  0  0  0  0  0  0  0  0
  193.6440  177.2600  137.7220 O   0  0  0  0  0  0  0  0  0  0  0  0
  189.8660  175.2740  136.1990 C   0  0  1  0  0  3  0  0  0  0  0  0
  189.8540  173.7570  136.2780 C   0  0  2  0  0  3  0  0  0  0  0  0
  188.5510  174.5100  136.1580 C   0  0  1  0  0  3  0  0  0  0  0  0
  188.6350  173.2890  137.0470 C   0  0  0  0  0  2  0  0  0  0  0  0
  193.4570  174.8910  137.9740 C   0  0  0  0  0  2  0  0  0  0  0  0
  193.5180  174.1690  136.6420 C   0  0  0  0  0  2  0  0  0  0  0  0
  194.8370  173.6770  136.4290 O   0  0  0  0  0  0  0  0  0  0  0  0
  195.9590  174.4880  136.6090 C   0  0  0  0  0  0  0  0  0  0  0  0
  195.9950  175.6590  136.1380 O   0  0  0  0  0  0  0  0  0  0  0  0
  197.1140  173.9670  137.4010 C   0  0  2  0  0  0  0  0  0  0  0  0
  198.0720  173.0530  136.7460 C   0  0  0  0  0  2  0  0  0  0  0  0
  197.0270  172.5730  137.5670 O   0  0  0  0  0  0  0  0  0  0  0  0
  197.5230  174.6460  138.6990 C   0  0  0  0  0  2  0  0  0  0  0  0
  196.3780  174.6510  139.7030 C   0  0  0  0  0  2  0  0  0  0  0  0
  197.6130  175.7520  141.1600 C   0  0  0  0  0  1  0  0  0  0  0  0
  196.4110  175.8240  140.4570 O   0  0  0  0  0  0  0  0  0  0  0  0
  188.4610  177.9520  139.0820 C   0  0  0  0  0  3  0  0  0  0  0  0
  187.5880  178.0150  138.0790 C   0  0  0  0  0  3  0  0  0  0  0  0
  186.1790  178.0380  138.3160 N   0  0  0  0  0  0  0  0  0  0  0  0
  185.2680  177.3080  137.6430 C   0  0  0  0  0  3  0  0  0  0  0  0
  185.5170  178.7620  139.2360 C   0  0  0  0  0  3  0  0  0  0  0  0
  184.1860  178.4440  139.0850 C   0  0  0  0  0  0  0  0  0  0  0  0
  184.0180  177.5350  138.1020 N   0  0  0  0  0  0  0  0  0  0  0  0
  182.1040  177.8840  140.2750 C   0  0  0  0  0  2  0  0  0  0  0  0
  183.0840  178.9760  139.9380 C   0  0  2  0  0  3  0  0  0  0  0  0
  180.7970  178.5790  140.0820 C   0  0  0  0  0  2  0  0  0  0  0  0
  182.3770  179.9790  139.2600 O   0  0  0  0  0  0  0  0  0  0  0  0
  181.1300  179.9690  139.8090 N   0  0  0  0  0  2  0  0  0  0  0  0
  1 39  1  1  0  0  0
  1 13  1  0  0  0  0
  2 14  1  0  0  0  0
  3 12  1  0  0  0  0
  4 15  1  0  0  0  0
  5  6  1  0  0  0  0
  6 10  1  0  0  0  0
  6  2  2  0  0  0  0
  7  3  2  0  0  0  0
  8  9  2  0  0  0  0
  9  4  1  0  0  0  0
 10  8  1  0  0  0  0
 11  5  2  0  0  0  0
 11 12  1  0  0  0  0
 12 10  2  0  0  0  0
 13  7  1  0  0  0  0
 13 11  1  0  0  0  0
 14  9  1  0  0  0  0
 15 16  1  0  0  0  0
 17 16  1  0  0  0  0
 18 21  1  6  0  0  0
 19 18  1  0  0  0  0
 19 21  1  0  0  0  0
 19  1  1  1  0  0  0
 20 27  1  0  0  0  0
 21 20  1  0  0  0  0
 22 20  2  0  0  0  0
 23 24  1  0  0  0  0
 23 18  1  1  0  0  0
 24 26  1  1  0  0  0
 25 23  1  0  0  0  0
 25 24  1  0  0  0  0
 25 26  1  1  0  0  0
 28 27  1  0  0  0  0
 29 30  1  0  0  0  0
 29 28  1  0  0  0  0
 30 32  1  0  0  0  0
 31 30  2  0  0  0  0
 32 34  1  0  0  0  0
 32 35  1  1  0  0  0
 33 32  1  0  0  0  0
 33 34  1  0  0  0  0
 35 36  1  0  0  0  0
 36 38  1  0  0  0  0
 38 37  1  0  0  0  0
 40 41  1  0  0  0  0
 40 39  2  0  0  0  0
 41 43  1  0  0  0  0
 42 45  2  0  0  0  0
 42 41  1  0  0  0  0
 44 43  2  0  0  0  0
 45 44  1  0  0  0  0
 47 44  1  6  0  0  0
 47 46  1  0  0  0  0
 48 46  1  0  0  0  0
 49 50  1  0  0  0  0
 49 47  1  0  0  0  0
 50 48  1  0  0  0  0
M  END
>  <MODEL>
6

>  <REMARK>
 VINA RESULT:      -6.6      3.803     10.207
  Name = 
  16 active torsions:
  status: ('A' for Active; 'I' for Inactive)
    1  A    between atoms: C_3  and  C_18
    2  A    between atoms: C_3  and  O_21
    3  A    between atoms: N_4  and  C_41
    4  A    between atoms: N_5  and  C_9
    5  A    between atoms: C_7  and  C_18
    6  A    between atoms: C_7  and  C_29
    7  A    between atoms: C_8  and  C_11
    8  A    between atoms: C_9  and  C_32
    9  A    between atoms: C_13  and  C_19
   10  A    between atoms: C_13  and  C_43
   11  A    between atoms: C_15  and  C_44
   12  A    between atoms: C_17  and  C_22
   13  A    between atoms: O_21  and  C_43
   14  A    between atoms: C_29  and  O_35
   15  A    between atoms: C_40  and  C_44
   16  A    between atoms: C_44  and  N_49
                            x       y       z     vdW  Elec       q    Type
                         _______ _______ _______ _____ _____    ______ ____

>  <TORSDO>
F 16

$$$$
=
 OpenBabel10232411183D

 50 58  0  0  1  0  0  0  0  0999 V2000
  189.9540  178.0230  138.7920 C   0  0  1  0  0  3  0  0  0  0  0  0
  187.3300  177.1810  143.2870 C   0  0  0  0  0  3  0  0  0  0  0  0
  191.8960  177.2970  141.8030 C   0  0  0  0  0  3  0  0  0  0  0  0
  189.0830  177.6090  146.5880 N   0  0  0  0  0  2  0  0  0  0  0  0
  188.5150  176.8690  141.1620 N   0  0  0  0  0  0  0  0  0  0  0  0
  188.4440  176.8860  142.5100 C   0  0  0  0  0  0  0  0  0  0  0  0
  191.8810  177.6540  140.3640 N   0  0  0  0  0  0  0  0  0  0  0  0
  189.9160  177.0720  144.3910 N   0  0  0  0  0  0  0  0  0  0  0  0
  188.8490  177.3360  145.2050 C   0  0  0  0  0  0  0  0  0  0  0  0
  189.6890  176.8020  143.0800 C   0  0  0  0  0  0  0  0  0  0  0  0
  189.8430  176.7000  140.9330 C   0  0  0  0  0  0  0  0  0  0  0  0
  190.5840  176.6480  142.0560 C   0  0  0  0  0  0  0  0  0  0  0  0
  190.5850  177.3190  139.9050 N   0  0  0  0  0  0  0  0  0  0  0  0
  187.5370  177.3880  144.6640 C   0  0  0  0  0  2  0  0  0  0  0  0
  188.0130  177.9320  147.5220 C   0  0  0  0  0  2  0  0  0  0  0  0
  188.6180  178.4110  148.8300 C   0  0  0  0  0  2  0  0  0  0  0  0
  189.9820  178.1890  148.8350 F   0  0  0  0  0  0  0  0  0  0  0  0
  190.0420  175.9530  137.5470 C   0  0  2  0  0  3  0  0  0  0  0  0
  190.2360  177.3210  137.4620 C   0  0  2  0  0  3  0  0  0  0  0  0
  192.8480  176.2430  137.7670 C   0  0  0  0  0  0  0  0  0  0  0  0
  191.4480  176.4550  137.6250 N   0  0  0  0  0  0  0  0  0  0  0  0
  193.6420  177.2170  137.6960 O   0  0  0  0  0  0  0  0  0  0  0  0
  189.7980  175.3630  136.1700 C   0  0  1  0  0  3  0  0  0  0  0  0
  190.0710  173.8690  136.1860 C   0  0  2  0  0  3  0  0  0  0  0  0
  188.6470  174.3700  136.2140 C   0  0  1  0  0  3  0  0  0  0  0  0
  189.0370  173.1630  137.0400 C   0  0  0  0  0  2  0  0  0  0  0  0
  193.3690  174.8580  137.9560 C   0  0  0  0  0  2  0  0  0  0  0  0
  193.7750  174.2670  136.6210 C   0  0  0  0  0  2  0  0  0  0  0  0
  195.1040  173.7630  136.7080 O   0  0  0  0  0  0  0  0  0  0  0  0
  196.2030  174.6150  136.8240 C   0  0  0  0  0  0  0  0  0  0  0  0
  196.2700  175.6830  136.1520 O   0  0  0  0  0  0  0  0  0  0  0  0
  197.2950  174.2690  137.7830 C   0  0  2  0  0  0  0  0  0  0  0  0
  197.0640  174.4730  139.2280 C   0  0  0  0  0  2  0  0  0  0  0  0
  197.7690  175.4150  138.4460 O   0  0  0  0  0  0  0  0  0  0  0  0
  198.4460  173.3760  137.3470 C   0  0  0  0  0  2  0  0  0  0  0  0
  197.9370  172.1290  136.6370 C   0  0  0  0  0  2  0  0  0  0  0  0
  197.8370  170.0500  137.3630 C   0  0  0  0  0  1  0  0  0  0  0  0
  198.7390  171.0350  136.9640 O   0  0  0  0  0  0  0  0  0  0  0  0
  188.4830  178.1220  139.0280 C   0  0  0  0  0  3  0  0  0  0  0  0
  187.6130  178.0450  138.0240 C   0  0  0  0  0  3  0  0  0  0  0  0
  186.2040  178.1390  138.2460 N   0  0  0  0  0  0  0  0  0  0  0  0
  185.2640  177.4670  137.5550 C   0  0  0  0  0  3  0  0  0  0  0  0
  185.5710  178.8840  139.1700 C   0  0  0  0  0  3  0  0  0  0  0  0
  184.2280  178.6380  139.0010 C   0  0  0  0  0  0  0  0  0  0  0  0
  184.0230  177.7520  138.0040 N   0  0  0  0  0  0  0  0  0  0  0  0
  183.1550  178.5860  141.2180 C   0  0  0  0  0  2  0  0  0  0  0  0
  183.1450  179.2150  139.8500 C   0  0  2  0  0  3  0  0  0  0  0  0
  181.7000  178.3550  141.4560 C   0  0  0  0  0  2  0  0  0  0  0  0
  181.8870  178.9630  139.2830 O   0  0  0  0  0  0  0  0  0  0  0  0
  181.0160  178.9710  140.3300 N   0  0  0  0  0  2  0  0  0  0  0  0
  1 39  1  1  0  0  0
  1 13  1  0  0  0  0
  2 14  1  0  0  0  0
  3 12  1  0  0  0  0
  4 15  1  0  0  0  0
  5  6  1  0  0  0  0
  6 10  1  0  0  0  0
  6  2  2  0  0  0  0
  7  3  2  0  0  0  0
  8  9  2  0  0  0  0
  9  4  1  0  0  0  0
 10  8  1  0  0  0  0
 11  5  2  0  0  0  0
 11 12  1  0  0  0  0
 12 10  2  0  0  0  0
 13  7  1  0  0  0  0
 13 11  1  0  0  0  0
 14  9  1  0  0  0  0
 15 16  1  0  0  0  0
 16 17  1  0  0  0  0
 18 21  1  6  0  0  0
 19 18  1  0  0  0  0
 19 21  1  0  0  0  0
 19  1  1  1  0  0  0
 20 27  1  0  0  0  0
 21 20  1  0  0  0  0
 22 20  2  0  0  0  0
 23 24  1  0  0  0  0
 23 25  1  0  0  0  0
 23 18  1  1  0  0  0
 24 25  1  0  0  0  0
 24 26  1  1  0  0  0
 25 26  1  1  0  0  0
 28 29  1  0  0  0  0
 28 27  1  0  0  0  0
 29 30  1  0  0  0  0
 30 32  1  0  0  0  0
 31 30  2  0  0  0  0
 32 35  1  6  0  0  0
 32 34  1  0  0  0  0
 32 33  1  0  0  0  0
 34 33  1  0  0  0  0
 36 38  1  0  0  0  0
 36 35  1  0  0  0  0
 38 37  1  0  0  0  0
 40 41  1  0  0  0  0
 40 39  2  0  0  0  0
 41 43  1  0  0  0  0
 42 45  2  0  0  0  0
 42 41  1  0  0  0  0
 44 43  2  0  0  0  0
 45 44  1  0  0  0  0
 46 48  1  0  0  0  0
 47 44  1  6  0  0  0
 47 46  1  0  0  0  0
 49 47  1  0  0  0  0
 49 50  1  0  0  0  0
 50 48  1  0  0  0  0
M  END
>  <MODEL>
7

>  <REMARK>
 VINA RESULT:      -6.5      3.860     10.499
  Name = 
  16 active torsions:
  status: ('A' for Active; 'I' for Inactive)
    1  A    between atoms: C_3  and  C_18
    2  A    between atoms: C_3  and  O_21
    3  A    between atoms: N_4  and  C_41
    4  A    between atoms: N_5  and  C_9
    5  A    between atoms: C_7  and  C_18
    6  A    between atoms: C_7  and  C_29
    7  A    between atoms: C_8  and  C_11
    8  A    between atoms: C_9  and  C_32
    9  A    between atoms: C_13  and  C_19
   10  A    between atoms: C_13  and  C_43
   11  A    between atoms: C_15  and  C_44
   12  A    between atoms: C_17  and  C_22
   13  A    between atoms: O_21  and  C_43
   14  A    between atoms: C_29  and  O_35
   15  A    between atoms: C_40  and  C_44
   16  A    between atoms: C_44  and  N_49
                            x       y       z     vdW  Elec       q    Type
                         _______ _______ _______ _____ _____    ______ ____

>  <TORSDO>
F 16

$$$$
=
 OpenBabel10232411183D

 50 58  0  0  1  0  0  0  0  0999 V2000
  188.3040  178.1380  138.6810 C   0  0  1  0  0  3  0  0  0  0  0  0
  188.5990  176.7670  143.7630 C   0  0  0  0  0  3  0  0  0  0  0  0
  191.5890  177.2860  140.0400 C   0  0  0  0  0  3  0  0  0  0  0  0
  191.8800  177.0270  145.5860 N   0  0  0  0  0  2  0  0  0  0  0  0
  188.4180  176.7050  141.3180 N   0  0  0  0  0  0  0  0  0  0  0  0
  189.1020  176.6060  142.4770 C   0  0  0  0  0  0  0  0  0  0  0  0
  190.7800  177.7590  138.8920 N   0  0  0  0  0  0  0  0  0  0  0  0
  191.3660  176.7250  143.2510 N   0  0  0  0  0  0  0  0  0  0  0  0
  190.9240  176.8560  144.5380 C   0  0  0  0  0  0  0  0  0  0  0  0
  190.4550  176.5520  142.2590 C   0  0  0  0  0  0  0  0  0  0  0  0
  189.3990  176.6380  140.3820 C   0  0  0  0  0  0  0  0  0  0  0  0
  190.6370  176.5390  140.9030 C   0  0  0  0  0  0  0  0  0  0  0  0
  189.4490  177.3840  139.1860 N   0  0  0  0  0  0  0  0  0  0  0  0
  189.5310  176.8710  144.8130 C   0  0  0  0  0  2  0  0  0  0  0  0
  191.5010  177.2050  146.9810 C   0  0  0  0  0  2  0  0  0  0  0  0
  191.9920  176.0160  147.7890 C   0  0  0  0  0  2  0  0  0  0  0  0
  192.9880  175.3500  147.1010 F   0  0  0  0  0  0  0  0  0  0  0  0
  187.8800  176.0220  137.5920 C   0  0  2  0  0  3  0  0  0  0  0  0
  187.5890  177.3750  137.5630 C   0  0  2  0  0  3  0  0  0  0  0  0
  189.5750  177.0240  135.5600 C   0  0  0  0  0  0  0  0  0  0  0  0
  188.6160  176.8630  136.6000 N   0  0  0  0  0  0  0  0  0  0  0  0
  189.7300  178.1500  135.0180 O   0  0  0  0  0  0  0  0  0  0  0  0
  186.8030  175.2300  136.8730 C   0  0  1  0  0  3  0  0  0  0  0  0
  187.4330  174.1350  136.0300 C   0  0  2  0  0  3  0  0  0  0  0  0
  186.7950  173.7870  137.3530 C   0  0  1  0  0  3  0  0  0  0  0  0
  188.0700  173.0940  136.9270 C   0  0  0  0  0  2  0  0  0  0  0  0
  190.3560  175.8450  135.0880 C   0  0  0  0  0  2  0  0  0  0  0  0
  191.3080  175.3820  136.1730 C   0  0  0  0  0  2  0  0  0  0  0  0
  192.6200  175.8590  135.8910 O   0  0  0  0  0  0  0  0  0  0  0  0
  193.6440  175.7870  136.8360 C   0  0  0  0  0  0  0  0  0  0  0  0
  193.8570  176.7410  137.6360 O   0  0  0  0  0  0  0  0  0  0  0  0
  194.4710  174.5450  136.9190 C   0  0  2  0  0  0  0  0  0  0  0  0
  194.1080  173.3890  136.0730 C   0  0  0  0  0  2  0  0  0  0  0  0
  193.7220  173.4700  137.4290 O   0  0  0  0  0  0  0  0  0  0  0  0
  195.8590  174.5870  137.5400 C   0  0  0  0  0  2  0  0  0  0  0  0
  195.8220  174.1610  139.0010 C   0  0  0  0  0  2  0  0  0  0  0  0
  197.5190  175.2180  139.9290 C   0  0  0  0  0  1  0  0  0  0  0  0
  197.1200  173.9630  139.4720 O   0  0  0  0  0  0  0  0  0  0  0  0
  187.3600  178.4300  139.8000 C   0  0  0  0  0  3  0  0  0  0  0  0
  186.0410  178.4140  139.6160 C   0  0  0  0  0  3  0  0  0  0  0  0
  185.1340  178.6920  140.6860 N   0  0  0  0  0  0  0  0  0  0  0  0
  183.7940  178.5860  140.6120 C   0  0  0  0  0  3  0  0  0  0  0  0
  185.4410  179.0880  141.9340 C   0  0  0  0  0  3  0  0  0  0  0  0
  184.2410  179.2200  142.5960 C   0  0  0  0  0  0  0  0  0  0  0  0
  183.2090  178.9030  141.7870 N   0  0  0  0  0  0  0  0  0  0  0  0
  185.3820  179.3180  144.7770 C   0  0  0  0  0  2  0  0  0  0  0  0
  184.1010  179.5910  144.0340 C   0  0  2  0  0  3  0  0  0  0  0  0
  184.8760  178.6900  146.0340 C   0  0  0  0  0  2  0  0  0  0  0  0
  183.0930  178.8290  144.6430 O   0  0  0  0  0  0  0  0  0  0  0  0
  183.4260  178.7880  145.9640 N   0  0  0  0  0  2  0  0  0  0  0  0
  1 13  1  0  0  0  0
  1 39  1  1  0  0  0
  2 14  1  0  0  0  0
  3 12  1  0  0  0  0
  4 15  1  0  0  0  0
  5  6  1  0  0  0  0
  6  2  2  0  0  0  0
  7 13  1  0  0  0  0
  7  3  2  0  0  0  0
  8  9  2  0  0  0  0
  9 14  1  0  0  0  0
  9  4  1  0  0  0  0
 10  6  1  0  0  0  0
 10  8  1  0  0  0  0
 11 12  1  0  0  0  0
 11  5  2  0  0  0  0
 12 10  2  0  0  0  0
 13 11  1  0  0  0  0
 15 16  1  0  0  0  0
 17 16  1  0  0  0  0
 18 21  1  6  0  0  0
 19 18  1  0  0  0  0
 19  1  1  1  0  0  0
 20 21  1  0  0  0  0
 21 19  1  0  0  0  0
 22 20  2  0  0  0  0
 23 25  1  0  0  0  0
 23 18  1  1  0  0  0
 24 23  1  0  0  0  0
 24 26  1  1  0  0  0
 24 25  1  0  0  0  0
 25 26  1  1  0  0  0
 27 20  1  0  0  0  0
 27 28  1  0  0  0  0
 29 28  1  0  0  0  0
 29 30  1  0  0  0  0
 30 32  1  0  0  0  0
 30 31  2  0  0  0  0
 32 34  1  0  0  0  0
 32 35  1  1  0  0  0
 33 32  1  0  0  0  0
 33 34  1  0  0  0  0
 35 36  1  0  0  0  0
 36 38  1  0  0  0  0
 38 37  1  0  0  0  0
 40 39  2  0  0  0  0
 40 41  1  0  0  0  0
 41 43  1  0  0  0  0
 42 41  1  0  0  0  0
 42 45  2  0  0  0  0
 43 44  2  0  0  0  0
 45 44  1  0  0  0  0
 46 48  1  0  0  0  0
 47 44  1  6  0  0  0
 47 49  1  0  0  0  0
 47 46  1  0  0  0  0
 49 50  1  0  0  0  0
 50 48  1  0  0  0  0
M  END
>  <MODEL>
8

>  <REMARK>
 VINA RESULT:      -6.4      3.666     10.426
  Name = 
  16 active torsions:
  status: ('A' for Active; 'I' for Inactive)
    1  A    between atoms: C_3  and  C_18
    2  A    between atoms: C_3  and  O_21
    3  A    between atoms: N_4  and  C_41
    4  A    between atoms: N_5  and  C_9
    5  A    between atoms: C_7  and  C_18
    6  A    between atoms: C_7  and  C_29
    7  A    between atoms: C_8  and  C_11
    8  A    between atoms: C_9  and  C_32
    9  A    between atoms: C_13  and  C_19
   10  A    between atoms: C_13  and  C_43
   11  A    between atoms: C_15  and  C_44
   12  A    between atoms: C_17  and  C_22
   13  A    between atoms: O_21  and  C_43
   14  A    between atoms: C_29  and  O_35
   15  A    between atoms: C_40  and  C_44
   16  A    between atoms: C_44  and  N_49
                            x       y       z     vdW  Elec       q    Type
                         _______ _______ _______ _____ _____    ______ ____

>  <TORSDO>
F 16

$$$$
=
 OpenBabel10232411183D

 50 58  0  0  1  0  0  0  0  0999 V2000
  189.9740  177.9960  138.8380 C   0  0  1  0  0  3  0  0  0  0  0  0
  187.2880  177.0360  143.2720 C   0  0  0  0  0  3  0  0  0  0  0  0
  191.8770  177.2630  141.8710 C   0  0  0  0  0  3  0  0  0  0  0  0
  188.9740  177.4480  146.6100 N   0  0  0  0  0  2  0  0  0  0  0  0
  188.5170  176.7790  141.1640 N   0  0  0  0  0  0  0  0  0  0  0  0
  188.4220  176.7740  142.5110 C   0  0  0  0  0  0  0  0  0  0  0  0
  191.8790  177.6410  140.4380 N   0  0  0  0  0  0  0  0  0  0  0  0
  189.8560  176.9600  144.4200 N   0  0  0  0  0  0  0  0  0  0  0  0
  188.7700  177.1920  145.2180 C   0  0  0  0  0  0  0  0  0  0  0  0
  189.6580  176.7060  143.1010 C   0  0  0  0  0  0  0  0  0  0  0  0
  189.8510  176.6400  140.9560 C   0  0  0  0  0  0  0  0  0  0  0  0
  190.5730  176.5850  142.0910 C   0  0  0  0  0  0  0  0  0  0  0  0
  190.5990  177.2880  139.9510 N   0  0  0  0  0  0  0  0  0  0  0  0
  187.4670  177.2260  144.6550 C   0  0  0  0  0  2  0  0  0  0  0  0
  187.8820  177.7360  147.5290 C   0  0  0  0  0  2  0  0  0  0  0  0
  188.4500  178.2970  148.8210 C   0  0  0  0  0  2  0  0  0  0  0  0
  189.8250  178.3920  148.7370 F   0  0  0  0  0  0  0  0  0  0  0  0
  190.0340  175.8980  137.6400 C   0  0  2  0  0  3  0  0  0  0  0  0
  190.2100  177.2650  137.5140 C   0  0  2  0  0  3  0  0  0  0  0  0
  192.8440  176.2200  137.7400 C   0  0  0  0  0  0  0  0  0  0  0  0
  191.4370  176.4150  137.6490 N   0  0  0  0  0  0  0  0  0  0  0  0
  193.6230  177.2000  137.6130 O   0  0  0  0  0  0  0  0  0  0  0  0
  189.7420  175.2720  136.2880 C   0  0  1  0  0  3  0  0  0  0  0  0
  189.0840  173.9150  136.4720 C   0  0  2  0  0  3  0  0  0  0  0  0
  188.2430  175.1100  136.0910 C   0  0  1  0  0  3  0  0  0  0  0  0
  187.7010  174.0880  137.0660 C   0  0  0  0  0  2  0  0  0  0  0  0
  193.3870  174.8460  137.9410 C   0  0  0  0  0  2  0  0  0  0  0  0
  194.5370  174.5940  136.9850 C   0  0  0  0  0  2  0  0  0  0  0  0
  194.7750  173.1940  136.8880 O   0  0  0  0  0  0  0  0  0  0  0  0
  195.7660  172.5650  137.6440 C   0  0  0  0  0  0  0  0  0  0  0  0
  195.6600  172.4700  138.9000 O   0  0  0  0  0  0  0  0  0  0  0  0
  196.9460  171.9690  136.9480 C   0  0  2  0  0  0  0  0  0  0  0  0
  196.7980  170.6500  136.3000 C   0  0  0  0  0  2  0  0  0  0  0  0
  197.3670  170.7890  137.5850 O   0  0  0  0  0  0  0  0  0  0  0  0
  198.1340  172.8400  136.5690 C   0  0  0  0  0  2  0  0  0  0  0  0
  198.0510  174.2060  137.2360 C   0  0  0  0  0  2  0  0  0  0  0  0
  197.7890  175.4790  135.4550 C   0  0  0  0  0  1  0  0  0  0  0  0
  198.7060  175.1570  136.4530 O   0  0  0  0  0  0  0  0  0  0  0  0
  188.5110  178.1490  139.0950 C   0  0  0  0  0  3  0  0  0  0  0  0
  187.6190  178.0350  138.1140 C   0  0  0  0  0  3  0  0  0  0  0  0
  186.2180  178.1800  138.3580 N   0  0  0  0  0  0  0  0  0  0  0  0
  185.2400  177.7260  137.5510 C   0  0  0  0  0  3  0  0  0  0  0  0
  185.6290  178.7690  139.4140 C   0  0  0  0  0  3  0  0  0  0  0  0
  184.2730  178.6550  139.2060 C   0  0  0  0  0  0  0  0  0  0  0  0
  184.0170  178.0010  138.0540 N   0  0  0  0  0  0  0  0  0  0  0  0
  183.7010  178.9820  141.5790 C   0  0  0  0  0  2  0  0  0  0  0  0
  183.2250  179.1240  140.1590 C   0  0  2  0  0  3  0  0  0  0  0  0
  182.4900  178.4220  142.2500 C   0  0  0  0  0  2  0  0  0  0  0  0
  182.0610  178.3540  140.0270 O   0  0  0  0  0  0  0  0  0  0  0  0
  181.4440  178.4310  141.2400 N   0  0  0  0  0  2  0  0  0  0  0  0
  1 39  1  1  0  0  0
  1 13  1  0  0  0  0
  2 14  1  0  0  0  0
  3 12  1  0  0  0  0
  4 15  1  0  0  0  0
  5  6  1  0  0  0  0
  6 10  1  0  0  0  0
  6  2  2  0  0  0  0
  7  3  2  0  0  0  0
  8  9  2  0  0  0  0
  9  4  1  0  0  0  0
 10  8  1  0  0  0  0
 11  5  2  0  0  0  0
 11 12  1  0  0  0  0
 12 10  2  0  0  0  0
 13  7  1  0  0  0  0
 13 11  1  0  0  0  0
 14  9  1  0  0  0  0
 15 16  1  0  0  0  0
 17 16  1  0  0  0  0
 18 21  1  6  0  0  0
 19 18  1  0  0  0  0
 19 21  1  0  0  0  0
 19  1  1  1  0  0  0
 20 27  1  0  0  0  0
 21 20  1  0  0  0  0
 22 20  2  0  0  0  0
 23 24  1  0  0  0  0
 23 18  1  1  0  0  0
 24 26  1  1  0  0  0
 25 23  1  0  0  0  0
 25 24  1  0  0  0  0
 25 26  1  1  0  0  0
 28 27  1  0  0  0  0
 29 28  1  0  0  0  0
 29 30  1  0  0  0  0
 30 31  2  0  0  0  0
 32 35  1  6  0  0  0
 32 34  1  0  0  0  0
 32 30  1  0  0  0  0
 33 32  1  0  0  0  0
 33 34  1  0  0  0  0
 35 36  1  0  0  0  0
 37 38  1  0  0  0  0
 38 36  1  0  0  0  0
 40 41  1  0  0  0  0
 40 39  2  0  0  0  0
 41 43  1  0  0  0  0
 42 45  2  0  0  0  0
 42 41  1  0  0  0  0
 44 43  2  0  0  0  0
 45 44  1  0  0  0  0
 46 48  1  0  0  0  0
 47 44  1  6  0  0  0
 47 46  1  0  0  0  0
 49 47  1  0  0  0  0
 49 50  1  0  0  0  0
 50 48  1  0  0  0  0
M  END
>  <MODEL>
9

>  <REMARK>
 VINA RESULT:      -6.3      3.816     10.467
  Name = 
  16 active torsions:
  status: ('A' for Active; 'I' for Inactive)
    1  A    between atoms: C_3  and  C_18
    2  A    between atoms: C_3  and  O_21
    3  A    between atoms: N_4  and  C_41
    4  A    between atoms: N_5  and  C_9
    5  A    between atoms: C_7  and  C_18
    6  A    between atoms: C_7  and  C_29
    7  A    between atoms: C_8  and  C_11
    8  A    between atoms: C_9  and  C_32
    9  A    between atoms: C_13  and  C_19
   10  A    between atoms: C_13  and  C_43
   11  A    between atoms: C_15  and  C_44
   12  A    between atoms: C_17  and  C_22
   13  A    between atoms: O_21  and  C_43
   14  A    between atoms: C_29  and  O_35
   15  A    between atoms: C_40  and  C_44
   16  A    between atoms: C_44  and  N_49
                            x       y       z     vdW  Elec       q    Type
                         _______ _______ _______ _____ _____    ______ ____

>  <TORSDO>
F 16

$$$$
