=
 OpenBabel10222422103D

 29 33  0  0  1  0  0  0  0  0999 V2000
  192.1850  175.6350  147.7320 C   0  0  0  0  0  2  0  0  0  0  0  0
  191.6730  176.1370  145.5700 C   0  0  0  0  0  0  0  0  0  0  0  0
  192.5430  175.4140  146.3610 O   0  0  0  0  0  0  0  0  0  0  0  0
  188.3540  177.7270  141.5850 N   0  0  0  0  0  0  0  0  0  0  0  0
  190.6380  177.0310  143.5940 C   0  0  0  0  0  0  0  0  0  0  0  0
  189.8030  177.6200  145.8260 C   0  0  0  0  0  3  0  0  0  0  0  0
  190.6250  177.1270  142.1620 N   0  0  0  0  0  2  0  0  0  0  0  0
  187.9050  177.9190  142.9010 N   0  0  0  0  0  0  0  0  0  0  0  0
  190.7930  176.8010  146.3570 C   0  0  0  0  0  0  0  0  0  0  0  0
  189.5780  177.4620  141.2270 C   0  0  0  0  0  0  0  0  0  0  0  0
  191.0640  176.5290  147.6830 O   0  0  0  0  0  0  0  0  0  0  0  0
  189.7290  177.7360  144.4250 C   0  0  0  0  0  0  0  0  0  0  0  0
  188.7190  178.6490  143.8500 C   0  0  0  0  0  2  0  0  0  0  0  0
  191.6360  176.2290  144.1820 C   0  0  0  0  0  3  0  0  0  0  0  0
  189.8820  177.3870  139.7810 C   0  0  0  0  0  0  0  0  0  0  0  0
  190.9250  175.6220  138.4180 C   0  0  0  0  0  3  0  0  0  0  0  0
  189.1930  177.9040  137.4290 C   0  0  0  0  0  3  0  0  0  0  0  0
  189.7800  177.0940  135.2860 N   0  0  0  0  0  1  0  0  0  0  0  0
  189.8120  176.9640  136.7020 C   0  0  0  0  0  0  0  0  0  0  0  0
  190.3480  175.7520  137.2610 N   0  0  0  0  0  0  0  0  0  0  0  0
  191.1720  176.7760  139.3280 C   0  0  0  0  0  2  0  0  0  0  0  0
  189.0430  177.9380  138.8980 C   0  0  0  0  0  3  0  0  0  0  0  0
  186.5090  177.6760  143.2330 C   0  0  1  0  0  3  0  0  0  0  0  0
  185.1030  178.5280  145.1160 C   0  0  0  0  0  3  0  0  0  0  0  0
  184.0400  179.0090  144.1620 C   0  0  1  0  0  3  0  0  0  0  0  0
  186.2460  177.9660  144.6920 C   0  0  0  0  0  3  0  0  0  0  0  0
  185.5890  178.4570  142.2940 C   0  0  0  0  0  2  0  0  0  0  0  0
  184.1520  178.3520  142.7870 C   0  0  0  0  0  2  0  0  0  0  0  0
  182.7880  178.7770  144.6960 F   0  0  0  0  0  0  0  0  0  0  0  0
  2  9  1  0  0  0  0
  2  3  1  0  0  0  0
  3  1  1  0  0  0  0
  4  8  1  0  0  0  0
  5 14  1  0  0  0  0
  5 12  2  0  0  0  0
  6  9  2  0  0  0  0
  7  5  1  0  0  0  0
  8 23  1  0  0  0  0
  8 13  1  0  0  0  0
  9 11  1  0  0  0  0
 10  4  2  0  0  0  0
 10  7  1  0  0  0  0
 11  1  1  0  0  0  0
 12  6  1  0  0  0  0
 13 12  1  0  0  0  0
 14  2  2  0  0  0  0
 15 10  1  0  0  0  0
 16 21  1  0  0  0  0
 17 22  1  0  0  0  0
 18 19  1  0  0  0  0
 19 20  1  0  0  0  0
 19 17  2  0  0  0  0
 20 16  2  0  0  0  0
 21 15  1  0  0  0  0
 22 15  2  0  0  0  0
 23 27  1  6  0  0  0
 23 26  1  0  0  0  0
 25 29  1  1  0  0  0
 25 24  1  0  0  0  0
 26 24  2  0  0  0  0
 27 28  1  0  0  0  0
 28 25  1  0  0  0  0
M  END
>  <MODEL>
1

>  <REMARK>
 VINA RESULT:     -10.0      0.000      0.000
  Name = 
  2 active torsions:
  status: ('A' for Active; 'I' for Inactive)
    1  A    between atoms: C_1  and  N_17
    2  A    between atoms: C_3  and  C_23
                            x       y       z     vdW  Elec       q    Type
                         _______ _______ _______ _____ _____    ______ ____

>  <TORSDO>
F 2

$$$$
=
 OpenBabel10222422103D

 29 33  0  0  1  0  0  0  0  0999 V2000
  191.9920  176.1230  137.6030 C   0  0  0  0  0  2  0  0  0  0  0  0
  190.2160  176.8820  138.8120 C   0  0  0  0  0  0  0  0  0  0  0  0
  190.5820  176.3870  137.5760 O   0  0  0  0  0  0  0  0  0  0  0  0
  187.5440  177.9550  143.4090 N   0  0  0  0  0  0  0  0  0  0  0  0
  188.8240  177.7440  140.5700 C   0  0  0  0  0  0  0  0  0  0  0  0
  191.2330  177.4210  140.9180 C   0  0  0  0  0  3  0  0  0  0  0  0
  187.5200  178.1620  140.9990 N   0  0  0  0  0  2  0  0  0  0  0  0
  188.9070  177.6420  143.5230 N   0  0  0  0  0  0  0  0  0  0  0  0
  191.3060  176.9480  139.6130 C   0  0  0  0  0  0  0  0  0  0  0  0
  186.9240  178.2760  142.3080 C   0  0  0  0  0  0  0  0  0  0  0  0
  192.4140  176.4980  138.9220 O   0  0  0  0  0  0  0  0  0  0  0  0
  189.9740  177.8250  141.4000 C   0  0  0  0  0  0  0  0  0  0  0  0
  189.8920  178.3840  142.7650 C   0  0  0  0  0  2  0  0  0  0  0  0
  188.9560  177.2770  139.2480 C   0  0  0  0  0  3  0  0  0  0  0  0
  185.5010  178.6680  142.3970 C   0  0  0  0  0  0  0  0  0  0  0  0
  183.6160  178.3480  140.8460 C   0  0  0  0  0  3  0  0  0  0  0  0
  183.4530  178.9510  143.8110 C   0  0  0  0  0  3  0  0  0  0  0  0
  181.1310  179.1270  143.3960 N   0  0  0  0  0  1  0  0  0  0  0  0
  182.4440  178.8240  142.9390 C   0  0  0  0  0  0  0  0  0  0  0  0
  182.5900  178.2360  141.6350 N   0  0  0  0  0  0  0  0  0  0  0  0
  184.8000  179.1890  141.1810 C   0  0  0  0  0  2  0  0  0  0  0  0
  184.8750  178.6320  143.5780 C   0  0  0  0  0  3  0  0  0  0  0  0
  189.3690  176.8080  144.6230 C   0  0  1  0  0  3  0  0  0  0  0  0
  191.6370  176.5470  145.6390 C   0  0  0  0  0  3  0  0  0  0  0  0
  191.0960  176.8100  147.0210 C   0  0  1  0  0  3  0  0  0  0  0  0
  190.8620  176.5940  144.5440 C   0  0  0  0  0  3  0  0  0  0  0  0
  188.9180  177.3870  145.9640 C   0  0  0  0  0  2  0  0  0  0  0  0
  189.5830  176.6180  147.0980 C   0  0  0  0  0  2  0  0  0  0  0  0
  191.7240  175.9870  147.9360 F   0  0  0  0  0  0  0  0  0  0  0  0
  1 11  1  0  0  0  0
  2 14  2  0  0  0  0
  2  9  1  0  0  0  0
  3  1  1  0  0  0  0
  3  2  1  0  0  0  0
  4  8  1  0  0  0  0
  5  7  1  0  0  0  0
  5 12  2  0  0  0  0
  6 12  1  0  0  0  0
  7 10  1  0  0  0  0
  9  6  2  0  0  0  0
 10 15  1  0  0  0  0
 10  4  2  0  0  0  0
 11  9  1  0  0  0  0
 12 13  1  0  0  0  0
 13  8  1  0  0  0  0
 14  5  1  0  0  0  0
 15 22  2  0  0  0  0
 16 21  1  0  0  0  0
 16 20  2  0  0  0  0
 19 18  1  0  0  0  0
 19 17  2  0  0  0  0
 20 19  1  0  0  0  0
 21 15  1  0  0  0  0
 22 17  1  0  0  0  0
 23  8  1  6  0  0  0
 23 27  1  0  0  0  0
 24 25  1  0  0  0  0
 25 28  1  0  0  0  0
 25 29  1  1  0  0  0
 26 23  1  0  0  0  0
 26 24  2  0  0  0  0
 27 28  1  0  0  0  0
M  END
>  <MODEL>
2

>  <REMARK>
 VINA RESULT:      -9.9      3.456      6.878
  Name = 
  2 active torsions:
  status: ('A' for Active; 'I' for Inactive)
    1  A    between atoms: C_1  and  N_17
    2  A    between atoms: C_3  and  C_23
                            x       y       z     vdW  Elec       q    Type
                         _______ _______ _______ _____ _____    ______ ____

>  <TORSDO>
F 2

$$$$
=
 OpenBabel10222422103D

 29 33  0  0  1  0  0  0  0  0999 V2000
  191.6070  176.9130  147.8450 C   0  0  0  0  0  2  0  0  0  0  0  0
  189.7420  177.3210  146.6020 C   0  0  0  0  0  0  0  0  0  0  0  0
  190.3050  177.5150  147.8480 O   0  0  0  0  0  0  0  0  0  0  0  0
  187.0270  177.9860  141.9540 N   0  0  0  0  0  0  0  0  0  0  0  0
  188.1410  177.4220  144.8140 C   0  0  0  0  0  0  0  0  0  0  0  0
  190.2970  176.2890  144.5080 C   0  0  0  0  0  3  0  0  0  0  0  0
  186.8430  177.8360  144.3620 N   0  0  0  0  0  2  0  0  0  0  0  0
  188.3200  177.4500  141.8640 N   0  0  0  0  0  0  0  0  0  0  0  0
  190.6070  176.6340  145.8180 C   0  0  0  0  0  0  0  0  0  0  0  0
  186.3150  178.0850  143.0420 C   0  0  0  0  0  0  0  0  0  0  0  0
  191.7580  176.3610  146.5300 O   0  0  0  0  0  0  0  0  0  0  0  0
  189.0450  176.6870  144.0030 C   0  0  0  0  0  0  0  0  0  0  0  0
  188.6800  176.2770  142.6310 C   0  0  0  0  0  2  0  0  0  0  0  0
  188.4940  177.7290  146.1430 C   0  0  0  0  0  3  0  0  0  0  0  0
  184.9300  178.5910  142.9270 C   0  0  0  0  0  0  0  0  0  0  0  0
  183.2460  178.3580  141.1470 C   0  0  0  0  0  3  0  0  0  0  0  0
  182.7450  179.0920  144.0440 C   0  0  0  0  0  3  0  0  0  0  0  0
  180.5210  179.4330  143.3160 N   0  0  0  0  0  1  0  0  0  0  0  0
  181.8520  179.0100  143.0490 C   0  0  0  0  0  0  0  0  0  0  0  0
  182.1190  178.3600  141.7940 N   0  0  0  0  0  0  0  0  0  0  0  0
  184.4410  179.1160  141.6130 C   0  0  0  0  0  2  0  0  0  0  0  0
  184.1540  178.6530  144.0140 C   0  0  0  0  0  3  0  0  0  0  0  0
  189.2000  177.8610  140.7790 C   0  0  1  0  0  3  0  0  0  0  0  0
  190.8380  176.5540  139.4180 C   0  0  0  0  0  3  0  0  0  0  0  0
  190.2200  177.0370  138.1310 C   0  0  1  0  0  3  0  0  0  0  0  0
  190.3460  176.8890  140.6200 C   0  0  0  0  0  3  0  0  0  0  0  0
  188.4050  178.0630  139.4890 C   0  0  0  0  0  2  0  0  0  0  0  0
  189.3660  178.2880  138.3300 C   0  0  0  0  0  2  0  0  0  0  0  0
  191.2080  177.2830  137.1970 F   0  0  0  0  0  0  0  0  0  0  0  0
  1  3  1  0  0  0  0
  2  3  1  0  0  0  0
  4 10  2  0  0  0  0
  5 14  2  0  0  0  0
  6  9  1  0  0  0  0
  7  5  1  0  0  0  0
  8  4  1  0  0  0  0
  8 13  1  0  0  0  0
  9 11  1  0  0  0  0
  9  2  2  0  0  0  0
 10  7  1  0  0  0  0
 11  1  1  0  0  0  0
 12  6  2  0  0  0  0
 12  5  1  0  0  0  0
 13 12  1  0  0  0  0
 14  2  1  0  0  0  0
 15 10  1  0  0  0  0
 15 22  2  0  0  0  0
 16 21  1  0  0  0  0
 16 20  2  0  0  0  0
 19 18  1  0  0  0  0
 19 17  2  0  0  0  0
 20 19  1  0  0  0  0
 21 15  1  0  0  0  0
 22 17  1  0  0  0  0
 23 27  1  6  0  0  0
 23  8  1  0  0  0  0
 24 26  2  0  0  0  0
 25 29  1  6  0  0  0
 25 28  1  0  0  0  0
 25 24  1  0  0  0  0
 26 23  1  0  0  0  0
 28 27  1  0  0  0  0
M  END
>  <MODEL>
3

>  <REMARK>
 VINA RESULT:      -9.9      3.017      6.285
  Name = 
  2 active torsions:
  status: ('A' for Active; 'I' for Inactive)
    1  A    between atoms: C_1  and  N_17
    2  A    between atoms: C_3  and  C_23
                            x       y       z     vdW  Elec       q    Type
                         _______ _______ _______ _____ _____    ______ ____

>  <TORSDO>
F 2

$$$$
=
 OpenBabel10222422103D

 29 33  0  0  1  0  0  0  0  0999 V2000
  192.3930  175.6260  147.5090 C   0  0  0  0  0  2  0  0  0  0  0  0
  191.7610  175.9540  145.3450 C   0  0  0  0  0  0  0  0  0  0  0  0
  192.6210  175.2330  146.1490 O   0  0  0  0  0  0  0  0  0  0  0  0
  188.2980  177.4490  141.4470 N   0  0  0  0  0  0  0  0  0  0  0  0
  190.6610  176.7390  143.3590 C   0  0  0  0  0  0  0  0  0  0  0  0
  190.0590  177.6320  145.5650 C   0  0  0  0  0  3  0  0  0  0  0  0
  190.5440  176.6900  141.9290 N   0  0  0  0  0  2  0  0  0  0  0  0
  187.9740  177.8170  142.7610 N   0  0  0  0  0  0  0  0  0  0  0  0
  191.0090  176.7770  146.1140 C   0  0  0  0  0  0  0  0  0  0  0  0
  189.4620  177.0290  141.0360 C   0  0  0  0  0  0  0  0  0  0  0  0
  191.3560  176.6160  147.4400 O   0  0  0  0  0  0  0  0  0  0  0  0
  189.8860  177.6110  144.1680 C   0  0  0  0  0  0  0  0  0  0  0  0
  188.9210  178.5560  143.5680 C   0  0  0  0  0  2  0  0  0  0  0  0
  191.6250  175.9070  143.9620 C   0  0  0  0  0  3  0  0  0  0  0  0
  189.6440  176.7780  139.5910 C   0  0  0  0  0  0  0  0  0  0  0  0
  188.7610  177.9350  137.6050 C   0  0  0  0  0  3  0  0  0  0  0  0
  191.1650  176.0930  137.7220 C   0  0  0  0  0  3  0  0  0  0  0  0
  191.1610  176.3450  135.3700 N   0  0  0  0  0  1  0  0  0  0  0  0
  190.6360  176.6920  136.6450 C   0  0  0  0  0  0  0  0  0  0  0  0
  189.7010  177.7810  136.7220 N   0  0  0  0  0  0  0  0  0  0  0  0
  188.4780  176.9230  138.6620 C   0  0  0  0  0  2  0  0  0  0  0  0
  190.8250  176.3440  139.1360 C   0  0  0  0  0  3  0  0  0  0  0  0
  186.5910  177.7470  143.2120 C   0  0  1  0  0  3  0  0  0  0  0  0
  185.5170  178.5430  145.3240 C   0  0  0  0  0  3  0  0  0  0  0  0
  184.4680  179.3050  144.5550 C   0  0  1  0  0  3  0  0  0  0  0  0
  186.5100  177.8750  144.7150 C   0  0  0  0  0  3  0  0  0  0  0  0
  185.7340  178.7780  142.4770 C   0  0  0  0  0  2  0  0  0  0  0  0
  184.3480  178.8280  143.1080 C   0  0  0  0  0  2  0  0  0  0  0  0
  183.2470  179.1960  145.1910 F   0  0  0  0  0  0  0  0  0  0  0  0
  2  9  1  0  0  0  0
  2  3  1  0  0  0  0
  3  1  1  0  0  0  0
  4  8  1  0  0  0  0
  5 14  1  0  0  0  0
  5 12  2  0  0  0  0
  6  9  2  0  0  0  0
  7  5  1  0  0  0  0
  8 23  1  0  0  0  0
  8 13  1  0  0  0  0
  9 11  1  0  0  0  0
 10  4  2  0  0  0  0
 10  7  1  0  0  0  0
 11  1  1  0  0  0  0
 12  6  1  0  0  0  0
 13 12  1  0  0  0  0
 14  2  2  0  0  0  0
 15 10  1  0  0  0  0
 16 21  1  0  0  0  0
 17 22  1  0  0  0  0
 18 19  1  0  0  0  0
 19 20  1  0  0  0  0
 19 17  2  0  0  0  0
 20 16  2  0  0  0  0
 21 15  1  0  0  0  0
 22 15  2  0  0  0  0
 23 27  1  6  0  0  0
 23 26  1  0  0  0  0
 25 29  1  1  0  0  0
 25 24  1  0  0  0  0
 26 24  2  0  0  0  0
 27 28  1  0  0  0  0
 28 25  1  0  0  0  0
M  END
>  <MODEL>
4

>  <REMARK>
 VINA RESULT:      -9.8      0.712      1.227
  Name = 
  2 active torsions:
  status: ('A' for Active; 'I' for Inactive)
    1  A    between atoms: C_1  and  N_17
    2  A    between atoms: C_3  and  C_23
                            x       y       z     vdW  Elec       q    Type
                         _______ _______ _______ _____ _____    ______ ____

>  <TORSDO>
F 2

$$$$
=
 OpenBabel10222422103D

 29 33  0  0  1  0  0  0  0  0999 V2000
  181.8300  178.7180  141.4770 C   0  0  0  0  0  2  0  0  0  0  0  0
  183.8790  178.4650  142.4430 C   0  0  0  0  0  0  0  0  0  0  0  0
  182.5220  178.4080  142.6950 O   0  0  0  0  0  0  0  0  0  0  0  0
  189.2100  177.4710  142.3840 N   0  0  0  0  0  0  0  0  0  0  0  0
  186.2470  178.3460  142.8250 C   0  0  0  0  0  0  0  0  0  0  0  0
  185.3590  178.9290  140.6120 C   0  0  0  0  0  3  0  0  0  0  0  0
  187.3230  178.1250  143.7490 N   0  0  0  0  0  2  0  0  0  0  0  0
  188.5930  177.7010  141.1450 N   0  0  0  0  0  0  0  0  0  0  0  0
  184.0830  178.7920  141.1440 C   0  0  0  0  0  0  0  0  0  0  0  0
  188.6990  177.7350  143.5530 C   0  0  0  0  0  0  0  0  0  0  0  0
  182.8660  178.9580  140.5130 O   0  0  0  0  0  0  0  0  0  0  0  0
  186.4550  178.7040  141.4670 C   0  0  0  0  0  0  0  0  0  0  0  0
  187.8160  178.9030  140.9290 C   0  0  0  0  0  2  0  0  0  0  0  0
  184.9330  178.2390  143.3210 C   0  0  0  0  0  3  0  0  0  0  0  0
  189.5390  177.5120  144.7500 C   0  0  0  0  0  0  0  0  0  0  0  0
  188.9590  176.9370  147.0720 C   0  0  0  0  0  3  0  0  0  0  0  0
  191.6530  176.5900  145.7270 C   0  0  0  0  0  3  0  0  0  0  0  0
  192.3770  175.9720  147.8930 N   0  0  0  0  0  1  0  0  0  0  0  0
  191.3280  176.3320  147.0020 C   0  0  0  0  0  0  0  0  0  0  0  0
  189.9730  176.2290  147.4710 N   0  0  0  0  0  0  0  0  0  0  0  0
  189.0900  178.0390  146.0770 C   0  0  0  0  0  2  0  0  0  0  0  0
  190.7300  176.9160  144.6230 C   0  0  0  0  0  3  0  0  0  0  0  0
  188.9820  176.9140  139.9850 C   0  0  1  0  0  3  0  0  0  0  0  0
  189.0500  177.5020  137.5570 C   0  0  0  0  0  3  0  0  0  0  0  0
  190.4820  177.0450  137.4420 C   0  0  1  0  0  3  0  0  0  0  0  0
  188.3840  177.4870  138.7210 C   0  0  0  0  0  3  0  0  0  0  0  0
  190.5030  176.7730  139.9150 C   0  0  0  0  0  2  0  0  0  0  0  0
  190.8930  176.1280  138.5920 C   0  0  0  0  0  2  0  0  0  0  0  0
  190.6750  176.4030  136.2340 F   0  0  0  0  0  0  0  0  0  0  0  0
  1  3  1  0  0  0  0
  2  3  1  0  0  0  0
  2 14  1  0  0  0  0
  4 10  2  0  0  0  0
  5 14  2  0  0  0  0
  5  7  1  0  0  0  0
  6  9  1  0  0  0  0
  6 12  2  0  0  0  0
  8  4  1  0  0  0  0
  9  2  2  0  0  0  0
 10  7  1  0  0  0  0
 10 15  1  0  0  0  0
 11  9  1  0  0  0  0
 11  1  1  0  0  0  0
 12  5  1  0  0  0  0
 13  8  1  0  0  0  0
 13 12  1  0  0  0  0
 15 21  1  0  0  0  0
 16 20  2  0  0  0  0
 17 19  2  0  0  0  0
 19 20  1  0  0  0  0
 19 18  1  0  0  0  0
 21 16  1  0  0  0  0
 22 15  2  0  0  0  0
 22 17  1  0  0  0  0
 23 26  1  6  0  0  0
 23  8  1  0  0  0  0
 24 26  2  0  0  0  0
 25 29  1  6  0  0  0
 25 24  1  0  0  0  0
 25 28  1  0  0  0  0
 27 23  1  0  0  0  0
 28 27  1  0  0  0  0
M  END
>  <MODEL>
5

>  <REMARK>
 VINA RESULT:      -9.5      4.009      7.972
  Name = 
  2 active torsions:
  status: ('A' for Active; 'I' for Inactive)
    1  A    between atoms: C_1  and  N_17
    2  A    between atoms: C_3  and  C_23
                            x       y       z     vdW  Elec       q    Type
                         _______ _______ _______ _____ _____    ______ ____

>  <TORSDO>
F 2

$$$$
=
 OpenBabel10222422103D

 29 33  0  0  1  0  0  0  0  0999 V2000
  192.7290  176.0240  137.7900 C   0  0  0  0  0  2  0  0  0  0  0  0
  191.0880  176.5560  139.2780 C   0  0  0  0  0  0  0  0  0  0  0  0
  191.3220  175.9490  138.0610 O   0  0  0  0  0  0  0  0  0  0  0  0
  189.1820  177.7790  144.2070 N   0  0  0  0  0  0  0  0  0  0  0  0
  189.8910  177.3720  141.1950 C   0  0  0  0  0  0  0  0  0  0  0  0
  192.3200  177.6750  141.0070 C   0  0  0  0  0  3  0  0  0  0  0  0
  188.6330  177.5480  141.8620 N   0  0  0  0  0  2  0  0  0  0  0  0
  190.5750  177.8120  144.0370 N   0  0  0  0  0  0  0  0  0  0  0  0
  192.2580  177.0100  139.7890 C   0  0  0  0  0  0  0  0  0  0  0  0
  188.2970  177.7510  143.2510 C   0  0  0  0  0  0  0  0  0  0  0  0
  193.2880  176.7110  138.9190 O   0  0  0  0  0  0  0  0  0  0  0  0
  191.1190  177.8590  141.7170 C   0  0  0  0  0  0  0  0  0  0  0  0
  191.1630  178.6150  142.9860 C   0  0  0  0  0  2  0  0  0  0  0  0
  189.8790  176.7220  139.9450 C   0  0  0  0  0  3  0  0  0  0  0  0
  186.8670  177.8160  143.6220 C   0  0  0  0  0  0  0  0  0  0  0  0
  185.7460  178.4830  145.7100 C   0  0  0  0  0  3  0  0  0  0  0  0
  184.5120  178.3350  142.9460 C   0  0  0  0  0  3  0  0  0  0  0  0
  182.4960  178.8070  144.0900 N   0  0  0  0  0  1  0  0  0  0  0  0
  183.9090  178.6450  144.1020 C   0  0  0  0  0  0  0  0  0  0  0  0
  184.6230  178.9930  145.3010 N   0  0  0  0  0  0  0  0  0  0  0  0
  186.4360  177.3770  144.9870 C   0  0  0  0  0  2  0  0  0  0  0  0
  185.9610  178.1840  142.7100 C   0  0  0  0  0  3  0  0  0  0  0  0
  191.4450  177.3120  145.0910 C   0  0  1  0  0  3  0  0  0  0  0  0
  190.9840  176.8180  147.4970 C   0  0  0  0  0  3  0  0  0  0  0  0
  191.5500  175.4280  147.3660 C   0  0  1  0  0  3  0  0  0  0  0  0
  190.8910  177.6570  146.4540 C   0  0  0  0  0  3  0  0  0  0  0  0
  191.7010  175.8150  144.9120 C   0  0  0  0  0  2  0  0  0  0  0  0
  192.4370  175.2760  146.1310 C   0  0  0  0  0  2  0  0  0  0  0  0
  192.2630  175.1010  148.5030 F   0  0  0  0  0  0  0  0  0  0  0  0
  1  3  1  0  0  0  0
  1 11  1  0  0  0  0
  2  9  2  0  0  0  0
  2 14  1  0  0  0  0
  3  2  1  0  0  0  0
  5 12  1  0  0  0  0
  5  7  1  0  0  0  0
  6 12  2  0  0  0  0
  7 10  1  0  0  0  0
  8  4  1  0  0  0  0
  9  6  1  0  0  0  0
 10 15  1  0  0  0  0
 10  4  2  0  0  0  0
 11  9  1  0  0  0  0
 12 13  1  0  0  0  0
 13  8  1  0  0  0  0
 14  5  2  0  0  0  0
 15 21  1  0  0  0  0
 17 19  2  0  0  0  0
 18 19  1  0  0  0  0
 19 20  1  0  0  0  0
 20 16  2  0  0  0  0
 21 16  1  0  0  0  0
 22 17  1  0  0  0  0
 22 15  2  0  0  0  0
 23  8  1  6  0  0  0
 23 26  1  0  0  0  0
 25 24  1  0  0  0  0
 25 29  1  1  0  0  0
 26 24  2  0  0  0  0
 27 23  1  0  0  0  0
 27 28  1  0  0  0  0
 28 25  1  0  0  0  0
M  END
>  <MODEL>
6

>  <REMARK>
 VINA RESULT:      -9.3      3.579      7.065
  Name = 
  2 active torsions:
  status: ('A' for Active; 'I' for Inactive)
    1  A    between atoms: C_1  and  N_17
    2  A    between atoms: C_3  and  C_23
                            x       y       z     vdW  Elec       q    Type
                         _______ _______ _______ _____ _____    ______ ____

>  <TORSDO>
F 2

$$$$
=
 OpenBabel10222422103D

 29 33  0  0  1  0  0  0  0  0999 V2000
  182.9250  179.5320  144.7880 C   0  0  0  0  0  2  0  0  0  0  0  0
  184.5740  178.9640  143.3230 C   0  0  0  0  0  0  0  0  0  0  0  0
  183.4070  179.6910  143.4460 O   0  0  0  0  0  0  0  0  0  0  0  0
  189.5720  177.3220  142.0000 N   0  0  0  0  0  0  0  0  0  0  0  0
  186.5490  178.0270  142.3260 C   0  0  0  0  0  0  0  0  0  0  0  0
  185.9730  177.5470  144.6630 C   0  0  0  0  0  3  0  0  0  0  0  0
  187.3720  177.8770  141.1600 N   0  0  0  0  0  2  0  0  0  0  0  0
  189.1950  177.1930  143.3450 N   0  0  0  0  0  0  0  0  0  0  0  0
  184.8550  178.3570  144.5010 C   0  0  0  0  0  0  0  0  0  0  0  0
  188.7660  177.5370  140.9990 C   0  0  0  0  0  0  0  0  0  0  0  0
  183.8790  178.6710  145.4250 O   0  0  0  0  0  0  0  0  0  0  0  0
  186.8290  177.3800  143.5580 C   0  0  0  0  0  0  0  0  0  0  0  0
  187.9890  176.4770  143.7010 C   0  0  0  0  0  2  0  0  0  0  0  0
  185.3910  178.8200  142.2060 C   0  0  0  0  0  3  0  0  0  0  0  0
  189.3340  177.5480  139.6340 C   0  0  0  0  0  0  0  0  0  0  0  0
  190.9020  176.0240  138.5020 C   0  0  0  0  0  3  0  0  0  0  0  0
  189.0020  177.9880  137.1900 C   0  0  0  0  0  3  0  0  0  0  0  0
  190.1010  177.3400  135.1980 N   0  0  0  0  0  1  0  0  0  0  0  0
  189.8990  177.1870  136.5980 C   0  0  0  0  0  0  0  0  0  0  0  0
  190.5300  176.0760  137.2580 N   0  0  0  0  0  0  0  0  0  0  0  0
  190.7720  177.1840  139.4290 C   0  0  0  0  0  2  0  0  0  0  0  0
  188.5860  177.9630  138.6060 C   0  0  0  0  0  3  0  0  0  0  0  0
  190.1560  177.4900  144.3970 C   0  0  1  0  0  3  0  0  0  0  0  0
  189.8800  177.6140  146.8780 C   0  0  0  0  0  3  0  0  0  0  0  0
  191.0270  176.6610  147.0970 C   0  0  1  0  0  3  0  0  0  0  0  0
  189.4540  177.9530  145.6520 C   0  0  0  0  0  3  0  0  0  0  0  0
  191.0780  176.2930  144.6370 C   0  0  0  0  0  2  0  0  0  0  0  0
  191.9320  176.5490  145.8710 C   0  0  0  0  0  2  0  0  0  0  0  0
  191.7660  177.0580  148.1950 F   0  0  0  0  0  0  0  0  0  0  0  0
  1 11  1  0  0  0  0
  2  3  1  0  0  0  0
  2  9  1  0  0  0  0
  3  1  1  0  0  0  0
  4  8  1  0  0  0  0
  5 12  2  0  0  0  0
  7  5  1  0  0  0  0
  8 13  1  0  0  0  0
  9  6  2  0  0  0  0
  9 11  1  0  0  0  0
 10  7  1  0  0  0  0
 10  4  2  0  0  0  0
 12 13  1  0  0  0  0
 12  6  1  0  0  0  0
 14  5  1  0  0  0  0
 14  2  2  0  0  0  0
 15 10  1  0  0  0  0
 16 21  1  0  0  0  0
 17 22  1  0  0  0  0
 18 19  1  0  0  0  0
 19 17  2  0  0  0  0
 19 20  1  0  0  0  0
 20 16  2  0  0  0  0
 21 15  1  0  0  0  0
 22 15  2  0  0  0  0
 23  8  1  6  0  0  0
 23 27  1  0  0  0  0
 23 26  1  0  0  0  0
 24 25  1  0  0  0  0
 25 29  1  1  0  0  0
 26 24  2  0  0  0  0
 27 28  1  0  0  0  0
 28 25  1  0  0  0  0
M  END
>  <MODEL>
7

>  <REMARK>
 VINA RESULT:      -8.9      3.013      5.346
  Name = 
  2 active torsions:
  status: ('A' for Active; 'I' for Inactive)
    1  A    between atoms: C_1  and  N_17
    2  A    between atoms: C_3  and  C_23
                            x       y       z     vdW  Elec       q    Type
                         _______ _______ _______ _____ _____    ______ ____

>  <TORSDO>
F 2

$$$$
=
 OpenBabel10222422103D

 29 33  0  0  1  0  0  0  0  0999 V2000
  184.8720  178.2670  146.7140 C   0  0  0  0  0  2  0  0  0  0  0  0
  185.9830  178.1740  144.7270 C   0  0  0  0  0  0  0  0  0  0  0  0
  186.0800  177.8480  146.0650 O   0  0  0  0  0  0  0  0  0  0  0  0
  186.2960  178.1030  139.3120 N   0  0  0  0  0  0  0  0  0  0  0  0
  186.5790  178.3760  142.4080 C   0  0  0  0  0  0  0  0  0  0  0  0
  184.4250  179.2190  143.2300 C   0  0  0  0  0  3  0  0  0  0  0  0
  187.5540  178.1630  141.3770 N   0  0  0  0  0  2  0  0  0  0  0  0
  185.0610  178.4620  139.8730 N   0  0  0  0  0  0  0  0  0  0  0  0
  184.7900  178.7740  144.4950 C   0  0  0  0  0  0  0  0  0  0  0  0
  187.4350  178.0500  139.9430 C   0  0  0  0  0  0  0  0  0  0  0  0
  184.0770  178.8550  145.6740 O   0  0  0  0  0  0  0  0  0  0  0  0
  185.3340  179.0180  142.1750 C   0  0  0  0  0  0  0  0  0  0  0  0
  184.9820  179.5390  140.8370 C   0  0  0  0  0  2  0  0  0  0  0  0
  186.9110  177.9610  143.7130 C   0  0  0  0  0  3  0  0  0  0  0  0
  188.6520  177.7420  139.1630 C   0  0  0  0  0  0  0  0  0  0  0  0
  190.7160  176.5380  139.7570 C   0  0  0  0  0  3  0  0  0  0  0  0
  189.6690  177.0940  136.9670 C   0  0  0  0  0  3  0  0  0  0  0  0
  191.7310  176.1640  136.2760 N   0  0  0  0  0  1  0  0  0  0  0  0
  190.8130  176.4870  137.3130 C   0  0  0  0  0  0  0  0  0  0  0  0
  191.0810  175.9910  138.6360 N   0  0  0  0  0  0  0  0  0  0  0  0
  189.9950  177.8420  139.8180 C   0  0  0  0  0  2  0  0  0  0  0  0
  188.5520  177.4600  137.8600 C   0  0  0  0  0  3  0  0  0  0  0  0
  183.8250  177.9880  139.2680 C   0  0  1  0  0  3  0  0  0  0  0  0
  183.3960  176.0940  137.6940 C   0  0  0  0  0  3  0  0  0  0  0  0
  182.3210  175.5350  138.5910 C   0  0  1  0  0  3  0  0  0  0  0  0
  184.1120  177.1800  138.0240 C   0  0  0  0  0  3  0  0  0  0  0  0
  182.9820  177.2270  140.2920 C   0  0  0  0  0  2  0  0  0  0  0  0
  181.8020  176.5680  139.5890 C   0  0  0  0  0  2  0  0  0  0  0  0
  181.2770  175.0490  137.8280 F   0  0  0  0  0  0  0  0  0  0  0  0
  2  3  1  0  0  0  0
  3  1  1  0  0  0  0
  4  8  1  0  0  0  0
  4 10  2  0  0  0  0
  5 14  1  0  0  0  0
  6  9  2  0  0  0  0
  7  5  1  0  0  0  0
  8 13  1  0  0  0  0
  9  2  1  0  0  0  0
  9 11  1  0  0  0  0
 10  7  1  0  0  0  0
 11  1  1  0  0  0  0
 12  5  2  0  0  0  0
 12  6  1  0  0  0  0
 13 12  1  0  0  0  0
 14  2  2  0  0  0  0
 15 21  1  0  0  0  0
 15 10  1  0  0  0  0
 16 21  1  0  0  0  0
 17 19  2  0  0  0  0
 17 22  1  0  0  0  0
 18 19  1  0  0  0  0
 19 20  1  0  0  0  0
 20 16  2  0  0  0  0
 22 15  2  0  0  0  0
 23 26  1  6  0  0  0
 23  8  1  0  0  0  0
 23 27  1  0  0  0  0
 24 26  2  0  0  0  0
 24 25  1  0  0  0  0
 25 29  1  6  0  0  0
 25 28  1  0  0  0  0
 28 27  1  0  0  0  0
M  END
>  <MODEL>
8

>  <REMARK>
 VINA RESULT:      -7.8      3.399      4.994
  Name = 
  2 active torsions:
  status: ('A' for Active; 'I' for Inactive)
    1  A    between atoms: C_1  and  N_17
    2  A    between atoms: C_3  and  C_23
                            x       y       z     vdW  Elec       q    Type
                         _______ _______ _______ _____ _____    ______ ____

>  <TORSDO>
F 2

$$$$
=
 OpenBabel10222422103D

 29 33  0  0  1  0  0  0  0  0999 V2000
  180.0690  181.2250  138.7860 C   0  0  0  0  0  2  0  0  0  0  0  0
  182.1630  180.3290  138.8290 C   0  0  0  0  0  0  0  0  0  0  0  0
  181.3060  181.1000  138.0700 O   0  0  0  0  0  0  0  0  0  0  0  0
  186.5560  178.3110  141.2880 N   0  0  0  0  0  0  0  0  0  0  0  0
  184.1550  179.1550  139.4830 C   0  0  0  0  0  0  0  0  0  0  0  0
  182.1700  179.1660  140.9290 C   0  0  0  0  0  3  0  0  0  0  0  0
  185.4940  178.7520  139.1600 N   0  0  0  0  0  2  0  0  0  0  0  0
  185.4020  178.4630  142.0720 N   0  0  0  0  0  0  0  0  0  0  0  0
  181.5430  179.9600  139.9750 C   0  0  0  0  0  0  0  0  0  0  0  0
  186.6060  178.3470  139.9870 C   0  0  0  0  0  0  0  0  0  0  0  0
  180.2640  180.4800  139.9960 O   0  0  0  0  0  0  0  0  0  0  0  0
  183.4940  178.7580  140.6750 C   0  0  0  0  0  0  0  0  0  0  0  0
  184.1520  177.8670  141.6530 C   0  0  0  0  0  2  0  0  0  0  0  0
  183.4670  179.9430  138.5390 C   0  0  0  0  0  3  0  0  0  0  0  0
  187.9010  178.0700  139.3290 C   0  0  0  0  0  0  0  0  0  0  0  0
  189.9530  176.9840  140.1480 C   0  0  0  0  0  3  0  0  0  0  0  0
  189.1370  177.3940  137.2580 C   0  0  0  0  0  3  0  0  0  0  0  0
  191.2910  176.5380  136.7870 N   0  0  0  0  0  1  0  0  0  0  0  0
  190.2710  176.8530  137.7260 C   0  0  0  0  0  0  0  0  0  0  0  0
  190.4400  176.4170  139.0850 N   0  0  0  0  0  0  0  0  0  0  0  0
  189.1740  178.2530  140.0950 C   0  0  0  0  0  2  0  0  0  0  0  0
  187.9300  177.7390  138.0330 C   0  0  0  0  0  3  0  0  0  0  0  0
  185.5160  178.9340  143.4440 C   0  0  1  0  0  3  0  0  0  0  0  0
  183.9190  178.7890  145.3620 C   0  0  0  0  0  3  0  0  0  0  0  0
  184.9720  178.1770  146.2490 C   0  0  1  0  0  3  0  0  0  0  0  0
  184.1510  179.0880  144.0740 C   0  0  0  0  0  3  0  0  0  0  0  0
  186.4460  178.0250  144.2500 C   0  0  0  0  0  2  0  0  0  0  0  0
  186.3860  178.4130  145.7210 C   0  0  0  0  0  2  0  0  0  0  0  0
  184.8570  178.6800  147.5310 F   0  0  0  0  0  0  0  0  0  0  0  0
  1 11  1  0  0  0  0
  2  9  1  0  0  0  0
  3  1  1  0  0  0  0
  3  2  1  0  0  0  0
  4  8  1  0  0  0  0
  5 12  2  0  0  0  0
  7  5  1  0  0  0  0
  7 10  1  0  0  0  0
  9 11  1  0  0  0  0
  9  6  2  0  0  0  0
 10  4  2  0  0  0  0
 12  6  1  0  0  0  0
 12 13  1  0  0  0  0
 13  8  1  0  0  0  0
 14  2  2  0  0  0  0
 14  5  1  0  0  0  0
 15 10  1  0  0  0  0
 15 21  1  0  0  0  0
 17 19  2  0  0  0  0
 17 22  1  0  0  0  0
 18 19  1  0  0  0  0
 19 20  1  0  0  0  0
 20 16  2  0  0  0  0
 21 16  1  0  0  0  0
 22 15  2  0  0  0  0
 23  8  1  6  0  0  0
 23 26  1  0  0  0  0
 23 27  1  0  0  0  0
 24 25  1  0  0  0  0
 25 29  1  1  0  0  0
 26 24  2  0  0  0  0
 27 28  1  0  0  0  0
 28 25  1  0  0  0  0
M  END
>  <MODEL>
9

>  <REMARK>
 VINA RESULT:      -7.7      4.631      7.055
  Name = 
  2 active torsions:
  status: ('A' for Active; 'I' for Inactive)
    1  A    between atoms: C_1  and  N_17
    2  A    between atoms: C_3  and  C_23
                            x       y       z     vdW  Elec       q    Type
                         _______ _______ _______ _____ _____    ______ ____

>  <TORSDO>
F 2

$$$$
