=
 OpenBabel10232411323D

 27 31  0  0  1  0  0  0  0  0999 V2000
  185.2780  178.6620  141.2720 C   0  0  0  0  0  3  0  0  0  0  0  0
  184.0040  178.6980  141.8430 C   0  0  0  0  0  3  0  0  0  0  0  0
  183.8420  178.4360  143.2060 C   0  0  0  0  0  3  0  0  0  0  0  0
  186.4010  178.3750  142.0590 C   0  0  0  0  0  0  0  0  0  0  0  0
  184.9550  178.1470  144.0000 C   0  0  0  0  0  3  0  0  0  0  0  0
  186.2410  178.1240  143.4410 C   0  0  0  0  0  0  0  0  0  0  0  0
  188.7640  177.9920  148.8880 O   0  0  0  0  0  0  0  0  0  0  0  0
  188.4340  177.7430  146.5120 C   0  0  0  0  0  0  0  0  0  0  0  0
  186.7080  178.5590  147.8480 N   0  0  0  0  0  0  0  0  0  0  0  0
  187.3880  177.8190  144.3160 C   0  0  0  0  0  0  0  0  0  0  0  0
  189.5910  177.2140  145.9580 C   0  0  0  0  0  0  0  0  0  0  0  0
  188.5710  177.2750  143.7550 C   0  0  0  0  0  3  0  0  0  0  0  0
  191.5840  176.3640  145.5420 C   0  0  0  0  0  3  0  0  0  0  0  0
  186.3360  178.4950  146.4600 C   0  0  0  0  0  3  0  0  0  0  0  0
  190.8440  176.8090  146.5610 C   0  0  0  0  0  2  0  0  0  0  0  0
  189.6520  176.9850  144.6050 C   0  0  0  0  0  0  0  0  0  0  0  0
  188.0480  178.0820  147.8560 C   0  0  0  0  0  0  0  0  0  0  0  0
  190.8230  176.4700  144.2800 C   0  0  0  0  0  3  0  0  0  0  0  0
  187.3450  178.0320  145.7150 C   0  0  0  0  0  0  0  0  0  0  0  0
  189.0670  178.7840  141.2120 C   0  0  0  0  0  2  0  0  0  0  0  0
  188.6600  177.6910  140.4680 C   0  0  1  0  0  3  0  0  0  0  0  0
  187.6780  178.2840  141.4290 N   0  0  0  0  0  0  0  0  0  0  0  0
  188.9080  179.1070  138.4110 N   0  0  0  0  0  1  0  0  0  0  0  0
  188.1930  177.9970  139.0320 C   0  0  1  0  0  3  0  0  0  0  0  0
  189.3840  176.1100  138.1710 O   0  0  0  0  0  0  0  0  0  0  0  0
  187.2230  176.3730  137.3640 N   0  0  0  0  0  1  0  0  0  0  0  0
  188.3150  176.7770  138.1830 C   0  0  0  0  0  0  0  0  0  0  0  0
  1  2  2  0  0  0  0
  1  4  1  0  0  0  0
  2  3  1  0  0  0  0
  3  5  2  0  0  0  0
  4  6  2  0  0  0  0
  6  5  1  0  0  0  0
  6 10  1  0  0  0  0
  8 17  1  0  0  0  0
  9 17  1  0  0  0  0
 10 19  1  0  0  0  0
 11  8  1  0  0  0  0
 11 15  1  0  0  0  0
 12 10  2  0  0  0  0
 12 16  1  0  0  0  0
 13 15  1  0  0  0  0
 14  9  2  0  0  0  0
 16 11  2  0  0  0  0
 17  7  2  0  0  0  0
 18 16  1  0  0  0  0
 18 13  2  0  0  0  0
 19 14  1  0  0  0  0
 19  8  2  0  0  0  0
 20 22  1  0  0  0  0
 21 24  1  6  0  0  0
 21 20  1  0  0  0  0
 21 22  1  0  0  0  0
 22  4  1  0  0  0  0
 24 23  1  6  0  0  0
 25 27  2  0  0  0  0
 26 27  1  0  0  0  0
 27 24  1  0  0  0  0
M  END
>  <MODEL>
1

>  <REMARK>
 VINA RESULT:      -9.8      0.000      0.000
  Name = 
  4 active torsions:
  status: ('A' for Active; 'I' for Inactive)
    1  A    between atoms: C_6  and  C_22
    2  A    between atoms: C_9  and  C_12
    3  A    between atoms: C_12  and  C_25
    4  A    between atoms: N_13  and  C_20
                            x       y       z     vdW  Elec       q    Type
                         _______ _______ _______ _____ _____    ______ ____

>  <TORSDO>
F 4

$$$$
=
 OpenBabel10232411323D

 27 31  0  0  1  0  0  0  0  0999 V2000
  187.9480  177.6310  146.5490 C   0  0  0  0  0  3  0  0  0  0  0  0
  187.3690  178.2780  147.6430 C   0  0  0  0  0  3  0  0  0  0  0  0
  186.1870  179.0040  147.4790 C   0  0  0  0  0  3  0  0  0  0  0  0
  187.3460  177.6950  145.2870 C   0  0  0  0  0  0  0  0  0  0  0  0
  185.5770  179.0740  146.2230 C   0  0  0  0  0  3  0  0  0  0  0  0
  186.1410  178.4160  145.1210 C   0  0  0  0  0  0  0  0  0  0  0  0
  181.1180  178.8940  141.8670 O   0  0  0  0  0  0  0  0  0  0  0  0
  183.4470  178.7180  142.4690 C   0  0  0  0  0  0  0  0  0  0  0  0
  181.8180  178.8160  144.1330 N   0  0  0  0  0  2  0  0  0  0  0  0
  185.4640  178.5130  143.8150 C   0  0  0  0  0  0  0  0  0  0  0  0
  184.2040  178.7100  141.3070 C   0  0  0  0  0  0  0  0  0  0  0  0
  186.2340  178.5090  142.6250 C   0  0  0  0  0  3  0  0  0  0  0  0
  184.9760  178.7560  139.2400 C   0  0  0  0  0  3  0  0  0  0  0  0
  183.1440  178.6950  144.6780 C   0  0  0  0  0  3  0  0  0  0  0  0
  183.8230  178.8060  139.9130 C   0  0  0  0  0  3  0  0  0  0  0  0
  185.5720  178.6080  141.3900 C   0  0  0  0  0  0  0  0  0  0  0  0
  182.0350  178.8210  142.7270 C   0  0  0  0  0  0  0  0  0  0  0  0
  186.1060  178.6320  140.1830 C   0  0  0  0  0  3  0  0  0  0  0  0
  184.0580  178.6330  143.7040 C   0  0  0  0  0  0  0  0  0  0  0  0
  188.2060  175.9130  143.2660 C   0  0  0  0  0  2  0  0  0  0  0  0
  189.0130  177.0220  143.0790 C   0  0  1  0  0  3  0  0  0  0  0  0
  188.0000  177.0750  144.1800 N   0  0  0  0  0  0  0  0  0  0  0  0
  191.0560  175.6370  143.5310 N   0  0  0  0  0  1  0  0  0  0  0  0
  190.4180  176.9380  143.7030 C   0  0  1  0  0  3  0  0  0  0  0  0
  191.8140  177.8770  142.0030 O   0  0  0  0  0  0  0  0  0  0  0  0
  191.5560  179.1800  143.9070 N   0  0  0  0  0  1  0  0  0  0  0  0
  191.2930  178.0090  143.1430 C   0  0  0  0  0  0  0  0  0  0  0  0
  1  2  1  0  0  0  0
  3  2  2  0  0  0  0
  4  1  2  0  0  0  0
  5  3  1  0  0  0  0
  6  4  1  0  0  0  0
  6  5  2  0  0  0  0
  7 17  2  0  0  0  0
  8 17  1  0  0  0  0
  8 19  1  0  0  0  0
  9 14  1  0  0  0  0
 10  6  1  0  0  0  0
 11 16  1  0  0  0  0
 11  8  2  0  0  0  0
 12 10  2  0  0  0  0
 13 15  2  0  0  0  0
 13 18  1  0  0  0  0
 15 11  1  0  0  0  0
 16 12  1  0  0  0  0
 17  9  1  0  0  0  0
 18 16  2  0  0  0  0
 19 10  1  0  0  0  0
 19 14  2  0  0  0  0
 20 22  1  0  0  0  0
 21 20  1  0  0  0  0
 21 24  1  1  0  0  0
 21 22  1  0  0  0  0
 22  4  1  0  0  0  0
 24 23  1  6  0  0  0
 25 27  2  0  0  0  0
 27 24  1  0  0  0  0
 27 26  1  0  0  0  0
M  END
>  <MODEL>
2

>  <REMARK>
 VINA RESULT:      -9.7      3.036      5.964
  Name = 
  4 active torsions:
  status: ('A' for Active; 'I' for Inactive)
    1  A    between atoms: C_6  and  C_22
    2  A    between atoms: C_9  and  C_12
    3  A    between atoms: C_12  and  C_25
    4  A    between atoms: N_13  and  C_20
                            x       y       z     vdW  Elec       q    Type
                         _______ _______ _______ _____ _____    ______ ____

>  <TORSDO>
F 4

$$$$
=
 OpenBabel10232411323D

 27 31  0  0  1  0  0  0  0  0999 V2000
  184.1210  178.9340  144.3440 C   0  0  0  0  0  3  0  0  0  0  0  0
  183.6710  178.8460  145.6630 C   0  0  0  0  0  3  0  0  0  0  0  0
  184.5170  178.3510  146.6590 C   0  0  0  0  0  3  0  0  0  0  0  0
  185.4230  178.5390  144.0110 C   0  0  0  0  0  0  0  0  0  0  0  0
  185.8180  177.9540  146.3370 C   0  0  0  0  0  3  0  0  0  0  0  0
  186.2860  178.0530  145.0200 C   0  0  0  0  0  0  0  0  0  0  0  0
  191.8710  176.8170  146.8430 O   0  0  0  0  0  0  0  0  0  0  0  0
  189.9350  177.1070  145.4350 C   0  0  0  0  0  0  0  0  0  0  0  0
  189.7720  177.4780  147.7300 N   0  0  0  0  0  2  0  0  0  0  0  0
  187.6670  177.6260  144.7240 C   0  0  0  0  0  0  0  0  0  0  0  0
  190.2880  176.7960  144.1300 C   0  0  0  0  0  0  0  0  0  0  0  0
  188.0300  177.3040  143.3930 C   0  0  0  0  0  3  0  0  0  0  0  0
  191.2820  176.1950  142.2530 C   0  0  0  0  0  3  0  0  0  0  0  0
  188.5260  177.7160  147.0520 C   0  0  0  0  0  3  0  0  0  0  0  0
  191.5390  176.3430  143.5560 C   0  0  0  0  0  3  0  0  0  0  0  0
  189.3480  176.8930  143.1320 C   0  0  0  0  0  0  0  0  0  0  0  0
  190.6550  177.0990  146.6810 C   0  0  0  0  0  0  0  0  0  0  0  0
  189.8740  176.5440  141.9730 C   0  0  0  0  0  3  0  0  0  0  0  0
  188.6490  177.5040  145.7370 C   0  0  0  0  0  0  0  0  0  0  0  0
  186.7570  179.0380  141.5690 C   0  0  0  0  0  2  0  0  0  0  0  0
  185.6610  178.2840  141.1860 C   0  0  1  0  0  3  0  0  0  0  0  0
  185.8270  178.5830  142.6430 N   0  0  0  0  0  0  0  0  0  0  0  0
  184.7080  179.7240  139.3650 N   0  0  0  0  0  1  0  0  0  0  0  0
  184.4570  179.0820  140.6510 C   0  0  1  0  0  3  0  0  0  0  0  0
  183.2970  177.1480  139.8550 O   0  0  0  0  0  0  0  0  0  0  0  0
  182.0610  178.5510  141.2310 N   0  0  0  0  0  1  0  0  0  0  0  0
  183.2600  178.1980  140.5510 C   0  0  0  0  0  0  0  0  0  0  0  0
  1  2  1  0  0  0  0
  2  3  2  0  0  0  0
  4  1  2  0  0  0  0
  4  6  1  0  0  0  0
  5  3  1  0  0  0  0
  6  5  2  0  0  0  0
  8 19  1  0  0  0  0
  8 17  1  0  0  0  0
 10  6  1  0  0  0  0
 10 19  1  0  0  0  0
 11  8  2  0  0  0  0
 12 10  2  0  0  0  0
 13 15  2  0  0  0  0
 14  9  1  0  0  0  0
 15 11  1  0  0  0  0
 16 12  1  0  0  0  0
 16 11  1  0  0  0  0
 17  7  2  0  0  0  0
 17  9  1  0  0  0  0
 18 13  1  0  0  0  0
 18 16  2  0  0  0  0
 19 14  2  0  0  0  0
 20 22  1  0  0  0  0
 21 24  1  6  0  0  0
 21 20  1  0  0  0  0
 21 22  1  0  0  0  0
 22  4  1  0  0  0  0
 24 23  1  6  0  0  0
 25 27  2  0  0  0  0
 27 24  1  0  0  0  0
 27 26  1  0  0  0  0
M  END
>  <MODEL>
3

>  <REMARK>
 VINA RESULT:      -9.4      2.460      3.385
  Name = 
  4 active torsions:
  status: ('A' for Active; 'I' for Inactive)
    1  A    between atoms: C_6  and  C_22
    2  A    between atoms: C_9  and  C_12
    3  A    between atoms: C_12  and  C_25
    4  A    between atoms: N_13  and  C_20
                            x       y       z     vdW  Elec       q    Type
                         _______ _______ _______ _____ _____    ______ ____

>  <TORSDO>
F 4

$$$$
=
 OpenBabel10232411323D

 27 31  0  0  1  0  0  0  0  0999 V2000
  190.0480  176.7810  146.2660 C   0  0  0  0  0  3  0  0  0  0  0  0
  189.8460  177.2600  147.5620 C   0  0  0  0  0  3  0  0  0  0  0  0
  188.7080  178.0140  147.8590 C   0  0  0  0  0  3  0  0  0  0  0  0
  189.1100  177.0420  145.2590 C   0  0  0  0  0  0  0  0  0  0  0  0
  187.7650  178.2800  146.8610 C   0  0  0  0  0  3  0  0  0  0  0  0
  187.9500  177.7910  145.5600 C   0  0  0  0  0  0  0  0  0  0  0  0
  182.2920  179.1400  144.0710 O   0  0  0  0  0  0  0  0  0  0  0  0
  184.6480  178.6510  143.9050 C   0  0  0  0  0  0  0  0  0  0  0  0
  183.6260  178.7580  145.9970 N   0  0  0  0  0  2  0  0  0  0  0  0
  186.9300  178.0930  144.5390 C   0  0  0  0  0  0  0  0  0  0  0  0
  185.0110  178.6770  142.5660 C   0  0  0  0  0  0  0  0  0  0  0  0
  187.2970  178.1240  143.1700 C   0  0  0  0  0  3  0  0  0  0  0  0
  185.1210  178.8460  140.3690 C   0  0  0  0  0  3  0  0  0  0  0  0
  185.0250  178.4390  146.0930 C   0  0  0  0  0  3  0  0  0  0  0  0
  184.2430  178.9540  141.3700 C   0  0  0  0  0  3  0  0  0  0  0  0
  186.3130  178.4190  142.2120 C   0  0  0  0  0  0  0  0  0  0  0  0
  183.4070  178.8810  144.5960 C   0  0  0  0  0  0  0  0  0  0  0  0
  186.4560  178.5050  140.9030 C   0  0  0  0  0  3  0  0  0  0  0  0
  185.5850  178.3770  144.8800 C   0  0  0  0  0  0  0  0  0  0  0  0
  189.7390  175.5110  142.9660 C   0  0  0  0  0  2  0  0  0  0  0  0
  189.5840  176.7910  142.4630 C   0  0  1  0  0  3  0  0  0  0  0  0
  189.3810  176.5910  143.9320 N   0  0  0  0  0  0  0  0  0  0  0  0
  191.9910  177.1330  143.0850 N   0  0  0  0  0  1  0  0  0  0  0  0
  190.8850  177.5860  142.2470 C   0  0  1  0  0  3  0  0  0  0  0  0
  192.5010  177.5000  140.4860 O   0  0  0  0  0  0  0  0  0  0  0  0
  190.2840  177.5480  139.7980 N   0  0  0  0  0  1  0  0  0  0  0  0
  191.2840  177.5360  140.8110 C   0  0  0  0  0  0  0  0  0  0  0  0
  1  2  1  0  0  0  0
  2  3  2  0  0  0  0
  4  6  1  0  0  0  0
  4  1  2  0  0  0  0
  5  3  1  0  0  0  0
  6  5  2  0  0  0  0
  7 17  2  0  0  0  0
  8 17  1  0  0  0  0
  8 19  1  0  0  0  0
  9 14  1  0  0  0  0
 10 19  1  0  0  0  0
 10  6  1  0  0  0  0
 11  8  2  0  0  0  0
 12 10  2  0  0  0  0
 13 18  1  0  0  0  0
 13 15  2  0  0  0  0
 15 11  1  0  0  0  0
 16 11  1  0  0  0  0
 16 12  1  0  0  0  0
 17  9  1  0  0  0  0
 18 16  2  0  0  0  0
 19 14  2  0  0  0  0
 20 22  1  0  0  0  0
 21 24  1  1  0  0  0
 21 20  1  0  0  0  0
 21 22  1  0  0  0  0
 22  4  1  0  0  0  0
 24 23  1  1  0  0  0
 25 27  2  0  0  0  0
 26 27  1  0  0  0  0
 27 24  1  0  0  0  0
M  END
>  <MODEL>
4

>  <REMARK>
 VINA RESULT:      -9.2      2.587      5.180
  Name = 
  4 active torsions:
  status: ('A' for Active; 'I' for Inactive)
    1  A    between atoms: C_6  and  C_22
    2  A    between atoms: C_9  and  C_12
    3  A    between atoms: C_12  and  C_25
    4  A    between atoms: N_13  and  C_20
                            x       y       z     vdW  Elec       q    Type
                         _______ _______ _______ _____ _____    ______ ____

>  <TORSDO>
F 4

$$$$
=
 OpenBabel10232411323D

 27 31  0  0  1  0  0  0  0  0999 V2000
  183.5790  179.1530  142.8750 C   0  0  0  0  0  3  0  0  0  0  0  0
  182.6900  179.1790  143.9510 C   0  0  0  0  0  3  0  0  0  0  0  0
  183.1200  178.7860  145.2210 C   0  0  0  0  0  3  0  0  0  0  0  0
  184.9060  178.7450  143.0600 C   0  0  0  0  0  0  0  0  0  0  0  0
  184.4420  178.3760  145.4170 C   0  0  0  0  0  3  0  0  0  0  0  0
  185.3470  178.3610  144.3470 C   0  0  0  0  0  0  0  0  0  0  0  0
  190.0070  177.6560  148.0670 O   0  0  0  0  0  0  0  0  0  0  0  0
  188.6350  177.6160  146.0830 C   0  0  0  0  0  0  0  0  0  0  0  0
  187.7580  178.4140  148.0890 N   0  0  0  0  0  2  0  0  0  0  0  0
  186.7340  177.9250  144.5970 C   0  0  0  0  0  0  0  0  0  0  0  0
  189.3770  177.0720  145.0450 C   0  0  0  0  0  0  0  0  0  0  0  0
  187.4940  177.3650  143.5400 C   0  0  0  0  0  3  0  0  0  0  0  0
  190.8980  176.1510  143.7380 C   0  0  0  0  0  3  0  0  0  0  0  0
  186.8040  178.4830  147.0150 C   0  0  0  0  0  3  0  0  0  0  0  0
  190.7290  176.5530  145.0010 C   0  0  0  0  0  3  0  0  0  0  0  0
  188.8100  176.9500  143.7990 C   0  0  0  0  0  0  0  0  0  0  0  0
  188.9170  177.8670  147.4720 C   0  0  0  0  0  0  0  0  0  0  0  0
  189.6670  176.4000  142.9590 C   0  0  0  0  0  3  0  0  0  0  0  0
  187.3350  178.0270  145.8750 C   0  0  0  0  0  0  0  0  0  0  0  0
  186.9330  179.1630  141.1330 C   0  0  0  0  0  2  0  0  0  0  0  0
  186.2000  178.1150  140.6040 C   0  0  1  0  0  3  0  0  0  0  0  0
  185.7680  178.6700  141.9240 N   0  0  0  0  0  0  0  0  0  0  0  0
  184.7900  179.9130  139.5660 N   0  0  0  0  0  1  0  0  0  0  0  0
  185.1560  178.5010  139.5390 C   0  0  1  0  0  3  0  0  0  0  0  0
  186.8050  178.4670  137.8070 O   0  0  0  0  0  0  0  0  0  0  0  0
  184.8020  177.4120  137.2920 N   0  0  0  0  0  1  0  0  0  0  0  0
  185.6490  178.1320  138.1800 C   0  0  0  0  0  0  0  0  0  0  0  0
  1  4  2  0  0  0  0
  1  2  1  0  0  0  0
  2  3  2  0  0  0  0
  3  5  1  0  0  0  0
  4  6  1  0  0  0  0
  6 10  1  0  0  0  0
  6  5  2  0  0  0  0
  8 17  1  0  0  0  0
 10 19  1  0  0  0  0
 11  8  2  0  0  0  0
 12 16  1  0  0  0  0
 12 10  2  0  0  0  0
 13 15  2  0  0  0  0
 14  9  1  0  0  0  0
 15 11  1  0  0  0  0
 16 11  1  0  0  0  0
 17  7  2  0  0  0  0
 17  9  1  0  0  0  0
 18 13  1  0  0  0  0
 18 16  2  0  0  0  0
 19  8  1  0  0  0  0
 19 14  2  0  0  0  0
 20 22  1  0  0  0  0
 21 24  1  6  0  0  0
 21 20  1  0  0  0  0
 21 22  1  0  0  0  0
 22  4  1  0  0  0  0
 24 23  1  6  0  0  0
 25 27  2  0  0  0  0
 26 27  1  0  0  0  0
 27 24  1  0  0  0  0
M  END
>  <MODEL>
5

>  <REMARK>
 VINA RESULT:      -9.0      1.790      2.061
  Name = 
  4 active torsions:
  status: ('A' for Active; 'I' for Inactive)
    1  A    between atoms: C_6  and  C_22
    2  A    between atoms: C_9  and  C_12
    3  A    between atoms: C_12  and  C_25
    4  A    between atoms: N_13  and  C_20
                            x       y       z     vdW  Elec       q    Type
                         _______ _______ _______ _____ _____    ______ ____

>  <TORSDO>
F 4

$$$$
=
 OpenBabel10232411323D

 27 31  0  0  1  0  0  0  0  0999 V2000
  187.5990  178.1840  146.6550 C   0  0  0  0  0  3  0  0  0  0  0  0
  186.2250  178.1430  146.8990 C   0  0  0  0  0  3  0  0  0  0  0  0
  185.3310  177.9980  145.8360 C   0  0  0  0  0  3  0  0  0  0  0  0
  188.0910  178.0700  145.3480 C   0  0  0  0  0  0  0  0  0  0  0  0
  185.8110  177.8830  144.5280 C   0  0  0  0  0  3  0  0  0  0  0  0
  187.1890  177.9070  144.2720 C   0  0  0  0  0  0  0  0  0  0  0  0
  186.3600  178.7910  138.3920 O   0  0  0  0  0  0  0  0  0  0  0  0
  187.3510  178.1340  140.4900 C   0  0  0  0  0  0  0  0  0  0  0  0
  185.2970  179.2350  140.4670 N   0  0  0  0  0  0  0  0  0  0  0  0
  187.6540  177.7790  142.8780 C   0  0  0  0  0  0  0  0  0  0  0  0
  188.5740  177.5320  140.2310 C   0  0  0  0  0  0  0  0  0  0  0  0
  188.9040  177.1680  142.6100 C   0  0  0  0  0  3  0  0  0  0  0  0
  190.4150  176.6850  139.3560 C   0  0  0  0  0  3  0  0  0  0  0  0
  185.7220  178.9060  141.8010 C   0  0  0  0  0  3  0  0  0  0  0  0
  189.2790  177.2870  138.9900 C   0  0  0  0  0  3  0  0  0  0  0  0
  189.3320  177.0610  141.2760 C   0  0  0  0  0  0  0  0  0  0  0  0
  186.3450  178.7270  139.6490 C   0  0  0  0  0  0  0  0  0  0  0  0
  190.4580  176.5390  140.8260 C   0  0  0  0  0  3  0  0  0  0  0  0
  186.8980  178.2690  141.7860 C   0  0  1  0  0  3  0  0  0  0  0  0
  190.6630  178.5600  144.2790 C   0  0  0  0  0  2  0  0  0  0  0  0
  190.9320  177.9820  145.5080 C   0  0  1  0  0  3  0  0  0  0  0  0
  189.4980  178.1800  145.1310 N   0  0  0  0  0  0  0  0  0  0  0  0
  191.9720  176.0500  144.2880 N   0  0  0  0  0  1  0  0  0  0  0  0
  191.2460  176.4740  145.4810 C   0  0  1  0  0  3  0  0  0  0  0  0
  192.7070  175.0380  146.7160 O   0  0  0  0  0  0  0  0  0  0  0  0
  191.9400  176.9020  147.8680 N   0  0  0  0  0  1  0  0  0  0  0  0
  192.0110  176.0880  146.7020 C   0  0  0  0  0  0  0  0  0  0  0  0
  1  2  1  0  0  0  0
  3  2  2  0  0  0  0
  4  1  2  0  0  0  0
  5  3  1  0  0  0  0
  6  5  2  0  0  0  0
  6  4  1  0  0  0  0
  7 17  2  0  0  0  0
  8 19  1  0  0  0  0
  9 14  2  0  0  0  0
 10  6  1  0  0  0  0
 11  8  2  0  0  0  0
 11 16  1  0  0  0  0
 12 10  2  0  0  0  0
 13 18  1  0  0  0  0
 15 13  2  0  0  0  0
 15 11  1  0  0  0  0
 16 12  1  0  0  0  0
 17  9  1  0  0  0  0
 17  8  1  0  0  0  0
 18 16  2  0  0  0  0
 19 14  1  1  0  0  0
 19 10  1  0  0  0  0
 20 22  1  0  0  0  0
 20 21  1  0  0  0  0
 21 24  1  6  0  0  0
 22  4  1  0  0  0  0
 22 21  1  0  0  0  0
 24 23  1  6  0  0  0
 24 27  1  0  0  0  0
 27 25  2  0  0  0  0
 27 26  1  0  0  0  0
M  END
>  <MODEL>
6

>  <REMARK>
 VINA RESULT:      -8.9      2.476      6.213
  Name = 
  4 active torsions:
  status: ('A' for Active; 'I' for Inactive)
    1  A    between atoms: C_6  and  C_22
    2  A    between atoms: C_9  and  C_12
    3  A    between atoms: C_12  and  C_25
    4  A    between atoms: N_13  and  C_20
                            x       y       z     vdW  Elec       q    Type
                         _______ _______ _______ _____ _____    ______ ____

>  <TORSDO>
F 4

$$$$
=
 OpenBabel10232411323D

 27 31  0  0  1  0  0  0  0  0999 V2000
  191.2570  177.6320  141.2620 C   0  0  0  0  0  3  0  0  0  0  0  0
  190.9740  177.1790  139.9720 C   0  0  0  0  0  3  0  0  0  0  0  0
  189.6500  176.9600  139.5830 C   0  0  0  0  0  3  0  0  0  0  0  0
  190.2200  177.8810  142.1700 C   0  0  0  0  0  0  0  0  0  0  0  0
  188.6080  177.2050  140.4810 C   0  0  0  0  0  3  0  0  0  0  0  0
  188.8790  177.6750  141.7740 C   0  0  0  0  0  0  0  0  0  0  0  0
  183.2470  179.5210  142.7360 O   0  0  0  0  0  0  0  0  0  0  0  0
  185.4660  178.6540  143.1080 C   0  0  0  0  0  0  0  0  0  0  0  0
  184.7830  179.2150  140.9530 N   0  0  0  0  0  0  0  0  0  0  0  0
  187.7490  177.9220  142.6890 C   0  0  0  0  0  0  0  0  0  0  0  0
  185.6090  178.3720  144.4590 C   0  0  0  0  0  0  0  0  0  0  0  0
  187.8890  177.6330  144.0690 C   0  0  0  0  0  3  0  0  0  0  0  0
  185.3690  178.0650  146.6320 C   0  0  0  0  0  3  0  0  0  0  0  0
  186.1370  178.7330  140.9830 C   0  0  0  0  0  3  0  0  0  0  0  0
  184.6850  178.4970  145.5680 C   0  0  0  0  0  2  0  0  0  0  0  0
  186.8000  177.8700  144.9250 C   0  0  0  0  0  0  0  0  0  0  0  0
  184.3790  179.1630  142.3160 C   0  0  0  0  0  0  0  0  0  0  0  0
  186.7300  177.6570  146.2250 C   0  0  0  0  0  3  0  0  0  0  0  0
  186.5070  178.4260  142.2320 C   0  0  0  0  0  0  0  0  0  0  0  0
  191.4200  179.0150  144.4650 C   0  0  0  0  0  2  0  0  0  0  0  0
  190.3670  178.2810  144.9840 C   0  0  1  0  0  3  0  0  0  0  0  0
  190.5510  178.2820  143.4990 N   0  0  0  0  0  0  0  0  0  0  0  0
  191.9810  176.3590  144.9920 N   0  0  0  0  0  1  0  0  0  0  0  0
  190.7290  176.8860  145.5270 C   0  0  1  0  0  3  0  0  0  0  0  0
  189.7890  177.2860  147.6890 O   0  0  0  0  0  0  0  0  0  0  0  0
  191.9860  176.5370  147.6850 N   0  0  0  0  0  1  0  0  0  0  0  0
  190.7880  176.9140  147.0170 C   0  0  0  0  0  0  0  0  0  0  0  0
  1  4  1  0  0  0  0
  2  1  2  0  0  0  0
  3  2  1  0  0  0  0
  3  5  2  0  0  0  0
  4 22  1  0  0  0  0
  5  6  1  0  0  0  0
  6  4  2  0  0  0  0
  6 10  1  0  0  0  0
  8 11  1  0  0  0  0
  9 14  2  0  0  0  0
  9 17  1  0  0  0  0
 10 12  2  0  0  0  0
 11 16  2  0  0  0  0
 11 15  1  0  0  0  0
 12 16  1  0  0  0  0
 14 19  1  0  0  0  0
 15 13  1  0  0  0  0
 16 18  1  0  0  0  0
 17  7  2  0  0  0  0
 17  8  1  0  0  0  0
 18 13  2  0  0  0  0
 19 10  1  0  0  0  0
 19  8  2  0  0  0  0
 20 21  1  0  0  0  0
 21 24  1  1  0  0  0
 22 20  1  0  0  0  0
 22 21  1  0  0  0  0
 24 23  1  6  0  0  0
 24 27  1  0  0  0  0
 27 26  1  0  0  0  0
 27 25  2  0  0  0  0
M  END
>  <MODEL>
7

>  <REMARK>
 VINA RESULT:      -8.9      2.740      6.176
  Name = 
  4 active torsions:
  status: ('A' for Active; 'I' for Inactive)
    1  A    between atoms: C_6  and  C_22
    2  A    between atoms: C_9  and  C_12
    3  A    between atoms: C_12  and  C_25
    4  A    between atoms: N_13  and  C_20
                            x       y       z     vdW  Elec       q    Type
                         _______ _______ _______ _____ _____    ______ ____

>  <TORSDO>
F 4

$$$$
=
 OpenBabel10232411323D

 27 31  0  0  1  0  0  0  0  0999 V2000
  191.1220  176.9360  142.1900 C   0  0  0  0  0  3  0  0  0  0  0  0
  191.8190  176.3640  143.2570 C   0  0  0  0  0  3  0  0  0  0  0  0
  191.1890  176.1990  144.4940 C   0  0  0  0  0  3  0  0  0  0  0  0
  189.7900  177.3370  142.3460 C   0  0  0  0  0  0  0  0  0  0  0  0
  189.8590  176.5970  144.6600 C   0  0  0  0  0  3  0  0  0  0  0  0
  189.1460  177.1570  143.5910 C   0  0  0  0  0  0  0  0  0  0  0  0
  184.6920  178.7800  147.2770 O   0  0  0  0  0  0  0  0  0  0  0  0
  185.9220  178.2300  145.2760 C   0  0  0  0  0  0  0  0  0  0  0  0
  186.9990  178.2260  147.3430 N   0  0  0  0  0  2  0  0  0  0  0  0
  187.7430  177.5600  143.8090 C   0  0  0  0  0  0  0  0  0  0  0  0
  185.0670  178.3370  144.1890 C   0  0  0  0  0  0  0  0  0  0  0  0
  186.8670  177.6730  142.7010 C   0  0  0  0  0  3  0  0  0  0  0  0
  183.3840  178.6520  142.7970 C   0  0  0  0  0  3  0  0  0  0  0  0
  187.8830  177.8580  146.2700 C   0  0  0  0  0  3  0  0  0  0  0  0
  183.6720  178.7190  144.1000 C   0  0  0  0  0  3  0  0  0  0  0  0
  185.5370  178.0630  142.9270 C   0  0  0  0  0  0  0  0  0  0  0  0
  185.7560  178.4510  146.6890 C   0  0  0  0  0  0  0  0  0  0  0  0
  184.5790  178.2350  142.0360 C   0  0  0  0  0  3  0  0  0  0  0  0
  187.2390  177.8610  145.0970 C   0  0  0  0  0  0  0  0  0  0  0  0
  187.9830  178.7420  140.6850 C   0  0  0  0  0  2  0  0  0  0  0  0
  188.9910  178.3640  139.8140 C   0  0  1  0  0  3  0  0  0  0  0  0
  189.1310  177.9750  141.2520 N   0  0  0  0  0  0  0  0  0  0  0  0
  187.6050  177.2430  138.0470 N   0  0  0  0  0  1  0  0  0  0  0  0
  188.7140  177.0960  138.9840 C   0  0  1  0  0  3  0  0  0  0  0  0
  190.2010  177.1610  137.1110 O   0  0  0  0  0  0  0  0  0  0  0  0
  190.8320  175.7360  138.8310 N   0  0  0  0  0  1  0  0  0  0  0  0
  189.9460  176.6860  138.2500 C   0  0  0  0  0  0  0  0  0  0  0  0
  1  4  2  0  0  0  0
  1  2  1  0  0  0  0
  2  3  2  0  0  0  0
  3  5  1  0  0  0  0
  4  6  1  0  0  0  0
  6 10  1  0  0  0  0
  6  5  2  0  0  0  0
  8 17  1  0  0  0  0
 10 19  1  0  0  0  0
 11  8  2  0  0  0  0
 12 16  1  0  0  0  0
 12 10  2  0  0  0  0
 13 15  2  0  0  0  0
 14  9  1  0  0  0  0
 15 11  1  0  0  0  0
 16 11  1  0  0  0  0
 17  7  2  0  0  0  0
 17  9  1  0  0  0  0
 18 13  1  0  0  0  0
 18 16  2  0  0  0  0
 19  8  1  0  0  0  0
 19 14  2  0  0  0  0
 20 22  1  0  0  0  0
 21 24  1  6  0  0  0
 21 20  1  0  0  0  0
 21 22  1  0  0  0  0
 22  4  1  0  0  0  0
 24 23  1  6  0  0  0
 25 27  2  0  0  0  0
 27 26  1  0  0  0  0
 27 24  1  0  0  0  0
M  END
>  <MODEL>
8

>  <REMARK>
 VINA RESULT:      -8.9      1.566      4.411
  Name = 
  4 active torsions:
  status: ('A' for Active; 'I' for Inactive)
    1  A    between atoms: C_6  and  C_22
    2  A    between atoms: C_9  and  C_12
    3  A    between atoms: C_12  and  C_25
    4  A    between atoms: N_13  and  C_20
                            x       y       z     vdW  Elec       q    Type
                         _______ _______ _______ _____ _____    ______ ____

>  <TORSDO>
F 4

$$$$
=
 OpenBabel10232411323D

 27 31  0  0  1  0  0  0  0  0999 V2000
  188.4060  177.8760  139.9250 C   0  0  0  0  0  3  0  0  0  0  0  0
  189.6570  177.4670  139.4570 C   0  0  0  0  0  3  0  0  0  0  0  0
  190.6570  177.1050  140.3630 C   0  0  0  0  0  3  0  0  0  0  0  0
  188.1420  177.9170  141.3000 C   0  0  0  0  0  0  0  0  0  0  0  0
  190.4030  177.1430  141.7380 C   0  0  0  0  0  3  0  0  0  0  0  0
  189.1470  177.5370  142.2180 C   0  0  0  0  0  0  0  0  0  0  0  0
  191.1820  176.8790  147.8280 O   0  0  0  0  0  0  0  0  0  0  0  0
  189.7190  177.3110  145.9600 C   0  0  0  0  0  0  0  0  0  0  0  0
  191.9600  176.7920  145.5880 N   0  0  0  0  0  0  0  0  0  0  0  0
  188.9200  177.5600  143.6750 C   0  0  0  0  0  0  0  0  0  0  0  0
  188.4590  177.6240  146.4490 C   0  0  0  0  0  0  0  0  0  0  0  0
  187.6360  177.8820  144.1790 C   0  0  0  0  0  3  0  0  0  0  0  0
  186.6710  178.0750  147.6630 C   0  0  0  0  0  3  0  0  0  0  0  0
  191.2400  177.0000  144.3600 C   0  0  0  0  0  3  0  0  0  0  0  0
  187.9560  177.7360  147.8030 C   0  0  0  0  0  2  0  0  0  0  0  0
  187.4400  177.9050  145.5700 C   0  0  0  0  0  0  0  0  0  0  0  0
  190.9710  176.9880  146.5920 C   0  0  0  0  0  0  0  0  0  0  0  0
  186.3330  178.1890  146.2290 C   0  0  0  0  0  3  0  0  0  0  0  0
  189.9560  177.2880  144.6010 C   0  0  0  0  0  0  0  0  0  0  0  0
  185.7750  178.4560  142.7490 C   0  0  0  0  0  2  0  0  0  0  0  0
  185.6040  179.1760  141.5790 C   0  0  1  0  0  3  0  0  0  0  0  0
  186.8740  178.4020  141.7420 N   0  0  0  0  0  0  0  0  0  0  0  0
  183.3440  178.3390  140.8770 N   0  0  0  0  0  1  0  0  0  0  0  0
  184.7450  178.4960  140.4970 C   0  0  1  0  0  3  0  0  0  0  0  0
  184.2600  180.3650  139.0860 O   0  0  0  0  0  0  0  0  0  0  0  0
  185.5750  178.7110  138.1250 N   0  0  0  0  0  1  0  0  0  0  0  0
  184.8400  179.2540  139.2160 C   0  0  0  0  0  0  0  0  0  0  0  0
  1  4  1  0  0  0  0
  2  1  2  0  0  0  0
  2  3  1  0  0  0  0
  3  5  2  0  0  0  0
  4 22  1  0  0  0  0
  4  6  2  0  0  0  0
  5  6  1  0  0  0  0
  6 10  1  0  0  0  0
  8 11  1  0  0  0  0
  8 17  1  0  0  0  0
  9 17  1  0  0  0  0
 10 12  2  0  0  0  0
 10 19  1  0  0  0  0
 11 15  1  0  0  0  0
 12 16  1  0  0  0  0
 13 15  1  0  0  0  0
 14 19  1  0  0  0  0
 14  9  2  0  0  0  0
 16 18  1  0  0  0  0
 16 11  2  0  0  0  0
 17  7  2  0  0  0  0
 18 13  2  0  0  0  0
 19  8  2  0  0  0  0
 21 24  1  6  0  0  0
 21 22  1  0  0  0  0
 21 20  1  0  0  0  0
 22 20  1  0  0  0  0
 24 23  1  1  0  0  0
 25 27  2  0  0  0  0
 26 27  1  0  0  0  0
 27 24  1  0  0  0  0
M  END
>  <MODEL>
9

>  <REMARK>
 VINA RESULT:      -8.7      2.302      4.252
  Name = 
  4 active torsions:
  status: ('A' for Active; 'I' for Inactive)
    1  A    between atoms: C_6  and  C_22
    2  A    between atoms: C_9  and  C_12
    3  A    between atoms: C_12  and  C_25
    4  A    between atoms: N_13  and  C_20
                            x       y       z     vdW  Elec       q    Type
                         _______ _______ _______ _____ _____    ______ ____

>  <TORSDO>
F 4

$$$$
