=
 OpenBabel10232410003D

 26 29  0  0  1  0  0  0  0  0999 V2000
  187.6180  177.2950  142.7290 C   0  0  0  0  0  0  0  0  0  0  0  0
  190.0490  176.7640  143.3900 C   0  0  1  0  0  3  0  0  0  0  0  0
  188.6080  176.6010  143.4950 N   0  0  0  0  0  2  0  0  0  0  0  0
  185.5850  178.7850  141.4740 C   0  0  0  0  0  0  0  0  0  0  0  0
  185.3310  178.1170  142.6760 C   0  0  0  0  0  3  0  0  0  0  0  0
  190.1470  176.7420  140.9060 C   0  0  0  0  0  3  0  0  0  0  0  0
  190.5380  176.2570  142.0790 C   0  0  0  0  0  3  0  0  0  0  0  0
  186.8490  178.6810  140.8900 C   0  0  0  0  0  3  0  0  0  0  0  0
  187.8810  177.9320  141.4840 C   0  0  0  0  0  0  0  0  0  0  0  0
  189.3310  178.5750  139.7250 O   0  0  0  0  0  0  0  0  0  0  0  0
  186.3400  177.3810  143.2930 C   0  0  0  0  0  3  0  0  0  0  0  0
  189.1430  177.8000  140.7030 C   0  0  0  0  0  0  0  0  0  0  0  0
  191.9690  178.3500  143.4100 C   0  0  0  0  0  2  0  0  0  0  0  0
  190.4730  178.2190  143.6300 C   0  0  2  0  0  3  0  0  0  0  0  0
  191.4150  178.4480  144.8170 C   0  0  1  0  0  3  0  0  0  0  0  0
  190.9290  176.6780  146.6250 C   0  0  0  0  0  0  0  0  0  0  0  0
  191.7120  177.2240  145.5530 N   0  0  0  0  0  2  0  0  0  0  0  0
  191.3190  175.5970  147.1450 O   0  0  0  0  0  0  0  0  0  0  0  0
  188.4650  177.2270  146.4350 C   0  0  0  0  0  3  0  0  0  0  0  0
  188.5570  178.5480  148.8500 N   0  0  0  0  0  0  0  0  0  0  0  0
  189.6920  177.9850  148.3570 C   0  0  0  0  0  3  0  0  0  0  0  0
  189.6780  177.3020  147.1310 C   0  0  0  0  0  0  0  0  0  0  0  0
  187.3760  178.4720  148.1820 C   0  0  0  0  0  3  0  0  0  0  0  0
  187.3090  177.8090  146.9560 C   0  0  0  0  0  3  0  0  0  0  0  0
  184.6020  179.5440  140.8330 O   0  0  0  0  0  0  0  0  0  0  0  0
  183.9940  179.1400  139.6140 C   0  0  0  0  0  1  0  0  0  0  0  0
  1 11  1  0  0  0  0
  1  3  1  0  0  0  0
  2  7  1  6  0  0  0
  2  3  1  0  0  0  0
  2 14  1  0  0  0  0
  4  5  1  0  0  0  0
  5 11  2  0  0  0  0
  6  7  2  0  0  0  0
  8  4  2  0  0  0  0
  8  9  1  0  0  0  0
  9  1  2  0  0  0  0
 10 12  2  0  0  0  0
 12  6  1  0  0  0  0
 12  9  1  0  0  0  0
 13 15  1  0  0  0  0
 14 13  1  6  0  0  0
 14 15  1  0  0  0  0
 15 17  1  1  0  0  0
 16 22  1  0  0  0  0
 16 18  2  0  0  0  0
 17 16  1  0  0  0  0
 19 24  2  0  0  0  0
 19 22  1  0  0  0  0
 21 20  1  0  0  0  0
 22 21  2  0  0  0  0
 23 20  2  0  0  0  0
 24 23  1  0  0  0  0
 25  4  1  0  0  0  0
 26 25  1  0  0  0  0
M  END
>  <MODEL>
1

>  <REMARK>
 VINA RESULT:      -8.2      0.000      0.000
  Name = 
  4 active torsions:
  status: ('A' for Active; 'I' for Inactive)
    1  A    between atoms: C_2  and  C_13
    2  A    between atoms: C_3  and  C_18
    3  A    between atoms: C_5  and  O_9
    4  A    between atoms: N_17  and  C_22
                            x       y       z     vdW  Elec       q    Type
                         _______ _______ _______ _____ _____    ______ ____

>  <TORSDO>
F 4

$$$$
=
 OpenBabel10232410003D

 26 29  0  0  1  0  0  0  0  0999 V2000
  191.3060  176.1460  138.3130 C   0  0  0  0  0  0  0  0  0  0  0  0
  190.1660  177.6890  140.0310 C   0  0  1  0  0  3  0  0  0  0  0  0
  191.3020  177.2320  139.2450 N   0  0  0  0  0  2  0  0  0  0  0  0
  191.4990  173.8730  136.6620 C   0  0  0  0  0  0  0  0  0  0  0  0
  192.6470  174.4310  137.2310 C   0  0  0  0  0  3  0  0  0  0  0  0
  188.5080  177.6220  138.1810 C   0  0  0  0  0  3  0  0  0  0  0  0
  189.1280  178.2870  139.1500 C   0  0  0  0  0  3  0  0  0  0  0  0
  190.2600  174.4730  136.8990 C   0  0  0  0  0  3  0  0  0  0  0  0
  190.1320  175.6170  137.7070 C   0  0  0  0  0  0  0  0  0  0  0  0
  187.7860  175.5580  137.3810 O   0  0  0  0  0  0  0  0  0  0  0  0
  192.5460  175.5560  138.0470 C   0  0  0  0  0  3  0  0  0  0  0  0
  188.7760  176.2300  137.7830 C   0  0  0  0  0  0  0  0  0  0  0  0
  188.6430  177.1570  141.9270 C   0  0  0  0  0  2  0  0  0  0  0  0
  189.5920  176.5640  140.9030 C   0  0  2  0  0  3  0  0  0  0  0  0
  189.9800  176.6110  142.3850 C   0  0  1  0  0  3  0  0  0  0  0  0
  191.1130  178.2570  144.0110 C   0  0  0  0  0  0  0  0  0  0  0  0
  190.8820  177.7120  142.7040 N   0  0  0  0  0  2  0  0  0  0  0  0
  191.9400  179.2020  144.1160 O   0  0  0  0  0  0  0  0  0  0  0  0
  189.1000  177.9960  145.5250 C   0  0  0  0  0  3  0  0  0  0  0  0
  190.5980  176.4950  147.2840 N   0  0  0  0  0  0  0  0  0  0  0  0
  191.1860  176.9840  146.1600 C   0  0  0  0  0  3  0  0  0  0  0  0
  190.4500  177.7500  145.2430 C   0  0  0  0  0  0  0  0  0  0  0  0
  189.2870  176.7240  147.5590 C   0  0  0  0  0  3  0  0  0  0  0  0
  188.5120  177.4830  146.6820 C   0  0  0  0  0  3  0  0  0  0  0  0
  191.5590  172.7380  135.8490 O   0  0  0  0  0  0  0  0  0  0  0  0
  192.7260  171.9360  135.7360 C   0  0  0  0  0  1  0  0  0  0  0  0
  1  3  1  0  0  0  0
  2  7  1  6  0  0  0
  2 14  1  0  0  0  0
  3  2  1  0  0  0  0
  4  8  2  0  0  0  0
  4  5  1  0  0  0  0
  5 11  2  0  0  0  0
  6  7  2  0  0  0  0
  8  9  1  0  0  0  0
  9 12  1  0  0  0  0
  9  1  2  0  0  0  0
 10 12  2  0  0  0  0
 11  1  1  0  0  0  0
 12  6  1  0  0  0  0
 13 15  1  0  0  0  0
 14 13  1  1  0  0  0
 14 15  1  0  0  0  0
 15 17  1  6  0  0  0
 16 18  2  0  0  0  0
 16 22  1  0  0  0  0
 17 16  1  0  0  0  0
 19 24  1  0  0  0  0
 20 23  1  0  0  0  0
 21 20  2  0  0  0  0
 22 19  2  0  0  0  0
 22 21  1  0  0  0  0
 24 23  2  0  0  0  0
 25  4  1  0  0  0  0
 26 25  1  0  0  0  0
M  END
>  <MODEL>
2

>  <REMARK>
 VINA RESULT:      -7.5      3.545      5.612
  Name = 
  4 active torsions:
  status: ('A' for Active; 'I' for Inactive)
    1  A    between atoms: C_2  and  C_13
    2  A    between atoms: C_3  and  C_18
    3  A    between atoms: C_5  and  O_9
    4  A    between atoms: N_17  and  C_22
                            x       y       z     vdW  Elec       q    Type
                         _______ _______ _______ _____ _____    ______ ____

>  <TORSDO>
F 4

$$$$
=
 OpenBabel10232410003D

 26 29  0  0  1  0  0  0  0  0999 V2000
  190.2600  175.8480  137.9930 C   0  0  0  0  0  0  0  0  0  0  0  0
  189.9690  177.6700  139.7890 C   0  0  1  0  0  3  0  0  0  0  0  0
  190.7620  176.8170  138.9180 N   0  0  0  0  0  2  0  0  0  0  0  0
  189.3980  173.7380  136.3400 C   0  0  0  0  0  0  0  0  0  0  0  0
  190.7120  173.7700  136.8160 C   0  0  0  0  0  3  0  0  0  0  0  0
  188.2940  178.3290  138.0750 C   0  0  0  0  0  3  0  0  0  0  0  0
  189.1990  178.6610  138.9900 C   0  0  0  0  0  3  0  0  0  0  0  0
  188.5270  174.7780  136.6710 C   0  0  0  0  0  3  0  0  0  0  0  0
  188.9310  175.8540  137.4830 C   0  0  0  0  0  0  0  0  0  0  0  0
  186.7450  176.7540  137.3420 O   0  0  0  0  0  0  0  0  0  0  0  0
  191.1340  174.8170  137.6330 C   0  0  0  0  0  3  0  0  0  0  0  0
  187.9470  176.9590  137.6630 C   0  0  0  0  0  0  0  0  0  0  0  0
  188.2350  177.7860  141.5730 C   0  0  0  0  0  2  0  0  0  0  0  0
  189.0550  176.8470  140.7080 C   0  0  2  0  0  3  0  0  0  0  0  0
  189.3410  176.9690  142.2090 C   0  0  1  0  0  3  0  0  0  0  0  0
  190.9540  178.1790  143.8130 C   0  0  0  0  0  0  0  0  0  0  0  0
  190.4840  177.8260  142.5030 N   0  0  0  0  0  2  0  0  0  0  0  0
  191.9690  178.9210  143.8930 O   0  0  0  0  0  0  0  0  0  0  0  0
  191.0350  176.9740  146.0390 C   0  0  0  0  0  3  0  0  0  0  0  0
  188.3780  177.5600  146.4720 N   0  0  0  0  0  0  0  0  0  0  0  0
  188.9720  177.9750  145.3210 C   0  0  0  0  0  3  0  0  0  0  0  0
  190.3240  177.6950  145.0710 C   0  0  0  0  0  0  0  0  0  0  0  0
  189.0650  176.8660  147.4170 C   0  0  0  0  0  3  0  0  0  0  0  0
  190.4110  176.5570  147.2150 C   0  0  0  0  0  3  0  0  0  0  0  0
  188.9350  172.6990  135.5290 O   0  0  0  0  0  0  0  0  0  0  0  0
  188.0670  171.6800  136.0070 C   0  0  0  0  0  1  0  0  0  0  0  0
  1  3  1  0  0  0  0
  2  7  1  6  0  0  0
  2 14  1  0  0  0  0
  3  2  1  0  0  0  0
  4  8  2  0  0  0  0
  4  5  1  0  0  0  0
  5 11  2  0  0  0  0
  6  7  2  0  0  0  0
  8  9  1  0  0  0  0
  9 12  1  0  0  0  0
  9  1  2  0  0  0  0
 10 12  2  0  0  0  0
 11  1  1  0  0  0  0
 12  6  1  0  0  0  0
 13 15  1  0  0  0  0
 14 13  1  1  0  0  0
 14 15  1  0  0  0  0
 15 17  1  6  0  0  0
 16 18  2  0  0  0  0
 16 22  1  0  0  0  0
 17 16  1  0  0  0  0
 19 24  1  0  0  0  0
 20 23  1  0  0  0  0
 21 20  2  0  0  0  0
 22 21  1  0  0  0  0
 22 19  2  0  0  0  0
 24 23  2  0  0  0  0
 25 26  1  0  0  0  0
 25  4  1  0  0  0  0
M  END
>  <MODEL>
3

>  <REMARK>
 VINA RESULT:      -7.1      3.590      5.217
  Name = 
  4 active torsions:
  status: ('A' for Active; 'I' for Inactive)
    1  A    between atoms: C_2  and  C_13
    2  A    between atoms: C_3  and  C_18
    3  A    between atoms: C_5  and  O_9
    4  A    between atoms: N_17  and  C_22
                            x       y       z     vdW  Elec       q    Type
                         _______ _______ _______ _____ _____    ______ ____

>  <TORSDO>
F 4

$$$$
=
 OpenBabel10232410003D

 26 29  0  0  1  0  0  0  0  0999 V2000
  188.0220  178.1260  140.9190 C   0  0  0  0  0  0  0  0  0  0  0  0
  189.3730  177.5870  138.7950 C   0  0  1  0  0  3  0  0  0  0  0  0
  188.4600  178.3980  139.5850 N   0  0  0  0  0  2  0  0  0  0  0  0
  186.8920  177.5550  143.4340 C   0  0  0  0  0  0  0  0  0  0  0  0
  186.2480  178.4300  142.5530 C   0  0  0  0  0  3  0  0  0  0  0  0
  191.0350  177.2070  140.6030 C   0  0  0  0  0  3  0  0  0  0  0  0
  190.7420  177.6240  139.3770 C   0  0  0  0  0  3  0  0  0  0  0  0
  188.1140  176.9920  143.0640 C   0  0  0  0  0  3  0  0  0  0  0  0
  188.7120  177.2680  141.8210 C   0  0  0  0  0  0  0  0  0  0  0  0
  190.4830  175.7940  142.3690 O   0  0  0  0  0  0  0  0  0  0  0  0
  186.8110  178.7090  141.3110 C   0  0  0  0  0  3  0  0  0  0  0  0
  190.0710  176.7010  141.5950 C   0  0  0  0  0  0  0  0  0  0  0  0
  189.6490  175.4510  137.5450 C   0  0  0  0  0  2  0  0  0  0  0  0
  188.8610  176.1480  138.6380 C   0  0  2  0  0  3  0  0  0  0  0  0
  188.2010  175.8220  137.2940 C   0  0  1  0  0  3  0  0  0  0  0  0
  186.9610  177.7540  136.1250 C   0  0  0  0  0  0  0  0  0  0  0  0
  188.1330  176.9720  136.3990 N   0  0  0  0  0  2  0  0  0  0  0  0
  187.0780  178.7290  135.3350 O   0  0  0  0  0  0  0  0  0  0  0  0
  185.2670  178.0090  137.9890 C   0  0  0  0  0  3  0  0  0  0  0  0
  183.4670  176.4650  136.5860 N   0  0  0  0  0  0  0  0  0  0  0  0
  184.6950  176.7050  136.0530 C   0  0  0  0  0  3  0  0  0  0  0  0
  185.6330  177.4900  136.7400 C   0  0  0  0  0  0  0  0  0  0  0  0
  183.1040  176.9720  137.7940 C   0  0  0  0  0  3  0  0  0  0  0  0
  184.0020  177.7550  138.5210 C   0  0  0  0  0  3  0  0  0  0  0  0
  186.3500  177.2410  144.6830 O   0  0  0  0  0  0  0  0  0  0  0  0
  186.9560  177.6410  145.9050 C   0  0  0  0  0  1  0  0  0  0  0  0
  1 11  2  0  0  0  0
  1  9  1  0  0  0  0
  2  7  1  1  0  0  0
  2  3  1  0  0  0  0
  3  1  1  0  0  0  0
  4 25  1  0  0  0  0
  5  4  2  0  0  0  0
  6 12  1  0  0  0  0
  7  6  2  0  0  0  0
  8  4  1  0  0  0  0
  9  8  2  0  0  0  0
 11  5  1  0  0  0  0
 12  9  1  0  0  0  0
 12 10  2  0  0  0  0
 14 13  1  6  0  0  0
 14  2  1  0  0  0  0
 15 17  1  6  0  0  0
 15 13  1  0  0  0  0
 15 14  1  0  0  0  0
 16 17  1  0  0  0  0
 16 22  1  0  0  0  0
 18 16  2  0  0  0  0
 19 24  1  0  0  0  0
 20 23  1  0  0  0  0
 21 20  2  0  0  0  0
 21 22  1  0  0  0  0
 22 19  2  0  0  0  0
 23 24  2  0  0  0  0
 25 26  1  0  0  0  0
M  END
>  <MODEL>
4

>  <REMARK>
 VINA RESULT:      -7.0      3.565      7.578
  Name = 
  4 active torsions:
  status: ('A' for Active; 'I' for Inactive)
    1  A    between atoms: C_2  and  C_13
    2  A    between atoms: C_3  and  C_18
    3  A    between atoms: C_5  and  O_9
    4  A    between atoms: N_17  and  C_22
                            x       y       z     vdW  Elec       q    Type
                         _______ _______ _______ _____ _____    ______ ____

>  <TORSDO>
F 4

$$$$
=
 OpenBabel10232410003D

 26 29  0  0  1  0  0  0  0  0999 V2000
  184.3330  178.7540  140.9990 C   0  0  0  0  0  0  0  0  0  0  0  0
  186.1040  179.1350  142.8290 C   0  0  1  0  0  3  0  0  0  0  0  0
  185.5900  179.2460  141.4730 N   0  0  0  0  0  2  0  0  0  0  0  0
  182.0120  177.6000  139.9000 C   0  0  0  0  0  0  0  0  0  0  0  0
  183.0900  177.9390  139.0760 C   0  0  0  0  0  3  0  0  0  0  0  0
  183.9950  179.7830  143.9740 C   0  0  0  0  0  3  0  0  0  0  0  0
  185.2950  179.9630  143.7640 C   0  0  0  0  0  3  0  0  0  0  0  0
  182.0900  177.8660  141.2680 C   0  0  0  0  0  3  0  0  0  0  0  0
  183.2290  178.4550  141.8460 C   0  0  0  0  0  0  0  0  0  0  0  0
  182.2040  178.2960  143.9760 O   0  0  0  0  0  0  0  0  0  0  0  0
  184.2350  178.5100  139.6250 C   0  0  0  0  0  3  0  0  0  0  0  0
  183.1400  178.7970  143.2930 C   0  0  0  0  0  0  0  0  0  0  0  0
  186.7970  177.6110  144.6730 C   0  0  0  0  0  2  0  0  0  0  0  0
  186.1810  177.6720  143.2870 C   0  0  2  0  0  3  0  0  0  0  0  0
  187.5950  177.1130  143.4840 C   0  0  1  0  0  3  0  0  0  0  0  0
  189.8300  178.3180  143.9140 C   0  0  0  0  0  0  0  0  0  0  0  0
  188.6390  178.0750  143.1510 N   0  0  0  0  0  2  0  0  0  0  0  0
  190.6430  179.1770  143.4760 O   0  0  0  0  0  0  0  0  0  0  0  0
  189.3500  177.6540  146.3100 C   0  0  0  0  0  3  0  0  0  0  0  0
  191.6450  176.1310  146.3640 N   0  0  0  0  0  0  0  0  0  0  0  0
  191.3280  176.8150  145.2320 C   0  0  0  0  0  3  0  0  0  0  0  0
  190.1650  177.5970  145.1710 C   0  0  0  0  0  0  0  0  0  0  0  0
  190.8550  176.1770  147.4690 C   0  0  0  0  0  3  0  0  0  0  0  0
  189.6890  176.9440  147.4620 C   0  0  0  0  0  3  0  0  0  0  0  0
  180.8520  177.0140  139.3870 O   0  0  0  0  0  0  0  0  0  0  0  0
  180.3670  175.7540  139.8310 C   0  0  0  0  0  1  0  0  0  0  0  0
  1  3  1  0  0  0  0
  1  9  1  0  0  0  0
  2 14  1  0  0  0  0
  2  7  1  1  0  0  0
  3  2  1  0  0  0  0
  4  8  1  0  0  0  0
  5 11  1  0  0  0  0
  5  4  2  0  0  0  0
  7  6  2  0  0  0  0
  8  9  2  0  0  0  0
  9 12  1  0  0  0  0
 11  1  2  0  0  0  0
 12  6  1  0  0  0  0
 12 10  2  0  0  0  0
 14 15  1  0  0  0  0
 14 13  1  1  0  0  0
 15 17  1  6  0  0  0
 15 13  1  0  0  0  0
 16 22  1  0  0  0  0
 17 16  1  0  0  0  0
 18 16  2  0  0  0  0
 19 24  1  0  0  0  0
 20 23  1  0  0  0  0
 21 20  2  0  0  0  0
 22 21  1  0  0  0  0
 22 19  2  0  0  0  0
 24 23  2  0  0  0  0
 25 26  1  0  0  0  0
 25  4  1  0  0  0  0
M  END
>  <MODEL>
5

>  <REMARK>
 VINA RESULT:      -6.8      2.461      4.813
  Name = 
  4 active torsions:
  status: ('A' for Active; 'I' for Inactive)
    1  A    between atoms: C_2  and  C_13
    2  A    between atoms: C_3  and  C_18
    3  A    between atoms: C_5  and  O_9
    4  A    between atoms: N_17  and  C_22
                            x       y       z     vdW  Elec       q    Type
                         _______ _______ _______ _____ _____    ______ ____

>  <TORSDO>
F 4

$$$$
=
 OpenBabel10232410003D

 26 29  0  0  1  0  0  0  0  0999 V2000
  184.5800  179.1450  141.1590 C   0  0  0  0  0  0  0  0  0  0  0  0
  186.1390  179.0530  143.2060 C   0  0  1  0  0  3  0  0  0  0  0  0
  185.7850  179.4710  141.8580 N   0  0  0  0  0  2  0  0  0  0  0  0
  182.3770  178.3520  139.5950 C   0  0  0  0  0  0  0  0  0  0  0  0
  183.5480  178.8100  138.9830 C   0  0  0  0  0  3  0  0  0  0  0  0
  183.9270  179.5360  144.2310 C   0  0  0  0  0  3  0  0  0  0  0  0
  185.2460  179.7000  144.2050 C   0  0  0  0  0  3  0  0  0  0  0  0
  182.3040  178.3190  140.9890 C   0  0  0  0  0  3  0  0  0  0  0  0
  183.3820  178.7220  141.7980 C   0  0  0  0  0  0  0  0  0  0  0  0
  182.1180  178.1620  143.7220 O   0  0  0  0  0  0  0  0  0  0  0  0
  184.6350  179.2010  139.7610 C   0  0  0  0  0  3  0  0  0  0  0  0
  183.1350  178.7540  143.2670 C   0  0  0  0  0  0  0  0  0  0  0  0
  186.3900  177.1510  144.7930 C   0  0  0  0  0  2  0  0  0  0  0  0
  186.1340  177.5250  143.3450 C   0  0  2  0  0  3  0  0  0  0  0  0
  187.4680  176.8920  143.7600 C   0  0  1  0  0  3  0  0  0  0  0  0
  189.4740  178.2540  142.8870 C   0  0  0  0  0  0  0  0  0  0  0  0
  188.5400  177.8700  143.9080 N   0  0  0  0  0  2  0  0  0  0  0  0
  190.3330  179.1290  143.1760 O   0  0  0  0  0  0  0  0  0  0  0  0
  188.5500  178.1160  140.5340 C   0  0  0  0  0  3  0  0  0  0  0  0
  190.4240  176.2010  139.8930 N   0  0  0  0  0  0  0  0  0  0  0  0
  190.4020  176.7150  141.1520 C   0  0  0  0  0  3  0  0  0  0  0  0
  189.4620  177.6940  141.5090 C   0  0  0  0  0  0  0  0  0  0  0  0
  189.5460  176.6120  138.9410 C   0  0  0  0  0  3  0  0  0  0  0  0
  188.5880  177.5800  139.2460 C   0  0  0  0  0  3  0  0  0  0  0  0
  181.2710  177.9380  138.8480 O   0  0  0  0  0  0  0  0  0  0  0  0
  180.6490  176.6750  139.0320 C   0  0  0  0  0  1  0  0  0  0  0  0
  1  9  1  0  0  0  0
  1  3  1  0  0  0  0
  2 14  1  0  0  0  0
  2  7  1  1  0  0  0
  3  2  1  0  0  0  0
  4  8  1  0  0  0  0
  5  4  2  0  0  0  0
  5 11  1  0  0  0  0
  7  6  2  0  0  0  0
  8  9  2  0  0  0  0
  9 12  1  0  0  0  0
 11  1  2  0  0  0  0
 12 10  2  0  0  0  0
 12  6  1  0  0  0  0
 14 15  1  0  0  0  0
 14 13  1  1  0  0  0
 15 17  1  1  0  0  0
 15 13  1  0  0  0  0
 16 18  2  0  0  0  0
 16 17  1  0  0  0  0
 19 22  1  0  0  0  0
 20 21  1  0  0  0  0
 21 22  2  0  0  0  0
 22 16  1  0  0  0  0
 23 24  1  0  0  0  0
 23 20  2  0  0  0  0
 24 19  2  0  0  0  0
 25 26  1  0  0  0  0
 25  4  1  0  0  0  0
M  END
>  <MODEL>
6

>  <REMARK>
 VINA RESULT:      -6.6      2.871      5.866
  Name = 
  4 active torsions:
  status: ('A' for Active; 'I' for Inactive)
    1  A    between atoms: C_2  and  C_13
    2  A    between atoms: C_3  and  C_18
    3  A    between atoms: C_5  and  O_9
    4  A    between atoms: N_17  and  C_22
                            x       y       z     vdW  Elec       q    Type
                         _______ _______ _______ _____ _____    ______ ____

>  <TORSDO>
F 4

$$$$
=
 OpenBabel10232410003D

 26 29  0  0  1  0  0  0  0  0999 V2000
  188.9890  178.1970  140.0920 C   0  0  0  0  0  0  0  0  0  0  0  0
  187.6570  178.2540  137.8890 C   0  0  1  0  0  3  0  0  0  0  0  0
  188.1670  178.8460  139.1160 N   0  0  0  0  0  2  0  0  0  0  0  0
  190.3800  176.9490  142.1980 C   0  0  0  0  0  0  0  0  0  0  0  0
  189.6440  178.1160  142.4310 C   0  0  0  0  0  3  0  0  0  0  0  0
  189.7840  177.1620  137.2080 C   0  0  0  0  0  3  0  0  0  0  0  0
  188.7700  177.9780  136.9400 C   0  0  0  0  0  3  0  0  0  0  0  0
  190.4380  176.4280  140.9040 C   0  0  0  0  0  3  0  0  0  0  0  0
  189.7670  177.0360  139.8280 C   0  0  0  0  0  0  0  0  0  0  0  0
  190.5380  175.3100  138.4000 O   0  0  0  0  0  0  0  0  0  0  0  0
  188.9590  178.7290  141.3860 C   0  0  0  0  0  3  0  0  0  0  0  0
  190.0070  176.4520  138.4780 C   0  0  0  0  0  0  0  0  0  0  0  0
  185.9400  176.7010  136.9740 C   0  0  0  0  0  2  0  0  0  0  0  0
  186.8250  176.9960  138.1700 C   0  0  2  0  0  3  0  0  0  0  0  0
  185.3090  177.2080  138.2550 C   0  0  1  0  0  3  0  0  0  0  0  0
  184.5110  179.4880  139.1510 C   0  0  0  0  0  0  0  0  0  0  0  0
  184.9210  178.6050  138.0960 N   0  0  0  0  0  2  0  0  0  0  0  0
  184.2220  180.6760  138.8440 O   0  0  0  0  0  0  0  0  0  0  0  0
  183.2490  178.6370  141.1740 C   0  0  0  0  0  3  0  0  0  0  0  0
  185.5540  178.7470  142.6790 N   0  0  0  0  0  0  0  0  0  0  0  0
  185.5930  179.1300  141.3750 C   0  0  0  0  0  3  0  0  0  0  0  0
  184.4370  179.0830  140.5800 C   0  0  0  0  0  0  0  0  0  0  0  0
  184.4060  178.3080  143.2580 C   0  0  0  0  0  3  0  0  0  0  0  0
  183.2270  178.2460  142.5140 C   0  0  0  0  0  3  0  0  0  0  0  0
  191.0690  176.2980  143.2240 O   0  0  0  0  0  0  0  0  0  0  0  0
  191.6210  176.9880  144.3370 C   0  0  0  0  0  1  0  0  0  0  0  0
  1 11  1  0  0  0  0
  2  7  1  6  0  0  0
  2 14  1  0  0  0  0
  2  3  1  0  0  0  0
  3  1  1  0  0  0  0
  4  5  1  0  0  0  0
  4 25  1  0  0  0  0
  6 12  1  0  0  0  0
  7  6  2  0  0  0  0
  8  4  2  0  0  0  0
  9  1  2  0  0  0  0
  9  8  1  0  0  0  0
 10 12  2  0  0  0  0
 11  5  2  0  0  0  0
 12  9  1  0  0  0  0
 13 15  1  0  0  0  0
 14 13  1  6  0  0  0
 14 15  1  0  0  0  0
 15 17  1  6  0  0  0
 16 22  1  0  0  0  0
 17 16  1  0  0  0  0
 18 16  2  0  0  0  0
 19 24  1  0  0  0  0
 20 23  1  0  0  0  0
 21 20  2  0  0  0  0
 22 19  2  0  0  0  0
 22 21  1  0  0  0  0
 24 23  2  0  0  0  0
 25 26  1  0  0  0  0
M  END
>  <MODEL>
7

>  <REMARK>
 VINA RESULT:      -6.5      3.276      6.909
  Name = 
  4 active torsions:
  status: ('A' for Active; 'I' for Inactive)
    1  A    between atoms: C_2  and  C_13
    2  A    between atoms: C_3  and  C_18
    3  A    between atoms: C_5  and  O_9
    4  A    between atoms: N_17  and  C_22
                            x       y       z     vdW  Elec       q    Type
                         _______ _______ _______ _____ _____    ______ ____

>  <TORSDO>
F 4

$$$$
=
 OpenBabel10232410003D

 26 29  0  0  1  0  0  0  0  0999 V2000
  187.3860  178.6550  142.6380 C   0  0  0  0  0  0  0  0  0  0  0  0
  189.6640  177.8650  143.5420 C   0  0  1  0  0  3  0  0  0  0  0  0
  188.8140  178.7070  142.7150 N   0  0  0  0  0  2  0  0  0  0  0  0
  184.6100  178.4650  142.2080 C   0  0  0  0  0  0  0  0  0  0  0  0
  185.4320  179.0700  141.2530 C   0  0  0  0  0  3  0  0  0  0  0  0
  188.2930  178.0380  145.6080 C   0  0  0  0  0  3  0  0  0  0  0  0
  189.4580  178.1710  144.9840 C   0  0  0  0  0  3  0  0  0  0  0  0
  185.1780  177.9810  143.3880 C   0  0  0  0  0  3  0  0  0  0  0  0
  186.5590  178.0740  143.6400 C   0  0  0  0  0  0  0  0  0  0  0  0
  186.2390  176.9470  145.6980 O   0  0  0  0  0  0  0  0  0  0  0  0
  186.8050  179.1620  141.4710 C   0  0  0  0  0  3  0  0  0  0  0  0
  187.0220  177.6310  144.9850 C   0  0  0  0  0  0  0  0  0  0  0  0
  190.6100  175.5770  143.8080 C   0  0  0  0  0  2  0  0  0  0  0  0
  189.4510  176.3760  143.2420 C   0  0  2  0  0  3  0  0  0  0  0  0
  190.4820  175.7340  142.3060 C   0  0  1  0  0  3  0  0  0  0  0  0
  191.5530  177.2120  140.4880 C   0  0  0  0  0  0  0  0  0  0  0  0
  191.4780  176.6820  141.8200 N   0  0  0  0  0  2  0  0  0  0  0  0
  192.4710  178.0380  140.2360 O   0  0  0  0  0  0  0  0  0  0  0  0
  190.8560  175.8500  138.4710 C   0  0  0  0  0  3  0  0  0  0  0  0
  188.4730  177.2260  138.3450 N   0  0  0  0  0  0  0  0  0  0  0  0
  189.3730  177.5430  139.3130 C   0  0  0  0  0  3  0  0  0  0  0  0
  190.5950  176.8590  139.4070 C   0  0  0  0  0  0  0  0  0  0  0  0
  188.7180  176.2430  137.4390 C   0  0  0  0  0  3  0  0  0  0  0  0
  189.9200  175.5350  137.4850 C   0  0  0  0  0  3  0  0  0  0  0  0
  183.2310  178.3420  142.0190 O   0  0  0  0  0  0  0  0  0  0  0  0
  182.6520  178.0540  140.7540 C   0  0  0  0  0  1  0  0  0  0  0  0
  1  3  1  0  0  0  0
  1  9  1  0  0  0  0
  2  7  1  1  0  0  0
  3  2  1  0  0  0  0
  4  8  1  0  0  0  0
  5 11  1  0  0  0  0
  5  4  2  0  0  0  0
  7  6  2  0  0  0  0
  8  9  2  0  0  0  0
  9 12  1  0  0  0  0
 11  1  2  0  0  0  0
 12  6  1  0  0  0  0
 12 10  2  0  0  0  0
 14  2  1  0  0  0  0
 14 13  1  1  0  0  0
 15 17  1  1  0  0  0
 15 14  1  0  0  0  0
 15 13  1  0  0  0  0
 16 17  1  0  0  0  0
 18 16  2  0  0  0  0
 19 22  1  0  0  0  0
 20 21  1  0  0  0  0
 21 22  2  0  0  0  0
 22 16  1  0  0  0  0
 23 24  1  0  0  0  0
 23 20  2  0  0  0  0
 24 19  2  0  0  0  0
 25  4  1  0  0  0  0
 26 25  1  0  0  0  0
M  END
>  <MODEL>
8

>  <REMARK>
 VINA RESULT:      -6.3      2.488      5.691
  Name = 
  4 active torsions:
  status: ('A' for Active; 'I' for Inactive)
    1  A    between atoms: C_2  and  C_13
    2  A    between atoms: C_3  and  C_18
    3  A    between atoms: C_5  and  O_9
    4  A    between atoms: N_17  and  C_22
                            x       y       z     vdW  Elec       q    Type
                         _______ _______ _______ _____ _____    ______ ____

>  <TORSDO>
F 4

$$$$
=
 OpenBabel10232410003D

 26 29  0  0  1  0  0  0  0  0999 V2000
  188.8610  177.3320  137.4040 C   0  0  0  0  0  0  0  0  0  0  0  0
  186.4910  177.9850  136.6370 C   0  0  1  0  0  3  0  0  0  0  0  0
  187.7670  178.2470  137.2850 N   0  0  0  0  0  2  0  0  0  0  0  0
  190.9660  175.5370  137.9280 C   0  0  0  0  0  0  0  0  0  0  0  0
  190.8040  176.6830  138.7130 C   0  0  0  0  0  3  0  0  0  0  0  0
  187.4320  176.8900  134.6140 C   0  0  0  0  0  3  0  0  0  0  0  0
  186.6740  177.8290  135.1680 C   0  0  0  0  0  3  0  0  0  0  0  0
  190.0900  175.3090  136.8660 C   0  0  0  0  0  3  0  0  0  0  0  0
  189.0370  176.1940  136.5690 C   0  0  0  0  0  0  0  0  0  0  0  0
  188.3610  174.7640  134.8060 O   0  0  0  0  0  0  0  0  0  0  0  0
  189.7610  177.5680  138.4490 C   0  0  0  0  0  3  0  0  0  0  0  0
  188.2490  175.9020  135.3380 C   0  0  0  0  0  0  0  0  0  0  0  0
  184.4320  176.5860  136.5850 C   0  0  0  0  0  2  0  0  0  0  0  0
  185.7810  176.7720  137.2530 C   0  0  2  0  0  3  0  0  0  0  0  0
  184.4880  177.0780  138.0170 C   0  0  1  0  0  3  0  0  0  0  0  0
  184.3520  179.3630  139.1990 C   0  0  0  0  0  0  0  0  0  0  0  0
  184.1780  178.5030  138.0630 N   0  0  0  0  0  2  0  0  0  0  0  0
  184.0480  180.5800  139.0660 O   0  0  0  0  0  0  0  0  0  0  0  0
  186.2660  178.7690  140.7460 C   0  0  0  0  0  3  0  0  0  0  0  0
  184.4790  178.1930  142.7620 N   0  0  0  0  0  0  0  0  0  0  0  0
  184.0090  178.5980  141.5520 C   0  0  0  0  0  3  0  0  0  0  0  0
  184.8920  178.9020  140.5060 C   0  0  0  0  0  0  0  0  0  0  0  0
  185.8110  178.0680  143.0020 C   0  0  0  0  0  3  0  0  0  0  0  0
  186.7320  178.3540  141.9940 C   0  0  0  0  0  3  0  0  0  0  0  0
  191.9920  174.6200  138.1710 O   0  0  0  0  0  0  0  0  0  0  0  0
  192.8750  174.1700  137.1540 C   0  0  0  0  0  1  0  0  0  0  0  0
  1 11  1  0  0  0  0
  2  7  1  6  0  0  0
  2 14  1  0  0  0  0
  2  3  1  0  0  0  0
  3  1  1  0  0  0  0
  4 25  1  0  0  0  0
  4  5  1  0  0  0  0
  6  7  2  0  0  0  0
  6 12  1  0  0  0  0
  8  4  2  0  0  0  0
  9  8  1  0  0  0  0
  9  1  2  0  0  0  0
 10 12  2  0  0  0  0
 11  5  2  0  0  0  0
 12  9  1  0  0  0  0
 13 15  1  0  0  0  0
 14 13  1  6  0  0  0
 14 15  1  0  0  0  0
 15 17  1  6  0  0  0
 16 22  1  0  0  0  0
 17 16  1  0  0  0  0
 18 16  2  0  0  0  0
 19 24  1  0  0  0  0
 20 23  1  0  0  0  0
 21 20  2  0  0  0  0
 22 19  2  0  0  0  0
 22 21  1  0  0  0  0
 24 23  2  0  0  0  0
 26 25  1  0  0  0  0
M  END
>  <MODEL>
9

>  <REMARK>
 VINA RESULT:      -6.3      4.594      7.944
  Name = 
  4 active torsions:
  status: ('A' for Active; 'I' for Inactive)
    1  A    between atoms: C_2  and  C_13
    2  A    between atoms: C_3  and  C_18
    3  A    between atoms: C_5  and  O_9
    4  A    between atoms: N_17  and  C_22
                            x       y       z     vdW  Elec       q    Type
                         _______ _______ _______ _____ _____    ______ ____

>  <TORSDO>
F 4

$$$$
