=
 OpenBabel10232411153D

 33 38  0  0  1  0  0  0  0  0999 V2000
  188.9970  177.4840  143.5200 N   0  0  0  0  0  0  0  0  0  0  0  0
  191.2580  176.4130  146.1420 N   0  0  0  0  0  0  0  0  0  0  0  0
  186.4580  178.6590  141.3500 O   0  0  0  0  0  0  0  0  0  0  0  0
  190.6940  176.5490  140.3610 C   0  0  0  0  0  3  0  0  0  0  0  0
  187.7640  178.3300  141.6400 C   0  0  2  0  0  3  0  0  0  0  0  0
  186.6700  178.4100  143.6850 C   0  0  0  0  0  2  0  0  0  0  0  0
  188.6290  177.7700  140.7780 C   0  0  0  0  0  0  0  0  0  0  0  0
  188.0610  178.5160  143.0770 C   0  0  1  0  0  3  0  0  0  0  0  0
  189.4680  177.3120  144.8470 C   0  0  0  0  0  0  0  0  0  0  0  0
  190.6640  176.6250  144.9390 C   0  0  0  0  0  0  0  0  0  0  0  0
  189.2740  177.1950  138.5140 C   0  0  0  0  0  3  0  0  0  0  0  0
  190.4580  176.5970  138.9770 C   0  0  0  0  0  0  0  0  0  0  0  0
  189.7910  177.1130  141.2700 C   0  0  0  0  0  0  0  0  0  0  0  0
  188.8580  178.0490  148.4310 N   0  0  0  0  0  1  0  0  0  0  0  0
  191.3610  176.1100  143.3700 S   0  0  0  0  0  0  0  0  0  0  0  0
  190.6760  176.8690  147.2880 C   0  0  0  0  0  3  0  0  0  0  0  0
  188.3660  177.7710  139.4050 C   0  0  0  0  0  3  0  0  0  0  0  0
  189.9630  176.9590  142.6000 C   0  0  2  0  0  3  0  0  0  0  0  0
  188.8480  177.8030  145.9970 C   0  0  0  0  0  3  0  0  0  0  0  0
  185.7270  178.8580  142.5540 C   0  0  2  0  0  3  0  0  0  0  0  0
  189.4600  177.5700  147.2350 C   0  0  0  0  0  0  0  0  0  0  0  0
  191.3960  176.0090  138.0510 N   0  0  0  0  0  0  0  0  0  0  0  0
  193.2820  175.4270  135.7590 C   0  0  0  0  0  2  0  0  0  0  0  0
  190.7670  175.1120  135.8330 C   0  0  0  0  0  2  0  0  0  0  0  0
  193.5800  176.2980  136.9420 C   0  0  0  0  0  3  0  0  0  0  0  0
  191.9420  175.8080  135.1410 C   0  0  0  0  0  2  0  0  0  0  0  0
  192.7280  176.5500  137.9460 C   0  0  0  0  0  3  0  0  0  0  0  0
  191.0160  174.8040  137.3100 C   0  0  0  0  0  2  0  0  0  0  0  0
  184.4770  178.0000  142.5590 C   0  0  0  0  0  2  0  0  0  0  0  0
  183.2420  178.8770  142.6580 C   0  0  0  0  0  2  0  0  0  0  0  0
  181.4660  178.5310  144.2040 O   0  0  0  0  0  0  0  0  0  0  0  0
  183.5110  179.0850  145.1560 N   0  0  0  0  0  1  0  0  0  0  0  0
  182.6810  178.8070  144.0330 C   0  0  0  0  0  0  0  0  0  0  0  0
  1  9  1  0  0  0  0
  2 16  1  0  0  0  0
  3  5  1  0  0  0  0
  3 20  1  0  0  0  0
  4 13  1  0  0  0  0
  5  7  1  1  0  0  0
  5  8  1  0  0  0  0
  7 13  2  0  0  0  0
  8  1  1  0  0  0  0
  8  6  1  1  0  0  0
  9 10  1  0  0  0  0
  9 19  2  0  0  0  0
 10  2  2  0  0  0  0
 11 12  1  0  0  0  0
 11 17  2  0  0  0  0
 12  4  2  0  0  0  0
 15 10  1  0  0  0  0
 17  7  1  0  0  0  0
 18 13  1  6  0  0  0
 18 15  1  0  0  0  0
 18  1  1  0  0  0  0
 19 21  1  0  0  0  0
 20 29  1  6  0  0  0
 20  6  1  0  0  0  0
 21 16  2  0  0  0  0
 21 14  1  0  0  0  0
 22 12  1  0  0  0  0
 23 25  1  0  0  0  0
 24 28  1  0  0  0  0
 25 27  2  0  0  0  0
 26 23  1  0  0  0  0
 26 24  1  0  0  0  0
 27 22  1  0  0  0  0
 28 22  1  0  0  0  0
 29 30  1  0  0  0  0
 30 33  1  0  0  0  0
 33 31  2  0  0  0  0
 33 32  1  0  0  0  0
M  END
>  <MODEL>
1

>  <REMARK>
 VINA RESULT:      -9.1      0.000      0.000
  Name = 
  4 active torsions:
  status: ('A' for Active; 'I' for Inactive)
    1  A    between atoms: N_6  and  C_18
    2  A    between atoms: C_11  and  C_21
    3  A    between atoms: C_11  and  C_31
    4  A    between atoms: C_21  and  C_25
                            x       y       z     vdW  Elec       q    Type
                         _______ _______ _______ _____ _____    ______ ____

>  <TORSDO>
F 4

$$$$
=
 OpenBabel10232411153D

 33 38  0  0  1  0  0  0  0  0999 V2000
  189.0250  177.5590  143.1490 N   0  0  0  0  0  0  0  0  0  0  0  0
  191.4660  176.3710  145.5490 N   0  0  0  0  0  0  0  0  0  0  0  0
  186.3320  178.8140  141.2230 O   0  0  0  0  0  0  0  0  0  0  0  0
  190.5420  176.8840  139.8360 C   0  0  0  0  0  3  0  0  0  0  0  0
  187.6600  178.4990  141.4090 C   0  0  2  0  0  3  0  0  0  0  0  0
  186.6930  178.4130  143.5180 C   0  0  0  0  0  2  0  0  0  0  0  0
  188.4820  178.0210  140.4610 C   0  0  0  0  0  0  0  0  0  0  0  0
  188.0420  178.5950  142.8360 C   0  0  1  0  0  3  0  0  0  0  0  0
  189.5810  177.3100  144.4300 C   0  0  0  0  0  0  0  0  0  0  0  0
  190.7940  176.6490  144.4010 C   0  0  0  0  0  0  0  0  0  0  0  0
  188.9960  177.6170  138.1270 C   0  0  0  0  0  3  0  0  0  0  0  0
  190.2190  177.0190  138.4750 C   0  0  0  0  0  0  0  0  0  0  0  0
  189.6850  177.3610  140.8350 C   0  0  0  0  0  0  0  0  0  0  0  0
  189.1790  177.7870  148.0860 N   0  0  0  0  0  1  0  0  0  0  0  0
  191.4040  176.2580  142.7620 S   0  0  0  0  0  0  0  0  0  0  0  0
  190.9470  176.7330  146.7570 C   0  0  0  0  0  3  0  0  0  0  0  0
  188.1330  178.1080  139.1090 C   0  0  0  0  0  3  0  0  0  0  0  0
  189.9430  177.1220  142.1380 C   0  0  2  0  0  3  0  0  0  0  0  0
  189.0230  177.7060  145.6460 C   0  0  0  0  0  3  0  0  0  0  0  0
  185.6730  178.9130  142.4790 C   0  0  2  0  0  3  0  0  0  0  0  0
  189.7160  177.4060  146.8260 C   0  0  0  0  0  0  0  0  0  0  0  0
  191.1100  176.5190  137.4560 N   0  0  0  0  0  0  0  0  0  0  0  0
  192.5790  174.8480  135.4060 C   0  0  0  0  0  2  0  0  0  0  0  0
  192.9950  174.9810  137.9040 C   0  0  0  0  0  2  0  0  0  0  0  0
  191.2320  175.4800  135.2230 C   0  0  0  0  0  3  0  0  0  0  0  0
  192.6330  174.0800  136.7210 C   0  0  0  0  0  2  0  0  0  0  0  0
  190.5930  176.2120  136.1450 C   0  0  0  0  0  3  0  0  0  0  0  0
  192.5460  176.4320  137.7340 C   0  0  0  0  0  2  0  0  0  0  0  0
  184.4440  178.0240  142.5000 C   0  0  0  0  0  2  0  0  0  0  0  0
  183.1890  178.8730  142.5980 C   0  0  0  0  0  2  0  0  0  0  0  0
  181.4410  178.5500  144.1810 O   0  0  0  0  0  0  0  0  0  0  0  0
  183.5020  179.1210  145.0870 N   0  0  0  0  0  1  0  0  0  0  0  0
  182.6530  178.8250  143.9840 C   0  0  0  0  0  0  0  0  0  0  0  0
  1  9  1  0  0  0  0
  2 16  1  0  0  0  0
  3  5  1  0  0  0  0
  3 20  1  0  0  0  0
  4 13  1  0  0  0  0
  5  7  1  1  0  0  0
  5  8  1  0  0  0  0
  7 13  2  0  0  0  0
  8  1  1  0  0  0  0
  8  6  1  1  0  0  0
  9 19  2  0  0  0  0
 10  9  1  0  0  0  0
 10  2  2  0  0  0  0
 11 12  1  0  0  0  0
 11 17  2  0  0  0  0
 12  4  2  0  0  0  0
 15 10  1  0  0  0  0
 16 21  2  0  0  0  0
 17  7  1  0  0  0  0
 18 13  1  6  0  0  0
 18 15  1  0  0  0  0
 18  1  1  0  0  0  0
 19 21  1  0  0  0  0
 20 29  1  6  0  0  0
 20  6  1  0  0  0  0
 21 14  1  0  0  0  0
 22 28  1  0  0  0  0
 22 12  1  0  0  0  0
 23 26  1  0  0  0  0
 25 23  1  0  0  0  0
 25 27  2  0  0  0  0
 26 24  1  0  0  0  0
 27 22  1  0  0  0  0
 28 24  1  0  0  0  0
 29 30  1  0  0  0  0
 30 33  1  0  0  0  0
 33 31  2  0  0  0  0
 33 32  1  0  0  0  0
M  END
>  <MODEL>
2

>  <REMARK>
 VINA RESULT:      -8.9      0.661      1.157
  Name = 
  4 active torsions:
  status: ('A' for Active; 'I' for Inactive)
    1  A    between atoms: N_6  and  C_18
    2  A    between atoms: C_11  and  C_21
    3  A    between atoms: C_11  and  C_31
    4  A    between atoms: C_21  and  C_25
                            x       y       z     vdW  Elec       q    Type
                         _______ _______ _______ _____ _____    ______ ____

>  <TORSDO>
F 4

$$$$
=
 OpenBabel10232411153D

 33 38  0  0  1  0  0  0  0  0999 V2000
  188.3750  177.5800  142.8260 N   0  0  0  0  0  0  0  0  0  0  0  0
  190.0770  176.4850  145.8330 N   0  0  0  0  0  0  0  0  0  0  0  0
  186.3220  178.7970  140.2110 O   0  0  0  0  0  0  0  0  0  0  0  0
  190.5910  176.5350  140.0450 C   0  0  0  0  0  3  0  0  0  0  0  0
  187.5400  178.4310  140.7410 C   0  0  2  0  0  3  0  0  0  0  0  0
  186.0910  178.5830  142.5480 C   0  0  0  0  0  2  0  0  0  0  0  0
  188.5290  177.8290  140.0600 C   0  0  0  0  0  0  0  0  0  0  0  0
  187.5740  178.6340  142.2060 C   0  0  1  0  0  3  0  0  0  0  0  0
  188.5890  177.4180  144.2200 C   0  0  0  0  0  0  0  0  0  0  0  0
  189.7220  176.6940  144.5380 C   0  0  0  0  0  0  0  0  0  0  0  0
  189.5590  177.1930  137.9610 C   0  0  0  0  0  3  0  0  0  0  0  0
  190.6160  176.5650  138.6420 C   0  0  0  0  0  0  0  0  0  0  0  0
  189.5560  177.1430  140.7660 C   0  0  0  0  0  0  0  0  0  0  0  0
  187.3550  178.2390  147.6200 N   0  0  0  0  0  1  0  0  0  0  0  0
  190.6780  176.1290  143.1320 S   0  0  0  0  0  0  0  0  0  0  0  0
  189.3100  176.9800  146.8460 C   0  0  0  0  0  3  0  0  0  0  0  0
  188.5230  177.8130  138.6620 C   0  0  0  0  0  3  0  0  0  0  0  0
  189.4750  177.0080  142.1070 C   0  0  2  0  0  3  0  0  0  0  0  0
  187.7850  177.9490  145.2290 C   0  0  0  0  0  3  0  0  0  0  0  0
  185.3900  179.0410  141.2570 C   0  0  2  0  0  3  0  0  0  0  0  0
  188.1500  177.7190  146.5610 C   0  0  0  0  0  0  0  0  0  0  0  0
  191.6870  175.9310  137.9120 N   0  0  0  0  0  0  0  0  0  0  0  0
  193.7750  175.1240  135.8760 C   0  0  0  0  0  2  0  0  0  0  0  0
  191.3380  174.4290  135.9770 C   0  0  0  0  0  2  0  0  0  0  0  0
  193.8630  176.2940  136.8090 C   0  0  0  0  0  3  0  0  0  0  0  0
  192.4320  175.1170  135.1570 C   0  0  0  0  0  2  0  0  0  0  0  0
  192.9240  176.6410  137.7010 C   0  0  0  0  0  3  0  0  0  0  0  0
  191.5420  174.5360  137.4880 C   0  0  0  0  0  2  0  0  0  0  0  0
  184.1300  178.2230  141.0410 C   0  0  0  0  0  2  0  0  0  0  0  0
  183.7280  178.2620  139.5780 C   0  0  0  0  0  2  0  0  0  0  0  0
  183.8570  180.5320  138.8740 O   0  0  0  0  0  0  0  0  0  0  0  0
  181.7240  179.7810  139.4060 N   0  0  0  0  0  1  0  0  0  0  0  0
  183.1250  179.5820  139.2540 C   0  0  0  0  0  0  0  0  0  0  0  0
  1  9  1  0  0  0  0
  2 16  1  0  0  0  0
  3  5  1  0  0  0  0
  3 20  1  0  0  0  0
  4 13  1  0  0  0  0
  5  7  1  1  0  0  0
  5  8  1  0  0  0  0
  7 13  2  0  0  0  0
  8  6  1  1  0  0  0
  8  1  1  0  0  0  0
  9 10  1  0  0  0  0
  9 19  2  0  0  0  0
 10  2  2  0  0  0  0
 11 12  1  0  0  0  0
 11 17  2  0  0  0  0
 12  4  2  0  0  0  0
 15 10  1  0  0  0  0
 17  7  1  0  0  0  0
 18 13  1  6  0  0  0
 18  1  1  0  0  0  0
 18 15  1  0  0  0  0
 19 21  1  0  0  0  0
 20 29  1  6  0  0  0
 20  6  1  0  0  0  0
 21 16  2  0  0  0  0
 21 14  1  0  0  0  0
 22 12  1  0  0  0  0
 23 25  1  0  0  0  0
 24 28  1  0  0  0  0
 25 27  2  0  0  0  0
 26 23  1  0  0  0  0
 26 24  1  0  0  0  0
 27 22  1  0  0  0  0
 28 22  1  0  0  0  0
 30 29  1  0  0  0  0
 31 33  2  0  0  0  0
 33 32  1  0  0  0  0
 33 30  1  0  0  0  0
M  END
>  <MODEL>
3

>  <REMARK>
 VINA RESULT:      -8.9      1.722      2.037
  Name = 
  4 active torsions:
  status: ('A' for Active; 'I' for Inactive)
    1  A    between atoms: N_6  and  C_18
    2  A    between atoms: C_11  and  C_21
    3  A    between atoms: C_11  and  C_31
    4  A    between atoms: C_21  and  C_25
                            x       y       z     vdW  Elec       q    Type
                         _______ _______ _______ _____ _____    ______ ____

>  <TORSDO>
F 4

$$$$
=
 OpenBabel10232411153D

 33 38  0  0  1  0  0  0  0  0999 V2000
  184.9630  178.4720  140.5900 N   0  0  0  0  0  0  0  0  0  0  0  0
  181.4360  179.0990  141.1330 N   0  0  0  0  0  0  0  0  0  0  0  0
  188.2900  177.8610  139.5440 O   0  0  0  0  0  0  0  0  0  0  0  0
  186.3930  178.0710  143.9860 C   0  0  0  0  0  3  0  0  0  0  0  0
  187.3550  178.2870  140.4620 C   0  0  2  0  0  3  0  0  0  0  0  0
  186.2170  178.1030  138.4470 C   0  0  0  0  0  2  0  0  0  0  0  0
  187.4470  178.1220  141.7920 C   0  0  0  0  0  0  0  0  0  0  0  0
  186.1420  178.8090  139.7940 C   0  0  1  0  0  3  0  0  0  0  0  0
  183.6200  178.7630  140.2370 C   0  0  0  0  0  0  0  0  0  0  0  0
  182.7490  178.7990  141.3100 C   0  0  0  0  0  0  0  0  0  0  0  0
  188.7580  177.6250  143.7680 C   0  0  0  0  0  3  0  0  0  0  0  0
  187.6290  177.7860  144.5880 C   0  0  0  0  0  0  0  0  0  0  0  0
  186.2800  178.2260  142.5980 C   0  0  0  0  0  0  0  0  0  0  0  0
  181.2960  179.6110  137.4740 N   0  0  0  0  0  1  0  0  0  0  0  0
  183.5010  178.4830  142.9060 S   0  0  0  0  0  0  0  0  0  0  0  0
  180.9500  179.3610  139.8870 C   0  0  0  0  0  3  0  0  0  0  0  0
  188.6680  177.7860  142.3830 C   0  0  0  0  0  3  0  0  0  0  0  0
  185.0720  178.3800  142.0160 C   0  0  2  0  0  3  0  0  0  0  0  0
  183.1620  179.0360  138.9480 C   0  0  0  0  0  3  0  0  0  0  0  0
  187.7200  177.8380  138.2420 C   0  0  2  0  0  3  0  0  0  0  0  0
  181.8050  179.3320  138.7730 C   0  0  0  0  0  0  0  0  0  0  0  0
  187.7290  177.6250  146.0180 N   0  0  0  0  0  0  0  0  0  0  0  0
  188.1530  178.0000  148.9900 C   0  0  0  0  0  2  0  0  0  0  0  0
  189.8710  177.3770  147.2320 C   0  0  0  0  0  2  0  0  0  0  0  0
  186.9810  178.4990  148.2000 C   0  0  0  0  0  3  0  0  0  0  0  0
  189.4590  178.3860  148.3070 C   0  0  0  0  0  2  0  0  0  0  0  0
  186.8130  178.3290  146.8810 C   0  0  0  0  0  3  0  0  0  0  0  0
  188.6900  176.6670  146.5690 C   0  0  0  0  0  2  0  0  0  0  0  0
  187.9170  176.4750  137.6040 C   0  0  0  0  0  2  0  0  0  0  0  0
  189.3220  176.3610  137.0420 C   0  0  0  0  0  2  0  0  0  0  0  0
  190.6990  175.7260  138.8760 O   0  0  0  0  0  0  0  0  0  0  0  0
  190.2030  174.0230  137.3760 N   0  0  0  0  0  1  0  0  0  0  0  0
  190.1030  175.3690  137.8280 C   0  0  0  0  0  0  0  0  0  0  0  0
  1 18  1  0  0  0  0
  2 10  1  0  0  0  0
  4 12  1  0  0  0  0
  5  3  1  6  0  0  0
  5  7  1  0  0  0  0
  7 17  2  0  0  0  0
  7 13  1  0  0  0  0
  8  6  1  6  0  0  0
  8  5  1  0  0  0  0
  8  1  1  0  0  0  0
  9  1  1  0  0  0  0
  9 10  2  0  0  0  0
 10 15  1  0  0  0  0
 11 12  2  0  0  0  0
 12 22  1  0  0  0  0
 13  4  2  0  0  0  0
 14 21  1  0  0  0  0
 16  2  2  0  0  0  0
 17 11  1  0  0  0  0
 18 13  1  6  0  0  0
 18 15  1  0  0  0  0
 19  9  1  0  0  0  0
 20 29  1  1  0  0  0
 20  6  1  0  0  0  0
 20  3  1  0  0  0  0
 21 19  2  0  0  0  0
 21 16  1  0  0  0  0
 22 28  1  0  0  0  0
 22 27  1  0  0  0  0
 24 26  1  0  0  0  0
 25 23  1  0  0  0  0
 26 23  1  0  0  0  0
 27 25  2  0  0  0  0
 28 24  1  0  0  0  0
 30 29  1  0  0  0  0
 30 33  1  0  0  0  0
 32 33  1  0  0  0  0
 33 31  2  0  0  0  0
M  END
>  <MODEL>
4

>  <REMARK>
 VINA RESULT:      -8.7      3.175      8.897
  Name = 
  4 active torsions:
  status: ('A' for Active; 'I' for Inactive)
    1  A    between atoms: N_6  and  C_18
    2  A    between atoms: C_11  and  C_21
    3  A    between atoms: C_11  and  C_31
    4  A    between atoms: C_21  and  C_25
                            x       y       z     vdW  Elec       q    Type
                         _______ _______ _______ _____ _____    ______ ____

>  <TORSDO>
F 4

$$$$
=
 OpenBabel10232411153D

 33 38  0  0  1  0  0  0  0  0999 V2000
  184.7610  178.4640  141.1960 N   0  0  0  0  0  0  0  0  0  0  0  0
  182.0470  178.9830  143.5410 N   0  0  0  0  0  0  0  0  0  0  0  0
  187.0400  177.9610  138.5330 O   0  0  0  0  0  0  0  0  0  0  0  0
  187.7790  178.0560  143.3100 C   0  0  0  0  0  3  0  0  0  0  0  0
  186.7250  178.3480  139.8180 C   0  0  2  0  0  3  0  0  0  0  0  0
  184.6960  178.1590  138.7060 C   0  0  0  0  0  2  0  0  0  0  0  0
  187.5100  178.1680  140.8930 C   0  0  0  0  0  0  0  0  0  0  0  0
  185.3340  178.8440  139.9060 C   0  0  1  0  0  3  0  0  0  0  0  0
  183.4310  178.7210  141.6160 C   0  0  0  0  0  0  0  0  0  0  0  0
  183.2590  178.7180  142.9880 C   0  0  0  0  0  0  0  0  0  0  0  0
  189.6770  177.6810  141.8610 C   0  0  0  0  0  3  0  0  0  0  0  0
  189.1510  177.7990  143.1590 C   0  0  0  0  0  0  0  0  0  0  0  0
  186.9460  178.2280  142.1970 C   0  0  0  0  0  0  0  0  0  0  0  0
  179.9820  179.5410  140.5240 N   0  0  0  0  0  1  0  0  0  0  0  0
  184.7470  178.4010  143.9350 S   0  0  0  0  0  0  0  0  0  0  0  0
  180.9700  179.2480  142.7470 C   0  0  0  0  0  3  0  0  0  0  0  0
  188.8650  177.8580  140.7390 C   0  0  0  0  0  3  0  0  0  0  0  0
  185.6100  178.3550  142.3460 C   0  0  2  0  0  3  0  0  0  0  0  0
  182.3540  178.9980  140.7720 C   0  0  0  0  0  3  0  0  0  0  0  0
  185.8660  177.9400  137.7300 C   0  0  2  0  0  3  0  0  0  0  0  0
  181.1060  179.2590  141.3490 C   0  0  0  0  0  0  0  0  0  0  0  0
  189.9960  177.6210  144.3150 N   0  0  0  0  0  0  0  0  0  0  0  0
  191.4510  176.5770  146.7530 C   0  0  0  0  0  2  0  0  0  0  0  0
  189.1780  177.6940  146.6480 C   0  0  0  0  0  2  0  0  0  0  0  0
  191.7500  176.2150  145.3290 C   0  0  0  0  0  3  0  0  0  0  0  0
  189.9610  176.4370  147.0360 C   0  0  0  0  0  2  0  0  0  0  0  0
  191.0900  176.6830  144.2600 C   0  0  0  0  0  3  0  0  0  0  0  0
  189.7990  178.4740  145.4890 C   0  0  0  0  0  2  0  0  0  0  0  0
  185.7190  176.5920  137.0490 C   0  0  0  0  0  2  0  0  0  0  0  0
  187.0860  175.9790  136.8040 C   0  0  0  0  0  2  0  0  0  0  0  0
  185.9720  173.9740  137.4400 O   0  0  0  0  0  0  0  0  0  0  0  0
  188.1510  173.6970  136.6860 N   0  0  0  0  0  1  0  0  0  0  0  0
  187.0190  174.5050  136.9890 C   0  0  0  0  0  0  0  0  0  0  0  0
  1  9  1  0  0  0  0
  1 18  1  0  0  0  0
  5  3  1  1  0  0  0
  5  8  1  0  0  0  0
  5  7  1  0  0  0  0
  7 13  1  0  0  0  0
  8  6  1  6  0  0  0
  8  1  1  0  0  0  0
  9 10  2  0  0  0  0
 10  2  1  0  0  0  0
 10 15  1  0  0  0  0
 11 12  2  0  0  0  0
 12  4  1  0  0  0  0
 12 22  1  0  0  0  0
 13  4  2  0  0  0  0
 14 21  1  0  0  0  0
 16  2  2  0  0  0  0
 17  7  2  0  0  0  0
 17 11  1  0  0  0  0
 18 13  1  6  0  0  0
 18 15  1  0  0  0  0
 19 21  2  0  0  0  0
 19  9  1  0  0  0  0
 20 29  1  1  0  0  0
 20  3  1  0  0  0  0
 20  6  1  0  0  0  0
 21 16  1  0  0  0  0
 22 28  1  0  0  0  0
 23 26  1  0  0  0  0
 24 26  1  0  0  0  0
 25 23  1  0  0  0  0
 27 22  1  0  0  0  0
 27 25  2  0  0  0  0
 28 24  1  0  0  0  0
 30 33  1  0  0  0  0
 30 29  1  0  0  0  0
 32 33  1  0  0  0  0
 33 31  2  0  0  0  0
M  END
>  <MODEL>
5

>  <REMARK>
 VINA RESULT:      -8.5      3.317      7.633
  Name = 
  4 active torsions:
  status: ('A' for Active; 'I' for Inactive)
    1  A    between atoms: N_6  and  C_18
    2  A    between atoms: C_11  and  C_21
    3  A    between atoms: C_11  and  C_31
    4  A    between atoms: C_21  and  C_25
                            x       y       z     vdW  Elec       q    Type
                         _______ _______ _______ _____ _____    ______ ____

>  <TORSDO>
F 4

$$$$
=
 OpenBabel10232411153D

 33 38  0  0  1  0  0  0  0  0999 V2000
  187.4470  177.7470  143.1970 N   0  0  0  0  0  0  0  0  0  0  0  0
  184.1620  179.2470  143.5090 N   0  0  0  0  0  0  0  0  0  0  0  0
  190.6600  176.2780  143.4200 O   0  0  0  0  0  0  0  0  0  0  0  0
  188.1480  177.7430  139.5580 C   0  0  0  0  0  3  0  0  0  0  0  0
  189.4900  176.5650  142.7510 C   0  0  2  0  0  3  0  0  0  0  0  0
  189.0810  177.0750  144.9790 C   0  0  0  0  0  2  0  0  0  0  0  0
  189.3950  176.8270  141.4380 C   0  0  0  0  0  0  0  0  0  0  0  0
  188.3560  176.7140  143.6900 C   0  0  1  0  0  3  0  0  0  0  0  0
  186.2770  178.2010  143.8590 C   0  0  0  0  0  0  0  0  0  0  0  0
  185.3480  178.7940  143.0250 C   0  0  0  0  0  0  0  0  0  0  0  0
  190.3360  176.7770  139.2060 C   0  0  0  0  0  3  0  0  0  0  0  0
  189.1800  177.3760  138.6780 C   0  0  0  0  0  0  0  0  0  0  0  0
  188.2440  177.4920  140.9320 C   0  0  0  0  0  0  0  0  0  0  0  0
  184.4810  178.4140  147.0980 N   0  0  0  0  0  1  0  0  0  0  0  0
  185.8150  178.8530  141.2950 S   0  0  0  0  0  0  0  0  0  0  0  0
  183.8710  179.1330  144.8360 C   0  0  0  0  0  3  0  0  0  0  0  0
  190.4460  176.5100  140.5720 C   0  0  0  0  0  3  0  0  0  0  0  0
  187.3050  177.9530  141.7850 C   0  0  2  0  0  3  0  0  0  0  0  0
  186.0100  178.0570  145.2210 C   0  0  0  0  0  3  0  0  0  0  0  0
  190.4730  176.4380  144.8210 C   0  0  2  0  0  3  0  0  0  0  0  0
  184.7900  178.5370  145.7150 C   0  0  0  0  0  0  0  0  0  0  0  0
  189.0700  177.6440  137.2650 N   0  0  0  0  0  0  0  0  0  0  0  0
  188.2750  177.7220  134.3460 C   0  0  0  0  0  2  0  0  0  0  0  0
  189.8270  176.0830  135.5010 C   0  0  0  0  0  2  0  0  0  0  0  0
  187.5570  178.4050  135.4710 C   0  0  0  0  0  3  0  0  0  0  0  0
  188.5400  176.2630  134.6920 C   0  0  0  0  0  2  0  0  0  0  0  0
  187.9200  178.3540  136.7610 C   0  0  0  0  0  3  0  0  0  0  0  0
  190.1780  177.2870  136.3750 C   0  0  0  0  0  2  0  0  0  0  0  0
  191.5290  177.3670  145.3900 C   0  0  0  0  0  2  0  0  0  0  0  0
  191.5550  177.2610  146.9040 C   0  0  0  0  0  2  0  0  0  0  0  0
  192.3620  175.0420  146.5970 O   0  0  0  0  0  0  0  0  0  0  0  0
  193.0870  176.0990  148.5350 N   0  0  0  0  0  1  0  0  0  0  0  0
  192.3550  176.0760  147.3140 C   0  0  0  0  0  0  0  0  0  0  0  0
  1  8  1  0  0  0  0
  1  9  1  0  0  0  0
  2 16  1  0  0  0  0
  3 20  1  0  0  0  0
  4 13  1  0  0  0  0
  5  7  1  1  0  0  0
  5  3  1  0  0  0  0
  5  8  1  0  0  0  0
  8  6  1  1  0  0  0
  9 19  2  0  0  0  0
 10  2  2  0  0  0  0
 10  9  1  0  0  0  0
 11 17  2  0  0  0  0
 12 11  1  0  0  0  0
 12  4  2  0  0  0  0
 13  7  2  0  0  0  0
 15 18  1  0  0  0  0
 15 10  1  0  0  0  0
 16 21  2  0  0  0  0
 17  7  1  0  0  0  0
 18 13  1  1  0  0  0
 18  1  1  0  0  0  0
 19 21  1  0  0  0  0
 20  6  1  0  0  0  0
 20 29  1  6  0  0  0
 21 14  1  0  0  0  0
 22 12  1  0  0  0  0
 23 26  1  0  0  0  0
 23 25  1  0  0  0  0
 24 28  1  0  0  0  0
 25 27  2  0  0  0  0
 26 24  1  0  0  0  0
 27 22  1  0  0  0  0
 28 22  1  0  0  0  0
 29 30  1  0  0  0  0
 30 33  1  0  0  0  0
 31 33  2  0  0  0  0
 33 32  1  0  0  0  0
M  END
>  <MODEL>
6

>  <REMARK>
 VINA RESULT:      -8.5      2.868      5.581
  Name = 
  4 active torsions:
  status: ('A' for Active; 'I' for Inactive)
    1  A    between atoms: N_6  and  C_18
    2  A    between atoms: C_11  and  C_21
    3  A    between atoms: C_11  and  C_31
    4  A    between atoms: C_21  and  C_25
                            x       y       z     vdW  Elec       q    Type
                         _______ _______ _______ _____ _____    ______ ____

>  <TORSDO>
F 4

$$$$
=
 OpenBabel10232411153D

 33 38  0  0  1  0  0  0  0  0999 V2000
  186.4320  178.1800  139.9310 N   0  0  0  0  0  0  0  0  0  0  0  0
  183.2240  179.0480  141.3770 N   0  0  0  0  0  0  0  0  0  0  0  0
  189.3080  177.3110  138.0580 O   0  0  0  0  0  0  0  0  0  0  0  0
  188.7310  177.8850  142.8230 C   0  0  0  0  0  3  0  0  0  0  0  0
  188.6840  177.8440  139.1650 C   0  0  2  0  0  3  0  0  0  0  0  0
  187.0240  177.6160  137.5580 C   0  0  0  0  0  2  0  0  0  0  0  0
  189.1350  177.7500  140.4260 C   0  0  0  0  0  0  0  0  0  0  0  0
  187.3570  178.4000  138.8200 C   0  0  1  0  0  3  0  0  0  0  0  0
  185.0570  178.5310  139.9410 C   0  0  0  0  0  0  0  0  0  0  0  0
  184.5210  178.6800  141.2070 C   0  0  0  0  0  0  0  0  0  0  0  0
  190.9210  177.2860  141.9960 C   0  0  0  0  0  3  0  0  0  0  0  0
  190.0720  177.5610  143.0810 C   0  0  0  0  0  0  0  0  0  0  0  0
  188.2440  177.9690  141.5130 C   0  0  0  0  0  0  0  0  0  0  0  0
  182.0950  179.3610  137.8700 N   0  0  0  0  0  1  0  0  0  0  0  0
  185.6730  178.4090  142.5530 S   0  0  0  0  0  0  0  0  0  0  0  0
  182.4220  179.2690  140.2960 C   0  0  0  0  0  3  0  0  0  0  0  0
  190.4570  177.3740  140.6820 C   0  0  0  0  0  3  0  0  0  0  0  0
  186.9290  178.1620  141.2750 C   0  0  2  0  0  3  0  0  0  0  0  0
  184.2710  178.7580  138.8120 C   0  0  0  0  0  3  0  0  0  0  0  0
  188.3980  177.2500  136.9670 C   0  0  2  0  0  3  0  0  0  0  0  0
  182.9320  179.1260  138.9950 C   0  0  0  0  0  0  0  0  0  0  0  0
  190.5600  177.4750  144.4370 N   0  0  0  0  0  0  0  0  0  0  0  0
  191.2590  176.6250  147.2550 C   0  0  0  0  0  2  0  0  0  0  0  0
  189.1260  177.7270  146.4380 C   0  0  0  0  0  2  0  0  0  0  0  0
  191.9340  176.1550  146.0020 C   0  0  0  0  0  3  0  0  0  0  0  0
  189.7460  176.5060  147.1210 C   0  0  0  0  0  2  0  0  0  0  0  0
  191.6070  176.5370  144.7600 C   0  0  0  0  0  3  0  0  0  0  0  0
  190.0610  178.4160  145.4430 C   0  0  0  0  0  2  0  0  0  0  0  0
  188.3520  175.8440  136.3990 C   0  0  0  0  0  2  0  0  0  0  0  0
  189.7570  175.3630  136.0830 C   0  0  0  0  0  2  0  0  0  0  0  0
  189.3510  173.2920  137.1840 O   0  0  0  0  0  0  0  0  0  0  0  0
  191.3640  174.3190  137.7210 N   0  0  0  0  0  1  0  0  0  0  0  0
  190.1330  174.2610  137.0080 C   0  0  0  0  0  0  0  0  0  0  0  0
  1  9  1  0  0  0  0
  1 18  1  0  0  0  0
  4 12  1  0  0  0  0
  5  3  1  1  0  0  0
  5  7  1  0  0  0  0
  7 17  2  0  0  0  0
  7 13  1  0  0  0  0
  8  6  1  6  0  0  0
  8  5  1  0  0  0  0
  8  1  1  0  0  0  0
  9 10  2  0  0  0  0
 10  2  1  0  0  0  0
 10 15  1  0  0  0  0
 11 12  2  0  0  0  0
 12 22  1  0  0  0  0
 13  4  2  0  0  0  0
 14 21  1  0  0  0  0
 16  2  2  0  0  0  0
 17 11  1  0  0  0  0
 18 13  1  1  0  0  0
 18 15  1  0  0  0  0
 19 21  2  0  0  0  0
 19  9  1  0  0  0  0
 20 29  1  1  0  0  0
 20  6  1  0  0  0  0
 20  3  1  0  0  0  0
 21 16  1  0  0  0  0
 22 27  1  0  0  0  0
 22 28  1  0  0  0  0
 24 26  1  0  0  0  0
 25 23  1  0  0  0  0
 26 23  1  0  0  0  0
 27 25  2  0  0  0  0
 28 24  1  0  0  0  0
 30 29  1  0  0  0  0
 30 33  1  0  0  0  0
 33 31  2  0  0  0  0
 33 32  1  0  0  0  0
M  END
>  <MODEL>
7

>  <REMARK>
 VINA RESULT:      -8.3      2.979      8.050
  Name = 
  4 active torsions:
  status: ('A' for Active; 'I' for Inactive)
    1  A    between atoms: N_6  and  C_18
    2  A    between atoms: C_11  and  C_21
    3  A    between atoms: C_11  and  C_31
    4  A    between atoms: C_21  and  C_25
                            x       y       z     vdW  Elec       q    Type
                         _______ _______ _______ _____ _____    ______ ____

>  <TORSDO>
F 4

$$$$
=
 OpenBabel10232411153D

 33 38  0  0  1  0  0  0  0  0999 V2000
  189.6860  177.2430  139.2830 N   0  0  0  0  0  0  0  0  0  0  0  0
  190.7620  176.1070  136.0150 N   0  0  0  0  0  0  0  0  0  0  0  0
  189.1140  178.2060  142.6420 O   0  0  0  0  0  0  0  0  0  0  0  0
  186.1340  178.2020  138.8360 C   0  0  0  0  0  3  0  0  0  0  0  0
  188.8450  178.2590  141.2920 C   0  0  2  0  0  3  0  0  0  0  0  0
  190.8960  177.1870  141.4820 C   0  0  0  0  0  2  0  0  0  0  0  0
  187.6230  178.3940  140.7520 C   0  0  0  0  0  0  0  0  0  0  0  0
  190.0570  177.9810  140.4900 C   0  0  1  0  0  3  0  0  0  0  0  0
  190.5890  176.7580  138.3020 C   0  0  0  0  0  0  0  0  0  0  0  0
  190.0150  176.5390  137.0640 C   0  0  0  0  0  0  0  0  0  0  0  0
  185.2780  178.9680  140.9630 C   0  0  0  0  0  3  0  0  0  0  0  0
  185.0610  178.6820  139.6050 C   0  0  0  0  0  0  0  0  0  0  0  0
  187.4080  178.0380  139.3920 C   0  0  0  0  0  0  0  0  0  0  0  0
  194.1070  175.8410  137.5680 N   0  0  0  0  0  1  0  0  0  0  0  0
  188.2670  176.9210  136.9630 S   0  0  0  0  0  0  0  0  0  0  0  0
  192.0960  175.8710  136.1680 C   0  0  0  0  0  3  0  0  0  0  0  0
  186.5440  178.8200  141.5330 C   0  0  0  0  0  3  0  0  0  0  0  0
  188.4040  177.4650  138.6820 C   0  0  2  0  0  3  0  0  0  0  0  0
  191.9530  176.5380  138.4950 C   0  0  0  0  0  3  0  0  0  0  0  0
  190.4160  177.6770  142.8600 C   0  0  2  0  0  3  0  0  0  0  0  0
  192.7140  176.0820  137.4120 C   0  0  0  0  0  0  0  0  0  0  0  0
  183.7520  178.8420  139.0190 N   0  0  0  0  0  0  0  0  0  0  0  0
  180.8290  179.4070  138.4780 C   0  0  0  0  0  2  0  0  0  0  0  0
  181.8650  177.2900  139.4120 C   0  0  0  0  0  2  0  0  0  0  0  0
  181.9150  180.4340  138.5990 C   0  0  0  0  0  3  0  0  0  0  0  0
  180.8800  178.4370  139.6510 C   0  0  0  0  0  2  0  0  0  0  0  0
  183.2050  180.1650  138.8460 C   0  0  0  0  0  3  0  0  0  0  0  0
  183.0410  177.6660  138.5110 C   0  0  0  0  0  2  0  0  0  0  0  0
  190.3550  176.5090  143.8260 C   0  0  0  0  0  2  0  0  0  0  0  0
  191.5560  176.5370  144.7540 C   0  0  0  0  0  2  0  0  0  0  0  0
  189.9810  177.3220  146.3570 O   0  0  0  0  0  0  0  0  0  0  0  0
  191.9820  176.5380  147.2390 N   0  0  0  0  0  1  0  0  0  0  0  0
  191.1120  176.8150  146.1460 C   0  0  0  0  0  0  0  0  0  0  0  0
  1  8  1  0  0  0  0
  2 16  2  0  0  0  0
  2 10  1  0  0  0  0
  3 20  1  0  0  0  0
  4 13  2  0  0  0  0
  4 12  1  0  0  0  0
  5  7  1  1  0  0  0
  5  3  1  0  0  0  0
  6 20  1  0  0  0  0
  7 17  2  0  0  0  0
  8  5  1  0  0  0  0
  8  6  1  1  0  0  0
  9 19  1  0  0  0  0
  9  1  1  0  0  0  0
 10  9  2  0  0  0  0
 11 17  1  0  0  0  0
 12 11  2  0  0  0  0
 13  7  1  0  0  0  0
 15 10  1  0  0  0  0
 16 21  1  0  0  0  0
 18 15  1  1  0  0  0
 18  1  1  0  0  0  0
 18 13  1  0  0  0  0
 20 29  1  1  0  0  0
 21 14  1  0  0  0  0
 21 19  2  0  0  0  0
 22 12  1  0  0  0  0
 23 25  1  0  0  0  0
 23 26  1  0  0  0  0
 24 26  1  0  0  0  0
 25 27  2  0  0  0  0
 27 22  1  0  0  0  0
 28 22  1  0  0  0  0
 28 24  1  0  0  0  0
 29 30  1  0  0  0  0
 30 33  1  0  0  0  0
 33 31  2  0  0  0  0
 33 32  1  0  0  0  0
M  END
>  <MODEL>
8

>  <REMARK>
 VINA RESULT:      -8.3      3.021      7.995
  Name = 
  4 active torsions:
  status: ('A' for Active; 'I' for Inactive)
    1  A    between atoms: N_6  and  C_18
    2  A    between atoms: C_11  and  C_21
    3  A    between atoms: C_11  and  C_31
    4  A    between atoms: C_21  and  C_25
                            x       y       z     vdW  Elec       q    Type
                         _______ _______ _______ _____ _____    ______ ____

>  <TORSDO>
F 4

$$$$
=
 OpenBabel10232411153D

 33 38  0  0  1  0  0  0  0  0999 V2000
  189.0010  177.7710  141.9180 N   0  0  0  0  0  0  0  0  0  0  0  0
  190.1040  177.3240  138.4950 N   0  0  0  0  0  0  0  0  0  0  0  0
  188.4190  178.0880  145.3950 O   0  0  0  0  0  0  0  0  0  0  0  0
  185.3540  178.3850  141.6690 C   0  0  0  0  0  3  0  0  0  0  0  0
  188.1090  178.3350  144.0760 C   0  0  2  0  0  3  0  0  0  0  0  0
  190.2690  177.4840  144.0640 C   0  0  0  0  0  2  0  0  0  0  0  0
  186.8660  178.4210  143.5770 C   0  0  0  0  0  0  0  0  0  0  0  0
  189.3220  178.3330  143.2280 C   0  0  1  0  0  3  0  0  0  0  0  0
  189.9240  177.5610  140.8610 C   0  0  0  0  0  0  0  0  0  0  0  0
  189.3430  177.4880  139.6090 C   0  0  0  0  0  0  0  0  0  0  0  0
  184.4790  178.6840  143.9030 C   0  0  0  0  0  3  0  0  0  0  0  0
  184.2570  178.6060  142.5170 C   0  0  0  0  0  0  0  0  0  0  0  0
  186.6540  178.2750  142.1790 C   0  0  0  0  0  0  0  0  0  0  0  0
  193.5000  177.1800  139.9510 N   0  0  0  0  0  1  0  0  0  0  0  0
  187.5620  177.6830  139.5880 S   0  0  0  0  0  0  0  0  0  0  0  0
  191.4600  177.2180  138.5940 C   0  0  0  0  0  3  0  0  0  0  0  0
  185.7690  178.5870  144.4290 C   0  0  0  0  0  3  0  0  0  0  0  0
  187.6860  177.9440  141.3730 C   0  0  2  0  0  3  0  0  0  0  0  0
  191.3090  177.4670  141.0020 C   0  0  0  0  0  3  0  0  0  0  0  0
  189.7770  177.6800  145.5090 C   0  0  2  0  0  3  0  0  0  0  0  0
  192.0850  177.2860  139.8500 C   0  0  0  0  0  0  0  0  0  0  0  0
  182.9220  178.7130  141.9790 N   0  0  0  0  0  0  0  0  0  0  0  0
  180.0440  178.2680  141.1620 C   0  0  0  0  0  2  0  0  0  0  0  0
  182.1450  177.5050  139.9650 C   0  0  0  0  0  2  0  0  0  0  0  0
  180.5190  178.6560  142.5300 C   0  0  0  0  0  3  0  0  0  0  0  0
  180.8390  177.0780  140.6400 C   0  0  0  0  0  2  0  0  0  0  0  0
  181.8000  178.8430  142.8760 C   0  0  0  0  0  3  0  0  0  0  0  0
  182.7350  178.7980  140.5290 C   0  0  0  0  0  2  0  0  0  0  0  0
  189.8710  176.3680  146.2650 C   0  0  0  0  0  2  0  0  0  0  0  0
  190.6610  176.5600  147.5470 C   0  0  0  0  0  2  0  0  0  0  0  0
  192.8450  176.0430  148.3400 O   0  0  0  0  0  0  0  0  0  0  0  0
  192.3480  175.2390  146.2180 N   0  0  0  0  0  1  0  0  0  0  0  0
  192.0030  175.9340  147.4120 C   0  0  0  0  0  0  0  0  0  0  0  0
  1  8  1  0  0  0  0
  2 16  2  0  0  0  0
  2 10  1  0  0  0  0
  3 20  1  0  0  0  0
  4 13  2  0  0  0  0
  4 12  1  0  0  0  0
  5  7  1  6  0  0  0
  5  3  1  0  0  0  0
  6 20  1  0  0  0  0
  7 17  2  0  0  0  0
  8  6  1  1  0  0  0
  8  5  1  0  0  0  0
  9 19  1  0  0  0  0
  9  1  1  0  0  0  0
 10  9  2  0  0  0  0
 11 17  1  0  0  0  0
 12 11  2  0  0  0  0
 13  7  1  0  0  0  0
 15 10  1  0  0  0  0
 16 21  1  0  0  0  0
 18 15  1  1  0  0  0
 18  1  1  0  0  0  0
 18 13  1  0  0  0  0
 20 29  1  1  0  0  0
 21 14  1  0  0  0  0
 21 19  2  0  0  0  0
 22 12  1  0  0  0  0
 22 27  1  0  0  0  0
 23 25  1  0  0  0  0
 24 28  1  0  0  0  0
 24 26  1  0  0  0  0
 25 27  2  0  0  0  0
 26 23  1  0  0  0  0
 28 22  1  0  0  0  0
 29 30  1  0  0  0  0
 32 33  1  0  0  0  0
 33 30  1  0  0  0  0
 33 31  2  0  0  0  0
M  END
>  <MODEL>
9

>  <REMARK>
 VINA RESULT:      -8.2      2.757      8.116
  Name = 
  4 active torsions:
  status: ('A' for Active; 'I' for Inactive)
    1  A    between atoms: N_6  and  C_18
    2  A    between atoms: C_11  and  C_21
    3  A    between atoms: C_11  and  C_31
    4  A    between atoms: C_21  and  C_25
                            x       y       z     vdW  Elec       q    Type
                         _______ _______ _______ _____ _____    ______ ____

>  <TORSDO>
F 4

$$$$
