=
 OpenBabel10232411133D

 54 61  0  0  1  0  0  0  0  0999 V2000
  189.2320  177.4650  136.3360 C   0  0  0  0  0  2  0  0  0  0  0  0
  187.7510  177.5110  135.9510 C   0  0  0  0  0  2  0  0  0  0  0  0
  190.4220  177.0000  141.0190 C   0  0  0  0  0  0  0  0  0  0  0  0
  187.2040  178.6010  137.9750 C   0  0  0  0  0  2  0  0  0  0  0  0
  187.5180  178.1350  139.3660 C   0  0  0  0  0  0  0  0  0  0  0  0
  191.9910  176.6230  139.2310 O   0  0  0  0  0  0  0  0  0  0  0  0
  190.8240  176.8810  139.6240 C   0  0  0  0  0  0  0  0  0  0  0  0
  189.1580  177.3830  141.0730 C   0  0  0  0  0  3  0  0  0  0  0  0
  186.8740  177.4720  137.1200 N   0  0  0  0  0  2  0  0  0  0  0  0
  189.4560  176.4820  137.4760 C   0  0  2  0  0  3  0  0  0  0  0  0
  188.6940  177.5480  139.6840 C   0  0  0  0  0  0  0  0  0  0  0  0
  189.7280  177.1640  138.7530 N   0  0  0  0  0  0  0  0  0  0  0  0
  186.5490  178.4470  140.4340 C   0  0  0  0  0  3  0  0  0  0  0  0
  185.5910  179.2970  140.2500 N   0  0  0  0  0  2  0  0  0  0  0  0
  190.3630  175.2910  137.1290 C   0  0  0  0  0  2  0  0  0  0  0  0
  190.0120  173.2940  135.8490 O   0  0  0  0  0  1  0  0  0  0  0  0
  189.6480  173.9430  137.0280 C   0  0  2  0  0  3  0  0  0  0  0  0
  188.1430  174.1590  137.0140 C   0  0  0  0  0  2  0  0  0  0  0  0
  186.2460  172.8450  137.8110 N   0  0  0  0  0  2  0  0  0  0  0  0
  186.0110  172.9190  136.3590 C   0  0  2  0  0  3  0  0  0  0  0  0
  187.3910  172.8350  136.8850 C   0  0  1  0  0  3  0  0  0  0  0  0
  185.5390  174.3210  135.9700 C   0  0  0  0  0  2  0  0  0  0  0  0
  183.3540  173.3700  136.0810 O   0  0  0  0  0  1  0  0  0  0  0  0
  184.0770  174.5360  136.3490 C   0  0  2  0  0  3  0  0  0  0  0  0
  183.4800  175.7170  135.5660 C   0  0  2  0  0  3  0  0  0  0  0  0
  184.4920  176.4450  134.9370 O   0  0  0  0  0  1  0  0  0  0  0  0
  181.9140  177.7100  135.5910 C   0  0  0  0  0  2  0  0  0  0  0  0
  180.4440  177.7940  135.9860 C   0  0  0  0  0  2  0  0  0  0  0  0
  182.6430  176.6680  136.4290 C   0  0  2  0  0  3  0  0  0  0  0  0
  180.1150  175.7680  137.8510 O   0  0  0  0  0  1  0  0  0  0  0  0
  181.5790  176.9870  139.3520 C   0  0  2  0  0  3  0  0  0  0  0  0
  182.1910  179.2320  138.8200 C   0  0  1  0  0  3  0  0  0  0  0  0
  181.0450  179.4600  137.8140 C   0  0  0  0  0  2  0  0  0  0  0  0
  181.2390  177.8210  140.5790 C   0  0  0  0  0  2  0  0  0  0  0  0
  181.5870  179.2730  140.2180 C   0  0  0  0  0  2  0  0  0  0  0  0
  182.7080  177.8090  138.7640 C   0  0  2  0  0  3  0  0  0  0  0  0
  180.2290  178.1950  137.4490 C   0  0  2  0  0  3  0  0  0  0  0  0
  180.3240  177.0110  138.4570 C   0  0  1  0  0  3  0  0  0  0  0  0
  183.4780  177.3240  137.5240 C   0  0  0  0  0  2  0  0  0  0  0  0
  191.2060  176.7720  142.1520 O   0  0  0  0  0  0  0  0  0  0  0  0
  191.5000  177.7920  143.0940 C   0  0  0  0  0  2  0  0  0  0  0  0
  191.0250  177.3710  144.4710 C   0  0  0  0  0  2  0  0  0  0  0  0
  189.8030  178.0830  144.8140 N   0  0  0  0  0  2  0  0  0  0  0  0
  188.8640  177.6490  145.8090 C   0  0  0  0  0  0  0  0  0  0  0  0
  189.3110  176.8440  146.7690 C   0  0  0  0  0  2  0  0  0  0  0  0
  186.7430  178.3390  146.9820 C   0  0  0  0  0  3  0  0  0  0  0  0
  183.2650  178.8480  144.2160 C   0  0  0  0  0  3  0  0  0  0  0  0
  186.7140  178.0430  144.5560 C   0  0  0  0  0  3  0  0  0  0  0  0
  185.3630  178.3800  144.5890 C   0  0  0  0  0  0  0  0  0  0  0  0
  184.7220  178.6840  145.7520 C   0  0  0  0  0  0  0  0  0  0  0  0
  183.4690  178.9610  145.5180 O   0  0  0  0  0  0  0  0  0  0  0  0
  187.4270  178.0280  145.7760 C   0  0  0  0  0  0  0  0  0  0  0  0
  185.3770  178.6750  146.9800 C   0  0  0  0  0  3  0  0  0  0  0  0
  184.4460  178.4770  143.5660 C   0  0  0  0  0  3  0  0  0  0  0  0
  1 10  1  0  0  0  0
  2  1  1  0  0  0  0
  2  9  1  0  0  0  0
  3  8  2  0  0  0  0
  3 40  1  0  0  0  0
  4  5  1  0  0  0  0
  5 11  2  0  0  0  0
  5 13  1  0  0  0  0
  6  7  2  0  0  0  0
  7  3  1  0  0  0  0
  9  4  1  0  0  0  0
 10 15  1  6  0  0  0
 10 12  1  0  0  0  0
 11  8  1  0  0  0  0
 12  7  1  0  0  0  0
 12 11  1  0  0  0  0
 14 13  2  0  0  0  0
 17 16  1  6  0  0  0
 17 15  1  0  0  0  0
 18 17  1  0  0  0  0
 20 22  1  1  0  0  0
 20 21  1  0  0  0  0
 20 19  1  0  0  0  0
 21 18  1  1  0  0  0
 21 19  1  0  0  0  0
 22 24  1  0  0  0  0
 24 23  1  6  0  0  0
 25 26  1  1  0  0  0
 25 24  1  0  0  0  0
 27 28  1  0  0  0  0
 27 29  1  0  0  0  0
 29 25  1  6  0  0  0
 29 39  1  0  0  0  0
 31 34  1  1  0  0  0
 32 33  1  6  0  0  0
 32 35  1  0  0  0  0
 35 34  1  0  0  0  0
 36 39  1  6  0  0  0
 36 32  1  0  0  0  0
 36 31  1  0  0  0  0
 37 28  1  6  0  0  0
 37 33  1  0  0  0  0
 37 38  1  0  0  0  0
 38 30  1  6  0  0  0
 38 31  1  0  0  0  0
 40 41  1  0  0  0  0
 41 42  1  0  0  0  0
 42 43  1  0  0  0  0
 43 44  1  0  0  0  0
 44 45  2  0  0  0  0
 47 51  1  0  0  0  0
 48 49  2  0  0  0  0
 48 52  1  0  0  0  0
 49 50  1  0  0  0  0
 50 53  2  0  0  0  0
 51 50  1  0  0  0  0
 52 44  1  0  0  0  0
 52 46  2  0  0  0  0
 53 46  1  0  0  0  0
 54 47  2  0  0  0  0
 54 49  1  0  0  0  0
M  END
>  <MODEL>
1

>  <REMARK>
 VINA RESULT:      -8.6      0.000      0.000
  Name = 
  15 active torsions:
  status: ('A' for Active; 'I' for Inactive)
    1  A    between atoms: C_1  and  C_23
    2  A    between atoms: C_2  and  C_22
    3  A    between atoms: C_2  and  C_46
    4  A    between atoms: C_5  and  C_20
    5  A    between atoms: C_5  and  C_24
    6  A    between atoms: C_11  and  C_33
    7  A    between atoms: C_11  and  N_42
    8  A    between atoms: C_13  and  C_14
    9  A    between atoms: C_13  and  C_46
   10  A    between atoms: C_15  and  O_51
   11  A    between atoms: C_17  and  N_42
   12  A    between atoms: C_17  and  C_45
   13  A    between atoms: C_24  and  C_32
   14  A    between atoms: C_32  and  C_43
   15  A    between atoms: C_33  and  O_51
                            x       y       z     vdW  Elec       q    Type
                         _______ _______ _______ _____ _____    ______ ____

>  <TORSDO>
F 15

$$$$
=
 OpenBabel10232411133D

 54 61  0  0  1  0  0  0  0  0999 V2000
  191.0110  176.1870  144.5650 C   0  0  0  0  0  2  0  0  0  0  0  0
  191.9660  176.5390  145.7090 C   0  0  0  0  0  2  0  0  0  0  0  0
  186.5240  178.0370  144.6060 C   0  0  0  0  0  0  0  0  0  0  0  0
  190.1720  176.6530  147.2430 C   0  0  0  0  0  2  0  0  0  0  0  0
  188.9330  177.4910  147.1250 C   0  0  0  0  0  0  0  0  0  0  0  0
  187.5090  177.0460  142.6430 O   0  0  0  0  0  0  0  0  0  0  0  0
  187.6000  177.4220  143.8410 C   0  0  0  0  0  0  0  0  0  0  0  0
  186.9230  178.2070  145.8550 C   0  0  0  0  0  3  0  0  0  0  0  0
  191.3270  177.3710  146.7270 N   0  0  0  0  0  2  0  0  0  0  0  0
  190.1530  177.3880  144.1980 C   0  0  2  0  0  3  0  0  0  0  0  0
  188.2950  177.6760  145.9470 C   0  0  0  0  0  0  0  0  0  0  0  0
  188.7600  177.2370  144.6540 N   0  0  0  0  0  0  0  0  0  0  0  0
  188.3390  178.0230  148.3660 C   0  0  0  0  0  3  0  0  0  0  0  0
  187.7560  177.2480  149.2230 N   0  0  0  0  0  2  0  0  0  0  0  0
  190.3520  177.9070  142.7650 C   0  0  0  0  0  2  0  0  0  0  0  0
  192.3270  177.2880  141.5540 O   0  0  0  0  0  1  0  0  0  0  0  0
  191.0070  176.9140  141.8050 C   0  0  2  0  0  3  0  0  0  0  0  0
  190.2520  176.8990  140.4860 C   0  0  0  0  0  2  0  0  0  0  0  0
  190.8940  175.6090  138.5150 N   0  0  0  0  0  2  0  0  0  0  0  0
  190.5920  176.9370  137.9570 C   0  0  2  0  0  3  0  0  0  0  0  0
  191.2070  176.8170  139.2970 C   0  0  1  0  0  3  0  0  0  0  0  0
  189.0800  177.1750  137.9460 C   0  0  0  0  0  2  0  0  0  0  0  0
  189.0450  179.5120  137.4740 O   0  0  0  0  0  1  0  0  0  0  0  0
  188.7000  178.2650  136.9480 C   0  0  2  0  0  3  0  0  0  0  0  0
  187.1950  178.2200  136.6410 C   0  0  2  0  0  3  0  0  0  0  0  0
  186.4570  178.6140  137.7590 O   0  0  0  0  0  1  0  0  0  0  0  0
  186.8440  176.6620  134.6720 C   0  0  0  0  0  2  0  0  0  0  0  0
  187.5130  175.3310  134.3460 C   0  0  0  0  0  2  0  0  0  0  0  0
  186.7010  176.8440  136.1760 C   0  0  2  0  0  3  0  0  0  0  0  0
  188.1970  174.2810  136.8210 O   0  0  0  0  0  1  0  0  0  0  0  0
  185.8330  174.0670  137.3230 C   0  0  2  0  0  3  0  0  0  0  0  0
  184.2360  174.3840  135.5770 C   0  0  1  0  0  3  0  0  0  0  0  0
  185.2400  174.1880  134.4240 C   0  0  0  0  0  2  0  0  0  0  0  0
  184.9480  172.8290  137.3290 C   0  0  0  0  0  2  0  0  0  0  0  0
  183.9520  173.0110  136.1740 C   0  0  0  0  0  2  0  0  0  0  0  0
  184.8710  175.0920  136.7570 C   0  0  2  0  0  3  0  0  0  0  0  0
  186.7260  174.1160  134.8520 C   0  0  2  0  0  3  0  0  0  0  0  0
  186.9870  173.7620  136.3460 C   0  0  1  0  0  3  0  0  0  0  0  0
  185.2710  176.5710  136.6340 C   0  0  0  0  0  2  0  0  0  0  0  0
  185.2540  178.3990  144.1480 O   0  0  0  0  0  0  0  0  0  0  0  0
  184.4080  179.2840  144.8660 C   0  0  0  0  0  2  0  0  0  0  0  0
  182.9830  179.1470  144.3690 C   0  0  0  0  0  2  0  0  0  0  0  0
  182.9820  178.7820  142.9600 N   0  0  0  0  0  2  0  0  0  0  0  0
  181.8250  178.8250  142.1120 C   0  0  0  0  0  0  0  0  0  0  0  0
  180.6660  179.1660  142.6680 C   0  0  0  0  0  2  0  0  0  0  0  0
  182.4350  177.2220  140.2660 C   0  0  0  0  0  3  0  0  0  0  0  0
  181.4580  178.7580  136.1800 C   0  0  0  0  0  3  0  0  0  0  0  0
  181.3980  179.3590  139.6860 C   0  0  0  0  0  3  0  0  0  0  0  0
  181.4920  178.9760  138.3500 C   0  0  0  0  0  0  0  0  0  0  0  0
  182.0270  177.7800  137.9770 C   0  0  0  0  0  0  0  0  0  0  0  0
  182.0030  177.6610  136.6780 O   0  0  0  0  0  0  0  0  0  0  0  0
  181.8720  178.4630  140.6710 C   0  0  0  0  0  0  0  0  0  0  0  0
  182.5150  176.8680  138.9070 C   0  0  0  0  0  3  0  0  0  0  0  0
  181.1090  179.6410  137.2070 C   0  0  0  0  0  3  0  0  0  0  0  0
  1  2  1  0  0  0  0
  2  9  1  0  0  0  0
  3  8  2  0  0  0  0
  5  4  1  0  0  0  0
  5 13  1  0  0  0  0
  6  7  2  0  0  0  0
  7  3  1  0  0  0  0
  7 12  1  0  0  0  0
  8 11  1  0  0  0  0
  9  4  1  0  0  0  0
 10 15  1  6  0  0  0
 10  1  1  0  0  0  0
 10 12  1  0  0  0  0
 11  5  2  0  0  0  0
 12 11  1  0  0  0  0
 13 14  2  0  0  0  0
 17 16  1  6  0  0  0
 17 15  1  0  0  0  0
 18 17  1  0  0  0  0
 19 21  1  0  0  0  0
 20 22  1  1  0  0  0
 20 19  1  0  0  0  0
 20 21  1  0  0  0  0
 21 18  1  1  0  0  0
 24 23  1  1  0  0  0
 24 22  1  0  0  0  0
 25 24  1  0  0  0  0
 25 26  1  1  0  0  0
 27 29  1  0  0  0  0
 28 27  1  0  0  0  0
 29 39  1  0  0  0  0
 29 25  1  6  0  0  0
 31 34  1  6  0  0  0
 32 33  1  6  0  0  0
 32 35  1  0  0  0  0
 32 36  1  0  0  0  0
 33 37  1  0  0  0  0
 35 34  1  0  0  0  0
 36 39  1  6  0  0  0
 36 31  1  0  0  0  0
 37 28  1  1  0  0  0
 37 38  1  0  0  0  0
 38 30  1  1  0  0  0
 38 31  1  0  0  0  0
 40  3  1  0  0  0  0
 40 41  1  0  0  0  0
 42 41  1  0  0  0  0
 43 42  1  0  0  0  0
 44 45  2  0  0  0  0
 44 43  1  0  0  0  0
 46 52  1  0  0  0  0
 47 51  1  0  0  0  0
 47 54  2  0  0  0  0
 48 52  2  0  0  0  0
 49 48  1  0  0  0  0
 50 49  2  0  0  0  0
 50 53  1  0  0  0  0
 51 50  1  0  0  0  0
 52 44  1  0  0  0  0
 53 46  2  0  0  0  0
 54 49  1  0  0  0  0
M  END
>  <MODEL>
2

>  <REMARK>
 VINA RESULT:      -8.4      1.998      7.186
  Name = 
  15 active torsions:
  status: ('A' for Active; 'I' for Inactive)
    1  A    between atoms: C_1  and  C_23
    2  A    between atoms: C_2  and  C_22
    3  A    between atoms: C_2  and  C_46
    4  A    between atoms: C_5  and  C_20
    5  A    between atoms: C_5  and  C_24
    6  A    between atoms: C_11  and  C_33
    7  A    between atoms: C_11  and  N_42
    8  A    between atoms: C_13  and  C_14
    9  A    between atoms: C_13  and  C_46
   10  A    between atoms: C_15  and  O_51
   11  A    between atoms: C_17  and  N_42
   12  A    between atoms: C_17  and  C_45
   13  A    between atoms: C_24  and  C_32
   14  A    between atoms: C_32  and  C_43
   15  A    between atoms: C_33  and  O_51
                            x       y       z     vdW  Elec       q    Type
                         _______ _______ _______ _____ _____    ______ ____

>  <TORSDO>
F 15

$$$$
=
 OpenBabel10232411133D

 54 61  0  0  1  0  0  0  0  0999 V2000
  190.8380  176.2090  144.4110 C   0  0  0  0  0  2  0  0  0  0  0  0
  191.7840  176.5320  145.5700 C   0  0  0  0  0  2  0  0  0  0  0  0
  186.3110  177.9550  144.5240 C   0  0  0  0  0  0  0  0  0  0  0  0
  189.9880  176.5390  147.1050 C   0  0  0  0  0  2  0  0  0  0  0  0
  188.7310  177.3530  147.0220 C   0  0  0  0  0  0  0  0  0  0  0  0
  187.3190  177.0720  142.5230 O   0  0  0  0  0  0  0  0  0  0  0  0
  187.4000  177.3980  143.7350 C   0  0  0  0  0  0  0  0  0  0  0  0
  186.7060  178.0790  145.7800 C   0  0  0  0  0  3  0  0  0  0  0  0
  191.1260  177.3040  146.6220 N   0  0  0  0  0  2  0  0  0  0  0  0
  189.9540  177.4050  144.0950 C   0  0  2  0  0  3  0  0  0  0  0  0
  188.0890  177.5750  145.8520 C   0  0  0  0  0  0  0  0  0  0  0  0
  188.5640  177.2030  144.5410 N   0  0  0  0  0  0  0  0  0  0  0  0
  188.1240  177.8170  148.2840 C   0  0  0  0  0  3  0  0  0  0  0  0
  188.8180  178.4490  149.1750 N   0  0  0  0  0  2  0  0  0  0  0  0
  190.1420  177.9900  142.6860 C   0  0  0  0  0  2  0  0  0  0  0  0
  192.3610  177.2880  142.1110 O   0  0  0  0  0  1  0  0  0  0  0  0
  191.0200  177.1560  141.7530 C   0  0  2  0  0  3  0  0  0  0  0  0
  190.8540  177.6380  140.3210 C   0  0  0  0  0  2  0  0  0  0  0  0
  189.1660  178.5650  138.8210 N   0  0  0  0  0  2  0  0  0  0  0  0
  189.1690  177.1360  138.4720 C   0  0  2  0  0  3  0  0  0  0  0  0
  189.3970  177.5590  139.8710 C   0  0  1  0  0  3  0  0  0  0  0  0
  190.4280  176.7880  137.6760 C   0  0  0  0  0  2  0  0  0  0  0  0
  188.6960  176.0420  136.2170 O   0  0  0  0  0  1  0  0  0  0  0  0
  190.0820  176.0400  136.3920 C   0  0  2  0  0  3  0  0  0  0  0  0
  190.6050  174.5970  136.4450 C   0  0  2  0  0  3  0  0  0  0  0  0
  190.1900  173.9710  137.6220 O   0  0  0  0  0  1  0  0  0  0  0  0
  192.6790  175.3050  135.1710 C   0  0  0  0  0  2  0  0  0  0  0  0
  193.8560  176.1650  135.6190 C   0  0  0  0  0  2  0  0  0  0  0  0
  192.1310  174.4890  136.3330 C   0  0  2  0  0  3  0  0  0  0  0  0
  194.0000  175.7610  138.3600 O   0  0  0  0  0  1  0  0  0  0  0  0
  194.6100  173.4530  137.9320 C   0  0  2  0  0  3  0  0  0  0  0  0
  195.1630  172.7840  135.7090 C   0  0  1  0  0  3  0  0  0  0  0  0
  195.4290  174.2110  135.1900 C   0  0  0  0  0  2  0  0  0  0  0  0
  195.9690  172.7730  138.0200 C   0  0  0  0  0  2  0  0  0  0  0  0
  196.3470  172.3880  136.5820 C   0  0  0  0  0  2  0  0  0  0  0  0
  194.0320  172.7580  136.7170 C   0  0  2  0  0  3  0  0  0  0  0  0
  195.0340  175.3490  136.1620 C   0  0  2  0  0  3  0  0  0  0  0  0
  194.8940  174.9440  137.6600 C   0  0  1  0  0  3  0  0  0  0  0  0
  192.5910  173.0360  136.2560 C   0  0  0  0  0  2  0  0  0  0  0  0
  185.0340  178.3070  144.0820 O   0  0  0  0  0  0  0  0  0  0  0  0
  184.4190  179.5390  144.4280 C   0  0  0  0  0  2  0  0  0  0  0  0
  183.0230  179.5970  143.8400 C   0  0  0  0  0  2  0  0  0  0  0  0
  182.8070  178.4600  142.9580 N   0  0  0  0  0  2  0  0  0  0  0  0
  182.4450  178.5660  141.5740 C   0  0  0  0  0  0  0  0  0  0  0  0
  181.1680  178.7980  141.2860 C   0  0  0  0  0  2  0  0  0  0  0  0
  184.7470  178.8900  140.6000 C   0  0  0  0  0  3  0  0  0  0  0  0
  185.1820  177.2300  136.4690 C   0  0  0  0  0  3  0  0  0  0  0  0
  183.0490  177.7380  139.2710 C   0  0  0  0  0  3  0  0  0  0  0  0
  184.0030  177.6160  138.2630 C   0  0  0  0  0  0  0  0  0  0  0  0
  185.2680  178.1030  138.4040 C   0  0  0  0  0  0  0  0  0  0  0  0
  185.9640  177.8670  137.3250 O   0  0  0  0  0  0  0  0  0  0  0  0
  183.4260  178.3810  140.4710 C   0  0  0  0  0  0  0  0  0  0  0  0
  185.6850  178.7510  139.5620 C   0  0  0  0  0  3  0  0  0  0  0  0
  183.9100  177.0400  137.0160 C   0  0  0  0  0  3  0  0  0  0  0  0
  1  2  1  0  0  0  0
  2  9  1  0  0  0  0
  3  8  2  0  0  0  0
  5  4  1  0  0  0  0
  5 13  1  0  0  0  0
  6  7  2  0  0  0  0
  7  3  1  0  0  0  0
  7 12  1  0  0  0  0
  8 11  1  0  0  0  0
  9  4  1  0  0  0  0
 10 15  1  6  0  0  0
 10  1  1  0  0  0  0
 10 12  1  0  0  0  0
 11  5  2  0  0  0  0
 12 11  1  0  0  0  0
 13 14  2  0  0  0  0
 17 16  1  1  0  0  0
 17 15  1  0  0  0  0
 18 17  1  0  0  0  0
 19 21  1  0  0  0  0
 20 22  1  6  0  0  0
 20 19  1  0  0  0  0
 20 21  1  0  0  0  0
 21 18  1  6  0  0  0
 24 23  1  1  0  0  0
 24 25  1  0  0  0  0
 24 22  1  0  0  0  0
 25 26  1  1  0  0  0
 27 28  1  0  0  0  0
 27 29  1  0  0  0  0
 28 37  1  0  0  0  0
 29 25  1  6  0  0  0
 31 34  1  6  0  0  0
 32 33  1  1  0  0  0
 32 35  1  0  0  0  0
 32 36  1  0  0  0  0
 35 34  1  0  0  0  0
 36 39  1  6  0  0  0
 36 31  1  0  0  0  0
 37 33  1  6  0  0  0
 37 38  1  0  0  0  0
 38 31  1  0  0  0  0
 38 30  1  6  0  0  0
 39 29  1  0  0  0  0
 40 41  1  0  0  0  0
 40  3  1  0  0  0  0
 42 41  1  0  0  0  0
 43 42  1  0  0  0  0
 44 43  1  0  0  0  0
 45 44  2  0  0  0  0
 47 54  2  0  0  0  0
 47 51  1  0  0  0  0
 48 52  2  0  0  0  0
 49 50  2  0  0  0  0
 49 48  1  0  0  0  0
 50 53  1  0  0  0  0
 51 50  1  0  0  0  0
 52 46  1  0  0  0  0
 52 44  1  0  0  0  0
 53 46  2  0  0  0  0
 54 49  1  0  0  0  0
M  END
>  <MODEL>
3

>  <REMARK>
 VINA RESULT:      -8.1      2.771      9.269
  Name = 
  15 active torsions:
  status: ('A' for Active; 'I' for Inactive)
    1  A    between atoms: C_1  and  C_23
    2  A    between atoms: C_2  and  C_22
    3  A    between atoms: C_2  and  C_46
    4  A    between atoms: C_5  and  C_20
    5  A    between atoms: C_5  and  C_24
    6  A    between atoms: C_11  and  C_33
    7  A    between atoms: C_11  and  N_42
    8  A    between atoms: C_13  and  C_14
    9  A    between atoms: C_13  and  C_46
   10  A    between atoms: C_15  and  O_51
   11  A    between atoms: C_17  and  N_42
   12  A    between atoms: C_17  and  C_45
   13  A    between atoms: C_24  and  C_32
   14  A    between atoms: C_32  and  C_43
   15  A    between atoms: C_33  and  O_51
                            x       y       z     vdW  Elec       q    Type
                         _______ _______ _______ _____ _____    ______ ____

>  <TORSDO>
F 15

$$$$
=
 OpenBabel10232411133D

 54 61  0  0  1  0  0  0  0  0999 V2000
  185.1520  177.3850  136.1220 C   0  0  0  0  0  2  0  0  0  0  0  0
  184.9920  175.9640  135.5770 C   0  0  0  0  0  2  0  0  0  0  0  0
  183.4050  178.4160  140.5320 C   0  0  0  0  0  0  0  0  0  0  0  0
  182.9340  175.7050  136.7090 C   0  0  0  0  0  2  0  0  0  0  0  0
  182.6790  175.8900  138.1760 C   0  0  0  0  0  0  0  0  0  0  0  0
  184.9690  179.8420  139.3820 O   0  0  0  0  0  0  0  0  0  0  0  0
  184.3030  178.7760  139.4430 C   0  0  0  0  0  0  0  0  0  0  0  0
  182.7870  177.2870  140.2260 C   0  0  0  0  0  3  0  0  0  0  0  0
  184.2390  175.1030  136.4890 N   0  0  0  0  0  2  0  0  0  0  0  0
  185.4370  177.3540  137.6160 C   0  0  2  0  0  3  0  0  0  0  0  0
  183.2590  176.8810  138.8900 C   0  0  0  0  0  0  0  0  0  0  0  0
  184.2760  177.7870  138.4130 N   0  0  0  0  0  0  0  0  0  0  0  0
  181.6670  175.0290  138.8150 C   0  0  0  0  0  3  0  0  0  0  0  0
  180.4040  175.1820  138.5820 N   0  0  0  0  0  2  0  0  0  0  0  0
  186.8010  177.9350  138.0230 C   0  0  0  0  0  2  0  0  0  0  0  0
  188.7930  176.9630  138.9370 O   0  0  0  0  0  1  0  0  0  0  0  0
  187.9920  177.0030  137.7960 C   0  0  2  0  0  3  0  0  0  0  0  0
  188.8310  177.5120  136.6360 C   0  0  0  0  0  2  0  0  0  0  0  0
  189.9470  176.9290  134.5440 N   0  0  0  0  0  2  0  0  0  0  0  0
  190.3090  175.8130  135.4340 C   0  0  2  0  0  3  0  0  0  0  0  0
  188.9790  176.4520  135.5460 C   0  0  1  0  0  3  0  0  0  0  0  0
  191.3470  176.2710  136.4610 C   0  0  0  0  0  2  0  0  0  0  0  0
  191.0790  174.6160  138.1580 O   0  0  0  0  0  1  0  0  0  0  0  0
  191.9680  175.0810  137.1850 C   0  0  2  0  0  3  0  0  0  0  0  0
  193.3020  175.4770  137.8370 C   0  0  2  0  0  3  0  0  0  0  0  0
  193.4900  176.8580  137.7610 O   0  0  0  0  0  1  0  0  0  0  0  0
  194.1730  174.0390  135.9400 C   0  0  0  0  0  2  0  0  0  0  0  0
  195.1720  174.3740  134.8380 C   0  0  0  0  0  2  0  0  0  0  0  0
  194.5200  174.7720  137.2280 C   0  0  2  0  0  3  0  0  0  0  0  0
  196.8170  176.3040  135.9640 O   0  0  0  0  0  1  0  0  0  0  0  0
  197.6300  174.6270  137.5160 C   0  0  2  0  0  3  0  0  0  0  0  0
  197.0770  172.3330  137.1530 C   0  0  1  0  0  3  0  0  0  0  0  0
  196.6920  172.5100  135.6710 C   0  0  0  0  0  2  0  0  0  0  0  0
  198.9490  173.8660  137.5240 C   0  0  0  0  0  2  0  0  0  0  0  0
  198.5970  172.3990  137.2410 C   0  0  0  0  0  2  0  0  0  0  0  0
  196.6820  173.5400  137.9800 C   0  0  2  0  0  3  0  0  0  0  0  0
  196.6120  173.9770  135.1820 C   0  0  2  0  0  3  0  0  0  0  0  0
  197.3750  175.0240  136.0480 C   0  0  1  0  0  3  0  0  0  0  0  0
  195.1950  173.8400  138.2310 C   0  0  0  0  0  2  0  0  0  0  0  0
  183.1860  179.1160  141.7200 O   0  0  0  0  0  0  0  0  0  0  0  0
  182.1630  178.7590  142.6380 C   0  0  0  0  0  2  0  0  0  0  0  0
  182.7320  178.7030  144.0420 C   0  0  0  0  0  2  0  0  0  0  0  0
  184.1860  178.7230  143.9900 N   0  0  0  0  0  2  0  0  0  0  0  0
  185.0420  178.4180  145.1010 C   0  0  0  0  0  0  0  0  0  0  0  0
  184.5750  178.6600  146.3220 C   0  0  0  0  0  2  0  0  0  0  0  0
  187.2970  177.8110  146.0480 C   0  0  0  0  0  3  0  0  0  0  0  0
  190.1690  176.2950  142.9720 C   0  0  0  0  0  3  0  0  0  0  0  0
  186.8970  177.5130  143.6550 C   0  0  0  0  0  3  0  0  0  0  0  0
  188.2080  177.0550  143.5510 C   0  0  0  0  0  0  0  0  0  0  0  0
  189.0320  176.9730  144.6330 C   0  0  0  0  0  0  0  0  0  0  0  0
  190.2020  176.5180  144.2750 O   0  0  0  0  0  0  0  0  0  0  0  0
  186.4230  177.8940  144.9300 C   0  0  0  0  0  0  0  0  0  0  0  0
  188.6160  177.3440  145.9070 C   0  0  0  0  0  3  0  0  0  0  0  0
  188.9140  176.6210  142.4510 C   0  0  0  0  0  3  0  0  0  0  0  0
  1 10  1  0  0  0  0
  2  1  1  0  0  0  0
  2  9  1  0  0  0  0
  3 40  1  0  0  0  0
  4  5  1  0  0  0  0
  5 13  1  0  0  0  0
  5 11  2  0  0  0  0
  6  7  2  0  0  0  0
  7  3  1  0  0  0  0
  8  3  2  0  0  0  0
  9  4  1  0  0  0  0
 10 15  1  6  0  0  0
 10 12  1  0  0  0  0
 11  8  1  0  0  0  0
 12 11  1  0  0  0  0
 12  7  1  0  0  0  0
 14 13  2  0  0  0  0
 17 15  1  0  0  0  0
 17 16  1  1  0  0  0
 18 17  1  0  0  0  0
 19 20  1  0  0  0  0
 19 21  1  0  0  0  0
 20 21  1  0  0  0  0
 20 22  1  1  0  0  0
 21 18  1  1  0  0  0
 22 24  1  0  0  0  0
 24 25  1  0  0  0  0
 24 23  1  1  0  0  0
 25 26  1  6  0  0  0
 27 29  1  0  0  0  0
 28 27  1  0  0  0  0
 29 25  1  1  0  0  0
 29 39  1  0  0  0  0
 31 34  1  6  0  0  0
 31 36  1  0  0  0  0
 32 33  1  6  0  0  0
 32 35  1  0  0  0  0
 32 36  1  0  0  0  0
 35 34  1  0  0  0  0
 36 39  1  6  0  0  0
 37 28  1  1  0  0  0
 37 33  1  0  0  0  0
 37 38  1  0  0  0  0
 38 30  1  1  0  0  0
 38 31  1  0  0  0  0
 40 41  1  0  0  0  0
 41 42  1  0  0  0  0
 43 42  1  0  0  0  0
 43 44  1  0  0  0  0
 44 45  2  0  0  0  0
 47 51  1  0  0  0  0
 48 52  1  0  0  0  0
 49 48  2  0  0  0  0
 49 50  1  0  0  0  0
 50 53  2  0  0  0  0
 51 50  1  0  0  0  0
 52 44  1  0  0  0  0
 52 46  2  0  0  0  0
 53 46  1  0  0  0  0
 54 47  2  0  0  0  0
 54 49  1  0  0  0  0
M  END
>  <MODEL>
4

>  <REMARK>
 VINA RESULT:      -8.1      3.870      9.387
  Name = 
  15 active torsions:
  status: ('A' for Active; 'I' for Inactive)
    1  A    between atoms: C_1  and  C_23
    2  A    between atoms: C_2  and  C_22
    3  A    between atoms: C_2  and  C_46
    4  A    between atoms: C_5  and  C_20
    5  A    between atoms: C_5  and  C_24
    6  A    between atoms: C_11  and  C_33
    7  A    between atoms: C_11  and  N_42
    8  A    between atoms: C_13  and  C_14
    9  A    between atoms: C_13  and  C_46
   10  A    between atoms: C_15  and  O_51
   11  A    between atoms: C_17  and  N_42
   12  A    between atoms: C_17  and  C_45
   13  A    between atoms: C_24  and  C_32
   14  A    between atoms: C_32  and  C_43
   15  A    between atoms: C_33  and  O_51
                            x       y       z     vdW  Elec       q    Type
                         _______ _______ _______ _____ _____    ______ ____

>  <TORSDO>
F 15

$$$$
=
 OpenBabel10232411133D

 54 61  0  0  1  0  0  0  0  0999 V2000
  187.4220  178.2720  146.2580 C   0  0  0  0  0  2  0  0  0  0  0  0
  187.5360  177.5560  147.6060 C   0  0  0  0  0  2  0  0  0  0  0  0
  190.6560  177.2550  142.7840 C   0  0  0  0  0  0  0  0  0  0  0  0
  189.8910  177.4770  147.4260 C   0  0  0  0  0  2  0  0  0  0  0  0
  190.6920  176.9030  146.2960 C   0  0  0  0  0  0  0  0  0  0  0  0
  188.5840  178.4020  142.3430 O   0  0  0  0  0  0  0  0  0  0  0  0
  189.3540  177.8030  143.1380 C   0  0  0  0  0  0  0  0  0  0  0  0
  191.2410  176.7920  143.8760 C   0  0  0  0  0  3  0  0  0  0  0  0
  188.7020  176.6760  147.6690 N   0  0  0  0  0  2  0  0  0  0  0  0
  187.7760  177.3260  145.1210 C   0  0  2  0  0  3  0  0  0  0  0  0
  190.3260  177.0500  145.0020 C   0  0  0  0  0  0  0  0  0  0  0  0
  189.0920  177.6310  144.5320 N   0  0  0  0  0  0  0  0  0  0  0  0
  191.9820  176.2650  146.6180 C   0  0  0  0  0  3  0  0  0  0  0  0
  192.3820  176.1290  147.8420 N   0  0  0  0  0  2  0  0  0  0  0  0
  186.6310  177.0520  144.1320 C   0  0  0  0  0  2  0  0  0  0  0  0
  184.7350  178.2880  144.9230 O   0  0  0  0  0  1  0  0  0  0  0  0
  185.6830  178.2280  143.9020 C   0  0  2  0  0  3  0  0  0  0  0  0
  184.9550  178.0520  142.5790 C   0  0  0  0  0  2  0  0  0  0  0  0
  185.9450  178.8070  140.4800 N   0  0  0  0  0  2  0  0  0  0  0  0
  184.5280  179.1750  140.3280 C   0  0  2  0  0  3  0  0  0  0  0  0
  185.1760  179.2480  141.6560 C   0  0  1  0  0  3  0  0  0  0  0  0
  183.6810  177.9260  140.0770 C   0  0  0  0  0  2  0  0  0  0  0  0
  182.5290  178.7410  138.1540 O   0  0  0  0  0  1  0  0  0  0  0  0
  183.4000  177.7390  138.5890 C   0  0  2  0  0  3  0  0  0  0  0  0
  182.7880  176.3560  138.3210 C   0  0  2  0  0  3  0  0  0  0  0  0
  182.5730  175.6770  139.5210 O   0  0  0  0  0  1  0  0  0  0  0  0
  183.1140  175.4820  135.9630 C   0  0  0  0  0  2  0  0  0  0  0  0
  184.2450  175.7370  134.9740 C   0  0  0  0  0  2  0  0  0  0  0  0
  183.6350  175.4750  137.3940 C   0  0  2  0  0  3  0  0  0  0  0  0
  186.4580  176.2320  136.5720 O   0  0  0  0  0  1  0  0  0  0  0  0
  186.3530  173.9320  137.3340 C   0  0  2  0  0  3  0  0  0  0  0  0
  184.9080  172.3950  136.2170 C   0  0  1  0  0  3  0  0  0  0  0  0
  184.7550  173.2430  134.9390 C   0  0  0  0  0  2  0  0  0  0  0  0
  187.2180  172.7390  136.9510 C   0  0  0  0  0  2  0  0  0  0  0  0
  186.2990  171.7730  136.1890 C   0  0  0  0  0  2  0  0  0  0  0  0
  184.9990  173.2640  137.4560 C   0  0  2  0  0  3  0  0  0  0  0  0
  185.3470  174.6720  135.0230 C   0  0  2  0  0  3  0  0  0  0  0  0
  186.4100  174.9030  136.1380 C   0  0  1  0  0  3  0  0  0  0  0  0
  183.7660  174.0520  137.9280 C   0  0  0  0  0  2  0  0  0  0  0  0
  191.2440  177.2090  141.5190 O   0  0  0  0  0  0  0  0  0  0  0  0
  190.4990  176.9450  140.3400 C   0  0  0  0  0  2  0  0  0  0  0  0
  191.4360  176.5280  139.2230 C   0  0  0  0  0  2  0  0  0  0  0  0
  190.8620  175.4140  138.4840 N   0  0  0  0  0  2  0  0  0  0  0  0
  191.4930  174.7720  137.3660 C   0  0  0  0  0  0  0  0  0  0  0  0
  190.7620  173.9230  136.6500 C   0  0  0  0  0  2  0  0  0  0  0  0
  193.9390  174.2720  137.7090 C   0  0  0  0  0  3  0  0  0  0  0  0
  196.6330  176.6750  135.0680 C   0  0  0  0  0  3  0  0  0  0  0  0
  193.2910  175.9300  136.0330 C   0  0  0  0  0  3  0  0  0  0  0  0
  194.6470  176.1080  135.7680 C   0  0  0  0  0  0  0  0  0  0  0  0
  195.6100  175.4090  136.4330 C   0  0  0  0  0  0  0  0  0  0  0  0
  196.7930  175.7570  136.0060 O   0  0  0  0  0  0  0  0  0  0  0  0
  192.9230  174.9870  137.0190 C   0  0  0  0  0  0  0  0  0  0  0  0
  195.2990  174.4770  137.4170 C   0  0  0  0  0  3  0  0  0  0  0  0
  195.2750  176.9420  134.8710 C   0  0  0  0  0  3  0  0  0  0  0  0
  1  2  1  0  0  0  0
  2  9  1  0  0  0  0
  3  7  1  0  0  0  0
  3  8  2  0  0  0  0
  4  9  1  0  0  0  0
  5 13  1  0  0  0  0
  5  4  1  0  0  0  0
  6  7  2  0  0  0  0
  7 12  1  0  0  0  0
  8 11  1  0  0  0  0
 10 15  1  6  0  0  0
 10  1  1  0  0  0  0
 11  5  2  0  0  0  0
 12 11  1  0  0  0  0
 12 10  1  0  0  0  0
 13 14  2  0  0  0  0
 17 15  1  0  0  0  0
 17 16  1  1  0  0  0
 18 17  1  0  0  0  0
 19 21  1  0  0  0  0
 20 22  1  1  0  0  0
 20 19  1  0  0  0  0
 20 21  1  0  0  0  0
 21 18  1  1  0  0  0
 24 23  1  1  0  0  0
 24 22  1  0  0  0  0
 25 24  1  0  0  0  0
 25 26  1  1  0  0  0
 27 29  1  0  0  0  0
 28 37  1  0  0  0  0
 28 27  1  0  0  0  0
 29 39  1  0  0  0  0
 29 25  1  1  0  0  0
 31 34  1  6  0  0  0
 31 36  1  0  0  0  0
 32 33  1  6  0  0  0
 32 36  1  0  0  0  0
 35 32  1  0  0  0  0
 35 34  1  0  0  0  0
 36 39  1  6  0  0  0
 37 33  1  1  0  0  0
 37 38  1  0  0  0  0
 38 30  1  1  0  0  0
 38 31  1  0  0  0  0
 40  3  1  0  0  0  0
 41 40  1  0  0  0  0
 42 41  1  0  0  0  0
 43 42  1  0  0  0  0
 44 43  1  0  0  0  0
 45 44  2  0  0  0  0
 47 51  1  0  0  0  0
 48 52  1  0  0  0  0
 49 48  2  0  0  0  0
 49 50  1  0  0  0  0
 50 53  2  0  0  0  0
 51 50  1  0  0  0  0
 52 44  1  0  0  0  0
 52 46  2  0  0  0  0
 53 46  1  0  0  0  0
 54 47  2  0  0  0  0
 54 49  1  0  0  0  0
M  END
>  <MODEL>
5

>  <REMARK>
 VINA RESULT:      -8.0      2.568      8.653
  Name = 
  15 active torsions:
  status: ('A' for Active; 'I' for Inactive)
    1  A    between atoms: C_1  and  C_23
    2  A    between atoms: C_2  and  C_22
    3  A    between atoms: C_2  and  C_46
    4  A    between atoms: C_5  and  C_20
    5  A    between atoms: C_5  and  C_24
    6  A    between atoms: C_11  and  C_33
    7  A    between atoms: C_11  and  N_42
    8  A    between atoms: C_13  and  C_14
    9  A    between atoms: C_13  and  C_46
   10  A    between atoms: C_15  and  O_51
   11  A    between atoms: C_17  and  N_42
   12  A    between atoms: C_17  and  C_45
   13  A    between atoms: C_24  and  C_32
   14  A    between atoms: C_32  and  C_43
   15  A    between atoms: C_33  and  O_51
                            x       y       z     vdW  Elec       q    Type
                         _______ _______ _______ _____ _____    ______ ____

>  <TORSDO>
F 15

$$$$
=
 OpenBabel10232411133D

 54 61  0  0  1  0  0  0  0  0999 V2000
  190.9160  176.1340  144.2530 C   0  0  0  0  0  2  0  0  0  0  0  0
  191.9320  176.3480  145.3780 C   0  0  0  0  0  2  0  0  0  0  0  0
  186.4420  177.9490  144.7580 C   0  0  0  0  0  0  0  0  0  0  0  0
  190.2230  176.2680  147.0090 C   0  0  0  0  0  2  0  0  0  0  0  0
  188.9820  177.1100  147.0600 C   0  0  0  0  0  0  0  0  0  0  0  0
  187.3180  177.2070  142.6400 O   0  0  0  0  0  0  0  0  0  0  0  0
  187.4740  177.4350  143.8670 C   0  0  0  0  0  0  0  0  0  0  0  0
  186.9090  177.9670  145.9950 C   0  0  0  0  0  3  0  0  0  0  0  0
  191.3500  177.0480  146.5230 N   0  0  0  0  0  2  0  0  0  0  0  0
  190.0420  177.3680  144.0810 C   0  0  2  0  0  3  0  0  0  0  0  0
  188.2820  177.4340  145.9490 C   0  0  0  0  0  0  0  0  0  0  0  0
  188.6760  177.1570  144.5890 N   0  0  0  0  0  0  0  0  0  0  0  0
  188.4570  177.4850  148.3860 C   0  0  0  0  0  3  0  0  0  0  0  0
  188.8110  178.5860  148.9670 N   0  0  0  0  0  2  0  0  0  0  0  0
  190.1660  178.0570  142.7130 C   0  0  0  0  0  2  0  0  0  0  0  0
  192.0490  177.6600  141.2820 O   0  0  0  0  0  1  0  0  0  0  0  0
  190.7750  177.1940  141.6080 C   0  0  2  0  0  3  0  0  0  0  0  0
  189.9050  177.2600  140.3640 C   0  0  0  0  0  2  0  0  0  0  0  0
  191.0730  176.1140  138.5520 N   0  0  0  0  0  2  0  0  0  0  0  0
  190.1300  176.9880  137.8360 C   0  0  2  0  0  3  0  0  0  0  0  0
  190.7470  177.4400  139.1020 C   0  0  1  0  0  3  0  0  0  0  0  0
  188.7060  176.4410  137.9570 C   0  0  0  0  0  2  0  0  0  0  0  0
  189.1770  176.0410  135.6530 O   0  0  0  0  0  1  0  0  0  0  0  0
  188.2760  175.7330  136.6760 C   0  0  2  0  0  3  0  0  0  0  0  0
  186.8550  176.1550  136.2720 C   0  0  2  0  0  3  0  0  0  0  0  0
  186.3710  177.1340  137.1420 O   0  0  0  0  0  1  0  0  0  0  0  0
  186.4770  173.6840  136.6940 C   0  0  0  0  0  2  0  0  0  0  0  0
  185.5790  172.9920  137.7130 C   0  0  0  0  0  2  0  0  0  0  0  0
  185.8570  174.9920  136.2230 C   0  0  2  0  0  3  0  0  0  0  0  0
  183.5090  174.7890  138.1380 O   0  0  0  0  0  1  0  0  0  0  0  0
  182.8030  174.4340  135.8450 C   0  0  2  0  0  3  0  0  0  0  0  0
  183.7740  172.6530  134.5860 C   0  0  1  0  0  3  0  0  0  0  0  0
  184.3030  171.8810  135.8120 C   0  0  0  0  0  2  0  0  0  0  0  0
  181.6400  173.6180  135.2990 C   0  0  0  0  0  2  0  0  0  0  0  0
  182.2650  172.4440  134.5320 C   0  0  0  0  0  2  0  0  0  0  0  0
  183.8560  174.1520  134.7920 C   0  0  2  0  0  3  0  0  0  0  0  0
  184.1950  172.6350  137.1600 C   0  0  2  0  0  3  0  0  0  0  0  0
  183.1670  173.8040  137.2040 C   0  0  1  0  0  3  0  0  0  0  0  0
  185.2300  174.8410  134.8410 C   0  0  0  0  0  2  0  0  0  0  0  0
  185.1510  178.3580  144.4160 O   0  0  0  0  0  0  0  0  0  0  0  0
  184.2440  178.8930  145.3680 C   0  0  0  0  0  2  0  0  0  0  0  0
  182.8260  178.7800  144.8430 C   0  0  0  0  0  2  0  0  0  0  0  0
  182.7580  179.2880  143.4810 N   0  0  0  0  0  2  0  0  0  0  0  0
  181.7970  178.8630  142.5040 C   0  0  0  0  0  0  0  0  0  0  0  0
  180.5470  178.6720  142.9120 C   0  0  0  0  0  2  0  0  0  0  0  0
  183.5190  178.3890  140.7260 C   0  0  0  0  0  3  0  0  0  0  0  0
  181.7820  178.0110  136.6210 C   0  0  0  0  0  3  0  0  0  0  0  0
  181.1690  178.5720  140.0810 C   0  0  0  0  0  3  0  0  0  0  0  0
  181.5700  178.3380  138.7680 C   0  0  0  0  0  0  0  0  0  0  0  0
  182.8760  178.1380  138.4370 C   0  0  0  0  0  0  0  0  0  0  0  0
  182.9910  177.9440  137.1520 O   0  0  0  0  0  0  0  0  0  0  0  0
  182.1600  178.5910  141.0870 C   0  0  0  0  0  0  0  0  0  0  0  0
  183.8900  178.1560  139.3900 C   0  0  0  0  0  3  0  0  0  0  0  0
  180.8270  178.2620  137.6110 C   0  0  0  0  0  3  0  0  0  0  0  0
  1  2  1  0  0  0  0
  2  9  1  0  0  0  0
  3  8  2  0  0  0  0
  4  5  1  0  0  0  0
  5 13  1  0  0  0  0
  6  7  2  0  0  0  0
  7 12  1  0  0  0  0
  7  3  1  0  0  0  0
  9  4  1  0  0  0  0
 10 15  1  6  0  0  0
 10  1  1  0  0  0  0
 10 12  1  0  0  0  0
 11  8  1  0  0  0  0
 11  5  2  0  0  0  0
 12 11  1  0  0  0  0
 13 14  2  0  0  0  0
 17 16  1  6  0  0  0
 17 15  1  0  0  0  0
 18 17  1  0  0  0  0
 19 21  1  0  0  0  0
 20 22  1  1  0  0  0
 20 19  1  0  0  0  0
 20 21  1  0  0  0  0
 21 18  1  1  0  0  0
 24 23  1  6  0  0  0
 24 22  1  0  0  0  0
 25 24  1  0  0  0  0
 25 26  1  1  0  0  0
 27 28  1  0  0  0  0
 29 25  1  6  0  0  0
 29 27  1  0  0  0  0
 31 34  1  6  0  0  0
 31 38  1  0  0  0  0
 32 35  1  1  0  0  0
 32 36  1  0  0  0  0
 32 33  1  0  0  0  0
 35 34  1  0  0  0  0
 36 39  1  1  0  0  0
 36 31  1  0  0  0  0
 37 33  1  6  0  0  0
 37 38  1  0  0  0  0
 37 28  1  0  0  0  0
 38 30  1  1  0  0  0
 39 29  1  0  0  0  0
 40  3  1  0  0  0  0
 40 41  1  0  0  0  0
 42 41  1  0  0  0  0
 43 42  1  0  0  0  0
 44 45  2  0  0  0  0
 44 43  1  0  0  0  0
 46 52  1  0  0  0  0
 47 51  1  0  0  0  0
 47 54  2  0  0  0  0
 48 52  2  0  0  0  0
 49 48  1  0  0  0  0
 50 49  2  0  0  0  0
 50 53  1  0  0  0  0
 51 50  1  0  0  0  0
 52 44  1  0  0  0  0
 53 46  2  0  0  0  0
 54 49  1  0  0  0  0
M  END
>  <MODEL>
6

>  <REMARK>
 VINA RESULT:      -7.9      1.976      6.921
  Name = 
  15 active torsions:
  status: ('A' for Active; 'I' for Inactive)
    1  A    between atoms: C_1  and  C_23
    2  A    between atoms: C_2  and  C_22
    3  A    between atoms: C_2  and  C_46
    4  A    between atoms: C_5  and  C_20
    5  A    between atoms: C_5  and  C_24
    6  A    between atoms: C_11  and  C_33
    7  A    between atoms: C_11  and  N_42
    8  A    between atoms: C_13  and  C_14
    9  A    between atoms: C_13  and  C_46
   10  A    between atoms: C_15  and  O_51
   11  A    between atoms: C_17  and  N_42
   12  A    between atoms: C_17  and  C_45
   13  A    between atoms: C_24  and  C_32
   14  A    between atoms: C_32  and  C_43
   15  A    between atoms: C_33  and  O_51
                            x       y       z     vdW  Elec       q    Type
                         _______ _______ _______ _____ _____    ______ ____

>  <TORSDO>
F 15

$$$$
=
 OpenBabel10232411133D

 54 61  0  0  1  0  0  0  0  0999 V2000
  187.3340  178.5340  146.3050 C   0  0  0  0  0  2  0  0  0  0  0  0
  187.4060  178.0230  147.7470 C   0  0  0  0  0  2  0  0  0  0  0  0
  190.3950  176.7020  143.0140 C   0  0  0  0  0  0  0  0  0  0  0  0
  189.7400  177.6970  147.5700 C   0  0  0  0  0  2  0  0  0  0  0  0
  190.4640  176.8850  146.5370 C   0  0  0  0  0  0  0  0  0  0  0  0
  188.4300  177.9580  142.4110 O   0  0  0  0  0  0  0  0  0  0  0  0
  189.1560  177.4170  143.2850 C   0  0  0  0  0  0  0  0  0  0  0  0
  190.9550  176.3570  144.1610 C   0  0  0  0  0  3  0  0  0  0  0  0
  188.4870  177.0570  147.9380 N   0  0  0  0  0  2  0  0  0  0  0  0
  187.5780  177.3970  145.3240 C   0  0  2  0  0  3  0  0  0  0  0  0
  190.0890  176.8680  145.2380 C   0  0  0  0  0  0  0  0  0  0  0  0
  188.9050  177.4840  144.6900 N   0  0  0  0  0  0  0  0  0  0  0  0
  191.6950  176.1840  146.9480 C   0  0  0  0  0  3  0  0  0  0  0  0
  192.3490  176.5320  148.0090 N   0  0  0  0  0  2  0  0  0  0  0  0
  186.3940  177.0850  144.3940 C   0  0  0  0  0  2  0  0  0  0  0  0
  184.5720  178.5680  144.8710 O   0  0  0  0  0  1  0  0  0  0  0  0
  185.5850  178.3030  143.9500 C   0  0  2  0  0  3  0  0  0  0  0  0
  184.9470  178.0320  142.5970 C   0  0  0  0  0  2  0  0  0  0  0  0
  185.8770  178.7860  140.4690 N   0  0  0  0  0  2  0  0  0  0  0  0
  184.4460  179.1070  140.3370 C   0  0  2  0  0  3  0  0  0  0  0  0
  185.1150  179.2200  141.6520 C   0  0  1  0  0  3  0  0  0  0  0  0
  183.6350  177.8280  140.1190 C   0  0  0  0  0  2  0  0  0  0  0  0
  182.9290  178.9270  138.1240 O   0  0  0  0  0  1  0  0  0  0  0  0
  183.2340  177.6720  138.6560 C   0  0  2  0  0  3  0  0  0  0  0  0
  182.0230  176.7350  138.5220 C   0  0  2  0  0  3  0  0  0  0  0  0
  181.5290  176.3940  139.7820 O   0  0  0  0  0  1  0  0  0  0  0  0
  181.2150  174.4160  137.8920 C   0  0  0  0  0  2  0  0  0  0  0  0
  180.7950  173.8610  136.5360 C   0  0  0  0  0  2  0  0  0  0  0  0
  182.3200  175.4510  137.7370 C   0  0  2  0  0  3  0  0  0  0  0  0
  182.2490  175.3520  134.7030 O   0  0  0  0  0  1  0  0  0  0  0  0
  184.2750  174.3360  135.5660 C   0  0  2  0  0  3  0  0  0  0  0  0
  184.1070  172.4790  137.0570 C   0  0  1  0  0  3  0  0  0  0  0  0
  182.6530  172.1280  136.6870 C   0  0  0  0  0  2  0  0  0  0  0  0
  185.1420  173.2350  134.9710 C   0  0  0  0  0  2  0  0  0  0  0  0
  184.9940  172.0250  135.9040 C   0  0  0  0  0  2  0  0  0  0  0  0
  184.3420  173.9760  137.0370 C   0  0  2  0  0  3  0  0  0  0  0  0
  181.9350  173.1620  135.7860 C   0  0  2  0  0  3  0  0  0  0  0  0
  182.8610  174.1270  134.9870 C   0  0  1  0  0  3  0  0  0  0  0  0
  183.6810  174.8670  138.1010 C   0  0  0  0  0  2  0  0  0  0  0  0
  190.9530  176.4100  141.7670 O   0  0  0  0  0  0  0  0  0  0  0  0
  191.8240  177.3050  141.0930 C   0  0  0  0  0  2  0  0  0  0  0  0
  191.3560  177.4960  139.6630 C   0  0  0  0  0  2  0  0  0  0  0  0
  192.0500  176.5650  138.7850 N   0  0  0  0  0  2  0  0  0  0  0  0
  191.4060  175.7510  137.7950 C   0  0  0  0  0  0  0  0  0  0  0  0
  191.9410  174.5640  137.5300 C   0  0  0  0  0  2  0  0  0  0  0  0
  190.3200  176.5340  135.6590 C   0  0  0  0  0  3  0  0  0  0  0  0
  185.9730  177.4830  136.1160 C   0  0  0  0  0  3  0  0  0  0  0  0
  188.9610  176.3550  137.6830 C   0  0  0  0  0  3  0  0  0  0  0  0
  187.8820  176.8090  136.9290 C   0  0  0  0  0  0  0  0  0  0  0  0
  188.0020  177.1130  135.6060 C   0  0  0  0  0  0  0  0  0  0  0  0
  186.8550  177.5150  135.1310 O   0  0  0  0  0  0  0  0  0  0  0  0
  190.2090  176.2050  137.0370 C   0  0  0  0  0  0  0  0  0  0  0  0
  189.2100  176.9900  134.9270 C   0  0  0  0  0  3  0  0  0  0  0  0
  186.5750  177.0370  137.2970 C   0  0  0  0  0  3  0  0  0  0  0  0
  1  2  1  0  0  0  0
  2  9  1  0  0  0  0
  3  7  1  0  0  0  0
  3  8  2  0  0  0  0
  4  9  1  0  0  0  0
  5 13  1  0  0  0  0
  5  4  1  0  0  0  0
  6  7  2  0  0  0  0
  7 12  1  0  0  0  0
  8 11  1  0  0  0  0
 10 15  1  6  0  0  0
 10  1  1  0  0  0  0
 11  5  2  0  0  0  0
 12 11  1  0  0  0  0
 12 10  1  0  0  0  0
 13 14  2  0  0  0  0
 17 15  1  0  0  0  0
 17 16  1  1  0  0  0
 18 17  1  0  0  0  0
 19 21  1  0  0  0  0
 20 22  1  1  0  0  0
 20 19  1  0  0  0  0
 20 21  1  0  0  0  0
 21 18  1  1  0  0  0
 24 23  1  1  0  0  0
 24 22  1  0  0  0  0
 25 24  1  0  0  0  0
 25 26  1  1  0  0  0
 28 27  1  0  0  0  0
 29 27  1  0  0  0  0
 29 39  1  0  0  0  0
 29 25  1  1  0  0  0
 31 34  1  6  0  0  0
 31 36  1  0  0  0  0
 32 35  1  6  0  0  0
 33 32  1  0  0  0  0
 34 35  1  0  0  0  0
 36 32  1  0  0  0  0
 36 39  1  1  0  0  0
 37 28  1  1  0  0  0
 37 33  1  0  0  0  0
 38 30  1  1  0  0  0
 38 31  1  0  0  0  0
 38 37  1  0  0  0  0
 40  3  1  0  0  0  0
 41 40  1  0  0  0  0
 42 41  1  0  0  0  0
 43 42  1  0  0  0  0
 44 43  1  0  0  0  0
 45 44  2  0  0  0  0
 46 52  1  0  0  0  0
 47 54  2  0  0  0  0
 49 54  1  0  0  0  0
 49 48  1  0  0  0  0
 50 49  2  0  0  0  0
 51 50  1  0  0  0  0
 51 47  1  0  0  0  0
 52 48  2  0  0  0  0
 52 44  1  0  0  0  0
 53 50  1  0  0  0  0
 53 46  2  0  0  0  0
M  END
>  <MODEL>
7

>  <REMARK>
 VINA RESULT:      -7.8      2.205      7.571
  Name = 
  15 active torsions:
  status: ('A' for Active; 'I' for Inactive)
    1  A    between atoms: C_1  and  C_23
    2  A    between atoms: C_2  and  C_22
    3  A    between atoms: C_2  and  C_46
    4  A    between atoms: C_5  and  C_20
    5  A    between atoms: C_5  and  C_24
    6  A    between atoms: C_11  and  C_33
    7  A    between atoms: C_11  and  N_42
    8  A    between atoms: C_13  and  C_14
    9  A    between atoms: C_13  and  C_46
   10  A    between atoms: C_15  and  O_51
   11  A    between atoms: C_17  and  N_42
   12  A    between atoms: C_17  and  C_45
   13  A    between atoms: C_24  and  C_32
   14  A    between atoms: C_32  and  C_43
   15  A    between atoms: C_33  and  O_51
                            x       y       z     vdW  Elec       q    Type
                         _______ _______ _______ _____ _____    ______ ____

>  <TORSDO>
F 15

$$$$
=
 OpenBabel10232411133D

 54 61  0  0  1  0  0  0  0  0999 V2000
  190.3720  176.2180  143.8430 C   0  0  0  0  0  2  0  0  0  0  0  0
  191.6070  176.5000  144.7020 C   0  0  0  0  0  2  0  0  0  0  0  0
  186.1430  178.2530  145.0810 C   0  0  0  0  0  0  0  0  0  0  0  0
  190.2820  176.6470  146.6530 C   0  0  0  0  0  2  0  0  0  0  0  0
  189.0970  177.5400  146.8750 C   0  0  0  0  0  0  0  0  0  0  0  0
  186.5350  177.2740  142.9150 O   0  0  0  0  0  0  0  0  0  0  0  0
  186.9520  177.6140  144.0520 C   0  0  0  0  0  0  0  0  0  0  0  0
  186.8620  178.3730  146.1840 C   0  0  0  0  0  3  0  0  0  0  0  0
  191.2950  177.3300  145.8640 N   0  0  0  0  0  2  0  0  0  0  0  0
  189.5060  177.4640  143.7300 C   0  0  2  0  0  3  0  0  0  0  0  0
  188.1840  177.7830  145.9080 C   0  0  0  0  0  0  0  0  0  0  0  0
  188.2740  177.3590  144.5310 N   0  0  0  0  0  0  0  0  0  0  0  0
  188.8720  178.0620  148.2360 C   0  0  0  0  0  3  0  0  0  0  0  0
  187.8840  177.6510  148.9640 N   0  0  0  0  0  2  0  0  0  0  0  0
  189.3500  178.0120  142.3030 C   0  0  0  0  0  2  0  0  0  0  0  0
  191.1500  177.6690  140.7560 O   0  0  0  0  0  1  0  0  0  0  0  0
  189.9440  177.1300  141.2050 C   0  0  2  0  0  3  0  0  0  0  0  0
  188.9840  177.0540  140.0290 C   0  0  0  0  0  2  0  0  0  0  0  0
  188.6320  178.7750  138.3330 N   0  0  0  0  0  2  0  0  0  0  0  0
  187.2610  178.4230  138.7360 C   0  0  2  0  0  3  0  0  0  0  0  0
  188.3540  178.4140  139.7330 C   0  0  1  0  0  3  0  0  0  0  0  0
  186.8770  177.0550  138.1690 C   0  0  0  0  0  2  0  0  0  0  0  0
  186.1840  177.4230  135.9160 O   0  0  0  0  0  1  0  0  0  0  0  0
  187.2450  176.9470  136.6920 C   0  0  2  0  0  3  0  0  0  0  0  0
  187.5610  175.4910  136.3150 C   0  0  2  0  0  3  0  0  0  0  0  0
  187.1860  174.6290  137.3470 O   0  0  0  0  0  1  0  0  0  0  0  0
  189.3650  175.6510  134.5420 C   0  0  0  0  0  2  0  0  0  0  0  0
  190.6170  176.5200  134.4950 C   0  0  0  0  0  2  0  0  0  0  0  0
  189.0360  175.2490  135.9730 C   0  0  2  0  0  3  0  0  0  0  0  0
  191.2730  176.9250  137.1600 O   0  0  0  0  0  1  0  0  0  0  0  0
  191.7590  174.5560  137.3440 C   0  0  2  0  0  3  0  0  0  0  0  0
  191.8710  173.2290  135.3620 C   0  0  1  0  0  3  0  0  0  0  0  0
  192.0530  174.4200  134.4010 C   0  0  0  0  0  2  0  0  0  0  0  0
  193.1010  173.8380  137.3890 C   0  0  0  0  0  2  0  0  0  0  0  0
  193.1940  173.0240  136.0900 C   0  0  0  0  0  2  0  0  0  0  0  0
  190.9510  173.5780  136.5150 C   0  0  2  0  0  3  0  0  0  0  0  0
  191.8650  175.8170  135.0410 C   0  0  2  0  0  3  0  0  0  0  0  0
  192.0070  175.8790  136.5910 C   0  0  1  0  0  3  0  0  0  0  0  0
  189.4530  173.8090  136.2540 C   0  0  0  0  0  2  0  0  0  0  0  0
  184.8170  178.6790  144.9760 O   0  0  0  0  0  0  0  0  0  0  0  0
  184.3870  179.5970  143.9830 C   0  0  0  0  0  2  0  0  0  0  0  0
  183.0580  179.1450  143.4080 C   0  0  0  0  0  2  0  0  0  0  0  0
  183.2190  178.7870  142.0070 N   0  0  0  0  0  2  0  0  0  0  0  0
  182.1340  178.4980  141.1140 C   0  0  0  0  0  0  0  0  0  0  0  0
  180.9010  178.7580  141.5390 C   0  0  0  0  0  2  0  0  0  0  0  0
  182.9840  176.6250  139.6580 C   0  0  0  0  0  3  0  0  0  0  0  0
  182.3640  177.3470  135.2870 C   0  0  0  0  0  3  0  0  0  0  0  0
  181.9330  178.5630  138.6030 C   0  0  0  0  0  3  0  0  0  0  0  0
  182.1730  177.9520  137.3740 C   0  0  0  0  0  0  0  0  0  0  0  0
  182.7870  176.7400  137.2780 C   0  0  0  0  0  0  0  0  0  0  0  0
  182.8960  176.3880  136.0270 O   0  0  0  0  0  0  0  0  0  0  0  0
  182.3380  177.8850  139.7750 C   0  0  0  0  0  0  0  0  0  0  0  0
  183.2120  176.0370  138.4010 C   0  0  0  0  0  3  0  0  0  0  0  0
  181.8820  178.3790  136.0980 C   0  0  0  0  0  3  0  0  0  0  0  0
  1  2  1  0  0  0  0
  2  9  1  0  0  0  0
  3  8  2  0  0  0  0
  4  5  1  0  0  0  0
  5 13  1  0  0  0  0
  6  7  2  0  0  0  0
  7 12  1  0  0  0  0
  7  3  1  0  0  0  0
  9  4  1  0  0  0  0
 10 15  1  6  0  0  0
 10  1  1  0  0  0  0
 10 12  1  0  0  0  0
 11  8  1  0  0  0  0
 11  5  2  0  0  0  0
 12 11  1  0  0  0  0
 13 14  2  0  0  0  0
 17 16  1  6  0  0  0
 17 15  1  0  0  0  0
 18 17  1  0  0  0  0
 19 20  1  0  0  0  0
 19 21  1  0  0  0  0
 20 22  1  6  0  0  0
 20 21  1  0  0  0  0
 21 18  1  6  0  0  0
 24 23  1  6  0  0  0
 24 22  1  0  0  0  0
 25 24  1  0  0  0  0
 25 26  1  1  0  0  0
 27 29  1  0  0  0  0
 28 27  1  0  0  0  0
 28 37  1  0  0  0  0
 29 39  1  0  0  0  0
 29 25  1  6  0  0  0
 31 34  1  6  0  0  0
 32 33  1  6  0  0  0
 32 35  1  0  0  0  0
 32 36  1  0  0  0  0
 35 34  1  0  0  0  0
 36 39  1  6  0  0  0
 36 31  1  0  0  0  0
 37 33  1  1  0  0  0
 37 38  1  0  0  0  0
 38 30  1  1  0  0  0
 38 31  1  0  0  0  0
 40  3  1  0  0  0  0
 41 40  1  0  0  0  0
 42 41  1  0  0  0  0
 43 42  1  0  0  0  0
 44 45  2  0  0  0  0
 44 43  1  0  0  0  0
 46 52  1  0  0  0  0
 47 51  1  0  0  0  0
 47 54  2  0  0  0  0
 48 52  2  0  0  0  0
 49 48  1  0  0  0  0
 50 49  2  0  0  0  0
 50 53  1  0  0  0  0
 51 50  1  0  0  0  0
 52 44  1  0  0  0  0
 53 46  2  0  0  0  0
 54 49  1  0  0  0  0
M  END
>  <MODEL>
8

>  <REMARK>
 VINA RESULT:      -7.6      1.948      8.316
  Name = 
  15 active torsions:
  status: ('A' for Active; 'I' for Inactive)
    1  A    between atoms: C_1  and  C_23
    2  A    between atoms: C_2  and  C_22
    3  A    between atoms: C_2  and  C_46
    4  A    between atoms: C_5  and  C_20
    5  A    between atoms: C_5  and  C_24
    6  A    between atoms: C_11  and  C_33
    7  A    between atoms: C_11  and  N_42
    8  A    between atoms: C_13  and  C_14
    9  A    between atoms: C_13  and  C_46
   10  A    between atoms: C_15  and  O_51
   11  A    between atoms: C_17  and  N_42
   12  A    between atoms: C_17  and  C_45
   13  A    between atoms: C_24  and  C_32
   14  A    between atoms: C_32  and  C_43
   15  A    between atoms: C_33  and  O_51
                            x       y       z     vdW  Elec       q    Type
                         _______ _______ _______ _____ _____    ______ ____

>  <TORSDO>
F 15

$$$$
=
 OpenBabel10232411133D

 54 61  0  0  1  0  0  0  0  0999 V2000
  190.6290  176.3850  144.6010 C   0  0  0  0  0  2  0  0  0  0  0  0
  191.4510  176.7770  145.8320 C   0  0  0  0  0  2  0  0  0  0  0  0
  186.0870  178.0440  144.1880 C   0  0  0  0  0  0  0  0  0  0  0  0
  189.5100  176.8150  147.1800 C   0  0  0  0  0  2  0  0  0  0  0  0
  188.2560  177.6010  146.9370 C   0  0  0  0  0  0  0  0  0  0  0  0
  187.3020  177.0950  142.3380 O   0  0  0  0  0  0  0  0  0  0  0  0
  187.2580  177.4750  143.5370 C   0  0  0  0  0  0  0  0  0  0  0  0
  186.3530  178.2310  145.4700 C   0  0  0  0  0  3  0  0  0  0  0  0
  190.6790  177.5810  146.7780 N   0  0  0  0  0  2  0  0  0  0  0  0
  189.7620  177.5480  144.1450 C   0  0  2  0  0  3  0  0  0  0  0  0
  187.7300  177.7580  145.7010 C   0  0  0  0  0  0  0  0  0  0  0  0
  188.3390  177.3390  144.4610 N   0  0  0  0  0  0  0  0  0  0  0  0
  187.5200  178.1070  148.1100 C   0  0  0  0  0  3  0  0  0  0  0  0
  188.1380  178.5300  149.1650 N   0  0  0  0  0  2  0  0  0  0  0  0
  190.0800  178.0750  142.7370 C   0  0  0  0  0  2  0  0  0  0  0  0
  192.1040  177.2750  141.7290 O   0  0  0  0  0  1  0  0  0  0  0  0
  190.7280  177.0560  141.7990 C   0  0  2  0  0  3  0  0  0  0  0  0
  190.1460  177.1990  140.4020 C   0  0  0  0  0  2  0  0  0  0  0  0
  190.7360  175.7150  138.5550 N   0  0  0  0  0  2  0  0  0  0  0  0
  190.7450  177.0460  137.9260 C   0  0  2  0  0  3  0  0  0  0  0  0
  191.1860  176.8840  139.3280 C   0  0  1  0  0  3  0  0  0  0  0  0
  189.3140  177.5530  137.7410 C   0  0  0  0  0  2  0  0  0  0  0  0
  189.3520  176.2770  135.7260 O   0  0  0  0  0  1  0  0  0  0  0  0
  188.5280  176.6560  136.7900 C   0  0  2  0  0  3  0  0  0  0  0  0
  187.2830  177.3840  136.2590 C   0  0  2  0  0  3  0  0  0  0  0  0
  187.3000  178.7250  136.6470 O   0  0  0  0  0  1  0  0  0  0  0  0
  185.5160  177.2580  138.0730 C   0  0  0  0  0  2  0  0  0  0  0  0
  184.0530  177.6850  138.0440 C   0  0  0  0  0  2  0  0  0  0  0  0
  185.9600  176.7500  136.7080 C   0  0  2  0  0  3  0  0  0  0  0  0
  183.3100  177.4190  135.3850 O   0  0  0  0  0  1  0  0  0  0  0  0
  183.6030  175.0210  135.6000 C   0  0  2  0  0  3  0  0  0  0  0  0
  183.9130  174.0720  137.7680 C   0  0  1  0  0  3  0  0  0  0  0  0
  183.3590  175.2860  138.5390 C   0  0  0  0  0  2  0  0  0  0  0  0
  182.5590  173.9210  135.7340 C   0  0  0  0  0  2  0  0  0  0  0  0
  182.7260  173.3440  137.1480 C   0  0  0  0  0  2  0  0  0  0  0  0
  184.6770  174.4970  136.5310 C   0  0  2  0  0  3  0  0  0  0  0  0
  183.0940  176.5460  137.6780 C   0  0  2  0  0  3  0  0  0  0  0  0
  182.9450  176.3040  136.1470 C   0  0  1  0  0  3  0  0  0  0  0  0
  186.0230  175.2260  136.6770 C   0  0  0  0  0  2  0  0  0  0  0  0
  184.8550  178.3510  143.6060 O   0  0  0  0  0  0  0  0  0  0  0  0
  183.6510  178.4150  144.3560 C   0  0  0  0  0  2  0  0  0  0  0  0
  182.7190  179.4410  143.7410 C   0  0  0  0  0  2  0  0  0  0  0  0
  181.8490  178.7990  142.7670 N   0  0  0  0  0  2  0  0  0  0  0  0
  180.8300  179.4780  142.0190 C   0  0  0  0  0  0  0  0  0  0  0  0
  180.0020  180.2750  142.6880 C   0  0  0  0  0  2  0  0  0  0  0  0
  180.1930  178.0350  140.0530 C   0  0  0  0  0  3  0  0  0  0  0  0
  180.6620  180.0930  136.1090 C   0  0  0  0  0  3  0  0  0  0  0  0
  180.9540  180.3220  139.6470 C   0  0  0  0  0  3  0  0  0  0  0  0
  180.7860  180.0760  138.2870 C   0  0  0  0  0  0  0  0  0  0  0  0
  180.3440  178.8740  137.8200 C   0  0  0  0  0  0  0  0  0  0  0  0
  180.2740  178.8960  136.5170 O   0  0  0  0  0  0  0  0  0  0  0  0
  180.6450  179.2850  140.5560 C   0  0  0  0  0  0  0  0  0  0  0  0
  180.0350  177.8200  138.6720 C   0  0  0  0  0  3  0  0  0  0  0  0
  181.0030  180.8950  137.2020 C   0  0  0  0  0  3  0  0  0  0  0  0
  1  2  1  0  0  0  0
  2  9  1  0  0  0  0
  3  8  2  0  0  0  0
  5  4  1  0  0  0  0
  5 13  1  0  0  0  0
  6  7  2  0  0  0  0
  7  3  1  0  0  0  0
  7 12  1  0  0  0  0
  8 11  1  0  0  0  0
  9  4  1  0  0  0  0
 10 15  1  6  0  0  0
 10 12  1  0  0  0  0
 10  1  1  0  0  0  0
 11  5  2  0  0  0  0
 12 11  1  0  0  0  0
 13 14  2  0  0  0  0
 17 16  1  6  0  0  0
 17 15  1  0  0  0  0
 18 17  1  0  0  0  0
 19 21  1  0  0  0  0
 20 22  1  1  0  0  0
 20 19  1  0  0  0  0
 20 21  1  0  0  0  0
 21 18  1  1  0  0  0
 24 23  1  6  0  0  0
 24 22  1  0  0  0  0
 25 26  1  1  0  0  0
 25 24  1  0  0  0  0
 28 27  1  0  0  0  0
 29 25  1  1  0  0  0
 29 27  1  0  0  0  0
 31 34  1  1  0  0  0
 31 38  1  0  0  0  0
 31 36  1  0  0  0  0
 32 35  1  6  0  0  0
 32 33  1  0  0  0  0
 34 35  1  0  0  0  0
 36 39  1  1  0  0  0
 36 32  1  0  0  0  0
 37 28  1  6  0  0  0
 37 33  1  0  0  0  0
 38 30  1  6  0  0  0
 38 37  1  0  0  0  0
 39 29  1  0  0  0  0
 40  3  1  0  0  0  0
 40 41  1  0  0  0  0
 42 41  1  0  0  0  0
 43 42  1  0  0  0  0
 44 45  2  0  0  0  0
 44 43  1  0  0  0  0
 46 52  1  0  0  0  0
 47 51  1  0  0  0  0
 47 54  2  0  0  0  0
 48 52  2  0  0  0  0
 49 48  1  0  0  0  0
 50 49  2  0  0  0  0
 50 53  1  0  0  0  0
 51 50  1  0  0  0  0
 52 44  1  0  0  0  0
 53 46  2  0  0  0  0
 54 49  1  0  0  0  0
M  END
>  <MODEL>
9

>  <REMARK>
 VINA RESULT:      -7.4      2.051      6.996
  Name = 
  15 active torsions:
  status: ('A' for Active; 'I' for Inactive)
    1  A    between atoms: C_1  and  C_23
    2  A    between atoms: C_2  and  C_22
    3  A    between atoms: C_2  and  C_46
    4  A    between atoms: C_5  and  C_20
    5  A    between atoms: C_5  and  C_24
    6  A    between atoms: C_11  and  C_33
    7  A    between atoms: C_11  and  N_42
    8  A    between atoms: C_13  and  C_14
    9  A    between atoms: C_13  and  C_46
   10  A    between atoms: C_15  and  O_51
   11  A    between atoms: C_17  and  N_42
   12  A    between atoms: C_17  and  C_45
   13  A    between atoms: C_24  and  C_32
   14  A    between atoms: C_32  and  C_43
   15  A    between atoms: C_33  and  O_51
                            x       y       z     vdW  Elec       q    Type
                         _______ _______ _______ _____ _____    ______ ____

>  <TORSDO>
F 15

$$$$
