=
 OpenBabel10232408513D

 25 27  0  0  1  0  0  0  0  0999 V2000
  188.2440  177.5570  144.6370 C   0  0  0  0  0  0  0  0  0  0  0  0
  189.4680  177.3080  146.7290 C   0  0  0  0  0  3  0  0  0  0  0  0
  188.3520  177.6580  148.8340 O   0  0  0  0  0  1  0  0  0  0  0  0
  188.3180  177.6250  147.4480 C   0  0  0  0  0  0  0  0  0  0  0  0
  189.4280  177.2700  145.3360 C   0  0  0  0  0  3  0  0  0  0  0  0
  187.0720  177.8890  145.3670 C   0  0  0  0  0  0  0  0  0  0  0  0
  187.1320  177.9110  146.7720 C   0  0  0  0  0  3  0  0  0  0  0  0
  188.2010  177.4600  143.2040 N   0  0  0  0  0  2  0  0  0  0  0  0
  191.4160  177.2540  140.4420 C   0  0  0  0  0  0  0  0  0  0  0  0
  190.5250  177.5980  142.7020 N   0  0  0  0  0  0  0  0  0  0  0  0
  190.2100  177.0940  139.9920 N   0  0  0  0  0  0  0  0  0  0  0  0
  191.6160  177.5550  141.8220 N   0  0  0  0  0  2  0  0  0  0  0  0
  189.3050  177.4330  142.2840 C   0  0  0  0  0  0  0  0  0  0  0  0
  189.0070  177.2620  140.8130 C   0  0  1  0  0  3  0  0  0  0  0  0
  188.2140  178.4490  140.3020 C   0  0  0  0  0  1  0  0  0  0  0  0
  192.5710  177.1030  139.5490 C   0  0  0  0  0  0  0  0  0  0  0  0
  193.7260  177.4220  139.9400 O   0  0  0  0  0  1  0  0  0  0  0  0
  192.3960  176.6060  138.2640 O   0  0  0  0  0  0  0  0  0  0  0  0
  183.3320  178.9030  143.4970 C   0  0  0  0  0  0  0  0  0  0  0  0
  184.3950  178.4410  142.7180 C   0  0  0  0  0  3  0  0  0  0  0  0
  184.7020  178.6970  145.4810 C   0  0  0  0  0  3  0  0  0  0  0  0
  183.4870  179.0340  144.8790 C   0  0  0  0  0  3  0  0  0  0  0  0
  185.7770  178.2200  144.7120 C   0  0  0  0  0  0  0  0  0  0  0  0
  182.1550  179.2280  142.9120 F   0  0  0  0  0  0  0  0  0  0  0  0
  185.6090  178.1040  143.3220 C   0  0  0  0  0  3  0  0  0  0  0  0
  1  5  2  0  0  0  0
  1  6  1  0  0  0  0
  2  4  2  0  0  0  0
  4  3  1  0  0  0  0
  5  2  1  0  0  0  0
  6  7  2  0  0  0  0
  7  4  1  0  0  0  0
  8  1  1  0  0  0  0
  9 12  1  0  0  0  0
 11  9  2  0  0  0  0
 11 14  1  0  0  0  0
 12 10  1  0  0  0  0
 13 10  2  0  0  0  0
 13  8  1  0  0  0  0
 14 15  1  6  0  0  0
 14 13  1  0  0  0  0
 16 17  1  0  0  0  0
 16  9  1  0  0  0  0
 18 16  2  0  0  0  0
 19 22  1  0  0  0  0
 20 25  1  0  0  0  0
 20 19  2  0  0  0  0
 22 21  2  0  0  0  0
 23  6  1  0  0  0  0
 23 21  1  0  0  0  0
 24 19  1  0  0  0  0
 25 23  2  0  0  0  0
M  END
>  <MODEL>
1

>  <REMARK>
 VINA RESULT:     -10.3      0.000      0.000
  Name = 
  3 active torsions:
  status: ('A' for Active; 'I' for Inactive)
    1  A    between atoms: C_1  and  N_7
    2  A    between atoms: C_3  and  C_11
    3  A    between atoms: C_15  and  C_21
                            x       y       z     vdW  Elec       q    Type
                         _______ _______ _______ _____ _____    ______ ____

>  <TORSDO>
F 3

$$$$
=
 OpenBabel10232408513D

 25 27  0  0  1  0  0  0  0  0999 V2000
  189.7800  177.0870  144.3980 C   0  0  0  0  0  0  0  0  0  0  0  0
  191.8000  176.6010  145.6710 C   0  0  0  0  0  3  0  0  0  0  0  0
  191.7750  176.7260  148.0760 O   0  0  0  0  0  1  0  0  0  0  0  0
  191.1170  176.8460  146.8610 C   0  0  0  0  0  0  0  0  0  0  0  0
  191.1340  176.7160  144.4510 C   0  0  0  0  0  3  0  0  0  0  0  0
  189.0840  177.3460  145.6090 C   0  0  0  0  0  0  0  0  0  0  0  0
  189.7720  177.2130  146.8280 C   0  0  0  0  0  3  0  0  0  0  0  0
  189.0900  177.1490  143.1390 N   0  0  0  0  0  2  0  0  0  0  0  0
  190.6800  176.9880  139.2090 C   0  0  0  0  0  0  0  0  0  0  0  0
  190.9410  177.1560  141.6420 N   0  0  0  0  0  0  0  0  0  0  0  0
  189.3910  176.9730  139.3480 N   0  0  0  0  0  0  0  0  0  0  0  0
  191.5110  177.1210  140.3610 N   0  0  0  0  0  2  0  0  0  0  0  0
  189.6530  177.1340  141.8180 C   0  0  0  0  0  0  0  0  0  0  0  0
  188.7110  177.1460  140.6360 C   0  0  1  0  0  3  0  0  0  0  0  0
  187.9220  178.4410  140.6150 C   0  0  0  0  0  1  0  0  0  0  0  0
  191.2870  176.8430  137.8800 C   0  0  0  0  0  0  0  0  0  0  0  0
  190.5700  176.8740  136.8450 O   0  0  0  0  0  0  0  0  0  0  0  0
  192.6600  176.6710  137.7570 O   0  0  0  0  0  1  0  0  0  0  0  0
  184.9670  178.5880  145.7470 C   0  0  0  0  0  0  0  0  0  0  0  0
  185.5300  178.1850  144.5340 C   0  0  0  0  0  3  0  0  0  0  0  0
  187.0760  178.1750  146.8590 C   0  0  0  0  0  3  0  0  0  0  0  0
  185.7410  178.5860  146.9090 C   0  0  0  0  0  3  0  0  0  0  0  0
  187.6540  177.7560  145.6480 C   0  0  0  0  0  0  0  0  0  0  0  0
  183.6730  178.9840  145.7950 F   0  0  0  0  0  0  0  0  0  0  0  0
  186.8650  177.7740  144.4860 C   0  0  0  0  0  3  0  0  0  0  0  0
  1  5  2  0  0  0  0
  1  6  1  0  0  0  0
  2  4  2  0  0  0  0
  4  3  1  0  0  0  0
  5  2  1  0  0  0  0
  6 23  1  0  0  0  0
  6  7  2  0  0  0  0
  7  4  1  0  0  0  0
  8  1  1  0  0  0  0
  9 11  2  0  0  0  0
  9 12  1  0  0  0  0
 10 13  2  0  0  0  0
 11 14  1  0  0  0  0
 12 10  1  0  0  0  0
 13  8  1  0  0  0  0
 14 15  1  6  0  0  0
 14 13  1  0  0  0  0
 16  9  1  0  0  0  0
 17 16  2  0  0  0  0
 18 16  1  0  0  0  0
 19 24  1  0  0  0  0
 19 22  1  0  0  0  0
 20 19  2  0  0  0  0
 21 22  2  0  0  0  0
 23 21  1  0  0  0  0
 25 20  1  0  0  0  0
 25 23  2  0  0  0  0
M  END
>  <MODEL>
2

>  <REMARK>
 VINA RESULT:      -9.8      1.571      2.271
  Name = 
  3 active torsions:
  status: ('A' for Active; 'I' for Inactive)
    1  A    between atoms: C_1  and  N_7
    2  A    between atoms: C_3  and  C_11
    3  A    between atoms: C_15  and  C_21
                            x       y       z     vdW  Elec       q    Type
                         _______ _______ _______ _____ _____    ______ ____

>  <TORSDO>
F 3

$$$$
=
 OpenBabel10232408513D

 25 27  0  0  1  0  0  0  0  0999 V2000
  187.5270  177.9560  143.7470 C   0  0  0  0  0  0  0  0  0  0  0  0
  185.2200  178.5310  144.2780 C   0  0  0  0  0  3  0  0  0  0  0  0
  184.4600  178.5030  146.5630 O   0  0  0  0  0  1  0  0  0  0  0  0
  185.4720  178.3220  145.6320 C   0  0  0  0  0  0  0  0  0  0  0  0
  186.2410  178.3540  143.3450 C   0  0  0  0  0  3  0  0  0  0  0  0
  187.7850  177.7340  145.1250 C   0  0  0  0  0  0  0  0  0  0  0  0
  186.7430  177.9290  146.0500 C   0  0  0  0  0  3  0  0  0  0  0  0
  188.5860  177.8300  142.7830 N   0  0  0  0  0  2  0  0  0  0  0  0
  188.4650  178.4400  138.5860 C   0  0  0  0  0  0  0  0  0  0  0  0
  187.3720  178.2130  140.7700 N   0  0  0  0  0  0  0  0  0  0  0  0
  189.6180  178.2240  139.1400 N   0  0  0  0  0  0  0  0  0  0  0  0
  187.2830  178.4020  139.3830 N   0  0  0  0  0  2  0  0  0  0  0  0
  188.5120  178.0020  141.3580 C   0  0  0  0  0  0  0  0  0  0  0  0
  189.7860  177.8780  140.5550 C   0  0  1  0  0  3  0  0  0  0  0  0
  190.3330  176.4680  140.6640 C   0  0  0  0  0  1  0  0  0  0  0  0
  188.3740  178.7470  137.1530 C   0  0  0  0  0  0  0  0  0  0  0  0
  187.4870  179.5320  136.7240 O   0  0  0  0  0  1  0  0  0  0  0  0
  189.2680  178.1700  136.2600 O   0  0  0  0  0  0  0  0  0  0  0  0
  191.5930  176.4260  146.6420 C   0  0  0  0  0  0  0  0  0  0  0  0
  191.4240  176.6280  145.2700 C   0  0  0  0  0  3  0  0  0  0  0  0
  189.2940  177.0810  147.0170 C   0  0  0  0  0  3  0  0  0  0  0  0
  190.5270  176.6500  147.5150 C   0  0  0  0  0  3  0  0  0  0  0  0
  189.1120  177.2990  145.6410 C   0  0  0  0  0  0  0  0  0  0  0  0
  192.7880  176.0100  147.1230 F   0  0  0  0  0  0  0  0  0  0  0  0
  190.1910  177.0580  144.7740 C   0  0  0  0  0  3  0  0  0  0  0  0
  1  6  1  0  0  0  0
  2  4  2  0  0  0  0
  4  7  1  0  0  0  0
  4  3  1  0  0  0  0
  5  1  2  0  0  0  0
  5  2  1  0  0  0  0
  6 23  1  0  0  0  0
  6  7  2  0  0  0  0
  8  1  1  0  0  0  0
  9 11  2  0  0  0  0
  9 12  1  0  0  0  0
 10 13  2  0  0  0  0
 11 14  1  0  0  0  0
 12 10  1  0  0  0  0
 13  8  1  0  0  0  0
 14 15  1  6  0  0  0
 14 13  1  0  0  0  0
 16  9  1  0  0  0  0
 17 16  1  0  0  0  0
 18 16  2  0  0  0  0
 19 24  1  0  0  0  0
 19 22  1  0  0  0  0
 20 19  2  0  0  0  0
 21 22  2  0  0  0  0
 23 21  1  0  0  0  0
 25 20  1  0  0  0  0
 25 23  2  0  0  0  0
M  END
>  <MODEL>
3

>  <REMARK>
 VINA RESULT:      -9.8      3.278      5.098
  Name = 
  3 active torsions:
  status: ('A' for Active; 'I' for Inactive)
    1  A    between atoms: C_1  and  N_7
    2  A    between atoms: C_3  and  C_11
    3  A    between atoms: C_15  and  C_21
                            x       y       z     vdW  Elec       q    Type
                         _______ _______ _______ _____ _____    ______ ____

>  <TORSDO>
F 3

$$$$
=
 OpenBabel10232408513D

 25 27  0  0  1  0  0  0  0  0999 V2000
  185.3950  178.3460  143.3000 C   0  0  0  0  0  0  0  0  0  0  0  0
  183.0860  178.7180  142.6160 C   0  0  0  0  0  3  0  0  0  0  0  0
  181.3800  179.1040  144.2710 O   0  0  0  0  0  1  0  0  0  0  0  0
  182.7050  178.8530  143.9490 C   0  0  0  0  0  0  0  0  0  0  0  0
  184.4210  178.4710  142.2960 C   0  0  0  0  0  3  0  0  0  0  0  0
  185.0080  178.4740  144.6610 C   0  0  0  0  0  0  0  0  0  0  0  0
  183.6580  178.7330  144.9600 C   0  0  0  0  0  3  0  0  0  0  0  0
  186.7760  178.1470  142.9560 N   0  0  0  0  0  2  0  0  0  0  0  0
  188.6480  178.4100  139.1580 C   0  0  0  0  0  0  0  0  0  0  0  0
  186.6550  178.3570  140.5880 N   0  0  0  0  0  0  0  0  0  0  0  0
  189.4010  178.2460  140.2020 N   0  0  0  0  0  0  0  0  0  0  0  0
  187.2300  178.4320  139.3100 N   0  0  0  0  0  2  0  0  0  0  0  0
  187.3810  178.2010  141.6550 C   0  0  0  0  0  0  0  0  0  0  0  0
  188.8780  178.0180  141.5520 C   0  0  1  0  0  3  0  0  0  0  0  0
  189.2630  176.6240  142.0100 C   0  0  0  0  0  1  0  0  0  0  0  0
  189.2460  178.5980  137.8310 C   0  0  0  0  0  0  0  0  0  0  0  0
  189.0300  179.6530  137.1770 O   0  0  0  0  0  0  0  0  0  0  0  0
  190.0570  177.6100  137.2870 O   0  0  0  0  0  1  0  0  0  0  0  0
  187.8290  178.1160  147.8900 C   0  0  0  0  0  0  0  0  0  0  0  0
  186.7210  178.9560  148.0260 C   0  0  0  0  0  3  0  0  0  0  0  0
  187.0930  177.5120  145.6650 C   0  0  0  0  0  3  0  0  0  0  0  0
  188.0160  177.3960  146.7080 C   0  0  0  0  0  3  0  0  0  0  0  0
  185.9680  178.3440  145.7910 C   0  0  0  0  0  0  0  0  0  0  0  0
  188.7220  178.0040  148.9010 F   0  0  0  0  0  0  0  0  0  0  0  0
  185.7990  179.0700  146.9820 C   0  0  0  0  0  3  0  0  0  0  0  0
  1  6  1  0  0  0  0
  2  4  2  0  0  0  0
  4  3  1  0  0  0  0
  4  7  1  0  0  0  0
  5  2  1  0  0  0  0
  5  1  2  0  0  0  0
  6  7  2  0  0  0  0
  6 23  1  0  0  0  0
  8  1  1  0  0  0  0
  9 12  1  0  0  0  0
  9 11  2  0  0  0  0
 10 13  2  0  0  0  0
 11 14  1  0  0  0  0
 12 10  1  0  0  0  0
 13  8  1  0  0  0  0
 14 13  1  0  0  0  0
 14 15  1  6  0  0  0
 16  9  1  0  0  0  0
 17 16  2  0  0  0  0
 18 16  1  0  0  0  0
 19 20  1  0  0  0  0
 19 24  1  0  0  0  0
 21 23  2  0  0  0  0
 21 22  1  0  0  0  0
 22 19  2  0  0  0  0
 23 25  1  0  0  0  0
 25 20  2  0  0  0  0
M  END
>  <MODEL>
4

>  <REMARK>
 VINA RESULT:      -9.6      3.101      4.819
  Name = 
  3 active torsions:
  status: ('A' for Active; 'I' for Inactive)
    1  A    between atoms: C_1  and  N_7
    2  A    between atoms: C_3  and  C_11
    3  A    between atoms: C_15  and  C_21
                            x       y       z     vdW  Elec       q    Type
                         _______ _______ _______ _____ _____    ______ ____

>  <TORSDO>
F 3

$$$$
=
 OpenBabel10232408513D

 25 27  0  0  1  0  0  0  0  0999 V2000
  188.2290  177.6300  142.5790 C   0  0  0  0  0  0  0  0  0  0  0  0
  190.0830  177.4560  141.0070 C   0  0  0  0  0  3  0  0  0  0  0  0
  192.3310  177.1510  141.8140 O   0  0  0  0  0  1  0  0  0  0  0  0
  190.9760  177.3100  142.0660 C   0  0  0  0  0  0  0  0  0  0  0  0
  188.7200  177.6100  141.2630 C   0  0  0  0  0  3  0  0  0  0  0  0
  189.1390  177.4890  143.6600 C   0  0  0  0  0  0  0  0  0  0  0  0
  190.5070  177.3250  143.3790 C   0  0  0  0  0  3  0  0  0  0  0  0
  186.8170  177.7330  142.8290 N   0  0  0  0  0  2  0  0  0  0  0  0
  183.7600  179.2400  140.3030 C   0  0  0  0  0  0  0  0  0  0  0  0
  186.1210  178.8650  140.8530 N   0  0  0  0  0  0  0  0  0  0  0  0
  183.4110  178.6760  141.4170 N   0  0  0  0  0  0  0  0  0  0  0  0
  185.1440  179.3920  139.9960 N   0  0  0  0  0  2  0  0  0  0  0  0
  185.8040  178.2860  141.9740 C   0  0  0  0  0  0  0  0  0  0  0  0
  184.3660  178.2250  142.4340 C   0  0  1  0  0  3  0  0  0  0  0  0
  184.1880  179.0530  143.6910 C   0  0  0  0  0  1  0  0  0  0  0  0
  182.7420  179.6980  139.3490 C   0  0  0  0  0  0  0  0  0  0  0  0
  181.7670  178.9570  139.0520 O   0  0  0  0  0  1  0  0  0  0  0  0
  182.8490  180.9550  138.7680 O   0  0  0  0  0  0  0  0  0  0  0  0
  187.9490  177.5920  147.7940 C   0  0  0  0  0  0  0  0  0  0  0  0
  187.0320  177.9400  146.7990 C   0  0  0  0  0  3  0  0  0  0  0  0
  189.6250  177.1740  146.0990 C   0  0  0  0  0  3  0  0  0  0  0  0
  189.2460  177.2110  147.4440 C   0  0  0  0  0  3  0  0  0  0  0  0
  188.7110  177.5110  145.0860 C   0  0  0  0  0  0  0  0  0  0  0  0
  187.5800  177.6280  149.0960 F   0  0  0  0  0  0  0  0  0  0  0  0
  187.4130  177.9020  145.4550 C   0  0  0  0  0  3  0  0  0  0  0  0
  1  8  1  0  0  0  0
  1  6  1  0  0  0  0
  2  5  1  0  0  0  0
  2  4  2  0  0  0  0
  3  4  1  0  0  0  0
  4  7  1  0  0  0  0
  5  1  2  0  0  0  0
  6 23  1  0  0  0  0
  7  6  2  0  0  0  0
  9 11  2  0  0  0  0
 10 13  2  0  0  0  0
 11 14  1  0  0  0  0
 12  9  1  0  0  0  0
 12 10  1  0  0  0  0
 13 14  1  0  0  0  0
 13  8  1  0  0  0  0
 14 15  1  1  0  0  0
 16  9  1  0  0  0  0
 17 16  1  0  0  0  0
 18 16  2  0  0  0  0
 19 24  1  0  0  0  0
 20 19  2  0  0  0  0
 21 22  2  0  0  0  0
 22 19  1  0  0  0  0
 23 25  2  0  0  0  0
 23 21  1  0  0  0  0
 25 20  1  0  0  0  0
M  END
>  <MODEL>
5

>  <REMARK>
 VINA RESULT:      -9.4      4.037      6.400
  Name = 
  3 active torsions:
  status: ('A' for Active; 'I' for Inactive)
    1  A    between atoms: C_1  and  N_7
    2  A    between atoms: C_3  and  C_11
    3  A    between atoms: C_15  and  C_21
                            x       y       z     vdW  Elec       q    Type
                         _______ _______ _______ _____ _____    ______ ____

>  <TORSDO>
F 3

$$$$
=
 OpenBabel10232408513D

 25 27  0  0  1  0  0  0  0  0999 V2000
  186.9510  178.2010  142.5920 C   0  0  0  0  0  0  0  0  0  0  0  0
  184.9530  178.5450  141.2400 C   0  0  0  0  0  3  0  0  0  0  0  0
  182.7970  178.7430  142.2950 O   0  0  0  0  0  1  0  0  0  0  0  0
  184.1690  178.5630  142.3910 C   0  0  0  0  0  0  0  0  0  0  0  0
  186.3330  178.3700  141.3420 C   0  0  0  0  0  3  0  0  0  0  0  0
  186.1530  178.2110  143.7660 C   0  0  0  0  0  0  0  0  0  0  0  0
  184.7650  178.3990  143.6410 C   0  0  0  0  0  3  0  0  0  0  0  0
  188.3790  178.0770  142.6880 N   0  0  0  0  0  2  0  0  0  0  0  0
  191.1760  176.9970  139.6860 C   0  0  0  0  0  0  0  0  0  0  0  0
  188.8800  177.2600  140.5080 N   0  0  0  0  0  0  0  0  0  0  0  0
  191.6320  177.3920  140.8340 N   0  0  0  0  0  0  0  0  0  0  0  0
  189.7680  176.8770  139.4920 N   0  0  0  0  0  2  0  0  0  0  0  0
  189.3040  177.6690  141.6670 C   0  0  0  0  0  0  0  0  0  0  0  0
  190.7800  177.6770  141.9920 C   0  0  1  0  0  3  0  0  0  0  0  0
  191.0740  176.6720  143.0890 C   0  0  0  0  0  1  0  0  0  0  0  0
  192.0960  176.6970  138.5820 C   0  0  0  0  0  0  0  0  0  0  0  0
  191.6500  176.3430  137.4580 O   0  0  0  0  0  0  0  0  0  0  0  0
  193.4680  176.8040  138.7720 O   0  0  0  0  0  1  0  0  0  0  0  0
  187.8420  177.7070  147.6910 C   0  0  0  0  0  0  0  0  0  0  0  0
  186.6530  178.4240  147.5340 C   0  0  0  0  0  3  0  0  0  0  0  0
  187.9200  177.3190  145.3040 C   0  0  0  0  0  3  0  0  0  0  0  0
  188.4770  177.1570  146.5760 C   0  0  0  0  0  3  0  0  0  0  0  0
  186.7180  178.0270  145.1310 C   0  0  0  0  0  0  0  0  0  0  0  0
  188.3800  177.5500  148.9240 F   0  0  0  0  0  0  0  0  0  0  0  0
  186.0980  178.5840  146.2620 C   0  0  0  0  0  3  0  0  0  0  0  0
  1  8  1  0  0  0  0
  1  6  1  0  0  0  0
  2  5  1  0  0  0  0
  2  4  2  0  0  0  0
  3  4  1  0  0  0  0
  4  7  1  0  0  0  0
  5  1  2  0  0  0  0
  6 23  1  0  0  0  0
  7  6  2  0  0  0  0
  9 11  2  0  0  0  0
 10 13  2  0  0  0  0
 11 14  1  0  0  0  0
 12  9  1  0  0  0  0
 12 10  1  0  0  0  0
 13 14  1  0  0  0  0
 13  8  1  0  0  0  0
 14 15  1  1  0  0  0
 16 18  1  0  0  0  0
 16  9  1  0  0  0  0
 17 16  2  0  0  0  0
 19 24  1  0  0  0  0
 20 19  1  0  0  0  0
 21 22  1  0  0  0  0
 22 19  2  0  0  0  0
 23 21  2  0  0  0  0
 23 25  1  0  0  0  0
 25 20  2  0  0  0  0
M  END
>  <MODEL>
6

>  <REMARK>
 VINA RESULT:      -9.4      2.720      4.389
  Name = 
  3 active torsions:
  status: ('A' for Active; 'I' for Inactive)
    1  A    between atoms: C_1  and  N_7
    2  A    between atoms: C_3  and  C_11
    3  A    between atoms: C_15  and  C_21
                            x       y       z     vdW  Elec       q    Type
                         _______ _______ _______ _____ _____    ______ ____

>  <TORSDO>
F 3

$$$$
=
 OpenBabel10232408513D

 25 27  0  0  1  0  0  0  0  0999 V2000
  188.9360  177.5660  144.1110 C   0  0  0  0  0  0  0  0  0  0  0  0
  190.5580  177.3120  145.9110 C   0  0  0  0  0  3  0  0  0  0  0  0
  189.8630  177.5350  148.2070 O   0  0  0  0  0  1  0  0  0  0  0  0
  189.5580  177.5460  146.8540 C   0  0  0  0  0  0  0  0  0  0  0  0
  190.2460  177.3180  144.5520 C   0  0  0  0  0  3  0  0  0  0  0  0
  187.9170  177.8130  145.0690 C   0  0  0  0  0  0  0  0  0  0  0  0
  188.2510  177.7920  146.4350 C   0  0  0  0  0  3  0  0  0  0  0  0
  188.6160  177.5150  142.7100 N   0  0  0  0  0  2  0  0  0  0  0  0
  191.2000  176.9150  139.3990 C   0  0  0  0  0  0  0  0  0  0  0  0
  190.8020  177.3260  141.7850 N   0  0  0  0  0  0  0  0  0  0  0  0
  189.9220  176.9450  139.1810 N   0  0  0  0  0  0  0  0  0  0  0  0
  191.6940  177.1470  140.7170 N   0  0  0  0  0  2  0  0  0  0  0  0
  189.5150  177.3520  141.6020 C   0  0  0  0  0  0  0  0  0  0  0  0
  188.9290  177.2650  140.2110 C   0  0  1  0  0  3  0  0  0  0  0  0
  188.2410  178.5680  139.8560 C   0  0  0  0  0  1  0  0  0  0  0  0
  192.1360  176.6220  138.3070 C   0  0  0  0  0  0  0  0  0  0  0  0
  191.7200  176.1210  137.2280 O   0  0  0  0  0  0  0  0  0  0  0  0
  193.4890  176.8960  138.4580 O   0  0  0  0  0  1  0  0  0  0  0  0
  183.8300  178.5770  143.9630 C   0  0  0  0  0  0  0  0  0  0  0  0
  184.2410  178.7750  145.2840 C   0  0  0  0  0  3  0  0  0  0  0  0
  186.0740  177.8930  143.3720 C   0  0  0  0  0  3  0  0  0  0  0  0
  184.7460  178.1340  143.0080 C   0  0  0  0  0  3  0  0  0  0  0  0
  186.5050  178.0980  144.6930 C   0  0  0  0  0  0  0  0  0  0  0  0
  182.5430  178.8120  143.6120 F   0  0  0  0  0  0  0  0  0  0  0  0
  185.5680  178.5340  145.6460 C   0  0  0  0  0  3  0  0  0  0  0  0
  1  5  2  0  0  0  0
  1  6  1  0  0  0  0
  2  4  2  0  0  0  0
  4  3  1  0  0  0  0
  5  2  1  0  0  0  0
  6  7  2  0  0  0  0
  7  4  1  0  0  0  0
  8  1  1  0  0  0  0
  9 12  1  0  0  0  0
 11  9  2  0  0  0  0
 11 14  1  0  0  0  0
 12 10  1  0  0  0  0
 13 10  2  0  0  0  0
 13  8  1  0  0  0  0
 14 15  1  6  0  0  0
 14 13  1  0  0  0  0
 16 18  1  0  0  0  0
 16  9  1  0  0  0  0
 17 16  2  0  0  0  0
 19 20  1  0  0  0  0
 20 25  2  0  0  0  0
 21 23  2  0  0  0  0
 22 21  1  0  0  0  0
 22 19  2  0  0  0  0
 23  6  1  0  0  0  0
 23 25  1  0  0  0  0
 24 19  1  0  0  0  0
M  END
>  <MODEL>
7

>  <REMARK>
 VINA RESULT:      -9.4      0.943      1.550
  Name = 
  3 active torsions:
  status: ('A' for Active; 'I' for Inactive)
    1  A    between atoms: C_1  and  N_7
    2  A    between atoms: C_3  and  C_11
    3  A    between atoms: C_15  and  C_21
                            x       y       z     vdW  Elec       q    Type
                         _______ _______ _______ _____ _____    ______ ____

>  <TORSDO>
F 3

$$$$
=
 OpenBabel10232408513D

 25 27  0  0  1  0  0  0  0  0999 V2000
  186.8070  178.6010  141.8690 C   0  0  0  0  0  0  0  0  0  0  0  0
  184.5270  179.1430  142.5370 C   0  0  0  0  0  3  0  0  0  0  0  0
  183.7340  178.5500  144.7320 O   0  0  0  0  0  1  0  0  0  0  0  0
  184.7480  178.5670  143.7850 C   0  0  0  0  0  0  0  0  0  0  0  0
  185.5500  179.1630  141.5900 C   0  0  0  0  0  3  0  0  0  0  0  0
  187.0320  178.0050  143.1390 C   0  0  0  0  0  0  0  0  0  0  0  0
  185.9890  178.0050  144.0820 C   0  0  0  0  0  3  0  0  0  0  0  0
  187.8710  178.6770  140.9060 N   0  0  0  0  0  2  0  0  0  0  0  0
  187.7320  178.0310  136.7150 C   0  0  0  0  0  0  0  0  0  0  0  0
  186.7200  177.9610  138.9490 N   0  0  0  0  0  0  0  0  0  0  0  0
  188.8370  178.4740  137.2300 N   0  0  0  0  0  0  0  0  0  0  0  0
  186.6350  177.7160  137.5700 N   0  0  0  0  0  2  0  0  0  0  0  0
  187.8090  178.4130  139.4950 C   0  0  0  0  0  0  0  0  0  0  0  0
  189.0580  178.6240  138.6720 C   0  0  1  0  0  3  0  0  0  0  0  0
  190.1410  177.6590  139.1150 C   0  0  0  0  0  1  0  0  0  0  0  0
  187.5980  177.8740  135.2620 C   0  0  0  0  0  0  0  0  0  0  0  0
  188.6020  177.5900  134.5550 O   0  0  0  0  0  0  0  0  0  0  0  0
  186.3590  178.0390  134.6560 O   0  0  0  0  0  1  0  0  0  0  0  0
  190.7950  176.1990  144.1810 C   0  0  0  0  0  0  0  0  0  0  0  0
  190.2580  177.2010  144.9930 C   0  0  0  0  0  3  0  0  0  0  0  0
  188.8850  176.3740  142.7060 C   0  0  0  0  0  3  0  0  0  0  0  0
  190.1110  175.7880  143.0360 C   0  0  0  0  0  3  0  0  0  0  0  0
  188.3260  177.3750  143.5190 C   0  0  0  0  0  0  0  0  0  0  0  0
  191.9820  175.6320  144.5020 F   0  0  0  0  0  0  0  0  0  0  0  0
  189.0330  177.7850  144.6620 C   0  0  0  0  0  3  0  0  0  0  0  0
  1  6  1  0  0  0  0
  2  4  2  0  0  0  0
  4  7  1  0  0  0  0
  4  3  1  0  0  0  0
  5  1  2  0  0  0  0
  5  2  1  0  0  0  0
  6 23  1  0  0  0  0
  6  7  2  0  0  0  0
  8  1  1  0  0  0  0
  9 11  2  0  0  0  0
  9 12  1  0  0  0  0
 10 13  2  0  0  0  0
 11 14  1  0  0  0  0
 12 10  1  0  0  0  0
 13  8  1  0  0  0  0
 14 15  1  1  0  0  0
 14 13  1  0  0  0  0
 16  9  1  0  0  0  0
 17 16  2  0  0  0  0
 18 16  1  0  0  0  0
 19 24  1  0  0  0  0
 19 20  1  0  0  0  0
 21 22  1  0  0  0  0
 21 23  2  0  0  0  0
 22 19  2  0  0  0  0
 23 25  1  0  0  0  0
 25 20  2  0  0  0  0
M  END
>  <MODEL>
8

>  <REMARK>
 VINA RESULT:      -9.0      3.762      5.611
  Name = 
  3 active torsions:
  status: ('A' for Active; 'I' for Inactive)
    1  A    between atoms: C_1  and  N_7
    2  A    between atoms: C_3  and  C_11
    3  A    between atoms: C_15  and  C_21
                            x       y       z     vdW  Elec       q    Type
                         _______ _______ _______ _____ _____    ______ ____

>  <TORSDO>
F 3

$$$$
=
 OpenBabel10232408513D

 25 27  0  0  1  0  0  0  0  0999 V2000
  186.9420  178.0390  144.5840 C   0  0  0  0  0  0  0  0  0  0  0  0
  185.1790  178.4870  146.2050 C   0  0  0  0  0  3  0  0  0  0  0  0
  183.0050  179.2090  145.4610 O   0  0  0  0  0  1  0  0  0  0  0  0
  184.3060  178.8230  145.1730 C   0  0  0  0  0  0  0  0  0  0  0  0
  186.4840  178.0930  145.9110 C   0  0  0  0  0  3  0  0  0  0  0  0
  186.0570  178.3890  143.5310 C   0  0  0  0  0  0  0  0  0  0  0  0
  184.7420  178.7730  143.8490 C   0  0  0  0  0  3  0  0  0  0  0  0
  188.2720  177.5790  144.2900 N   0  0  0  0  0  2  0  0  0  0  0  0
  191.4330  176.6570  146.9640 C   0  0  0  0  0  0  0  0  0  0  0  0
  189.2100  177.5720  146.4780 N   0  0  0  0  0  0  0  0  0  0  0  0
  191.6000  176.3930  145.7050 N   0  0  0  0  0  0  0  0  0  0  0  0
  190.2360  177.2990  147.3950 N   0  0  0  0  0  2  0  0  0  0  0  0
  189.3410  177.3120  145.2110 C   0  0  0  0  0  0  0  0  0  0  0  0
  190.6410  176.7710  144.6620 C   0  0  1  0  0  3  0  0  0  0  0  0
  191.2800  177.7930  143.7410 C   0  0  0  0  0  1  0  0  0  0  0  0
  192.4560  176.2770  147.9460 C   0  0  0  0  0  0  0  0  0  0  0  0
  193.0510  175.1690  147.8520 O   0  0  0  0  0  0  0  0  0  0  0  0
  192.7760  177.1390  148.9870 O   0  0  0  0  0  1  0  0  0  0  0  0
  187.1900  178.4000  139.3800 C   0  0  0  0  0  0  0  0  0  0  0  0
  188.1660  178.2290  140.3660 C   0  0  0  0  0  3  0  0  0  0  0  0
  185.4900  178.5550  141.0950 C   0  0  0  0  0  3  0  0  0  0  0  0
  185.8530  178.5650  139.7450 C   0  0  0  0  0  3  0  0  0  0  0  0
  186.4580  178.3730  142.0970 C   0  0  0  0  0  0  0  0  0  0  0  0
  187.5430  178.4090  138.0730 F   0  0  0  0  0  0  0  0  0  0  0  0
  187.8010  178.2190  141.7140 C   0  0  0  0  0  3  0  0  0  0  0  0
  1  5  1  0  0  0  0
  4  3  1  0  0  0  0
  4  2  1  0  0  0  0
  5  2  2  0  0  0  0
  6  7  1  0  0  0  0
  6  1  2  0  0  0  0
  7  4  2  0  0  0  0
  8  1  1  0  0  0  0
  8 13  1  0  0  0  0
  9 12  1  0  0  0  0
  9 16  1  0  0  0  0
 10 12  1  0  0  0  0
 11  9  2  0  0  0  0
 13 10  2  0  0  0  0
 14 15  1  6  0  0  0
 14 13  1  0  0  0  0
 14 11  1  0  0  0  0
 16 18  1  0  0  0  0
 17 16  2  0  0  0  0
 19 22  2  0  0  0  0
 19 20  1  0  0  0  0
 20 25  2  0  0  0  0
 21 23  2  0  0  0  0
 22 21  1  0  0  0  0
 23  6  1  0  0  0  0
 24 19  1  0  0  0  0
 25 23  1  0  0  0  0
M  END
>  <MODEL>
9

>  <REMARK>
 VINA RESULT:      -8.8      3.674      5.363
  Name = 
  3 active torsions:
  status: ('A' for Active; 'I' for Inactive)
    1  A    between atoms: C_1  and  N_7
    2  A    between atoms: C_3  and  C_11
    3  A    between atoms: C_15  and  C_21
                            x       y       z     vdW  Elec       q    Type
                         _______ _______ _______ _____ _____    ______ ____

>  <TORSDO>
F 3

$$$$
