=
 OpenBabel10232408233D

 30 33  0  0  1  0  0  0  0  0999 V2000
  188.5280  177.3430  138.8580 C   0  0  0  0  0  2  0  0  0  0  0  0
  188.4280  177.5520  141.3090 N   0  0  0  0  0  0  0  0  0  0  0  0
  189.1870  177.3410  140.2030 C   0  0  0  0  0  0  0  0  0  0  0  0
  191.4420  176.8320  139.1820 C   0  0  0  0  0  2  0  0  0  0  0  0
  191.1050  177.1500  141.6000 N   0  0  0  0  0  0  0  0  0  0  0  0
  191.0570  175.5640  138.5760 N   0  0  0  0  0  2  0  0  0  0  0  0
  190.3590  177.3880  142.7120 C   0  0  0  0  0  0  0  0  0  0  0  0
  190.0570  175.8370  137.5480 C   0  0  2  0  0  3  0  0  0  0  0  0
  188.9600  177.5740  142.5620 C   0  0  0  0  0  0  0  0  0  0  0  0
  190.5640  177.1230  140.3550 C   0  0  0  0  0  0  0  0  0  0  0  0
  188.6670  175.9950  138.1630 C   0  0  0  0  0  2  0  0  0  0  0  0
  188.0340  177.7130  143.7090 C   0  0  0  0  0  0  0  0  0  0  0  0
  187.6390  177.5280  146.0910 C   0  0  0  0  0  3  0  0  0  0  0  0
  185.8410  178.1490  144.6720 C   0  0  0  0  0  0  0  0  0  0  0  0
  186.1380  178.3620  142.2800 C   0  0  0  0  0  3  0  0  0  0  0  0
  186.3400  177.8800  145.9070 N   0  0  0  0  0  0  0  0  0  0  0  0
  184.0010  178.7810  143.3100 C   0  0  0  0  0  3  0  0  0  0  0  0
  188.5030  177.4350  144.9990 C   0  0  0  0  0  3  0  0  0  0  0  0
  184.5350  178.4990  144.5290 N   0  0  0  0  0  0  0  0  0  0  0  0
  186.6810  178.0660  143.5370 C   0  0  0  0  0  0  0  0  0  0  0  0
  184.7940  178.7180  142.1630 C   0  0  0  0  0  3  0  0  0  0  0  0
  191.0670  177.4640  144.0110 C   0  0  0  0  0  0  0  0  0  0  0  0
  191.2950  176.3370  144.7060 C   0  0  0  0  0  3  0  0  0  0  0  0
  191.3960  178.7700  144.5120 N   0  0  0  0  0  2  0  0  0  0  0  0
  191.0530  179.8290  143.9480 O   0  0  0  0  0  1  0  0  0  0  0  0
  191.9230  176.2550  146.0570 C   0  0  0  0  0  2  0  0  0  0  0  0
  190.9810  177.2210  147.8030 C   0  0  0  0  0  1  0  0  0  0  0  0
  190.9380  176.0640  147.0270 O   0  0  0  0  0  0  0  0  0  0  0  0
  190.0550  174.7190  136.5160 C   0  0  0  0  0  2  0  0  0  0  0  0
  190.1120  173.4690  137.1380 O   0  0  0  0  0  1  0  0  0  0  0  0
  1  3  1  0  0  0  0
  2  9  1  0  0  0  0
  3 10  1  0  0  0  0
  3  2  2  0  0  0  0
  4 10  1  0  0  0  0
  5  7  1  0  0  0  0
  6  4  1  0  0  0  0
  7 22  1  0  0  0  0
  8 29  1  6  0  0  0
  8 11  1  0  0  0  0
  8  6  1  0  0  0  0
  9  7  2  0  0  0  0
  9 12  1  0  0  0  0
 10  5  2  0  0  0  0
 11  1  1  0  0  0  0
 12 18  1  0  0  0  0
 14 16  2  0  0  0  0
 15 20  1  0  0  0  0
 16 13  1  0  0  0  0
 17 19  2  0  0  0  0
 18 13  2  0  0  0  0
 19 14  1  0  0  0  0
 20 12  2  0  0  0  0
 20 14  1  0  0  0  0
 21 15  2  0  0  0  0
 21 17  1  0  0  0  0
 22 24  1  0  0  0  0
 22 23  2  0  0  0  0
 23 26  1  0  0  0  0
 25 24  1  0  0  0  0
 26 28  1  0  0  0  0
 28 27  1  0  0  0  0
 29 30  1  0  0  0  0
M  END
>  <MODEL>
1

>  <REMARK>
 VINA RESULT:      -8.4      0.000      0.000
  Name = 
  6 active torsions:
  status: ('A' for Active; 'I' for Inactive)
    1  A    between atoms: C_1  and  C_23
    2  A    between atoms: C_2  and  N_13
    3  A    between atoms: C_2  and  C_19
    4  A    between atoms: O_9  and  C_27
    5  A    between atoms: C_12  and  C_27
    6  A    between atoms: C_14  and  CA_21
                            x       y       z     vdW  Elec       q    Type
                         _______ _______ _______ _____ _____    ______ ____

>  <TORSDO>
F 6

$$$$
=
 OpenBabel10232408233D

 30 33  0  0  1  0  0  0  0  0999 V2000
  184.4690  179.4890  142.8270 C   0  0  0  0  0  2  0  0  0  0  0  0
  186.7430  178.7180  142.2850 N   0  0  0  0  0  0  0  0  0  0  0  0
  185.5060  179.0530  141.8380 C   0  0  0  0  0  0  0  0  0  0  0  0
  183.8780  179.2820  139.9170 C   0  0  0  0  0  2  0  0  0  0  0  0
  186.2220  178.5910  139.6150 N   0  0  0  0  0  0  0  0  0  0  0  0
  182.9140  178.3090  140.4130 N   0  0  0  0  0  2  0  0  0  0  0  0
  187.4730  178.2780  140.0490 C   0  0  0  0  0  0  0  0  0  0  0  0
  182.3470  178.8240  141.6560 C   0  0  2  0  0  3  0  0  0  0  0  0
  187.7370  178.3230  141.4430 C   0  0  0  0  0  0  0  0  0  0  0  0
  185.2350  178.9760  140.4640 C   0  0  0  0  0  0  0  0  0  0  0  0
  183.2730  178.5460  142.8390 C   0  0  0  0  0  2  0  0  0  0  0  0
  189.0200  177.8830  142.0380 C   0  0  0  0  0  0  0  0  0  0  0  0
  191.3410  177.2590  141.7380 C   0  0  0  0  0  3  0  0  0  0  0  0
  190.3890  177.1410  143.9090 C   0  0  0  0  0  0  0  0  0  0  0  0
  188.0800  177.7440  144.3090 C   0  0  0  0  0  3  0  0  0  0  0  0
  191.4440  176.9900  143.0660 N   0  0  0  0  0  0  0  0  0  0  0  0
  189.5020  177.0050  146.1070 C   0  0  0  0  0  3  0  0  0  0  0  0
  190.1310  177.7040  141.2030 C   0  0  0  0  0  3  0  0  0  0  0  0
  190.5330  176.8620  145.2310 N   0  0  0  0  0  0  0  0  0  0  0  0
  189.1440  177.5880  143.4100 C   0  0  0  0  0  0  0  0  0  0  0  0
  188.2570  177.4500  145.6610 C   0  0  0  0  0  3  0  0  0  0  0  0
  188.4890  177.9380  139.0270 C   0  0  0  0  0  0  0  0  0  0  0  0
  188.7160  176.6490  138.7240 C   0  0  0  0  0  3  0  0  0  0  0  0
  189.2590  179.0180  138.4700 N   0  0  0  0  0  2  0  0  0  0  0  0
  188.9450  179.6150  137.4200 O   0  0  0  0  0  1  0  0  0  0  0  0
  189.7540  176.1430  137.7780 C   0  0  0  0  0  2  0  0  0  0  0  0
  191.9300  176.2160  138.1330 C   0  0  0  0  0  1  0  0  0  0  0  0
  190.7780  175.5170  138.4900 O   0  0  0  0  0  0  0  0  0  0  0  0
  180.9780  178.2030  141.8980 C   0  0  0  0  0  2  0  0  0  0  0  0
  180.4410  177.7040  140.7080 O   0  0  0  0  0  1  0  0  0  0  0  0
  1 11  1  0  0  0  0
  3  2  1  0  0  0  0
  3  1  1  0  0  0  0
  4  6  1  0  0  0  0
  4 10  1  0  0  0  0
  5  7  2  0  0  0  0
  5 10  1  0  0  0  0
  6  8  1  0  0  0  0
  7  9  1  0  0  0  0
  8 29  1  1  0  0  0
  8 11  1  0  0  0  0
  9 12  1  0  0  0  0
  9  2  2  0  0  0  0
 10  3  2  0  0  0  0
 12 20  2  0  0  0  0
 13 16  1  0  0  0  0
 14 19  1  0  0  0  0
 15 21  2  0  0  0  0
 16 14  2  0  0  0  0
 18 13  2  0  0  0  0
 18 12  1  0  0  0  0
 19 17  2  0  0  0  0
 20 14  1  0  0  0  0
 20 15  1  0  0  0  0
 21 17  1  0  0  0  0
 22  7  1  0  0  0  0
 23 22  2  0  0  0  0
 24 22  1  0  0  0  0
 25 24  1  0  0  0  0
 26 28  1  0  0  0  0
 26 23  1  0  0  0  0
 27 28  1  0  0  0  0
 30 29  1  0  0  0  0
M  END
>  <MODEL>
2

>  <REMARK>
 VINA RESULT:      -8.0      2.989      6.607
  Name = 
  6 active torsions:
  status: ('A' for Active; 'I' for Inactive)
    1  A    between atoms: C_1  and  C_23
    2  A    between atoms: C_2  and  N_13
    3  A    between atoms: C_2  and  C_19
    4  A    between atoms: O_9  and  C_27
    5  A    between atoms: C_12  and  C_27
    6  A    between atoms: C_14  and  CA_21
                            x       y       z     vdW  Elec       q    Type
                         _______ _______ _______ _____ _____    ______ ____

>  <TORSDO>
F 6

$$$$
=
 OpenBabel10232408233D

 30 33  0  0  1  0  0  0  0  0999 V2000
  185.4650  178.8250  139.0510 C   0  0  0  0  0  2  0  0  0  0  0  0
  186.4410  178.3750  141.2660 N   0  0  0  0  0  0  0  0  0  0  0  0
  186.6120  178.4070  139.9200 C   0  0  0  0  0  0  0  0  0  0  0  0
  188.0900  178.0090  137.9090 C   0  0  0  0  0  2  0  0  0  0  0  0
  188.8620  177.6920  140.2250 N   0  0  0  0  0  0  0  0  0  0  0  0
  187.2510  176.9860  137.2980 N   0  0  0  0  0  2  0  0  0  0  0  0
  188.7090  177.6820  141.5770 C   0  0  0  0  0  0  0  0  0  0  0  0
  185.9860  177.6060  136.9140 C   0  0  2  0  0  3  0  0  0  0  0  0
  187.4400  178.0160  142.1170 C   0  0  0  0  0  0  0  0  0  0  0  0
  187.8560  178.0440  139.3840 C   0  0  0  0  0  0  0  0  0  0  0  0
  185.0390  177.7060  138.1090 C   0  0  0  0  0  2  0  0  0  0  0  0
  187.1240  177.9170  143.5600 C   0  0  0  0  0  0  0  0  0  0  0  0
  187.7810  177.2250  145.7870 C   0  0  0  0  0  3  0  0  0  0  0  0
  185.6270  178.1680  145.4640 C   0  0  0  0  0  0  0  0  0  0  0  0
  184.8800  178.8900  143.2790 C   0  0  0  0  0  3  0  0  0  0  0  0
  186.5770  177.6290  146.2710 N   0  0  0  0  0  0  0  0  0  0  0  0
  183.4610  179.1090  145.2130 C   0  0  0  0  0  3  0  0  0  0  0  0
  188.0710  177.3580  144.4280 C   0  0  0  0  0  3  0  0  0  0  0  0
  184.4360  178.5610  145.9870 N   0  0  0  0  0  0  0  0  0  0  0  0
  185.8780  178.3200  144.0810 C   0  0  0  0  0  0  0  0  0  0  0  0
  183.6670  179.2840  143.8430 C   0  0  0  0  0  3  0  0  0  0  0  0
  189.8950  177.3490  142.3990 C   0  0  0  0  0  0  0  0  0  0  0  0
  190.4740  178.3070  143.1420 C   0  0  0  0  0  3  0  0  0  0  0  0
  190.4300  176.0190  142.2860 N   0  0  0  0  0  2  0  0  0  0  0  0
  189.9600  175.0350  142.8930 O   0  0  0  0  0  1  0  0  0  0  0  0
  191.7130  178.1500  143.9600 C   0  0  0  0  0  2  0  0  0  0  0  0
  191.6740  176.6290  145.5570 C   0  0  0  0  0  1  0  0  0  0  0  0
  191.3740  177.9660  145.3010 O   0  0  0  0  0  0  0  0  0  0  0  0
  185.3380  176.8100  135.7900 C   0  0  0  0  0  2  0  0  0  0  0  0
  185.6390  177.3710  134.5460 O   0  0  0  0  0  1  0  0  0  0  0  0
  1  3  1  0  0  0  0
  2  9  1  0  0  0  0
  3  2  2  0  0  0  0
  4 10  1  0  0  0  0
  5  7  1  0  0  0  0
  6  4  1  0  0  0  0
  7  9  2  0  0  0  0
  7 22  1  0  0  0  0
  8 29  1  6  0  0  0
  8  6  1  0  0  0  0
  8 11  1  0  0  0  0
  9 12  1  0  0  0  0
 10  3  1  0  0  0  0
 10  5  2  0  0  0  0
 11  1  1  0  0  0  0
 12 20  2  0  0  0  0
 12 18  1  0  0  0  0
 13 16  1  0  0  0  0
 14 19  1  0  0  0  0
 14 16  2  0  0  0  0
 15 21  2  0  0  0  0
 15 20  1  0  0  0  0
 17 19  2  0  0  0  0
 18 13  2  0  0  0  0
 20 14  1  0  0  0  0
 21 17  1  0  0  0  0
 22 23  2  0  0  0  0
 23 26  1  0  0  0  0
 24 22  1  0  0  0  0
 24 25  1  0  0  0  0
 26 28  1  0  0  0  0
 28 27  1  0  0  0  0
 30 29  1  0  0  0  0
M  END
>  <MODEL>
3

>  <REMARK>
 VINA RESULT:      -7.9      2.360      3.013
  Name = 
  6 active torsions:
  status: ('A' for Active; 'I' for Inactive)
    1  A    between atoms: C_1  and  C_23
    2  A    between atoms: C_2  and  N_13
    3  A    between atoms: C_2  and  C_19
    4  A    between atoms: O_9  and  C_27
    5  A    between atoms: C_12  and  C_27
    6  A    between atoms: C_14  and  CA_21
                            x       y       z     vdW  Elec       q    Type
                         _______ _______ _______ _____ _____    ______ ____

>  <TORSDO>
F 6

$$$$
=
 OpenBabel10232408233D

 30 33  0  0  1  0  0  0  0  0999 V2000
  187.9040  176.6630  143.3000 C   0  0  0  0  0  2  0  0  0  0  0  0
  188.6470  177.1020  140.9950 N   0  0  0  0  0  0  0  0  0  0  0  0
  188.9820  176.7600  142.2650 C   0  0  0  0  0  0  0  0  0  0  0  0
  190.7660  176.1820  143.9600 C   0  0  0  0  0  2  0  0  0  0  0  0
  191.2570  176.5990  141.5830 N   0  0  0  0  0  0  0  0  0  0  0  0
  190.5200  177.3180  144.8390 N   0  0  0  0  0  2  0  0  0  0  0  0
  190.9290  176.9150  140.3010 C   0  0  0  0  0  0  0  0  0  0  0  0
  189.1820  177.1720  145.4050 C   0  0  2  0  0  3  0  0  0  0  0  0
  189.5710  177.2000  140.0010 C   0  0  0  0  0  0  0  0  0  0  0  0
  190.3280  176.5120  142.5690 C   0  0  0  0  0  0  0  0  0  0  0  0
  188.1160  177.6660  144.4270 C   0  0  0  0  0  2  0  0  0  0  0  0
  189.1190  177.6760  138.6740 C   0  0  0  0  0  0  0  0  0  0  0  0
  188.7590  179.5170  137.1410 C   0  0  0  0  0  3  0  0  0  0  0  0
  188.1090  177.3310  136.4860 C   0  0  0  0  0  0  0  0  0  0  0  0
  188.4280  175.4280  137.9460 C   0  0  0  0  0  3  0  0  0  0  0  0
  188.2240  178.6610  136.2320 N   0  0  0  0  0  0  0  0  0  0  0  0
  187.4400  175.1690  135.7650 C   0  0  0  0  0  3  0  0  0  0  0  0
  189.2100  179.0420  138.3740 C   0  0  0  0  0  3  0  0  0  0  0  0
  187.5680  176.5060  135.5500 N   0  0  0  0  0  0  0  0  0  0  0  0
  188.5510  176.8060  137.7220 C   0  0  0  0  0  0  0  0  0  0  0  0
  187.8690  174.6060  136.9680 C   0  0  0  0  0  3  0  0  0  0  0  0
  192.0150  176.9120  139.2940 C   0  0  0  0  0  0  0  0  0  0  0  0
  191.8890  176.1570  138.1900 C   0  0  0  0  0  3  0  0  0  0  0  0
  193.2060  177.6560  139.5990 N   0  0  0  0  0  2  0  0  0  0  0  0
  194.2320  177.1400  140.0870 O   0  0  0  0  0  1  0  0  0  0  0  0
  192.9210  175.9880  137.1250 C   0  0  0  0  0  2  0  0  0  0  0  0
  194.4140  174.4840  137.7370 C   0  0  0  0  0  1  0  0  0  0  0  0
  193.2460  174.6380  136.9920 O   0  0  0  0  0  0  0  0  0  0  0  0
  189.0890  177.9340  146.7190 C   0  0  0  0  0  2  0  0  0  0  0  0
  189.7350  177.2390  147.7440 O   0  0  0  0  0  1  0  0  0  0  0  0
  1 11  1  0  0  0  0
  2  3  1  0  0  0  0
  3 10  2  0  0  0  0
  3  1  1  0  0  0  0
  4  6  1  0  0  0  0
  5 10  1  0  0  0  0
  6  8  1  0  0  0  0
  7  5  2  0  0  0  0
  8 29  1  1  0  0  0
  9  7  1  0  0  0  0
  9  2  2  0  0  0  0
 10  4  1  0  0  0  0
 11  8  1  0  0  0  0
 12  9  1  0  0  0  0
 13 18  2  0  0  0  0
 14 20  1  0  0  0  0
 16 14  2  0  0  0  0
 16 13  1  0  0  0  0
 17 21  1  0  0  0  0
 18 12  1  0  0  0  0
 19 17  2  0  0  0  0
 19 14  1  0  0  0  0
 20 15  1  0  0  0  0
 20 12  2  0  0  0  0
 21 15  2  0  0  0  0
 22 24  1  0  0  0  0
 22  7  1  0  0  0  0
 23 22  2  0  0  0  0
 24 25  1  0  0  0  0
 26 23  1  0  0  0  0
 28 26  1  0  0  0  0
 28 27  1  0  0  0  0
 29 30  1  0  0  0  0
M  END
>  <MODEL>
4

>  <REMARK>
 VINA RESULT:      -7.8      2.450      7.133
  Name = 
  6 active torsions:
  status: ('A' for Active; 'I' for Inactive)
    1  A    between atoms: C_1  and  C_23
    2  A    between atoms: C_2  and  N_13
    3  A    between atoms: C_2  and  C_19
    4  A    between atoms: O_9  and  C_27
    5  A    between atoms: C_12  and  C_27
    6  A    between atoms: C_14  and  CA_21
                            x       y       z     vdW  Elec       q    Type
                         _______ _______ _______ _____ _____    ______ ____

>  <TORSDO>
F 6

$$$$
=
 OpenBabel10232408233D

 30 33  0  0  1  0  0  0  0  0999 V2000
  190.6330  176.8550  141.9810 C   0  0  0  0  0  2  0  0  0  0  0  0
  190.4590  176.1200  139.6380 N   0  0  0  0  0  0  0  0  0  0  0  0
  189.9900  176.9190  140.6300 C   0  0  0  0  0  0  0  0  0  0  0  0
  188.3170  178.6400  141.4240 C   0  0  0  0  0  2  0  0  0  0  0  0
  188.3830  177.8000  139.1110 N   0  0  0  0  0  0  0  0  0  0  0  0
  187.7170  177.8080  142.4600 N   0  0  0  0  0  2  0  0  0  0  0  0
  188.8640  177.0240  138.1020 C   0  0  0  0  0  0  0  0  0  0  0  0
  188.7330  177.5450  143.4760 C   0  0  2  0  0  3  0  0  0  0  0  0
  189.9310  176.1320  138.3840 C   0  0  0  0  0  0  0  0  0  0  0  0
  188.9130  177.7750  140.3610 C   0  0  0  0  0  0  0  0  0  0  0  0
  189.6490  176.3990  143.0510 C   0  0  0  0  0  2  0  0  0  0  0  0
  190.4480  175.1530  137.4010 C   0  0  0  0  0  0  0  0  0  0  0  0
  190.1290  173.1070  136.1440 C   0  0  0  0  0  3  0  0  0  0  0  0
  192.1880  174.2700  135.9450 C   0  0  0  0  0  0  0  0  0  0  0  0
  192.6010  176.3220  137.1600 C   0  0  0  0  0  3  0  0  0  0  0  0
  191.3760  173.2320  135.6180 N   0  0  0  0  0  0  0  0  0  0  0  0
  194.2690  175.3860  135.6950 C   0  0  0  0  0  3  0  0  0  0  0  0
  189.6480  174.0600  137.0440 C   0  0  0  0  0  3  0  0  0  0  0  0
  193.4290  174.3590  135.3970 N   0  0  0  0  0  0  0  0  0  0  0  0
  191.7420  175.2580  136.8530 C   0  0  0  0  0  0  0  0  0  0  0  0
  193.8690  176.3870  136.5820 C   0  0  0  0  0  3  0  0  0  0  0  0
  188.2540  177.1850  136.7620 C   0  0  0  0  0  0  0  0  0  0  0  0
  187.0930  176.5670  136.4860 C   0  0  0  0  0  3  0  0  0  0  0  0
  188.9950  177.9280  135.7800 N   0  0  0  0  0  2  0  0  0  0  0  0
  189.7110  177.3930  134.9090 O   0  0  0  0  0  1  0  0  0  0  0  0
  186.3950  176.5680  135.1670 C   0  0  0  0  0  2  0  0  0  0  0  0
  186.5180  174.3770  134.9410 C   0  0  0  0  0  1  0  0  0  0  0  0
  186.9270  175.5710  134.3490 O   0  0  0  0  0  0  0  0  0  0  0  0
  188.0650  177.2240  144.8050 C   0  0  0  0  0  2  0  0  0  0  0  0
  188.9100  177.5370  145.8740 O   0  0  0  0  0  1  0  0  0  0  0  0
  1 11  1  0  0  0  0
  2  3  1  0  0  0  0
  3  1  1  0  0  0  0
  4  6  1  0  0  0  0
  5 10  1  0  0  0  0
  6  8  1  0  0  0  0
  7  9  1  0  0  0  0
  7  5  2  0  0  0  0
  8 29  1  1  0  0  0
  9  2  2  0  0  0  0
 10  3  2  0  0  0  0
 10  4  1  0  0  0  0
 11  8  1  0  0  0  0
 12  9  1  0  0  0  0
 13 18  2  0  0  0  0
 14 20  1  0  0  0  0
 16 14  2  0  0  0  0
 16 13  1  0  0  0  0
 17 21  1  0  0  0  0
 18 12  1  0  0  0  0
 19 17  2  0  0  0  0
 19 14  1  0  0  0  0
 20 15  1  0  0  0  0
 20 12  2  0  0  0  0
 21 15  2  0  0  0  0
 22  7  1  0  0  0  0
 23 22  2  0  0  0  0
 24 22  1  0  0  0  0
 25 24  1  0  0  0  0
 26 23  1  0  0  0  0
 28 27  1  0  0  0  0
 28 26  1  0  0  0  0
 29 30  1  0  0  0  0
M  END
>  <MODEL>
5

>  <REMARK>
 VINA RESULT:      -7.7      2.617      8.892
  Name = 
  6 active torsions:
  status: ('A' for Active; 'I' for Inactive)
    1  A    between atoms: C_1  and  C_23
    2  A    between atoms: C_2  and  N_13
    3  A    between atoms: C_2  and  C_19
    4  A    between atoms: O_9  and  C_27
    5  A    between atoms: C_12  and  C_27
    6  A    between atoms: C_14  and  CA_21
                            x       y       z     vdW  Elec       q    Type
                         _______ _______ _______ _____ _____    ______ ____

>  <TORSDO>
F 6

$$$$
=
 OpenBabel10232408233D

 30 33  0  0  1  0  0  0  0  0999 V2000
  190.4650  176.2300  142.4270 C   0  0  0  0  0  2  0  0  0  0  0  0
  188.3960  177.1500  143.3920 N   0  0  0  0  0  0  0  0  0  0  0  0
  189.1330  176.8990  142.2800 C   0  0  0  0  0  0  0  0  0  0  0  0
  189.4140  177.0770  139.7740 C   0  0  0  0  0  2  0  0  0  0  0  0
  187.4050  177.8650  140.9590 N   0  0  0  0  0  0  0  0  0  0  0  0
  190.6200  177.8940  139.8100 N   0  0  0  0  0  2  0  0  0  0  0  0
  186.6450  178.0970  142.0650 C   0  0  0  0  0  0  0  0  0  0  0  0
  191.6890  177.1000  140.4100 C   0  0  2  0  0  3  0  0  0  0  0  0
  187.1730  177.7440  143.3340 C   0  0  0  0  0  0  0  0  0  0  0  0
  188.6270  177.2780  141.0290 C   0  0  0  0  0  0  0  0  0  0  0  0
  191.5980  177.1220  141.9350 C   0  0  0  0  0  2  0  0  0  0  0  0
  186.4930  178.0640  144.6100 C   0  0  0  0  0  0  0  0  0  0  0  0
  184.4940  178.7870  145.7720 C   0  0  0  0  0  3  0  0  0  0  0  0
  186.4730  178.3900  147.0220 C   0  0  0  0  0  0  0  0  0  0  0  0
  188.5170  177.6650  145.9520 C   0  0  0  0  0  3  0  0  0  0  0  0
  185.1640  178.7500  146.9540 N   0  0  0  0  0  0  0  0  0  0  0  0
  188.4140  178.0060  148.3340 C   0  0  0  0  0  3  0  0  0  0  0  0
  185.1460  178.4490  144.5850 C   0  0  0  0  0  3  0  0  0  0  0  0
  187.1070  178.3650  148.2240 N   0  0  0  0  0  0  0  0  0  0  0  0
  187.1720  178.0420  145.8440 C   0  0  0  0  0  0  0  0  0  0  0  0
  189.1430  177.6480  147.1980 C   0  0  0  0  0  3  0  0  0  0  0  0
  185.2990  178.6790  141.8630 C   0  0  0  0  0  0  0  0  0  0  0  0
  184.2200  178.0220  142.3220 C   0  0  0  0  0  3  0  0  0  0  0  0
  185.2060  179.8880  141.0910 N   0  0  0  0  0  2  0  0  0  0  0  0
  184.8700  179.9130  139.8900 O   0  0  0  0  0  1  0  0  0  0  0  0
  182.7990  178.4360  142.1320 C   0  0  0  0  0  2  0  0  0  0  0  0
  181.4350  178.9740  140.4840 C   0  0  0  0  0  1  0  0  0  0  0  0
  182.3400  177.9960  140.8900 O   0  0  0  0  0  0  0  0  0  0  0  0
  193.0420  177.6230  139.9520 C   0  0  0  0  0  2  0  0  0  0  0  0
  193.4950  176.9190  138.8330 O   0  0  0  0  0  1  0  0  0  0  0  0
  3  1  1  0  0  0  0
  3  2  2  0  0  0  0
  4  6  1  0  0  0  0
  4 10  1  0  0  0  0
  5 10  2  0  0  0  0
  5  7  1  0  0  0  0
  6  8  1  0  0  0  0
  7  9  2  0  0  0  0
  8 29  1  1  0  0  0
  8 11  1  0  0  0  0
  9  2  1  0  0  0  0
  9 12  1  0  0  0  0
 10  3  1  0  0  0  0
 11  1  1  0  0  0  0
 12 20  2  0  0  0  0
 13 16  1  0  0  0  0
 14 19  1  0  0  0  0
 15 21  2  0  0  0  0
 16 14  2  0  0  0  0
 18 12  1  0  0  0  0
 18 13  2  0  0  0  0
 19 17  2  0  0  0  0
 20 15  1  0  0  0  0
 20 14  1  0  0  0  0
 21 17  1  0  0  0  0
 22  7  1  0  0  0  0
 22 23  2  0  0  0  0
 24 22  1  0  0  0  0
 25 24  1  0  0  0  0
 26 23  1  0  0  0  0
 27 28  1  0  0  0  0
 28 26  1  0  0  0  0
 30 29  1  0  0  0  0
M  END
>  <MODEL>
6

>  <REMARK>
 VINA RESULT:      -7.6      2.891      5.510
  Name = 
  6 active torsions:
  status: ('A' for Active; 'I' for Inactive)
    1  A    between atoms: C_1  and  C_23
    2  A    between atoms: C_2  and  N_13
    3  A    between atoms: C_2  and  C_19
    4  A    between atoms: O_9  and  C_27
    5  A    between atoms: C_12  and  C_27
    6  A    between atoms: C_14  and  CA_21
                            x       y       z     vdW  Elec       q    Type
                         _______ _______ _______ _____ _____    ______ ____

>  <TORSDO>
F 6

$$$$
=
 OpenBabel10232408233D

 30 33  0  0  1  0  0  0  0  0999 V2000
  189.7900  176.8450  142.3180 C   0  0  0  0  0  2  0  0  0  0  0  0
  189.8910  176.2550  139.9300 N   0  0  0  0  0  0  0  0  0  0  0  0
  189.3480  177.0360  140.8990 C   0  0  0  0  0  0  0  0  0  0  0  0
  187.7170  178.8460  141.5700 C   0  0  0  0  0  2  0  0  0  0  0  0
  188.0420  178.1300  139.2370 N   0  0  0  0  0  0  0  0  0  0  0  0
  186.9160  178.0130  142.4580 N   0  0  0  0  0  2  0  0  0  0  0  0
  188.5990  177.3720  138.2540 C   0  0  0  0  0  0  0  0  0  0  0  0
  187.7560  177.6110  143.5830 C   0  0  2  0  0  3  0  0  0  0  0  0
  189.5450  176.3790  138.6190 C   0  0  0  0  0  0  0  0  0  0  0  0
  188.3880  177.9930  140.5430 C   0  0  0  0  0  0  0  0  0  0  0  0
  188.6340  176.4160  143.2120 C   0  0  0  0  0  2  0  0  0  0  0  0
  190.1200  175.4150  137.6540 C   0  0  0  0  0  0  0  0  0  0  0  0
  189.8590  173.4130  136.3150 C   0  0  0  0  0  3  0  0  0  0  0  0
  191.9530  174.5290  136.3190 C   0  0  0  0  0  0  0  0  0  0  0  0
  192.3110  176.5360  137.6230 C   0  0  0  0  0  3  0  0  0  0  0  0
  191.1470  173.5200  135.8970 N   0  0  0  0  0  0  0  0  0  0  0  0
  194.0730  175.5990  136.2730 C   0  0  0  0  0  3  0  0  0  0  0  0
  189.3270  174.3530  137.2000 C   0  0  0  0  0  3  0  0  0  0  0  0
  193.2360  174.6020  135.8770 N   0  0  0  0  0  0  0  0  0  0  0  0
  191.4570  175.5020  137.2170 C   0  0  0  0  0  0  0  0  0  0  0  0
  193.6240  176.5850  137.1540 C   0  0  0  0  0  3  0  0  0  0  0  0
  188.1980  177.6560  136.8570 C   0  0  0  0  0  0  0  0  0  0  0  0
  186.9480  177.3660  136.4580 C   0  0  0  0  0  3  0  0  0  0  0  0
  189.2090  178.1470  135.9620 N   0  0  0  0  0  2  0  0  0  0  0  0
  189.5950  177.5230  134.9520 O   0  0  0  0  0  1  0  0  0  0  0  0
  186.4160  177.5210  135.0720 C   0  0  0  0  0  2  0  0  0  0  0  0
  184.5510  177.0540  136.1540 C   0  0  0  0  0  1  0  0  0  0  0  0
  185.2110  176.8280  134.9480 O   0  0  0  0  0  0  0  0  0  0  0  0
  186.8870  177.2760  144.7860 C   0  0  0  0  0  2  0  0  0  0  0  0
  186.5500  178.4330  145.4940 O   0  0  0  0  0  1  0  0  0  0  0  0
  1 11  1  0  0  0  0
  2  3  1  0  0  0  0
  3  1  1  0  0  0  0
  4  6  1  0  0  0  0
  5 10  1  0  0  0  0
  6  8  1  0  0  0  0
  7  9  1  0  0  0  0
  7  5  2  0  0  0  0
  8 29  1  1  0  0  0
  9  2  2  0  0  0  0
 10  3  2  0  0  0  0
 10  4  1  0  0  0  0
 11  8  1  0  0  0  0
 12  9  1  0  0  0  0
 13 18  2  0  0  0  0
 14 20  1  0  0  0  0
 16 13  1  0  0  0  0
 16 14  2  0  0  0  0
 17 21  1  0  0  0  0
 18 12  1  0  0  0  0
 19 17  2  0  0  0  0
 19 14  1  0  0  0  0
 20 15  1  0  0  0  0
 20 12  2  0  0  0  0
 21 15  2  0  0  0  0
 22  7  1  0  0  0  0
 23 22  2  0  0  0  0
 24 22  1  0  0  0  0
 25 24  1  0  0  0  0
 26 23  1  0  0  0  0
 28 26  1  0  0  0  0
 28 27  1  0  0  0  0
 29 30  1  0  0  0  0
M  END
>  <MODEL>
7

>  <REMARK>
 VINA RESULT:      -7.4      2.828      8.744
  Name = 
  6 active torsions:
  status: ('A' for Active; 'I' for Inactive)
    1  A    between atoms: C_1  and  C_23
    2  A    between atoms: C_2  and  N_13
    3  A    between atoms: C_2  and  C_19
    4  A    between atoms: O_9  and  C_27
    5  A    between atoms: C_12  and  C_27
    6  A    between atoms: C_14  and  CA_21
                            x       y       z     vdW  Elec       q    Type
                         _______ _______ _______ _____ _____    ______ ____

>  <TORSDO>
F 6

$$$$
=
 OpenBabel10232408233D

 30 33  0  0  1  0  0  0  0  0999 V2000
  188.4630  178.6700  138.4780 C   0  0  0  0  0  2  0  0  0  0  0  0
  187.1490  178.7150  140.5590 N   0  0  0  0  0  0  0  0  0  0  0  0
  188.2900  178.3390  139.9280 C   0  0  0  0  0  0  0  0  0  0  0  0
  190.5260  177.1610  140.0030 C   0  0  0  0  0  2  0  0  0  0  0  0
  189.0640  177.3910  141.9710 N   0  0  0  0  0  0  0  0  0  0  0  0
  190.2050  176.1540  139.0000 N   0  0  0  0  0  2  0  0  0  0  0  0
  187.9350  177.7880  142.6190 C   0  0  0  0  0  0  0  0  0  0  0  0
  190.0040  176.8330  137.7230 C   0  0  2  0  0  3  0  0  0  0  0  0
  186.9280  178.4570  141.8770 C   0  0  0  0  0  0  0  0  0  0  0  0
  189.2710  177.6470  140.6540 C   0  0  0  0  0  0  0  0  0  0  0  0
  188.5940  177.4130  137.6270 C   0  0  0  0  0  2  0  0  0  0  0  0
  185.6100  178.8200  142.4470 C   0  0  0  0  0  0  0  0  0  0  0  0
  184.3310  179.8410  144.2320 C   0  0  0  0  0  3  0  0  0  0  0  0
  183.1760  178.7890  142.4450 C   0  0  0  0  0  0  0  0  0  0  0  0
  184.3650  177.7430  140.6160 C   0  0  0  0  0  3  0  0  0  0  0  0
  183.1750  179.4750  143.6180 N   0  0  0  0  0  0  0  0  0  0  0  0
  181.9570  177.7600  140.6860 C   0  0  0  0  0  3  0  0  0  0  0  0
  185.5630  179.5180  143.6600 C   0  0  0  0  0  3  0  0  0  0  0  0
  181.9980  178.4420  141.8620 N   0  0  0  0  0  0  0  0  0  0  0  0
  184.4010  178.4400  141.8320 C   0  0  0  0  0  0  0  0  0  0  0  0
  183.1420  177.3990  140.0410 C   0  0  0  0  0  3  0  0  0  0  0  0
  187.8480  177.5160  144.0730 C   0  0  0  0  0  0  0  0  0  0  0  0
  188.7900  178.0090  144.8940 C   0  0  0  0  0  3  0  0  0  0  0  0
  186.7950  176.6480  144.5240 N   0  0  0  0  0  2  0  0  0  0  0  0
  186.0490  176.9150  145.4880 O   0  0  0  0  0  1  0  0  0  0  0  0
  188.8840  177.7620  146.3630 C   0  0  0  0  0  2  0  0  0  0  0  0
  190.7090  176.9130  147.2660 C   0  0  0  0  0  1  0  0  0  0  0  0
  189.5410  176.5530  146.5980 O   0  0  0  0  0  0  0  0  0  0  0  0
  190.2570  175.8650  136.5760 C   0  0  0  0  0  2  0  0  0  0  0  0
  189.3340  176.0630  135.5450 O   0  0  0  0  0  1  0  0  0  0  0  0
  1  3  1  0  0  0  0
  2  9  1  0  0  0  0
  3  2  2  0  0  0  0
  3 10  1  0  0  0  0
  4 10  1  0  0  0  0
  5  7  1  0  0  0  0
  6  4  1  0  0  0  0
  7 22  1  0  0  0  0
  8 29  1  6  0  0  0
  8  6  1  0  0  0  0
  9 12  1  0  0  0  0
  9  7  2  0  0  0  0
 10  5  2  0  0  0  0
 11  8  1  0  0  0  0
 11  1  1  0  0  0  0
 12 18  1  0  0  0  0
 14 16  2  0  0  0  0
 15 20  1  0  0  0  0
 16 13  1  0  0  0  0
 17 19  2  0  0  0  0
 18 13  2  0  0  0  0
 19 14  1  0  0  0  0
 20 14  1  0  0  0  0
 20 12  2  0  0  0  0
 21 15  2  0  0  0  0
 21 17  1  0  0  0  0
 22 24  1  0  0  0  0
 22 23  2  0  0  0  0
 23 26  1  0  0  0  0
 24 25  1  0  0  0  0
 26 28  1  0  0  0  0
 28 27  1  0  0  0  0
 30 29  1  0  0  0  0
M  END
>  <MODEL>
8

>  <REMARK>
 VINA RESULT:      -7.3      1.907      2.948
  Name = 
  6 active torsions:
  status: ('A' for Active; 'I' for Inactive)
    1  A    between atoms: C_1  and  C_23
    2  A    between atoms: C_2  and  N_13
    3  A    between atoms: C_2  and  C_19
    4  A    between atoms: O_9  and  C_27
    5  A    between atoms: C_12  and  C_27
    6  A    between atoms: C_14  and  CA_21
                            x       y       z     vdW  Elec       q    Type
                         _______ _______ _______ _____ _____    ______ ____

>  <TORSDO>
F 6

$$$$
=
 OpenBabel10232408233D

 30 33  0  0  1  0  0  0  0  0999 V2000
  185.8000  178.6590  138.4940 C   0  0  0  0  0  2  0  0  0  0  0  0
  188.0090  177.9510  139.3180 N   0  0  0  0  0  0  0  0  0  0  0  0
  187.0840  177.9060  138.3260 C   0  0  0  0  0  0  0  0  0  0  0  0
  186.3570  177.0190  136.0730 C   0  0  0  0  0  2  0  0  0  0  0  0
  188.5450  176.5030  137.0750 N   0  0  0  0  0  0  0  0  0  0  0  0
  185.1760  176.3150  136.5560 N   0  0  0  0  0  2  0  0  0  0  0  0
  189.4910  176.5640  138.0520 C   0  0  0  0  0  0  0  0  0  0  0  0
  184.2330  177.3060  137.0670 C   0  0  2  0  0  3  0  0  0  0  0  0
  189.2010  177.3000  139.2300 C   0  0  0  0  0  0  0  0  0  0  0  0
  187.3560  177.1500  137.1760 C   0  0  0  0  0  0  0  0  0  0  0  0
  184.5960  177.7250  138.4910 C   0  0  0  0  0  2  0  0  0  0  0  0
  190.0990  177.3300  140.4070 C   0  0  0  0  0  0  0  0  0  0  0  0
  192.3480  177.4610  141.2990 C   0  0  0  0  0  3  0  0  0  0  0  0
  190.5300  177.1810  142.7980 C   0  0  0  0  0  0  0  0  0  0  0  0
  188.2490  177.0410  142.0040 C   0  0  0  0  0  3  0  0  0  0  0  0
  191.8600  177.3230  142.5590 N   0  0  0  0  0  0  0  0  0  0  0  0
  188.7570  176.9080  144.3550 C   0  0  0  0  0  3  0  0  0  0  0  0
  191.4790  177.4630  140.2060 C   0  0  0  0  0  3  0  0  0  0  0  0
  190.0810  177.0460  144.0740 N   0  0  0  0  0  0  0  0  0  0  0  0
  189.6140  177.1770  141.7210 C   0  0  0  0  0  0  0  0  0  0  0  0
  187.8160  176.9040  143.3230 C   0  0  0  0  0  3  0  0  0  0  0  0
  190.7790  175.8760  137.8040 C   0  0  0  0  0  0  0  0  0  0  0  0
  191.7930  176.5560  137.2420 C   0  0  0  0  0  3  0  0  0  0  0  0
  190.8480  174.4700  138.0960 N   0  0  0  0  0  2  0  0  0  0  0  0
  190.2250  173.6030  137.4510 O   0  0  0  0  0  1  0  0  0  0  0  0
  193.1190  175.9880  136.8600 C   0  0  0  0  0  2  0  0  0  0  0  0
  194.5900  174.7620  137.9550 C   0  0  0  0  0  1  0  0  0  0  0  0
  193.9790  176.0140  137.9580 O   0  0  0  0  0  0  0  0  0  0  0  0
  182.8190  176.7460  137.0250 C   0  0  0  0  0  2  0  0  0  0  0  0
  182.4490  176.4280  135.7150 O   0  0  0  0  0  1  0  0  0  0  0  0
  3  1  1  0  0  0  0
  3  2  2  0  0  0  0
  4  6  1  0  0  0  0
  4 10  1  0  0  0  0
  5 10  2  0  0  0  0
  5  7  1  0  0  0  0
  6  8  1  0  0  0  0
  7  9  2  0  0  0  0
  8 29  1  1  0  0  0
  8 11  1  0  0  0  0
  9  2  1  0  0  0  0
  9 12  1  0  0  0  0
 10  3  1  0  0  0  0
 11  1  1  0  0  0  0
 12 20  2  0  0  0  0
 13 16  1  0  0  0  0
 14 19  1  0  0  0  0
 15 21  2  0  0  0  0
 16 14  2  0  0  0  0
 18 12  1  0  0  0  0
 18 13  2  0  0  0  0
 19 17  2  0  0  0  0
 20 15  1  0  0  0  0
 20 14  1  0  0  0  0
 21 17  1  0  0  0  0
 22  7  1  0  0  0  0
 22 24  1  0  0  0  0
 23 22  2  0  0  0  0
 25 24  1  0  0  0  0
 26 23  1  0  0  0  0
 26 28  1  0  0  0  0
 27 28  1  0  0  0  0
 30 29  1  0  0  0  0
M  END
>  <MODEL>
9

>  <REMARK>
 VINA RESULT:      -7.2      3.238      6.184
  Name = 
  6 active torsions:
  status: ('A' for Active; 'I' for Inactive)
    1  A    between atoms: C_1  and  C_23
    2  A    between atoms: C_2  and  N_13
    3  A    between atoms: C_2  and  C_19
    4  A    between atoms: O_9  and  C_27
    5  A    between atoms: C_12  and  C_27
    6  A    between atoms: C_14  and  CA_21
                            x       y       z     vdW  Elec       q    Type
                         _______ _______ _______ _____ _____    ______ ____

>  <TORSDO>
F 6

$$$$
