=
 OpenBabel10232410293D

 43 45  0  0  1  0  0  0  0  0999 V2000
  183.0270  178.3650  140.1680 C   0  0  2  0  0  3  0  0  0  0  0  0
  181.7890  179.1240  140.5110 C   0  0  0  0  0  0  0  0  0  0  0  0
  181.3640  180.0350  139.7530 O   0  0  0  0  0  0  0  0  0  0  0  0
  181.0810  178.8110  141.7050 N   0  0  0  0  0  1  0  0  0  0  0  0
  182.7430  177.4050  139.1100 N   0  0  0  0  0  2  0  0  0  0  0  0
  184.9650  177.2440  138.1180 C   0  0  0  0  0  3  0  0  0  0  0  0
  183.8620  176.9770  135.5650 C   0  0  0  0  0  3  0  0  0  0  0  0
  185.8100  177.1060  137.0120 C   0  0  0  0  0  0  0  0  0  0  0  0
  183.5760  177.2490  137.9580 C   0  0  0  0  0  0  0  0  0  0  0  0
  183.0260  177.1140  136.6750 C   0  0  0  0  0  3  0  0  0  0  0  0
  185.2490  176.9740  135.7330 C   0  0  0  0  0  3  0  0  0  0  0  0
  189.5070  178.0900  137.4200 N   0  0  0  0  0  2  0  0  0  0  0  0
  190.1760  176.8540  137.7080 C   0  0  0  0  0  0  0  0  0  0  0  0
  189.5510  175.7610  137.6990 O   0  0  0  0  0  0  0  0  0  0  0  0
  188.1090  178.2400  137.1590 C   0  0  0  0  0  0  0  0  0  0  0  0
  187.6630  179.3850  136.8790 O   0  0  0  0  0  0  0  0  0  0  0  0
  187.2280  177.1070  137.2250 N   0  0  0  0  0  2  0  0  0  0  0  0
  191.8430  176.9800  139.5250 C   0  0  0  0  0  1  0  0  0  0  0  0
  191.6370  176.8510  138.0290 C   0  0  1  0  0  3  0  0  0  0  0  0
  192.3090  175.5820  137.5250 C   0  0  0  0  0  2  0  0  0  0  0  0
  194.5490  175.0980  138.1820 O   0  0  0  0  0  1  0  0  0  0  0  0
  194.3240  176.6370  136.5000 O   0  0  0  0  0  0  0  0  0  0  0  0
  193.7870  175.7620  137.4340 C   0  0  0  0  0  0  0  0  0  0  0  0
  183.5660  177.6490  141.4020 C   0  0  0  0  0  2  0  0  0  0  0  0
  186.4030  178.8780  140.2940 C   0  0  0  0  0  2  0  0  0  0  0  0
  184.9700  178.6720  146.4320 C   0  0  0  0  0  3  0  0  0  0  0  0
  187.7360  179.3790  140.8320 C   0  0  0  0  0  2  0  0  0  0  0  0
  186.6450  177.2430  145.2320 C   0  0  0  0  0  3  0  0  0  0  0  0
  188.4530  177.4100  142.1910 C   0  0  0  0  0  0  0  0  0  0  0  0
  188.6090  178.2820  141.1010 O   0  0  0  0  0  0  0  0  0  0  0  0
  186.0000  177.6350  146.3250 C   0  0  0  0  0  3  0  0  0  0  0  0
  187.4760  177.5600  143.0480 C   0  0  0  0  0  0  0  0  0  0  0  0
  184.2530  179.2210  145.4560 C   0  0  0  0  0  3  0  0  0  0  0  0
  185.1880  178.2440  143.3070 C   0  0  0  0  0  0  0  0  0  0  0  0
  184.9670  178.1210  141.8150 C   0  0  2  0  0  3  0  0  0  0  0  0
  184.2840  178.9220  144.0200 C   0  0  0  0  0  3  0  0  0  0  0  0
  186.4690  177.7380  143.8630 C   0  0  0  0  0  0  0  0  0  0  0  0
  185.3650  179.2820  141.1410 O   0  0  0  0  0  0  0  0  0  0  0  0
  188.8070  175.2810  143.1450 O   0  0  0  0  0  1  0  0  0  0  0  0
  189.4060  176.2800  142.3760 C   0  0  2  0  0  3  0  0  0  0  0  0
  190.6670  176.7720  143.0620 C   0  0  0  0  0  2  0  0  0  0  0  0
  190.3830  177.1290  144.3800 O   0  0  0  0  0  0  0  0  0  0  0  0
  191.4260  176.5800  145.1240 C   0  0  0  0  0  1  0  0  0  0  0  0
  1  2  1  0  0  0  0
  1 24  1  1  0  0  0
  2  4  1  0  0  0  0
  3  2  2  0  0  0  0
  5  1  1  0  0  0  0
  7 11  2  0  0  0  0
  7 10  1  0  0  0  0
  8 17  1  0  0  0  0
  8  6  2  0  0  0  0
  9  6  1  0  0  0  0
  9  5  1  0  0  0  0
 10  9  2  0  0  0  0
 11  8  1  0  0  0  0
 12 13  1  0  0  0  0
 13 19  1  0  0  0  0
 14 13  2  0  0  0  0
 15 17  1  0  0  0  0
 15 12  1  0  0  0  0
 16 15  2  0  0  0  0
 19 18  1  1  0  0  0
 20 19  1  0  0  0  0
 22 23  2  0  0  0  0
 23 20  1  0  0  0  0
 23 21  1  0  0  0  0
 25 27  1  0  0  0  0
 25 38  1  0  0  0  0
 27 30  1  0  0  0  0
 28 31  2  0  0  0  0
 29 40  1  0  0  0  0
 29 32  2  0  0  0  0
 30 29  1  0  0  0  0
 31 26  1  0  0  0  0
 32 37  2  0  0  0  0
 33 26  2  0  0  0  0
 34 37  1  0  0  0  0
 34 36  2  0  0  0  0
 35 24  1  1  0  0  0
 35 34  1  0  0  0  0
 36 33  1  0  0  0  0
 37 28  1  0  0  0  0
 38 35  1  0  0  0  0
 40 41  1  0  0  0  0
 40 39  1  1  0  0  0
 41 42  1  0  0  0  0
 42 43  1  0  0  0  0
M  END
>  <MODEL>
1

>  <REMARK>
 VINA RESULT:      -8.1      0.000      0.000
  Name = 
  12 active torsions:
  status: ('A' for Active; 'I' for Inactive)
    1  A    between atoms: C_5  and  C_17
    2  A    between atoms: C_8  and  C_23
    3  A    between atoms: C_10  and  C_15
    4  A    between atoms: C_15  and  C_33
    5  A    between atoms: C_17  and  N_19
    6  A    between atoms: C_17  and  C_43
    7  A    between atoms: N_19  and  C_30
    8  A    between atoms: C_23  and  C_41
    9  A    between atoms: O_24  and  C_41
   10  A    between atoms: C_25  and  N_42
   11  A    between atoms: C_31  and  C_43
   12  A    between atoms: C_33  and  C_37
                            x       y       z     vdW  Elec       q    Type
                         _______ _______ _______ _____ _____    ______ ____

>  <TORSDO>
F 12

$$$$
=
 OpenBabel10232410293D

 43 45  0  0  1  0  0  0  0  0999 V2000
  183.5290  177.8450  139.6950 C   0  0  2  0  0  3  0  0  0  0  0  0
  182.3890  176.8980  139.5290 C   0  0  0  0  0  0  0  0  0  0  0  0
  182.5610  175.6570  139.6580 O   0  0  0  0  0  0  0  0  0  0  0  0
  181.0940  177.4030  139.2260 N   0  0  0  0  0  1  0  0  0  0  0  0
  183.1750  178.8850  140.6520 N   0  0  0  0  0  2  0  0  0  0  0  0
  184.7440  178.4730  142.4730 C   0  0  0  0  0  3  0  0  0  0  0  0
  182.7210  178.8370  144.3660 C   0  0  0  0  0  3  0  0  0  0  0  0
  185.0410  178.3470  143.8340 C   0  0  0  0  0  0  0  0  0  0  0  0
  183.4460  178.7780  142.0520 C   0  0  0  0  0  0  0  0  0  0  0  0
  182.4340  178.9610  143.0060 C   0  0  0  0  0  3  0  0  0  0  0  0
  184.0210  178.5310  144.7790 C   0  0  0  0  0  3  0  0  0  0  0  0
  188.2320  177.4110  145.7700 N   0  0  0  0  0  2  0  0  0  0  0  0
  189.2650  177.4050  144.7750 C   0  0  0  0  0  0  0  0  0  0  0  0
  189.0230  177.7490  143.5880 O   0  0  0  0  0  0  0  0  0  0  0  0
  186.8560  177.7310  145.5420 C   0  0  0  0  0  0  0  0  0  0  0  0
  186.0630  177.7340  146.5210 O   0  0  0  0  0  0  0  0  0  0  0  0
  186.3860  178.0330  144.2190 N   0  0  0  0  0  2  0  0  0  0  0  0
  191.6650  177.9230  144.5100 C   0  0  0  0  0  1  0  0  0  0  0  0
  190.6530  176.9850  145.1400 C   0  0  1  0  0  3  0  0  0  0  0  0
  190.8440  176.9620  146.6500 C   0  0  0  0  0  2  0  0  0  0  0  0
  192.3020  175.1170  146.2670 O   0  0  0  0  0  0  0  0  0  0  0  0
  192.6570  176.2670  148.2160 O   0  0  0  0  0  1  0  0  0  0  0  0
  191.9640  176.0550  147.0310 C   0  0  0  0  0  0  0  0  0  0  0  0
  183.9010  178.4650  138.3530 C   0  0  0  0  0  2  0  0  0  0  0  0
  182.8230  176.5030  135.9500 C   0  0  0  0  0  2  0  0  0  0  0  0
  188.9520  177.6530  136.8900 C   0  0  0  0  0  3  0  0  0  0  0  0
  183.3730  175.5410  134.9060 C   0  0  0  0  0  2  0  0  0  0  0  0
  187.7320  175.5180  137.3790 C   0  0  0  0  0  3  0  0  0  0  0  0
  184.7000  174.0000  136.3560 C   0  0  0  0  0  0  0  0  0  0  0  0
  183.6260  174.2630  135.4900 O   0  0  0  0  0  0  0  0  0  0  0  0
  188.8300  176.2650  137.3430 C   0  0  0  0  0  3  0  0  0  0  0  0
  185.5560  174.9330  136.6820 C   0  0  0  0  0  0  0  0  0  0  0  0
  187.9840  178.5460  136.7100 C   0  0  0  0  0  3  0  0  0  0  0  0
  185.8210  177.2810  137.1170 C   0  0  0  0  0  0  0  0  0  0  0  0
  184.3260  177.4300  137.3020 C   0  0  2  0  0  3  0  0  0  0  0  0
  186.5430  178.3910  136.9370 C   0  0  0  0  0  3  0  0  0  0  0  0
  186.3710  175.9070  136.9960 C   0  0  0  0  0  0  0  0  0  0  0  0
  183.6740  177.6070  136.0760 O   0  0  0  0  0  0  0  0  0  0  0  0
  185.5610  172.7180  138.1410 O   0  0  0  0  0  1  0  0  0  0  0  0
  184.8680  172.6360  136.9320 C   0  0  2  0  0  3  0  0  0  0  0  0
  185.6290  171.7530  135.9600 C   0  0  0  0  0  2  0  0  0  0  0  0
  184.8190  170.6970  135.5460 O   0  0  0  0  0  0  0  0  0  0  0  0
  183.6760  170.7990  136.3370 C   0  0  0  0  0  1  0  0  0  0  0  0
  1 24  1  6  0  0  0
  1  5  1  0  0  0  0
  2  3  2  0  0  0  0
  2  1  1  0  0  0  0
  4  2  1  0  0  0  0
  5  9  1  0  0  0  0
  6  8  1  0  0  0  0
  7 11  1  0  0  0  0
  8 17  1  0  0  0  0
  8 11  2  0  0  0  0
  9  6  2  0  0  0  0
  9 10  1  0  0  0  0
 10  7  2  0  0  0  0
 13 19  1  0  0  0  0
 13 12  1  0  0  0  0
 14 13  2  0  0  0  0
 15 12  1  0  0  0  0
 15 16  2  0  0  0  0
 17 15  1  0  0  0  0
 19 18  1  6  0  0  0
 19 20  1  0  0  0  0
 20 23  1  0  0  0  0
 21 23  2  0  0  0  0
 23 22  1  0  0  0  0
 25 38  1  0  0  0  0
 26 31  1  0  0  0  0
 27 30  1  0  0  0  0
 27 25  1  0  0  0  0
 29 32  2  0  0  0  0
 29 40  1  0  0  0  0
 30 29  1  0  0  0  0
 31 28  2  0  0  0  0
 32 37  2  0  0  0  0
 33 26  2  0  0  0  0
 33 36  1  0  0  0  0
 34 35  1  0  0  0  0
 35 24  1  1  0  0  0
 36 34  2  0  0  0  0
 37 34  1  0  0  0  0
 37 28  1  0  0  0  0
 38 35  1  0  0  0  0
 40 39  1  1  0  0  0
 41 40  1  0  0  0  0
 42 41  1  0  0  0  0
 42 43  1  0  0  0  0
M  END
>  <MODEL>
2

>  <REMARK>
 VINA RESULT:      -8.1      3.350      7.738
  Name = 
  12 active torsions:
  status: ('A' for Active; 'I' for Inactive)
    1  A    between atoms: C_5  and  C_17
    2  A    between atoms: C_8  and  C_23
    3  A    between atoms: C_10  and  C_15
    4  A    between atoms: C_15  and  C_33
    5  A    between atoms: C_17  and  N_19
    6  A    between atoms: C_17  and  C_43
    7  A    between atoms: N_19  and  C_30
    8  A    between atoms: C_23  and  C_41
    9  A    between atoms: O_24  and  C_41
   10  A    between atoms: C_25  and  N_42
   11  A    between atoms: C_31  and  C_43
   12  A    between atoms: C_33  and  C_37
                            x       y       z     vdW  Elec       q    Type
                         _______ _______ _______ _____ _____    ______ ____

>  <TORSDO>
F 12

$$$$
=
 OpenBabel10232410293D

 43 45  0  0  1  0  0  0  0  0999 V2000
  189.2830  177.0210  139.6370 C   0  0  2  0  0  3  0  0  0  0  0  0
  188.5730  178.1820  139.0260 C   0  0  0  0  0  0  0  0  0  0  0  0
  189.1800  179.2630  138.8080 O   0  0  0  0  0  0  0  0  0  0  0  0
  187.1980  178.0620  138.6810 N   0  0  0  0  0  1  0  0  0  0  0  0
  189.3790  175.9330  138.6720 N   0  0  0  0  0  2  0  0  0  0  0  0
  191.5790  175.5140  137.7080 C   0  0  0  0  0  3  0  0  0  0  0  0
  190.7310  176.4820  135.2270 C   0  0  0  0  0  3  0  0  0  0  0  0
  192.4760  175.5440  136.6350 C   0  0  0  0  0  0  0  0  0  0  0  0
  190.2640  175.9640  137.5500 C   0  0  0  0  0  0  0  0  0  0  0  0
  189.8430  176.4490  136.3040 C   0  0  0  0  0  3  0  0  0  0  0  0
  192.0440  176.0320  135.3920 C   0  0  0  0  0  3  0  0  0  0  0  0
  196.2990  175.1210  136.7070 N   0  0  0  0  0  2  0  0  0  0  0  0
  196.5100  173.8840  137.4020 C   0  0  0  0  0  0  0  0  0  0  0  0
  195.5360  173.1690  137.7610 O   0  0  0  0  0  0  0  0  0  0  0  0
  195.0280  175.7010  136.4020 C   0  0  0  0  0  0  0  0  0  0  0  0
  194.9920  176.7760  135.7470 O   0  0  0  0  0  0  0  0  0  0  0  0
  193.8140  175.0720  136.8430 N   0  0  0  0  0  2  0  0  0  0  0  0
  198.4260  172.5570  136.5890 C   0  0  0  0  0  1  0  0  0  0  0  0
  197.8990  173.4270  137.7130 C   0  0  1  0  0  3  0  0  0  0  0  0
  198.8330  174.6090  137.9300 C   0  0  0  0  0  2  0  0  0  0  0  0
  197.8640  175.6830  139.8250 O   0  0  0  0  0  0  0  0  0  0  0  0
  199.8900  174.6770  140.1890 O   0  0  0  0  0  1  0  0  0  0  0  0
  198.8340  175.0310  139.3600 C   0  0  0  0  0  0  0  0  0  0  0  0
  188.5510  176.5550  140.8910 C   0  0  0  0  0  2  0  0  0  0  0  0
  190.9370  178.0470  142.5830 C   0  0  0  0  0  2  0  0  0  0  0  0
  184.8230  179.1250  143.6850 C   0  0  0  0  0  3  0  0  0  0  0  0
  191.1050  178.9510  143.7970 C   0  0  0  0  0  2  0  0  0  0  0  0
  186.4070  177.8380  145.1410 C   0  0  0  0  0  3  0  0  0  0  0  0
  189.9190  177.6060  145.5360 C   0  0  0  0  0  0  0  0  0  0  0  0
  191.0830  178.1800  144.9990 O   0  0  0  0  0  0  0  0  0  0  0  0
  185.2120  178.3480  144.8640 C   0  0  0  0  0  3  0  0  0  0  0  0
  188.7570  177.7540  144.9560 C   0  0  0  0  0  0  0  0  0  0  0  0
  185.4620  179.2320  142.5240 C   0  0  0  0  0  3  0  0  0  0  0  0
  187.6390  177.9630  142.8400 C   0  0  0  0  0  0  0  0  0  0  0  0
  188.8550  177.4130  142.1270 C   0  0  2  0  0  3  0  0  0  0  0  0
  186.7120  178.5860  142.1060 C   0  0  0  0  0  3  0  0  0  0  0  0
  187.6220  177.9110  144.3240 C   0  0  0  0  0  0  0  0  0  0  0  0
  189.7940  178.4180  141.8670 O   0  0  0  0  0  0  0  0  0  0  0  0
  189.7490  177.6170  147.8910 O   0  0  0  0  0  1  0  0  0  0  0  0
  190.0010  176.8010  146.7870 C   0  0  2  0  0  3  0  0  0  0  0  0
  191.3780  176.1760  146.9120 C   0  0  0  0  0  2  0  0  0  0  0  0
  192.1030  176.8190  147.9150 O   0  0  0  0  0  0  0  0  0  0  0  0
  192.9250  175.8270  148.4450 C   0  0  0  0  0  1  0  0  0  0  0  0
  1 24  1  1  0  0  0
  2  1  1  0  0  0  0
  3  2  2  0  0  0  0
  4  2  1  0  0  0  0
  5  1  1  0  0  0  0
  7 11  2  0  0  0  0
  7 10  1  0  0  0  0
  8 17  1  0  0  0  0
  8  6  2  0  0  0  0
  9  6  1  0  0  0  0
  9  5  1  0  0  0  0
 10  9  2  0  0  0  0
 11  8  1  0  0  0  0
 12 13  1  0  0  0  0
 13 19  1  0  0  0  0
 13 14  2  0  0  0  0
 15 12  1  0  0  0  0
 15 17  1  0  0  0  0
 16 15  2  0  0  0  0
 19 18  1  6  0  0  0
 19 20  1  0  0  0  0
 20 23  1  0  0  0  0
 23 21  2  0  0  0  0
 23 22  1  0  0  0  0
 25 27  1  0  0  0  0
 26 31  1  0  0  0  0
 27 30  1  0  0  0  0
 29 40  1  0  0  0  0
 30 29  1  0  0  0  0
 31 28  2  0  0  0  0
 32 29  2  0  0  0  0
 33 26  2  0  0  0  0
 34 37  1  0  0  0  0
 35 24  1  6  0  0  0
 35 34  1  0  0  0  0
 36 33  1  0  0  0  0
 36 34  2  0  0  0  0
 37 32  2  0  0  0  0
 37 28  1  0  0  0  0
 38 35  1  0  0  0  0
 38 25  1  0  0  0  0
 40 41  1  0  0  0  0
 40 39  1  1  0  0  0
 41 42  1  0  0  0  0
 42 43  1  0  0  0  0
M  END
>  <MODEL>
3

>  <REMARK>
 VINA RESULT:      -7.8      3.157      5.668
  Name = 
  12 active torsions:
  status: ('A' for Active; 'I' for Inactive)
    1  A    between atoms: C_5  and  C_17
    2  A    between atoms: C_8  and  C_23
    3  A    between atoms: C_10  and  C_15
    4  A    between atoms: C_15  and  C_33
    5  A    between atoms: C_17  and  N_19
    6  A    between atoms: C_17  and  C_43
    7  A    between atoms: N_19  and  C_30
    8  A    between atoms: C_23  and  C_41
    9  A    between atoms: O_24  and  C_41
   10  A    between atoms: C_25  and  N_42
   11  A    between atoms: C_31  and  C_43
   12  A    between atoms: C_33  and  C_37
                            x       y       z     vdW  Elec       q    Type
                         _______ _______ _______ _____ _____    ______ ____

>  <TORSDO>
F 12

$$$$
=
 OpenBabel10232410293D

 43 45  0  0  1  0  0  0  0  0999 V2000
  185.7620  178.0480  138.0550 C   0  0  2  0  0  3  0  0  0  0  0  0
  184.7460  178.7230  138.9130 C   0  0  0  0  0  0  0  0  0  0  0  0
  184.7670  179.9720  139.0730 O   0  0  0  0  0  0  0  0  0  0  0  0
  183.7400  177.9470  139.5520 N   0  0  0  0  0  1  0  0  0  0  0  0
  187.0710  178.6510  138.2680 N   0  0  0  0  0  2  0  0  0  0  0  0
  188.2930  177.9940  140.2740 C   0  0  0  0  0  3  0  0  0  0  0  0
  190.1530  176.5830  138.7390 C   0  0  0  0  0  3  0  0  0  0  0  0
  189.3520  177.3340  140.9070 C   0  0  0  0  0  0  0  0  0  0  0  0
  188.1570  177.9540  138.8830 C   0  0  0  0  0  0  0  0  0  0  0  0
  189.0930  177.2430  138.1160 C   0  0  0  0  0  3  0  0  0  0  0  0
  190.2830  176.6280  140.1300 C   0  0  0  0  0  3  0  0  0  0  0  0
  190.4770  177.9860  144.5280 N   0  0  0  0  0  2  0  0  0  0  0  0
  189.4280  177.4300  145.3340 C   0  0  0  0  0  0  0  0  0  0  0  0
  188.4630  176.8140  144.8070 O   0  0  0  0  0  0  0  0  0  0  0  0
  190.5300  177.9660  143.0990 C   0  0  0  0  0  0  0  0  0  0  0  0
  191.5360  178.4580  142.5220 O   0  0  0  0  0  0  0  0  0  0  0  0
  189.4500  177.4040  142.3360 N   0  0  0  0  0  2  0  0  0  0  0  0
  188.0710  177.8310  147.3570 C   0  0  0  0  0  1  0  0  0  0  0  0
  189.4670  177.5800  146.8210 C   0  0  1  0  0  3  0  0  0  0  0  0
  190.0580  176.3450  147.4850 C   0  0  0  0  0  2  0  0  0  0  0  0
  192.1570  175.7220  146.5440 O   0  0  0  0  0  0  0  0  0  0  0  0
  192.2620  177.1440  148.3370 O   0  0  0  0  0  1  0  0  0  0  0  0
  191.5480  176.3730  147.4300 C   0  0  0  0  0  0  0  0  0  0  0  0
  185.3650  178.1510  136.5860 C   0  0  0  0  0  2  0  0  0  0  0  0
  182.7320  177.2870  134.8240 C   0  0  0  0  0  2  0  0  0  0  0  0
  187.0090  173.0950  136.7960 C   0  0  0  0  0  3  0  0  0  0  0  0
  182.0170  176.0290  134.3490 C   0  0  0  0  0  2  0  0  0  0  0  0
  184.6800  173.3920  137.6760 C   0  0  0  0  0  3  0  0  0  0  0  0
  181.6660  174.8530  136.5250 C   0  0  0  0  0  0  0  0  0  0  0  0
  181.1800  175.5110  135.3830 O   0  0  0  0  0  0  0  0  0  0  0  0
  185.8630  172.7880  137.6570 C   0  0  0  0  0  3  0  0  0  0  0  0
  182.9470  174.6660  136.7080 C   0  0  0  0  0  0  0  0  0  0  0  0
  187.2300  174.1950  136.0840 C   0  0  0  0  0  3  0  0  0  0  0  0
  185.1320  175.6000  136.3550 C   0  0  0  0  0  0  0  0  0  0  0  0
  184.5240  176.9620  136.0990 C   0  0  2  0  0  3  0  0  0  0  0  0
  186.4010  175.4020  135.9860 C   0  0  0  0  0  3  0  0  0  0  0  0
  184.2390  174.5250  136.8570 C   0  0  0  0  0  0  0  0  0  0  0  0
  184.1160  177.0990  134.7670 O   0  0  0  0  0  0  0  0  0  0  0  0
  181.0590  174.8910  138.8050 O   0  0  0  0  0  1  0  0  0  0  0  0
  180.7120  174.3650  137.5600 C   0  0  2  0  0  3  0  0  0  0  0  0
  180.7370  172.8490  137.6150 C   0  0  0  0  0  2  0  0  0  0  0  0
  180.1940  172.3220  136.4430 O   0  0  0  0  0  0  0  0  0  0  0  0
  181.0270  171.2530  136.1210 C   0  0  0  0  0  1  0  0  0  0  0  0
  1 24  1  6  0  0  0
  1  5  1  0  0  0  0
  1  2  1  0  0  0  0
  2  3  2  0  0  0  0
  2  4  1  0  0  0  0
  5  9  1  0  0  0  0
  6  8  1  0  0  0  0
  7 11  1  0  0  0  0
  8 17  1  0  0  0  0
  9  6  2  0  0  0  0
 10  7  2  0  0  0  0
 10  9  1  0  0  0  0
 11  8  2  0  0  0  0
 12 13  1  0  0  0  0
 13 19  1  0  0  0  0
 14 13  2  0  0  0  0
 15 12  1  0  0  0  0
 16 15  2  0  0  0  0
 17 15  1  0  0  0  0
 19 18  1  1  0  0  0
 19 20  1  0  0  0  0
 21 23  2  0  0  0  0
 23 20  1  0  0  0  0
 23 22  1  0  0  0  0
 26 31  1  0  0  0  0
 27 25  1  0  0  0  0
 27 30  1  0  0  0  0
 29 32  2  0  0  0  0
 29 40  1  0  0  0  0
 30 29  1  0  0  0  0
 31 28  2  0  0  0  0
 32 37  2  0  0  0  0
 33 26  2  0  0  0  0
 34 37  1  0  0  0  0
 35 34  1  0  0  0  0
 35 24  1  6  0  0  0
 36 33  1  0  0  0  0
 36 34  2  0  0  0  0
 37 28  1  0  0  0  0
 38 25  1  0  0  0  0
 38 35  1  0  0  0  0
 40 41  1  0  0  0  0
 40 39  1  1  0  0  0
 42 41  1  0  0  0  0
 43 42  1  0  0  0  0
M  END
>  <MODEL>
4

>  <REMARK>
 VINA RESULT:      -7.8      3.455      8.338
  Name = 
  12 active torsions:
  status: ('A' for Active; 'I' for Inactive)
    1  A    between atoms: C_5  and  C_17
    2  A    between atoms: C_8  and  C_23
    3  A    between atoms: C_10  and  C_15
    4  A    between atoms: C_15  and  C_33
    5  A    between atoms: C_17  and  N_19
    6  A    between atoms: C_17  and  C_43
    7  A    between atoms: N_19  and  C_30
    8  A    between atoms: C_23  and  C_41
    9  A    between atoms: O_24  and  C_41
   10  A    between atoms: C_25  and  N_42
   11  A    between atoms: C_31  and  C_43
   12  A    between atoms: C_33  and  C_37
                            x       y       z     vdW  Elec       q    Type
                         _______ _______ _______ _____ _____    ______ ____

>  <TORSDO>
F 12

$$$$
=
 OpenBabel10232410293D

 43 45  0  0  1  0  0  0  0  0999 V2000
  185.8580  178.1980  138.5020 C   0  0  2  0  0  3  0  0  0  0  0  0
  184.8790  178.7670  139.4720 C   0  0  0  0  0  0  0  0  0  0  0  0
  185.2610  179.5380  140.3920 O   0  0  0  0  0  0  0  0  0  0  0  0
  183.5000  178.4390  139.3540 N   0  0  0  0  0  1  0  0  0  0  0  0
  187.1710  178.7930  138.7140 N   0  0  0  0  0  2  0  0  0  0  0  0
  188.4480  177.9280  140.6030 C   0  0  0  0  0  3  0  0  0  0  0  0
  190.3130  176.7680  138.8750 C   0  0  0  0  0  3  0  0  0  0  0  0
  189.5350  177.2250  141.1320 C   0  0  0  0  0  0  0  0  0  0  0  0
  188.2860  178.0550  139.2200 C   0  0  0  0  0  0  0  0  0  0  0  0
  189.2240  177.4710  138.3560 C   0  0  0  0  0  3  0  0  0  0  0  0
  190.4690  176.6460  140.2590 C   0  0  0  0  0  3  0  0  0  0  0  0
  190.8480  176.9390  144.7370 N   0  0  0  0  0  2  0  0  0  0  0  0
  189.6640  176.9110  145.5480 C   0  0  0  0  0  0  0  0  0  0  0  0
  188.5190  176.8970  145.0220 O   0  0  0  0  0  0  0  0  0  0  0  0
  190.8790  177.0120  143.3090 C   0  0  0  0  0  0  0  0  0  0  0  0
  191.9950  176.9870  142.7250 O   0  0  0  0  0  0  0  0  0  0  0  0
  189.6600  177.1200  142.5570 N   0  0  0  0  0  2  0  0  0  0  0  0
  191.2190  176.6770  147.4510 C   0  0  0  0  0  1  0  0  0  0  0  0
  189.7780  176.9010  147.0390 C   0  0  1  0  0  3  0  0  0  0  0  0
  189.2690  178.2030  147.6390 C   0  0  0  0  0  2  0  0  0  0  0  0
  187.7520  177.5870  149.3710 O   0  0  0  0  0  1  0  0  0  0  0  0
  186.7870  178.3890  147.4540 O   0  0  0  0  0  0  0  0  0  0  0  0
  187.8990  178.0300  148.2050 C   0  0  0  0  0  0  0  0  0  0  0  0
  185.3890  178.4450  137.0720 C   0  0  0  0  0  2  0  0  0  0  0  0
  183.2440  176.5730  135.4350 C   0  0  0  0  0  2  0  0  0  0  0  0
  189.4780  175.7020  135.0540 C   0  0  0  0  0  3  0  0  0  0  0  0
  183.2220  175.3100  134.5850 C   0  0  0  0  0  2  0  0  0  0  0  0
  187.8270  174.2390  136.2470 C   0  0  0  0  0  3  0  0  0  0  0  0
  184.3290  173.6950  136.1360 C   0  0  0  0  0  0  0  0  0  0  0  0
  183.2110  174.1500  135.4180 O   0  0  0  0  0  0  0  0  0  0  0  0
  189.0570  174.5460  135.8490 C   0  0  0  0  0  3  0  0  0  0  0  0
  185.4760  174.3200  136.0780 C   0  0  0  0  0  0  0  0  0  0  0  0
  188.8070  176.8250  134.8200 C   0  0  0  0  0  3  0  0  0  0  0  0
  186.5230  176.4730  135.8720 C   0  0  0  0  0  0  0  0  0  0  0  0
  185.2280  177.1560  136.2540 C   0  0  2  0  0  3  0  0  0  0  0  0
  187.4800  177.2170  135.3090 C   0  0  0  0  0  3  0  0  0  0  0  0
  186.5940  174.9960  136.0050 C   0  0  0  0  0  0  0  0  0  0  0  0
  184.3900  177.3220  135.1450 O   0  0  0  0  0  0  0  0  0  0  0  0
  185.1140  172.5710  138.0570 O   0  0  0  0  0  1  0  0  0  0  0  0
  184.2130  172.4830  136.9950 C   0  0  2  0  0  3  0  0  0  0  0  0
  184.5000  171.2380  136.1770 C   0  0  0  0  0  2  0  0  0  0  0  0
  183.5810  170.2380  136.4950 O   0  0  0  0  0  0  0  0  0  0  0  0
  182.4490  170.5510  135.7440 C   0  0  0  0  0  1  0  0  0  0  0  0
  1 24  1  6  0  0  0
  1  5  1  0  0  0  0
  1  2  1  0  0  0  0
  2  3  2  0  0  0  0
  4  2  1  0  0  0  0
  5  9  1  0  0  0  0
  6  8  1  0  0  0  0
  7 11  1  0  0  0  0
  8 17  1  0  0  0  0
  9  6  2  0  0  0  0
 10  7  2  0  0  0  0
 10  9  1  0  0  0  0
 11  8  2  0  0  0  0
 12 13  1  0  0  0  0
 13 19  1  0  0  0  0
 14 13  2  0  0  0  0
 15 12  1  0  0  0  0
 16 15  2  0  0  0  0
 17 15  1  0  0  0  0
 19 18  1  6  0  0  0
 19 20  1  0  0  0  0
 20 23  1  0  0  0  0
 22 23  2  0  0  0  0
 23 21  1  0  0  0  0
 26 31  1  0  0  0  0
 27 30  1  0  0  0  0
 27 25  1  0  0  0  0
 29 40  1  0  0  0  0
 30 29  1  0  0  0  0
 31 28  2  0  0  0  0
 32 29  2  0  0  0  0
 33 26  2  0  0  0  0
 33 36  1  0  0  0  0
 34 37  1  0  0  0  0
 34 35  1  0  0  0  0
 35 24  1  6  0  0  0
 36 34  2  0  0  0  0
 37 32  2  0  0  0  0
 37 28  1  0  0  0  0
 38 25  1  0  0  0  0
 38 35  1  0  0  0  0
 40 39  1  1  0  0  0
 41 42  1  0  0  0  0
 41 40  1  0  0  0  0
 43 42  1  0  0  0  0
M  END
>  <MODEL>
5

>  <REMARK>
 VINA RESULT:      -7.6      3.585      8.532
  Name = 
  12 active torsions:
  status: ('A' for Active; 'I' for Inactive)
    1  A    between atoms: C_5  and  C_17
    2  A    between atoms: C_8  and  C_23
    3  A    between atoms: C_10  and  C_15
    4  A    between atoms: C_15  and  C_33
    5  A    between atoms: C_17  and  N_19
    6  A    between atoms: C_17  and  C_43
    7  A    between atoms: N_19  and  C_30
    8  A    between atoms: C_23  and  C_41
    9  A    between atoms: O_24  and  C_41
   10  A    between atoms: C_25  and  N_42
   11  A    between atoms: C_31  and  C_43
   12  A    between atoms: C_33  and  C_37
                            x       y       z     vdW  Elec       q    Type
                         _______ _______ _______ _____ _____    ______ ____

>  <TORSDO>
F 12

$$$$
=
 OpenBabel10232410293D

 43 45  0  0  1  0  0  0  0  0999 V2000
  189.2640  174.3900  136.1340 C   0  0  2  0  0  3  0  0  0  0  0  0
  190.1360  173.4930  135.3220 C   0  0  0  0  0  0  0  0  0  0  0  0
  191.3790  173.6880  135.2630 O   0  0  0  0  0  0  0  0  0  0  0  0
  189.5580  172.4050  134.6130 N   0  0  0  0  0  1  0  0  0  0  0  0
  190.0650  175.1030  137.1200 N   0  0  0  0  0  2  0  0  0  0  0  0
  189.2180  176.3880  139.0120 C   0  0  0  0  0  3  0  0  0  0  0  0
  189.2990  178.7440  137.5120 C   0  0  0  0  0  3  0  0  0  0  0  0
  188.8080  177.5920  139.5940 C   0  0  0  0  0  0  0  0  0  0  0  0
  189.6670  176.3530  137.6880 C   0  0  0  0  0  0  0  0  0  0  0  0
  189.7070  177.5390  136.9390 C   0  0  0  0  0  3  0  0  0  0  0  0
  188.8500  178.7710  138.8360 C   0  0  0  0  0  3  0  0  0  0  0  0
  188.5320  177.2580  143.4180 N   0  0  0  0  0  2  0  0  0  0  0  0
  187.1790  177.6320  143.7130 C   0  0  0  0  0  0  0  0  0  0  0  0
  186.3630  177.8950  142.7900 O   0  0  0  0  0  0  0  0  0  0  0  0
  189.1150  177.1970  142.1130 C   0  0  0  0  0  0  0  0  0  0  0  0
  190.3090  176.8110  141.9990 O   0  0  0  0  0  0  0  0  0  0  0  0
  188.3550  177.5780  140.9550 N   0  0  0  0  0  2  0  0  0  0  0  0
  187.9050  177.6260  146.0720 C   0  0  0  0  0  1  0  0  0  0  0  0
  186.7190  177.7180  145.1330 C   0  0  1  0  0  3  0  0  0  0  0  0
  185.9600  179.0120  145.3900 C   0  0  0  0  0  2  0  0  0  0  0  0
  184.5960  178.2290  147.1810 O   0  0  0  0  0  1  0  0  0  0  0  0
  183.4660  179.0750  145.3770 O   0  0  0  0  0  0  0  0  0  0  0  0
  184.6420  178.7380  146.0330 C   0  0  0  0  0  0  0  0  0  0  0  0
  188.1710  173.5800  136.8250 C   0  0  0  0  0  2  0  0  0  0  0  0
  186.3530  176.2110  136.0790 C   0  0  0  0  0  2  0  0  0  0  0  0
  184.1930  170.3190  135.4650 C   0  0  0  0  0  3  0  0  0  0  0  0
  184.9220  176.5580  135.6930 C   0  0  0  0  0  2  0  0  0  0  0  0
  183.5200  171.9910  137.2070 C   0  0  0  0  0  3  0  0  0  0  0  0
  183.6700  175.5090  137.5830 C   0  0  0  0  0  0  0  0  0  0  0  0
  184.0960  176.6330  136.8560 O   0  0  0  0  0  0  0  0  0  0  0  0
  183.4410  170.7990  136.6260 C   0  0  0  0  0  3  0  0  0  0  0  0
  184.0080  174.2980  137.2250 C   0  0  0  0  0  0  0  0  0  0  0  0
  185.3010  170.8280  134.9360 C   0  0  0  0  0  3  0  0  0  0  0  0
  185.7440  172.9620  136.2400 C   0  0  0  0  0  0  0  0  0  0  0  0
  186.7530  174.0620  136.4890 C   0  0  2  0  0  3  0  0  0  0  0  0
  186.0770  171.9900  135.3840 C   0  0  0  0  0  3  0  0  0  0  0  0
  184.3940  173.1090  136.8400 C   0  0  0  0  0  0  0  0  0  0  0  0
  186.7360  175.0150  135.4640 O   0  0  0  0  0  0  0  0  0  0  0  0
  181.4760  175.6470  138.4420 O   0  0  0  0  0  1  0  0  0  0  0  0
  182.8250  175.6920  138.7970 C   0  0  2  0  0  3  0  0  0  0  0  0
  183.1420  177.0220  139.4550 C   0  0  0  0  0  2  0  0  0  0  0  0
  182.1470  177.3440  140.3770 O   0  0  0  0  0  0  0  0  0  0  0  0
  182.1790  178.7360  140.4540 C   0  0  0  0  0  1  0  0  0  0  0  0
  1 24  1  1  0  0  0
  1  5  1  0  0  0  0
  2  1  1  0  0  0  0
  3  2  2  0  0  0  0
  4  2  1  0  0  0  0
  5  9  1  0  0  0  0
  6  8  1  0  0  0  0
  7 11  1  0  0  0  0
  8 17  1  0  0  0  0
  9  6  2  0  0  0  0
 10  7  2  0  0  0  0
 10  9  1  0  0  0  0
 11  8  2  0  0  0  0
 12 13  1  0  0  0  0
 13 19  1  0  0  0  0
 14 13  2  0  0  0  0
 15 12  1  0  0  0  0
 16 15  2  0  0  0  0
 17 15  1  0  0  0  0
 19 20  1  0  0  0  0
 19 18  1  1  0  0  0
 20 23  1  0  0  0  0
 22 23  2  0  0  0  0
 23 21  1  0  0  0  0
 26 31  1  0  0  0  0
 27 25  1  0  0  0  0
 27 30  1  0  0  0  0
 29 40  1  0  0  0  0
 30 29  1  0  0  0  0
 31 28  2  0  0  0  0
 32 29  2  0  0  0  0
 33 36  1  0  0  0  0
 33 26  2  0  0  0  0
 34 35  1  0  0  0  0
 34 37  1  0  0  0  0
 35 24  1  6  0  0  0
 36 34  2  0  0  0  0
 37 28  1  0  0  0  0
 37 32  2  0  0  0  0
 38 25  1  0  0  0  0
 38 35  1  0  0  0  0
 40 39  1  6  0  0  0
 40 41  1  0  0  0  0
 41 42  1  0  0  0  0
 42 43  1  0  0  0  0
M  END
>  <MODEL>
6

>  <REMARK>
 VINA RESULT:      -7.6      3.556      8.958
  Name = 
  12 active torsions:
  status: ('A' for Active; 'I' for Inactive)
    1  A    between atoms: C_5  and  C_17
    2  A    between atoms: C_8  and  C_23
    3  A    between atoms: C_10  and  C_15
    4  A    between atoms: C_15  and  C_33
    5  A    between atoms: C_17  and  N_19
    6  A    between atoms: C_17  and  C_43
    7  A    between atoms: N_19  and  C_30
    8  A    between atoms: C_23  and  C_41
    9  A    between atoms: O_24  and  C_41
   10  A    between atoms: C_25  and  N_42
   11  A    between atoms: C_31  and  C_43
   12  A    between atoms: C_33  and  C_37
                            x       y       z     vdW  Elec       q    Type
                         _______ _______ _______ _____ _____    ______ ____

>  <TORSDO>
F 12

$$$$
=
 OpenBabel10232410293D

 43 45  0  0  1  0  0  0  0  0999 V2000
  190.6570  177.3390  140.7640 C   0  0  2  0  0  3  0  0  0  0  0  0
  191.9180  176.9360  140.0770 C   0  0  0  0  0  0  0  0  0  0  0  0
  191.8840  176.2080  139.0500 O   0  0  0  0  0  0  0  0  0  0  0  0
  193.1690  177.3830  140.5850 N   0  0  0  0  0  1  0  0  0  0  0  0
  190.0290  178.4390  140.0440 N   0  0  0  0  0  2  0  0  0  0  0  0
  187.6490  178.4120  139.5140 C   0  0  0  0  0  3  0  0  0  0  0  0
  188.1940  177.6920  136.8700 C   0  0  0  0  0  3  0  0  0  0  0  0
  186.5920  178.2190  138.6180 C   0  0  0  0  0  0  0  0  0  0  0  0
  188.9740  178.2480  139.0980 C   0  0  0  0  0  0  0  0  0  0  0  0
  189.2430  177.8870  137.7700 C   0  0  0  0  0  3  0  0  0  0  0  0
  186.8730  177.8560  137.2920 C   0  0  0  0  0  3  0  0  0  0  0  0
  183.4550  179.1780  140.6300 N   0  0  0  0  0  2  0  0  0  0  0  0
  182.3630  178.6460  139.8660 C   0  0  0  0  0  0  0  0  0  0  0  0
  182.5710  177.9580  138.8310 O   0  0  0  0  0  0  0  0  0  0  0  0
  184.8420  179.0540  140.3010 C   0  0  0  0  0  0  0  0  0  0  0  0
  185.6970  179.5380  141.0890 O   0  0  0  0  0  0  0  0  0  0  0  0
  185.2490  178.3980  139.0900 N   0  0  0  0  0  2  0  0  0  0  0  0
  180.0000  178.6000  139.1540 C   0  0  0  0  0  1  0  0  0  0  0  0
  180.9540  178.9070  140.2910 C   0  0  1  0  0  3  0  0  0  0  0  0
  180.5830  178.0770  141.5110 C   0  0  0  0  0  2  0  0  0  0  0  0
  180.4500  178.4210  143.8660 O   0  0  0  0  0  1  0  0  0  0  0  0
  180.3550  180.3180  142.5850 O   0  0  0  0  0  0  0  0  0  0  0  0
  180.4480  178.9390  142.7210 C   0  0  0  0  0  0  0  0  0  0  0  0
  190.9480  177.7470  142.2050 C   0  0  0  0  0  2  0  0  0  0  0  0
  187.8190  176.8510  142.6460 C   0  0  0  0  0  2  0  0  0  0  0  0
  192.3760  175.3650  146.7430 C   0  0  0  0  0  3  0  0  0  0  0  0
  186.9370  176.2110  143.7080 C   0  0  0  0  0  2  0  0  0  0  0  0
  190.5550  177.0570  147.0710 C   0  0  0  0  0  3  0  0  0  0  0  0
  187.3820  177.7230  145.6460 C   0  0  0  0  0  0  0  0  0  0  0  0
  186.5280  177.1840  144.6690 O   0  0  0  0  0  0  0  0  0  0  0  0
  191.6240  176.3830  147.4810 C   0  0  0  0  0  3  0  0  0  0  0  0
  188.6310  177.3490  145.7380 C   0  0  0  0  0  0  0  0  0  0  0  0
  192.3530  175.1120  145.4380 C   0  0  0  0  0  3  0  0  0  0  0  0
  190.5580  176.6370  144.4910 C   0  0  0  0  0  0  0  0  0  0  0  0
  189.9460  177.1690  143.2130 C   0  0  2  0  0  3  0  0  0  0  0  0
  191.5900  175.7950  144.3880 C   0  0  0  0  0  3  0  0  0  0  0  0
  189.8800  176.9610  145.7720 C   0  0  0  0  0  0  0  0  0  0  0  0
  189.0750  176.2370  142.6360 O   0  0  0  0  0  0  0  0  0  0  0  0
  187.2950  178.4540  147.8880 O   0  0  0  0  0  1  0  0  0  0  0  0
  186.8660  178.7510  146.5930 C   0  0  2  0  0  3  0  0  0  0  0  0
  185.3500  178.7840  146.5470 C   0  0  0  0  0  2  0  0  0  0  0  0
  184.9240  179.6320  145.5260 O   0  0  0  0  0  0  0  0  0  0  0  0
  183.6570  179.1620  145.1850 C   0  0  0  0  0  1  0  0  0  0  0  0
  1 24  1  1  0  0  0
  2  4  1  0  0  0  0
  2  1  1  0  0  0  0
  3  2  2  0  0  0  0
  5  1  1  0  0  0  0
  7 11  2  0  0  0  0
  7 10  1  0  0  0  0
  8 17  1  0  0  0  0
  8  6  2  0  0  0  0
  9  6  1  0  0  0  0
  9  5  1  0  0  0  0
 10  9  2  0  0  0  0
 11  8  1  0  0  0  0
 13 19  1  0  0  0  0
 13 12  1  0  0  0  0
 14 13  2  0  0  0  0
 15 12  1  0  0  0  0
 15 16  2  0  0  0  0
 17 15  1  0  0  0  0
 19 18  1  6  0  0  0
 19 20  1  0  0  0  0
 20 23  1  0  0  0  0
 22 23  2  0  0  0  0
 23 21  1  0  0  0  0
 25 27  1  0  0  0  0
 26 31  1  0  0  0  0
 27 30  1  0  0  0  0
 28 31  2  0  0  0  0
 29 32  2  0  0  0  0
 29 40  1  0  0  0  0
 30 29  1  0  0  0  0
 32 37  2  0  0  0  0
 33 26  2  0  0  0  0
 34 37  1  0  0  0  0
 35 24  1  6  0  0  0
 35 34  1  0  0  0  0
 36 34  2  0  0  0  0
 36 33  1  0  0  0  0
 37 28  1  0  0  0  0
 38 25  1  0  0  0  0
 38 35  1  0  0  0  0
 40 39  1  1  0  0  0
 41 40  1  0  0  0  0
 42 41  1  0  0  0  0
 43 42  1  0  0  0  0
M  END
>  <MODEL>
7

>  <REMARK>
 VINA RESULT:      -7.6      2.252      7.882
  Name = 
  12 active torsions:
  status: ('A' for Active; 'I' for Inactive)
    1  A    between atoms: C_5  and  C_17
    2  A    between atoms: C_8  and  C_23
    3  A    between atoms: C_10  and  C_15
    4  A    between atoms: C_15  and  C_33
    5  A    between atoms: C_17  and  N_19
    6  A    between atoms: C_17  and  C_43
    7  A    between atoms: N_19  and  C_30
    8  A    between atoms: C_23  and  C_41
    9  A    between atoms: O_24  and  C_41
   10  A    between atoms: C_25  and  N_42
   11  A    between atoms: C_31  and  C_43
   12  A    between atoms: C_33  and  C_37
                            x       y       z     vdW  Elec       q    Type
                         _______ _______ _______ _____ _____    ______ ____

>  <TORSDO>
F 12

$$$$
=
 OpenBabel10232410293D

 43 45  0  0  1  0  0  0  0  0999 V2000
  189.7110  177.2160  139.6850 C   0  0  2  0  0  3  0  0  0  0  0  0
  188.7220  177.9950  138.8850 C   0  0  0  0  0  0  0  0  0  0  0  0
  187.5190  177.6280  138.8180 O   0  0  0  0  0  0  0  0  0  0  0  0
  189.1420  179.1650  138.1950 N   0  0  0  0  0  1  0  0  0  0  0  0
  190.3280  176.1920  138.8520 N   0  0  0  0  0  2  0  0  0  0  0  0
  188.7950  175.0150  137.3650 C   0  0  0  0  0  3  0  0  0  0  0  0
  190.0470  176.1130  135.1210 C   0  0  0  0  0  3  0  0  0  0  0  0
  188.3350  174.6840  136.0860 C   0  0  0  0  0  0  0  0  0  0  0  0
  189.8750  175.8880  137.5300 C   0  0  0  0  0  0  0  0  0  0  0  0
  190.5000  176.4380  136.4020 C   0  0  0  0  0  3  0  0  0  0  0  0
  188.9690  175.2390  134.9640 C   0  0  0  0  0  3  0  0  0  0  0  0
  186.0800  171.5780  135.8160 N   0  0  0  0  0  2  0  0  0  0  0  0
  184.7520  172.1090  135.7060 C   0  0  0  0  0  0  0  0  0  0  0  0
  184.5540  173.3510  135.6350 O   0  0  0  0  0  0  0  0  0  0  0  0
  187.2810  172.3500  135.9140 C   0  0  0  0  0  0  0  0  0  0  0  0
  188.3860  171.7480  135.9640 O   0  0  0  0  0  0  0  0  0  0  0  0
  187.2250  173.7840  135.9650 N   0  0  0  0  0  2  0  0  0  0  0  0
  184.0420  169.7540  135.4930 C   0  0  0  0  0  1  0  0  0  0  0  0
  183.5760  171.1850  135.6780 C   0  0  1  0  0  3  0  0  0  0  0  0
  182.7560  171.2970  136.9550 C   0  0  0  0  0  2  0  0  0  0  0  0
  181.0520  172.0860  135.4870 O   0  0  0  0  0  0  0  0  0  0  0  0
  180.5290  172.1250  137.7170 O   0  0  0  0  0  1  0  0  0  0  0  0
  181.4070  171.8670  136.6730 C   0  0  0  0  0  0  0  0  0  0  0  0
  189.0290  176.5770  140.8900 C   0  0  0  0  0  2  0  0  0  0  0  0
  191.2790  178.0500  142.7740 C   0  0  0  0  0  2  0  0  0  0  0  0
  185.0850  178.7570  143.7200 C   0  0  0  0  0  3  0  0  0  0  0  0
  191.3610  178.8690  144.0550 C   0  0  0  0  0  2  0  0  0  0  0  0
  186.6810  177.4420  145.1390 C   0  0  0  0  0  3  0  0  0  0  0  0
  190.1840  177.3460  145.6480 C   0  0  0  0  0  0  0  0  0  0  0  0
  191.3360  178.0110  145.1970 O   0  0  0  0  0  0  0  0  0  0  0  0
  185.4710  177.9140  144.8540 C   0  0  0  0  0  3  0  0  0  0  0  0
  189.0360  177.4820  145.0360 C   0  0  0  0  0  0  0  0  0  0  0  0
  185.7570  178.9790  142.5950 C   0  0  0  0  0  3  0  0  0  0  0  0
  187.9820  177.7940  142.9000 C   0  0  0  0  0  0  0  0  0  0  0  0
  189.2480  177.3550  142.1950 C   0  0  2  0  0  3  0  0  0  0  0  0
  187.0510  178.4250  142.1790 C   0  0  0  0  0  3  0  0  0  0  0  0
  187.9180  177.6320  144.3750 C   0  0  0  0  0  0  0  0  0  0  0  0
  190.1440  178.4200  142.0440 O   0  0  0  0  0  0  0  0  0  0  0  0
  189.1000  176.5820  147.6010 O   0  0  0  0  0  1  0  0  0  0  0  0
  190.2630  176.4550  146.8390 C   0  0  2  0  0  3  0  0  0  0  0  0
  191.4720  176.8200  147.6800 C   0  0  0  0  0  2  0  0  0  0  0  0
  192.4700  175.8590  147.5190 O   0  0  0  0  0  0  0  0  0  0  0  0
  193.0800  175.7740  148.7690 C   0  0  0  0  0  1  0  0  0  0  0  0
  1 24  1  1  0  0  0
  2  1  1  0  0  0  0
  3  2  2  0  0  0  0
  4  2  1  0  0  0  0
  5  1  1  0  0  0  0
  6  9  1  0  0  0  0
  7 10  1  0  0  0  0
  8  6  2  0  0  0  0
  9  5  1  0  0  0  0
 10  9  2  0  0  0  0
 11  7  2  0  0  0  0
 11  8  1  0  0  0  0
 12 15  1  0  0  0  0
 13 12  1  0  0  0  0
 14 13  2  0  0  0  0
 15 16  2  0  0  0  0
 15 17  1  0  0  0  0
 17  8  1  0  0  0  0
 19 18  1  1  0  0  0
 19 13  1  0  0  0  0
 19 20  1  0  0  0  0
 21 23  2  0  0  0  0
 23 20  1  0  0  0  0
 23 22  1  0  0  0  0
 25 27  1  0  0  0  0
 26 31  1  0  0  0  0
 27 30  1  0  0  0  0
 29 40  1  0  0  0  0
 30 29  1  0  0  0  0
 31 28  2  0  0  0  0
 32 29  2  0  0  0  0
 33 26  2  0  0  0  0
 34 37  1  0  0  0  0
 35 24  1  6  0  0  0
 35 34  1  0  0  0  0
 36 33  1  0  0  0  0
 36 34  2  0  0  0  0
 37 32  2  0  0  0  0
 37 28  1  0  0  0  0
 38 35  1  0  0  0  0
 38 25  1  0  0  0  0
 40 39  1  1  0  0  0
 40 41  1  0  0  0  0
 42 41  1  0  0  0  0
 42 43  1  0  0  0  0
M  END
>  <MODEL>
8

>  <REMARK>
 VINA RESULT:      -7.6      3.734      6.751
  Name = 
  12 active torsions:
  status: ('A' for Active; 'I' for Inactive)
    1  A    between atoms: C_5  and  C_17
    2  A    between atoms: C_8  and  C_23
    3  A    between atoms: C_10  and  C_15
    4  A    between atoms: C_15  and  C_33
    5  A    between atoms: C_17  and  N_19
    6  A    between atoms: C_17  and  C_43
    7  A    between atoms: N_19  and  C_30
    8  A    between atoms: C_23  and  C_41
    9  A    between atoms: O_24  and  C_41
   10  A    between atoms: C_25  and  N_42
   11  A    between atoms: C_31  and  C_43
   12  A    between atoms: C_33  and  C_37
                            x       y       z     vdW  Elec       q    Type
                         _______ _______ _______ _____ _____    ______ ____

>  <TORSDO>
F 12

$$$$
=
 OpenBabel10232410293D

 43 45  0  0  1  0  0  0  0  0999 V2000
  190.4940  177.4200  140.6060 C   0  0  2  0  0  3  0  0  0  0  0  0
  191.8330  177.2390  139.9750 C   0  0  0  0  0  0  0  0  0  0  0  0
  191.9380  176.7390  138.8240 O   0  0  0  0  0  0  0  0  0  0  0  0
  193.0020  177.6420  140.6790 N   0  0  0  0  0  1  0  0  0  0  0  0
  189.6670  178.2860  139.7770 N   0  0  0  0  0  2  0  0  0  0  0  0
  187.3390  178.3620  139.0540 C   0  0  0  0  0  3  0  0  0  0  0  0
  187.7760  176.2690  137.2550 C   0  0  0  0  0  3  0  0  0  0  0  0
  186.2810  177.8940  138.2680 C   0  0  0  0  0  0  0  0  0  0  0  0
  188.6120  177.7920  138.9480 C   0  0  0  0  0  0  0  0  0  0  0  0
  188.8270  176.7420  138.0430 C   0  0  0  0  0  3  0  0  0  0  0  0
  186.5070  176.8420  137.3670 C   0  0  0  0  0  3  0  0  0  0  0  0
  183.2290  179.8850  139.5030 N   0  0  0  0  0  2  0  0  0  0  0  0
  182.2370  179.6880  138.4850 C   0  0  0  0  0  0  0  0  0  0  0  0
  182.4540  178.9210  137.5090 O   0  0  0  0  0  0  0  0  0  0  0  0
  184.5410  179.3160  139.5100 C   0  0  0  0  0  0  0  0  0  0  0  0
  185.2960  179.5430  140.4930 O   0  0  0  0  0  0  0  0  0  0  0  0
  184.9930  178.5080  138.4110 N   0  0  0  0  0  2  0  0  0  0  0  0
  180.2200  180.0410  139.8640 C   0  0  0  0  0  1  0  0  0  0  0  0
  180.9240  180.4000  138.5700 C   0  0  1  0  0  3  0  0  0  0  0  0
  181.1090  181.9080  138.4870 C   0  0  0  0  0  2  0  0  0  0  0  0
  180.6010  181.6030  136.1780 O   0  0  0  0  0  0  0  0  0  0  0  0
  180.5860  183.7730  136.9140 O   0  0  0  0  0  1  0  0  0  0  0  0
  180.7630  182.4120  137.1260 C   0  0  0  0  0  0  0  0  0  0  0  0
  190.6440  178.0110  142.0040 C   0  0  0  0  0  2  0  0  0  0  0  0
  187.5360  177.1500  142.6240 C   0  0  0  0  0  2  0  0  0  0  0  0
  192.3630  175.2030  146.1840 C   0  0  0  0  0  3  0  0  0  0  0  0
  186.7240  176.4380  143.6970 C   0  0  0  0  0  2  0  0  0  0  0  0
  190.6260  176.9000  146.8080 C   0  0  0  0  0  3  0  0  0  0  0  0
  187.3690  177.7610  145.7150 C   0  0  0  0  0  0  0  0  0  0  0  0
  186.4230  177.3310  144.7700 O   0  0  0  0  0  0  0  0  0  0  0  0
  191.7040  176.1690  147.0670 C   0  0  0  0  0  3  0  0  0  0  0  0
  188.6100  177.3530  145.6700 C   0  0  0  0  0  0  0  0  0  0  0  0
  192.2280  175.0680  144.8690 C   0  0  0  0  0  3  0  0  0  0  0  0
  190.4080  176.7110  144.2110 C   0  0  0  0  0  0  0  0  0  0  0  0
  189.7100  177.3680  143.0390 C   0  0  2  0  0  3  0  0  0  0  0  0
  191.4030  175.8590  143.9490 C   0  0  0  0  0  3  0  0  0  0  0  0
  189.8460  176.9350  145.5670 C   0  0  0  0  0  0  0  0  0  0  0  0
  188.7690  176.5110  142.4570 O   0  0  0  0  0  0  0  0  0  0  0  0
  187.4890  178.2940  148.0110 O   0  0  0  0  0  1  0  0  0  0  0  0
  186.9620  178.7120  146.7880 C   0  0  2  0  0  3  0  0  0  0  0  0
  185.4490  178.7810  146.8740 C   0  0  0  0  0  2  0  0  0  0  0  0
  184.9460  179.5250  145.8070 O   0  0  0  0  0  0  0  0  0  0  0  0
  183.7330  178.9150  145.4950 C   0  0  0  0  0  1  0  0  0  0  0  0
  1 24  1  1  0  0  0
  2  1  1  0  0  0  0
  2  4  1  0  0  0  0
  3  2  2  0  0  0  0
  5  1  1  0  0  0  0
  7 11  2  0  0  0  0
  7 10  1  0  0  0  0
  8 17  1  0  0  0  0
  8  6  2  0  0  0  0
  9  6  1  0  0  0  0
  9  5  1  0  0  0  0
 10  9  2  0  0  0  0
 11  8  1  0  0  0  0
 12 15  1  0  0  0  0
 13 19  1  0  0  0  0
 13 12  1  0  0  0  0
 14 13  2  0  0  0  0
 15 16  2  0  0  0  0
 17 15  1  0  0  0  0
 19 18  1  1  0  0  0
 20 19  1  0  0  0  0
 21 23  2  0  0  0  0
 22 23  1  0  0  0  0
 23 20  1  0  0  0  0
 25 27  1  0  0  0  0
 26 31  1  0  0  0  0
 27 30  1  0  0  0  0
 28 31  2  0  0  0  0
 29 40  1  0  0  0  0
 30 29  1  0  0  0  0
 32 29  2  0  0  0  0
 33 26  2  0  0  0  0
 34 37  1  0  0  0  0
 35 24  1  6  0  0  0
 35 34  1  0  0  0  0
 36 34  2  0  0  0  0
 36 33  1  0  0  0  0
 37 32  2  0  0  0  0
 37 28  1  0  0  0  0
 38 25  1  0  0  0  0
 38 35  1  0  0  0  0
 40 41  1  0  0  0  0
 40 39  1  1  0  0  0
 42 41  1  0  0  0  0
 43 42  1  0  0  0  0
M  END
>  <MODEL>
9

>  <REMARK>
 VINA RESULT:      -7.6      2.473      7.804
  Name = 
  12 active torsions:
  status: ('A' for Active; 'I' for Inactive)
    1  A    between atoms: C_5  and  C_17
    2  A    between atoms: C_8  and  C_23
    3  A    between atoms: C_10  and  C_15
    4  A    between atoms: C_15  and  C_33
    5  A    between atoms: C_17  and  N_19
    6  A    between atoms: C_17  and  C_43
    7  A    between atoms: N_19  and  C_30
    8  A    between atoms: C_23  and  C_41
    9  A    between atoms: O_24  and  C_41
   10  A    between atoms: C_25  and  N_42
   11  A    between atoms: C_31  and  C_43
   12  A    between atoms: C_33  and  C_37
                            x       y       z     vdW  Elec       q    Type
                         _______ _______ _______ _____ _____    ______ ____

>  <TORSDO>
F 12

$$$$
