=
 OpenBabel10232409153D

 67 76  0  0  1  0  0  0  0  0999 V2000
  182.7950  178.2750  136.0840 C   0  0  0  0  0  0  0  0  0  0  0  0
  190.7920  174.9060  137.7020 C   0  0  2  0  0  3  0  0  0  0  0  0
  181.4590  177.9190  139.0060 C   0  0  1  0  0  3  0  0  0  0  0  0
  185.7800  177.7980  137.8980 C   0  0  0  0  0  3  0  0  0  0  0  0
  183.6220  177.7100  140.3260 C   0  0  0  0  0  2  0  0  0  0  0  0
  183.3440  177.7770  137.3980 C   0  0  1  0  0  3  0  0  0  0  0  0
  188.0000  174.5800  135.3050 C   0  0  0  0  0  2  0  0  0  0  0  0
  187.6890  178.9180  141.6630 C   0  0  1  0  0  3  0  0  0  0  0  0
  183.9190  176.3980  134.8660 C   0  0  0  0  0  2  0  0  0  0  0  0
  180.1040  177.3170  139.3270 C   0  0  0  0  0  2  0  0  0  0  0  0
  190.1900  176.9690  139.1450 C   0  0  1  0  0  3  0  0  0  0  0  0
  183.3860  178.3140  142.6080 C   0  0  0  0  0  2  0  0  0  0  0  0
  182.4440  176.9970  139.6690 C   0  0  2  0  0  0  0  0  0  0  0  0
  191.4510  173.0910  136.1000 C   0  0  1  0  0  3  0  0  0  0  0  0
  189.5150  178.9130  137.9260 O   0  0  0  0  0  1  0  0  0  0  0  0
  186.3380  179.5830  141.4070 C   0  0  0  0  0  2  0  0  0  0  0  0
  183.1280  177.6180  134.8610 N   0  0  0  0  0  2  0  0  0  0  0  0
  191.9120  174.3550  136.8070 C   0  0  0  0  0  2  0  0  0  0  0  0
  187.8630  177.6610  140.8020 C   0  0  2  0  0  3  0  0  0  0  0  0
  183.1710  178.7600  141.2340 N   0  0  0  0  0  2  0  0  0  0  0  0
  185.5430  179.6520  142.7000 C   0  0  0  0  0  2  0  0  0  0  0  0
  189.0520  177.7010  138.4420 C   0  0  2  0  0  3  0  0  0  0  0  0
  186.6600  177.1880  138.6920 C   0  0  0  0  0  3  0  0  0  0  0  0
  185.0120  176.5330  135.8700 C   0  0  0  0  0  0  0  0  0  0  0  0
  189.6840  176.0030  140.2040 C   0  0  0  0  0  2  0  0  0  0  0  0
  189.4620  174.8010  137.1970 O   0  0  0  0  0  0  0  0  0  0  0  0
  180.2550  176.3900  140.4410 N   0  0  0  0  0  2  0  0  0  0  0  0
  182.2880  176.9640  138.1510 C   0  0  1  0  0  3  0  0  0  0  0  0
  187.4610  175.9580  135.1610 C   0  0  0  0  0  3  0  0  0  0  0  0
  189.0440  176.8250  141.3030 C   0  0  0  0  0  2  0  0  0  0  0  0
  187.7920  177.9510  139.2850 C   0  0  1  0  0  3  0  0  0  0  0  0
  184.8740  178.3030  142.9780 C   0  0  1  0  0  3  0  0  0  0  0  0
  182.0220  179.2700  136.0640 O   0  0  0  0  0  0  0  0  0  0  0  0
  189.4390  174.6160  135.7960 C   0  0  1  0  0  3  0  0  0  0  0  0
  181.6520  175.9830  140.4580 C   0  0  0  0  0  2  0  0  0  0  0  0
  190.1000  173.2910  135.4050 C   0  0  0  0  0  2  0  0  0  0  0  0
  184.6740  176.9990  137.2760 C   0  0  1  0  0  3  0  0  0  0  0  0
  186.2360  176.2260  135.5220 C   0  0  0  0  0  0  0  0  0  0  0  0
  191.1430  176.3290  138.1330 C   0  0  0  0  0  2  0  0  0  0  0  0
  192.9300  175.2910  134.4240 O   0  0  0  0  0  0  0  0  0  0  0  0
  193.7990  173.3110  135.3260 N   0  0  0  0  0  0  0  0  0  0  0  0
  192.7280  171.0700  135.2120 C   0  0  0  0  0  2  0  0  0  0  0  0
  193.9330  174.6740  134.8820 C   0  0  0  0  0  0  0  0  0  0  0  0
  195.2370  171.3130  135.0840 C   0  0  0  0  0  2  0  0  0  0  0  0
  193.9880  170.6950  134.4470 C   0  0  0  0  0  2  0  0  0  0  0  0
  192.5300  172.5890  135.1370 C   0  0  1  0  0  3  0  0  0  0  0  0
  194.9550  172.5990  135.8740 C   0  0  0  0  0  2  0  0  0  0  0  0
  196.0020  175.0210  136.2140 C   0  0  1  0  0  3  0  0  0  0  0  0
  195.2580  176.2110  136.1050 O   0  0  0  0  0  0  0  0  0  0  0  0
  195.2590  175.3690  134.9740 C   0  0  2  0  0  3  0  0  0  0  0  0
  198.2050  174.1000  135.5940 C   0  0  0  0  0  2  0  0  0  0  0  0
  198.2790  174.5410  137.0410 C   0  0  0  0  0  2  0  0  0  0  0  0
  197.4700  175.3450  136.0450 C   0  0  0  0  0  3  0  0  0  0  0  0
  185.0690  177.8240  144.4230 C   0  0  1  0  0  3  0  0  0  0  0  0
  186.5440  177.5750  144.6870 C   0  0  0  0  0  1  0  0  0  0  0  0
  184.5140  178.7860  145.4730 C   0  0  0  0  0  2  0  0  0  0  0  0
  185.6040  179.2610  146.4160 C   0  0  0  0  0  2  0  0  0  0  0  0
  187.5780  178.2720  147.5180 C   0  0  0  0  0  1  0  0  0  0  0  0
  186.0990  178.0960  147.2440 C   0  0  0  0  0  2  0  0  0  0  0  0
  188.8400  179.9070  141.4760 C   0  0  0  0  0  2  0  0  0  0  0  0
  189.8550  179.7590  142.5900 C   0  0  0  0  0  2  0  0  0  0  0  0
  189.6420  178.5580  143.2680 O   0  0  0  0  0  0  0  0  0  0  0  0
  190.8190  178.3440  143.9890 C   0  0  0  0  0  2  0  0  0  0  0  0
  190.4990  178.0400  145.4440 C   0  0  0  0  0  2  0  0  0  0  0  0
  191.6010  177.4360  146.0530 O   0  0  0  0  0  0  0  0  0  0  0  0
  192.1220  175.5860  147.4490 C   0  0  0  0  0  1  0  0  0  0  0  0
  191.1450  176.1810  146.4530 C   0  0  0  0  0  2  0  0  0  0  0  0
  2 18  1  6  0  0  0
  2 39  1  0  0  0  0
  3 10  1  1  0  0  0
  3 13  1  0  0  0  0
  4 23  2  0  0  0  0
  5 20  1  0  0  0  0
  6  1  1  6  0  0  0
  6 28  1  0  0  0  0
  7 34  1  0  0  0  0
  8 60  1  6  0  0  0
  9 24  1  0  0  0  0
 10 27  1  0  0  0  0
 11 39  1  6  0  0  0
 11 25  1  0  0  0  0
 12 32  1  0  0  0  0
 13  5  1  1  0  0  0
 13 35  1  0  0  0  0
 14 36  1  6  0  0  0
 14 18  1  0  0  0  0
 16  8  1  0  0  0  0
 16 21  1  0  0  0  0
 17  9  1  0  0  0  0
 17  1  1  0  0  0  0
 19 30  1  6  0  0  0
 19  8  1  0  0  0  0
 20 12  1  0  0  0  0
 21 32  1  0  0  0  0
 22 15  1  1  0  0  0
 22 11  1  0  0  0  0
 22 31  1  0  0  0  0
 23 31  1  0  0  0  0
 24 37  1  0  0  0  0
 25 30  1  0  0  0  0
 26  2  1  0  0  0  0
 27 35  1  0  0  0  0
 28  3  1  0  0  0  0
 28 13  1  0  0  0  0
 29  7  1  0  0  0  0
 29 38  2  0  0  0  0
 31 19  1  0  0  0  0
 32 54  1  0  0  0  0
 33  1  2  0  0  0  0
 34 26  1  0  0  0  0
 36 34  1  0  0  0  0
 37  6  1  0  0  0  0
 37  4  1  0  0  0  0
 38 24  2  0  0  0  0
 40 43  2  0  0  0  0
 41 47  1  0  0  0  0
 43 50  1  0  0  0  0
 43 41  1  0  0  0  0
 44 47  1  0  0  0  0
 45 44  1  0  0  0  0
 45 42  1  0  0  0  0
 46 42  1  0  0  0  0
 46 41  1  0  0  0  0
 46 14  1  0  0  0  0
 49 48  1  0  0  0  0
 50 49  1  0  0  0  0
 50 48  1  0  0  0  0
 51 53  1  0  0  0  0
 51 52  1  0  0  0  0
 53 48  1  0  0  0  0
 53 52  1  0  0  0  0
 54 55  1  0  0  0  0
 54 56  1  0  0  0  0
 56 57  1  0  0  0  0
 57 59  1  0  0  0  0
 59 58  1  0  0  0  0
 60 61  1  0  0  0  0
 61 62  1  0  0  0  0
 62 63  1  0  0  0  0
 63 64  1  0  0  0  0
 64 65  1  0  0  0  0
 65 67  1  0  0  0  0
 67 66  1  0  0  0  0
M  END
>  <MODEL>
1

>  <REMARK>
 VINA RESULT:      -4.2      0.000      0.000
  Name = 
  14 active torsions:
  status: ('A' for Active; 'I' for Inactive)
    1  A    between atoms: C_1  and  C_49
    2  A    between atoms: C_1  and  C_54
    3  A    between atoms: C_4  and  O_19
    4  A    between atoms: C_4  and  C_51
    5  A    between atoms: C_13  and  C_28
    6  A    between atoms: O_18  and  C_38
    7  A    between atoms: O_18  and  C_51
    8  A    between atoms: O_19  and  C_20
    9  A    between atoms: C_20  and  C_28
   10  A    between atoms: C_23  and  C_46
   11  A    between atoms: C_25  and  C_64
   12  A    between atoms: C_37  and  C_59
   13  A    between atoms: C_49  and  C_53
   14  A    between atoms: C_53  and  C_65
                            x       y       z     vdW  Elec       q    Type
                         _______ _______ _______ _____ _____    ______ ____

>  <TORSDO>
F 14

$$$$
=
 OpenBabel10232409153D

 67 76  0  0  1  0  0  0  0  0999 V2000
  189.9950  176.5700  136.4700 C   0  0  0  0  0  0  0  0  0  0  0  0
  184.6360  178.0620  143.3230 C   0  0  2  0  0  3  0  0  0  0  0  0
  188.2460  174.3590  134.8890 C   0  0  1  0  0  3  0  0  0  0  0  0
  186.9180  177.1880  138.0750 C   0  0  0  0  0  3  0  0  0  0  0  0
  186.0020  174.9020  135.9540 C   0  0  0  0  0  2  0  0  0  0  0  0
  188.6250  175.9900  136.7210 C   0  0  1  0  0  3  0  0  0  0  0  0
  188.1590  177.2210  142.5990 C   0  0  0  0  0  2  0  0  0  0  0  0
  182.6480  177.5330  137.2260 C   0  0  1  0  0  3  0  0  0  0  0  0
  190.5600  176.3710  138.9020 C   0  0  0  0  0  2  0  0  0  0  0  0
  188.7270  173.0270  134.3460 C   0  0  0  0  0  2  0  0  0  0  0  0
  183.5930  178.5990  141.0160 C   0  0  1  0  0  3  0  0  0  0  0  0
  184.1520  174.2640  134.6130 C   0  0  0  0  0  2  0  0  0  0  0  0
  187.2260  173.9920  135.9300 C   0  0  2  0  0  0  0  0  0  0  0  0
  185.7660  177.7990  145.5480 C   0  0  1  0  0  3  0  0  0  0  0  0
  184.8540  180.0990  139.6440 O   0  0  0  0  0  1  0  0  0  0  0  0
  183.5320  177.3420  135.9950 C   0  0  0  0  0  2  0  0  0  0  0  0
  190.9000  176.7920  137.5530 N   0  0  0  0  0  2  0  0  0  0  0  0
  184.8410  178.6740  144.7170 C   0  0  0  0  0  2  0  0  0  0  0  0
  183.3680  177.0890  138.5040 C   0  0  2  0  0  3  0  0  0  0  0  0
  185.4000  175.0220  134.6300 N   0  0  0  0  0  2  0  0  0  0  0  0
  182.8500  176.4090  135.0090 C   0  0  0  0  0  2  0  0  0  0  0  0
  184.7400  178.7610  140.0240 C   0  0  2  0  0  3  0  0  0  0  0  0
  185.8220  176.9300  138.7880 C   0  0  0  0  0  3  0  0  0  0  0  0
  189.1240  176.6790  139.1590 C   0  0  0  0  0  0  0  0  0  0  0  0
  183.0260  177.1890  141.0130 C   0  0  0  0  0  2  0  0  0  0  0  0
  185.7710  177.4360  142.7280 O   0  0  0  0  0  0  0  0  0  0  0  0
  187.7640  171.9960  134.7120 N   0  0  0  0  0  2  0  0  0  0  0  0
  188.5970  174.5010  136.3680 C   0  0  1  0  0  3  0  0  0  0  0  0
  188.4740  177.9540  141.3450 C   0  0  0  0  0  3  0  0  0  0  0  0
  182.3770  176.9600  139.6640 C   0  0  0  0  0  2  0  0  0  0  0  0
  184.6720  177.8750  138.7690 C   0  0  1  0  0  3  0  0  0  0  0  0
  183.0560  174.9530  135.4340 C   0  0  1  0  0  3  0  0  0  0  0  0
  190.3540  176.8470  135.2950 O   0  0  0  0  0  0  0  0  0  0  0  0
  186.9820  177.8650  143.3160 C   0  0  1  0  0  3  0  0  0  0  0  0
  187.0410  172.4950  135.8730 C   0  0  0  0  0  2  0  0  0  0  0  0
  187.0530  177.4570  144.7900 C   0  0  0  0  0  2  0  0  0  0  0  0
  188.0800  176.2430  138.1450 C   0  0  1  0  0  3  0  0  0  0  0  0
  188.7950  177.3000  140.2630 C   0  0  0  0  0  0  0  0  0  0  0  0
  183.9920  179.1000  142.4050 C   0  0  0  0  0  2  0  0  0  0  0  0
  187.3720  176.0580  147.6040 O   0  0  0  0  0  0  0  0  0  0  0  0
  187.4740  178.3730  147.2560 N   0  0  0  0  0  0  0  0  0  0  0  0
  185.5210  179.8890  146.9890 C   0  0  0  0  0  2  0  0  0  0  0  0
  188.0570  177.1190  147.6550 C   0  0  0  0  0  0  0  0  0  0  0  0
  187.6060  180.6610  148.1850 C   0  0  0  0  0  2  0  0  0  0  0  0
  186.0790  180.5490  148.2400 C   0  0  0  0  0  2  0  0  0  0  0  0
  186.0470  178.4510  146.9050 C   0  0  1  0  0  3  0  0  0  0  0  0
  188.2710  179.6010  147.2960 C   0  0  0  0  0  2  0  0  0  0  0  0
  190.4100  176.5810  147.0610 C   0  0  1  0  0  3  0  0  0  0  0  0
  189.9300  175.7280  148.0720 O   0  0  0  0  0  0  0  0  0  0  0  0
  189.4830  177.0650  148.1190 C   0  0  2  0  0  3  0  0  0  0  0  0
  192.6850  175.7430  147.5160 C   0  0  0  0  0  2  0  0  0  0  0  0
  192.1950  176.4490  148.7620 C   0  0  0  0  0  2  0  0  0  0  0  0
  191.8290  176.9860  147.3950 C   0  0  0  0  0  3  0  0  0  0  0  0
  181.7600  174.1310  135.4040 C   0  0  1  0  0  3  0  0  0  0  0  0
  182.0820  172.6560  135.5710 C   0  0  0  0  0  1  0  0  0  0  0  0
  180.7350  174.5560  136.4560 C   0  0  0  0  0  2  0  0  0  0  0  0
  181.2760  174.3610  137.8610 C   0  0  0  0  0  2  0  0  0  0  0  0
  179.9830  174.1580  139.9530 C   0  0  0  0  0  1  0  0  0  0  0  0
  180.3360  173.4760  138.6470 C   0  0  0  0  0  2  0  0  0  0  0  0
  182.1350  178.9700  137.3240 C   0  0  0  0  0  2  0  0  0  0  0  0
  180.8710  179.1410  136.5090 C   0  0  0  0  0  2  0  0  0  0  0  0
  180.0590  180.1160  137.0920 O   0  0  0  0  0  0  0  0  0  0  0  0
  180.8890  181.2320  137.2300 C   0  0  0  0  0  2  0  0  0  0  0  0
  180.0690  182.5100  137.1600 C   0  0  0  0  0  2  0  0  0  0  0  0
  180.4860  183.2780  136.0710 O   0  0  0  0  0  0  0  0  0  0  0  0
  181.7250  184.7780  137.4350 C   0  0  0  0  0  1  0  0  0  0  0  0
  180.5110  184.5880  136.5450 C   0  0  0  0  0  2  0  0  0  0  0  0
  1 17  1  0  0  0  0
  2 39  1  6  0  0  0
  2 18  1  0  0  0  0
  3 10  1  1  0  0  0
  3 13  1  0  0  0  0
  3 28  1  0  0  0  0
  4 37  1  0  0  0  0
  4 23  2  0  0  0  0
  6  1  1  1  0  0  0
  6 37  1  0  0  0  0
  7 34  1  0  0  0  0
  8 60  1  1  0  0  0
  8 19  1  0  0  0  0
  9 24  1  0  0  0  0
 10 27  1  0  0  0  0
 11 25  1  1  0  0  0
 11 39  1  0  0  0  0
 12 20  1  0  0  0  0
 12 32  1  0  0  0  0
 13 35  1  1  0  0  0
 13  5  1  0  0  0  0
 13 28  1  0  0  0  0
 14 18  1  6  0  0  0
 14 46  1  0  0  0  0
 16  8  1  0  0  0  0
 17  9  1  0  0  0  0
 19 31  1  0  0  0  0
 19 30  1  1  0  0  0
 20  5  1  0  0  0  0
 21 32  1  0  0  0  0
 21 16  1  0  0  0  0
 22 15  1  6  0  0  0
 22 11  1  0  0  0  0
 24 38  2  0  0  0  0
 26 34  1  0  0  0  0
 26  2  1  0  0  0  0
 27 35  1  0  0  0  0
 28  6  1  0  0  0  0
 29  7  1  0  0  0  0
 30 25  1  0  0  0  0
 31 23  1  0  0  0  0
 31 22  1  0  0  0  0
 33  1  2  0  0  0  0
 34 36  1  0  0  0  0
 36 14  1  0  0  0  0
 37 24  1  0  0  0  0
 38 29  2  0  0  0  0
 40 43  2  0  0  0  0
 41 47  1  0  0  0  0
 41 43  1  0  0  0  0
 42 45  1  0  0  0  0
 43 50  1  0  0  0  0
 44 45  1  0  0  0  0
 46 42  1  0  0  0  0
 46 41  1  0  0  0  0
 47 44  1  0  0  0  0
 48 53  1  0  0  0  0
 48 49  1  0  0  0  0
 48 50  1  0  0  0  0
 49 50  1  0  0  0  0
 51 52  1  0  0  0  0
 53 51  1  0  0  0  0
 53 52  1  0  0  0  0
 54 32  1  0  0  0  0
 54 55  1  0  0  0  0
 54 56  1  0  0  0  0
 56 57  1  0  0  0  0
 57 59  1  0  0  0  0
 59 58  1  0  0  0  0
 61 62  1  0  0  0  0
 61 60  1  0  0  0  0
 62 63  1  0  0  0  0
 64 63  1  0  0  0  0
 65 67  1  0  0  0  0
 65 64  1  0  0  0  0
 67 66  1  0  0  0  0
M  END
>  <MODEL>
2

>  <REMARK>
 VINA RESULT:      -3.7      3.442     10.578
  Name = 
  14 active torsions:
  status: ('A' for Active; 'I' for Inactive)
    1  A    between atoms: C_1  and  C_49
    2  A    between atoms: C_1  and  C_54
    3  A    between atoms: C_4  and  O_19
    4  A    between atoms: C_4  and  C_51
    5  A    between atoms: C_13  and  C_28
    6  A    between atoms: O_18  and  C_38
    7  A    between atoms: O_18  and  C_51
    8  A    between atoms: O_19  and  C_20
    9  A    between atoms: C_20  and  C_28
   10  A    between atoms: C_23  and  C_46
   11  A    between atoms: C_25  and  C_64
   12  A    between atoms: C_37  and  C_59
   13  A    between atoms: C_49  and  C_53
   14  A    between atoms: C_53  and  C_65
                            x       y       z     vdW  Elec       q    Type
                         _______ _______ _______ _____ _____    ______ ____

>  <TORSDO>
F 14

$$$$
=
 OpenBabel10232409153D

 67 76  0  0  1  0  0  0  0  0999 V2000
  189.9370  176.6250  136.4930 C   0  0  0  0  0  0  0  0  0  0  0  0
  184.5990  178.0780  143.3710 C   0  0  2  0  0  3  0  0  0  0  0  0
  188.1800  174.4300  134.9000 C   0  0  1  0  0  3  0  0  0  0  0  0
  186.8660  177.2370  138.1100 C   0  0  0  0  0  3  0  0  0  0  0  0
  185.9390  174.9690  135.9750 C   0  0  0  0  0  2  0  0  0  0  0  0
  188.5670  176.0460  136.7430 C   0  0  1  0  0  3  0  0  0  0  0  0
  188.1180  177.2340  142.6310 C   0  0  0  0  0  2  0  0  0  0  0  0
  182.5940  177.5980  137.2750 C   0  0  1  0  0  3  0  0  0  0  0  0
  190.5080  176.4060  138.9220 C   0  0  0  0  0  2  0  0  0  0  0  0
  188.6560  173.1000  134.3460 C   0  0  0  0  0  2  0  0  0  0  0  0
  183.5510  178.6340  141.0700 C   0  0  1  0  0  3  0  0  0  0  0  0
  184.0840  174.3450  134.6340 C   0  0  0  0  0  2  0  0  0  0  0  0
  187.1610  174.0570  135.9410 C   0  0  2  0  0  0  0  0  0  0  0  0
  185.7340  177.7960  145.5900 C   0  0  1  0  0  3  0  0  0  0  0  0
  184.8120  180.1410  139.7060 O   0  0  0  0  0  1  0  0  0  0  0  0
  183.4750  177.4150  136.0410 C   0  0  0  0  0  2  0  0  0  0  0  0
  190.8460  176.8370  137.5750 N   0  0  0  0  0  2  0  0  0  0  0  0
  184.8080  178.6790  144.7690 C   0  0  0  0  0  2  0  0  0  0  0  0
  183.3170  177.1430  138.5470 C   0  0  2  0  0  3  0  0  0  0  0  0
  185.3350  175.1000  134.6540 N   0  0  0  0  0  2  0  0  0  0  0  0
  182.7880  176.4900  135.0490 C   0  0  0  0  0  2  0  0  0  0  0  0
  184.6960  178.8010  140.0760 C   0  0  2  0  0  3  0  0  0  0  0  0
  185.7710  176.9760  138.8240 C   0  0  0  0  0  3  0  0  0  0  0  0
  189.0730  176.7150  139.1850 C   0  0  0  0  0  0  0  0  0  0  0  0
  182.9810  177.2260  141.0580 C   0  0  0  0  0  2  0  0  0  0  0  0
  185.7310  177.4540  142.7680 O   0  0  0  0  0  0  0  0  0  0  0  0
  187.6920  172.0690  134.7070 N   0  0  0  0  0  2  0  0  0  0  0  0
  188.5340  174.5600  136.3790 C   0  0  1  0  0  3  0  0  0  0  0  0
  188.4310  177.9760  141.3820 C   0  0  0  0  0  3  0  0  0  0  0  0
  182.3280  177.0080  139.7090 C   0  0  0  0  0  2  0  0  0  0  0  0
  184.6230  177.9250  138.8160 C   0  0  1  0  0  3  0  0  0  0  0  0
  182.9920  175.0300  135.4630 C   0  0  1  0  0  3  0  0  0  0  0  0
  190.2940  176.9100  135.3190 O   0  0  0  0  0  0  0  0  0  0  0  0
  186.9450  177.8760  143.3570 C   0  0  1  0  0  3  0  0  0  0  0  0
  186.9720  172.5610  135.8730 C   0  0  0  0  0  2  0  0  0  0  0  0
  187.0190  177.4570  144.8270 C   0  0  0  0  0  2  0  0  0  0  0  0
  188.0250  176.2900  138.1700 C   0  0  1  0  0  3  0  0  0  0  0  0
  188.7490  177.3290  140.2950 C   0  0  0  0  0  0  0  0  0  0  0  0
  183.9540  179.1240  142.4620 C   0  0  0  0  0  2  0  0  0  0  0  0
  187.3210  176.0280  147.6380 O   0  0  0  0  0  0  0  0  0  0  0  0
  187.4450  178.3440  147.3030 N   0  0  0  0  0  0  0  0  0  0  0  0
  185.5080  179.8800  147.0430 C   0  0  0  0  0  2  0  0  0  0  0  0
  188.0170  177.0820  147.6960 C   0  0  0  0  0  0  0  0  0  0  0  0
  187.5990  180.6250  148.2460 C   0  0  0  0  0  2  0  0  0  0  0  0
  186.0700  180.5270  148.3000 C   0  0  0  0  0  2  0  0  0  0  0  0
  186.0190  178.4370  146.9510 C   0  0  1  0  0  3  0  0  0  0  0  0
  188.2540  179.5630  147.3520 C   0  0  0  0  0  2  0  0  0  0  0  0
  190.3650  176.5330  147.0990 C   0  0  1  0  0  3  0  0  0  0  0  0
  189.8780  175.6720  148.0990 O   0  0  0  0  0  0  0  0  0  0  0  0
  189.4410  177.0120  148.1600 C   0  0  2  0  0  3  0  0  0  0  0  0
  192.6940  175.7290  147.2260 C   0  0  0  0  0  2  0  0  0  0  0  0
  192.2600  176.1100  148.6250 C   0  0  0  0  0  2  0  0  0  0  0  0
  191.7870  176.9220  147.4380 C   0  0  0  0  0  3  0  0  0  0  0  0
  181.6940  174.2120  135.4300 C   0  0  1  0  0  3  0  0  0  0  0  0
  180.6720  174.9030  134.5450 C   0  0  0  0  0  1  0  0  0  0  0  0
  181.8860  172.7690  134.9650 C   0  0  0  0  0  2  0  0  0  0  0  0
  181.3100  171.7850  135.9670 C   0  0  0  0  0  2  0  0  0  0  0  0
  183.1410  170.1340  135.8880 C   0  0  0  0  0  1  0  0  0  0  0  0
  182.4330  171.1520  136.7570 C   0  0  0  0  0  2  0  0  0  0  0  0
  182.0850  179.0360  137.3850 C   0  0  0  0  0  2  0  0  0  0  0  0
  181.0700  179.1560  138.5030 C   0  0  0  0  0  2  0  0  0  0  0  0
  180.2360  180.2510  138.2690 O   0  0  0  0  0  0  0  0  0  0  0  0
  181.0370  181.1670  137.5830 C   0  0  0  0  0  2  0  0  0  0  0  0
  180.6450  182.5900  137.9520 C   0  0  0  0  0  2  0  0  0  0  0  0
  181.6890  183.4620  137.6370 O   0  0  0  0  0  0  0  0  0  0  0  0
  180.1550  185.2670  137.4440 C   0  0  0  0  0  1  0  0  0  0  0  0
  181.1390  184.3620  136.7260 C   0  0  0  0  0  2  0  0  0  0  0  0
  1 17  1  0  0  0  0
  2 39  1  6  0  0  0
  2 18  1  0  0  0  0
  3 10  1  1  0  0  0
  3 13  1  0  0  0  0
  3 28  1  0  0  0  0
  4 37  1  0  0  0  0
  4 23  2  0  0  0  0
  6  1  1  1  0  0  0
  6 37  1  0  0  0  0
  7 34  1  0  0  0  0
  8 60  1  1  0  0  0
  8 19  1  0  0  0  0
  9 24  1  0  0  0  0
 10 27  1  0  0  0  0
 11 25  1  1  0  0  0
 11 39  1  0  0  0  0
 12 20  1  0  0  0  0
 12 32  1  0  0  0  0
 13 35  1  1  0  0  0
 13  5  1  0  0  0  0
 13 28  1  0  0  0  0
 14 18  1  6  0  0  0
 14 46  1  0  0  0  0
 16  8  1  0  0  0  0
 17  9  1  0  0  0  0
 19 31  1  0  0  0  0
 19 30  1  1  0  0  0
 20  5  1  0  0  0  0
 21 32  1  0  0  0  0
 21 16  1  0  0  0  0
 22 15  1  6  0  0  0
 22 11  1  0  0  0  0
 24 38  2  0  0  0  0
 26 34  1  0  0  0  0
 26  2  1  0  0  0  0
 27 35  1  0  0  0  0
 28  6  1  0  0  0  0
 29  7  1  0  0  0  0
 30 25  1  0  0  0  0
 31 23  1  0  0  0  0
 31 22  1  0  0  0  0
 33  1  2  0  0  0  0
 34 36  1  0  0  0  0
 36 14  1  0  0  0  0
 37 24  1  0  0  0  0
 38 29  2  0  0  0  0
 40 43  2  0  0  0  0
 41 47  1  0  0  0  0
 41 43  1  0  0  0  0
 42 45  1  0  0  0  0
 43 50  1  0  0  0  0
 44 45  1  0  0  0  0
 46 42  1  0  0  0  0
 46 41  1  0  0  0  0
 47 44  1  0  0  0  0
 48 53  1  0  0  0  0
 48 49  1  0  0  0  0
 48 50  1  0  0  0  0
 49 50  1  0  0  0  0
 51 53  1  0  0  0  0
 51 52  1  0  0  0  0
 53 52  1  0  0  0  0
 54 32  1  0  0  0  0
 55 54  1  0  0  0  0
 56 54  1  0  0  0  0
 56 57  1  0  0  0  0
 57 59  1  0  0  0  0
 58 59  1  0  0  0  0
 60 61  1  0  0  0  0
 62 61  1  0  0  0  0
 63 64  1  0  0  0  0
 63 62  1  0  0  0  0
 65 64  1  0  0  0  0
 67 66  1  0  0  0  0
 67 65  1  0  0  0  0
M  END
>  <MODEL>
3

>  <REMARK>
 VINA RESULT:      -3.4      3.475     10.686
  Name = 
  14 active torsions:
  status: ('A' for Active; 'I' for Inactive)
    1  A    between atoms: C_1  and  C_49
    2  A    between atoms: C_1  and  C_54
    3  A    between atoms: C_4  and  O_19
    4  A    between atoms: C_4  and  C_51
    5  A    between atoms: C_13  and  C_28
    6  A    between atoms: O_18  and  C_38
    7  A    between atoms: O_18  and  C_51
    8  A    between atoms: O_19  and  C_20
    9  A    between atoms: C_20  and  C_28
   10  A    between atoms: C_23  and  C_46
   11  A    between atoms: C_25  and  C_64
   12  A    between atoms: C_37  and  C_59
   13  A    between atoms: C_49  and  C_53
   14  A    between atoms: C_53  and  C_65
                            x       y       z     vdW  Elec       q    Type
                         _______ _______ _______ _____ _____    ______ ____

>  <TORSDO>
F 14

$$$$
