=
 OpenBabel10232411463D

 47 52  0  0  1  0  0  0  0  0999 V2000
  191.0070  177.2370  139.0900 C   0  0  1  0  0  3  0  0  0  0  0  0
  190.3190  176.2790  140.9700 O   0  0  0  0  0  0  0  0  0  0  0  0
  189.5160  177.5030  138.8030 C   0  0  1  0  0  3  0  0  0  0  0  0
  189.2090  177.1070  141.2740 C   0  0  2  0  0  3  0  0  0  0  0  0
  191.2750  177.0590  140.4730 O   0  0  0  0  0  0  0  0  0  0  0  0
  188.8420  177.9970  140.0840 C   0  0  0  0  0  2  0  0  0  0  0  0
  192.4980  174.2210  136.0830 C   0  0  1  0  0  3  0  0  0  0  0  0
  190.6240  175.1080  137.6030 C   0  0  0  0  0  2  0  0  0  0  0  0
  192.8130  176.4950  137.3690 C   0  0  1  0  0  3  0  0  0  0  0  0
  191.3200  173.8840  137.0100 C   0  0  0  0  0  2  0  0  0  0  0  0
  191.5980  176.1220  138.2170 C   0  0  1  0  0  0  0  0  0  0  0  0
  192.9820  175.6320  138.6220 C   0  0  0  0  0  2  0  0  0  0  0  0
  192.8680  175.7120  136.0400 C   0  0  0  0  0  2  0  0  0  0  0  0
  193.7200  173.4000  136.4620 C   0  0  0  0  0  2  0  0  0  0  0  0
  196.1990  173.8140  136.8840 C   0  0  1  0  0  0  0  0  0  0  0  0
  197.2940  174.8580  136.7940 C   0  0  0  0  0  1  0  0  0  0  0  0
  195.0050  174.0550  135.9620 C   0  0  1  0  0  3  0  0  0  0  0  0
  196.0380  172.9810  135.6290 C   0  0  0  0  0  2  0  0  0  0  0  0
  196.0400  171.6920  138.1970 O   0  0  0  0  0  0  0  0  0  0  0  0
  196.0150  173.0810  138.1820 C   0  0  0  0  0  0  0  0  0  0  0  0
  195.8340  173.7120  139.2580 O   0  0  0  0  0  1  0  0  0  0  0  0
  189.3660  178.5670  137.7270 C   0  0  0  0  0  2  0  0  0  0  0  0
  188.7730  178.0120  136.4300 C   0  0  0  0  0  2  0  0  0  0  0  0
  186.9450  179.4830  136.9240 O   0  0  0  0  0  1  0  0  0  0  0  0
  187.2780  178.2970  136.2590 C   0  0  2  0  0  3  0  0  0  0  0  0
  186.9480  175.9890  136.9610 C   0  0  0  0  0  2  0  0  0  0  0  0
  186.4000  177.1740  136.7280 C   0  0  0  0  0  0  0  0  0  0  0  0
  184.3830  177.4250  138.2090 N   0  0  0  0  0  0  0  0  0  0  0  0
  184.8700  178.4670  139.1040 C   0  0  0  0  0  2  0  0  0  0  0  0
  182.4940  179.0500  139.5460 C   0  0  0  0  0  2  0  0  0  0  0  0
  184.1890  177.3970  135.8750 O   0  0  0  0  0  0  0  0  0  0  0  0
  183.8540  179.6020  139.1210 C   0  0  0  0  0  2  0  0  0  0  0  0
  182.0260  177.9450  138.5870 C   0  0  1  0  0  3  0  0  0  0  0  0
  183.0840  176.8370  138.5180 C   0  0  0  0  0  2  0  0  0  0  0  0
  184.9420  177.3330  136.8920 C   0  0  0  0  0  0  0  0  0  0  0  0
  180.6900  177.3690  139.0500 C   0  0  0  0  0  3  0  0  0  0  0  0
  180.3510  176.2630  138.2670 O   0  0  0  0  0  1  0  0  0  0  0  0
  180.7750  176.9770  140.3850 O   0  0  0  0  0  1  0  0  0  0  0  0
  189.4790  177.9800  142.5020 C   0  0  0  0  0  2  0  0  0  0  0  0
  187.4320  177.1330  143.4220 O   0  0  0  0  0  0  0  0  0  0  0  0
  188.5260  177.7220  143.6290 C   0  0  0  0  0  0  0  0  0  0  0  0
  188.9220  178.0510  144.9280 O   0  0  0  0  0  0  0  0  0  0  0  0
  190.1600  177.6220  145.4890 C   0  0  0  0  0  2  0  0  0  0  0  0
  190.9190  176.2650  147.4620 O   0  0  0  0  0  1  0  0  0  0  0  0
  188.5360  176.8390  147.3760 C   0  0  0  0  0  2  0  0  0  0  0  0
  189.9490  177.0810  146.8960 C   0  0  0  0  0  0  0  0  0  0  0  0
  189.3250  178.0450  147.8690 C   0  0  0  0  0  2  0  0  0  0  0  0
  1  5  1  1  0  0  0
  2  4  1  0  0  0  0
  3 22  1  6  0  0  0
  3  1  1  0  0  0  0
  3  6  1  0  0  0  0
  4 39  1  1  0  0  0
  5  2  1  0  0  0  0
  6  4  1  0  0  0  0
  7 14  1  1  0  0  0
  7 10  1  0  0  0  0
  9 13  1  6  0  0  0
  9 11  1  0  0  0  0
  9 12  1  0  0  0  0
 10  8  1  0  0  0  0
 11  8  1  6  0  0  0
 11 12  1  0  0  0  0
 11  1  1  0  0  0  0
 13  7  1  0  0  0  0
 15 16  1  6  0  0  0
 15 20  1  0  0  0  0
 17 14  1  1  0  0  0
 17 15  1  0  0  0  0
 18 17  1  0  0  0  0
 18 15  1  0  0  0  0
 20 19  2  0  0  0  0
 20 21  1  0  0  0  0
 23 22  1  0  0  0  0
 25 23  1  0  0  0  0
 25 27  1  0  0  0  0
 25 24  1  1  0  0  0
 27 35  1  0  0  0  0
 27 26  2  0  0  0  0
 28 34  1  0  0  0  0
 28 29  1  0  0  0  0
 29 32  1  0  0  0  0
 31 35  2  0  0  0  0
 32 30  1  0  0  0  0
 33 36  1  1  0  0  0
 33 30  1  0  0  0  0
 34 33  1  0  0  0  0
 35 28  1  0  0  0  0
 36 38  1  0  0  0  0
 37 36  1  0  0  0  0
 39 41  1  0  0  0  0
 40 41  2  0  0  0  0
 41 42  1  0  0  0  0
 42 43  1  0  0  0  0
 43 46  1  0  0  0  0
 45 47  1  0  0  0  0
 46 45  1  0  0  0  0
 46 44  1  0  0  0  0
 46 47  1  0  0  0  0
M  END
>  <MODEL>
1

>  <REMARK>
 VINA RESULT:      -7.3      0.000      0.000
  Name = 
  15 active torsions:
  status: ('A' for Active; 'I' for Inactive)
    1  A    between atoms: C_1  and  C_30
    2  A    between atoms: C_4  and  C_32
    3  A    between atoms: C_8  and  C_18
    4  A    between atoms: C_10  and  C_22
    5  A    between atoms: C_15  and  C_19
    6  A    between atoms: C_15  and  C_34
    7  A    between atoms: C_23  and  C_44
    8  A    between atoms: O_24  and  C_40
    9  A    between atoms: O_24  and  C_47
   10  A    between atoms: C_29  and  C_39
   11  A    between atoms: C_29  and  C_42
   12  A    between atoms: C_32  and  C_35
   13  A    between atoms: C_34  and  C_42
   14  A    between atoms: C_40  and  C_41
   15  A    between atoms: C_44  and  C_47
                            x       y       z     vdW  Elec       q    Type
                         _______ _______ _______ _____ _____    ______ ____

>  <TORSDO>
F 15

$$$$
=
 OpenBabel10232411463D

 47 52  0  0  1  0  0  0  0  0999 V2000
  190.8480  177.2860  139.0390 C   0  0  1  0  0  3  0  0  0  0  0  0
  190.0660  176.3350  140.8850 O   0  0  0  0  0  0  0  0  0  0  0  0
  189.3770  177.6090  138.7080 C   0  0  1  0  0  3  0  0  0  0  0  0
  188.9770  177.2000  141.1630 C   0  0  2  0  0  3  0  0  0  0  0  0
  191.0640  177.0850  140.4280 O   0  0  0  0  0  0  0  0  0  0  0  0
  188.6810  178.1150  139.9720 C   0  0  0  0  0  2  0  0  0  0  0  0
  192.3080  174.2370  136.0500 C   0  0  1  0  0  3  0  0  0  0  0  0
  190.4380  175.1610  137.5540 C   0  0  0  0  0  2  0  0  0  0  0  0
  192.6530  176.5080  137.3340 C   0  0  1  0  0  3  0  0  0  0  0  0
  191.1160  173.9230  136.9680 C   0  0  0  0  0  2  0  0  0  0  0  0
  191.4260  176.1590  138.1720 C   0  0  1  0  0  0  0  0  0  0  0  0
  192.7970  175.6440  138.5900 C   0  0  0  0  0  2  0  0  0  0  0  0
  192.7050  175.7210  136.0070 C   0  0  0  0  0  2  0  0  0  0  0  0
  193.5120  173.3940  136.4400 C   0  0  0  0  0  2  0  0  0  0  0  0
  196.0120  173.7190  136.8130 C   0  0  1  0  0  0  0  0  0  0  0  0
  197.1420  174.7240  136.7030 C   0  0  0  0  0  1  0  0  0  0  0  0
  194.8090  174.0050  135.9160 C   0  0  1  0  0  3  0  0  0  0  0  0
  195.7970  172.8960  135.5590 C   0  0  0  0  0  2  0  0  0  0  0  0
  195.5790  173.7060  139.2750 O   0  0  0  0  0  1  0  0  0  0  0  0
  195.8280  172.9890  138.1130 C   0  0  0  0  0  0  0  0  0  0  0  0
  195.9000  171.7310  138.1610 O   0  0  0  0  0  0  0  0  0  0  0  0
  189.3010  178.6880  137.6400 C   0  0  0  0  0  2  0  0  0  0  0  0
  187.9590  178.6920  136.9030 C   0  0  0  0  0  2  0  0  0  0  0  0
  187.7230  176.5020  135.9560 O   0  0  0  0  0  1  0  0  0  0  0  0
  187.2210  177.3510  136.9490 C   0  0  2  0  0  3  0  0  0  0  0  0
  185.1620  177.1650  135.6620 C   0  0  0  0  0  2  0  0  0  0  0  0
  185.7320  177.4860  136.8160 C   0  0  0  0  0  0  0  0  0  0  0  0
  183.4920  177.6910  137.9410 N   0  0  0  0  0  0  0  0  0  0  0  0
  183.0940  176.2890  137.9390 C   0  0  0  0  0  2  0  0  0  0  0  0
  181.6110  176.8200  139.8630 C   0  0  0  0  0  2  0  0  0  0  0  0
  185.4000  178.7260  138.8210 O   0  0  0  0  0  0  0  0  0  0  0  0
  182.7180  175.8940  139.3620 C   0  0  0  0  0  2  0  0  0  0  0  0
  182.0660  178.2870  139.8320 C   0  0  1  0  0  3  0  0  0  0  0  0
  182.5110  178.6620  138.4140 C   0  0  0  0  0  2  0  0  0  0  0  0
  184.8900  178.0080  137.9090 C   0  0  0  0  0  0  0  0  0  0  0  0
  180.9360  179.2050  140.2900 C   0  0  0  0  0  3  0  0  0  0  0  0
  181.0620  179.4710  141.6560 O   0  0  0  0  0  1  0  0  0  0  0  0
  180.9790  180.4050  139.5820 O   0  0  0  0  0  1  0  0  0  0  0  0
  189.2390  178.0510  142.4080 C   0  0  0  0  0  2  0  0  0  0  0  0
  189.0010  177.4870  144.7270 O   0  0  0  0  0  0  0  0  0  0  0  0
  188.4490  177.6070  143.6020 C   0  0  0  0  0  0  0  0  0  0  0  0
  187.0690  177.4340  143.4630 O   0  0  0  0  0  0  0  0  0  0  0  0
  186.1340  177.8720  144.4450 C   0  0  0  0  0  2  0  0  0  0  0  0
  183.7710  178.7160  144.5610 O   0  0  0  0  0  1  0  0  0  0  0  0
  184.5820  178.0250  142.3520 C   0  0  0  0  0  2  0  0  0  0  0  0
  184.8800  178.4220  143.7810 C   0  0  0  0  0  0  0  0  0  0  0  0
  185.1220  179.4130  142.6730 C   0  0  0  0  0  2  0  0  0  0  0  0
  1  5  1  1  0  0  0
  2  4  1  0  0  0  0
  3 22  1  6  0  0  0
  3  1  1  0  0  0  0
  3  6  1  0  0  0  0
  4 39  1  1  0  0  0
  5  2  1  0  0  0  0
  6  4  1  0  0  0  0
  7 14  1  1  0  0  0
  7 10  1  0  0  0  0
  9 13  1  6  0  0  0
  9 11  1  0  0  0  0
  9 12  1  0  0  0  0
 10  8  1  0  0  0  0
 11  8  1  6  0  0  0
 11 12  1  0  0  0  0
 11  1  1  0  0  0  0
 13  7  1  0  0  0  0
 15 16  1  6  0  0  0
 15 20  1  0  0  0  0
 17 14  1  1  0  0  0
 17 15  1  0  0  0  0
 18 17  1  0  0  0  0
 18 15  1  0  0  0  0
 20 21  2  0  0  0  0
 20 19  1  0  0  0  0
 23 25  1  0  0  0  0
 23 22  1  0  0  0  0
 25 24  1  6  0  0  0
 26 27  2  0  0  0  0
 27 25  1  0  0  0  0
 27 35  1  0  0  0  0
 28 34  1  0  0  0  0
 29 28  1  0  0  0  0
 29 32  1  0  0  0  0
 32 30  1  0  0  0  0
 33 30  1  0  0  0  0
 33 36  1  6  0  0  0
 34 33  1  0  0  0  0
 35 28  1  0  0  0  0
 35 31  2  0  0  0  0
 36 37  1  0  0  0  0
 38 36  1  0  0  0  0
 39 41  1  0  0  0  0
 41 40  2  0  0  0  0
 42 41  1  0  0  0  0
 42 43  1  0  0  0  0
 45 47  1  0  0  0  0
 45 46  1  0  0  0  0
 46 43  1  0  0  0  0
 46 44  1  0  0  0  0
 47 46  1  0  0  0  0
M  END
>  <MODEL>
2

>  <REMARK>
 VINA RESULT:      -7.2      1.658      2.691
  Name = 
  15 active torsions:
  status: ('A' for Active; 'I' for Inactive)
    1  A    between atoms: C_1  and  C_30
    2  A    between atoms: C_4  and  C_32
    3  A    between atoms: C_8  and  C_18
    4  A    between atoms: C_10  and  C_22
    5  A    between atoms: C_15  and  C_19
    6  A    between atoms: C_15  and  C_34
    7  A    between atoms: C_23  and  C_44
    8  A    between atoms: O_24  and  C_40
    9  A    between atoms: O_24  and  C_47
   10  A    between atoms: C_29  and  C_39
   11  A    between atoms: C_29  and  C_42
   12  A    between atoms: C_32  and  C_35
   13  A    between atoms: C_34  and  C_42
   14  A    between atoms: C_40  and  C_41
   15  A    between atoms: C_44  and  C_47
                            x       y       z     vdW  Elec       q    Type
                         _______ _______ _______ _____ _____    ______ ____

>  <TORSDO>
F 15

$$$$
=
 OpenBabel10232411463D

 47 52  0  0  1  0  0  0  0  0999 V2000
  184.0200  178.0880  142.4260 C   0  0  1  0  0  3  0  0  0  0  0  0
  183.1670  179.2300  144.1270 O   0  0  0  0  0  0  0  0  0  0  0  0
  185.2360  179.0290  142.5400 C   0  0  1  0  0  3  0  0  0  0  0  0
  184.3530  179.5110  144.8520 C   0  0  2  0  0  3  0  0  0  0  0  0
  183.2820  178.0000  143.6360 O   0  0  0  0  0  0  0  0  0  0  0  0
  185.5970  179.2000  144.0160 C   0  0  0  0  0  2  0  0  0  0  0  0
  181.5690  179.5160  138.9170 C   0  0  1  0  0  3  0  0  0  0  0  0
  181.8240  179.1420  141.4480 C   0  0  0  0  0  2  0  0  0  0  0  0
  183.8690  178.6960  139.9010 C   0  0  1  0  0  3  0  0  0  0  0  0
  180.8890  179.1290  140.2390 C   0  0  0  0  0  2  0  0  0  0  0  0
  183.1390  178.3890  141.2060 C   0  0  1  0  0  0  0  0  0  0  0  0
  183.1740  177.3460  140.0960 C   0  0  0  0  0  2  0  0  0  0  0  0
  183.0930  179.6920  139.0120 C   0  0  0  0  0  2  0  0  0  0  0  0
  181.2370  178.5010  137.8350 C   0  0  0  0  0  2  0  0  0  0  0  0
  182.4770  177.1190  136.0890 C   0  0  1  0  0  0  0  0  0  0  0  0
  183.8350  176.8830  135.4580 C   0  0  0  0  0  1  0  0  0  0  0  0
  182.2990  178.4900  136.7390 C   0  0  1  0  0  3  0  0  0  0  0  0
  181.6510  178.1810  135.3910 C   0  0  0  0  0  2  0  0  0  0  0  0
  182.2730  175.1320  137.5920 O   0  0  0  0  0  1  0  0  0  0  0  0
  181.7130  175.9330  136.6060 C   0  0  0  0  0  0  0  0  0  0  0  0
  180.5700  175.6560  136.1520 O   0  0  0  0  0  0  0  0  0  0  0  0
  186.4300  178.4400  141.8070 C   0  0  0  0  0  2  0  0  0  0  0  0
  187.5650  178.0460  142.7540 C   0  0  0  0  0  2  0  0  0  0  0  0
  188.5630  175.8910  143.0960 O   0  0  0  0  0  1  0  0  0  0  0  0
  188.4910  176.9610  142.1950 C   0  0  2  0  0  3  0  0  0  0  0  0
  190.5320  178.1480  142.7930 C   0  0  0  0  0  2  0  0  0  0  0  0
  189.8690  177.4620  141.8720 C   0  0  0  0  0  0  0  0  0  0  0  0
  189.6580  176.9750  139.4130 N   0  0  0  0  0  0  0  0  0  0  0  0
  188.5960  177.9140  139.0730 C   0  0  0  0  0  2  0  0  0  0  0  0
  189.4430  177.8570  136.7360 C   0  0  0  0  0  2  0  0  0  0  0  0
  191.7450  177.3400  140.4120 O   0  0  0  0  0  0  0  0  0  0  0  0
  189.0670  178.7690  137.9030 C   0  0  0  0  0  2  0  0  0  0  0  0
  190.5510  176.8750  137.1420 C   0  0  1  0  0  3  0  0  0  0  0  0
  190.1030  176.0640  138.3640 C   0  0  0  0  0  2  0  0  0  0  0  0
  190.4880  177.2580  140.5480 C   0  0  0  0  0  0  0  0  0  0  0  0
  190.8850  175.9390  135.9830 C   0  0  0  0  0  3  0  0  0  0  0  0
  190.5020  176.5250  134.7730 O   0  0  0  0  0  1  0  0  0  0  0  0
  192.2550  175.6830  135.9550 O   0  0  0  0  0  1  0  0  0  0  0  0
  184.4090  178.7240  146.1640 C   0  0  0  0  0  2  0  0  0  0  0  0
  185.9220  179.9370  147.5760 O   0  0  0  0  0  0  0  0  0  0  0  0
  185.7030  178.8980  146.9000 C   0  0  0  0  0  0  0  0  0  0  0  0
  186.6140  177.8380  146.9080 O   0  0  0  0  0  0  0  0  0  0  0  0
  187.4530  177.5500  148.0240 C   0  0  0  0  0  2  0  0  0  0  0  0
  189.7280  178.4690  148.5590 O   0  0  0  0  0  1  0  0  0  0  0  0
  189.2950  177.9090  146.2110 C   0  0  0  0  0  2  0  0  0  0  0  0
  188.9140  177.7830  147.6690 C   0  0  0  0  0  0  0  0  0  0  0  0
  189.6000  176.6320  146.9830 C   0  0  0  0  0  2  0  0  0  0  0  0
  1  3  1  0  0  0  0
  1  5  1  1  0  0  0
  2  4  1  0  0  0  0
  3 22  1  6  0  0  0
  3  6  1  0  0  0  0
  4 39  1  1  0  0  0
  5  2  1  0  0  0  0
  6  4  1  0  0  0  0
  7 14  1  6  0  0  0
  7 13  1  0  0  0  0
  7 10  1  0  0  0  0
  9 13  1  6  0  0  0
  9 12  1  0  0  0  0
  9 11  1  0  0  0  0
 10  8  1  0  0  0  0
 11 12  1  6  0  0  0
 11  8  1  0  0  0  0
 11  1  1  0  0  0  0
 15 16  1  6  0  0  0
 15 20  1  0  0  0  0
 15 17  1  0  0  0  0
 17 14  1  1  0  0  0
 18 15  1  0  0  0  0
 18 17  1  0  0  0  0
 20 19  1  0  0  0  0
 21 20  2  0  0  0  0
 22 23  1  0  0  0  0
 25 23  1  0  0  0  0
 25 24  1  1  0  0  0
 27 25  1  0  0  0  0
 27 26  2  0  0  0  0
 28 35  1  0  0  0  0
 29 28  1  0  0  0  0
 30 33  1  0  0  0  0
 30 32  1  0  0  0  0
 31 35  2  0  0  0  0
 32 29  1  0  0  0  0
 33 36  1  6  0  0  0
 33 34  1  0  0  0  0
 34 28  1  0  0  0  0
 35 27  1  0  0  0  0
 37 36  1  0  0  0  0
 38 36  1  0  0  0  0
 39 41  1  0  0  0  0
 41 42  1  0  0  0  0
 41 40  2  0  0  0  0
 42 43  1  0  0  0  0
 45 47  1  0  0  0  0
 45 46  1  0  0  0  0
 46 43  1  0  0  0  0
 46 44  1  0  0  0  0
 47 46  1  0  0  0  0
M  END
>  <MODEL>
3

>  <REMARK>
 VINA RESULT:      -7.2      3.058      9.115
  Name = 
  15 active torsions:
  status: ('A' for Active; 'I' for Inactive)
    1  A    between atoms: C_1  and  C_30
    2  A    between atoms: C_4  and  C_32
    3  A    between atoms: C_8  and  C_18
    4  A    between atoms: C_10  and  C_22
    5  A    between atoms: C_15  and  C_19
    6  A    between atoms: C_15  and  C_34
    7  A    between atoms: C_23  and  C_44
    8  A    between atoms: O_24  and  C_40
    9  A    between atoms: O_24  and  C_47
   10  A    between atoms: C_29  and  C_39
   11  A    between atoms: C_29  and  C_42
   12  A    between atoms: C_32  and  C_35
   13  A    between atoms: C_34  and  C_42
   14  A    between atoms: C_40  and  C_41
   15  A    between atoms: C_44  and  C_47
                            x       y       z     vdW  Elec       q    Type
                         _______ _______ _______ _____ _____    ______ ____

>  <TORSDO>
F 15

$$$$
=
 OpenBabel10232411463D

 47 52  0  0  1  0  0  0  0  0999 V2000
  190.0220  174.7380  137.2360 C   0  0  1  0  0  3  0  0  0  0  0  0
  189.0620  173.0630  136.1400 O   0  0  0  0  0  0  0  0  0  0  0  0
  189.0290  175.6540  136.4930 C   0  0  1  0  0  3  0  0  0  0  0  0
  187.7240  173.5330  136.0990 C   0  0  2  0  0  3  0  0  0  0  0  0
  189.5650  173.3960  137.3250 O   0  0  0  0  0  0  0  0  0  0  0  0
  187.6440  175.0050  136.5090 C   0  0  0  0  0  2  0  0  0  0  0  0
  194.2020  175.6200  135.7840 C   0  0  1  0  0  3  0  0  0  0  0  0
  191.6650  175.5790  135.3690 C   0  0  0  0  0  2  0  0  0  0  0  0
  192.5580  175.0160  137.7480 C   0  0  1  0  0  3  0  0  0  0  0  0
  193.0610  175.3790  134.7830 C   0  0  0  0  0  2  0  0  0  0  0  0
  191.4570  174.8490  136.7030 C   0  0  1  0  0  0  0  0  0  0  0  0
  192.3730  173.6770  137.0290 C   0  0  0  0  0  2  0  0  0  0  0  0
  193.7400  175.8630  137.2290 C   0  0  0  0  0  2  0  0  0  0  0  0
  195.1890  174.4650  135.7480 C   0  0  0  0  0  2  0  0  0  0  0  0
  197.0170  174.0140  137.4660 C   0  0  1  0  0  0  0  0  0  0  0  0
  198.0030  174.6840  138.4040 C   0  0  0  0  0  1  0  0  0  0  0  0
  196.5510  174.8820  136.2980 C   0  0  1  0  0  3  0  0  0  0  0  0
  197.5650  173.7620  136.0760 C   0  0  0  0  0  2  0  0  0  0  0  0
  196.1150  171.6830  137.4360 O   0  0  0  0  0  0  0  0  0  0  0  0
  196.1190  172.9440  138.0180 C   0  0  0  0  0  0  0  0  0  0  0  0
  195.3660  173.1790  139.0010 O   0  0  0  0  0  1  0  0  0  0  0  0
  188.9450  177.0080  137.1800 C   0  0  0  0  0  2  0  0  0  0  0  0
  188.2380  176.9370  138.5350 C   0  0  0  0  0  2  0  0  0  0  0  0
  189.1040  179.1410  138.9160 O   0  0  0  0  0  1  0  0  0  0  0  0
  188.7610  177.9470  139.5610 C   0  0  2  0  0  3  0  0  0  0  0  0
  191.1010  177.3040  139.7660 C   0  0  0  0  0  2  0  0  0  0  0  0
  189.9230  177.4350  140.3620 C   0  0  0  0  0  0  0  0  0  0  0  0
  189.1090  177.8940  142.6970 N   0  0  0  0  0  0  0  0  0  0  0  0
  187.7430  178.3030  142.3990 C   0  0  0  0  0  2  0  0  0  0  0  0
  187.1520  177.6350  144.7200 C   0  0  0  0  0  2  0  0  0  0  0  0
  190.2540  175.9210  142.1680 O   0  0  0  0  0  0  0  0  0  0  0  0
  186.7940  177.4620  143.2450 C   0  0  0  0  0  2  0  0  0  0  0  0
  188.6030  177.2100  144.9870 C   0  0  1  0  0  3  0  0  0  0  0  0
  189.5510  178.0080  144.0830 C   0  0  0  0  0  2  0  0  0  0  0  0
  189.7860  177.0300  141.7750 C   0  0  0  0  0  0  0  0  0  0  0  0
  188.9620  177.4330  146.4540 C   0  0  0  0  0  3  0  0  0  0  0  0
  187.8790  177.0890  147.2660 O   0  0  0  0  0  1  0  0  0  0  0  0
  190.0630  176.6490  146.8000 O   0  0  0  0  0  1  0  0  0  0  0  0
  186.8090  172.7000  137.0000 C   0  0  0  0  0  2  0  0  0  0  0  0
  184.9810  171.4230  136.1170 O   0  0  0  0  0  0  0  0  0  0  0  0
  185.4210  172.5540  136.4540 C   0  0  0  0  0  0  0  0  0  0  0  0
  184.5910  173.6780  136.4290 O   0  0  0  0  0  0  0  0  0  0  0  0
  184.1350  174.3270  137.6130 C   0  0  0  0  0  2  0  0  0  0  0  0
  182.3050  176.0480  137.6020 O   0  0  0  0  0  1  0  0  0  0  0  0
  184.2110  176.4620  136.1150 C   0  0  0  0  0  2  0  0  0  0  0  0
  183.6190  175.7220  137.2930 C   0  0  0  0  0  0  0  0  0  0  0  0
  184.5950  176.8410  137.5390 C   0  0  0  0  0  2  0  0  0  0  0  0
  1  5  1  6  0  0  0
  2  5  1  0  0  0  0
  3  6  1  0  0  0  0
  3 22  1  1  0  0  0
  3  1  1  0  0  0  0
  4  2  1  0  0  0  0
  4  6  1  0  0  0  0
  4 39  1  1  0  0  0
  7 14  1  1  0  0  0
  7 13  1  0  0  0  0
  9 12  1  6  0  0  0
 10  8  1  0  0  0  0
 10  7  1  0  0  0  0
 11  8  1  6  0  0  0
 11 12  1  0  0  0  0
 11  1  1  0  0  0  0
 11  9  1  0  0  0  0
 13  9  1  0  0  0  0
 15 20  1  0  0  0  0
 15 16  1  1  0  0  0
 17 14  1  6  0  0  0
 17 15  1  0  0  0  0
 18 17  1  0  0  0  0
 18 15  1  0  0  0  0
 19 20  2  0  0  0  0
 20 21  1  0  0  0  0
 22 23  1  0  0  0  0
 23 25  1  0  0  0  0
 25 24  1  6  0  0  0
 25 27  1  0  0  0  0
 26 27  2  0  0  0  0
 27 35  1  0  0  0  0
 28 34  1  0  0  0  0
 29 28  1  0  0  0  0
 29 32  1  0  0  0  0
 30 33  1  0  0  0  0
 32 30  1  0  0  0  0
 33 36  1  1  0  0  0
 34 33  1  0  0  0  0
 35 31  2  0  0  0  0
 35 28  1  0  0  0  0
 36 38  1  0  0  0  0
 36 37  1  0  0  0  0
 40 41  2  0  0  0  0
 41 39  1  0  0  0  0
 42 41  1  0  0  0  0
 42 43  1  0  0  0  0
 45 46  1  0  0  0  0
 45 47  1  0  0  0  0
 46 47  1  0  0  0  0
 46 44  1  0  0  0  0
 46 43  1  0  0  0  0
M  END
>  <MODEL>
4

>  <REMARK>
 VINA RESULT:      -7.0      2.377      6.755
  Name = 
  15 active torsions:
  status: ('A' for Active; 'I' for Inactive)
    1  A    between atoms: C_1  and  C_30
    2  A    between atoms: C_4  and  C_32
    3  A    between atoms: C_8  and  C_18
    4  A    between atoms: C_10  and  C_22
    5  A    between atoms: C_15  and  C_19
    6  A    between atoms: C_15  and  C_34
    7  A    between atoms: C_23  and  C_44
    8  A    between atoms: O_24  and  C_40
    9  A    between atoms: O_24  and  C_47
   10  A    between atoms: C_29  and  C_39
   11  A    between atoms: C_29  and  C_42
   12  A    between atoms: C_32  and  C_35
   13  A    between atoms: C_34  and  C_42
   14  A    between atoms: C_40  and  C_41
   15  A    between atoms: C_44  and  C_47
                            x       y       z     vdW  Elec       q    Type
                         _______ _______ _______ _____ _____    ______ ____

>  <TORSDO>
F 15

$$$$
=
 OpenBabel10232411463D

 47 52  0  0  1  0  0  0  0  0999 V2000
  189.2050  177.3410  136.3300 C   0  0  1  0  0  3  0  0  0  0  0  0
  189.9390  175.5320  135.2760 O   0  0  0  0  0  0  0  0  0  0  0  0
  189.7770  176.7000  137.6100 C   0  0  1  0  0  3  0  0  0  0  0  0
  191.1200  175.2780  136.0190 C   0  0  2  0  0  3  0  0  0  0  0  0
  189.8230  176.8500  135.1490 O   0  0  0  0  0  0  0  0  0  0  0  0
  191.1550  176.1140  137.3010 C   0  0  0  0  0  2  0  0  0  0  0  0
  184.7560  176.6730  135.9850 C   0  0  1  0  0  3  0  0  0  0  0  0
  187.0200  177.1930  134.8830 C   0  0  0  0  0  2  0  0  0  0  0  0
  186.9670  176.5670  137.4090 C   0  0  1  0  0  3  0  0  0  0  0  0
  185.5150  177.4550  134.9030 C   0  0  0  0  0  2  0  0  0  0  0  0
  187.6720  177.2980  136.2680 C   0  0  1  0  0  0  0  0  0  0  0  0
  186.9470  178.0970  137.3430 C   0  0  0  0  0  2  0  0  0  0  0  0
  185.6560  175.8900  136.9540 C   0  0  0  0  0  2  0  0  0  0  0  0
  183.8450  177.6030  136.7690 C   0  0  0  0  0  2  0  0  0  0  0  0
  183.1790  178.0480  139.1890 C   0  0  1  0  0  0  0  0  0  0  0  0
  183.3700  177.5700  140.6150 C   0  0  0  0  0  1  0  0  0  0  0  0
  183.4600  176.9970  138.1160 C   0  0  1  0  0  3  0  0  0  0  0  0
  182.0240  177.3830  138.4670 C   0  0  0  0  0  2  0  0  0  0  0  0
  182.3440  180.2470  138.3430 O   0  0  0  0  0  0  0  0  0  0  0  0
  183.3830  179.5050  138.8900 C   0  0  0  0  0  0  0  0  0  0  0  0
  184.4880  180.0630  139.1270 O   0  0  0  0  0  1  0  0  0  0  0  0
  189.9210  177.7440  138.7050 C   0  0  0  0  0  2  0  0  0  0  0  0
  190.8950  177.3130  139.8040 C   0  0  0  0  0  2  0  0  0  0  0  0
  188.9430  177.5920  141.1690 O   0  0  0  0  0  1  0  0  0  0  0  0
  190.2240  177.0290  141.1510 C   0  0  2  0  0  3  0  0  0  0  0  0
  192.3450  177.5290  142.2390 C   0  0  0  0  0  2  0  0  0  0  0  0
  191.0220  177.5120  142.3270 C   0  0  0  0  0  0  0  0  0  0  0  0
  190.0880  176.9370  144.5900 N   0  0  0  0  0  0  0  0  0  0  0  0
  191.1720  176.1030  145.0930 C   0  0  0  0  0  2  0  0  0  0  0  0
  190.3970  176.6640  147.3880 C   0  0  0  0  0  2  0  0  0  0  0  0
  190.1080  179.1420  143.8020 O   0  0  0  0  0  0  0  0  0  0  0  0
  191.6040  176.6420  146.4510 C   0  0  0  0  0  2  0  0  0  0  0  0
  189.2730  177.5390  146.8130 C   0  0  1  0  0  3  0  0  0  0  0  0
  188.8890  177.0380  145.4160 C   0  0  0  0  0  2  0  0  0  0  0  0
  190.3840  177.9240  143.5930 C   0  0  0  0  0  0  0  0  0  0  0  0
  188.0560  177.5150  147.7340 C   0  0  0  0  0  3  0  0  0  0  0  0
  188.2730  178.3510  148.8330 O   0  0  0  0  0  1  0  0  0  0  0  0
  186.9250  177.9510  147.0440 O   0  0  0  0  0  1  0  0  0  0  0  0
  192.3760  175.5600  135.1910 C   0  0  0  0  0  2  0  0  0  0  0  0
  194.2730  176.5510  136.2740 O   0  0  0  0  0  0  0  0  0  0  0  0
  193.6390  175.4990  135.9960 C   0  0  0  0  0  0  0  0  0  0  0  0
  194.0380  174.2670  136.5220 O   0  0  0  0  0  0  0  0  0  0  0  0
  195.4040  173.9260  136.7360 C   0  0  0  0  0  2  0  0  0  0  0  0
  195.4000  172.2390  138.5970 O   0  0  0  0  0  1  0  0  0  0  0  0
  195.4530  174.6010  139.2570 C   0  0  0  0  0  2  0  0  0  0  0  0
  195.6380  173.5440  138.1910 C   0  0  0  0  0  0  0  0  0  0  0  0
  196.8500  174.1670  138.8320 C   0  0  0  0  0  2  0  0  0  0  0  0
  1  5  1  6  0  0  0
  1  3  1  0  0  0  0
  2  4  1  0  0  0  0
  3 22  1  1  0  0  0
  4 39  1  6  0  0  0
  4  6  1  0  0  0  0
  5  2  1  0  0  0  0
  6  3  1  0  0  0  0
  7 14  1  1  0  0  0
  7 13  1  0  0  0  0
  8 10  1  0  0  0  0
  9 13  1  6  0  0  0
 10  7  1  0  0  0  0
 11  8  1  6  0  0  0
 11  1  1  0  0  0  0
 11 12  1  0  0  0  0
 11  9  1  0  0  0  0
 12  9  1  0  0  0  0
 15 16  1  1  0  0  0
 17 14  1  6  0  0  0
 17 18  1  0  0  0  0
 17 15  1  0  0  0  0
 18 15  1  0  0  0  0
 19 20  2  0  0  0  0
 20 21  1  0  0  0  0
 20 15  1  0  0  0  0
 22 23  1  0  0  0  0
 23 25  1  0  0  0  0
 25 24  1  6  0  0  0
 25 27  1  0  0  0  0
 26 27  2  0  0  0  0
 27 35  1  0  0  0  0
 28 29  1  0  0  0  0
 28 34  1  0  0  0  0
 29 32  1  0  0  0  0
 32 30  1  0  0  0  0
 33 30  1  0  0  0  0
 33 36  1  1  0  0  0
 34 33  1  0  0  0  0
 35 31  2  0  0  0  0
 35 28  1  0  0  0  0
 36 37  1  0  0  0  0
 38 36  1  0  0  0  0
 39 41  1  0  0  0  0
 41 40  2  0  0  0  0
 41 42  1  0  0  0  0
 42 43  1  0  0  0  0
 43 46  1  0  0  0  0
 46 44  1  0  0  0  0
 46 47  1  0  0  0  0
 46 45  1  0  0  0  0
 47 45  1  0  0  0  0
M  END
>  <MODEL>
5

>  <REMARK>
 VINA RESULT:      -7.0      2.399      9.570
  Name = 
  15 active torsions:
  status: ('A' for Active; 'I' for Inactive)
    1  A    between atoms: C_1  and  C_30
    2  A    between atoms: C_4  and  C_32
    3  A    between atoms: C_8  and  C_18
    4  A    between atoms: C_10  and  C_22
    5  A    between atoms: C_15  and  C_19
    6  A    between atoms: C_15  and  C_34
    7  A    between atoms: C_23  and  C_44
    8  A    between atoms: O_24  and  C_40
    9  A    between atoms: O_24  and  C_47
   10  A    between atoms: C_29  and  C_39
   11  A    between atoms: C_29  and  C_42
   12  A    between atoms: C_32  and  C_35
   13  A    between atoms: C_34  and  C_42
   14  A    between atoms: C_40  and  C_41
   15  A    between atoms: C_44  and  C_47
                            x       y       z     vdW  Elec       q    Type
                         _______ _______ _______ _____ _____    ______ ____

>  <TORSDO>
F 15

$$$$
=
 OpenBabel10232411463D

 47 52  0  0  1  0  0  0  0  0999 V2000
  189.6220  177.9850  140.6770 C   0  0  1  0  0  3  0  0  0  0  0  0
  190.8790  176.2700  141.3100 O   0  0  0  0  0  0  0  0  0  0  0  0
  188.5390  177.3990  141.6050 C   0  0  1  0  0  3  0  0  0  0  0  0
  190.4520  176.1380  142.6560 C   0  0  2  0  0  3  0  0  0  0  0  0
  190.9320  177.5700  141.0340 O   0  0  0  0  0  0  0  0  0  0  0  0
  189.1910  176.9640  142.9180 C   0  0  0  0  0  2  0  0  0  0  0  0
  189.2140  177.6290  136.1970 C   0  0  1  0  0  3  0  0  0  0  0  0
  189.0170  179.0280  138.3450 C   0  0  0  0  0  2  0  0  0  0  0  0
  190.0640  176.6500  138.4870 C   0  0  1  0  0  3  0  0  0  0  0  0
  188.4350  178.7040  136.9690 C   0  0  0  0  0  2  0  0  0  0  0  0
  189.3130  177.7800  139.1870 C   0  0  1  0  0  0  0  0  0  0  0  0
  188.5830  176.4900  138.8380 C   0  0  0  0  0  2  0  0  0  0  0  0
  190.3400  176.9580  136.9990 C   0  0  0  0  0  2  0  0  0  0  0  0
  188.2640  176.5700  135.6620 C   0  0  0  0  0  2  0  0  0  0  0  0
  188.0020  174.0360  135.7500 C   0  0  1  0  0  0  0  0  0  0  0  0
  188.6640  172.7560  136.2230 C   0  0  0  0  0  1  0  0  0  0  0  0
  188.9540  175.2130  135.5450 C   0  0  1  0  0  3  0  0  0  0  0  0
  188.3950  174.4490  134.3460 C   0  0  0  0  0  2  0  0  0  0  0  0
  185.6210  174.4730  135.1290 O   0  0  0  0  0  0  0  0  0  0  0  0
  186.5690  174.2800  136.1250 C   0  0  0  0  0  0  0  0  0  0  0  0
  186.2170  174.3160  137.3350 O   0  0  0  0  0  1  0  0  0  0  0  0
  187.4780  178.4460  141.9050 C   0  0  0  0  0  2  0  0  0  0  0  0
  186.2800  177.8680  142.6620 C   0  0  0  0  0  2  0  0  0  0  0  0
  184.9460  178.7550  144.4470 O   0  0  0  0  0  1  0  0  0  0  0  0
  185.2520  178.9190  143.0910 C   0  0  2  0  0  3  0  0  0  0  0  0
  182.8250  178.8560  142.8900 C   0  0  0  0  0  2  0  0  0  0  0  0
  183.9960  178.8940  142.2680 C   0  0  0  0  0  0  0  0  0  0  0  0
  183.1460  177.9760  140.0870 N   0  0  0  0  0  0  0  0  0  0  0  0
  181.7120  178.0760  140.3270 C   0  0  0  0  0  2  0  0  0  0  0  0
  181.4110  178.1240  137.8590 C   0  0  0  0  0  2  0  0  0  0  0  0
  184.8150  179.6170  140.1530 O   0  0  0  0  0  0  0  0  0  0  0  0
  181.0820  178.8400  139.1690 C   0  0  0  0  0  2  0  0  0  0  0  0
  182.9300  178.0260  137.6540 C   0  0  1  0  0  3  0  0  0  0  0  0
  183.5700  177.3190  138.8550 C   0  0  0  0  0  2  0  0  0  0  0  0
  184.0250  178.8610  140.7930 C   0  0  0  0  0  0  0  0  0  0  0  0
  183.2450  177.2680  136.3670 C   0  0  0  0  0  3  0  0  0  0  0  0
  182.4710  177.7690  135.3180 O   0  0  0  0  0  1  0  0  0  0  0  0
  184.5950  177.4080  136.0480 O   0  0  0  0  0  1  0  0  0  0  0  0
  191.5490  176.5560  143.6370 C   0  0  0  0  0  2  0  0  0  0  0  0
  190.8080  178.7860  144.1150 O   0  0  0  0  0  0  0  0  0  0  0  0
  191.1240  177.6540  144.5650 C   0  0  0  0  0  0  0  0  0  0  0  0
  190.9830  177.3630  145.9240 O   0  0  0  0  0  0  0  0  0  0  0  0
  189.8870  176.6140  146.4440 C   0  0  0  0  0  2  0  0  0  0  0  0
  187.8930  178.0610  145.9570 O   0  0  0  0  0  1  0  0  0  0  0  0
  189.0020  178.4110  148.1160 C   0  0  0  0  0  2  0  0  0  0  0  0
  188.7720  177.5450  146.8980 C   0  0  0  0  0  0  0  0  0  0  0  0
  188.1170  177.1740  148.2020 C   0  0  0  0  0  2  0  0  0  0  0  0
  1  5  1  1  0  0  0
  1  3  1  0  0  0  0
  2  4  1  0  0  0  0
  3 22  1  1  0  0  0
  3  6  1  0  0  0  0
  4  6  1  0  0  0  0
  4 39  1  1  0  0  0
  5  2  1  0  0  0  0
  7 14  1  1  0  0  0
  7 10  1  0  0  0  0
  7 13  1  0  0  0  0
  9 13  1  6  0  0  0
  9 12  1  0  0  0  0
  9 11  1  0  0  0  0
 10  8  1  0  0  0  0
 11  8  1  6  0  0  0
 11  1  1  0  0  0  0
 12 11  1  0  0  0  0
 15 20  1  0  0  0  0
 15 16  1  1  0  0  0
 17 14  1  6  0  0  0
 17 15  1  0  0  0  0
 18 17  1  0  0  0  0
 18 15  1  0  0  0  0
 19 20  2  0  0  0  0
 20 21  1  0  0  0  0
 22 23  1  0  0  0  0
 23 25  1  0  0  0  0
 25 24  1  1  0  0  0
 27 26  2  0  0  0  0
 27 25  1  0  0  0  0
 28 29  1  0  0  0  0
 28 35  1  0  0  0  0
 30 32  1  0  0  0  0
 31 35  2  0  0  0  0
 32 29  1  0  0  0  0
 33 36  1  6  0  0  0
 33 30  1  0  0  0  0
 33 34  1  0  0  0  0
 34 28  1  0  0  0  0
 35 27  1  0  0  0  0
 37 36  1  0  0  0  0
 38 36  1  0  0  0  0
 39 41  1  0  0  0  0
 40 41  2  0  0  0  0
 41 42  1  0  0  0  0
 42 43  1  0  0  0  0
 43 46  1  0  0  0  0
 44 46  1  0  0  0  0
 45 47  1  0  0  0  0
 46 45  1  0  0  0  0
 46 47  1  0  0  0  0
M  END
>  <MODEL>
6

>  <REMARK>
 VINA RESULT:      -7.0      3.271      5.112
  Name = 
  15 active torsions:
  status: ('A' for Active; 'I' for Inactive)
    1  A    between atoms: C_1  and  C_30
    2  A    between atoms: C_4  and  C_32
    3  A    between atoms: C_8  and  C_18
    4  A    between atoms: C_10  and  C_22
    5  A    between atoms: C_15  and  C_19
    6  A    between atoms: C_15  and  C_34
    7  A    between atoms: C_23  and  C_44
    8  A    between atoms: O_24  and  C_40
    9  A    between atoms: O_24  and  C_47
   10  A    between atoms: C_29  and  C_39
   11  A    between atoms: C_29  and  C_42
   12  A    between atoms: C_32  and  C_35
   13  A    between atoms: C_34  and  C_42
   14  A    between atoms: C_40  and  C_41
   15  A    between atoms: C_44  and  C_47
                            x       y       z     vdW  Elec       q    Type
                         _______ _______ _______ _____ _____    ______ ____

>  <TORSDO>
F 15

$$$$
=
 OpenBabel10232411463D

 47 52  0  0  1  0  0  0  0  0999 V2000
  189.5880  176.6340  140.0940 C   0  0  1  0  0  3  0  0  0  0  0  0
  191.7010  176.6850  139.4190 O   0  0  0  0  0  0  0  0  0  0  0  0
  189.3850  177.8830  139.2150 C   0  0  1  0  0  3  0  0  0  0  0  0
  191.5220  177.1530  138.0920 C   0  0  2  0  0  3  0  0  0  0  0  0
  190.7000  175.8510  139.6860 O   0  0  0  0  0  0  0  0  0  0  0  0
  190.0980  177.6720  137.8780 C   0  0  0  0  0  2  0  0  0  0  0  0
  190.1420  177.7530  144.4300 C   0  0  1  0  0  3  0  0  0  0  0  0
  190.4960  176.0950  142.4970 C   0  0  0  0  0  2  0  0  0  0  0  0
  189.4500  178.4210  141.9810 C   0  0  1  0  0  3  0  0  0  0  0  0
  190.2140  176.2830  143.9870 C   0  0  0  0  0  2  0  0  0  0  0  0
  189.5960  176.9500  141.5960 C   0  0  1  0  0  0  0  0  0  0  0  0
  188.2780  177.4540  142.1710 C   0  0  0  0  0  2  0  0  0  0  0  0
  190.2080  178.7690  143.2800 C   0  0  0  0  0  2  0  0  0  0  0  0
  188.8890  177.9950  145.2570 C   0  0  0  0  0  2  0  0  0  0  0  0
  187.9040  177.8860  147.6050 C   0  0  1  0  0  0  0  0  0  0  0  0
  188.1320  178.3030  149.0450 C   0  0  0  0  0  1  0  0  0  0  0  0
  189.1670  177.8200  146.7480 C   0  0  1  0  0  3  0  0  0  0  0  0
  188.5050  176.5400  147.2530 C   0  0  0  0  0  2  0  0  0  0  0  0
  185.9690  179.4190  147.2150 O   0  0  0  0  0  1  0  0  0  0  0  0
  186.5770  178.1940  146.9730 C   0  0  0  0  0  0  0  0  0  0  0  0
  186.0080  177.3520  146.2280 O   0  0  0  0  0  0  0  0  0  0  0  0
  187.9050  178.1110  138.9530 C   0  0  0  0  0  2  0  0  0  0  0  0
  187.5070  177.7880  137.5110 C   0  0  0  0  0  2  0  0  0  0  0  0
  187.0910  175.4970  136.9350 O   0  0  0  0  0  1  0  0  0  0  0  0
  186.4700  176.6670  137.3890 C   0  0  2  0  0  3  0  0  0  0  0  0
  185.5510  177.3300  135.2340 C   0  0  0  0  0  2  0  0  0  0  0  0
  185.3130  177.0200  136.5010 C   0  0  0  0  0  0  0  0  0  0  0  0
  183.6830  177.4610  138.3650 N   0  0  0  0  0  0  0  0  0  0  0  0
  184.1970  178.7410  138.8360 C   0  0  0  0  0  2  0  0  0  0  0  0
  181.9280  179.1950  139.7460 C   0  0  0  0  0  2  0  0  0  0  0  0
  182.9570  176.8050  136.2380 O   0  0  0  0  0  0  0  0  0  0  0  0
  183.0480  179.7410  138.8610 C   0  0  0  0  0  2  0  0  0  0  0  0
  181.4280  177.8400  139.2250 C   0  0  1  0  0  3  0  0  0  0  0  0
  182.6010  176.8550  139.1340 C   0  0  0  0  0  2  0  0  0  0  0  0
  183.9270  177.0800  137.0050 C   0  0  0  0  0  0  0  0  0  0  0  0
  180.3440  177.2830  140.1450 C   0  0  0  0  0  3  0  0  0  0  0  0
  180.4520  175.8920  140.2210 O   0  0  0  0  0  1  0  0  0  0  0  0
  180.4780  177.8250  141.4230 O   0  0  0  0  0  1  0  0  0  0  0  0
  191.8280  176.0610  137.0650 C   0  0  0  0  0  2  0  0  0  0  0  0
  194.0490  176.9130  136.7570 O   0  0  0  0  0  0  0  0  0  0  0  0
  193.2930  175.9060  136.7880 C   0  0  0  0  0  0  0  0  0  0  0  0
  193.8180  174.6170  136.6730 O   0  0  0  0  0  0  0  0  0  0  0  0
  193.8680  173.7030  137.7650 C   0  0  0  0  0  2  0  0  0  0  0  0
  195.7730  173.8760  139.3940 O   0  0  0  0  0  1  0  0  0  0  0  0
  196.3560  173.3170  137.0780 C   0  0  0  0  0  2  0  0  0  0  0  0
  195.3100  173.4270  138.1650 C   0  0  0  0  0  0  0  0  0  0  0  0
  195.8350  172.0690  137.7790 C   0  0  0  0  0  2  0  0  0  0  0  0
  1  5  1  6  0  0  0
  1 11  1  0  0  0  0
  2  5  1  0  0  0  0
  3 22  1  6  0  0  0
  3  1  1  0  0  0  0
  4 39  1  6  0  0  0
  4  2  1  0  0  0  0
  6  4  1  0  0  0  0
  6  3  1  0  0  0  0
  7 14  1  6  0  0  0
  8 10  1  0  0  0  0
  9 12  1  1  0  0  0
  9 13  1  0  0  0  0
 10  7  1  0  0  0  0
 11  9  1  0  0  0  0
 11 12  1  1  0  0  0
 11  8  1  0  0  0  0
 13  7  1  0  0  0  0
 15 16  1  1  0  0  0
 17 14  1  6  0  0  0
 17 18  1  0  0  0  0
 17 15  1  0  0  0  0
 18 15  1  0  0  0  0
 20 19  1  0  0  0  0
 20 15  1  0  0  0  0
 21 20  2  0  0  0  0
 23 22  1  0  0  0  0
 25 24  1  6  0  0  0
 25 23  1  0  0  0  0
 26 27  2  0  0  0  0
 27 35  1  0  0  0  0
 27 25  1  0  0  0  0
 28 29  1  0  0  0  0
 28 34  1  0  0  0  0
 29 32  1  0  0  0  0
 31 35  2  0  0  0  0
 32 30  1  0  0  0  0
 33 30  1  0  0  0  0
 33 36  1  1  0  0  0
 34 33  1  0  0  0  0
 35 28  1  0  0  0  0
 36 37  1  0  0  0  0
 36 38  1  0  0  0  0
 40 41  2  0  0  0  0
 41 39  1  0  0  0  0
 42 41  1  0  0  0  0
 42 43  1  0  0  0  0
 43 46  1  0  0  0  0
 45 47  1  0  0  0  0
 45 46  1  0  0  0  0
 46 44  1  0  0  0  0
 47 46  1  0  0  0  0
M  END
>  <MODEL>
7

>  <REMARK>
 VINA RESULT:      -6.9      1.677      7.861
  Name = 
  15 active torsions:
  status: ('A' for Active; 'I' for Inactive)
    1  A    between atoms: C_1  and  C_30
    2  A    between atoms: C_4  and  C_32
    3  A    between atoms: C_8  and  C_18
    4  A    between atoms: C_10  and  C_22
    5  A    between atoms: C_15  and  C_19
    6  A    between atoms: C_15  and  C_34
    7  A    between atoms: C_23  and  C_44
    8  A    between atoms: O_24  and  C_40
    9  A    between atoms: O_24  and  C_47
   10  A    between atoms: C_29  and  C_39
   11  A    between atoms: C_29  and  C_42
   12  A    between atoms: C_32  and  C_35
   13  A    between atoms: C_34  and  C_42
   14  A    between atoms: C_40  and  C_41
   15  A    between atoms: C_44  and  C_47
                            x       y       z     vdW  Elec       q    Type
                         _______ _______ _______ _____ _____    ______ ____

>  <TORSDO>
F 15

$$$$
=
 OpenBabel10232411463D

 47 52  0  0  1  0  0  0  0  0999 V2000
  189.4960  177.4160  136.3810 C   0  0  1  0  0  3  0  0  0  0  0  0
  190.2410  175.8160  135.0370 O   0  0  0  0  0  0  0  0  0  0  0  0
  190.0590  176.5650  137.5360 C   0  0  1  0  0  3  0  0  0  0  0  0
  191.4180  175.4400  135.7340 C   0  0  2  0  0  3  0  0  0  0  0  0
  190.1230  177.1360  135.1390 O   0  0  0  0  0  0  0  0  0  0  0  0
  191.4410  176.0420  137.1410 C   0  0  0  0  0  2  0  0  0  0  0  0
  185.0490  176.7920  135.9380 C   0  0  1  0  0  3  0  0  0  0  0  0
  187.3240  177.3990  134.9060 C   0  0  0  0  0  2  0  0  0  0  0  0
  187.2460  176.5580  137.3680 C   0  0  1  0  0  3  0  0  0  0  0  0
  185.8200  177.6640  134.9340 C   0  0  0  0  0  2  0  0  0  0  0  0
  187.9630  177.3820  136.3010 C   0  0  1  0  0  0  0  0  0  0  0  0
  187.2290  178.0870  137.4350 C   0  0  0  0  0  2  0  0  0  0  0  0
  185.9380  175.9260  136.8440 C   0  0  0  0  0  2  0  0  0  0  0  0
  184.1320  177.6540  136.7910 C   0  0  0  0  0  2  0  0  0  0  0  0
  183.1580  177.8680  139.1360 C   0  0  1  0  0  0  0  0  0  0  0  0
  183.2840  177.3660  140.5610 C   0  0  0  0  0  1  0  0  0  0  0  0
  183.7250  176.9310  138.0720 C   0  0  1  0  0  3  0  0  0  0  0  0
  182.2160  177.0490  138.2770 C   0  0  0  0  0  2  0  0  0  0  0  0
  184.2400  180.1190  139.2370 O   0  0  0  0  0  1  0  0  0  0  0  0
  183.1330  179.3510  138.9000 C   0  0  0  0  0  0  0  0  0  0  0  0
  182.1170  179.9070  138.4020 O   0  0  0  0  0  0  0  0  0  0  0  0
  190.1930  177.4050  138.7960 C   0  0  0  0  0  2  0  0  0  0  0  0
  190.2040  176.5570  140.0700 C   0  0  0  0  0  2  0  0  0  0  0  0
  192.1210  177.3360  141.2810 O   0  0  0  0  0  1  0  0  0  0  0  0
  190.7220  177.3000  141.3050 C   0  0  2  0  0  3  0  0  0  0  0  0
  191.1190  176.1400  143.4100 C   0  0  0  0  0  2  0  0  0  0  0  0
  190.2390  176.7120  142.5990 C   0  0  0  0  0  0  0  0  0  0  0  0
  188.1010  177.9490  143.0720 N   0  0  0  0  0  0  0  0  0  0  0  0
  188.0720  178.8310  141.9130 C   0  0  0  0  0  2  0  0  0  0  0  0
  185.6090  178.9800  142.2210 C   0  0  0  0  0  2  0  0  0  0  0  0
  188.2140  175.6130  143.2010 O   0  0  0  0  0  0  0  0  0  0  0  0
  186.7240  178.6740  141.2210 C   0  0  0  0  0  2  0  0  0  0  0  0
  185.6860  178.0400  143.4330 C   0  0  1  0  0  3  0  0  0  0  0  0
  187.0700  178.1480  144.0860 C   0  0  0  0  0  2  0  0  0  0  0  0
  188.8110  176.7070  142.9750 C   0  0  0  0  0  0  0  0  0  0  0  0
  184.5980  178.3870  144.4460 C   0  0  0  0  0  3  0  0  0  0  0  0
  185.1610  179.0360  145.5470 O   0  0  0  0  0  1  0  0  0  0  0  0
  183.6470  179.2200  143.8580 O   0  0  0  0  0  1  0  0  0  0  0  0
  192.6790  175.8600  134.9770 C   0  0  0  0  0  2  0  0  0  0  0  0
  194.5620  176.7330  136.1780 O   0  0  0  0  0  0  0  0  0  0  0  0
  193.9300  175.7160  135.7890 C   0  0  0  0  0  0  0  0  0  0  0  0
  194.3200  174.4370  136.1940 O   0  0  0  0  0  0  0  0  0  0  0  0
  194.3630  174.0400  137.5620 C   0  0  0  0  0  2  0  0  0  0  0  0
  196.1020  173.7910  139.3570 O   0  0  0  0  0  1  0  0  0  0  0  0
  196.9220  174.2270  137.0870 C   0  0  0  0  0  2  0  0  0  0  0  0
  195.7990  173.7960  138.0030 C   0  0  0  0  0  0  0  0  0  0  0  0
  196.5460  172.7560  137.2100 C   0  0  0  0  0  2  0  0  0  0  0  0
  1  5  1  6  0  0  0
  1  3  1  0  0  0  0
  2  5  1  0  0  0  0
  2  4  1  0  0  0  0
  3 22  1  1  0  0  0
  4 39  1  6  0  0  0
  4  6  1  0  0  0  0
  6  3  1  0  0  0  0
  7 14  1  1  0  0  0
  7 13  1  0  0  0  0
  8 10  1  0  0  0  0
  9 13  1  6  0  0  0
  9 12  1  0  0  0  0
 10  7  1  0  0  0  0
 11  8  1  6  0  0  0
 11  1  1  0  0  0  0
 11  9  1  0  0  0  0
 11 12  1  0  0  0  0
 15 16  1  1  0  0  0
 17 14  1  6  0  0  0
 17 18  1  0  0  0  0
 17 15  1  0  0  0  0
 18 15  1  0  0  0  0
 20 15  1  0  0  0  0
 20 19  1  0  0  0  0
 21 20  2  0  0  0  0
 22 23  1  0  0  0  0
 23 25  1  0  0  0  0
 25 24  1  1  0  0  0
 25 27  1  0  0  0  0
 27 35  1  0  0  0  0
 27 26  2  0  0  0  0
 28 34  1  0  0  0  0
 29 28  1  0  0  0  0
 30 33  1  0  0  0  0
 32 29  1  0  0  0  0
 32 30  1  0  0  0  0
 33 34  1  0  0  0  0
 33 36  1  1  0  0  0
 35 28  1  0  0  0  0
 35 31  2  0  0  0  0
 36 37  1  0  0  0  0
 38 36  1  0  0  0  0
 39 41  1  0  0  0  0
 41 40  2  0  0  0  0
 41 42  1  0  0  0  0
 42 43  1  0  0  0  0
 43 46  1  0  0  0  0
 45 47  1  0  0  0  0
 45 46  1  0  0  0  0
 46 44  1  0  0  0  0
 47 46  1  0  0  0  0
M  END
>  <MODEL>
8

>  <REMARK>
 VINA RESULT:      -6.9      2.431      8.844
  Name = 
  15 active torsions:
  status: ('A' for Active; 'I' for Inactive)
    1  A    between atoms: C_1  and  C_30
    2  A    between atoms: C_4  and  C_32
    3  A    between atoms: C_8  and  C_18
    4  A    between atoms: C_10  and  C_22
    5  A    between atoms: C_15  and  C_19
    6  A    between atoms: C_15  and  C_34
    7  A    between atoms: C_23  and  C_44
    8  A    between atoms: O_24  and  C_40
    9  A    between atoms: O_24  and  C_47
   10  A    between atoms: C_29  and  C_39
   11  A    between atoms: C_29  and  C_42
   12  A    between atoms: C_32  and  C_35
   13  A    between atoms: C_34  and  C_42
   14  A    between atoms: C_40  and  C_41
   15  A    between atoms: C_44  and  C_47
                            x       y       z     vdW  Elec       q    Type
                         _______ _______ _______ _____ _____    ______ ____

>  <TORSDO>
F 15

$$$$
=
 OpenBabel10232411463D

 47 52  0  0  1  0  0  0  0  0999 V2000
  189.3990  176.6540  140.1960 C   0  0  1  0  0  3  0  0  0  0  0  0
  191.4700  176.8460  139.4220 O   0  0  0  0  0  0  0  0  0  0  0  0
  189.0730  177.8860  139.3290 C   0  0  1  0  0  3  0  0  0  0  0  0
  191.1980  177.2990  138.1060 C   0  0  2  0  0  3  0  0  0  0  0  0
  190.5410  175.9470  139.7340 O   0  0  0  0  0  0  0  0  0  0  0  0
  189.7340  177.7220  137.9600 C   0  0  0  0  0  2  0  0  0  0  0  0
  190.1030  177.7630  144.5130 C   0  0  1  0  0  3  0  0  0  0  0  0
  190.3570  176.0930  142.5750 C   0  0  0  0  0  2  0  0  0  0  0  0
  189.3640  178.4470  142.0820 C   0  0  1  0  0  3  0  0  0  0  0  0
  190.1200  176.2910  144.0710 C   0  0  0  0  0  2  0  0  0  0  0  0
  189.4580  176.9730  141.6960 C   0  0  1  0  0  0  0  0  0  0  0  0
  188.1710  177.5150  142.3050 C   0  0  0  0  0  2  0  0  0  0  0  0
  190.1680  178.7750  143.3590 C   0  0  0  0  0  2  0  0  0  0  0  0
  188.8810  178.0420  145.3730 C   0  0  0  0  0  2  0  0  0  0  0  0
  187.9490  177.9500  147.7440 C   0  0  1  0  0  0  0  0  0  0  0  0
  188.2310  178.3410  149.1820 C   0  0  0  0  0  1  0  0  0  0  0  0
  189.1870  177.8400  146.8550 C   0  0  1  0  0  3  0  0  0  0  0  0
  188.4820  176.5830  147.3630 C   0  0  0  0  0  2  0  0  0  0  0  0
  185.9690  177.4280  146.3100 O   0  0  0  0  0  0  0  0  0  0  0  0
  186.6220  178.3230  147.1480 C   0  0  0  0  0  0  0  0  0  0  0  0
  186.0960  179.4400  147.3970 O   0  0  0  0  0  1  0  0  0  0  0  0
  187.5700  178.0140  139.1380 C   0  0  0  0  0  2  0  0  0  0  0  0
  187.1480  177.8510  137.6760 C   0  0  0  0  0  2  0  0  0  0  0  0
  186.7660  175.9230  136.3020 O   0  0  0  0  0  1  0  0  0  0  0  0
  186.2780  176.6180  137.4150 C   0  0  2  0  0  3  0  0  0  0  0  0
  184.3860  177.2370  136.0130 C   0  0  0  0  0  2  0  0  0  0  0  0
  184.8250  176.9430  137.2290 C   0  0  0  0  0  0  0  0  0  0  0  0
  183.7420  178.2030  139.1170 N   0  0  0  0  0  0  0  0  0  0  0  0
  183.3840  179.4280  138.4140 C   0  0  0  0  0  2  0  0  0  0  0  0
  181.6250  179.7760  140.1370 C   0  0  0  0  0  2  0  0  0  0  0  0
  183.1890  175.9730  138.6620 O   0  0  0  0  0  0  0  0  0  0  0  0
  181.9000  179.6940  138.6360 C   0  0  0  0  0  2  0  0  0  0  0  0
  182.0320  178.4720  140.8410 C   0  0  1  0  0  3  0  0  0  0  0  0
  183.5080  178.1690  140.5570 C   0  0  0  0  0  2  0  0  0  0  0  0
  183.8800  176.9920  138.3630 C   0  0  0  0  0  0  0  0  0  0  0  0
  181.7960  178.5840  142.3450 C   0  0  0  0  0  3  0  0  0  0  0  0
  183.0110  178.7890  143.0030 O   0  0  0  0  0  1  0  0  0  0  0  0
  180.9410  179.6520  142.6160 O   0  0  0  0  0  1  0  0  0  0  0  0
  191.5270  176.2290  137.0630 C   0  0  0  0  0  2  0  0  0  0  0  0
  193.8380  176.8650  136.9700 O   0  0  0  0  0  0  0  0  0  0  0  0
  192.9930  175.9320  136.9670 C   0  0  0  0  0  0  0  0  0  0  0  0
  193.4070  174.5970  136.9810 O   0  0  0  0  0  0  0  0  0  0  0  0
  194.5950  174.1500  136.3330 C   0  0  0  0  0  2  0  0  0  0  0  0
  196.4870  175.0230  137.7350 O   0  0  0  0  0  1  0  0  0  0  0  0
  196.3980  172.5950  137.4020 C   0  0  0  0  0  2  0  0  0  0  0  0
  195.7100  173.9410  137.3470 C   0  0  0  0  0  0  0  0  0  0  0  0
  195.3880  172.9920  138.4710 C   0  0  0  0  0  2  0  0  0  0  0  0
  1  5  1  6  0  0  0
  1 11  1  0  0  0  0
  2  5  1  0  0  0  0
  3 22  1  6  0  0  0
  3  1  1  0  0  0  0
  4 39  1  6  0  0  0
  4  2  1  0  0  0  0
  6  4  1  0  0  0  0
  6  3  1  0  0  0  0
  7 14  1  6  0  0  0
  8 10  1  0  0  0  0
  9 12  1  1  0  0  0
  9 13  1  0  0  0  0
 10  7  1  0  0  0  0
 11  9  1  0  0  0  0
 11 12  1  1  0  0  0
 11  8  1  0  0  0  0
 13  7  1  0  0  0  0
 15 16  1  1  0  0  0
 17 14  1  6  0  0  0
 17 18  1  0  0  0  0
 17 15  1  0  0  0  0
 18 15  1  0  0  0  0
 19 20  2  0  0  0  0
 20 21  1  0  0  0  0
 20 15  1  0  0  0  0
 23 22  1  0  0  0  0
 25 24  1  6  0  0  0
 25 23  1  0  0  0  0
 26 27  2  0  0  0  0
 27 25  1  0  0  0  0
 27 35  1  0  0  0  0
 28 34  1  0  0  0  0
 29 32  1  0  0  0  0
 29 28  1  0  0  0  0
 30 33  1  0  0  0  0
 32 30  1  0  0  0  0
 33 36  1  1  0  0  0
 34 33  1  0  0  0  0
 35 31  2  0  0  0  0
 35 28  1  0  0  0  0
 36 38  1  0  0  0  0
 36 37  1  0  0  0  0
 41 40  2  0  0  0  0
 41 42  1  0  0  0  0
 41 39  1  0  0  0  0
 43 42  1  0  0  0  0
 43 46  1  0  0  0  0
 45 47  1  0  0  0  0
 46 45  1  0  0  0  0
 46 44  1  0  0  0  0
 46 47  1  0  0  0  0
M  END
>  <MODEL>
9

>  <REMARK>
 VINA RESULT:      -6.9      1.906      8.037
  Name = 
  15 active torsions:
  status: ('A' for Active; 'I' for Inactive)
    1  A    between atoms: C_1  and  C_30
    2  A    between atoms: C_4  and  C_32
    3  A    between atoms: C_8  and  C_18
    4  A    between atoms: C_10  and  C_22
    5  A    between atoms: C_15  and  C_19
    6  A    between atoms: C_15  and  C_34
    7  A    between atoms: C_23  and  C_44
    8  A    between atoms: O_24  and  C_40
    9  A    between atoms: O_24  and  C_47
   10  A    between atoms: C_29  and  C_39
   11  A    between atoms: C_29  and  C_42
   12  A    between atoms: C_32  and  C_35
   13  A    between atoms: C_34  and  C_42
   14  A    between atoms: C_40  and  C_41
   15  A    between atoms: C_44  and  C_47
                            x       y       z     vdW  Elec       q    Type
                         _______ _______ _______ _____ _____    ______ ____

>  <TORSDO>
F 15

$$$$
