=
 OpenBabel10232410313D

 43 48  0  0  1  0  0  0  0  0999 V2000
  187.2690  179.8530  142.4590 O   0  0  0  0  0  0  0  0  0  0  0  0
  187.3060  178.7900  141.7810 C   0  0  0  0  0  0  0  0  0  0  0  0
  188.5140  178.0010  141.7600 N   0  0  0  0  0  0  0  0  0  0  0  0
  190.1670  175.7750  142.8120 C   0  0  0  0  0  1  0  0  0  0  0  0
  189.6520  178.3960  142.6090 C   0  0  2  0  0  3  0  0  0  0  0  0
  190.4500  177.2230  143.1960 C   0  0  2  0  0  0  0  0  0  0  0  0
  191.7900  177.5330  143.4250 O   0  0  0  0  0  1  0  0  0  0  0  0
  189.5030  178.0000  144.1010 C   0  0  2  0  0  3  0  0  0  0  0  0
  187.8790  176.1180  144.0090 O   0  0  0  0  0  1  0  0  0  0  0  0
  188.1510  177.3770  144.5460 C   0  0  1  0  0  3  0  0  0  0  0  0
  188.0850  177.2980  146.0700 C   0  0  0  0  0  2  0  0  0  0  0  0
  189.3780  177.7480  146.7500 C   0  0  1  0  0  3  0  0  0  0  0  0
  189.1020  178.4400  147.9340 O   0  0  0  0  0  1  0  0  0  0  0  0
  190.3000  176.5690  147.0370 C   0  0  0  0  0  1  0  0  0  0  0  0
  186.0310  178.2930  141.1340 C   0  0  2  0  0  3  0  0  0  0  0  0
  184.8770  179.2590  141.3390 C   0  0  0  0  0  2  0  0  0  0  0  0
  184.8800  177.9520  142.0990 C   0  0  2  0  0  3  0  0  0  0  0  0
  185.2060  178.2050  143.4980 N   0  0  0  0  0  2  0  0  0  0  0  0
  184.2360  180.5950  144.0820 O   0  0  0  0  0  0  0  0  0  0  0  0
  183.9180  179.1270  144.2060 S   0  0  0  0  0  0  0  0  0  0  0  0
  182.3970  178.7850  143.3490 C   0  0  0  0  0  1  0  0  0  0  0  0
  183.7620  178.7760  145.6610 O   0  0  0  0  0  0  0  0  0  0  0  0
  188.7370  177.0560  140.6660 C   0  0  0  0  0  2  0  0  0  0  0  0
  190.8310  176.7210  137.5880 C   0  0  0  0  0  0  0  0  0  0  0  0
  188.5360  177.4310  137.0880 C   0  0  0  0  0  3  0  0  0  0  0  0
  189.3210  177.7550  139.4380 C   0  0  1  0  0  3  0  0  0  0  0  0
  191.4950  176.8590  139.8700 O   0  0  0  0  0  0  0  0  0  0  0  0
  190.6050  177.0870  139.0080 C   0  0  0  0  0  0  0  0  0  0  0  0
  188.2940  177.8330  138.3370 C   0  0  0  0  0  3  0  0  0  0  0  0
  189.8430  176.8770  136.7030 C   0  0  0  0  0  3  0  0  0  0  0  0
  193.5960  174.9580  136.1830 C   0  0  0  0  0  0  0  0  0  0  0  0
  193.3570  172.6380  135.4050 N   0  0  0  0  0  2  0  0  0  0  0  0
  192.1670  172.1710  135.4800 N   0  0  0  0  0  2  0  0  0  0  0  0
  191.9570  174.2830  135.1870 C   0  0  1  0  0  3  0  0  0  0  0  0
  193.3510  174.0620  135.0630 C   0  0  1  0  0  3  0  0  0  0  0  0
  191.2140  173.2110  135.2650 C   0  0  2  0  0  3  0  0  0  0  0  0
  192.3080  175.3010  136.1650 N   0  0  0  0  0  0  0  0  0  0  0  0
  194.3100  175.6240  137.1390 C   0  0  0  0  0  3  0  0  0  0  0  0
  193.3460  176.4170  137.7440 N   0  0  0  0  0  0  0  0  0  0  0  0
  192.1320  176.2070  137.1210 C   0  0  0  0  0  0  0  0  0  0  0  0
  189.9320  173.2040  135.9180 C   0  0  0  0  0  0  0  0  0  0  0  0
  187.5360  173.2110  137.0910 C   0  0  0  0  0  1  0  0  0  0  0  0
  188.8510  173.2030  136.4520 C   0  0  0  0  0  0  0  0  0  0  0  0
  2  1  2  0  0  0  0
  3  2  1  0  0  0  0
  5  3  1  6  0  0  0
  5  6  1  0  0  0  0
  5  8  1  0  0  0  0
  6  4  1  6  0  0  0
  6  7  1  0  0  0  0
  6  8  1  0  0  0  0
  8 10  1  6  0  0  0
 10  9  1  6  0  0  0
 10 11  1  0  0  0  0
 11 12  1  0  0  0  0
 12 14  1  1  0  0  0
 12 13  1  0  0  0  0
 15 16  1  0  0  0  0
 15  2  1  1  0  0  0
 15 17  1  0  0  0  0
 16 17  1  0  0  0  0
 17 18  1  1  0  0  0
 18 20  1  0  0  0  0
 19 20  2  0  0  0  0
 20 22  2  0  0  0  0
 21 20  1  0  0  0  0
 23  3  1  0  0  0  0
 24 28  1  0  0  0  0
 25 29  2  0  0  0  0
 26 23  1  1  0  0  0
 28 26  1  0  0  0  0
 28 27  2  0  0  0  0
 29 26  1  0  0  0  0
 30 25  1  0  0  0  0
 30 24  2  0  0  0  0
 31 38  2  0  0  0  0
 32 33  1  0  0  0  0
 34 36  1  0  0  0  0
 34 37  1  1  0  0  0
 35 34  1  0  0  0  0
 35 32  1  1  0  0  0
 35 31  1  0  0  0  0
 36 33  1  0  0  0  0
 36 41  1  1  0  0  0
 37 31  1  0  0  0  0
 37 40  1  0  0  0  0
 38 39  1  0  0  0  0
 40 24  1  0  0  0  0
 40 39  2  0  0  0  0
 41 43  3  0  0  0  0
 43 42  1  0  0  0  0
M  END
>  <MODEL>
1

>  <REMARK>
 VINA RESULT:      -6.5      0.000      0.000
  Name = 
  11 active torsions:
  status: ('A' for Active; 'I' for Inactive)
    1  A    between atoms: C_1  and  C_38
    2  A    between atoms: C_3  and  C_43
    3  A    between atoms: N_6  and  S_12
    4  A    between atoms: N_6  and  C_41
    5  A    between atoms: C_10  and  C_28
    6  A    between atoms: C_13  and  C_27
    7  A    between atoms: C_14  and  C_17
    8  A    between atoms: C_19  and  N_29
    9  A    between atoms: C_28  and  N_29
   10  A    between atoms: C_35  and  C_38
   11  A    between atoms: C_35  and  C_42
                            x       y       z     vdW  Elec       q    Type
                         _______ _______ _______ _____ _____    ______ ____

>  <TORSDO>
F 11

$$$$
=
 OpenBabel10232410313D

 43 48  0  0  1  0  0  0  0  0999 V2000
  188.8850  179.1880  138.3990 O   0  0  0  0  0  0  0  0  0  0  0  0
  188.4190  178.0310  138.5860 C   0  0  0  0  0  0  0  0  0  0  0  0
  188.6840  176.9930  137.6180 N   0  0  0  0  0  0  0  0  0  0  0  0
  189.7500  174.6160  136.2010 C   0  0  0  0  0  1  0  0  0  0  0  0
  189.5770  177.2750  136.4800 C   0  0  2  0  0  3  0  0  0  0  0  0
  190.1690  176.0280  135.8070 C   0  0  2  0  0  0  0  0  0  0  0  0
  190.4460  176.2170  134.4540 O   0  0  0  0  0  1  0  0  0  0  0  0
  191.0560  176.8710  136.7130 C   0  0  2  0  0  3  0  0  0  0  0  0
  191.0780  175.0430  138.4000 O   0  0  0  0  0  1  0  0  0  0  0  0
  191.4450  176.3620  138.1290 C   0  0  1  0  0  3  0  0  0  0  0  0
  192.9490  176.5210  138.3500 C   0  0  0  0  0  2  0  0  0  0  0  0
  193.7890  175.7420  137.3360 C   0  0  1  0  0  3  0  0  0  0  0  0
  194.5930  176.6080  136.5880 O   0  0  0  0  0  1  0  0  0  0  0  0
  194.6500  174.6860  138.0180 C   0  0  0  0  0  1  0  0  0  0  0  0
  187.7260  177.7250  139.8960 C   0  0  2  0  0  3  0  0  0  0  0  0
  187.9250  178.8340  140.9160 C   0  0  0  0  0  2  0  0  0  0  0  0
  188.6510  177.5220  141.1110 C   0  0  2  0  0  3  0  0  0  0  0  0
  190.0640  177.6970  140.7950 N   0  0  0  0  0  2  0  0  0  0  0  0
  190.9840  178.4320  143.1630 O   0  0  0  0  0  0  0  0  0  0  0  0
  190.9980  177.2760  142.1960 S   0  0  0  0  0  0  0  0  0  0  0  0
  190.2850  175.8480  142.9820 C   0  0  0  0  0  1  0  0  0  0  0  0
  192.4190  176.9740  141.8050 O   0  0  0  0  0  0  0  0  0  0  0  0
  187.8130  175.8200  137.5660 C   0  0  0  0  0  2  0  0  0  0  0  0
  184.1760  175.4190  136.8010 C   0  0  0  0  0  0  0  0  0  0  0  0
  184.9170  177.7510  136.6330 C   0  0  0  0  0  3  0  0  0  0  0  0
  186.6980  176.0010  136.5340 C   0  0  1  0  0  3  0  0  0  0  0  0
  185.8980  173.7780  136.8990 O   0  0  0  0  0  0  0  0  0  0  0  0
  185.5970  174.9930  136.7610 C   0  0  0  0  0  0  0  0  0  0  0  0
  186.2070  177.4270  136.5330 C   0  0  0  0  0  3  0  0  0  0  0  0
  183.8760  176.7190  136.7530 C   0  0  0  0  0  3  0  0  0  0  0  0
  181.2790  173.4520  137.4850 C   0  0  0  0  0  0  0  0  0  0  0  0
  179.9820  173.7800  139.5480 N   0  0  0  0  0  2  0  0  0  0  0  0
  180.3900  174.7440  140.2860 N   0  0  0  0  0  2  0  0  0  0  0  0
  180.8910  175.2840  138.2740 C   0  0  1  0  0  3  0  0  0  0  0  0
  180.1400  174.0920  138.1260 C   0  0  1  0  0  3  0  0  0  0  0  0
  180.9270  175.7900  139.4790 C   0  0  2  0  0  3  0  0  0  0  0  0
  181.9020  174.6290  137.4600 N   0  0  0  0  0  0  0  0  0  0  0  0
  182.0110  172.4500  136.9130 C   0  0  0  0  0  3  0  0  0  0  0  0
  183.1760  173.1010  136.5330 N   0  0  0  0  0  0  0  0  0  0  0  0
  183.0780  174.4360  136.8710 C   0  0  0  0  0  0  0  0  0  0  0  0
  182.0120  176.6160  139.9400 C   0  0  0  0  0  0  0  0  0  0  0  0
  184.0140  178.1760  140.7620 C   0  0  0  0  0  1  0  0  0  0  0  0
  182.9170  177.3170  140.3160 C   0  0  0  0  0  0  0  0  0  0  0  0
  1  2  2  0  0  0  0
  3  2  1  0  0  0  0
  5  8  1  0  0  0  0
  5  3  1  1  0  0  0
  6  4  1  1  0  0  0
  6  5  1  0  0  0  0
  6  8  1  0  0  0  0
  7  6  1  0  0  0  0
  8 10  1  1  0  0  0
 10 11  1  0  0  0  0
 10  9  1  6  0  0  0
 12 14  1  1  0  0  0
 12 11  1  0  0  0  0
 13 12  1  0  0  0  0
 15  2  1  6  0  0  0
 15 16  1  0  0  0  0
 15 17  1  0  0  0  0
 16 17  1  0  0  0  0
 17 18  1  6  0  0  0
 18 20  1  0  0  0  0
 20 21  1  0  0  0  0
 20 19  2  0  0  0  0
 22 20  2  0  0  0  0
 23  3  1  0  0  0  0
 24 40  1  0  0  0  0
 25 30  1  0  0  0  0
 26 28  1  0  0  0  0
 26 23  1  1  0  0  0
 28 24  1  0  0  0  0
 28 27  2  0  0  0  0
 29 26  1  0  0  0  0
 29 25  2  0  0  0  0
 30 24  2  0  0  0  0
 32 33  1  0  0  0  0
 34 37  1  1  0  0  0
 34 36  1  0  0  0  0
 35 31  1  6  0  0  0
 35 34  1  0  0  0  0
 35 32  1  0  0  0  0
 36 41  1  1  0  0  0
 36 33  1  0  0  0  0
 37 31  1  0  0  0  0
 38 31  2  0  0  0  0
 39 40  2  0  0  0  0
 39 38  1  0  0  0  0
 40 37  1  0  0  0  0
 41 43  3  0  0  0  0
 43 42  1  0  0  0  0
M  END
>  <MODEL>
2

>  <REMARK>
 VINA RESULT:      -6.4      4.239      8.479
  Name = 
  11 active torsions:
  status: ('A' for Active; 'I' for Inactive)
    1  A    between atoms: C_1  and  C_38
    2  A    between atoms: C_3  and  C_43
    3  A    between atoms: N_6  and  S_12
    4  A    between atoms: N_6  and  C_41
    5  A    between atoms: C_10  and  C_28
    6  A    between atoms: C_13  and  C_27
    7  A    between atoms: C_14  and  C_17
    8  A    between atoms: C_19  and  N_29
    9  A    between atoms: C_28  and  N_29
   10  A    between atoms: C_35  and  C_38
   11  A    between atoms: C_35  and  C_42
                            x       y       z     vdW  Elec       q    Type
                         _______ _______ _______ _____ _____    ______ ____

>  <TORSDO>
F 11

$$$$
=
 OpenBabel10232410313D

 43 48  0  0  1  0  0  0  0  0999 V2000
  191.8400  174.9090  136.0480 O   0  0  0  0  0  0  0  0  0  0  0  0
  191.5200  175.7960  136.8850 C   0  0  0  0  0  0  0  0  0  0  0  0
  190.1390  175.9340  137.2830 N   0  0  0  0  0  0  0  0  0  0  0  0
  190.2230  175.3980  134.3680 C   0  0  0  0  0  1  0  0  0  0  0  0
  189.1420  174.9710  136.7820 C   0  0  2  0  0  3  0  0  0  0  0  0
  189.1620  174.7640  135.2610 C   0  0  2  0  0  0  0  0  0  0  0  0
  188.7340  173.4940  134.8760 O   0  0  0  0  0  1  0  0  0  0  0  0
  188.0480  175.5990  135.8790 C   0  0  2  0  0  3  0  0  0  0  0  0
  188.6710  177.6220  134.5730 O   0  0  0  0  0  1  0  0  0  0  0  0
  188.0450  177.1450  135.7260 C   0  0  1  0  0  3  0  0  0  0  0  0
  186.6130  177.6750  135.7750 C   0  0  0  0  0  2  0  0  0  0  0  0
  185.5730  176.5740  135.9900 C   0  0  1  0  0  3  0  0  0  0  0  0
  185.0260  176.6520  137.2750 O   0  0  0  0  0  1  0  0  0  0  0  0
  184.4650  176.6390  134.9460 C   0  0  0  0  0  1  0  0  0  0  0  0
  192.6160  176.5900  137.5640 C   0  0  2  0  0  3  0  0  0  0  0  0
  193.9300  176.5060  136.8050 C   0  0  0  0  0  2  0  0  0  0  0  0
  193.7940  175.7650  138.1160 C   0  0  2  0  0  3  0  0  0  0  0  0
  193.6690  174.3350  137.8560 N   0  0  0  0  0  2  0  0  0  0  0  0
  195.1450  172.3980  138.8870 O   0  0  0  0  0  0  0  0  0  0  0  0
  195.2400  173.6110  137.9970 S   0  0  0  0  0  0  0  0  0  0  0  0
  195.8150  173.1100  136.3890 C   0  0  0  0  0  1  0  0  0  0  0  0
  196.2150  174.5880  138.5940 O   0  0  0  0  0  0  0  0  0  0  0  0
  189.6810  177.1940  137.8670 C   0  0  0  0  0  2  0  0  0  0  0  0
  189.3420  177.8130  141.5380 C   0  0  0  0  0  0  0  0  0  0  0  0
  187.4250  178.6620  140.2630 C   0  0  0  0  0  3  0  0  0  0  0  0
  188.8540  176.9530  139.1310 C   0  0  1  0  0  3  0  0  0  0  0  0
  190.8000  176.3330  140.3750 O   0  0  0  0  0  0  0  0  0  0  0  0
  189.7330  177.0040  140.3570 C   0  0  0  0  0  0  0  0  0  0  0  0
  187.6930  177.9130  139.1920 C   0  0  0  0  0  3  0  0  0  0  0  0
  188.2620  178.5970  141.4700 C   0  0  0  0  0  3  0  0  0  0  0  0
  190.5620  177.6120  144.8840 C   0  0  0  0  0  0  0  0  0  0  0  0
  189.0470  177.8690  146.8040 N   0  0  0  0  0  2  0  0  0  0  0  0
  187.8110  177.9990  146.4930 N   0  0  0  0  0  2  0  0  0  0  0  0
  188.6920  176.8170  144.9380 C   0  0  1  0  0  3  0  0  0  0  0  0
  189.7350  176.9580  145.8870 C   0  0  1  0  0  3  0  0  0  0  0  0
  187.5190  177.2580  145.3100 C   0  0  2  0  0  3  0  0  0  0  0  0
  189.6520  177.3040  143.9610 N   0  0  0  0  0  0  0  0  0  0  0  0
  191.6430  178.2700  144.3680 C   0  0  0  0  0  3  0  0  0  0  0  0
  191.3260  178.3690  143.0210 N   0  0  0  0  0  0  0  0  0  0  0  0
  190.1060  177.7600  142.7980 C   0  0  0  0  0  0  0  0  0  0  0  0
  186.5240  177.7020  144.3700 C   0  0  0  0  0  0  0  0  0  0  0  0
  184.7060  178.5630  142.6180 C   0  0  0  0  0  1  0  0  0  0  0  0
  185.7000  178.0860  143.5790 C   0  0  0  0  0  0  0  0  0  0  0  0
  1  2  2  0  0  0  0
  2  3  1  0  0  0  0
  3 23  1  0  0  0  0
  5  3  1  6  0  0  0
  6  4  1  6  0  0  0
  6  8  1  0  0  0  0
  6  5  1  0  0  0  0
  7  6  1  0  0  0  0
  8 10  1  6  0  0  0
  8  5  1  0  0  0  0
 10  9  1  6  0  0  0
 10 11  1  0  0  0  0
 11 12  1  0  0  0  0
 12 14  1  6  0  0  0
 12 13  1  0  0  0  0
 15  2  1  6  0  0  0
 15 17  1  0  0  0  0
 16 15  1  0  0  0  0
 16 17  1  0  0  0  0
 17 18  1  6  0  0  0
 18 20  1  0  0  0  0
 20 22  2  0  0  0  0
 20 19  2  0  0  0  0
 21 20  1  0  0  0  0
 24 40  1  0  0  0  0
 25 30  1  0  0  0  0
 26 23  1  6  0  0  0
 26 29  1  0  0  0  0
 26 28  1  0  0  0  0
 28 27  2  0  0  0  0
 28 24  1  0  0  0  0
 29 25  2  0  0  0  0
 30 24  2  0  0  0  0
 33 32  1  0  0  0  0
 34 37  1  6  0  0  0
 34 36  1  0  0  0  0
 34 35  1  0  0  0  0
 35 31  1  6  0  0  0
 35 32  1  0  0  0  0
 36 41  1  6  0  0  0
 36 33  1  0  0  0  0
 37 31  1  0  0  0  0
 38 31  2  0  0  0  0
 39 38  1  0  0  0  0
 40 39  2  0  0  0  0
 40 37  1  0  0  0  0
 42 43  1  0  0  0  0
 43 41  3  0  0  0  0
M  END
>  <MODEL>
3

>  <REMARK>
 VINA RESULT:      -6.3      3.706      9.520
  Name = 
  11 active torsions:
  status: ('A' for Active; 'I' for Inactive)
    1  A    between atoms: C_1  and  C_38
    2  A    between atoms: C_3  and  C_43
    3  A    between atoms: N_6  and  S_12
    4  A    between atoms: N_6  and  C_41
    5  A    between atoms: C_10  and  C_28
    6  A    between atoms: C_13  and  C_27
    7  A    between atoms: C_14  and  C_17
    8  A    between atoms: C_19  and  N_29
    9  A    between atoms: C_28  and  N_29
   10  A    between atoms: C_35  and  C_38
   11  A    between atoms: C_35  and  C_42
                            x       y       z     vdW  Elec       q    Type
                         _______ _______ _______ _____ _____    ______ ____

>  <TORSDO>
F 11

$$$$
=
 OpenBabel10232410313D

 43 48  0  0  1  0  0  0  0  0999 V2000
  186.2770  179.9310  142.1270 O   0  0  0  0  0  0  0  0  0  0  0  0
  186.5070  178.8860  141.4610 C   0  0  0  0  0  0  0  0  0  0  0  0
  187.7490  178.1760  141.6580 N   0  0  0  0  0  0  0  0  0  0  0  0
  189.3980  176.0540  142.9120 C   0  0  0  0  0  1  0  0  0  0  0  0
  188.6830  178.6280  142.7050 C   0  0  2  0  0  3  0  0  0  0  0  0
  189.4750  177.5010  143.3850 C   0  0  2  0  0  0  0  0  0  0  0  0
  190.7200  177.9150  143.8540 O   0  0  0  0  0  1  0  0  0  0  0  0
  188.3180  178.1500  144.1350 C   0  0  2  0  0  3  0  0  0  0  0  0
  186.9890  176.0600  143.8980 O   0  0  0  0  0  1  0  0  0  0  0  0
  186.9740  177.3920  144.3160 C   0  0  1  0  0  3  0  0  0  0  0  0
  186.5280  177.4540  145.7760 C   0  0  0  0  0  2  0  0  0  0  0  0
  185.8910  178.7930  146.1520 C   0  0  1  0  0  3  0  0  0  0  0  0
  184.4980  178.6830  146.2020 O   0  0  0  0  0  1  0  0  0  0  0  0
  186.4230  179.3130  147.4820 C   0  0  0  0  0  1  0  0  0  0  0  0
  185.4090  178.3200  140.5860 C   0  0  2  0  0  3  0  0  0  0  0  0
  184.2150  179.2550  140.4990 C   0  0  0  0  0  2  0  0  0  0  0  0
  184.0900  177.9810  141.3040 C   0  0  2  0  0  3  0  0  0  0  0  0
  184.1090  178.3030  142.7280 N   0  0  0  0  0  2  0  0  0  0  0  0
  182.7120  180.3750  143.5930 O   0  0  0  0  0  0  0  0  0  0  0  0
  182.5550  178.9370  143.1700 S   0  0  0  0  0  0  0  0  0  0  0  0
  181.4560  178.8560  141.7730 C   0  0  0  0  0  1  0  0  0  0  0  0
  181.9740  178.1460  144.3100 O   0  0  0  0  0  0  0  0  0  0  0  0
  188.2310  177.2680  140.6180 C   0  0  0  0  0  2  0  0  0  0  0  0
  190.7390  176.9960  137.8600 C   0  0  0  0  0  0  0  0  0  0  0  0
  188.6300  178.0030  137.1130 C   0  0  0  0  0  3  0  0  0  0  0  0
  189.0650  178.0120  139.5740 C   0  0  1  0  0  3  0  0  0  0  0  0
  191.0480  176.8400  140.2160 O   0  0  0  0  0  0  0  0  0  0  0  0
  190.3300  177.2480  139.2640 C   0  0  0  0  0  0  0  0  0  0  0  0
  188.2350  178.3080  138.3500 C   0  0  0  0  0  3  0  0  0  0  0  0
  189.9220  177.3450  136.8630 C   0  0  0  0  0  3  0  0  0  0  0  0
  193.5040  175.0400  136.7370 C   0  0  0  0  0  0  0  0  0  0  0  0
  193.1760  172.7620  135.8720 N   0  0  0  0  0  2  0  0  0  0  0  0
  191.9530  172.3930  135.7940 N   0  0  0  0  0  2  0  0  0  0  0  0
  191.9460  174.5200  135.5390 C   0  0  1  0  0  3  0  0  0  0  0  0
  193.3230  174.1880  135.5710 C   0  0  1  0  0  3  0  0  0  0  0  0
  191.1170  173.5110  135.5000 C   0  0  2  0  0  3  0  0  0  0  0  0
  192.2580  175.4870  136.5790 N   0  0  0  0  0  0  0  0  0  0  0  0
  194.1500  175.6270  137.7880 C   0  0  0  0  0  3  0  0  0  0  0  0
  193.1870  176.4850  138.2990 N   0  0  0  0  0  0  0  0  0  0  0  0
  192.0420  176.3860  137.5330 C   0  0  0  0  0  0  0  0  0  0  0  0
  189.7700  173.5950  135.9990 C   0  0  0  0  0  0  0  0  0  0  0  0
  187.2720  173.7070  136.9290 C   0  0  0  0  0  1  0  0  0  0  0  0
  188.6420  173.6510  136.4190 C   0  0  0  0  0  0  0  0  0  0  0  0
  2  3  1  0  0  0  0
  2  1  2  0  0  0  0
  5  3  1  6  0  0  0
  5  6  1  0  0  0  0
  5  8  1  0  0  0  0
  6  4  1  6  0  0  0
  6  7  1  0  0  0  0
  6  8  1  0  0  0  0
  8 10  1  6  0  0  0
 10  9  1  1  0  0  0
 10 11  1  0  0  0  0
 11 12  1  0  0  0  0
 12 13  1  0  0  0  0
 12 14  1  1  0  0  0
 15 17  1  0  0  0  0
 15  2  1  1  0  0  0
 16 15  1  0  0  0  0
 16 17  1  0  0  0  0
 17 18  1  1  0  0  0
 18 20  1  0  0  0  0
 20 19  2  0  0  0  0
 20 22  2  0  0  0  0
 21 20  1  0  0  0  0
 23  3  1  0  0  0  0
 24 28  1  0  0  0  0
 25 29  2  0  0  0  0
 26 23  1  1  0  0  0
 28 26  1  0  0  0  0
 28 27  2  0  0  0  0
 29 26  1  0  0  0  0
 30 25  1  0  0  0  0
 30 24  2  0  0  0  0
 31 38  2  0  0  0  0
 33 32  1  0  0  0  0
 34 35  1  0  0  0  0
 34 37  1  1  0  0  0
 35 32  1  1  0  0  0
 35 31  1  0  0  0  0
 36 34  1  0  0  0  0
 36 33  1  0  0  0  0
 36 41  1  1  0  0  0
 37 31  1  0  0  0  0
 37 40  1  0  0  0  0
 38 39  1  0  0  0  0
 40 24  1  0  0  0  0
 40 39  2  0  0  0  0
 41 43  3  0  0  0  0
 43 42  1  0  0  0  0
M  END
>  <MODEL>
4

>  <REMARK>
 VINA RESULT:      -6.2      1.313      1.510
  Name = 
  11 active torsions:
  status: ('A' for Active; 'I' for Inactive)
    1  A    between atoms: C_1  and  C_38
    2  A    between atoms: C_3  and  C_43
    3  A    between atoms: N_6  and  S_12
    4  A    between atoms: N_6  and  C_41
    5  A    between atoms: C_10  and  C_28
    6  A    between atoms: C_13  and  C_27
    7  A    between atoms: C_14  and  C_17
    8  A    between atoms: C_19  and  N_29
    9  A    between atoms: C_28  and  N_29
   10  A    between atoms: C_35  and  C_38
   11  A    between atoms: C_35  and  C_42
                            x       y       z     vdW  Elec       q    Type
                         _______ _______ _______ _____ _____    ______ ____

>  <TORSDO>
F 11

$$$$
=
 OpenBabel10232410313D

 43 48  0  0  1  0  0  0  0  0999 V2000
  185.9080  179.6050  140.6200 O   0  0  0  0  0  0  0  0  0  0  0  0
  186.3520  178.5130  140.1720 C   0  0  0  0  0  0  0  0  0  0  0  0
  187.6440  178.0380  140.6070 N   0  0  0  0  0  0  0  0  0  0  0  0
  189.3970  176.4150  142.3630 C   0  0  0  0  0  1  0  0  0  0  0  0
  188.3790  178.7860  141.6420 C   0  0  2  0  0  3  0  0  0  0  0  0
  189.2260  177.9140  142.5810 C   0  0  2  0  0  0  0  0  0  0  0  0
  190.3420  178.5790  143.0860 O   0  0  0  0  0  1  0  0  0  0  0  0
  187.9130  178.4940  143.0920 C   0  0  2  0  0  3  0  0  0  0  0  0
  186.7970  176.6030  144.2620 O   0  0  0  0  0  1  0  0  0  0  0  0
  186.6680  177.5820  143.2750 C   0  0  1  0  0  3  0  0  0  0  0  0
  185.4330  178.4320  143.5690 C   0  0  0  0  0  2  0  0  0  0  0  0
  185.0150  178.3950  145.0390 C   0  0  1  0  0  3  0  0  0  0  0  0
  185.8320  179.2290  145.8090 O   0  0  0  0  0  1  0  0  0  0  0  0
  183.5530  178.7870  145.2160 C   0  0  0  0  0  1  0  0  0  0  0  0
  185.4490  177.6570  139.3090 C   0  0  2  0  0  3  0  0  0  0  0  0
  185.2930  178.2280  137.9100 C   0  0  0  0  0  2  0  0  0  0  0  0
  184.1270  178.3130  138.8680 C   0  0  2  0  0  3  0  0  0  0  0  0
  183.9820  179.6880  139.3350 N   0  0  0  0  0  2  0  0  0  0  0  0
  182.0210  179.5940  137.5630 O   0  0  0  0  0  0  0  0  0  0  0  0
  182.4230  180.2730  138.8470 S   0  0  0  0  0  0  0  0  0  0  0  0
  181.2220  179.8990  140.1060 C   0  0  0  0  0  1  0  0  0  0  0  0
  182.4690  181.7610  138.6260 O   0  0  0  0  0  0  0  0  0  0  0  0
  188.3610  177.0590  139.7920 C   0  0  0  0  0  2  0  0  0  0  0  0
  191.2290  176.6350  137.4320 C   0  0  0  0  0  0  0  0  0  0  0  0
  189.2450  177.5740  136.3370 C   0  0  0  0  0  3  0  0  0  0  0  0
  189.3330  177.7420  138.8280 C   0  0  1  0  0  3  0  0  0  0  0  0
  191.2070  176.6300  139.8130 O   0  0  0  0  0  0  0  0  0  0  0  0
  190.6280  176.9710  138.7460 C   0  0  0  0  0  0  0  0  0  0  0  0
  188.6820  177.9530  137.4840 C   0  0  0  0  0  3  0  0  0  0  0  0
  190.5590  176.9130  136.3110 C   0  0  0  0  0  3  0  0  0  0  0  0
  194.1230  174.6370  136.8290 C   0  0  0  0  0  0  0  0  0  0  0  0
  193.9200  172.3090  136.0650 N   0  0  0  0  0  2  0  0  0  0  0  0
  192.7190  171.9260  135.8380 N   0  0  0  0  0  2  0  0  0  0  0  0
  192.7500  174.0340  135.4570 C   0  0  1  0  0  3  0  0  0  0  0  0
  194.1090  173.7160  135.7030 C   0  0  1  0  0  3  0  0  0  0  0  0
  191.9340  173.0180  135.3620 C   0  0  2  0  0  3  0  0  0  0  0  0
  192.9130  175.0640  136.4710 N   0  0  0  0  0  0  0  0  0  0  0  0
  194.6160  175.2900  137.9240 C   0  0  0  0  0  3  0  0  0  0  0  0
  193.5900  176.1690  138.2420 N   0  0  0  0  0  0  0  0  0  0  0  0
  192.5650  176.0160  137.3300 C   0  0  0  0  0  0  0  0  0  0  0  0
  190.5300  173.1220  135.6600 C   0  0  0  0  0  0  0  0  0  0  0  0
  187.9370  173.3120  136.2570 C   0  0  0  0  0  1  0  0  0  0  0  0
  189.3570  173.2090  135.9240 C   0  0  0  0  0  0  0  0  0  0  0  0
  2  3  1  0  0  0  0
  2  1  2  0  0  0  0
  5  3  1  6  0  0  0
  5  6  1  0  0  0  0
  5  8  1  0  0  0  0
  6  4  1  6  0  0  0
  6  7  1  0  0  0  0
  6  8  1  0  0  0  0
  8 10  1  6  0  0  0
 10 11  1  0  0  0  0
 10  9  1  1  0  0  0
 11 12  1  0  0  0  0
 12 14  1  6  0  0  0
 12 13  1  0  0  0  0
 15  2  1  1  0  0  0
 16 17  1  0  0  0  0
 16 15  1  0  0  0  0
 17 15  1  0  0  0  0
 17 18  1  1  0  0  0
 19 20  2  0  0  0  0
 20 18  1  0  0  0  0
 20 21  1  0  0  0  0
 22 20  2  0  0  0  0
 23  3  1  0  0  0  0
 24 28  1  0  0  0  0
 25 29  2  0  0  0  0
 26 23  1  1  0  0  0
 28 26  1  0  0  0  0
 28 27  2  0  0  0  0
 29 26  1  0  0  0  0
 30 25  1  0  0  0  0
 30 24  2  0  0  0  0
 31 38  2  0  0  0  0
 33 32  1  0  0  0  0
 34 35  1  0  0  0  0
 34 37  1  1  0  0  0
 35 32  1  1  0  0  0
 35 31  1  0  0  0  0
 36 34  1  0  0  0  0
 36 41  1  1  0  0  0
 36 33  1  0  0  0  0
 37 31  1  0  0  0  0
 37 40  1  0  0  0  0
 38 39  1  0  0  0  0
 40 24  1  0  0  0  0
 40 39  2  0  0  0  0
 41 43  3  0  0  0  0
 43 42  1  0  0  0  0
M  END
>  <MODEL>
5

>  <REMARK>
 VINA RESULT:      -5.7      2.286      2.861
  Name = 
  11 active torsions:
  status: ('A' for Active; 'I' for Inactive)
    1  A    between atoms: C_1  and  C_38
    2  A    between atoms: C_3  and  C_43
    3  A    between atoms: N_6  and  S_12
    4  A    between atoms: N_6  and  C_41
    5  A    between atoms: C_10  and  C_28
    6  A    between atoms: C_13  and  C_27
    7  A    between atoms: C_14  and  C_17
    8  A    between atoms: C_19  and  N_29
    9  A    between atoms: C_28  and  N_29
   10  A    between atoms: C_35  and  C_38
   11  A    between atoms: C_35  and  C_42
                            x       y       z     vdW  Elec       q    Type
                         _______ _______ _______ _____ _____    ______ ____

>  <TORSDO>
F 11

$$$$
=
 OpenBabel10232410313D

 43 48  0  0  1  0  0  0  0  0999 V2000
  190.1050  175.8130  139.5900 O   0  0  0  0  0  0  0  0  0  0  0  0
  190.7460  176.5120  138.7580 C   0  0  0  0  0  0  0  0  0  0  0  0
  190.3480  176.5080  137.3700 N   0  0  0  0  0  0  0  0  0  0  0  0
  188.9890  177.5040  134.9310 C   0  0  0  0  0  1  0  0  0  0  0  0
  189.1400  175.7680  136.9650 C   0  0  2  0  0  3  0  0  0  0  0  0
  188.4170  176.3450  135.7390 C   0  0  2  0  0  0  0  0  0  0  0  0
  187.7310  175.3790  135.0040 O   0  0  0  0  0  1  0  0  0  0  0  0
  187.8200  176.5660  137.1230 C   0  0  2  0  0  3  0  0  0  0  0  0
  187.6350  179.0410  136.9610 O   0  0  0  0  0  1  0  0  0  0  0  0
  187.9030  177.9610  137.8030 C   0  0  1  0  0  3  0  0  0  0  0  0
  186.9610  178.0160  139.0050 C   0  0  0  0  0  2  0  0  0  0  0  0
  187.6920  178.2520  140.3280 C   0  0  1  0  0  3  0  0  0  0  0  0
  188.7630  179.1340  140.1530 O   0  0  0  0  0  1  0  0  0  0  0  0
  186.7480  178.7810  141.4020 C   0  0  0  0  0  1  0  0  0  0  0  0
  191.8180  177.4530  139.2660 C   0  0  2  0  0  3  0  0  0  0  0  0
  192.8410  176.7340  140.1280 C   0  0  0  0  0  2  0  0  0  0  0  0
  191.8520  177.6650  140.7910 C   0  0  2  0  0  3  0  0  0  0  0  0
  190.8500  176.8810  141.5050 N   0  0  0  0  0  2  0  0  0  0  0  0
  191.9310  178.3750  143.4010 O   0  0  0  0  0  0  0  0  0  0  0  0
  191.0090  177.1990  143.2040 S   0  0  0  0  0  0  0  0  0  0  0  0
  189.4140  177.5860  143.8920 C   0  0  0  0  0  1  0  0  0  0  0  0
  191.5800  175.9990  143.9090 O   0  0  0  0  0  0  0  0  0  0  0  0
  191.3080  176.9180  136.3460 C   0  0  0  0  0  2  0  0  0  0  0  0
  194.1240  174.6510  137.2990 C   0  0  0  0  0  0  0  0  0  0  0  0
  192.0540  173.4250  136.8220 C   0  0  0  0  0  3  0  0  0  0  0  0
  192.2060  175.7530  135.9280 C   0  0  1  0  0  3  0  0  0  0  0  0
  194.1740  176.9290  136.6070 O   0  0  0  0  0  0  0  0  0  0  0  0
  193.5440  175.8380  136.6230 C   0  0  0  0  0  0  0  0  0  0  0  0
  191.5030  174.4380  136.1520 C   0  0  0  0  0  3  0  0  0  0  0  0
  193.4040  173.5310  137.3950 C   0  0  0  0  0  3  0  0  0  0  0  0
  197.5710  174.2430  138.1250 C   0  0  0  0  0  0  0  0  0  0  0  0
  198.8880  172.3890  137.1910 N   0  0  0  0  0  2  0  0  0  0  0  0
  198.2570  171.6590  136.3490 N   0  0  0  0  0  2  0  0  0  0  0  0
  197.3940  173.6140  136.2000 C   0  0  1  0  0  3  0  0  0  0  0  0
  198.4850  173.7930  137.0870 C   0  0  1  0  0  3  0  0  0  0  0  0
  197.3150  172.4460  135.6210 C   0  0  2  0  0  3  0  0  0  0  0  0
  196.5860  174.2520  137.2270 N   0  0  0  0  0  0  0  0  0  0  0  0
  197.1660  174.6590  139.3630 C   0  0  0  0  0  3  0  0  0  0  0  0
  195.8170  174.9180  139.1720 N   0  0  0  0  0  0  0  0  0  0  0  0
  195.4910  174.6700  137.8530 C   0  0  0  0  0  0  0  0  0  0  0  0
  196.0700  171.8930  135.1590 C   0  0  0  0  0  0  0  0  0  0  0  0
  193.7490  170.8590  134.3460 C   0  0  0  0  0  1  0  0  0  0  0  0
  195.0220  171.4280  134.7870 C   0  0  0  0  0  0  0  0  0  0  0  0
  2  1  2  0  0  0  0
  3  2  1  0  0  0  0
  5  8  1  0  0  0  0
  5  3  1  1  0  0  0
  6  4  1  6  0  0  0
  6  5  1  0  0  0  0
  6  8  1  0  0  0  0
  7  6  1  0  0  0  0
  8 10  1  1  0  0  0
 10  9  1  6  0  0  0
 10 11  1  0  0  0  0
 11 12  1  0  0  0  0
 12 14  1  1  0  0  0
 13 12  1  0  0  0  0
 15  2  1  1  0  0  0
 15 16  1  0  0  0  0
 15 17  1  0  0  0  0
 16 17  1  0  0  0  0
 17 18  1  1  0  0  0
 18 20  1  0  0  0  0
 20 19  2  0  0  0  0
 20 21  1  0  0  0  0
 20 22  2  0  0  0  0
 23  3  1  0  0  0  0
 24 30  2  0  0  0  0
 24 40  1  0  0  0  0
 25 30  1  0  0  0  0
 26 29  1  0  0  0  0
 26 23  1  1  0  0  0
 26 28  1  0  0  0  0
 27 28  2  0  0  0  0
 28 24  1  0  0  0  0
 29 25  2  0  0  0  0
 31 38  2  0  0  0  0
 33 32  1  0  0  0  0
 34 35  1  0  0  0  0
 34 37  1  1  0  0  0
 35 32  1  1  0  0  0
 35 31  1  0  0  0  0
 36 41  1  1  0  0  0
 36 34  1  0  0  0  0
 36 33  1  0  0  0  0
 37 40  1  0  0  0  0
 37 31  1  0  0  0  0
 39 38  1  0  0  0  0
 40 39  2  0  0  0  0
 42 43  1  0  0  0  0
 43 41  3  0  0  0  0
M  END
>  <MODEL>
6

>  <REMARK>
 VINA RESULT:      -5.7      3.120      6.306
  Name = 
  11 active torsions:
  status: ('A' for Active; 'I' for Inactive)
    1  A    between atoms: C_1  and  C_38
    2  A    between atoms: C_3  and  C_43
    3  A    between atoms: N_6  and  S_12
    4  A    between atoms: N_6  and  C_41
    5  A    between atoms: C_10  and  C_28
    6  A    between atoms: C_13  and  C_27
    7  A    between atoms: C_14  and  C_17
    8  A    between atoms: C_19  and  N_29
    9  A    between atoms: C_28  and  N_29
   10  A    between atoms: C_35  and  C_38
   11  A    between atoms: C_35  and  C_42
                            x       y       z     vdW  Elec       q    Type
                         _______ _______ _______ _____ _____    ______ ____

>  <TORSDO>
F 11

$$$$
=
 OpenBabel10232410313D

 43 48  0  0  1  0  0  0  0  0999 V2000
  188.9510  178.7240  145.2250 O   0  0  0  0  0  0  0  0  0  0  0  0
  188.3970  177.9400  144.4070 C   0  0  0  0  0  0  0  0  0  0  0  0
  189.0050  177.7110  143.1180 N   0  0  0  0  0  0  0  0  0  0  0  0
  190.7760  176.1340  141.3380 C   0  0  0  0  0  1  0  0  0  0  0  0
  190.3130  178.3200  142.8160 C   0  0  2  0  0  3  0  0  0  0  0  0
  191.2370  177.4530  141.9490 C   0  0  2  0  0  0  0  0  0  0  0  0
  192.1160  178.2020  141.1680 O   0  0  0  0  0  1  0  0  0  0  0  0
  191.5220  177.5760  143.4400 C   0  0  2  0  0  3  0  0  0  0  0  0
  191.7960  175.1760  144.0350 O   0  0  0  0  0  1  0  0  0  0  0  0
  191.2180  176.3930  144.4000 C   0  0  1  0  0  3  0  0  0  0  0  0
  191.6490  176.7470  145.8230 C   0  0  0  0  0  2  0  0  0  0  0  0
  191.8930  175.5170  146.6990 C   0  0  1  0  0  3  0  0  0  0  0  0
  192.7290  174.6030  146.0500 O   0  0  0  0  0  1  0  0  0  0  0  0
  192.4870  175.9010  148.0490 C   0  0  0  0  0  1  0  0  0  0  0  0
  187.1930  177.1420  144.8610 C   0  0  2  0  0  3  0  0  0  0  0  0
  185.9910  178.0310  145.1270 C   0  0  0  0  0  2  0  0  0  0  0  0
  186.7160  177.4120  146.3000 C   0  0  2  0  0  3  0  0  0  0  0  0
  187.4970  178.4380  146.9840 N   0  0  0  0  0  2  0  0  0  0  0  0
  188.7480  176.2830  147.8710 O   0  0  0  0  0  0  0  0  0  0  0  0
  188.3810  177.6880  148.2760 S   0  0  0  0  0  0  0  0  0  0  0  0
  189.8680  178.6100  148.5980 C   0  0  0  0  0  1  0  0  0  0  0  0
  187.5420  177.6400  149.5240 O   0  0  0  0  0  0  0  0  0  0  0  0
  188.1880  177.1980  142.0190 C   0  0  0  0  0  2  0  0  0  0  0  0
  186.8240  178.0780  138.6520 C   0  0  0  0  0  0  0  0  0  0  0  0
  185.4270  178.9280  140.4800 C   0  0  0  0  0  3  0  0  0  0  0  0
  187.7800  178.3170  141.0600 C   0  0  1  0  0  3  0  0  0  0  0  0
  188.9980  177.3200  139.2610 O   0  0  0  0  0  0  0  0  0  0  0  0
  187.9230  177.8660  139.6270 C   0  0  0  0  0  0  0  0  0  0  0  0
  186.3960  178.8160  141.3910 C   0  0  0  0  0  3  0  0  0  0  0  0
  185.6540  178.5650  139.0730 C   0  0  0  0  0  3  0  0  0  0  0  0
  186.5640  177.2010  135.2030 C   0  0  0  0  0  0  0  0  0  0  0  0
  184.6150  175.9660  134.3520 N   0  0  0  0  0  2  0  0  0  0  0  0
  183.7020  175.7480  135.2230 N   0  0  0  0  0  2  0  0  0  0  0  0
  184.6610  177.5690  135.8160 C   0  0  1  0  0  3  0  0  0  0  0  0
  185.2570  177.2660  134.5670 C   0  0  1  0  0  3  0  0  0  0  0  0
  183.6480  176.8200  136.1630 C   0  0  2  0  0  3  0  0  0  0  0  0
  186.0190  177.6710  136.3250 N   0  0  0  0  0  0  0  0  0  0  0  0
  187.9100  176.9930  135.3110 C   0  0  0  0  0  3  0  0  0  0  0  0
  188.1720  177.3610  136.6230 N   0  0  0  0  0  0  0  0  0  0  0  0
  186.9980  177.7810  137.2170 C   0  0  0  0  0  0  0  0  0  0  0  0
  183.2830  176.5980  137.5370 C   0  0  0  0  0  0  0  0  0  0  0  0
  182.6060  176.2330  140.0920 C   0  0  0  0  0  1  0  0  0  0  0  0
  182.9760  176.4280  138.6900 C   0  0  0  0  0  0  0  0  0  0  0  0
  2  1  2  0  0  0  0
  3  2  1  0  0  0  0
  5  3  1  1  0  0  0
  5  8  1  0  0  0  0
  6  4  1  6  0  0  0
  6  5  1  0  0  0  0
  6  8  1  0  0  0  0
  7  6  1  0  0  0  0
  8 10  1  1  0  0  0
 10  9  1  6  0  0  0
 10 11  1  0  0  0  0
 11 12  1  0  0  0  0
 12 14  1  1  0  0  0
 13 12  1  0  0  0  0
 15  2  1  1  0  0  0
 15 16  1  0  0  0  0
 15 17  1  0  0  0  0
 16 17  1  0  0  0  0
 17 18  1  1  0  0  0
 18 20  1  0  0  0  0
 19 20  2  0  0  0  0
 20 21  1  0  0  0  0
 20 22  2  0  0  0  0
 23  3  1  0  0  0  0
 24 30  2  0  0  0  0
 24 28  1  0  0  0  0
 25 29  2  0  0  0  0
 26 29  1  0  0  0  0
 26 23  1  1  0  0  0
 27 28  2  0  0  0  0
 28 26  1  0  0  0  0
 30 25  1  0  0  0  0
 31 38  2  0  0  0  0
 31 37  1  0  0  0  0
 32 33  1  0  0  0  0
 33 36  1  0  0  0  0
 34 36  1  0  0  0  0
 34 37  1  1  0  0  0
 35 32  1  1  0  0  0
 35 31  1  0  0  0  0
 35 34  1  0  0  0  0
 36 41  1  1  0  0  0
 37 40  1  0  0  0  0
 38 39  1  0  0  0  0
 39 40  2  0  0  0  0
 40 24  1  0  0  0  0
 41 43  3  0  0  0  0
 43 42  1  0  0  0  0
M  END
>  <MODEL>
7

>  <REMARK>
 VINA RESULT:      -5.6      3.703      5.392
  Name = 
  11 active torsions:
  status: ('A' for Active; 'I' for Inactive)
    1  A    between atoms: C_1  and  C_38
    2  A    between atoms: C_3  and  C_43
    3  A    between atoms: N_6  and  S_12
    4  A    between atoms: N_6  and  C_41
    5  A    between atoms: C_10  and  C_28
    6  A    between atoms: C_13  and  C_27
    7  A    between atoms: C_14  and  C_17
    8  A    between atoms: C_19  and  N_29
    9  A    between atoms: C_28  and  N_29
   10  A    between atoms: C_35  and  C_38
   11  A    between atoms: C_35  and  C_42
                            x       y       z     vdW  Elec       q    Type
                         _______ _______ _______ _____ _____    ______ ____

>  <TORSDO>
F 11

$$$$
=
 OpenBabel10232410313D

 43 48  0  0  1  0  0  0  0  0999 V2000
  192.0020  177.6630  140.9590 O   0  0  0  0  0  0  0  0  0  0  0  0
  190.7890  177.6780  140.6120 C   0  0  0  0  0  0  0  0  0  0  0  0
  189.7700  177.9330  141.6020 N   0  0  0  0  0  0  0  0  0  0  0  0
  190.9680  175.7220  143.1710 C   0  0  0  0  0  1  0  0  0  0  0  0
  190.1670  178.2710  142.9800 C   0  0  2  0  0  3  0  0  0  0  0  0
  190.7210  177.0920  143.7930 C   0  0  2  0  0  0  0  0  0  0  0  0
  191.6360  177.4830  144.7700 O   0  0  0  0  0  1  0  0  0  0  0  0
  189.3090  177.5870  144.0770 C   0  0  2  0  0  3  0  0  0  0  0  0
  188.3370  175.4170  143.3470 O   0  0  0  0  0  1  0  0  0  0  0  0
  188.0770  176.7620  143.6120 C   0  0  1  0  0  3  0  0  0  0  0  0
  186.9570  176.8630  144.6470 C   0  0  0  0  0  2  0  0  0  0  0  0
  187.0970  178.0760  145.5660 C   0  0  1  0  0  3  0  0  0  0  0  0
  185.9630  178.8910  145.4910 O   0  0  0  0  0  1  0  0  0  0  0  0
  187.3460  177.6590  147.0110 C   0  0  0  0  0  1  0  0  0  0  0  0
  190.4490  177.5810  139.1400 C   0  0  2  0  0  3  0  0  0  0  0  0
  190.2950  176.1390  138.6880 C   0  0  0  0  0  2  0  0  0  0  0  0
  191.5160  176.9160  138.2500 C   0  0  2  0  0  3  0  0  0  0  0  0
  192.6810  176.4500  138.9960 N   0  0  0  0  0  2  0  0  0  0  0  0
  194.9800  175.1920  138.6450 O   0  0  0  0  0  0  0  0  0  0  0  0
  193.7500  175.6380  137.8970 S   0  0  0  0  0  0  0  0  0  0  0  0
  192.9350  174.2130  137.2120 C   0  0  0  0  0  1  0  0  0  0  0  0
  194.1570  176.5650  136.7840 O   0  0  0  0  0  0  0  0  0  0  0  0
  188.3930  177.5150  141.3400 C   0  0  0  0  0  2  0  0  0  0  0  0
  185.1950  178.5890  139.7300 C   0  0  0  0  0  0  0  0  0  0  0  0
  185.4640  179.5100  141.9880 C   0  0  0  0  0  3  0  0  0  0  0  0
  187.5370  178.6880  140.8610 C   0  0  1  0  0  3  0  0  0  0  0  0
  187.1450  177.6350  138.7500 O   0  0  0  0  0  0  0  0  0  0  0  0
  186.6430  178.2610  139.7220 C   0  0  0  0  0  0  0  0  0  0  0  0
  186.7800  179.2940  142.0160 C   0  0  0  0  0  3  0  0  0  0  0  0
  184.6560  179.1630  140.8080 C   0  0  0  0  0  3  0  0  0  0  0  0
  182.5910  178.0840  137.3440 C   0  0  0  0  0  0  0  0  0  0  0  0
  180.2440  177.8880  138.0510 N   0  0  0  0  0  2  0  0  0  0  0  0
  180.0500  178.0580  139.3050 N   0  0  0  0  0  2  0  0  0  0  0  0
  181.7730  179.2320  138.8090 C   0  0  1  0  0  3  0  0  0  0  0  0
  181.3170  178.7540  137.5550 C   0  0  1  0  0  3  0  0  0  0  0  0
  180.9900  178.9960  139.8280 C   0  0  2  0  0  3  0  0  0  0  0  0
  183.0690  178.6940  138.4280 N   0  0  0  0  0  0  0  0  0  0  0  0
  183.5190  177.2930  136.7260 C   0  0  0  0  0  3  0  0  0  0  0  0
  184.6360  177.4440  137.5340 N   0  0  0  0  0  0  0  0  0  0  0  0
  184.3350  178.3150  138.5630 C   0  0  0  0  0  0  0  0  0  0  0  0
  181.4830  178.8960  141.1760 C   0  0  0  0  0  0  0  0  0  0  0  0
  182.3700  178.7470  143.6870 C   0  0  0  0  0  1  0  0  0  0  0  0
  181.8860  178.8240  142.3100 C   0  0  0  0  0  0  0  0  0  0  0  0
  2  1  2  0  0  0  0
  2  3  1  0  0  0  0
  5  3  1  6  0  0  0
  5  6  1  0  0  0  0
  5  8  1  0  0  0  0
  6  4  1  6  0  0  0
  6  8  1  0  0  0  0
  6  7  1  0  0  0  0
  8 10  1  6  0  0  0
 10  9  1  1  0  0  0
 10 11  1  0  0  0  0
 11 12  1  0  0  0  0
 12 14  1  1  0  0  0
 13 12  1  0  0  0  0
 15  2  1  1  0  0  0
 16 15  1  0  0  0  0
 17 16  1  0  0  0  0
 17 18  1  1  0  0  0
 17 15  1  0  0  0  0
 20 19  2  0  0  0  0
 20 18  1  0  0  0  0
 21 20  1  0  0  0  0
 22 20  2  0  0  0  0
 23  3  1  0  0  0  0
 24 30  2  0  0  0  0
 25 29  2  0  0  0  0
 26 23  1  1  0  0  0
 26 29  1  0  0  0  0
 27 28  2  0  0  0  0
 28 24  1  0  0  0  0
 28 26  1  0  0  0  0
 30 25  1  0  0  0  0
 31 37  1  0  0  0  0
 32 33  1  0  0  0  0
 33 36  1  0  0  0  0
 34 37  1  1  0  0  0
 34 36  1  0  0  0  0
 35 31  1  1  0  0  0
 35 32  1  0  0  0  0
 35 34  1  0  0  0  0
 36 41  1  1  0  0  0
 37 40  1  0  0  0  0
 38 31  2  0  0  0  0
 38 39  1  0  0  0  0
 39 40  2  0  0  0  0
 40 24  1  0  0  0  0
 41 43  3  0  0  0  0
 43 42  1  0  0  0  0
M  END
>  <MODEL>
8

>  <REMARK>
 VINA RESULT:      -5.6      3.484      8.201
  Name = 
  11 active torsions:
  status: ('A' for Active; 'I' for Inactive)
    1  A    between atoms: C_1  and  C_38
    2  A    between atoms: C_3  and  C_43
    3  A    between atoms: N_6  and  S_12
    4  A    between atoms: N_6  and  C_41
    5  A    between atoms: C_10  and  C_28
    6  A    between atoms: C_13  and  C_27
    7  A    between atoms: C_14  and  C_17
    8  A    between atoms: C_19  and  N_29
    9  A    between atoms: C_28  and  N_29
   10  A    between atoms: C_35  and  C_38
   11  A    between atoms: C_35  and  C_42
                            x       y       z     vdW  Elec       q    Type
                         _______ _______ _______ _____ _____    ______ ____

>  <TORSDO>
F 11

$$$$
=
 OpenBabel10232410313D

 43 48  0  0  1  0  0  0  0  0999 V2000
  189.3860  176.1840  140.4430 O   0  0  0  0  0  0  0  0  0  0  0  0
  190.1610  176.7040  139.5960 C   0  0  0  0  0  0  0  0  0  0  0  0
  189.9630  176.4360  138.1910 N   0  0  0  0  0  0  0  0  0  0  0  0
  189.0260  176.9190  135.4200 C   0  0  0  0  0  1  0  0  0  0  0  0
  188.7980  175.6410  137.7630 C   0  0  2  0  0  3  0  0  0  0  0  0
  188.2910  175.9590  136.3490 C   0  0  2  0  0  0  0  0  0  0  0  0
  187.6820  174.8700  135.7290 O   0  0  0  0  0  1  0  0  0  0  0  0
  187.5040  176.4690  137.5490 C   0  0  2  0  0  3  0  0  0  0  0  0
  187.1850  178.8530  136.9120 O   0  0  0  0  0  1  0  0  0  0  0  0
  187.5440  177.9740  137.9360 C   0  0  1  0  0  3  0  0  0  0  0  0
  186.6530  178.2280  139.1510 C   0  0  0  0  0  2  0  0  0  0  0  0
  185.2200  178.6070  138.7750 C   0  0  1  0  0  3  0  0  0  0  0  0
  184.5130  177.4900  138.3220 O   0  0  0  0  0  1  0  0  0  0  0  0
  184.4870  179.2510  139.9460 C   0  0  0  0  0  1  0  0  0  0  0  0
  191.1840  177.7170  140.0660 C   0  0  2  0  0  3  0  0  0  0  0  0
  192.4640  177.0520  140.5410 C   0  0  0  0  0  2  0  0  0  0  0  0
  191.5350  177.6650  141.5650 C   0  0  2  0  0  3  0  0  0  0  0  0
  190.8380  176.6040  142.2850 N   0  0  0  0  0  2  0  0  0  0  0  0
  191.6270  176.4450  144.8040 O   0  0  0  0  0  0  0  0  0  0  0  0
  190.6020  177.1160  143.9260 S   0  0  0  0  0  0  0  0  0  0  0  0
  190.8030  178.8800  144.0370 C   0  0  0  0  0  1  0  0  0  0  0  0
  189.2230  176.7390  144.3980 O   0  0  0  0  0  0  0  0  0  0  0  0
  191.0710  176.6340  137.2580 C   0  0  0  0  0  2  0  0  0  0  0  0
  193.0900  173.6430  136.2820 C   0  0  0  0  0  0  0  0  0  0  0  0
  194.4380  175.6910  136.3860 C   0  0  0  0  0  3  0  0  0  0  0  0
  192.2530  175.7260  137.5990 C   0  0  1  0  0  3  0  0  0  0  0  0
  190.9310  173.7600  137.2780 O   0  0  0  0  0  0  0  0  0  0  0  0
  192.0290  174.3360  137.0540 C   0  0  0  0  0  0  0  0  0  0  0  0
  193.5460  176.3450  137.1320 C   0  0  0  0  0  3  0  0  0  0  0  0
  194.2090  174.3000  135.9650 C   0  0  0  0  0  3  0  0  0  0  0  0
  193.3510  170.1450  135.6330 C   0  0  0  0  0  0  0  0  0  0  0  0
  195.4610  168.9390  136.0100 N   0  0  0  0  0  2  0  0  0  0  0  0
  196.3970  169.6500  136.5190 N   0  0  0  0  0  2  0  0  0  0  0  0
  194.5600  170.4940  137.2290 C   0  0  1  0  0  3  0  0  0  0  0  0
  194.1500  169.3290  136.5350 C   0  0  1  0  0  3  0  0  0  0  0  0
  195.8490  170.6390  137.3890 C   0  0  2  0  0  3  0  0  0  0  0  0
  193.5920  171.2020  136.4070 N   0  0  0  0  0  0  0  0  0  0  0  0
  192.5420  170.4360  134.5700 C   0  0  0  0  0  3  0  0  0  0  0  0
  192.3030  171.7930  134.7320 N   0  0  0  0  0  0  0  0  0  0  0  0
  192.9490  172.2340  135.8700 C   0  0  0  0  0  0  0  0  0  0  0  0
  196.4690  171.9270  137.5500 C   0  0  0  0  0  0  0  0  0  0  0  0
  197.6610  174.2950  137.8460 C   0  0  0  0  0  1  0  0  0  0  0  0
  197.0030  173.0000  137.6830 C   0  0  0  0  0  0  0  0  0  0  0  0
  2  1  2  0  0  0  0
  3  2  1  0  0  0  0
  5  3  1  6  0  0  0
  6  4  1  6  0  0  0
  6  8  1  0  0  0  0
  6  5  1  0  0  0  0
  7  6  1  0  0  0  0
  8  5  1  0  0  0  0
  8 10  1  6  0  0  0
 10  9  1  6  0  0  0
 10 11  1  0  0  0  0
 12 11  1  0  0  0  0
 12 14  1  1  0  0  0
 13 12  1  0  0  0  0
 15  2  1  1  0  0  0
 15 16  1  0  0  0  0
 15 17  1  0  0  0  0
 16 17  1  0  0  0  0
 17 18  1  1  0  0  0
 18 20  1  0  0  0  0
 20 21  1  0  0  0  0
 20 22  2  0  0  0  0
 20 19  2  0  0  0  0
 23  3  1  0  0  0  0
 24 28  1  0  0  0  0
 25 29  2  0  0  0  0
 26 23  1  6  0  0  0
 28 27  2  0  0  0  0
 28 26  1  0  0  0  0
 29 26  1  0  0  0  0
 30 24  2  0  0  0  0
 30 25  1  0  0  0  0
 31 37  1  0  0  0  0
 32 33  1  0  0  0  0
 32 35  1  0  0  0  0
 33 36  1  0  0  0  0
 34 37  1  6  0  0  0
 34 36  1  0  0  0  0
 35 31  1  6  0  0  0
 35 34  1  0  0  0  0
 36 41  1  6  0  0  0
 38 39  1  0  0  0  0
 38 31  2  0  0  0  0
 39 40  2  0  0  0  0
 40 24  1  0  0  0  0
 40 37  1  0  0  0  0
 41 43  3  0  0  0  0
 43 42  1  0  0  0  0
M  END
>  <MODEL>
9

>  <REMARK>
 VINA RESULT:      -5.5      3.135      6.508
  Name = 
  11 active torsions:
  status: ('A' for Active; 'I' for Inactive)
    1  A    between atoms: C_1  and  C_38
    2  A    between atoms: C_3  and  C_43
    3  A    between atoms: N_6  and  S_12
    4  A    between atoms: N_6  and  C_41
    5  A    between atoms: C_10  and  C_28
    6  A    between atoms: C_13  and  C_27
    7  A    between atoms: C_14  and  C_17
    8  A    between atoms: C_19  and  N_29
    9  A    between atoms: C_28  and  N_29
   10  A    between atoms: C_35  and  C_38
   11  A    between atoms: C_35  and  C_42
                            x       y       z     vdW  Elec       q    Type
                         _______ _______ _______ _____ _____    ______ ____

>  <TORSDO>
F 11

$$$$
