=
 OpenBabel10222421473D

 31 34  0  0  0  0  0  0  0  0999 V2000
  186.5230  178.2970  143.8980 C   0  0  0  0  0  0  0  0  0  0  0  0
  189.3720  178.0780  141.4320 C   0  0  0  0  0  0  0  0  0  0  0  0
  189.3210  177.8760  143.8740 C   0  0  0  0  0  0  0  0  0  0  0  0
  187.1710  178.0850  145.1240 C   0  0  0  0  0  0  0  0  0  0  0  0
  190.8380  177.8530  143.8670 C   0  0  0  0  0  2  0  0  0  0  0  0
  189.0440  178.2730  147.3940 O   0  0  0  0  0  0  0  0  0  0  0  0
  191.4400  177.4800  142.5400 C   0  0  0  0  0  3  0  0  0  0  0  0
  185.1440  178.5100  143.8510 C   0  0  0  0  0  3  0  0  0  0  0  0
  190.7740  177.6110  141.3940 C   0  0  0  0  0  0  0  0  0  0  0  0
  184.3870  178.5070  145.0330 C   0  0  0  0  0  0  0  0  0  0  0  0
  186.4070  178.0720  146.3030 C   0  0  0  0  0  3  0  0  0  0  0  0
  187.2660  178.2870  142.7180 O   0  0  0  0  0  0  0  0  0  0  0  0
  185.0260  178.2840  146.2560 C   0  0  0  0  0  3  0  0  0  0  0  0
  189.2870  177.5780  146.3700 C   0  0  0  0  0  0  0  0  0  0  0  0
  188.5990  177.8540  145.1320 N   0  0  0  0  0  0  0  0  0  0  0  0
  188.7920  178.4760  140.3880 O   0  0  0  0  0  0  0  0  0  0  0  0
  188.6520  178.0810  142.7170 C   0  0  0  0  0  0  0  0  0  0  0  0
  190.9300  176.4890  139.1100 C   0  0  0  0  0  0  0  0  0  0  0  0
  191.4500  177.3000  140.1690 N   0  0  0  0  0  2  0  0  0  0  0  0
  189.9330  175.7400  139.3010 O   0  0  0  0  0  0  0  0  0  0  0  0
  193.1290  176.2770  137.9750 C   0  0  0  0  0  2  0  0  0  0  0  0
  193.8040  176.1890  136.6090 C   0  0  0  0  0  2  0  0  0  0  0  0
  193.2370  175.0810  135.8400 N   0  0  0  0  0  2  0  0  0  0  0  0
  191.8320  175.3770  135.5660 C   0  0  0  0  0  2  0  0  0  0  0  0
  191.0400  175.4180  136.8700 C   0  0  0  0  0  2  0  0  0  0  0  0
  191.6270  176.4880  137.7900 C   0  0  0  0  0  3  0  0  0  0  0  0
  183.0050  178.7190  145.0200 O   0  0  0  0  0  0  0  0  0  0  0  0
  182.2590  178.8410  143.8180 C   0  0  0  0  0  1  0  0  0  0  0  0
  190.2070  176.3990  146.4790 C   0  0  0  0  0  2  0  0  0  0  0  0
  191.3590  176.6530  147.4420 C   0  0  0  0  0  2  0  0  0  0  0  0
  192.3820  175.6340  147.2880 N   0  0  0  0  0  1  0  0  0  0  0  0
  1  4  1  0  0  0  0
  2 17  1  0  0  0  0
  3 15  1  0  0  0  0
  4 15  1  0  0  0  0
  4 11  2  0  0  0  0
  5  3  1  0  0  0  0
  7  5  1  0  0  0  0
  8  1  2  0  0  0  0
  8 10  1  0  0  0  0
  9  2  1  0  0  0  0
  9  7  2  0  0  0  0
 10 13  2  0  0  0  0
 12  1  1  0  0  0  0
 13 11  1  0  0  0  0
 14 29  1  0  0  0  0
 14  6  2  0  0  0  0
 15 14  1  0  0  0  0
 16  2  2  0  0  0  0
 17 12  1  0  0  0  0
 17  3  2  0  0  0  0
 18 20  2  0  0  0  0
 18 19  1  0  0  0  0
 19  9  1  0  0  0  0
 22 21  1  0  0  0  0
 23 22  1  0  0  0  0
 24 23  1  0  0  0  0
 24 25  1  0  0  0  0
 25 26  1  0  0  0  0
 26 21  1  0  0  0  0
 26 18  1  0  0  0  0
 27 10  1  0  0  0  0
 28 27  1  0  0  0  0
 29 30  1  0  0  0  0
 31 30  1  0  0  0  0
M  END
>  <MODEL>
1

>  <REMARK>
 VINA RESULT:      -8.6      0.000      0.000
  Name = 
  5 active torsions:
  status: ('A' for Active; 'I' for Inactive)
    1  A    between atoms: C_3  and  C_23
    2  A    between atoms: C_3  and  C_24
    3  A    between atoms: O_8  and  C_17
    4  A    between atoms: C_9  and  C_31
    5  A    between atoms: N_11  and  C_15
                            x       y       z     vdW  Elec       q    Type
                         _______ _______ _______ _____ _____    ______ ____

>  <TORSDO>
F 5

$$$$
=
 OpenBabel10222421473D

 31 34  0  0  0  0  0  0  0  0999 V2000
  186.4070  178.1990  143.7800 C   0  0  0  0  0  0  0  0  0  0  0  0
  188.8960  177.5610  141.0160 C   0  0  0  0  0  0  0  0  0  0  0  0
  189.1560  177.6120  143.4520 C   0  0  0  0  0  0  0  0  0  0  0  0
  187.1980  178.0740  144.9310 C   0  0  0  0  0  0  0  0  0  0  0  0
  190.6560  177.4990  143.2590 C   0  0  0  0  0  2  0  0  0  0  0  0
  189.3590  178.3820  146.9160 O   0  0  0  0  0  0  0  0  0  0  0  0
  191.0620  176.9570  141.9150 C   0  0  0  0  0  3  0  0  0  0  0  0
  185.0440  178.4880  143.8830 C   0  0  0  0  0  3  0  0  0  0  0  0
  190.2580  177.0100  140.8540 C   0  0  0  0  0  0  0  0  0  0  0  0
  184.4490  178.6500  145.1430 C   0  0  0  0  0  0  0  0  0  0  0  0
  186.5950  178.2270  146.1900 C   0  0  0  0  0  3  0  0  0  0  0  0
  186.9890  178.0250  142.5240 O   0  0  0  0  0  0  0  0  0  0  0  0
  185.2310  178.5150  146.2940 C   0  0  0  0  0  3  0  0  0  0  0  0
  189.4340  177.5730  145.9510 C   0  0  0  0  0  0  0  0  0  0  0  0
  188.6040  177.7610  144.7860 N   0  0  0  0  0  0  0  0  0  0  0  0
  188.2040  177.8840  140.0150 O   0  0  0  0  0  0  0  0  0  0  0  0
  188.3510  177.7380  142.3730 C   0  0  0  0  0  0  0  0  0  0  0  0
  192.0940  176.6890  139.1140 C   0  0  0  0  0  0  0  0  0  0  0  0
  190.7540  176.5360  139.5950 N   0  0  0  0  0  2  0  0  0  0  0  0
  192.8810  177.5170  139.6490 O   0  0  0  0  0  0  0  0  0  0  0  0
  193.9450  175.3660  138.1190 C   0  0  0  0  0  2  0  0  0  0  0  0
  194.3300  174.4930  136.9290 C   0  0  0  0  0  2  0  0  0  0  0  0
  193.3900  173.3800  136.7980 N   0  0  0  0  0  2  0  0  0  0  0  0
  192.0700  173.9220  136.4770 C   0  0  0  0  0  2  0  0  0  0  0  0
  191.5520  174.7630  137.6410 C   0  0  0  0  0  2  0  0  0  0  0  0
  192.5290  175.9030  137.9220 C   0  0  0  0  0  3  0  0  0  0  0  0
  183.0890  178.9420  145.2800 O   0  0  0  0  0  0  0  0  0  0  0  0
  182.1850  178.9180  144.1850 C   0  0  0  0  0  1  0  0  0  0  0  0
  190.3060  176.3580  146.0720 C   0  0  0  0  0  2  0  0  0  0  0  0
  191.2290  176.4290  147.2800 C   0  0  0  0  0  2  0  0  0  0  0  0
  192.4090  175.6110  147.0630 N   0  0  0  0  0  1  0  0  0  0  0  0
  1  8  2  0  0  0  0
  1  4  1  0  0  0  0
  2 17  1  0  0  0  0
  3 15  1  0  0  0  0
  4 11  2  0  0  0  0
  5  3  1  0  0  0  0
  7  5  1  0  0  0  0
  8 10  1  0  0  0  0
  9  2  1  0  0  0  0
  9  7  2  0  0  0  0
 10 27  1  0  0  0  0
 10 13  2  0  0  0  0
 11 13  1  0  0  0  0
 12  1  1  0  0  0  0
 14 29  1  0  0  0  0
 14  6  2  0  0  0  0
 15  4  1  0  0  0  0
 15 14  1  0  0  0  0
 16  2  2  0  0  0  0
 17 12  1  0  0  0  0
 17  3  2  0  0  0  0
 18 19  1  0  0  0  0
 18 20  2  0  0  0  0
 19  9  1  0  0  0  0
 22 21  1  0  0  0  0
 23 22  1  0  0  0  0
 24 23  1  0  0  0  0
 24 25  1  0  0  0  0
 25 26  1  0  0  0  0
 26 21  1  0  0  0  0
 26 18  1  0  0  0  0
 28 27  1  0  0  0  0
 29 30  1  0  0  0  0
 31 30  1  0  0  0  0
M  END
>  <MODEL>
2

>  <REMARK>
 VINA RESULT:      -8.6      1.051      1.061
  Name = 
  5 active torsions:
  status: ('A' for Active; 'I' for Inactive)
    1  A    between atoms: C_3  and  C_23
    2  A    between atoms: C_3  and  C_24
    3  A    between atoms: O_8  and  C_17
    4  A    between atoms: C_9  and  C_31
    5  A    between atoms: N_11  and  C_15
                            x       y       z     vdW  Elec       q    Type
                         _______ _______ _______ _____ _____    ______ ____

>  <TORSDO>
F 5

$$$$
=
 OpenBabel10222421473D

 31 34  0  0  0  0  0  0  0  0999 V2000
  189.0660  177.5370  143.9800 C   0  0  0  0  0  0  0  0  0  0  0  0
  186.0560  178.5800  141.9560 C   0  0  0  0  0  0  0  0  0  0  0  0
  188.3290  177.9610  141.2810 C   0  0  0  0  0  0  0  0  0  0  0  0
  190.0330  177.3170  142.9890 C   0  0  0  0  0  0  0  0  0  0  0  0
  187.9850  178.3830  139.8660 C   0  0  0  0  0  2  0  0  0  0  0  0
  191.8150  177.6550  140.6630 O   0  0  0  0  0  0  0  0  0  0  0  0
  186.5080  178.4320  139.5820 C   0  0  0  0  0  3  0  0  0  0  0  0
  189.3740  177.3430  145.3290 C   0  0  0  0  0  3  0  0  0  0  0  0
  185.6010  178.5560  140.5500 C   0  0  0  0  0  0  0  0  0  0  0  0
  190.6570  176.9180  145.7070 C   0  0  0  0  0  0  0  0  0  0  0  0
  191.3120  176.8820  143.3720 C   0  0  0  0  0  3  0  0  0  0  0  0
  187.7840  177.9440  143.6120 O   0  0  0  0  0  0  0  0  0  0  0  0
  191.6210  176.6870  144.7210 C   0  0  0  0  0  3  0  0  0  0  0  0
  190.6270  177.2460  140.5540 C   0  0  0  0  0  0  0  0  0  0  0  0
  189.6720  177.5150  141.6010 N   0  0  0  0  0  0  0  0  0  0  0  0
  185.2900  178.9630  142.8790 O   0  0  0  0  0  0  0  0  0  0  0  0
  187.4300  178.1550  142.2720 C   0  0  0  0  0  0  0  0  0  0  0  0
  183.6760  179.6120  139.2550 C   0  0  0  0  0  0  0  0  0  0  0  0
  184.2200  178.6680  140.1840 N   0  0  0  0  0  2  0  0  0  0  0  0
  184.3420  180.6210  138.8960 O   0  0  0  0  0  0  0  0  0  0  0  0
  181.6660  180.7630  138.3600 C   0  0  0  0  0  2  0  0  0  0  0  0
  180.2730  180.5320  137.7800 C   0  0  0  0  0  2  0  0  0  0  0  0
  180.3530  179.6480  136.6180 N   0  0  0  0  0  2  0  0  0  0  0  0
  180.8160  178.3350  137.0640 C   0  0  0  0  0  2  0  0  0  0  0  0
  182.2410  178.4360  137.6020 C   0  0  0  0  0  2  0  0  0  0  0  0
  182.2780  179.4240  138.7670 C   0  0  0  0  0  3  0  0  0  0  0  0
  190.9990  176.7180  147.0470 O   0  0  0  0  0  0  0  0  0  0  0  0
  192.0460  175.8460  147.4500 C   0  0  0  0  0  1  0  0  0  0  0  0
  190.2470  176.3850  139.3850 C   0  0  0  0  0  2  0  0  0  0  0  0
  191.4180  176.1460  138.4410 C   0  0  0  0  0  2  0  0  0  0  0  0
  191.4740  174.7480  138.0510 N   0  0  0  0  0  1  0  0  0  0  0  0
  1  8  1  0  0  0  0
  2 17  1  0  0  0  0
  2 16  2  0  0  0  0
  3 15  1  0  0  0  0
  3 17  2  0  0  0  0
  4 11  1  0  0  0  0
  4  1  2  0  0  0  0
  5  3  1  0  0  0  0
  7  5  1  0  0  0  0
  7  9  2  0  0  0  0
  8 10  2  0  0  0  0
  9  2  1  0  0  0  0
 10 27  1  0  0  0  0
 11 13  2  0  0  0  0
 12  1  1  0  0  0  0
 13 10  1  0  0  0  0
 14  6  2  0  0  0  0
 14 15  1  0  0  0  0
 15  4  1  0  0  0  0
 17 12  1  0  0  0  0
 18 19  1  0  0  0  0
 19  9  1  0  0  0  0
 20 18  2  0  0  0  0
 21 26  1  0  0  0  0
 22 21  1  0  0  0  0
 23 24  1  0  0  0  0
 23 22  1  0  0  0  0
 24 25  1  0  0  0  0
 25 26  1  0  0  0  0
 26 18  1  0  0  0  0
 27 28  1  0  0  0  0
 29 14  1  0  0  0  0
 30 29  1  0  0  0  0
 31 30  1  0  0  0  0
M  END
>  <MODEL>
3

>  <REMARK>
 VINA RESULT:      -8.4      4.036      7.696
  Name = 
  5 active torsions:
  status: ('A' for Active; 'I' for Inactive)
    1  A    between atoms: C_3  and  C_23
    2  A    between atoms: C_3  and  C_24
    3  A    between atoms: O_8  and  C_17
    4  A    between atoms: C_9  and  C_31
    5  A    between atoms: N_11  and  C_15
                            x       y       z     vdW  Elec       q    Type
                         _______ _______ _______ _____ _____    ______ ____

>  <TORSDO>
F 5

$$$$
=
 OpenBabel10222421473D

 31 34  0  0  0  0  0  0  0  0999 V2000
  192.1740  176.2530  138.3250 C   0  0  0  0  0  0  0  0  0  0  0  0
  190.7700  177.4850  141.6040 C   0  0  0  0  0  0  0  0  0  0  0  0
  189.8450  177.5030  139.3340 C   0  0  0  0  0  0  0  0  0  0  0  0
  191.1430  176.5550  137.4240 C   0  0  0  0  0  0  0  0  0  0  0  0
  188.6960  178.3500  139.8480 C   0  0  0  0  0  2  0  0  0  0  0  0
  189.0530  177.9760  135.9030 O   0  0  0  0  0  0  0  0  0  0  0  0
  188.4960  178.2730  141.3380 C   0  0  0  0  0  3  0  0  0  0  0  0
  193.3460  175.6350  137.8810 C   0  0  0  0  0  3  0  0  0  0  0  0
  189.4680  177.9000  142.1680 C   0  0  0  0  0  0  0  0  0  0  0  0
  193.5010  175.3030  136.5270 C   0  0  0  0  0  0  0  0  0  0  0  0
  191.2990  176.2110  136.0710 C   0  0  0  0  0  3  0  0  0  0  0  0
  192.0210  176.5660  139.6750 O   0  0  0  0  0  0  0  0  0  0  0  0
  192.4710  175.5920  135.6270 C   0  0  0  0  0  3  0  0  0  0  0  0
  188.8360  177.4570  137.0320 C   0  0  0  0  0  0  0  0  0  0  0  0
  189.9370  177.1820  137.9220 N   0  0  0  0  0  0  0  0  0  0  0  0
  191.7920  177.3880  142.3330 O   0  0  0  0  0  0  0  0  0  0  0  0
  190.8650  177.1880  140.1640 C   0  0  0  0  0  0  0  0  0  0  0  0
  188.4380  176.9640  144.3040 C   0  0  0  0  0  0  0  0  0  0  0  0
  189.2120  177.9260  143.5780 N   0  0  0  0  0  2  0  0  0  0  0  0
  187.6730  176.1630  143.7000 O   0  0  0  0  0  0  0  0  0  0  0  0
  189.9060  177.2960  146.2800 C   0  0  0  0  0  2  0  0  0  0  0  0
  189.9150  177.3820  147.8030 C   0  0  0  0  0  2  0  0  0  0  0  0
  188.9820  178.4130  148.2540 N   0  0  0  0  0  2  0  0  0  0  0  0
  187.6260  178.0030  147.8920 C   0  0  0  0  0  2  0  0  0  0  0  0
  187.4800  177.9530  146.3730 C   0  0  0  0  0  2  0  0  0  0  0  0
  188.4940  176.9670  145.7950 C   0  0  0  0  0  3  0  0  0  0  0  0
  194.6620  174.6870  136.0500 O   0  0  0  0  0  0  0  0  0  0  0  0
  195.7830  174.4160  136.8810 C   0  0  0  0  0  1  0  0  0  0  0  0
  187.4440  177.0290  137.3940 C   0  0  0  0  0  2  0  0  0  0  0  0
  186.3960  178.0380  136.9460 C   0  0  0  0  0  2  0  0  0  0  0  0
  185.8190  178.7120  138.0960 N   0  0  0  0  0  1  0  0  0  0  0  0
  1 12  1  0  0  0  0
  2  9  1  0  0  0  0
  2 16  2  0  0  0  0
  3  5  1  0  0  0  0
  3 17  2  0  0  0  0
  4 15  1  0  0  0  0
  4  1  2  0  0  0  0
  5  7  1  0  0  0  0
  6 14  2  0  0  0  0
  7  9  2  0  0  0  0
  8  1  1  0  0  0  0
  9 19  1  0  0  0  0
 10  8  2  0  0  0  0
 11  4  1  0  0  0  0
 12 17  1  0  0  0  0
 13 11  2  0  0  0  0
 13 10  1  0  0  0  0
 14 29  1  0  0  0  0
 14 15  1  0  0  0  0
 15  3  1  0  0  0  0
 17  2  1  0  0  0  0
 18 26  1  0  0  0  0
 19 18  1  0  0  0  0
 20 18  2  0  0  0  0
 21 22  1  0  0  0  0
 22 23  1  0  0  0  0
 24 23  1  0  0  0  0
 25 24  1  0  0  0  0
 26 21  1  0  0  0  0
 26 25  1  0  0  0  0
 27 10  1  0  0  0  0
 27 28  1  0  0  0  0
 30 29  1  0  0  0  0
 30 31  1  0  0  0  0
M  END
>  <MODEL>
4

>  <REMARK>
 VINA RESULT:      -8.4      2.648      9.520
  Name = 
  5 active torsions:
  status: ('A' for Active; 'I' for Inactive)
    1  A    between atoms: C_3  and  C_23
    2  A    between atoms: C_3  and  C_24
    3  A    between atoms: O_8  and  C_17
    4  A    between atoms: C_9  and  C_31
    5  A    between atoms: N_11  and  C_15
                            x       y       z     vdW  Elec       q    Type
                         _______ _______ _______ _____ _____    ______ ____

>  <TORSDO>
F 5

$$$$
=
 OpenBabel10222421473D

 31 34  0  0  0  0  0  0  0  0999 V2000
  189.9650  177.4220  145.4220 C   0  0  0  0  0  0  0  0  0  0  0  0
  189.0810  177.7200  141.7650 C   0  0  0  0  0  0  0  0  0  0  0  0
  187.6940  177.8240  143.7830 C   0  0  0  0  0  0  0  0  0  0  0  0
  188.7200  177.5800  146.0460 C   0  0  0  0  0  0  0  0  0  0  0  0
  186.4660  177.8370  142.8940 C   0  0  0  0  0  2  0  0  0  0  0  0
  185.8810  177.2880  146.7920 O   0  0  0  0  0  0  0  0  0  0  0  0
  186.7380  178.2600  141.4760 C   0  0  0  0  0  3  0  0  0  0  0  0
  191.1200  177.2200  146.1820 C   0  0  0  0  0  3  0  0  0  0  0  0
  187.9510  178.1790  140.9300 C   0  0  0  0  0  0  0  0  0  0  0  0
  191.0460  177.1810  147.5830 C   0  0  0  0  0  0  0  0  0  0  0  0
  188.6540  177.5510  147.4490 C   0  0  0  0  0  3  0  0  0  0  0  0
  190.0490  177.4740  144.0310 O   0  0  0  0  0  0  0  0  0  0  0  0
  189.8090  177.3500  148.2100 C   0  0  0  0  0  3  0  0  0  0  0  0
  186.2600  178.0220  145.8390 C   0  0  0  0  0  0  0  0  0  0  0  0
  187.5480  177.8010  145.2260 N   0  0  0  0  0  0  0  0  0  0  0  0
  190.1720  177.3690  141.2440 O   0  0  0  0  0  0  0  0  0  0  0  0
  188.9180  177.6710  143.2280 C   0  0  0  0  0  0  0  0  0  0  0  0
  188.4590  177.6390  138.4910 C   0  0  0  0  0  0  0  0  0  0  0  0
  188.1060  178.5350  139.5500 N   0  0  0  0  0  2  0  0  0  0  0  0
  188.9470  176.5030  138.7420 O   0  0  0  0  0  0  0  0  0  0  0  0
  189.1850  177.2600  136.1470 C   0  0  0  0  0  2  0  0  0  0  0  0
  188.9420  177.6830  134.7010 C   0  0  0  0  0  2  0  0  0  0  0  0
  187.5330  177.4960  134.3540 N   0  0  0  0  0  2  0  0  0  0  0  0
  186.7290  178.4050  135.1690 C   0  0  0  0  0  2  0  0  0  0  0  0
  186.8420  178.0250  136.6440 C   0  0  0  0  0  2  0  0  0  0  0  0
  188.3060  178.0930  137.0780 C   0  0  0  0  0  3  0  0  0  0  0  0
  192.1820  176.9780  148.3720 O   0  0  0  0  0  0  0  0  0  0  0  0
  192.9410  175.7780  148.3310 C   0  0  0  0  0  1  0  0  0  0  0  0
  185.4150  179.1900  145.4240 C   0  0  0  0  0  2  0  0  0  0  0  0
  183.9560  178.8030  145.2240 C   0  0  0  0  0  2  0  0  0  0  0  0
  183.3880  179.5350  144.1050 N   0  0  0  0  0  1  0  0  0  0  0  0
  1  4  2  0  0  0  0
  1  8  1  0  0  0  0
  2 17  1  0  0  0  0
  3 15  1  0  0  0  0
  4 11  1  0  0  0  0
  5  3  1  0  0  0  0
  7  5  1  0  0  0  0
  8 10  2  0  0  0  0
  9  7  2  0  0  0  0
  9  2  1  0  0  0  0
 10 13  1  0  0  0  0
 10 27  1  0  0  0  0
 11 13  2  0  0  0  0
 12  1  1  0  0  0  0
 14  6  2  0  0  0  0
 15 14  1  0  0  0  0
 15  4  1  0  0  0  0
 16  2  2  0  0  0  0
 17  3  2  0  0  0  0
 17 12  1  0  0  0  0
 18 20  2  0  0  0  0
 18 19  1  0  0  0  0
 19  9  1  0  0  0  0
 21 26  1  0  0  0  0
 22 21  1  0  0  0  0
 23 22  1  0  0  0  0
 23 24  1  0  0  0  0
 24 25  1  0  0  0  0
 25 26  1  0  0  0  0
 26 18  1  0  0  0  0
 28 27  1  0  0  0  0
 29 14  1  0  0  0  0
 30 29  1  0  0  0  0
 31 30  1  0  0  0  0
M  END
>  <MODEL>
5

>  <REMARK>
 VINA RESULT:      -8.3      2.838      5.302
  Name = 
  5 active torsions:
  status: ('A' for Active; 'I' for Inactive)
    1  A    between atoms: C_3  and  C_23
    2  A    between atoms: C_3  and  C_24
    3  A    between atoms: O_8  and  C_17
    4  A    between atoms: C_9  and  C_31
    5  A    between atoms: N_11  and  C_15
                            x       y       z     vdW  Elec       q    Type
                         _______ _______ _______ _____ _____    ______ ____

>  <TORSDO>
F 5

$$$$
=
 OpenBabel10222421473D

 31 34  0  0  0  0  0  0  0  0999 V2000
  188.3470  177.5160  144.7140 C   0  0  0  0  0  0  0  0  0  0  0  0
  190.1920  176.8990  141.4810 C   0  0  0  0  0  0  0  0  0  0  0  0
  187.8830  177.5880  141.9240 C   0  0  0  0  0  0  0  0  0  0  0  0
  187.0720  177.8910  144.2660 C   0  0  0  0  0  0  0  0  0  0  0  0
  187.5890  177.4290  140.4440 C   0  0  0  0  0  2  0  0  0  0  0  0
  184.4750  177.9370  142.8690 O   0  0  0  0  0  0  0  0  0  0  0  0
  188.8130  177.4560  139.5690 C   0  0  0  0  0  3  0  0  0  0  0  0
  188.6320  177.4640  146.0810 C   0  0  0  0  0  3  0  0  0  0  0  0
  190.0290  177.1790  140.0380 C   0  0  0  0  0  0  0  0  0  0  0  0
  187.6450  177.7920  147.0220 C   0  0  0  0  0  0  0  0  0  0  0  0
  186.0910  178.2290  145.2120 C   0  0  0  0  0  3  0  0  0  0  0  0
  189.3380  177.2020  143.7850 O   0  0  0  0  0  0  0  0  0  0  0  0
  186.3760  178.1770  146.5800 C   0  0  0  0  0  3  0  0  0  0  0  0
  185.5340  178.3800  142.3470 C   0  0  0  0  0  0  0  0  0  0  0  0
  186.8180  177.9470  142.8420 N   0  0  0  0  0  0  0  0  0  0  0  0
  191.2470  176.3730  141.9240 O   0  0  0  0  0  0  0  0  0  0  0  0
  189.0970  177.2380  142.4050 C   0  0  0  0  0  0  0  0  0  0  0  0
  191.4770  176.0670  138.2590 C   0  0  0  0  0  0  0  0  0  0  0  0
  191.1290  177.1570  139.1190 N   0  0  0  0  0  2  0  0  0  0  0  0
  191.0030  174.9140  138.4540 O   0  0  0  0  0  0  0  0  0  0  0  0
  193.7550  175.5200  137.4340 C   0  0  0  0  0  2  0  0  0  0  0  0
  194.7120  175.6980  136.2590 C   0  0  0  0  0  2  0  0  0  0  0  0
  194.0890  175.2140  135.0270 N   0  0  0  0  0  2  0  0  0  0  0  0
  192.9360  176.0610  134.7260 C   0  0  0  0  0  2  0  0  0  0  0  0
  191.8730  175.9060  135.8110 C   0  0  0  0  0  2  0  0  0  0  0  0
  192.4660  176.2950  137.1650 C   0  0  0  0  0  3  0  0  0  0  0  0
  187.8970  177.7470  148.3960 O   0  0  0  0  0  0  0  0  0  0  0  0
  189.0940  178.2490  148.9740 C   0  0  0  0  0  1  0  0  0  0  0  0
  185.4490  179.4400  141.2880 C   0  0  0  0  0  2  0  0  0  0  0  0
  184.3640  179.1430  140.2620 C   0  0  0  0  0  2  0  0  0  0  0  0
  184.5840  179.9220  139.0560 N   0  0  0  0  0  1  0  0  0  0  0  0
  1  8  1  0  0  0  0
  2 16  2  0  0  0  0
  2 17  1  0  0  0  0
  3 17  2  0  0  0  0
  3 15  1  0  0  0  0
  4  1  2  0  0  0  0
  4 11  1  0  0  0  0
  5  3  1  0  0  0  0
  7  9  2  0  0  0  0
  7  5  1  0  0  0  0
  8 10  2  0  0  0  0
  9  2  1  0  0  0  0
 10 27  1  0  0  0  0
 11 13  2  0  0  0  0
 12  1  1  0  0  0  0
 13 10  1  0  0  0  0
 14 15  1  0  0  0  0
 14  6  2  0  0  0  0
 15  4  1  0  0  0  0
 17 12  1  0  0  0  0
 18 20  2  0  0  0  0
 18 19  1  0  0  0  0
 19  9  1  0  0  0  0
 22 21  1  0  0  0  0
 23 22  1  0  0  0  0
 24 23  1  0  0  0  0
 24 25  1  0  0  0  0
 25 26  1  0  0  0  0
 26 21  1  0  0  0  0
 26 18  1  0  0  0  0
 27 28  1  0  0  0  0
 29 14  1  0  0  0  0
 30 29  1  0  0  0  0
 31 30  1  0  0  0  0
M  END
>  <MODEL>
6

>  <REMARK>
 VINA RESULT:      -8.2      2.240      4.504
  Name = 
  5 active torsions:
  status: ('A' for Active; 'I' for Inactive)
    1  A    between atoms: C_3  and  C_23
    2  A    between atoms: C_3  and  C_24
    3  A    between atoms: O_8  and  C_17
    4  A    between atoms: C_9  and  C_31
    5  A    between atoms: N_11  and  C_15
                            x       y       z     vdW  Elec       q    Type
                         _______ _______ _______ _____ _____    ______ ____

>  <TORSDO>
F 5

$$$$
=
 OpenBabel10222421473D

 31 34  0  0  0  0  0  0  0  0999 V2000
  191.1750  175.1760  137.6820 C   0  0  0  0  0  0  0  0  0  0  0  0
  190.1800  177.1990  140.7080 C   0  0  0  0  0  0  0  0  0  0  0  0
  189.1340  176.9540  138.5050 C   0  0  0  0  0  0  0  0  0  0  0  0
  190.1500  175.4730  136.7710 C   0  0  0  0  0  0  0  0  0  0  0  0
  188.1630  178.0560  138.8840 C   0  0  0  0  0  2  0  0  0  0  0  0
  188.2180  176.9140  135.0720 O   0  0  0  0  0  0  0  0  0  0  0  0
  188.0430  178.2870  140.3660 C   0  0  0  0  0  3  0  0  0  0  0  0
  192.2080  174.3050  137.3280 C   0  0  0  0  0  3  0  0  0  0  0  0
  188.9950  177.9180  141.2220 C   0  0  0  0  0  0  0  0  0  0  0  0
  192.2280  173.7100  136.0570 C   0  0  0  0  0  0  0  0  0  0  0  0
  190.1700  174.8670  135.5050 C   0  0  0  0  0  3  0  0  0  0  0  0
  191.1540  175.7510  138.9520 O   0  0  0  0  0  0  0  0  0  0  0  0
  191.2030  173.9940  135.1510 C   0  0  0  0  0  3  0  0  0  0  0  0
  187.9920  176.6530  136.2850 C   0  0  0  0  0  0  0  0  0  0  0  0
  189.0890  176.3690  137.1780 N   0  0  0  0  0  0  0  0  0  0  0  0
  191.2170  177.0710  141.4110 O   0  0  0  0  0  0  0  0  0  0  0  0
  190.1410  176.6330  139.3490 C   0  0  0  0  0  0  0  0  0  0  0  0
  188.4170  177.3350  143.6360 C   0  0  0  0  0  0  0  0  0  0  0  0
  188.8310  178.2420  142.6090 N   0  0  0  0  0  2  0  0  0  0  0  0
  187.8810  176.2310  143.3440 O   0  0  0  0  0  0  0  0  0  0  0  0
  187.2340  177.6050  145.8020 C   0  0  0  0  0  2  0  0  0  0  0  0
  187.4320  177.9400  147.2780 C   0  0  0  0  0  2  0  0  0  0  0  0
  188.4230  177.0400  147.8680 N   0  0  0  0  0  2  0  0  0  0  0  0
  189.7150  177.2900  147.2310 C   0  0  0  0  0  2  0  0  0  0  0  0
  189.6520  176.9180  145.7510 C   0  0  0  0  0  2  0  0  0  0  0  0
  188.5640  177.7420  145.0640 C   0  0  0  0  0  3  0  0  0  0  0  0
  193.2490  172.8360  135.6720 O   0  0  0  0  0  0  0  0  0  0  0  0
  193.1390  171.4250  135.7980 C   0  0  0  0  0  1  0  0  0  0  0  0
  186.5750  176.5320  136.7640 C   0  0  0  0  0  2  0  0  0  0  0  0
  186.1590  175.0820  136.9700 C   0  0  0  0  0  2  0  0  0  0  0  0
  186.2860  174.3380  135.7290 N   0  0  0  0  0  1  0  0  0  0  0  0
  1 12  1  0  0  0  0
  2  9  1  0  0  0  0
  2 16  2  0  0  0  0
  3  5  1  0  0  0  0
  3 17  2  0  0  0  0
  4 15  1  0  0  0  0
  4  1  2  0  0  0  0
  5  7  1  0  0  0  0
  6 14  2  0  0  0  0
  7  9  2  0  0  0  0
  8  1  1  0  0  0  0
  9 19  1  0  0  0  0
 10  8  2  0  0  0  0
 11  4  1  0  0  0  0
 12 17  1  0  0  0  0
 13 11  2  0  0  0  0
 13 10  1  0  0  0  0
 14 29  1  0  0  0  0
 14 15  1  0  0  0  0
 15  3  1  0  0  0  0
 17  2  1  0  0  0  0
 18 26  1  0  0  0  0
 19 18  1  0  0  0  0
 20 18  2  0  0  0  0
 21 22  1  0  0  0  0
 22 23  1  0  0  0  0
 24 23  1  0  0  0  0
 25 24  1  0  0  0  0
 26 25  1  0  0  0  0
 26 21  1  0  0  0  0
 27 28  1  0  0  0  0
 27 10  1  0  0  0  0
 29 30  1  0  0  0  0
 31 30  1  0  0  0  0
M  END
>  <MODEL>
7

>  <REMARK>
 VINA RESULT:      -8.0      2.893      9.645
  Name = 
  5 active torsions:
  status: ('A' for Active; 'I' for Inactive)
    1  A    between atoms: C_3  and  C_23
    2  A    between atoms: C_3  and  C_24
    3  A    between atoms: O_8  and  C_17
    4  A    between atoms: C_9  and  C_31
    5  A    between atoms: N_11  and  C_15
                            x       y       z     vdW  Elec       q    Type
                         _______ _______ _______ _____ _____    ______ ____

>  <TORSDO>
F 5

$$$$
=
 OpenBabel10222421473D

 31 34  0  0  0  0  0  0  0  0999 V2000
  188.6370  177.9270  141.3920 C   0  0  0  0  0  0  0  0  0  0  0  0
  185.3690  178.7940  139.7150 C   0  0  0  0  0  0  0  0  0  0  0  0
  185.9050  178.2660  142.0480 C   0  0  0  0  0  0  0  0  0  0  0  0
  188.2510  177.7510  142.7290 C   0  0  0  0  0  0  0  0  0  0  0  0
  184.4190  178.2520  142.3480 C   0  0  0  0  0  2  0  0  0  0  0  0
  186.8550  176.8530  145.1670 O   0  0  0  0  0  0  0  0  0  0  0  0
  183.5810  178.9860  141.3370 C   0  0  0  0  0  3  0  0  0  0  0  0
  189.9720  177.7720  141.0130 C   0  0  0  0  0  3  0  0  0  0  0  0
  184.0040  179.2170  140.0950 C   0  0  0  0  0  0  0  0  0  0  0  0
  190.9460  177.4450  141.9680 C   0  0  0  0  0  0  0  0  0  0  0  0
  189.2320  177.4340  143.6830 C   0  0  0  0  0  3  0  0  0  0  0  0
  187.6780  178.2670  140.4390 O   0  0  0  0  0  0  0  0  0  0  0  0
  190.5680  177.2800  143.3040 C   0  0  0  0  0  3  0  0  0  0  0  0
  186.4400  177.8130  144.4620 C   0  0  0  0  0  0  0  0  0  0  0  0
  186.8610  177.9340  143.0880 N   0  0  0  0  0  0  0  0  0  0  0  0
  185.7190  178.7380  138.5070 O   0  0  0  0  0  0  0  0  0  0  0  0
  186.3270  178.4300  140.7740 C   0  0  0  0  0  0  0  0  0  0  0  0
  182.0960  179.2090  138.4050 C   0  0  0  0  0  0  0  0  0  0  0  0
  183.1120  179.8590  139.1750 N   0  0  0  0  0  2  0  0  0  0  0  0
  182.0970  177.9550  138.2620 O   0  0  0  0  0  0  0  0  0  0  0  0
  181.2920  181.5240  138.0040 C   0  0  0  0  0  2  0  0  0  0  0  0
  180.2870  182.3570  137.2130 C   0  0  0  0  0  2  0  0  0  0  0  0
  180.4420  182.1030  135.7810 N   0  0  0  0  0  2  0  0  0  0  0  0
  180.0920  180.7090  135.5150 C   0  0  0  0  0  2  0  0  0  0  0  0
  181.0850  179.7780  136.2070 C   0  0  0  0  0  2  0  0  0  0  0  0
  181.0690  180.0410  137.7120 C   0  0  0  0  0  3  0  0  0  0  0  0
  192.2900  177.2800  141.6210 O   0  0  0  0  0  0  0  0  0  0  0  0
  192.7440  177.3150  140.2750 C   0  0  0  0  0  1  0  0  0  0  0  0
  185.6010  178.8840  145.0940 C   0  0  0  0  0  2  0  0  0  0  0  0
  185.1830  178.5270  146.5140 C   0  0  0  0  0  2  0  0  0  0  0  0
  185.6700  179.5250  147.4500 N   0  0  0  0  0  1  0  0  0  0  0  0
  1  4  1  0  0  0  0
  2  9  1  0  0  0  0
  2 17  1  0  0  0  0
  3  5  1  0  0  0  0
  3 15  1  0  0  0  0
  4 15  1  0  0  0  0
  4 11  2  0  0  0  0
  7  5  1  0  0  0  0
  8  1  2  0  0  0  0
  8 10  1  0  0  0  0
  9  7  2  0  0  0  0
 10 13  2  0  0  0  0
 12 17  1  0  0  0  0
 12  1  1  0  0  0  0
 13 11  1  0  0  0  0
 14 29  1  0  0  0  0
 14  6  2  0  0  0  0
 15 14  1  0  0  0  0
 16  2  2  0  0  0  0
 17  3  2  0  0  0  0
 18 19  1  0  0  0  0
 19  9  1  0  0  0  0
 20 18  2  0  0  0  0
 22 21  1  0  0  0  0
 23 22  1  0  0  0  0
 24 23  1  0  0  0  0
 24 25  1  0  0  0  0
 25 26  1  0  0  0  0
 26 21  1  0  0  0  0
 26 18  1  0  0  0  0
 27 10  1  0  0  0  0
 28 27  1  0  0  0  0
 29 30  1  0  0  0  0
 30 31  1  0  0  0  0
M  END
>  <MODEL>
8

>  <REMARK>
 VINA RESULT:      -7.9      4.805      8.051
  Name = 
  5 active torsions:
  status: ('A' for Active; 'I' for Inactive)
    1  A    between atoms: C_3  and  C_23
    2  A    between atoms: C_3  and  C_24
    3  A    between atoms: O_8  and  C_17
    4  A    between atoms: C_9  and  C_31
    5  A    between atoms: N_11  and  C_15
                            x       y       z     vdW  Elec       q    Type
                         _______ _______ _______ _____ _____    ______ ____

>  <TORSDO>
F 5

$$$$
=
 OpenBabel10222421473D

 31 34  0  0  0  0  0  0  0  0999 V2000
  187.7040  177.8450  144.6790 C   0  0  0  0  0  0  0  0  0  0  0  0
  185.1530  178.6290  142.0100 C   0  0  0  0  0  0  0  0  0  0  0  0
  187.5420  178.1020  141.8660 C   0  0  0  0  0  0  0  0  0  0  0  0
  188.8690  177.6320  143.9280 C   0  0  0  0  0  0  0  0  0  0  0  0
  187.4900  178.4380  140.3880 C   0  0  0  0  0  2  0  0  0  0  0  0
  191.0900  177.9560  142.0140 O   0  0  0  0  0  0  0  0  0  0  0  0
  186.1070  178.3950  139.7970 C   0  0  0  0  0  3  0  0  0  0  0  0
  187.7260  177.7310  146.0710 C   0  0  0  0  0  3  0  0  0  0  0  0
  185.0100  178.5150  140.5430 C   0  0  0  0  0  0  0  0  0  0  0  0
  188.9160  177.3940  146.7340 C   0  0  0  0  0  0  0  0  0  0  0  0
  190.0540  177.2840  144.5960 C   0  0  0  0  0  3  0  0  0  0  0  0
  186.5140  178.1650  144.0260 O   0  0  0  0  0  0  0  0  0  0  0  0
  190.0770  177.1690  145.9890 C   0  0  0  0  0  3  0  0  0  0  0  0
  189.9710  177.4790  141.6800 C   0  0  0  0  0  0  0  0  0  0  0  0
  188.8040  177.7450  142.4860 N   0  0  0  0  0  0  0  0  0  0  0  0
  184.1920  179.0130  142.7280 O   0  0  0  0  0  0  0  0  0  0  0  0
  186.4450  178.2940  142.6330 C   0  0  0  0  0  0  0  0  0  0  0  0
  183.2830  179.5380  138.9720 C   0  0  0  0  0  0  0  0  0  0  0  0
  183.7350  178.5360  139.8890 N   0  0  0  0  0  2  0  0  0  0  0  0
  183.8740  180.6500  138.8880 O   0  0  0  0  0  0  0  0  0  0  0  0
  181.4700  180.5870  137.6380 C   0  0  0  0  0  2  0  0  0  0  0  0
  180.2730  180.2870  136.7400 C   0  0  0  0  0  2  0  0  0  0  0  0
  180.6860  179.4440  135.6190 N   0  0  0  0  0  2  0  0  0  0  0  0
  181.1170  178.1490  136.1450 C   0  0  0  0  0  2  0  0  0  0  0  0
  182.3640  178.3230  137.0090 C   0  0  0  0  0  2  0  0  0  0  0  0
  182.0570  179.2780  138.1620 C   0  0  0  0  0  3  0  0  0  0  0  0
  188.9720  177.2750  148.1260 O   0  0  0  0  0  0  0  0  0  0  0  0
  188.2930  178.1650  149.0000 C   0  0  0  0  0  1  0  0  0  0  0  0
  189.8860  176.5460  140.5090 C   0  0  0  0  0  2  0  0  0  0  0  0
  190.8810  176.9040  139.4130 C   0  0  0  0  0  2  0  0  0  0  0  0
  190.2090  177.5930  138.3260 N   0  0  0  0  0  1  0  0  0  0  0  0
  1  8  1  0  0  0  0
  2 17  1  0  0  0  0
  2 16  2  0  0  0  0
  3 15  1  0  0  0  0
  3 17  2  0  0  0  0
  4 11  1  0  0  0  0
  4  1  2  0  0  0  0
  5  3  1  0  0  0  0
  7  5  1  0  0  0  0
  7  9  2  0  0  0  0
  8 10  2  0  0  0  0
  9  2  1  0  0  0  0
 10 27  1  0  0  0  0
 11 13  2  0  0  0  0
 12  1  1  0  0  0  0
 13 10  1  0  0  0  0
 14  6  2  0  0  0  0
 14 15  1  0  0  0  0
 15  4  1  0  0  0  0
 17 12  1  0  0  0  0
 18 19  1  0  0  0  0
 19  9  1  0  0  0  0
 20 18  2  0  0  0  0
 21 26  1  0  0  0  0
 22 21  1  0  0  0  0
 23 24  1  0  0  0  0
 23 22  1  0  0  0  0
 24 25  1  0  0  0  0
 25 26  1  0  0  0  0
 26 18  1  0  0  0  0
 27 28  1  0  0  0  0
 29 14  1  0  0  0  0
 30 29  1  0  0  0  0
 31 30  1  0  0  0  0
M  END
>  <MODEL>
9

>  <REMARK>
 VINA RESULT:      -7.8      4.288      7.257
  Name = 
  5 active torsions:
  status: ('A' for Active; 'I' for Inactive)
    1  A    between atoms: C_3  and  C_23
    2  A    between atoms: C_3  and  C_24
    3  A    between atoms: O_8  and  C_17
    4  A    between atoms: C_9  and  C_31
    5  A    between atoms: N_11  and  C_15
                            x       y       z     vdW  Elec       q    Type
                         _______ _______ _______ _____ _____    ______ ____

>  <TORSDO>
F 5

$$$$
