=
 OpenBabel10222422033D

 44 49  0  0  1  0  0  0  0  0999 V2000
  189.6440  176.9420  140.7230 C   0  0  0  0  0  3  0  0  0  0  0  0
  189.8220  177.0360  142.0490 C   0  0  0  0  0  0  0  0  0  0  0  0
  190.5480  177.5820  139.7150 C   0  0  1  0  0  3  0  0  0  0  0  0
  191.3450  176.5100  138.9890 C   0  0  0  0  0  1  0  0  0  0  0  0
  189.7440  178.3230  138.7590 N   0  0  0  0  0  2  0  0  0  0  0  0
  188.4240  177.8650  138.8850 N   0  0  0  0  0  2  0  0  0  0  0  0
  186.4630  177.7530  137.2730 C   0  0  2  0  0  0  0  0  0  0  0  0
  188.5910  176.5300  136.8480 O   0  0  0  0  0  1  0  0  0  0  0  0
  185.5850  178.2590  138.4100 C   0  0  0  0  0  1  0  0  0  0  0  0
  187.9390  177.5490  137.5480 C   0  0  2  0  0  0  0  0  0  0  0  0
  187.4910  178.7340  136.7080 C   0  0  0  0  0  2  0  0  0  0  0  0
  185.8880  176.8200  136.3090 N   0  0  0  0  0  2  0  0  0  0  0  0
  185.6040  175.5630  136.9840 C   0  0  0  0  0  2  0  0  0  0  0  0
  182.4560  173.3070  136.7200 C   0  0  0  0  0  1  0  0  0  0  0  0
  183.6230  174.8620  138.1390 O   0  0  0  0  0  0  0  0  0  0  0  0
  183.7930  173.8340  137.1940 C   0  0  0  0  0  0  0  0  0  0  0  0
  184.8530  172.8420  137.6520 C   0  0  0  0  0  1  0  0  0  0  0  0
  184.1200  175.2500  136.8760 C   0  0  2  0  0  3  0  0  0  0  0  0
  190.9840  177.8030  142.6280 C   0  0  1  0  0  3  0  0  0  0  0  0
  190.5420  179.1800  143.0910 C   0  0  0  0  0  1  0  0  0  0  0  0
  191.6190  177.0250  143.7680 C   0  0  0  0  0  2  0  0  0  0  0  0
  191.5340  177.7890  145.0770 C   0  0  0  0  0  2  0  0  0  0  0  0
  191.9030  177.3150  147.3970 O   0  0  0  0  0  0  0  0  0  0  0  0
  191.9510  175.4890  145.8960 C   0  0  0  0  0  2  0  0  0  0  0  0
  192.2410  176.1790  148.1510 C   0  0  0  0  0  2  0  0  0  0  0  0
  191.3150  176.8190  146.2230 C   0  0  2  0  0  3  0  0  0  0  0  0
  192.5190  175.0330  147.2070 C   0  0  0  0  0  2  0  0  0  0  0  0
  188.8750  176.2930  142.9470 C   0  0  0  0  0  2  0  0  0  0  0  0
  187.1990  177.4600  144.4050 C   0  0  2  0  0  3  0  0  0  0  0  0
  187.6400  177.0970  143.2050 C   0  0  0  0  0  0  0  0  0  0  0  0
  187.7530  177.2510  145.6710 C   0  0  0  0  0  3  0  0  0  0  0  0
  185.2890  178.6080  145.3470 C   0  0  0  0  0  0  0  0  0  0  0  0
  183.9600  178.9830  141.5210 O   0  0  0  0  0  0  0  0  0  0  0  0
  184.0050  179.2950  145.0460 C   0  0  0  0  0  3  0  0  0  0  0  0
  184.3680  178.8740  142.7060 C   0  0  0  0  0  0  0  0  0  0  0  0
  187.0520  177.7360  146.7980 C   0  0  0  0  0  0  0  0  0  0  0  0
  185.8160  178.4230  146.6380 C   0  0  0  0  0  0  0  0  0  0  0  0
  183.5950  179.4060  143.8060 N   0  0  0  0  0  0  0  0  0  0  0  0
  186.6560  177.5440  142.1440 C   0  0  0  0  0  3  0  0  0  0  0  0
  185.6380  178.2050  143.0200 C   0  0  0  0  0  0  0  0  0  0  0  0
  186.0130  178.1140  144.2710 C   0  0  0  0  0  0  0  0  0  0  0  0
  185.1300  178.9090  147.7480 O   0  0  0  0  0  1  0  0  0  0  0  0
  187.6330  177.5290  148.1560 C   0  0  0  0  0  2  0  0  0  0  0  0
  188.8610  178.4010  148.3390 C   0  0  0  0  0  1  0  0  0  0  0  0
  1  2  2  0  0  0  0
  2 19  1  0  0  0  0
  2 28  1  0  0  0  0
  3  4  1  6  0  0  0
  3  1  1  0  0  0  0
  5  6  1  0  0  0  0
  5  3  1  0  0  0  0
  7 10  1  0  0  0  0
  7  9  1  1  0  0  0
 10  8  1  6  0  0  0
 10  6  1  0  0  0  0
 11  7  1  0  0  0  0
 11 10  1  0  0  0  0
 12 13  1  0  0  0  0
 12  7  1  0  0  0  0
 14 16  1  0  0  0  0
 16 17  1  0  0  0  0
 16 15  1  0  0  0  0
 18 13  1  1  0  0  0
 18 16  1  0  0  0  0
 18 15  1  0  0  0  0
 19 20  1  1  0  0  0
 19 21  1  0  0  0  0
 21 22  1  0  0  0  0
 23 25  1  0  0  0  0
 24 26  1  0  0  0  0
 24 27  1  0  0  0  0
 26 22  1  6  0  0  0
 26 23  1  0  0  0  0
 27 25  1  0  0  0  0
 28 30  1  0  0  0  0
 29 31  1  1  0  0  0
 30 29  1  0  0  0  0
 31 36  2  0  0  0  0
 32 37  2  0  0  0  0
 33 35  2  0  0  0  0
 34 32  1  0  0  0  0
 35 40  1  0  0  0  0
 35 38  1  0  0  0  0
 36 43  1  0  0  0  0
 37 36  1  0  0  0  0
 37 42  1  0  0  0  0
 38 34  2  0  0  0  0
 39 40  1  0  0  0  0
 39 30  2  0  0  0  0
 40 41  2  0  0  0  0
 41 29  1  0  0  0  0
 41 32  1  0  0  0  0
 43 44  1  0  0  0  0
M  END
>  <MODEL>
1

>  <REMARK>
 VINA RESULT:      -8.7      0.000      0.000
  Name = 
  14 active torsions:
  status: ('A' for Active; 'I' for Inactive)
    1  A    between atoms: C_2  and  N_31
    2  A    between atoms: C_7  and  C_14
    3  A    between atoms: C_8  and  C_19
    4  A    between atoms: N_12  and  N_38
    5  A    between atoms: N_12  and  C_40
    6  A    between atoms: C_13  and  C_22
    7  A    between atoms: C_14  and  N_38
    8  A    between atoms: C_15  and  C_41
    9  A    between atoms: C_16  and  C_20
   10  A    between atoms: C_16  and  C_30
   11  A    between atoms: C_19  and  C_30
   12  A    between atoms: C_20  and  C_36
   13  A    between atoms: N_31  and  C_41
   14  A    between atoms: C_34  and  C_36
                            x       y       z     vdW  Elec       q    Type
                         _______ _______ _______ _____ _____    ______ ____

>  <TORSDO>
F 14

$$$$
=
 OpenBabel10222422033D

 44 49  0  0  1  0  0  0  0  0999 V2000
  188.3270  177.4030  140.5100 C   0  0  0  0  0  3  0  0  0  0  0  0
  189.2820  177.1050  141.4040 C   0  0  0  0  0  0  0  0  0  0  0  0
  188.5630  178.2410  139.2910 C   0  0  1  0  0  3  0  0  0  0  0  0
  188.9160  177.3440  138.1150 C   0  0  0  0  0  1  0  0  0  0  0  0
  187.3560  178.9900  138.9880 N   0  0  0  0  0  2  0  0  0  0  0  0
  186.3140  178.4130  139.7290 N   0  0  0  0  0  2  0  0  0  0  0  0
  183.7930  178.1570  139.5460 C   0  0  2  0  0  0  0  0  0  0  0  0
  185.2890  177.9200  137.5690 O   0  0  0  0  0  1  0  0  0  0  0  0
  183.7710  177.9550  141.0560 C   0  0  0  0  0  1  0  0  0  0  0  0
  185.1320  178.3870  138.8770 C   0  0  2  0  0  0  0  0  0  0  0  0
  184.1690  179.5510  139.0430 C   0  0  0  0  0  2  0  0  0  0  0  0
  182.8200  177.4360  138.7310 N   0  0  0  0  0  2  0  0  0  0  0  0
  182.7550  176.0570  139.1880 C   0  0  0  0  0  2  0  0  0  0  0  0
  182.5650  173.0550  136.7330 C   0  0  0  0  0  1  0  0  0  0  0  0
  182.5830  175.4580  136.8730 O   0  0  0  0  0  0  0  0  0  0  0  0
  182.1500  174.2840  137.5140 C   0  0  0  0  0  0  0  0  0  0  0  0
  180.7030  174.4100  137.9670 C   0  0  0  0  0  1  0  0  0  0  0  0
  183.2340  175.1300  138.0810 C   0  0  2  0  0  3  0  0  0  0  0  0
  190.6960  177.5950  141.2290 C   0  0  1  0  0  3  0  0  0  0  0  0
  191.3460  177.8560  142.5770 C   0  0  0  0  0  1  0  0  0  0  0  0
  191.5090  176.5980  140.4200 C   0  0  0  0  0  2  0  0  0  0  0  0
  192.4850  177.3000  139.4930 C   0  0  0  0  0  2  0  0  0  0  0  0
  193.7460  176.9700  137.4810 O   0  0  0  0  0  0  0  0  0  0  0  0
  191.9540  175.4840  137.8930 C   0  0  0  0  0  2  0  0  0  0  0  0
  193.6550  176.1250  136.3640 C   0  0  0  0  0  2  0  0  0  0  0  0
  193.0650  176.3000  138.5100 C   0  0  2  0  0  3  0  0  0  0  0  0
  192.3830  175.3160  136.4660 C   0  0  0  0  0  2  0  0  0  0  0  0
  188.9220  176.2030  142.5510 C   0  0  0  0  0  2  0  0  0  0  0  0
  188.3860  177.1540  144.8100 C   0  0  2  0  0  3  0  0  0  0  0  0
  188.0600  176.9170  143.5430 C   0  0  0  0  0  0  0  0  0  0  0  0
  189.5630  176.8670  145.5080 C   0  0  0  0  0  3  0  0  0  0  0  0
  187.3630  178.1170  146.7800 C   0  0  0  0  0  0  0  0  0  0  0  0
  184.0880  178.7430  144.4490 O   0  0  0  0  0  0  0  0  0  0  0  0
  186.1410  178.7580  147.3320 C   0  0  0  0  0  3  0  0  0  0  0  0
  185.0990  178.5560  145.1740 C   0  0  0  0  0  0  0  0  0  0  0  0
  189.6340  177.2180  146.8750 C   0  0  0  0  0  0  0  0  0  0  0  0
  188.5320  177.8510  147.5150 C   0  0  0  0  0  0  0  0  0  0  0  0
  185.0960  178.9530  146.5640 N   0  0  0  0  0  0  0  0  0  0  0  0
  186.6500  177.4000  143.2810 C   0  0  0  0  0  3  0  0  0  0  0  0
  186.3180  177.9310  144.6420 C   0  0  0  0  0  0  0  0  0  0  0  0
  187.3400  177.7540  145.4400 C   0  0  0  0  0  0  0  0  0  0  0  0
  188.6050  178.2050  148.8600 O   0  0  0  0  0  1  0  0  0  0  0  0
  190.8860  176.9280  147.6330 C   0  0  0  0  0  2  0  0  0  0  0  0
  191.8240  176.0840  146.7910 C   0  0  0  0  0  1  0  0  0  0  0  0
  1  2  2  0  0  0  0
  2 28  1  0  0  0  0
  3  4  1  6  0  0  0
  3  1  1  0  0  0  0
  5  3  1  0  0  0  0
  5  6  1  0  0  0  0
  7  9  1  1  0  0  0
 10  8  1  6  0  0  0
 10 11  1  0  0  0  0
 10  7  1  0  0  0  0
 10  6  1  0  0  0  0
 11  7  1  0  0  0  0
 12 13  1  0  0  0  0
 12  7  1  0  0  0  0
 14 16  1  0  0  0  0
 15 16  1  0  0  0  0
 15 18  1  0  0  0  0
 16 17  1  0  0  0  0
 16 18  1  0  0  0  0
 18 13  1  1  0  0  0
 19  2  1  0  0  0  0
 19 20  1  1  0  0  0
 21 19  1  0  0  0  0
 22 21  1  0  0  0  0
 23 26  1  0  0  0  0
 24 26  1  0  0  0  0
 25 27  1  0  0  0  0
 25 23  1  0  0  0  0
 26 22  1  1  0  0  0
 27 24  1  0  0  0  0
 28 30  1  0  0  0  0
 29 41  1  0  0  0  0
 29 31  1  1  0  0  0
 30 29  1  0  0  0  0
 31 36  2  0  0  0  0
 32 34  1  0  0  0  0
 32 37  2  0  0  0  0
 33 35  2  0  0  0  0
 35 38  1  0  0  0  0
 36 37  1  0  0  0  0
 36 43  1  0  0  0  0
 37 42  1  0  0  0  0
 38 34  2  0  0  0  0
 39 30  2  0  0  0  0
 39 40  1  0  0  0  0
 40 35  1  0  0  0  0
 40 41  2  0  0  0  0
 41 32  1  0  0  0  0
 44 43  1  0  0  0  0
M  END
>  <MODEL>
2

>  <REMARK>
 VINA RESULT:      -8.2      2.057      4.245
  Name = 
  14 active torsions:
  status: ('A' for Active; 'I' for Inactive)
    1  A    between atoms: C_2  and  N_31
    2  A    between atoms: C_7  and  C_14
    3  A    between atoms: C_8  and  C_19
    4  A    between atoms: N_12  and  N_38
    5  A    between atoms: N_12  and  C_40
    6  A    between atoms: C_13  and  C_22
    7  A    between atoms: C_14  and  N_38
    8  A    between atoms: C_15  and  C_41
    9  A    between atoms: C_16  and  C_20
   10  A    between atoms: C_16  and  C_30
   11  A    between atoms: C_19  and  C_30
   12  A    between atoms: C_20  and  C_36
   13  A    between atoms: N_31  and  C_41
   14  A    between atoms: C_34  and  C_36
                            x       y       z     vdW  Elec       q    Type
                         _______ _______ _______ _____ _____    ______ ____

>  <TORSDO>
F 14

$$$$
=
 OpenBabel10222422033D

 44 49  0  0  1  0  0  0  0  0999 V2000
  188.1550  177.3260  140.5030 C   0  0  0  0  0  3  0  0  0  0  0  0
  189.3200  177.0610  141.1130 C   0  0  0  0  0  0  0  0  0  0  0  0
  188.0500  177.9910  139.1640 C   0  0  1  0  0  3  0  0  0  0  0  0
  187.7930  176.9450  138.0920 C   0  0  0  0  0  1  0  0  0  0  0  0
  186.9520  178.9420  139.1920 N   0  0  0  0  0  2  0  0  0  0  0  0
  185.8080  178.2660  138.7420 N   0  0  0  0  0  2  0  0  0  0  0  0
  183.2990  178.5960  138.9660 C   0  0  2  0  0  0  0  0  0  0  0  0
  184.9190  179.7460  140.4680 O   0  0  0  0  0  1  0  0  0  0  0  0
  183.1670  178.0460  137.5520 C   0  0  0  0  0  1  0  0  0  0  0  0
  184.6870  178.7080  139.5610 C   0  0  2  0  0  0  0  0  0  0  0  0
  183.7500  177.6140  140.0480 C   0  0  0  0  0  2  0  0  0  0  0  0
  182.3630  179.6270  139.4040 N   0  0  0  0  0  2  0  0  0  0  0  0
  181.7850  180.2650  138.2310 C   0  0  0  0  0  2  0  0  0  0  0  0
  181.2380  183.9820  137.2540 C   0  0  0  0  0  1  0  0  0  0  0  0
  180.3420  182.1540  138.5390 O   0  0  0  0  0  0  0  0  0  0  0  0
  181.0140  182.4880  137.3500 C   0  0  0  0  0  0  0  0  0  0  0  0
  180.4100  181.7590  136.1590 C   0  0  0  0  0  1  0  0  0  0  0  0
  181.6960  181.7660  138.4570 C   0  0  2  0  0  3  0  0  0  0  0  0
  190.6370  177.4130  140.4680 C   0  0  1  0  0  3  0  0  0  0  0  0
  191.7190  177.5920  141.5190 C   0  0  0  0  0  1  0  0  0  0  0  0
  191.0340  176.3510  139.4560 C   0  0  0  0  0  2  0  0  0  0  0  0
  191.4270  176.9710  138.1270 C   0  0  0  0  0  2  0  0  0  0  0  0
  190.6330  174.8810  137.2630 O   0  0  0  0  0  0  0  0  0  0  0  0
  192.9670  175.2510  137.2300 C   0  0  0  0  0  2  0  0  0  0  0  0
  191.2230  173.7020  136.7800 C   0  0  0  0  0  2  0  0  0  0  0  0
  191.6030  175.8800  137.0860 C   0  0  2  0  0  3  0  0  0  0  0  0
  192.7200  173.7960  136.9640 C   0  0  0  0  0  2  0  0  0  0  0  0
  189.2830  176.3330  142.4260 C   0  0  0  0  0  2  0  0  0  0  0  0
  188.5480  177.2030  144.6620 C   0  0  2  0  0  3  0  0  0  0  0  0
  188.3220  176.9820  143.3700 C   0  0  0  0  0  0  0  0  0  0  0  0
  189.6860  176.9550  145.4340 C   0  0  0  0  0  3  0  0  0  0  0  0
  187.3460  178.0700  146.5750 C   0  0  0  0  0  0  0  0  0  0  0  0
  184.2130  178.5990  144.0350 O   0  0  0  0  0  0  0  0  0  0  0  0
  186.0600  178.6400  147.0540 C   0  0  0  0  0  3  0  0  0  0  0  0
  185.1800  178.4420  144.8240 C   0  0  0  0  0  0  0  0  0  0  0  0
  189.6460  177.2760  146.8100 C   0  0  0  0  0  0  0  0  0  0  0  0
  188.4740  177.8410  147.3850 C   0  0  0  0  0  0  0  0  0  0  0  0
  185.0630  178.8040  146.2190 N   0  0  0  0  0  0  0  0  0  0  0  0
  186.9110  177.4050  143.0210 C   0  0  0  0  0  3  0  0  0  0  0  0
  186.4610  177.8870  144.3660 C   0  0  0  0  0  0  0  0  0  0  0  0
  187.4330  177.7390  145.2300 C   0  0  0  0  0  0  0  0  0  0  0  0
  188.4370  178.1660  148.7380 O   0  0  0  0  0  1  0  0  0  0  0  0
  190.8550  177.0270  147.6470 C   0  0  0  0  0  2  0  0  0  0  0  0
  191.8000  176.0790  146.9330 C   0  0  0  0  0  1  0  0  0  0  0  0
  1  2  2  0  0  0  0
  2 28  1  0  0  0  0
  3  4  1  6  0  0  0
  3  5  1  0  0  0  0
  3  1  1  0  0  0  0
  6  5  1  0  0  0  0
  6 10  1  0  0  0  0
  7  9  1  6  0  0  0
  7 12  1  0  0  0  0
  7 10  1  0  0  0  0
  7 11  1  0  0  0  0
 10 11  1  0  0  0  0
 10  8  1  1  0  0  0
 13 12  1  0  0  0  0
 14 16  1  0  0  0  0
 16 18  1  0  0  0  0
 16 15  1  0  0  0  0
 17 16  1  0  0  0  0
 18 13  1  6  0  0  0
 18 15  1  0  0  0  0
 19  2  1  0  0  0  0
 19 20  1  1  0  0  0
 21 19  1  0  0  0  0
 22 21  1  0  0  0  0
 25 27  1  0  0  0  0
 25 23  1  0  0  0  0
 26 24  1  0  0  0  0
 26 23  1  0  0  0  0
 26 22  1  1  0  0  0
 27 24  1  0  0  0  0
 28 30  1  0  0  0  0
 29 41  1  0  0  0  0
 29 31  1  1  0  0  0
 30 29  1  0  0  0  0
 31 36  2  0  0  0  0
 32 34  1  0  0  0  0
 32 37  2  0  0  0  0
 33 35  2  0  0  0  0
 35 38  1  0  0  0  0
 36 37  1  0  0  0  0
 36 43  1  0  0  0  0
 37 42  1  0  0  0  0
 38 34  2  0  0  0  0
 39 30  2  0  0  0  0
 39 40  1  0  0  0  0
 40 35  1  0  0  0  0
 40 41  2  0  0  0  0
 41 32  1  0  0  0  0
 44 43  1  0  0  0  0
M  END
>  <MODEL>
3

>  <REMARK>
 VINA RESULT:      -8.0      2.893      5.472
  Name = 
  14 active torsions:
  status: ('A' for Active; 'I' for Inactive)
    1  A    between atoms: C_2  and  N_31
    2  A    between atoms: C_7  and  C_14
    3  A    between atoms: C_8  and  C_19
    4  A    between atoms: N_12  and  N_38
    5  A    between atoms: N_12  and  C_40
    6  A    between atoms: C_13  and  C_22
    7  A    between atoms: C_14  and  N_38
    8  A    between atoms: C_15  and  C_41
    9  A    between atoms: C_16  and  C_20
   10  A    between atoms: C_16  and  C_30
   11  A    between atoms: C_19  and  C_30
   12  A    between atoms: C_20  and  C_36
   13  A    between atoms: N_31  and  C_41
   14  A    between atoms: C_34  and  C_36
                            x       y       z     vdW  Elec       q    Type
                         _______ _______ _______ _____ _____    ______ ____

>  <TORSDO>
F 14

$$$$
=
 OpenBabel10222422033D

 44 49  0  0  1  0  0  0  0  0999 V2000
  189.9500  176.9840  138.8760 C   0  0  0  0  0  3  0  0  0  0  0  0
  189.9140  176.3780  137.6800 C   0  0  0  0  0  0  0  0  0  0  0  0
  190.8550  176.5640  139.9940 C   0  0  1  0  0  3  0  0  0  0  0  0
  192.1050  177.4300  139.9920 C   0  0  0  0  0  1  0  0  0  0  0  0
  190.1540  176.7210  141.2560 N   0  0  0  0  0  2  0  0  0  0  0  0
  191.1250  176.9450  142.2440 N   0  0  0  0  0  2  0  0  0  0  0  0
  190.7880  177.7230  144.6390 C   0  0  2  0  0  0  0  0  0  0  0  0
  189.4650  178.6630  142.7480 O   0  0  0  0  0  1  0  0  0  0  0  0
  191.4940  176.4490  145.0820 C   0  0  0  0  0  1  0  0  0  0  0  0
  190.6010  177.9550  143.1540 C   0  0  2  0  0  0  0  0  0  0  0  0
  191.6380  178.7660  143.9130 C   0  0  0  0  0  2  0  0  0  0  0  0
  189.7190  178.2570  145.4790 N   0  0  0  0  0  2  0  0  0  0  0  0
  188.6180  177.3070  145.4980 C   0  0  0  0  0  2  0  0  0  0  0  0
  185.1940  179.1360  145.4670 C   0  0  0  0  0  1  0  0  0  0  0  0
  186.2940  177.0720  146.0370 O   0  0  0  0  0  0  0  0  0  0  0  0
  186.2780  178.1380  145.1200 C   0  0  0  0  0  0  0  0  0  0  0  0
  186.3730  177.6280  143.6890 C   0  0  0  0  0  1  0  0  0  0  0  0
  187.3850  177.9650  146.0960 C   0  0  2  0  0  3  0  0  0  0  0  0
  190.8160  175.2120  137.3680 C   0  0  1  0  0  3  0  0  0  0  0  0
  190.0000  173.9720  137.0430 C   0  0  0  0  0  1  0  0  0  0  0  0
  191.7570  175.5570  136.2250 C   0  0  0  0  0  2  0  0  0  0  0  0
  193.1460  175.8950  136.7340 C   0  0  0  0  0  2  0  0  0  0  0  0
  194.6840  175.3200  138.4810 O   0  0  0  0  0  0  0  0  0  0  0  0
  194.0260  173.5960  137.0040 C   0  0  0  0  0  2  0  0  0  0  0  0
  195.4120  174.1760  138.8440 C   0  0  0  0  0  2  0  0  0  0  0  0
  193.5950  174.8450  137.7330 C   0  0  2  0  0  3  0  0  0  0  0  0
  195.2100  173.1140  137.7880 C   0  0  0  0  0  2  0  0  0  0  0  0
  189.0020  176.9410  136.6270 C   0  0  0  0  0  2  0  0  0  0  0  0
  186.6390  176.2490  137.1100 C   0  0  0  0  0  0  0  0  0  0  0  0
  187.6220  177.1430  137.1660 C   0  0  0  0  0  0  0  0  0  0  0  0
  186.6340  174.9440  136.6110 C   0  0  0  0  0  3  0  0  0  0  0  0
  184.2950  176.1150  137.6970 C   0  0  0  0  0  0  0  0  0  0  0  0
  184.6740  179.9490  139.0020 O   0  0  0  0  0  0  0  0  0  0  0  0
  183.1390  176.8430  138.2810 C   0  0  0  0  0  3  0  0  0  0  0  0
  184.5520  178.7620  138.6040 C   0  0  0  0  0  0  0  0  0  0  0  0
  185.4260  174.2120  136.6600 C   0  0  0  0  0  0  0  0  0  0  0  0
  184.2510  174.7960  137.2100 C   0  0  0  0  0  0  0  0  0  0  0  0
  183.2810  178.0780  138.6980 N   0  0  0  0  0  0  0  0  0  0  0  0
  187.1080  178.4280  137.7800 C   0  0  0  0  0  2  0  0  0  0  0  0
  185.6870  178.0260  138.0310 C   0  0  0  0  0  0  0  0  0  0  0  0
  185.5040  176.7940  137.6270 C   0  0  0  0  0  0  0  0  0  0  0  0
  183.0640  174.0720  137.2670 O   0  0  0  0  0  1  0  0  0  0  0  0
  185.4050  172.8140  136.1400 C   0  0  0  0  0  2  0  0  0  0  0  0
  186.6000  172.5730  135.2380 C   0  0  0  0  0  1  0  0  0  0  0  0
  1  3  1  0  0  0  0
  2  1  2  0  0  0  0
  3  4  1  1  0  0  0
  3  5  1  0  0  0  0
  5  6  1  0  0  0  0
  6 10  1  0  0  0  0
  7  9  1  1  0  0  0
  7 12  1  0  0  0  0
 10  8  1  6  0  0  0
 10 11  1  0  0  0  0
 10  7  1  0  0  0  0
 11  7  1  0  0  0  0
 12 13  1  0  0  0  0
 15 18  1  0  0  0  0
 16 14  1  0  0  0  0
 16 15  1  0  0  0  0
 16 18  1  0  0  0  0
 17 16  1  0  0  0  0
 18 13  1  6  0  0  0
 19 20  1  6  0  0  0
 19  2  1  0  0  0  0
 21 22  1  0  0  0  0
 21 19  1  0  0  0  0
 23 25  1  0  0  0  0
 24 26  1  0  0  0  0
 24 27  1  0  0  0  0
 26 22  1  6  0  0  0
 26 23  1  0  0  0  0
 27 25  1  0  0  0  0
 28 30  1  0  0  0  0
 28  2  1  0  0  0  0
 29 30  2  0  0  0  0
 29 41  1  0  0  0  0
 30 39  1  0  0  0  0
 31 36  2  0  0  0  0
 31 29  1  0  0  0  0
 32 34  1  0  0  0  0
 34 38  2  0  0  0  0
 35 38  1  0  0  0  0
 35 33  2  0  0  0  0
 36 37  1  0  0  0  0
 37 42  1  0  0  0  0
 37 32  2  0  0  0  0
 39 40  1  0  0  0  0
 40 35  1  0  0  0  0
 41 32  1  0  0  0  0
 41 40  2  0  0  0  0
 43 36  1  0  0  0  0
 44 43  1  0  0  0  0
M  END
>  <MODEL>
4

>  <REMARK>
 VINA RESULT:      -7.3      2.737      8.127
  Name = 
  14 active torsions:
  status: ('A' for Active; 'I' for Inactive)
    1  A    between atoms: C_2  and  N_31
    2  A    between atoms: C_7  and  C_14
    3  A    between atoms: C_8  and  C_19
    4  A    between atoms: N_12  and  N_38
    5  A    between atoms: N_12  and  C_40
    6  A    between atoms: C_13  and  C_22
    7  A    between atoms: C_14  and  N_38
    8  A    between atoms: C_15  and  C_41
    9  A    between atoms: C_16  and  C_20
   10  A    between atoms: C_16  and  C_30
   11  A    between atoms: C_19  and  C_30
   12  A    between atoms: C_20  and  C_36
   13  A    between atoms: N_31  and  C_41
   14  A    between atoms: C_34  and  C_36
                            x       y       z     vdW  Elec       q    Type
                         _______ _______ _______ _____ _____    ______ ____

>  <TORSDO>
F 14

$$$$
=
 OpenBabel10222422033D

 44 49  0  0  1  0  0  0  0  0999 V2000
  190.5020  176.6480  140.9450 C   0  0  0  0  0  3  0  0  0  0  0  0
  189.2460  177.0910  141.1070 C   0  0  0  0  0  0  0  0  0  0  0  0
  191.5160  177.3230  140.0730 C   0  0  1  0  0  3  0  0  0  0  0  0
  192.7820  177.5880  140.8730 C   0  0  0  0  0  1  0  0  0  0  0  0
  191.8220  176.4610  138.9450 N   0  0  0  0  0  2  0  0  0  0  0  0
  193.2030  176.5550  138.7140 N   0  0  0  0  0  2  0  0  0  0  0  0
  194.5700  174.8010  137.4860 C   0  0  2  0  0  0  0  0  0  0  0  0
  193.2990  176.5680  136.2750 O   0  0  0  0  0  1  0  0  0  0  0  0
  195.2960  174.5440  138.8000 C   0  0  0  0  0  1  0  0  0  0  0  0
  193.4880  175.8610  137.4660 C   0  0  2  0  0  0  0  0  0  0  0  0
  193.0980  174.3920  137.4210 C   0  0  0  0  0  2  0  0  0  0  0  0
  195.3160  174.6680  136.2390 N   0  0  0  0  0  2  0  0  0  0  0  0
  196.5180  173.8890  136.4910 C   0  0  0  0  0  2  0  0  0  0  0  0
  197.4520  170.4220  135.0140 C   0  0  0  0  0  1  0  0  0  0  0  0
  195.6180  171.9090  135.4840 O   0  0  0  0  0  0  0  0  0  0  0  0
  196.8680  171.4610  135.9470 C   0  0  0  0  0  0  0  0  0  0  0  0
  196.8220  171.1640  137.4390 C   0  0  0  0  0  1  0  0  0  0  0  0
  196.6800  172.8340  135.4080 C   0  0  2  0  0  3  0  0  0  0  0  0
  188.7640  178.3410  140.4150 C   0  0  1  0  0  3  0  0  0  0  0  0
  188.6650  178.1220  138.9150 C   0  0  0  0  0  1  0  0  0  0  0  0
  187.4280  178.7850  140.9870 C   0  0  0  0  0  2  0  0  0  0  0  0
  186.2800  178.4170  140.0640 C   0  0  0  0  0  2  0  0  0  0  0  0
  184.3070  178.3100  141.4210 O   0  0  0  0  0  0  0  0  0  0  0  0
  184.1260  179.3940  139.3280 C   0  0  0  0  0  2  0  0  0  0  0  0
  182.9590  178.6730  141.2680 C   0  0  0  0  0  2  0  0  0  0  0  0
  185.0140  179.1200  140.5180 C   0  0  2  0  0  3  0  0  0  0  0  0
  182.7420  179.1520  139.8510 C   0  0  0  0  0  2  0  0  0  0  0  0
  188.3500  176.3520  142.0590 C   0  0  0  0  0  2  0  0  0  0  0  0
  187.9490  177.1820  144.3930 C   0  0  2  0  0  3  0  0  0  0  0  0
  188.7360  176.6250  143.4780 C   0  0  0  0  0  0  0  0  0  0  0  0
  186.6170  177.5960  144.3050 C   0  0  0  0  0  3  0  0  0  0  0  0
  188.1060  177.9190  146.6920 C   0  0  0  0  0  0  0  0  0  0  0  0
  191.9690  176.6500  146.5580 O   0  0  0  0  0  0  0  0  0  0  0  0
  188.9940  178.0410  147.8780 C   0  0  0  0  0  3  0  0  0  0  0  0
  190.7740  177.0400  146.6070 C   0  0  0  0  0  0  0  0  0  0  0  0
  186.0220  178.1840  145.4430 C   0  0  0  0  0  0  0  0  0  0  0  0
  186.7660  178.3430  146.6460 C   0  0  0  0  0  0  0  0  0  0  0  0
  190.2350  177.6250  147.8150 N   0  0  0  0  0  0  0  0  0  0  0  0
  190.1110  176.3880  144.0650 C   0  0  0  0  0  3  0  0  0  0  0  0
  189.8810  176.9200  145.4460 C   0  0  0  0  0  0  0  0  0  0  0  0
  188.6470  177.3480  145.5480 C   0  0  0  0  0  0  0  0  0  0  0  0
  186.1760  178.9140  147.7700 O   0  0  0  0  0  1  0  0  0  0  0  0
  184.5980  178.6230  145.3710 C   0  0  0  0  0  2  0  0  0  0  0  0
  184.4750  179.8630  144.5060 C   0  0  0  0  0  1  0  0  0  0  0  0
  1  2  2  0  0  0  0
  2 28  1  0  0  0  0
  3  4  1  1  0  0  0
  3  1  1  0  0  0  0
  5  3  1  0  0  0  0
  6  5  1  0  0  0  0
  7  9  1  1  0  0  0
 10  8  1  6  0  0  0
 10  7  1  0  0  0  0
 10  6  1  0  0  0  0
 11 10  1  0  0  0  0
 11  7  1  0  0  0  0
 12 13  1  0  0  0  0
 12  7  1  0  0  0  0
 14 16  1  0  0  0  0
 15 16  1  0  0  0  0
 16 17  1  0  0  0  0
 18 15  1  0  0  0  0
 18 16  1  0  0  0  0
 18 13  1  1  0  0  0
 19 20  1  6  0  0  0
 19 21  1  0  0  0  0
 19  2  1  0  0  0  0
 22 21  1  0  0  0  0
 24 27  1  0  0  0  0
 24 26  1  0  0  0  0
 25 23  1  0  0  0  0
 26 22  1  6  0  0  0
 26 23  1  0  0  0  0
 27 25  1  0  0  0  0
 28 30  1  0  0  0  0
 29 31  1  6  0  0  0
 29 41  1  0  0  0  0
 30 39  2  0  0  0  0
 30 29  1  0  0  0  0
 31 36  2  0  0  0  0
 32 34  1  0  0  0  0
 33 35  2  0  0  0  0
 35 38  1  0  0  0  0
 36 37  1  0  0  0  0
 37 32  2  0  0  0  0
 37 42  1  0  0  0  0
 38 34  2  0  0  0  0
 39 40  1  0  0  0  0
 40 41  2  0  0  0  0
 40 35  1  0  0  0  0
 41 32  1  0  0  0  0
 43 36  1  0  0  0  0
 44 43  1  0  0  0  0
M  END
>  <MODEL>
5

>  <REMARK>
 VINA RESULT:      -7.1      3.864      7.576
  Name = 
  14 active torsions:
  status: ('A' for Active; 'I' for Inactive)
    1  A    between atoms: C_2  and  N_31
    2  A    between atoms: C_7  and  C_14
    3  A    between atoms: C_8  and  C_19
    4  A    between atoms: N_12  and  N_38
    5  A    between atoms: N_12  and  C_40
    6  A    between atoms: C_13  and  C_22
    7  A    between atoms: C_14  and  N_38
    8  A    between atoms: C_15  and  C_41
    9  A    between atoms: C_16  and  C_20
   10  A    between atoms: C_16  and  C_30
   11  A    between atoms: C_19  and  C_30
   12  A    between atoms: C_20  and  C_36
   13  A    between atoms: N_31  and  C_41
   14  A    between atoms: C_34  and  C_36
                            x       y       z     vdW  Elec       q    Type
                         _______ _______ _______ _____ _____    ______ ____

>  <TORSDO>
F 14

$$$$
=
 OpenBabel10222422033D

 44 49  0  0  1  0  0  0  0  0999 V2000
  189.9350  176.5570  141.2090 C   0  0  0  0  0  3  0  0  0  0  0  0
  188.8840  176.9570  141.9400 C   0  0  0  0  0  0  0  0  0  0  0  0
  190.6110  177.4160  140.1850 C   0  0  1  0  0  3  0  0  0  0  0  0
  192.0630  177.6360  140.5800 C   0  0  0  0  0  1  0  0  0  0  0  0
  190.5520  176.7530  138.8950 N   0  0  0  0  0  2  0  0  0  0  0  0
  189.8760  177.6140  138.0160 N   0  0  0  0  0  2  0  0  0  0  0  0
  188.0490  176.8830  136.4100 C   0  0  2  0  0  0  0  0  0  0  0  0
  190.2130  175.6610  136.5900 O   0  0  0  0  0  1  0  0  0  0  0  0
  187.0810  177.7210  137.2340 C   0  0  0  0  0  1  0  0  0  0  0  0
  189.5000  176.8370  136.8430 C   0  0  2  0  0  0  0  0  0  0  0  0
  189.1110  177.6410  135.6130 C   0  0  0  0  0  2  0  0  0  0  0  0
  187.5580  175.6540  135.7930 N   0  0  0  0  0  2  0  0  0  0  0  0
  186.1040  175.6880  135.7720 C   0  0  0  0  0  2  0  0  0  0  0  0
  184.2120  172.6880  137.3520 C   0  0  0  0  0  1  0  0  0  0  0  0
  184.1830  174.2740  135.5400 O   0  0  0  0  0  0  0  0  0  0  0  0
  184.5140  174.1000  136.8960 C   0  0  0  0  0  0  0  0  0  0  0  0
  184.0100  175.2660  137.7340 C   0  0  0  0  0  1  0  0  0  0  0  0
  185.5590  174.2700  135.8510 C   0  0  2  0  0  3  0  0  0  0  0  0
  188.3070  178.3410  141.7850 C   0  0  1  0  0  3  0  0  0  0  0  0
  189.4070  179.3580  141.5340 C   0  0  0  0  0  1  0  0  0  0  0  0
  187.2790  178.3670  140.6640 C   0  0  0  0  0  2  0  0  0  0  0  0
  185.9290  178.8510  141.1610 C   0  0  0  0  0  2  0  0  0  0  0  0
  184.5650  179.9140  139.5010 O   0  0  0  0  0  0  0  0  0  0  0  0
  183.6320  178.0750  140.6550 C   0  0  0  0  0  2  0  0  0  0  0  0
  183.2420  179.7810  139.0500 C   0  0  0  0  0  2  0  0  0  0  0  0
  184.8890  178.6720  140.0710 C   0  0  2  0  0  3  0  0  0  0  0  0
  182.5280  178.7780  139.9240 C   0  0  0  0  0  2  0  0  0  0  0  0
  188.3400  176.0160  142.9760 C   0  0  0  0  0  2  0  0  0  0  0  0
  187.7030  177.2440  145.0700 C   0  0  0  0  0  0  0  0  0  0  0  0
  188.5780  176.5420  144.3550 C   0  0  0  0  0  0  0  0  0  0  0  0
  186.3890  177.6160  144.7720 C   0  0  0  0  0  3  0  0  0  0  0  0
  187.6230  178.3820  147.2030 C   0  0  0  0  0  0  0  0  0  0  0  0
  191.4730  177.1630  147.6980 O   0  0  0  0  0  0  0  0  0  0  0  0
  188.3840  178.7260  148.4330 C   0  0  0  0  0  3  0  0  0  0  0  0
  190.2810  177.5390  147.5520 C   0  0  0  0  0  0  0  0  0  0  0  0
  185.6810  178.3900  145.7190 C   0  0  0  0  0  0  0  0  0  0  0  0
  186.2970  178.7720  146.9440 C   0  0  0  0  0  0  0  0  0  0  0  0
  189.6230  178.3220  148.5740 N   0  0  0  0  0  0  0  0  0  0  0  0
  189.8830  176.4340  145.1150 C   0  0  0  0  0  2  0  0  0  0  0  0
  189.5130  177.2010  146.3460 C   0  0  0  0  0  0  0  0  0  0  0  0
  188.2780  177.6230  146.2430 C   0  0  0  0  0  0  0  0  0  0  0  0
  185.5960  179.5260  147.8810 O   0  0  0  0  0  1  0  0  0  0  0  0
  184.2740  178.7890  145.4220 C   0  0  0  0  0  2  0  0  0  0  0  0
  184.2060  179.5180  144.0950 C   0  0  0  0  0  1  0  0  0  0  0  0
  1  2  2  0  0  0  0
  2 28  1  0  0  0  0
  3  4  1  1  0  0  0
  3  1  1  0  0  0  0
  5  3  1  0  0  0  0
  6  5  1  0  0  0  0
  7 10  1  0  0  0  0
  7  9  1  1  0  0  0
 10  8  1  6  0  0  0
 10  6  1  0  0  0  0
 11  7  1  0  0  0  0
 11 10  1  0  0  0  0
 12  7  1  0  0  0  0
 13 12  1  0  0  0  0
 15 18  1  0  0  0  0
 15 16  1  0  0  0  0
 16 14  1  0  0  0  0
 16 17  1  0  0  0  0
 18 13  1  1  0  0  0
 18 16  1  0  0  0  0
 19 20  1  6  0  0  0
 19  2  1  0  0  0  0
 21 22  1  0  0  0  0
 21 19  1  0  0  0  0
 23 26  1  0  0  0  0
 25 23  1  0  0  0  0
 25 27  1  0  0  0  0
 26 24  1  0  0  0  0
 26 22  1  1  0  0  0
 27 24  1  0  0  0  0
 28 30  1  0  0  0  0
 29 41  1  0  0  0  0
 30 29  2  0  0  0  0
 30 39  1  0  0  0  0
 31 29  1  0  0  0  0
 31 36  2  0  0  0  0
 32 34  1  0  0  0  0
 34 38  2  0  0  0  0
 35 33  2  0  0  0  0
 35 38  1  0  0  0  0
 36 37  1  0  0  0  0
 37 32  2  0  0  0  0
 37 42  1  0  0  0  0
 39 40  1  0  0  0  0
 40 35  1  0  0  0  0
 41 40  2  0  0  0  0
 41 32  1  0  0  0  0
 43 36  1  0  0  0  0
 44 43  1  0  0  0  0
M  END
>  <MODEL>
6

>  <REMARK>
 VINA RESULT:      -7.1      1.952      5.202
  Name = 
  14 active torsions:
  status: ('A' for Active; 'I' for Inactive)
    1  A    between atoms: C_2  and  N_31
    2  A    between atoms: C_7  and  C_14
    3  A    between atoms: C_8  and  C_19
    4  A    between atoms: N_12  and  N_38
    5  A    between atoms: N_12  and  C_40
    6  A    between atoms: C_13  and  C_22
    7  A    between atoms: C_14  and  N_38
    8  A    between atoms: C_15  and  C_41
    9  A    between atoms: C_16  and  C_20
   10  A    between atoms: C_16  and  C_30
   11  A    between atoms: C_19  and  C_30
   12  A    between atoms: C_20  and  C_36
   13  A    between atoms: N_31  and  C_41
   14  A    between atoms: C_34  and  C_36
                            x       y       z     vdW  Elec       q    Type
                         _______ _______ _______ _____ _____    ______ ____

>  <TORSDO>
F 14

$$$$
=
 OpenBabel10222422033D

 44 49  0  0  1  0  0  0  0  0999 V2000
  185.0610  177.6090  137.9520 C   0  0  0  0  0  3  0  0  0  0  0  0
  184.3180  178.2610  138.8590 C   0  0  0  0  0  0  0  0  0  0  0  0
  184.5170  176.5640  137.0270 C   0  0  1  0  0  3  0  0  0  0  0  0
  184.3170  177.1590  135.6430 C   0  0  0  0  0  1  0  0  0  0  0  0
  185.4580  175.4600  136.9520 N   0  0  0  0  0  2  0  0  0  0  0  0
  186.0860  175.5340  135.7000 N   0  0  0  0  0  2  0  0  0  0  0  0
  188.6020  175.8460  135.8690 C   0  0  2  0  0  0  0  0  0  0  0  0
  187.5810  173.6520  135.2770 O   0  0  0  0  0  1  0  0  0  0  0  0
  188.3570  177.3440  135.7540 C   0  0  0  0  0  1  0  0  0  0  0  0
  187.4020  174.9220  135.8320 C   0  0  2  0  0  0  0  0  0  0  0  0
  188.1170  175.1650  137.1500 C   0  0  0  0  0  2  0  0  0  0  0  0
  189.8180  175.2890  135.2830 N   0  0  0  0  0  2  0  0  0  0  0  0
  190.9570  176.0740  135.7330 C   0  0  0  0  0  2  0  0  0  0  0  0
  194.0110  174.8690  137.8050 C   0  0  0  0  0  1  0  0  0  0  0  0
  191.7180  174.3850  137.2550 O   0  0  0  0  0  0  0  0  0  0  0  0
  192.6400  175.4220  137.4810 C   0  0  0  0  0  0  0  0  0  0  0  0
  192.0470  176.4910  138.3890 C   0  0  0  0  0  1  0  0  0  0  0  0
  192.0940  175.1440  136.1260 C   0  0  2  0  0  3  0  0  0  0  0  0
  182.8430  177.9860  139.0010 C   0  0  1  0  0  3  0  0  0  0  0  0
  182.5490  177.3020  140.3250 C   0  0  0  0  0  1  0  0  0  0  0  0
  182.0470  179.2740  138.8680 C   0  0  0  0  0  2  0  0  0  0  0  0
  181.4350  179.4070  137.4850 C   0  0  0  0  0  2  0  0  0  0  0  0
  180.7090  181.2210  136.0950 O   0  0  0  0  0  0  0  0  0  0  0  0
  181.2260  181.7200  138.3470 C   0  0  0  0  0  2  0  0  0  0  0  0
  180.5720  182.6100  136.2440 C   0  0  0  0  0  2  0  0  0  0  0  0
  180.6450  180.7010  137.3980 C   0  0  2  0  0  3  0  0  0  0  0  0
  181.1190  183.0120  137.5930 C   0  0  0  0  0  2  0  0  0  0  0  0
  184.9790  179.3300  139.6810 C   0  0  0  0  0  2  0  0  0  0  0  0
  185.7500  178.5770  141.9460 C   0  0  2  0  0  3  0  0  0  0  0  0
  185.9580  178.7370  140.6430 C   0  0  0  0  0  0  0  0  0  0  0  0
  184.6190  178.8510  142.7200 C   0  0  0  0  0  3  0  0  0  0  0  0
  186.9830  177.8150  143.8840 C   0  0  0  0  0  0  0  0  0  0  0  0
  190.0900  177.1920  141.3330 O   0  0  0  0  0  0  0  0  0  0  0  0
  188.2810  177.2800  144.3730 C   0  0  0  0  0  3  0  0  0  0  0  0
  189.1310  177.3780  142.1260 C   0  0  0  0  0  0  0  0  0  0  0  0
  184.6790  178.5980  144.1090 C   0  0  0  0  0  0  0  0  0  0  0  0
  185.8640  178.0720  144.6960 C   0  0  0  0  0  0  0  0  0  0  0  0
  189.2690  177.0850  143.5350 N   0  0  0  0  0  0  0  0  0  0  0  0
  187.3690  178.3110  140.2960 C   0  0  0  0  0  3  0  0  0  0  0  0
  187.8390  177.8990  141.6570 C   0  0  0  0  0  0  0  0  0  0  0  0
  186.8760  178.0800  142.5250 C   0  0  0  0  0  0  0  0  0  0  0  0
  185.9190  177.8140  146.0620 O   0  0  0  0  0  1  0  0  0  0  0  0
  183.4770  178.8770  144.9480 C   0  0  0  0  0  2  0  0  0  0  0  0
  182.2280  178.8860  144.0880 C   0  0  0  0  0  1  0  0  0  0  0  0
  1  2  2  0  0  0  0
  2 19  1  0  0  0  0
  2 28  1  0  0  0  0
  3  4  1  6  0  0  0
  3  1  1  0  0  0  0
  5  3  1  0  0  0  0
  6 10  1  0  0  0  0
  6  5  1  0  0  0  0
  7  9  1  6  0  0  0
  7 11  1  0  0  0  0
 10  8  1  6  0  0  0
 10  7  1  0  0  0  0
 10 11  1  0  0  0  0
 12 13  1  0  0  0  0
 12  7  1  0  0  0  0
 15 16  1  0  0  0  0
 16 14  1  0  0  0  0
 16 17  1  0  0  0  0
 18 13  1  1  0  0  0
 18 15  1  0  0  0  0
 18 16  1  0  0  0  0
 19 20  1  1  0  0  0
 21 19  1  0  0  0  0
 22 21  1  0  0  0  0
 23 25  1  0  0  0  0
 23 26  1  0  0  0  0
 25 27  1  0  0  0  0
 26 22  1  6  0  0  0
 26 24  1  0  0  0  0
 27 24  1  0  0  0  0
 28 30  1  0  0  0  0
 29 41  1  0  0  0  0
 29 31  1  1  0  0  0
 30 29  1  0  0  0  0
 31 36  2  0  0  0  0
 32 34  1  0  0  0  0
 32 37  2  0  0  0  0
 33 35  2  0  0  0  0
 35 38  1  0  0  0  0
 36 37  1  0  0  0  0
 36 43  1  0  0  0  0
 37 42  1  0  0  0  0
 38 34  2  0  0  0  0
 39 30  2  0  0  0  0
 39 40  1  0  0  0  0
 40 35  1  0  0  0  0
 40 41  2  0  0  0  0
 41 32  1  0  0  0  0
 44 43  1  0  0  0  0
M  END
>  <MODEL>
7

>  <REMARK>
 VINA RESULT:      -7.1      3.182      8.005
  Name = 
  14 active torsions:
  status: ('A' for Active; 'I' for Inactive)
    1  A    between atoms: C_2  and  N_31
    2  A    between atoms: C_7  and  C_14
    3  A    between atoms: C_8  and  C_19
    4  A    between atoms: N_12  and  N_38
    5  A    between atoms: N_12  and  C_40
    6  A    between atoms: C_13  and  C_22
    7  A    between atoms: C_14  and  N_38
    8  A    between atoms: C_15  and  C_41
    9  A    between atoms: C_16  and  C_20
   10  A    between atoms: C_16  and  C_30
   11  A    between atoms: C_19  and  C_30
   12  A    between atoms: C_20  and  C_36
   13  A    between atoms: N_31  and  C_41
   14  A    between atoms: C_34  and  C_36
                            x       y       z     vdW  Elec       q    Type
                         _______ _______ _______ _____ _____    ______ ____

>  <TORSDO>
F 14

$$$$
=
 OpenBabel10222422033D

 44 49  0  0  1  0  0  0  0  0999 V2000
  189.8460  176.5900  141.2580 C   0  0  0  0  0  3  0  0  0  0  0  0
  188.7820  177.0420  141.9380 C   0  0  0  0  0  0  0  0  0  0  0  0
  190.5640  177.3880  140.2120 C   0  0  1  0  0  3  0  0  0  0  0  0
  192.0150  177.5800  140.6220 C   0  0  0  0  0  1  0  0  0  0  0  0
  190.5030  176.6770  138.9470 N   0  0  0  0  0  2  0  0  0  0  0  0
  189.4120  177.1930  138.2330 N   0  0  0  0  0  2  0  0  0  0  0  0
  188.1880  176.7820  136.0450 C   0  0  2  0  0  0  0  0  0  0  0  0
  189.3070  174.9410  137.2970 O   0  0  0  0  0  1  0  0  0  0  0  0
  187.4890  178.1170  136.2620 C   0  0  0  0  0  1  0  0  0  0  0  0
  189.1800  176.3180  137.0920 C   0  0  2  0  0  0  0  0  0  0  0  0
  189.6880  176.8280  135.7520 C   0  0  0  0  0  2  0  0  0  0  0  0
  187.4510  175.7070  135.3860 N   0  0  0  0  0  2  0  0  0  0  0  0
  186.0510  176.0880  135.2900 C   0  0  0  0  0  2  0  0  0  0  0  0
  183.4250  175.0880  137.9700 C   0  0  0  0  0  1  0  0  0  0  0  0
  183.8930  175.0940  135.6080 O   0  0  0  0  0  0  0  0  0  0  0  0
  184.0650  175.8120  136.8050 C   0  0  0  0  0  0  0  0  0  0  0  0
  183.7590  177.2900  136.6030 C   0  0  0  0  0  1  0  0  0  0  0  0
  185.2050  175.1410  136.1260 C   0  0  2  0  0  3  0  0  0  0  0  0
  188.2320  178.4250  141.7000 C   0  0  1  0  0  3  0  0  0  0  0  0
  189.3510  179.4020  141.3870 C   0  0  0  0  0  1  0  0  0  0  0  0
  187.2030  178.4030  140.5810 C   0  0  0  0  0  2  0  0  0  0  0  0
  185.8260  178.7930  141.0860 C   0  0  0  0  0  2  0  0  0  0  0  0
  184.5370  179.9200  139.4080 O   0  0  0  0  0  0  0  0  0  0  0  0
  183.5250  178.0850  140.5020 C   0  0  0  0  0  2  0  0  0  0  0  0
  183.2250  179.8300  138.9170 C   0  0  0  0  0  2  0  0  0  0  0  0
  184.8130  178.6600  139.9640 C   0  0  2  0  0  3  0  0  0  0  0  0
  182.4600  178.8300  139.7530 C   0  0  0  0  0  2  0  0  0  0  0  0
  188.1960  176.1600  143.0040 C   0  0  0  0  0  2  0  0  0  0  0  0
  188.2600  177.2280  145.2740 C   0  0  2  0  0  3  0  0  0  0  0  0
  187.6370  176.9760  144.1260 C   0  0  0  0  0  0  0  0  0  0  0  0
  189.5400  176.8680  145.7030 C   0  0  0  0  0  3  0  0  0  0  0  0
  187.7860  178.3390  147.3700 C   0  0  0  0  0  0  0  0  0  0  0  0
  184.1220  179.1570  145.8050 O   0  0  0  0  0  0  0  0  0  0  0  0
  186.7720  179.0980  148.1490 C   0  0  0  0  0  3  0  0  0  0  0  0
  185.2550  178.9110  146.2920 C   0  0  0  0  0  0  0  0  0  0  0  0
  189.9460  177.2570  147.0000 C   0  0  0  0  0  0  0  0  0  0  0  0
  189.0690  178.0010  147.8370 C   0  0  0  0  0  0  0  0  0  0  0  0
  185.5980  179.3530  147.6260 N   0  0  0  0  0  0  0  0  0  0  0  0
  186.2440  177.5660  144.1630 C   0  0  0  0  0  3  0  0  0  0  0  0
  186.2710  178.1680  145.5340 C   0  0  0  0  0  0  0  0  0  0  0  0
  187.4320  177.9340  146.0900 C   0  0  0  0  0  0  0  0  0  0  0  0
  189.4730  178.3930  149.1100 O   0  0  0  0  0  1  0  0  0  0  0  0
  191.3130  176.8890  147.4710 C   0  0  0  0  0  2  0  0  0  0  0  0
  191.9870  175.9780  146.4640 C   0  0  0  0  0  1  0  0  0  0  0  0
  1  2  2  0  0  0  0
  2 28  1  0  0  0  0
  3  4  1  1  0  0  0
  3  1  1  0  0  0  0
  5  3  1  0  0  0  0
  6  5  1  0  0  0  0
  7  9  1  1  0  0  0
  7 10  1  0  0  0  0
 10  8  1  1  0  0  0
 10  6  1  0  0  0  0
 11  7  1  0  0  0  0
 11 10  1  0  0  0  0
 12  7  1  0  0  0  0
 13 12  1  0  0  0  0
 15 18  1  0  0  0  0
 15 16  1  0  0  0  0
 16 14  1  0  0  0  0
 17 16  1  0  0  0  0
 18 13  1  6  0  0  0
 18 16  1  0  0  0  0
 19 20  1  6  0  0  0
 19  2  1  0  0  0  0
 21 22  1  0  0  0  0
 21 19  1  0  0  0  0
 23 26  1  0  0  0  0
 25 23  1  0  0  0  0
 25 27  1  0  0  0  0
 26 24  1  0  0  0  0
 26 22  1  1  0  0  0
 27 24  1  0  0  0  0
 28 30  1  0  0  0  0
 29 31  1  1  0  0  0
 29 41  1  0  0  0  0
 30 39  2  0  0  0  0
 30 29  1  0  0  0  0
 31 36  2  0  0  0  0
 32 37  2  0  0  0  0
 32 34  1  0  0  0  0
 33 35  2  0  0  0  0
 35 38  1  0  0  0  0
 36 43  1  0  0  0  0
 36 37  1  0  0  0  0
 37 42  1  0  0  0  0
 38 34  2  0  0  0  0
 39 40  1  0  0  0  0
 40 41  2  0  0  0  0
 40 35  1  0  0  0  0
 41 32  1  0  0  0  0
 44 43  1  0  0  0  0
M  END
>  <MODEL>
8

>  <REMARK>
 VINA RESULT:      -7.1      1.841      4.832
  Name = 
  14 active torsions:
  status: ('A' for Active; 'I' for Inactive)
    1  A    between atoms: C_2  and  N_31
    2  A    between atoms: C_7  and  C_14
    3  A    between atoms: C_8  and  C_19
    4  A    between atoms: N_12  and  N_38
    5  A    between atoms: N_12  and  C_40
    6  A    between atoms: C_13  and  C_22
    7  A    between atoms: C_14  and  N_38
    8  A    between atoms: C_15  and  C_41
    9  A    between atoms: C_16  and  C_20
   10  A    between atoms: C_16  and  C_30
   11  A    between atoms: C_19  and  C_30
   12  A    between atoms: C_20  and  C_36
   13  A    between atoms: N_31  and  C_41
   14  A    between atoms: C_34  and  C_36
                            x       y       z     vdW  Elec       q    Type
                         _______ _______ _______ _____ _____    ______ ____

>  <TORSDO>
F 14

$$$$
=
 OpenBabel10222422033D

 44 49  0  0  1  0  0  0  0  0999 V2000
  188.9740  177.2710  140.9710 C   0  0  0  0  0  3  0  0  0  0  0  0
  189.4170  176.8520  142.1660 C   0  0  0  0  0  0  0  0  0  0  0  0
  189.7740  178.1330  140.0430 C   0  0  1  0  0  3  0  0  0  0  0  0
  190.4720  177.2630  139.0100 C   0  0  0  0  0  1  0  0  0  0  0  0
  188.8830  179.0650  139.3740 N   0  0  0  0  0  2  0  0  0  0  0  0
  187.7420  178.3450  138.9910 N   0  0  0  0  0  2  0  0  0  0  0  0
  187.5070  177.1450  136.7640 C   0  0  2  0  0  0  0  0  0  0  0  0
  188.2650  179.5130  136.9130 O   0  0  0  0  0  1  0  0  0  0  0  0
  187.5260  175.8360  137.5420 C   0  0  0  0  0  1  0  0  0  0  0  0
  187.6290  178.4390  137.5420 C   0  0  2  0  0  0  0  0  0  0  0  0
  186.2840  178.0430  136.9540 C   0  0  0  0  0  2  0  0  0  0  0  0
  188.1080  177.1740  135.4340 N   0  0  0  0  0  2  0  0  0  0  0  0
  188.9120  175.9750  135.2550 C   0  0  0  0  0  2  0  0  0  0  0  0
  192.6400  175.7870  136.3230 C   0  0  0  0  0  1  0  0  0  0  0  0
  191.1110  175.3800  134.5090 O   0  0  0  0  0  0  0  0  0  0  0  0
  191.2550  175.3420  135.9070 C   0  0  0  0  0  0  0  0  0  0  0  0
  190.6990  174.0450  136.4780 C   0  0  0  0  0  1  0  0  0  0  0  0
  190.3870  176.3470  135.2380 C   0  0  2  0  0  3  0  0  0  0  0  0
  190.7920  177.2200  142.6610 C   0  0  1  0  0  3  0  0  0  0  0  0
  191.7790  177.2880  141.5080 C   0  0  0  0  0  1  0  0  0  0  0  0
  190.7510  178.5380  143.4170 C   0  0  0  0  0  2  0  0  0  0  0  0
  191.6370  178.4980  144.6490 C   0  0  0  0  0  2  0  0  0  0  0  0
  191.5290  177.6200  146.8770 O   0  0  0  0  0  0  0  0  0  0  0  0
  191.9820  176.0930  145.1310 C   0  0  0  0  0  2  0  0  0  0  0  0
  191.7540  176.3720  147.4800 C   0  0  0  0  0  2  0  0  0  0  0  0
  191.2280  177.3360  145.5360 C   0  0  2  0  0  3  0  0  0  0  0  0
  192.2810  175.4160  146.4350 C   0  0  0  0  0  2  0  0  0  0  0  0
  188.5350  175.9400  142.9690 C   0  0  0  0  0  2  0  0  0  0  0  0
  186.7660  177.4130  143.9700 C   0  0  0  0  0  0  0  0  0  0  0  0
  187.8720  176.6830  144.0850 C   0  0  0  0  0  0  0  0  0  0  0  0
  185.9430  177.6340  142.8620 C   0  0  0  0  0  3  0  0  0  0  0  0
  185.4040  178.8460  145.3640 C   0  0  0  0  0  0  0  0  0  0  0  0
  188.0460  178.0160  148.3430 O   0  0  0  0  0  0  0  0  0  0  0  0
  185.2350  179.4270  146.7210 C   0  0  0  0  0  3  0  0  0  0  0  0
  187.2230  178.2730  147.4270 C   0  0  0  0  0  0  0  0  0  0  0  0
  184.8250  178.4830  143.0170 C   0  0  0  0  0  0  0  0  0  0  0  0
  184.5480  179.0890  144.2740 C   0  0  0  0  0  0  0  0  0  0  0  0
  186.0960  179.1460  147.6680 N   0  0  0  0  0  0  0  0  0  0  0  0
  188.4070  176.7900  145.4970 C   0  0  0  0  0  2  0  0  0  0  0  0
  187.3710  177.7010  146.0810 C   0  0  0  0  0  0  0  0  0  0  0  0
  186.4900  178.0050  145.1630 C   0  0  0  0  0  0  0  0  0  0  0  0
  183.4400  179.9180  144.4290 O   0  0  0  0  0  1  0  0  0  0  0  0
  183.9300  178.7230  141.8470 C   0  0  0  0  0  2  0  0  0  0  0  0
  184.5730  178.1940  140.5790 C   0  0  0  0  0  1  0  0  0  0  0  0
  1  2  2  0  0  0  0
  2 19  1  0  0  0  0
  2 28  1  0  0  0  0
  3  4  1  6  0  0  0
  3  1  1  0  0  0  0
  5  3  1  0  0  0  0
  6  5  1  0  0  0  0
  7 11  1  0  0  0  0
  7 10  1  0  0  0  0
  7  9  1  1  0  0  0
 10  8  1  6  0  0  0
 10  6  1  0  0  0  0
 11 10  1  0  0  0  0
 12  7  1  0  0  0  0
 13 12  1  0  0  0  0
 15 18  1  0  0  0  0
 15 16  1  0  0  0  0
 16 14  1  0  0  0  0
 16 17  1  0  0  0  0
 18 13  1  1  0  0  0
 18 16  1  0  0  0  0
 19 20  1  6  0  0  0
 19 21  1  0  0  0  0
 21 22  1  0  0  0  0
 23 25  1  0  0  0  0
 24 26  1  0  0  0  0
 24 27  1  0  0  0  0
 26 22  1  6  0  0  0
 26 23  1  0  0  0  0
 27 25  1  0  0  0  0
 28 30  1  0  0  0  0
 29 30  2  0  0  0  0
 29 41  1  0  0  0  0
 30 39  1  0  0  0  0
 31 36  2  0  0  0  0
 31 29  1  0  0  0  0
 32 34  1  0  0  0  0
 34 38  2  0  0  0  0
 35 38  1  0  0  0  0
 35 33  2  0  0  0  0
 36 37  1  0  0  0  0
 37 42  1  0  0  0  0
 37 32  2  0  0  0  0
 39 40  1  0  0  0  0
 40 35  1  0  0  0  0
 41 32  1  0  0  0  0
 41 40  2  0  0  0  0
 43 36  1  0  0  0  0
 44 43  1  0  0  0  0
M  END
>  <MODEL>
9

>  <REMARK>
 VINA RESULT:      -7.0      2.198      4.052
  Name = 
  14 active torsions:
  status: ('A' for Active; 'I' for Inactive)
    1  A    between atoms: C_2  and  N_31
    2  A    between atoms: C_7  and  C_14
    3  A    between atoms: C_8  and  C_19
    4  A    between atoms: N_12  and  N_38
    5  A    between atoms: N_12  and  C_40
    6  A    between atoms: C_13  and  C_22
    7  A    between atoms: C_14  and  N_38
    8  A    between atoms: C_15  and  C_41
    9  A    between atoms: C_16  and  C_20
   10  A    between atoms: C_16  and  C_30
   11  A    between atoms: C_19  and  C_30
   12  A    between atoms: C_20  and  C_36
   13  A    between atoms: N_31  and  C_41
   14  A    between atoms: C_34  and  C_36
                            x       y       z     vdW  Elec       q    Type
                         _______ _______ _______ _____ _____    ______ ____

>  <TORSDO>
F 14

$$$$
