=
 OpenBabel10232409193D

 30 33  0  0  0  0  0  0  0  0999 V2000
  187.4370  177.8130  143.3620 C   0  0  0  0  0  3  0  0  0  0  0  0
  189.1280  177.9140  141.6210 C   0  0  0  0  0  0  0  0  0  0  0  0
  188.4430  178.5990  139.3250 N   0  0  0  0  0  2  0  0  0  0  0  0
  186.4570  178.2480  142.4600 C   0  0  0  0  0  0  0  0  0  0  0  0
  188.1440  178.3240  140.7000 C   0  0  0  0  0  0  0  0  0  0  0  0
  189.5210  178.3120  137.2940 O   0  0  0  0  0  0  0  0  0  0  0  0
  190.5620  177.8390  141.2070 C   0  0  0  0  0  2  0  0  0  0  0  0
  190.7540  176.7900  140.1680 C   0  0  0  0  0  3  0  0  0  0  0  0
  186.8280  178.5040  141.1330 C   0  0  0  0  0  3  0  0  0  0  0  0
  190.2630  176.8970  138.9730 N   0  0  0  0  0  0  0  0  0  0  0  0
  189.4370  177.9710  138.5020 C   0  0  0  0  0  0  0  0  0  0  0  0
  188.7620  177.6470  142.9570 C   0  0  0  0  0  0  0  0  0  0  0  0
  180.0620  178.9660  143.2890 C   0  0  0  0  0  3  0  0  0  0  0  0
  184.0030  178.4330  141.9700 C   0  0  0  0  0  3  0  0  0  0  0  0
  182.4270  178.7850  143.7710 C   0  0  0  0  0  0  0  0  0  0  0  0
  181.6350  178.6130  141.4770 C   0  0  0  0  0  3  0  0  0  0  0  0
  181.1130  178.9630  144.2120 C   0  0  0  0  0  3  0  0  0  0  0  0
  184.7430  178.6110  144.2590 C   0  0  0  0  0  3  0  0  0  0  0  0
  182.6880  178.6100  142.3960 C   0  0  0  0  0  0  0  0  0  0  0  0
  180.3210  178.7910  141.9250 C   0  0  0  0  0  3  0  0  0  0  0  0
  185.0530  178.4320  142.9010 C   0  0  0  0  0  0  0  0  0  0  0  0
  183.4550  178.7820  144.6610 N   0  0  0  0  0  0  0  0  0  0  0  0
  190.5400  176.8600  144.7510 C   0  0  0  0  0  0  0  0  0  0  0  0
  189.7290  177.2160  143.9320 C   0  0  0  0  0  0  0  0  0  0  0  0
  191.5250  176.4320  145.7490 C   0  0  0  0  0  2  0  0  0  0  0  0
  191.0300  176.7310  147.1270 C   0  0  0  0  0  0  0  0  0  0  0  0
  191.8060  177.1130  147.9900 O   0  0  0  0  0  0  0  0  0  0  0  0
  189.5810  176.5580  147.4440 C   0  0  0  0  0  2  0  0  0  0  0  0
  187.6120  178.0270  147.1480 C   0  0  0  0  0  1  0  0  0  0  0  0
  188.9610  177.8880  147.8230 C   0  0  0  0  0  2  0  0  0  0  0  0
  2 12  2  0  0  0  0
  3  5  1  0  0  0  0
  4 21  1  0  0  0  0
  4  1  2  0  0  0  0
  5  9  2  0  0  0  0
  5  2  1  0  0  0  0
  6 11  2  0  0  0  0
  7  2  1  0  0  0  0
  8  7  1  0  0  0  0
  9  4  1  0  0  0  0
 10  8  2  0  0  0  0
 11 10  1  0  0  0  0
 11  3  1  0  0  0  0
 12  1  1  0  0  0  0
 12 24  1  0  0  0  0
 13 17  1  0  0  0  0
 14 19  1  0  0  0  0
 14 21  2  0  0  0  0
 15 17  2  0  0  0  0
 15 22  1  0  0  0  0
 16 20  1  0  0  0  0
 16 19  2  0  0  0  0
 18 22  2  0  0  0  0
 19 15  1  0  0  0  0
 20 13  2  0  0  0  0
 21 18  1  0  0  0  0
 23 25  1  0  0  0  0
 24 23  3  0  0  0  0
 25 26  1  0  0  0  0
 26 28  1  0  0  0  0
 26 27  2  0  0  0  0
 28 30  1  0  0  0  0
 29 30  1  0  0  0  0
M  END
>  <MODEL>
1

>  <REMARK>
 VINA RESULT:      -9.6      0.000      0.000
  Name = 
  6 active torsions:
  status: ('A' for Active; 'I' for Inactive)
    1  A    between atoms: C_2  and  C_27
    2  A    between atoms: C_2  and  C_28
    3  A    between atoms: C_9  and  C_18
    4  A    between atoms: C_9  and  C_27
    5  A    between atoms: C_10  and  C_21
    6  A    between atoms: C_20  and  C_29
                            x       y       z     vdW  Elec       q    Type
                         _______ _______ _______ _____ _____    ______ ____

>  <TORSDO>
F 6

$$$$
=
 OpenBabel10232409193D

 30 33  0  0  0  0  0  0  0  0999 V2000
  188.2080  177.6430  142.9610 C   0  0  0  0  0  3  0  0  0  0  0  0
  189.0920  177.5870  145.2240 C   0  0  0  0  0  0  0  0  0  0  0  0
  191.5070  177.0660  145.5520 N   0  0  0  0  0  2  0  0  0  0  0  0
  189.4760  177.3570  142.4390 C   0  0  0  0  0  0  0  0  0  0  0  0
  190.3650  177.2700  144.7090 C   0  0  0  0  0  0  0  0  0  0  0  0
  192.6410  176.3670  147.4480 O   0  0  0  0  0  0  0  0  0  0  0  0
  188.9070  177.8150  146.6890 C   0  0  0  0  0  2  0  0  0  0  0  0
  189.1690  176.5640  147.4520 C   0  0  0  0  0  3  0  0  0  0  0  0
  190.5460  177.1780  143.3270 C   0  0  0  0  0  3  0  0  0  0  0  0
  190.3500  176.0340  147.5350 N   0  0  0  0  0  0  0  0  0  0  0  0
  191.5300  176.5170  146.8780 C   0  0  0  0  0  0  0  0  0  0  0  0
  188.0080  177.7620  144.3370 C   0  0  0  0  0  0  0  0  0  0  0  0
  189.3540  177.3330  135.9520 C   0  0  0  0  0  3  0  0  0  0  0  0
  188.7050  177.6950  140.0760 C   0  0  0  0  0  3  0  0  0  0  0  0
  190.1070  177.0060  138.2290 C   0  0  0  0  0  0  0  0  0  0  0  0
  187.9420  178.0270  137.7970 C   0  0  0  0  0  3  0  0  0  0  0  0
  190.3250  176.8840  136.8540 C   0  0  0  0  0  3  0  0  0  0  0  0
  190.8590  176.6770  140.4570 C   0  0  0  0  0  3  0  0  0  0  0  0
  188.9090  177.5800  138.7020 C   0  0  0  0  0  0  0  0  0  0  0  0
  188.1660  177.9030  136.4220 C   0  0  0  0  0  3  0  0  0  0  0  0
  189.6820  177.2430  140.9760 C   0  0  0  0  0  0  0  0  0  0  0  0
  191.0450  176.5720  139.1130 N   0  0  0  0  0  0  0  0  0  0  0  0
  185.5790  178.3420  145.2100 C   0  0  0  0  0  0  0  0  0  0  0  0
  186.6870  178.0760  144.8150 C   0  0  0  0  0  0  0  0  0  0  0  0
  184.2310  178.6670  145.6850 C   0  0  0  0  0  2  0  0  0  0  0  0
  183.3150  178.8990  144.5280 C   0  0  0  0  0  0  0  0  0  0  0  0
  182.1400  178.5720  144.5980 O   0  0  0  0  0  0  0  0  0  0  0  0
  183.8450  179.5320  143.2830 C   0  0  0  0  0  2  0  0  0  0  0  0
  185.1110  178.8600  141.2660 C   0  0  0  0  0  1  0  0  0  0  0  0
  183.9520  178.5050  142.1730 C   0  0  0  0  0  2  0  0  0  0  0  0
  1 12  1  0  0  0  0
  2  7  1  0  0  0  0
  3 11  1  0  0  0  0
  4  1  2  0  0  0  0
  4  9  1  0  0  0  0
  5  2  1  0  0  0  0
  5  3  1  0  0  0  0
  7  8  1  0  0  0  0
  8 10  2  0  0  0  0
  9  5  2  0  0  0  0
 11  6  2  0  0  0  0
 11 10  1  0  0  0  0
 12 24  1  0  0  0  0
 12  2  2  0  0  0  0
 13 20  2  0  0  0  0
 13 17  1  0  0  0  0
 14 21  2  0  0  0  0
 15 19  1  0  0  0  0
 15 22  1  0  0  0  0
 16 19  2  0  0  0  0
 17 15  2  0  0  0  0
 18 21  1  0  0  0  0
 19 14  1  0  0  0  0
 20 16  1  0  0  0  0
 21  4  1  0  0  0  0
 22 18  2  0  0  0  0
 23 25  1  0  0  0  0
 24 23  3  0  0  0  0
 26 27  2  0  0  0  0
 26 25  1  0  0  0  0
 28 26  1  0  0  0  0
 29 30  1  0  0  0  0
 30 28  1  0  0  0  0
M  END
>  <MODEL>
2

>  <REMARK>
 VINA RESULT:      -9.3      2.958      7.500
  Name = 
  6 active torsions:
  status: ('A' for Active; 'I' for Inactive)
    1  A    between atoms: C_2  and  C_27
    2  A    between atoms: C_2  and  C_28
    3  A    between atoms: C_9  and  C_18
    4  A    between atoms: C_9  and  C_27
    5  A    between atoms: C_10  and  C_21
    6  A    between atoms: C_20  and  C_29
                            x       y       z     vdW  Elec       q    Type
                         _______ _______ _______ _____ _____    ______ ____

>  <TORSDO>
F 6

$$$$
=
 OpenBabel10232409193D

 30 33  0  0  0  0  0  0  0  0999 V2000
  189.3510  177.4090  141.7090 C   0  0  0  0  0  3  0  0  0  0  0  0
  189.3840  177.6440  144.1270 C   0  0  0  0  0  0  0  0  0  0  0  0
  191.5550  177.3920  145.3240 N   0  0  0  0  0  2  0  0  0  0  0  0
  190.7360  177.2010  141.6920 C   0  0  0  0  0  0  0  0  0  0  0  0
  190.7730  177.4070  144.1230 C   0  0  0  0  0  0  0  0  0  0  0  0
  191.9890  176.9810  147.5640 O   0  0  0  0  0  0  0  0  0  0  0  0
  188.6820  177.9860  145.4010 C   0  0  0  0  0  2  0  0  0  0  0  0
  188.7330  176.8400  146.3510 C   0  0  0  0  0  3  0  0  0  0  0  0
  191.4340  177.2080  142.9080 C   0  0  0  0  0  3  0  0  0  0  0  0
  189.8380  176.4380  146.8970 N   0  0  0  0  0  0  0  0  0  0  0  0
  191.1430  176.9710  146.6330 C   0  0  0  0  0  0  0  0  0  0  0  0
  188.6730  177.6320  142.9090 C   0  0  0  0  0  0  0  0  0  0  0  0
  192.8540  175.8710  135.7060 C   0  0  0  0  0  3  0  0  0  0  0  0
  190.7680  176.4930  139.2850 C   0  0  0  0  0  3  0  0  0  0  0  0
  192.8320  176.5590  138.0260 C   0  0  0  0  0  0  0  0  0  0  0  0
  190.7800  175.8020  136.9600 C   0  0  0  0  0  3  0  0  0  0  0  0
  193.5280  176.3520  136.8330 C   0  0  0  0  0  3  0  0  0  0  0  0
  192.8260  177.2350  140.3020 C   0  0  0  0  0  3  0  0  0  0  0  0
  191.4510  176.2820  138.0890 C   0  0  0  0  0  0  0  0  0  0  0  0
  191.4840  175.5970  135.7690 C   0  0  0  0  0  3  0  0  0  0  0  0
  191.4500  176.9750  140.4130 C   0  0  0  0  0  0  0  0  0  0  0  0
  193.4800  177.0250  139.1270 N   0  0  0  0  0  0  0  0  0  0  0  0
  186.0620  178.0530  142.8190 C   0  0  0  0  0  0  0  0  0  0  0  0
  187.2520  177.8600  142.8630 C   0  0  0  0  0  0  0  0  0  0  0  0
  184.6170  178.2890  142.7610 C   0  0  0  0  0  2  0  0  0  0  0  0
  184.1080  178.7240  144.0970 C   0  0  0  0  0  0  0  0  0  0  0  0
  182.9150  178.6620  144.3500 O   0  0  0  0  0  0  0  0  0  0  0  0
  185.0670  179.2380  145.1200 C   0  0  0  0  0  2  0  0  0  0  0  0
  185.9440  178.9630  147.4170 C   0  0  0  0  0  1  0  0  0  0  0  0
  184.9590  178.4300  146.3980 C   0  0  0  0  0  2  0  0  0  0  0  0
  1 12  1  0  0  0  0
  2  7  1  0  0  0  0
  3 11  1  0  0  0  0
  4  1  2  0  0  0  0
  4  9  1  0  0  0  0
  5  2  1  0  0  0  0
  5  3  1  0  0  0  0
  7  8  1  0  0  0  0
  8 10  2  0  0  0  0
  9  5  2  0  0  0  0
 11 10  1  0  0  0  0
 11  6  2  0  0  0  0
 12  2  2  0  0  0  0
 13 20  2  0  0  0  0
 13 17  1  0  0  0  0
 14 21  2  0  0  0  0
 15 19  1  0  0  0  0
 15 22  1  0  0  0  0
 16 19  2  0  0  0  0
 17 15  2  0  0  0  0
 18 21  1  0  0  0  0
 19 14  1  0  0  0  0
 20 16  1  0  0  0  0
 21  4  1  0  0  0  0
 22 18  2  0  0  0  0
 23 24  3  0  0  0  0
 24 12  1  0  0  0  0
 25 23  1  0  0  0  0
 25 26  1  0  0  0  0
 26 27  2  0  0  0  0
 26 28  1  0  0  0  0
 28 30  1  0  0  0  0
 30 29  1  0  0  0  0
M  END
>  <MODEL>
3

>  <REMARK>
 VINA RESULT:      -9.2      3.214      8.247
  Name = 
  6 active torsions:
  status: ('A' for Active; 'I' for Inactive)
    1  A    between atoms: C_2  and  C_27
    2  A    between atoms: C_2  and  C_28
    3  A    between atoms: C_9  and  C_18
    4  A    between atoms: C_9  and  C_27
    5  A    between atoms: C_10  and  C_21
    6  A    between atoms: C_20  and  C_29
                            x       y       z     vdW  Elec       q    Type
                         _______ _______ _______ _____ _____    ______ ____

>  <TORSDO>
F 6

$$$$
=
 OpenBabel10232409193D

 30 33  0  0  0  0  0  0  0  0999 V2000
  186.1310  178.1300  142.4150 C   0  0  0  0  0  3  0  0  0  0  0  0
  183.8300  178.7810  141.9910 C   0  0  0  0  0  0  0  0  0  0  0  0
  182.2990  179.0950  143.9330 N   0  0  0  0  0  2  0  0  0  0  0  0
  185.9020  178.1490  143.7970 C   0  0  0  0  0  0  0  0  0  0  0  0
  183.5820  178.7760  143.3790 C   0  0  0  0  0  0  0  0  0  0  0  0
  179.9830  179.1530  144.0170 O   0  0  0  0  0  0  0  0  0  0  0  0
  182.7660  179.2190  141.0380 C   0  0  0  0  0  2  0  0  0  0  0  0
  181.6120  178.2780  141.0710 C   0  0  0  0  0  3  0  0  0  0  0  0
  184.6220  178.4790  144.2630 C   0  0  0  0  0  3  0  0  0  0  0  0
  180.8400  178.1610  142.1060 N   0  0  0  0  0  0  0  0  0  0  0  0
  181.0080  178.8450  143.3560 C   0  0  0  0  0  0  0  0  0  0  0  0
  185.1130  178.4440  141.5140 C   0  0  0  0  0  0  0  0  0  0  0  0
  191.3170  176.6360  147.0360 C   0  0  0  0  0  3  0  0  0  0  0  0
  188.2890  177.5540  144.2880 C   0  0  0  0  0  3  0  0  0  0  0  0
  189.0120  177.2140  146.5710 C   0  0  0  0  0  0  0  0  0  0  0  0
  190.6000  176.9750  144.7440 C   0  0  0  0  0  3  0  0  0  0  0  0
  190.0210  176.9080  147.4880 C   0  0  0  0  0  3  0  0  0  0  0  0
  186.7490  177.7790  146.1310 C   0  0  0  0  0  3  0  0  0  0  0  0
  189.3050  177.2470  145.1920 C   0  0  0  0  0  0  0  0  0  0  0  0
  191.6060  176.6700  145.6670 C   0  0  0  0  0  3  0  0  0  0  0  0
  186.9920  177.8250  144.7480 C   0  0  0  0  0  0  0  0  0  0  0  0
  187.7500  177.4790  147.0020 N   0  0  0  0  0  0  0  0  0  0  0  0
  185.6640  178.4060  138.9260 C   0  0  0  0  0  0  0  0  0  0  0  0
  185.4130  178.4260  140.1050 C   0  0  0  0  0  0  0  0  0  0  0  0
  185.9670  178.3750  137.4920 C   0  0  0  0  0  2  0  0  0  0  0  0
  187.4300  178.5740  137.2670 C   0  0  0  0  0  0  0  0  0  0  0  0
  187.8280  179.5250  136.6120 O   0  0  0  0  0  0  0  0  0  0  0  0
  188.4040  177.6000  137.8460 C   0  0  0  0  0  2  0  0  0  0  0  0
  189.1300  177.6530  140.2100 C   0  0  0  0  0  1  0  0  0  0  0  0
  189.3080  178.2910  138.8480 C   0  0  0  0  0  2  0  0  0  0  0  0
  1  4  1  0  0  0  0
  2  5  2  0  0  0  0
  4  9  2  0  0  0  0
  4 21  1  0  0  0  0
  5  3  1  0  0  0  0
  5  9  1  0  0  0  0
  7  8  1  0  0  0  0
  7  2  1  0  0  0  0
  8 10  2  0  0  0  0
 10 11  1  0  0  0  0
 11  3  1  0  0  0  0
 11  6  2  0  0  0  0
 12  2  1  0  0  0  0
 12  1  2  0  0  0  0
 13 17  1  0  0  0  0
 14 21  2  0  0  0  0
 14 19  1  0  0  0  0
 15 22  1  0  0  0  0
 15 17  2  0  0  0  0
 16 19  2  0  0  0  0
 16 20  1  0  0  0  0
 18 22  2  0  0  0  0
 19 15  1  0  0  0  0
 20 13  2  0  0  0  0
 21 18  1  0  0  0  0
 23 24  3  0  0  0  0
 24 12  1  0  0  0  0
 25 23  1  0  0  0  0
 26 25  1  0  0  0  0
 26 28  1  0  0  0  0
 27 26  2  0  0  0  0
 28 30  1  0  0  0  0
 30 29  1  0  0  0  0
M  END
>  <MODEL>
4

>  <REMARK>
 VINA RESULT:      -9.0      3.264      8.114
  Name = 
  6 active torsions:
  status: ('A' for Active; 'I' for Inactive)
    1  A    between atoms: C_2  and  C_27
    2  A    between atoms: C_2  and  C_28
    3  A    between atoms: C_9  and  C_18
    4  A    between atoms: C_9  and  C_27
    5  A    between atoms: C_10  and  C_21
    6  A    between atoms: C_20  and  C_29
                            x       y       z     vdW  Elec       q    Type
                         _______ _______ _______ _____ _____    ______ ____

>  <TORSDO>
F 6

$$$$
=
 OpenBabel10232409193D

 30 33  0  0  0  0  0  0  0  0999 V2000
  187.3320  177.7960  142.2570 C   0  0  0  0  0  3  0  0  0  0  0  0
  189.3000  177.0780  143.4880 C   0  0  0  0  0  0  0  0  0  0  0  0
  189.1630  176.9130  145.9710 N   0  0  0  0  0  2  0  0  0  0  0  0
  186.6010  177.8940  143.4480 C   0  0  0  0  0  0  0  0  0  0  0  0
  188.5800  177.2010  144.6940 C   0  0  0  0  0  0  0  0  0  0  0  0
  190.8490  176.8300  147.5590 O   0  0  0  0  0  0  0  0  0  0  0  0
  190.6950  176.5430  143.4960 C   0  0  0  0  0  2  0  0  0  0  0  0
  191.6070  177.4670  144.2250 C   0  0  0  0  0  3  0  0  0  0  0  0
  187.2380  177.5880  144.6580 C   0  0  0  0  0  3  0  0  0  0  0  0
  191.5200  177.6640  145.5040 N   0  0  0  0  0  0  0  0  0  0  0  0
  190.5300  177.0940  146.3720 C   0  0  0  0  0  0  0  0  0  0  0  0
  188.6680  177.3900  142.2660 C   0  0  0  0  0  0  0  0  0  0  0  0
  180.4230  179.4820  142.2610 C   0  0  0  0  0  3  0  0  0  0  0  0
  184.4330  178.2670  142.2410 C   0  0  0  0  0  3  0  0  0  0  0  0
  182.5100  179.1220  143.4330 C   0  0  0  0  0  0  0  0  0  0  0  0
  182.3460  178.6240  141.0580 C   0  0  0  0  0  3  0  0  0  0  0  0
  181.1730  179.5280  143.4410 C   0  0  0  0  0  3  0  0  0  0  0  0
  184.5500  178.7760  144.5960 C   0  0  0  0  0  3  0  0  0  0  0  0
  183.0980  178.6680  142.2350 C   0  0  0  0  0  0  0  0  0  0  0  0
  181.0070  179.0310  141.0720 C   0  0  0  0  0  3  0  0  0  0  0  0
  185.1800  178.3160  143.4280 C   0  0  0  0  0  0  0  0  0  0  0  0
  183.2460  179.1640  144.5760 N   0  0  0  0  0  0  0  0  0  0  0  0
  189.9500  177.2090  139.9590 C   0  0  0  0  0  0  0  0  0  0  0  0
  189.3640  177.2890  141.0100 C   0  0  0  0  0  0  0  0  0  0  0  0
  190.6670  177.1140  138.6840 C   0  0  0  0  0  2  0  0  0  0  0  0
  189.7440  177.4090  137.5470 C   0  0  0  0  0  0  0  0  0  0  0  0
  189.6140  176.6060  136.6360 O   0  0  0  0  0  0  0  0  0  0  0  0
  188.9820  178.6940  137.5290 C   0  0  0  0  0  2  0  0  0  0  0  0
  186.6650  178.0390  138.0960 C   0  0  0  0  0  1  0  0  0  0  0  0
  187.5880  178.4730  136.9770 C   0  0  0  0  0  2  0  0  0  0  0  0
  1 12  2  0  0  0  0
  1  4  1  0  0  0  0
  2  7  1  0  0  0  0
  2  5  2  0  0  0  0
  3 11  1  0  0  0  0
  4  9  2  0  0  0  0
  5  3  1  0  0  0  0
  7  8  1  0  0  0  0
  8 10  2  0  0  0  0
  9  5  1  0  0  0  0
 10 11  1  0  0  0  0
 11  6  2  0  0  0  0
 12  2  1  0  0  0  0
 13 17  1  0  0  0  0
 14 21  2  0  0  0  0
 15 17  2  0  0  0  0
 15 22  1  0  0  0  0
 16 20  1  0  0  0  0
 16 19  2  0  0  0  0
 19 14  1  0  0  0  0
 19 15  1  0  0  0  0
 20 13  2  0  0  0  0
 21  4  1  0  0  0  0
 21 18  1  0  0  0  0
 22 18  2  0  0  0  0
 23 24  3  0  0  0  0
 24 12  1  0  0  0  0
 25 23  1  0  0  0  0
 26 25  1  0  0  0  0
 27 26  2  0  0  0  0
 28 26  1  0  0  0  0
 30 28  1  0  0  0  0
 30 29  1  0  0  0  0
M  END
>  <MODEL>
5

>  <REMARK>
 VINA RESULT:      -9.0      2.102      5.630
  Name = 
  6 active torsions:
  status: ('A' for Active; 'I' for Inactive)
    1  A    between atoms: C_2  and  C_27
    2  A    between atoms: C_2  and  C_28
    3  A    between atoms: C_9  and  C_18
    4  A    between atoms: C_9  and  C_27
    5  A    between atoms: C_10  and  C_21
    6  A    between atoms: C_20  and  C_29
                            x       y       z     vdW  Elec       q    Type
                         _______ _______ _______ _____ _____    ______ ____

>  <TORSDO>
F 6

$$$$
=
 OpenBabel10232409193D

 30 33  0  0  0  0  0  0  0  0999 V2000
  188.0770  177.6580  142.8290 C   0  0  0  0  0  3  0  0  0  0  0  0
  188.9570  177.6730  145.0940 C   0  0  0  0  0  0  0  0  0  0  0  0
  191.3740  177.1740  145.4410 N   0  0  0  0  0  2  0  0  0  0  0  0
  189.3470  177.3620  142.3180 C   0  0  0  0  0  0  0  0  0  0  0  0
  190.2330  177.3480  144.5910 C   0  0  0  0  0  0  0  0  0  0  0  0
  192.5080  176.5370  147.3600 O   0  0  0  0  0  0  0  0  0  0  0  0
  188.7680  177.9440  146.5510 C   0  0  0  0  0  2  0  0  0  0  0  0
  189.0350  176.7170  147.3510 C   0  0  0  0  0  3  0  0  0  0  0  0
  190.4170  177.2150  143.2120 C   0  0  0  0  0  3  0  0  0  0  0  0
  190.2180  176.1970  147.4520 N   0  0  0  0  0  0  0  0  0  0  0  0
  191.3980  176.6650  146.7830 C   0  0  0  0  0  0  0  0  0  0  0  0
  187.8740  177.8160  144.2010 C   0  0  0  0  0  0  0  0  0  0  0  0
  191.3140  176.3650  136.2160 C   0  0  0  0  0  3  0  0  0  0  0  0
  190.7940  176.7780  140.3530 C   0  0  0  0  0  3  0  0  0  0  0  0
  189.9110  176.9280  138.1060 C   0  0  0  0  0  0  0  0  0  0  0  0
  192.2080  176.2120  138.4650 C   0  0  0  0  0  3  0  0  0  0  0  0
  190.0830  176.7900  136.7260 C   0  0  0  0  0  3  0  0  0  0  0  0
  188.5230  177.4840  139.9500 C   0  0  0  0  0  3  0  0  0  0  0  0
  190.9790  176.6370  138.9790 C   0  0  0  0  0  0  0  0  0  0  0  0
  192.3740  176.0770  137.0820 C   0  0  0  0  0  3  0  0  0  0  0  0
  189.5570  177.2060  140.8590 C   0  0  0  0  0  0  0  0  0  0  0  0
  188.7170  177.3410  138.6110 N   0  0  0  0  0  0  0  0  0  0  0  0
  185.4390  178.4050  145.0540 C   0  0  0  0  0  0  0  0  0  0  0  0
  186.5500  178.1390  144.6670 C   0  0  0  0  0  0  0  0  0  0  0  0
  184.0870  178.7240  145.5200 C   0  0  0  0  0  2  0  0  0  0  0  0
  183.1720  178.9270  144.3570 C   0  0  0  0  0  0  0  0  0  0  0  0
  181.9760  178.7000  144.4680 O   0  0  0  0  0  0  0  0  0  0  0  0
  183.7260  179.4090  143.0560 C   0  0  0  0  0  2  0  0  0  0  0  0
  184.2590  178.7030  140.7460 C   0  0  0  0  0  1  0  0  0  0  0  0
  183.3640  178.4490  141.9410 C   0  0  0  0  0  2  0  0  0  0  0  0
  1 12  1  0  0  0  0
  2  7  1  0  0  0  0
  3 11  1  0  0  0  0
  4  1  2  0  0  0  0
  4  9  1  0  0  0  0
  5  2  1  0  0  0  0
  5  3  1  0  0  0  0
  7  8  1  0  0  0  0
  8 10  2  0  0  0  0
  9  5  2  0  0  0  0
 11  6  2  0  0  0  0
 11 10  1  0  0  0  0
 12 24  1  0  0  0  0
 12  2  2  0  0  0  0
 13 17  2  0  0  0  0
 13 20  1  0  0  0  0
 14 21  1  0  0  0  0
 15 22  2  0  0  0  0
 15 19  1  0  0  0  0
 16 19  1  0  0  0  0
 17 15  1  0  0  0  0
 18 21  2  0  0  0  0
 19 14  2  0  0  0  0
 20 16  2  0  0  0  0
 21  4  1  0  0  0  0
 22 18  1  0  0  0  0
 23 25  1  0  0  0  0
 24 23  3  0  0  0  0
 26 27  2  0  0  0  0
 26 25  1  0  0  0  0
 28 26  1  0  0  0  0
 29 30  1  0  0  0  0
 30 28  1  0  0  0  0
M  END
>  <MODEL>
6

>  <REMARK>
 VINA RESULT:      -8.8      3.023      7.971
  Name = 
  6 active torsions:
  status: ('A' for Active; 'I' for Inactive)
    1  A    between atoms: C_2  and  C_27
    2  A    between atoms: C_2  and  C_28
    3  A    between atoms: C_9  and  C_18
    4  A    between atoms: C_9  and  C_27
    5  A    between atoms: C_10  and  C_21
    6  A    between atoms: C_20  and  C_29
                            x       y       z     vdW  Elec       q    Type
                         _______ _______ _______ _____ _____    ______ ____

>  <TORSDO>
F 6

$$$$
=
 OpenBabel10232409193D

 30 33  0  0  0  0  0  0  0  0999 V2000
  188.2560  177.6550  142.0210 C   0  0  0  0  0  3  0  0  0  0  0  0
  186.9090  177.7950  144.0380 C   0  0  0  0  0  0  0  0  0  0  0  0
  184.4970  178.3850  143.8270 N   0  0  0  0  0  2  0  0  0  0  0  0
  187.1390  177.9590  141.2320 C   0  0  0  0  0  0  0  0  0  0  0  0
  185.7860  178.1290  143.2550 C   0  0  0  0  0  0  0  0  0  0  0  0
  183.0030  179.1630  145.4190 O   0  0  0  0  0  0  0  0  0  0  0  0
  186.7670  177.6010  145.5130 C   0  0  0  0  0  2  0  0  0  0  0  0
  186.3860  178.8790  146.1750 C   0  0  0  0  0  3  0  0  0  0  0  0
  185.9090  178.1890  141.8640 C   0  0  0  0  0  3  0  0  0  0  0  0
  185.2310  179.4400  145.9910 N   0  0  0  0  0  0  0  0  0  0  0  0
  184.2050  178.9700  145.1050 C   0  0  0  0  0  0  0  0  0  0  0  0
  188.1520  177.5690  143.4100 C   0  0  0  0  0  0  0  0  0  0  0  0
  188.6710  177.8430  134.9280 C   0  0  0  0  0  3  0  0  0  0  0  0
  188.4090  177.5790  139.1020 C   0  0  0  0  0  3  0  0  0  0  0  0
  187.4370  178.2100  136.9780 C   0  0  0  0  0  0  0  0  0  0  0  0
  189.6520  177.2070  137.0530 C   0  0  0  0  0  3  0  0  0  0  0  0
  187.5240  178.2980  135.5870 C   0  0  0  0  0  3  0  0  0  0  0  0
  186.2160  178.5770  138.9800 C   0  0  0  0  0  3  0  0  0  0  0  0
  188.5080  177.6610  137.7140 C   0  0  0  0  0  0  0  0  0  0  0  0
  189.7320  177.2980  135.6590 C   0  0  0  0  0  3  0  0  0  0  0  0
  187.2560  178.0380  139.7560 C   0  0  0  0  0  0  0  0  0  0  0  0
  186.3260  178.6510  137.6260 N   0  0  0  0  0  0  0  0  0  0  0  0
  190.3150  176.9570  144.8060 C   0  0  0  0  0  0  0  0  0  0  0  0
  189.3290  177.2340  144.1680 C   0  0  0  0  0  0  0  0  0  0  0  0
  191.5110  176.6260  145.5850 C   0  0  0  0  0  2  0  0  0  0  0  0
  191.1990  176.6440  147.0460 C   0  0  0  0  0  0  0  0  0  0  0  0
  192.1000  176.5610  147.8680 O   0  0  0  0  0  0  0  0  0  0  0  0
  189.7800  176.7620  147.4970 C   0  0  0  0  0  2  0  0  0  0  0  0
  188.2330  178.0380  148.9460 C   0  0  0  0  0  1  0  0  0  0  0  0
  189.5650  178.0730  148.2270 C   0  0  0  0  0  2  0  0  0  0  0  0
  1 12  1  0  0  0  0
  2  7  1  0  0  0  0
  3 11  1  0  0  0  0
  4  9  1  0  0  0  0
  4  1  2  0  0  0  0
  5  3  1  0  0  0  0
  5  2  1  0  0  0  0
  7  8  1  0  0  0  0
  9  5  2  0  0  0  0
 10  8  2  0  0  0  0
 11  6  2  0  0  0  0
 11 10  1  0  0  0  0
 12  2  2  0  0  0  0
 12 24  1  0  0  0  0
 13 17  2  0  0  0  0
 13 20  1  0  0  0  0
 14 21  1  0  0  0  0
 15 22  2  0  0  0  0
 15 19  1  0  0  0  0
 16 19  1  0  0  0  0
 17 15  1  0  0  0  0
 18 21  2  0  0  0  0
 19 14  2  0  0  0  0
 20 16  2  0  0  0  0
 21  4  1  0  0  0  0
 22 18  1  0  0  0  0
 23 25  1  0  0  0  0
 24 23  3  0  0  0  0
 25 26  1  0  0  0  0
 26 28  1  0  0  0  0
 26 27  2  0  0  0  0
 28 30  1  0  0  0  0
 30 29  1  0  0  0  0
M  END
>  <MODEL>
7

>  <REMARK>
 VINA RESULT:      -8.6      2.933      6.223
  Name = 
  6 active torsions:
  status: ('A' for Active; 'I' for Inactive)
    1  A    between atoms: C_2  and  C_27
    2  A    between atoms: C_2  and  C_28
    3  A    between atoms: C_9  and  C_18
    4  A    between atoms: C_9  and  C_27
    5  A    between atoms: C_10  and  C_21
    6  A    between atoms: C_20  and  C_29
                            x       y       z     vdW  Elec       q    Type
                         _______ _______ _______ _____ _____    ______ ____

>  <TORSDO>
F 6

$$$$
=
 OpenBabel10232409193D

 30 33  0  0  0  0  0  0  0  0999 V2000
  187.2550  177.8970  142.2100 C   0  0  0  0  0  3  0  0  0  0  0  0
  189.2710  177.1470  143.3410 C   0  0  0  0  0  0  0  0  0  0  0  0
  189.2280  176.8970  145.8200 N   0  0  0  0  0  2  0  0  0  0  0  0
  186.5690  177.9510  143.4300 C   0  0  0  0  0  0  0  0  0  0  0  0
  188.5970  177.2250  144.5760 C   0  0  0  0  0  0  0  0  0  0  0  0
  190.9740  176.7680  147.3400 O   0  0  0  0  0  0  0  0  0  0  0  0
  190.6670  176.6190  143.2770 C   0  0  0  0  0  2  0  0  0  0  0  0
  191.6020  177.5230  144.0030 C   0  0  0  0  0  3  0  0  0  0  0  0
  187.2530  177.6070  144.6040 C   0  0  0  0  0  3  0  0  0  0  0  0
  191.5630  177.6750  145.2910 N   0  0  0  0  0  0  0  0  0  0  0  0
  190.6090  177.0710  146.1750 C   0  0  0  0  0  0  0  0  0  0  0  0
  188.5910  177.4980  142.1550 C   0  0  0  0  0  0  0  0  0  0  0  0
  180.3470  179.5570  142.5310 C   0  0  0  0  0  3  0  0  0  0  0  0
  184.3580  178.3640  142.3180 C   0  0  0  0  0  3  0  0  0  0  0  0
  182.4760  179.1580  143.6130 C   0  0  0  0  0  0  0  0  0  0  0  0
  182.2300  178.7620  141.2250 C   0  0  0  0  0  3  0  0  0  0  0  0
  181.1380  179.5560  143.6850 C   0  0  0  0  0  3  0  0  0  0  0  0
  184.5570  178.7720  144.6870 C   0  0  0  0  0  3  0  0  0  0  0  0
  183.0230  178.7590  142.3760 C   0  0  0  0  0  0  0  0  0  0  0  0
  180.8910  179.1610  141.3040 C   0  0  0  0  0  3  0  0  0  0  0  0
  185.1460  178.3660  143.4790 C   0  0  0  0  0  0  0  0  0  0  0  0
  183.2510  179.1540  144.7290 N   0  0  0  0  0  0  0  0  0  0  0  0
  189.7800  177.4020  139.7930 C   0  0  0  0  0  0  0  0  0  0  0  0
  189.2400  177.4430  140.8710 C   0  0  0  0  0  0  0  0  0  0  0  0
  190.4340  177.3570  138.4820 C   0  0  0  0  0  2  0  0  0  0  0  0
  191.4000  176.2190  138.4230 C   0  0  0  0  0  0  0  0  0  0  0  0
  190.9960  175.0670  138.4480 O   0  0  0  0  0  0  0  0  0  0  0  0
  192.8650  176.5000  138.3350 C   0  0  0  0  0  2  0  0  0  0  0  0
  194.3880  174.6340  137.7710 C   0  0  0  0  0  1  0  0  0  0  0  0
  193.4860  175.7090  137.2010 C   0  0  0  0  0  2  0  0  0  0  0  0
  1  4  1  0  0  0  0
  2  5  2  0  0  0  0
  3 11  1  0  0  0  0
  4 21  1  0  0  0  0
  4  9  2  0  0  0  0
  5  9  1  0  0  0  0
  5  3  1  0  0  0  0
  7  2  1  0  0  0  0
  7  8  1  0  0  0  0
  8 10  2  0  0  0  0
 10 11  1  0  0  0  0
 11  6  2  0  0  0  0
 12  1  2  0  0  0  0
 12  2  1  0  0  0  0
 13 17  1  0  0  0  0
 14 19  1  0  0  0  0
 14 21  2  0  0  0  0
 15 17  2  0  0  0  0
 15 22  1  0  0  0  0
 16 20  1  0  0  0  0
 16 19  2  0  0  0  0
 18 22  2  0  0  0  0
 19 15  1  0  0  0  0
 20 13  2  0  0  0  0
 21 18  1  0  0  0  0
 23 24  3  0  0  0  0
 24 12  1  0  0  0  0
 25 23  1  0  0  0  0
 26 27  2  0  0  0  0
 26 25  1  0  0  0  0
 28 26  1  0  0  0  0
 30 29  1  0  0  0  0
 30 28  1  0  0  0  0
M  END
>  <MODEL>
8

>  <REMARK>
 VINA RESULT:      -8.6      2.363      5.644
  Name = 
  6 active torsions:
  status: ('A' for Active; 'I' for Inactive)
    1  A    between atoms: C_2  and  C_27
    2  A    between atoms: C_2  and  C_28
    3  A    between atoms: C_9  and  C_18
    4  A    between atoms: C_9  and  C_27
    5  A    between atoms: C_10  and  C_21
    6  A    between atoms: C_20  and  C_29
                            x       y       z     vdW  Elec       q    Type
                         _______ _______ _______ _____ _____    ______ ____

>  <TORSDO>
F 6

$$$$
=
 OpenBabel10232409193D

 30 33  0  0  0  0  0  0  0  0999 V2000
  190.6690  177.1010  140.9530 C   0  0  0  0  0  3  0  0  0  0  0  0
  189.3820  177.6000  138.9540 C   0  0  0  0  0  0  0  0  0  0  0  0
  187.0400  178.4140  139.2110 N   0  0  0  0  0  2  0  0  0  0  0  0
  189.5950  177.4890  141.7640 C   0  0  0  0  0  0  0  0  0  0  0  0
  188.2860  177.9660  139.7610 C   0  0  0  0  0  0  0  0  0  0  0  0
  185.3020  178.4780  137.6790 O   0  0  0  0  0  0  0  0  0  0  0  0
  189.3100  177.7590  137.4700 C   0  0  0  0  0  2  0  0  0  0  0  0
  188.2760  176.8540  136.8950 C   0  0  0  0  0  3  0  0  0  0  0  0
  188.4110  177.9240  141.1520 C   0  0  0  0  0  3  0  0  0  0  0  0
  187.0100  177.0150  137.1190 N   0  0  0  0  0  0  0  0  0  0  0  0
  186.4310  178.0100  137.9750 C   0  0  0  0  0  0  0  0  0  0  0  0
  190.5740  177.1550  139.5610 C   0  0  0  0  0  0  0  0  0  0  0  0
  188.9790  177.5080  148.2220 C   0  0  0  0  0  3  0  0  0  0  0  0
  188.5840  177.6590  144.0540 C   0  0  0  0  0  3  0  0  0  0  0  0
  189.9610  177.3390  146.0170 C   0  0  0  0  0  0  0  0  0  0  0  0
  187.5910  177.8300  146.2600 C   0  0  0  0  0  3  0  0  0  0  0  0
  190.0940  177.2880  147.4070 C   0  0  0  0  0  3  0  0  0  0  0  0
  190.9390  177.1720  143.8600 C   0  0  0  0  0  3  0  0  0  0  0  0
  188.7030  177.6120  145.4420 C   0  0  0  0  0  0  0  0  0  0  0  0
  187.7310  177.7780  147.6510 C   0  0  0  0  0  3  0  0  0  0  0  0
  189.7070  177.4390  143.2410 C   0  0  0  0  0  0  0  0  0  0  0  0
  191.0400  177.1280  145.2160 N   0  0  0  0  0  0  0  0  0  0  0  0
  192.6780  176.4330  138.1280 C   0  0  0  0  0  0  0  0  0  0  0  0
  191.7180  176.7610  138.7790 C   0  0  0  0  0  0  0  0  0  0  0  0
  193.8490  176.0340  137.3430 C   0  0  0  0  0  2  0  0  0  0  0  0
  194.5280  174.8650  137.9790 C   0  0  0  0  0  0  0  0  0  0  0  0
  195.3570  175.0390  138.8600 O   0  0  0  0  0  0  0  0  0  0  0  0
  194.1890  173.4810  137.5320 C   0  0  0  0  0  2  0  0  0  0  0  0
  192.2960  172.9670  136.0230 C   0  0  0  0  0  1  0  0  0  0  0  0
  193.7140  173.4930  136.0920 C   0  0  0  0  0  2  0  0  0  0  0  0
  1  4  1  0  0  0  0
  2 12  1  0  0  0  0
  2  5  2  0  0  0  0
  3  5  1  0  0  0  0
  4 21  1  0  0  0  0
  5  9  1  0  0  0  0
  6 11  2  0  0  0  0
  7  2  1  0  0  0  0
  8 10  2  0  0  0  0
  8  7  1  0  0  0  0
  9  4  2  0  0  0  0
 10 11  1  0  0  0  0
 11  3  1  0  0  0  0
 12  1  2  0  0  0  0
 14 19  1  0  0  0  0
 15 17  1  0  0  0  0
 16 20  2  0  0  0  0
 17 13  2  0  0  0  0
 18 22  2  0  0  0  0
 19 15  2  0  0  0  0
 19 16  1  0  0  0  0
 20 13  1  0  0  0  0
 21 18  1  0  0  0  0
 21 14  2  0  0  0  0
 22 15  1  0  0  0  0
 23 24  3  0  0  0  0
 24 12  1  0  0  0  0
 25 26  1  0  0  0  0
 25 23  1  0  0  0  0
 26 27  2  0  0  0  0
 28 26  1  0  0  0  0
 29 30  1  0  0  0  0
 30 28  1  0  0  0  0
M  END
>  <MODEL>
9

>  <REMARK>
 VINA RESULT:      -8.5      4.146      7.239
  Name = 
  6 active torsions:
  status: ('A' for Active; 'I' for Inactive)
    1  A    between atoms: C_2  and  C_27
    2  A    between atoms: C_2  and  C_28
    3  A    between atoms: C_9  and  C_18
    4  A    between atoms: C_9  and  C_27
    5  A    between atoms: C_10  and  C_21
    6  A    between atoms: C_20  and  C_29
                            x       y       z     vdW  Elec       q    Type
                         _______ _______ _______ _____ _____    ______ ____

>  <TORSDO>
F 6

$$$$
