=
 OpenBabel10222422013D

 44 46  0  0  1  0  0  0  0  0999 V2000
  185.6860  175.0510  136.7340 C   0  0  0  0  0  0  0  0  0  0  0  0
  186.4930  174.7200  135.6320 C   0  0  0  0  0  0  0  0  0  0  0  0
  187.1160  177.0590  137.1790 N   0  0  0  0  0  0  0  0  0  0  0  0
  185.3300  172.6950  135.3660 N   0  0  0  0  0  0  0  0  0  0  0  0
  183.4540  172.0120  136.8160 C   0  0  0  0  0  1  0  0  0  0  0  0
  187.6270  175.5990  135.2170 C   0  0  0  0  0  2  0  0  0  0  0  0
  187.4240  177.0220  135.7370 C   0  0  2  0  0  3  0  0  0  0  0  0
  188.6190  177.9000  135.3990 C   0  0  0  0  0  1  0  0  0  0  0  0
  185.8610  176.3510  137.4820 C   0  0  1  0  0  3  0  0  0  0  0  0
  184.6860  174.1600  137.1240 C   0  0  0  0  0  3  0  0  0  0  0  0
  184.5160  172.9710  136.4190 C   0  0  0  0  0  0  0  0  0  0  0  0
  186.2910  173.5400  134.9890 N   0  0  0  0  0  0  0  0  0  0  0  0
  184.6680  177.2780  137.2740 C   0  0  0  0  0  2  0  0  0  0  0  0
  183.8320  177.3460  138.5440 C   0  0  0  0  0  2  0  0  0  0  0  0
  185.1440  179.1150  139.8170 C   0  0  0  0  0  2  0  0  0  0  0  0
  182.7290  178.2370  141.0840 C   0  0  0  0  0  2  0  0  0  0  0  0
  185.1550  178.6180  141.2310 C   0  0  0  0  0  0  0  0  0  0  0  0
  186.2940  178.3000  141.7730 N   0  0  0  0  0  0  0  0  0  0  0  0
  183.8690  178.6580  142.0020 C   0  0  0  0  0  2  0  0  0  0  0  0
  182.6910  179.0480  139.9300 O   0  0  0  0  0  0  0  0  0  0  0  0
  183.8220  178.7660  139.1200 C   0  0  2  0  0  3  0  0  0  0  0  0
  186.5200  177.8520  143.1180 C   0  0  0  0  0  0  0  0  0  0  0  0
  187.1410  176.7840  143.3670 O   0  0  0  0  0  0  0  0  0  0  0  0
  186.0370  178.6940  144.2500 C   0  0  0  0  0  2  0  0  0  0  0  0
  187.2630  178.1140  146.2760 N   0  0  0  0  0  1  0  0  0  0  0  0
  186.0240  177.8990  145.5460 C   0  0  1  0  0  3  0  0  0  0  0  0
  184.8560  178.3530  146.3980 C   0  0  0  0  0  1  0  0  0  0  0  0
  188.1920  176.4740  137.9810 C   0  0  0  0  0  2  0  0  0  0  0  0
  188.3560  177.2230  139.1490 O   0  0  0  0  0  0  0  0  0  0  0  0
  189.6460  176.9310  139.5990 C   0  0  1  0  0  3  0  0  0  0  0  0
  190.6690  177.2780  138.5240 C   0  0  0  0  0  2  0  0  0  0  0  0
  191.9760  176.5350  138.7760 C   0  0  0  0  0  2  0  0  0  0  0  0
  192.3200  175.5270  137.6800 C   0  0  1  0  0  3  0  0  0  0  0  0
  191.6050  175.8330  136.3760 C   0  0  0  0  0  1  0  0  0  0  0  0
  193.7670  175.4240  137.4680 C   0  0  0  0  0  0  0  0  0  0  0  0
  194.9100  175.3420  137.2930 N   0  0  0  0  0  0  0  0  0  0  0  0
  189.9340  177.7080  140.8790 C   0  0  0  0  0  2  0  0  0  0  0  0
  190.2650  176.7980  141.9690 N   0  0  0  0  0  2  0  0  0  0  0  0
  190.9530  177.5680  142.9950 C   0  0  0  0  0  2  0  0  0  0  0  0
  190.6370  177.0320  144.3500 C   0  0  0  0  0  3  0  0  0  0  0  0
  191.5420  177.0000  145.2770 N   0  0  0  0  0  0  0  0  0  0  0  0
  192.3350  175.7390  147.3090 C   0  0  0  0  0  1  0  0  0  0  0  0
  191.2720  176.4800  146.5810 C   0  0  0  0  0  0  0  0  0  0  0  0
  190.1440  176.6360  147.1220 O   0  0  0  0  0  0  0  0  0  0  0  0
  1 10  1  0  0  0  0
  1  9  1  0  0  0  0
  2  1  2  0  0  0  0
  3  9  1  0  0  0  0
  3 28  1  0  0  0  0
  4 11  1  0  0  0  0
  6  2  1  0  0  0  0
  6  7  1  0  0  0  0
  7  8  1  1  0  0  0
  7  3  1  0  0  0  0
  9 13  1  6  0  0  0
 11  5  1  0  0  0  0
 11 10  2  0  0  0  0
 12  4  2  0  0  0  0
 12  2  1  0  0  0  0
 13 14  1  0  0  0  0
 15 17  1  0  0  0  0
 16 19  1  0  0  0  0
 17 18  2  0  0  0  0
 17 19  1  0  0  0  0
 18 22  1  0  0  0  0
 20 16  1  0  0  0  0
 21 14  1  1  0  0  0
 21 15  1  0  0  0  0
 21 20  1  0  0  0  0
 22 23  2  0  0  0  0
 22 24  1  0  0  0  0
 24 26  1  0  0  0  0
 26 25  1  0  0  0  0
 26 27  1  1  0  0  0
 28 29  1  0  0  0  0
 29 30  1  0  0  0  0
 30 31  1  6  0  0  0
 30 37  1  0  0  0  0
 31 32  1  0  0  0  0
 33 34  1  6  0  0  0
 33 32  1  0  0  0  0
 35 33  1  0  0  0  0
 36 35  3  0  0  0  0
 37 38  1  0  0  0  0
 38 39  1  0  0  0  0
 39 40  1  0  0  0  0
 40 41  2  0  0  0  0
 41 43  1  0  0  0  0
 43 44  2  0  0  0  0
 43 42  1  0  0  0  0
M  END
>  <MODEL>
1

>  <REMARK>
 VINA RESULT:      -6.3      0.000      0.000
  Name = 
  18 active torsions:
  status: ('A' for Active; 'I' for Inactive)
    1  A    between atoms: C_1  and  C_4
    2  A    between atoms: C_2  and  C_44
    3  A    between atoms: C_4  and  C_18
    4  A    between atoms: C_8  and  C_27
    5  A    between atoms: C_8  and  N_28
    6  A    between atoms: N_9  and  C_42
    7  A    between atoms: C_11  and  C_29
    8  A    between atoms: C_11  and  C_43
    9  A    between atoms: C_12  and  C_18
   10  A    between atoms: C_12  and  C_19
   11  A    between atoms: C_17  and  N_22
   12  A    between atoms: C_19  and  C_25
   13  A    between atoms: C_19  and  O_36
   14  A    between atoms: C_24  and  C_29
   15  A    between atoms: C_25  and  N_30
   16  A    between atoms: C_27  and  C_32
   17  A    between atoms: N_30  and  C_44
   18  A    between atoms: O_36  and  C_42
                            x       y       z     vdW  Elec       q    Type
                         _______ _______ _______ _____ _____    ______ ____

>  <TORSDO>
F 18

$$$$
=
 OpenBabel10222422013D

 44 46  0  0  1  0  0  0  0  0999 V2000
  189.9780  175.1430  136.5620 C   0  0  0  0  0  0  0  0  0  0  0  0
  190.3960  176.1430  135.6690 C   0  0  0  0  0  0  0  0  0  0  0  0
  188.0940  176.6080  137.3240 N   0  0  0  0  0  0  0  0  0  0  0  0
  192.3170  174.8950  135.1420 N   0  0  0  0  0  0  0  0  0  0  0  0
  192.8110  172.6900  136.1320 C   0  0  0  0  0  1  0  0  0  0  0  0
  189.6250  177.4150  135.5220 C   0  0  0  0  0  2  0  0  0  0  0  0
  188.1810  177.2260  135.9880 C   0  0  2  0  0  3  0  0  0  0  0  0
  187.4160  178.5390  135.9290 C   0  0  0  0  0  1  0  0  0  0  0  0
  188.6850  175.2590  137.3350 C   0  0  1  0  0  3  0  0  0  0  0  0
  190.7720  174.0060  136.7150 C   0  0  0  0  0  3  0  0  0  0  0  0
  191.9530  173.8950  135.9860 C   0  0  0  0  0  0  0  0  0  0  0  0
  191.5650  175.9870  134.9930 N   0  0  0  0  0  0  0  0  0  0  0  0
  187.6630  174.2300  136.8680 C   0  0  0  0  0  2  0  0  0  0  0  0
  186.2610  174.6690  137.2640 C   0  0  0  0  0  2  0  0  0  0  0  0
  184.7390  175.8670  135.6150 C   0  0  0  0  0  2  0  0  0  0  0  0
  183.4260  174.0250  137.3730 C   0  0  0  0  0  2  0  0  0  0  0  0
  183.5670  176.2980  136.4430 C   0  0  0  0  0  0  0  0  0  0  0  0
  183.3420  177.5710  136.5930 N   0  0  0  0  0  0  0  0  0  0  0  0
  182.6220  175.2410  136.9320 C   0  0  0  0  0  2  0  0  0  0  0  0
  184.2540  173.5670  136.3270 O   0  0  0  0  0  0  0  0  0  0  0  0
  185.2840  174.5140  136.0930 C   0  0  2  0  0  3  0  0  0  0  0  0
  182.2540  178.1820  137.3030 C   0  0  0  0  0  0  0  0  0  0  0  0
  181.0540  178.0060  136.9570 O   0  0  0  0  0  0  0  0  0  0  0  0
  182.5520  179.0180  138.5010 C   0  0  0  0  0  2  0  0  0  0  0  0
  184.6310  179.6780  139.5880 N   0  0  0  0  0  1  0  0  0  0  0  0
  183.8190  178.5390  139.1920 C   0  0  1  0  0  3  0  0  0  0  0  0
  183.4440  177.7410  140.4240 C   0  0  0  0  0  1  0  0  0  0  0  0
  188.7560  177.4210  138.3450 C   0  0  0  0  0  2  0  0  0  0  0  0
  187.9350  177.5050  139.4720 O   0  0  0  0  0  0  0  0  0  0  0  0
  188.7700  177.9280  140.5100 C   0  0  1  0  0  3  0  0  0  0  0  0
  188.1370  177.6060  141.8580 C   0  0  0  0  0  2  0  0  0  0  0  0
  186.8700  178.4300  142.0580 C   0  0  0  0  0  2  0  0  0  0  0  0
  185.9940  177.9230  143.2030 C   0  0  1  0  0  3  0  0  0  0  0  0
  186.8180  177.4550  144.3900 C   0  0  0  0  0  1  0  0  0  0  0  0
  185.0050  178.9230  143.6190 C   0  0  0  0  0  0  0  0  0  0  0  0
  184.2280  179.7180  143.9450 N   0  0  0  0  0  0  0  0  0  0  0  0
  190.1300  177.2510  140.3850 C   0  0  0  0  0  2  0  0  0  0  0  0
  190.5290  176.6600  141.6570 N   0  0  0  0  0  2  0  0  0  0  0  0
  191.7110  177.3700  142.1240 C   0  0  0  0  0  2  0  0  0  0  0  0
  191.6820  177.5120  143.6080 C   0  0  0  0  0  3  0  0  0  0  0  0
  190.7940  176.8870  144.3160 N   0  0  0  0  0  0  0  0  0  0  0  0
  191.7490  176.3270  146.5790 C   0  0  0  0  0  1  0  0  0  0  0  0
  190.7340  177.0140  145.7380 C   0  0  0  0  0  0  0  0  0  0  0  0
  189.8290  177.6960  146.2920 O   0  0  0  0  0  0  0  0  0  0  0  0
  1 10  1  0  0  0  0
  1  9  1  0  0  0  0
  2  1  2  0  0  0  0
  3  9  1  0  0  0  0
  3 28  1  0  0  0  0
  4 11  1  0  0  0  0
  6  2  1  0  0  0  0
  6  7  1  0  0  0  0
  7  8  1  1  0  0  0
  7  3  1  0  0  0  0
  9 13  1  6  0  0  0
 11  5  1  0  0  0  0
 11 10  2  0  0  0  0
 12  4  2  0  0  0  0
 12  2  1  0  0  0  0
 13 14  1  0  0  0  0
 15 21  1  0  0  0  0
 15 17  1  0  0  0  0
 17 18  2  0  0  0  0
 17 19  1  0  0  0  0
 18 22  1  0  0  0  0
 19 16  1  0  0  0  0
 20 16  1  0  0  0  0
 21 20  1  0  0  0  0
 21 14  1  1  0  0  0
 22 24  1  0  0  0  0
 23 22  2  0  0  0  0
 24 26  1  0  0  0  0
 26 25  1  0  0  0  0
 26 27  1  1  0  0  0
 28 29  1  0  0  0  0
 29 30  1  0  0  0  0
 30 37  1  6  0  0  0
 30 31  1  0  0  0  0
 31 32  1  0  0  0  0
 32 33  1  0  0  0  0
 33 35  1  0  0  0  0
 33 34  1  1  0  0  0
 35 36  3  0  0  0  0
 37 38  1  0  0  0  0
 38 39  1  0  0  0  0
 39 40  1  0  0  0  0
 40 41  2  0  0  0  0
 41 43  1  0  0  0  0
 43 44  2  0  0  0  0
 43 42  1  0  0  0  0
M  END
>  <MODEL>
2

>  <REMARK>
 VINA RESULT:      -6.3      2.118      5.755
  Name = 
  18 active torsions:
  status: ('A' for Active; 'I' for Inactive)
    1  A    between atoms: C_1  and  C_4
    2  A    between atoms: C_2  and  C_44
    3  A    between atoms: C_4  and  C_18
    4  A    between atoms: C_8  and  C_27
    5  A    between atoms: C_8  and  N_28
    6  A    between atoms: N_9  and  C_42
    7  A    between atoms: C_11  and  C_29
    8  A    between atoms: C_11  and  C_43
    9  A    between atoms: C_12  and  C_18
   10  A    between atoms: C_12  and  C_19
   11  A    between atoms: C_17  and  N_22
   12  A    between atoms: C_19  and  C_25
   13  A    between atoms: C_19  and  O_36
   14  A    between atoms: C_24  and  C_29
   15  A    between atoms: C_25  and  N_30
   16  A    between atoms: C_27  and  C_32
   17  A    between atoms: N_30  and  C_44
   18  A    between atoms: O_36  and  C_42
                            x       y       z     vdW  Elec       q    Type
                         _______ _______ _______ _____ _____    ______ ____

>  <TORSDO>
F 18

$$$$
=
 OpenBabel10222422013D

 44 46  0  0  1  0  0  0  0  0999 V2000
  187.4600  177.9020  138.9800 C   0  0  0  0  0  0  0  0  0  0  0  0
  186.8270  178.4190  137.8370 C   0  0  0  0  0  0  0  0  0  0  0  0
  189.1380  176.7420  137.5250 N   0  0  0  0  0  0  0  0  0  0  0  0
  185.0940  179.2870  139.1690 N   0  0  0  0  0  0  0  0  0  0  0  0
  185.0280  179.0510  141.6240 C   0  0  0  0  0  1  0  0  0  0  0  0
  187.3740  178.1620  136.4710 C   0  0  0  0  0  2  0  0  0  0  0  0
  188.8590  177.8070  136.5440 C   0  0  2  0  0  3  0  0  0  0  0  0
  189.4000  177.4530  135.1670 C   0  0  0  0  0  1  0  0  0  0  0  0
  188.7700  177.1550  138.8900 C   0  0  1  0  0  3  0  0  0  0  0  0
  186.8690  178.1100  140.2260 C   0  0  0  0  0  3  0  0  0  0  0  0
  185.6710  178.8150  140.3050 C   0  0  0  0  0  0  0  0  0  0  0  0
  185.6520  179.0890  137.9730 N   0  0  0  0  0  0  0  0  0  0  0  0
  189.9060  177.9460  139.5280 C   0  0  0  0  0  2  0  0  0  0  0  0
  189.6950  178.0450  141.0310 C   0  0  0  0  0  2  0  0  0  0  0  0
  189.3290  176.1630  142.7020 C   0  0  0  0  0  2  0  0  0  0  0  0
  191.3400  178.0680  143.4310 C   0  0  0  0  0  2  0  0  0  0  0  0
  189.2870  176.8530  144.0310 C   0  0  0  0  0  0  0  0  0  0  0  0
  188.1830  176.8180  144.7200 N   0  0  0  0  0  0  0  0  0  0  0  0
  190.5660  177.4210  144.5720 C   0  0  0  0  0  2  0  0  0  0  0  0
  191.5580  177.1440  142.3870 O   0  0  0  0  0  0  0  0  0  0  0  0
  190.3220  176.8480  141.7550 C   0  0  2  0  0  3  0  0  0  0  0  0
  187.9560  177.3740  146.0240 C   0  0  0  0  0  0  0  0  0  0  0  0
  188.5100  176.9000  147.0530 O   0  0  0  0  0  0  0  0  0  0  0  0
  187.0690  178.5640  146.1580 C   0  0  0  0  0  2  0  0  0  0  0  0
  184.9070  178.4740  147.2810 N   0  0  0  0  0  1  0  0  0  0  0  0
  185.6060  178.1630  146.0450 C   0  0  1  0  0  3  0  0  0  0  0  0
  184.9670  178.9280  144.9040 C   0  0  0  0  0  1  0  0  0  0  0  0
  188.4300  175.5030  137.2010 C   0  0  0  0  0  2  0  0  0  0  0  0
  189.0670  174.4300  137.8300 O   0  0  0  0  0  0  0  0  0  0  0  0
  189.4790  173.5840  136.7960 C   0  0  1  0  0  3  0  0  0  0  0  0
  188.6960  173.8900  135.5250 C   0  0  0  0  0  2  0  0  0  0  0  0
  188.2460  172.5960  134.8560 C   0  0  0  0  0  2  0  0  0  0  0  0
  187.5140  171.6470  135.8040 C   0  0  1  0  0  3  0  0  0  0  0  0
  186.1180  172.1400  136.1430 C   0  0  0  0  0  1  0  0  0  0  0  0
  187.4680  170.2780  135.2800 C   0  0  0  0  0  0  0  0  0  0  0  0
  187.4280  169.1950  134.8690 N   0  0  0  0  0  0  0  0  0  0  0  0
  190.9740  173.7550  136.5550 C   0  0  0  0  0  2  0  0  0  0  0  0
  191.6300  174.2770  137.7470 N   0  0  0  0  0  2  0  0  0  0  0  0
  192.7840  175.0520  137.3140 C   0  0  0  0  0  2  0  0  0  0  0  0
  194.0450  174.4430  137.8280 C   0  0  0  0  0  3  0  0  0  0  0  0
  195.1950  174.9700  137.5520 N   0  0  0  0  0  0  0  0  0  0  0  0
  196.7940  174.5400  139.4520 C   0  0  0  0  0  1  0  0  0  0  0  0
  196.4210  174.4010  138.0200 C   0  0  0  0  0  0  0  0  0  0  0  0
  197.1930  173.7870  137.2350 O   0  0  0  0  0  0  0  0  0  0  0  0
  1 10  1  0  0  0  0
  2 12  1  0  0  0  0
  2  1  2  0  0  0  0
  3  9  1  0  0  0  0
  4 11  1  0  0  0  0
  6  7  1  0  0  0  0
  6  2  1  0  0  0  0
  7  8  1  6  0  0  0
  7  3  1  0  0  0  0
  9  1  1  0  0  0  0
  9 13  1  6  0  0  0
 10 11  2  0  0  0  0
 11  5  1  0  0  0  0
 12  4  2  0  0  0  0
 13 14  1  0  0  0  0
 15 17  1  0  0  0  0
 16 19  1  0  0  0  0
 17 19  1  0  0  0  0
 17 18  2  0  0  0  0
 18 22  1  0  0  0  0
 20 16  1  0  0  0  0
 21 14  1  1  0  0  0
 21 20  1  0  0  0  0
 21 15  1  0  0  0  0
 22 24  1  0  0  0  0
 22 23  2  0  0  0  0
 26 27  1  6  0  0  0
 26 24  1  0  0  0  0
 26 25  1  0  0  0  0
 28  3  1  0  0  0  0
 28 29  1  0  0  0  0
 30 31  1  6  0  0  0
 30 29  1  0  0  0  0
 32 31  1  0  0  0  0
 32 33  1  0  0  0  0
 33 34  1  6  0  0  0
 35 33  1  0  0  0  0
 36 35  3  0  0  0  0
 37 30  1  0  0  0  0
 37 38  1  0  0  0  0
 39 38  1  0  0  0  0
 39 40  1  0  0  0  0
 41 40  2  0  0  0  0
 41 43  1  0  0  0  0
 43 42  1  0  0  0  0
 44 43  2  0  0  0  0
M  END
>  <MODEL>
3

>  <REMARK>
 VINA RESULT:      -5.9      2.654      6.256
  Name = 
  18 active torsions:
  status: ('A' for Active; 'I' for Inactive)
    1  A    between atoms: C_1  and  C_4
    2  A    between atoms: C_2  and  C_44
    3  A    between atoms: C_4  and  C_18
    4  A    between atoms: C_8  and  C_27
    5  A    between atoms: C_8  and  N_28
    6  A    between atoms: N_9  and  C_42
    7  A    between atoms: C_11  and  C_29
    8  A    between atoms: C_11  and  C_43
    9  A    between atoms: C_12  and  C_18
   10  A    between atoms: C_12  and  C_19
   11  A    between atoms: C_17  and  N_22
   12  A    between atoms: C_19  and  C_25
   13  A    between atoms: C_19  and  O_36
   14  A    between atoms: C_24  and  C_29
   15  A    between atoms: C_25  and  N_30
   16  A    between atoms: C_27  and  C_32
   17  A    between atoms: N_30  and  C_44
   18  A    between atoms: O_36  and  C_42
                            x       y       z     vdW  Elec       q    Type
                         _______ _______ _______ _____ _____    ______ ____

>  <TORSDO>
F 18

$$$$
=
 OpenBabel10222422013D

 44 46  0  0  1  0  0  0  0  0999 V2000
  185.5220  174.9400  136.7090 C   0  0  0  0  0  0  0  0  0  0  0  0
  186.5490  174.5460  135.8350 C   0  0  0  0  0  0  0  0  0  0  0  0
  186.5780  177.2000  136.9330 N   0  0  0  0  0  0  0  0  0  0  0  0
  185.7240  172.3450  135.8290 N   0  0  0  0  0  0  0  0  0  0  0  0
  183.7230  171.6470  137.0920 C   0  0  0  0  0  1  0  0  0  0  0  0
  187.6160  175.5060  135.4200 C   0  0  0  0  0  2  0  0  0  0  0  0
  187.1410  176.9480  135.5940 C   0  0  2  0  0  3  0  0  0  0  0  0
  188.2540  177.9300  135.2620 C   0  0  0  0  0  1  0  0  0  0  0  0
  185.3900  176.3670  137.1860 C   0  0  1  0  0  3  0  0  0  0  0  0
  184.5920  173.9860  137.1230 C   0  0  0  0  0  3  0  0  0  0  0  0
  184.7060  172.6760  136.6660 C   0  0  0  0  0  0  0  0  0  0  0  0
  186.6200  173.2500  135.4310 N   0  0  0  0  0  0  0  0  0  0  0  0
  184.1450  177.0320  136.6120 C   0  0  0  0  0  2  0  0  0  0  0  0
  182.9630  176.8250  137.5480 C   0  0  0  0  0  2  0  0  0  0  0  0
  183.3380  179.1860  138.4160 C   0  0  0  0  0  2  0  0  0  0  0  0
  181.6390  177.5450  140.0370 C   0  0  0  0  0  2  0  0  0  0  0  0
  183.6150  179.0020  139.8770 C   0  0  0  0  0  0  0  0  0  0  0  0
  184.7860  179.3330  140.3380 N   0  0  0  0  0  0  0  0  0  0  0  0
  182.4780  178.5880  140.7640 C   0  0  0  0  0  2  0  0  0  0  0  0
  181.2000  178.0380  138.7900 O   0  0  0  0  0  0  0  0  0  0  0  0
  182.3110  178.1620  137.9150 C   0  0  2  0  0  3  0  0  0  0  0  0
  185.2290  179.2770  141.7020 C   0  0  0  0  0  0  0  0  0  0  0  0
  186.1180  180.0540  142.1440 O   0  0  0  0  0  0  0  0  0  0  0  0
  184.5940  178.2960  142.6290 C   0  0  0  0  0  2  0  0  0  0  0  0
  183.0330  178.6760  144.4620 N   0  0  0  0  0  1  0  0  0  0  0  0
  184.3940  178.9060  144.0070 C   0  0  1  0  0  3  0  0  0  0  0  0
  185.3610  178.2650  144.9810 C   0  0  0  0  0  1  0  0  0  0  0  0
  187.5580  176.9570  137.9910 C   0  0  0  0  0  2  0  0  0  0  0  0
  187.6320  178.0800  138.8190 O   0  0  0  0  0  0  0  0  0  0  0  0
  188.9280  178.0720  139.3420 C   0  0  1  0  0  3  0  0  0  0  0  0
  188.9580  177.3100  140.6610 C   0  0  0  0  0  2  0  0  0  0  0  0
  189.0620  178.2810  141.8320 C   0  0  0  0  0  2  0  0  0  0  0  0
  188.5530  177.6960  143.1500 C   0  0  1  0  0  3  0  0  0  0  0  0
  188.2570  176.2110  143.0390 C   0  0  0  0  0  1  0  0  0  0  0  0
  189.4780  177.9600  144.2570 C   0  0  0  0  0  0  0  0  0  0  0  0
  190.2090  178.1620  145.1320 N   0  0  0  0  0  0  0  0  0  0  0  0
  189.8850  177.4380  138.3390 C   0  0  0  0  0  2  0  0  0  0  0  0
  190.7740  176.4930  139.0030 N   0  0  0  0  0  2  0  0  0  0  0  0
  191.2480  175.5510  138.0000 C   0  0  0  0  0  2  0  0  0  0  0  0
  192.7360  175.4530  138.0380 C   0  0  0  0  0  3  0  0  0  0  0  0
  193.3330  174.3370  137.7610 N   0  0  0  0  0  0  0  0  0  0  0  0
  195.3660  172.9720  138.3550 C   0  0  0  0  0  1  0  0  0  0  0  0
  194.7560  174.2100  137.8020 C   0  0  0  0  0  0  0  0  0  0  0  0
  195.5040  175.1330  137.3810 O   0  0  0  0  0  0  0  0  0  0  0  0
  1 10  1  0  0  0  0
  1  9  1  0  0  0  0
  2  1  2  0  0  0  0
  3  9  1  0  0  0  0
  3 28  1  0  0  0  0
  4 11  1  0  0  0  0
  6  7  1  0  0  0  0
  6  2  1  0  0  0  0
  7  8  1  1  0  0  0
  7  3  1  0  0  0  0
  9 13  1  6  0  0  0
 11  5  1  0  0  0  0
 11 10  2  0  0  0  0
 12  4  2  0  0  0  0
 12  2  1  0  0  0  0
 13 14  1  0  0  0  0
 15 17  1  0  0  0  0
 16 19  1  0  0  0  0
 17 18  2  0  0  0  0
 17 19  1  0  0  0  0
 18 22  1  0  0  0  0
 20 16  1  0  0  0  0
 21 14  1  1  0  0  0
 21 15  1  0  0  0  0
 21 20  1  0  0  0  0
 22 23  2  0  0  0  0
 22 24  1  0  0  0  0
 24 26  1  0  0  0  0
 26 25  1  0  0  0  0
 26 27  1  1  0  0  0
 28 29  1  0  0  0  0
 29 30  1  0  0  0  0
 30 37  1  6  0  0  0
 30 31  1  0  0  0  0
 31 32  1  0  0  0  0
 32 33  1  0  0  0  0
 33 34  1  6  0  0  0
 33 35  1  0  0  0  0
 35 36  3  0  0  0  0
 37 38  1  0  0  0  0
 39 40  1  0  0  0  0
 39 38  1  0  0  0  0
 41 43  1  0  0  0  0
 41 40  2  0  0  0  0
 43 42  1  0  0  0  0
 44 43  2  0  0  0  0
M  END
>  <MODEL>
4

>  <REMARK>
 VINA RESULT:      -5.9      1.978      4.430
  Name = 
  18 active torsions:
  status: ('A' for Active; 'I' for Inactive)
    1  A    between atoms: C_1  and  C_4
    2  A    between atoms: C_2  and  C_44
    3  A    between atoms: C_4  and  C_18
    4  A    between atoms: C_8  and  C_27
    5  A    between atoms: C_8  and  N_28
    6  A    between atoms: N_9  and  C_42
    7  A    between atoms: C_11  and  C_29
    8  A    between atoms: C_11  and  C_43
    9  A    between atoms: C_12  and  C_18
   10  A    between atoms: C_12  and  C_19
   11  A    between atoms: C_17  and  N_22
   12  A    between atoms: C_19  and  C_25
   13  A    between atoms: C_19  and  O_36
   14  A    between atoms: C_24  and  C_29
   15  A    between atoms: C_25  and  N_30
   16  A    between atoms: C_27  and  C_32
   17  A    between atoms: N_30  and  C_44
   18  A    between atoms: O_36  and  C_42
                            x       y       z     vdW  Elec       q    Type
                         _______ _______ _______ _____ _____    ______ ____

>  <TORSDO>
F 18

$$$$
=
 OpenBabel10222422013D

 44 46  0  0  1  0  0  0  0  0999 V2000
  190.3250  175.0790  136.7720 C   0  0  0  0  0  0  0  0  0  0  0  0
  190.7530  176.1350  135.9520 C   0  0  0  0  0  0  0  0  0  0  0  0
  188.4150  176.4820  137.5830 N   0  0  0  0  0  0  0  0  0  0  0  0
  192.6940  174.9350  135.3890 N   0  0  0  0  0  0  0  0  0  0  0  0
  193.1850  172.6760  136.2510 C   0  0  0  0  0  1  0  0  0  0  0  0
  189.9760  177.4090  135.8670 C   0  0  0  0  0  2  0  0  0  0  0  0
  188.5240  177.1820  136.2900 C   0  0  2  0  0  3  0  0  0  0  0  0
  187.7500  178.4910  136.2960 C   0  0  0  0  0  1  0  0  0  0  0  0
  189.0160  175.1390  137.5230 C   0  0  1  0  0  3  0  0  0  0  0  0
  191.1250  173.9400  136.8720 C   0  0  0  0  0  3  0  0  0  0  0  0
  192.3220  173.8820  136.1630 C   0  0  0  0  0  0  0  0  0  0  0  0
  191.9370  176.0290  135.2920 N   0  0  0  0  0  0  0  0  0  0  0  0
  188.0110  174.1340  136.9720 C   0  0  0  0  0  2  0  0  0  0  0  0
  186.5920  174.6210  137.2240 C   0  0  0  0  0  2  0  0  0  0  0  0
  185.1580  175.8990  135.5570 C   0  0  0  0  0  2  0  0  0  0  0  0
  183.8110  173.8050  136.9750 C   0  0  0  0  0  2  0  0  0  0  0  0
  183.8850  176.1700  136.2980 C   0  0  0  0  0  0  0  0  0  0  0  0
  183.5590  177.4040  136.5520 N   0  0  0  0  0  0  0  0  0  0  0  0
  182.9710  175.0130  136.5780 C   0  0  0  0  0  2  0  0  0  0  0  0
  184.7660  173.5110  135.9780 O   0  0  0  0  0  0  0  0  0  0  0  0
  185.7460  174.5370  135.9490 C   0  0  2  0  0  3  0  0  0  0  0  0
  182.3680  177.8710  137.2040 C   0  0  0  0  0  0  0  0  0  0  0  0
  181.2370  177.3740  136.9530 O   0  0  0  0  0  0  0  0  0  0  0  0
  182.4800  178.9470  138.2300 C   0  0  0  0  0  2  0  0  0  0  0  0
  184.4580  179.8980  139.2910 N   0  0  0  0  0  1  0  0  0  0  0  0
  183.6590  178.6910  139.1550 C   0  0  1  0  0  3  0  0  0  0  0  0
  183.1430  178.2770  140.5180 C   0  0  0  0  0  1  0  0  0  0  0  0
  189.0490  177.2340  138.6660 C   0  0  0  0  0  2  0  0  0  0  0  0
  189.2480  176.3890  139.7610 O   0  0  0  0  0  0  0  0  0  0  0  0
  189.1200  177.2050  140.8880 C   0  0  1  0  0  3  0  0  0  0  0  0
  190.4920  177.4980  141.4830 C   0  0  0  0  0  2  0  0  0  0  0  0
  190.6140  176.8720  142.8680 C   0  0  0  0  0  2  0  0  0  0  0  0
  191.5470  177.6450  143.8000 C   0  0  1  0  0  3  0  0  0  0  0  0
  191.2030  179.1240  143.8560 C   0  0  0  0  0  1  0  0  0  0  0  0
  191.5750  177.0670  145.1470 C   0  0  0  0  0  0  0  0  0  0  0  0
  191.5910  176.6130  146.2130 N   0  0  0  0  0  0  0  0  0  0  0  0
  188.4160  178.5020  140.5090 C   0  0  0  0  0  2  0  0  0  0  0  0
  187.0310  178.4870  140.9660 N   0  0  0  0  0  2  0  0  0  0  0  0
  187.0260  178.0330  142.3490 C   0  0  0  0  0  2  0  0  0  0  0  0
  185.8120  178.5310  143.0580 C   0  0  0  0  0  3  0  0  0  0  0  0
  185.5950  178.2200  144.2960 N   0  0  0  0  0  0  0  0  0  0  0  0
  183.1610  178.8690  144.2570 C   0  0  0  0  0  1  0  0  0  0  0  0
  184.4340  178.6720  144.9980 C   0  0  0  0  0  0  0  0  0  0  0  0
  184.4750  178.9110  146.2350 O   0  0  0  0  0  0  0  0  0  0  0  0
  1 10  1  0  0  0  0
  1  9  1  0  0  0  0
  2  1  2  0  0  0  0
  3 28  1  0  0  0  0
  4 11  1  0  0  0  0
  6  2  1  0  0  0  0
  6  7  1  0  0  0  0
  7  8  1  1  0  0  0
  7  3  1  0  0  0  0
  9 13  1  6  0  0  0
  9  3  1  0  0  0  0
 11  5  1  0  0  0  0
 11 10  2  0  0  0  0
 12  4  2  0  0  0  0
 12  2  1  0  0  0  0
 13 14  1  0  0  0  0
 15 21  1  0  0  0  0
 15 17  1  0  0  0  0
 17 18  2  0  0  0  0
 17 19  1  0  0  0  0
 18 22  1  0  0  0  0
 19 16  1  0  0  0  0
 20 16  1  0  0  0  0
 21 20  1  0  0  0  0
 21 14  1  1  0  0  0
 22 24  1  0  0  0  0
 23 22  2  0  0  0  0
 24 26  1  0  0  0  0
 26 25  1  0  0  0  0
 26 27  1  1  0  0  0
 28 29  1  0  0  0  0
 29 30  1  0  0  0  0
 30 37  1  6  0  0  0
 30 31  1  0  0  0  0
 31 32  1  0  0  0  0
 32 33  1  0  0  0  0
 33 34  1  1  0  0  0
 33 35  1  0  0  0  0
 35 36  3  0  0  0  0
 37 38  1  0  0  0  0
 38 39  1  0  0  0  0
 39 40  1  0  0  0  0
 40 41  2  0  0  0  0
 41 43  1  0  0  0  0
 42 43  1  0  0  0  0
 43 44  2  0  0  0  0
M  END
>  <MODEL>
5

>  <REMARK>
 VINA RESULT:      -5.9      2.297      5.990
  Name = 
  18 active torsions:
  status: ('A' for Active; 'I' for Inactive)
    1  A    between atoms: C_1  and  C_4
    2  A    between atoms: C_2  and  C_44
    3  A    between atoms: C_4  and  C_18
    4  A    between atoms: C_8  and  C_27
    5  A    between atoms: C_8  and  N_28
    6  A    between atoms: N_9  and  C_42
    7  A    between atoms: C_11  and  C_29
    8  A    between atoms: C_11  and  C_43
    9  A    between atoms: C_12  and  C_18
   10  A    between atoms: C_12  and  C_19
   11  A    between atoms: C_17  and  N_22
   12  A    between atoms: C_19  and  C_25
   13  A    between atoms: C_19  and  O_36
   14  A    between atoms: C_24  and  C_29
   15  A    between atoms: C_25  and  N_30
   16  A    between atoms: C_27  and  C_32
   17  A    between atoms: N_30  and  C_44
   18  A    between atoms: O_36  and  C_42
                            x       y       z     vdW  Elec       q    Type
                         _______ _______ _______ _____ _____    ______ ____

>  <TORSDO>
F 18

$$$$
=
 OpenBabel10222422013D

 44 46  0  0  1  0  0  0  0  0999 V2000
  188.7370  177.6550  145.6080 C   0  0  0  0  0  0  0  0  0  0  0  0
  189.6990  177.2160  146.5330 C   0  0  0  0  0  0  0  0  0  0  0  0
  190.1770  176.8480  143.7240 N   0  0  0  0  0  0  0  0  0  0  0  0
  188.4900  178.2070  148.2880 N   0  0  0  0  0  0  0  0  0  0  0  0
  186.3620  179.4100  147.9550 C   0  0  0  0  0  1  0  0  0  0  0  0
  190.9340  176.5060  146.0800 C   0  0  0  0  0  2  0  0  0  0  0  0
  190.7220  175.8850  144.6990 C   0  0  2  0  0  3  0  0  0  0  0  0
  192.0030  175.2410  144.1920 C   0  0  0  0  0  1  0  0  0  0  0  0
  188.8520  177.3420  144.1350 C   0  0  1  0  0  3  0  0  0  0  0  0
  187.6380  178.3770  146.0760 C   0  0  0  0  0  3  0  0  0  0  0  0
  187.5270  178.6460  147.4370 C   0  0  0  0  0  0  0  0  0  0  0  0
  189.5460  177.5190  147.8490 N   0  0  0  0  0  0  0  0  0  0  0  0
  187.7640  176.3750  143.6840 C   0  0  0  0  0  2  0  0  0  0  0  0
  187.0940  176.8940  142.4200 C   0  0  0  0  0  2  0  0  0  0  0  0
  185.2760  178.6000  142.9220 C   0  0  0  0  0  2  0  0  0  0  0  0
  186.4160  178.7650  140.2990 C   0  0  0  0  0  2  0  0  0  0  0  0
  184.4040  178.5780  141.7030 C   0  0  0  0  0  0  0  0  0  0  0  0
  183.1720  178.1790  141.8230 N   0  0  0  0  0  0  0  0  0  0  0  0
  184.9520  179.1620  140.4340 C   0  0  0  0  0  2  0  0  0  0  0  0
  187.1490  179.1630  141.4370 O   0  0  0  0  0  0  0  0  0  0  0  0
  186.7490  178.3810  142.5510 C   0  0  2  0  0  3  0  0  0  0  0  0
  182.1720  178.1300  140.7940 C   0  0  0  0  0  0  0  0  0  0  0  0
  181.4160  179.1100  140.5560 O   0  0  0  0  0  0  0  0  0  0  0  0
  182.0510  176.8980  139.9620 C   0  0  0  0  0  2  0  0  0  0  0  0
  183.7120  176.5970  138.2040 N   0  0  0  0  0  1  0  0  0  0  0  0
  182.4190  177.1850  138.5150 C   0  0  1  0  0  3  0  0  0  0  0  0
  181.3660  176.5870  137.6040 C   0  0  0  0  0  1  0  0  0  0  0  0
  191.0680  177.9930  143.5320 C   0  0  0  0  0  2  0  0  0  0  0  0
  190.9840  178.4260  142.2060 O   0  0  0  0  0  0  0  0  0  0  0  0
  191.3610  177.3250  141.4320 C   0  0  1  0  0  3  0  0  0  0  0  0
  190.1630  176.7980  140.6510 C   0  0  0  0  0  2  0  0  0  0  0  0
  189.8130  177.7480  139.5110 C   0  0  0  0  0  2  0  0  0  0  0  0
  189.0660  177.0670  138.3650 C   0  0  1  0  0  3  0  0  0  0  0  0
  188.9160  177.9780  137.1590 C   0  0  0  0  0  1  0  0  0  0  0  0
  189.6920  175.7980  137.9810 C   0  0  0  0  0  0  0  0  0  0  0  0
  190.1820  174.7930  137.6770 N   0  0  0  0  0  0  0  0  0  0  0  0
  192.4830  177.7240  140.4800 C   0  0  0  0  0  2  0  0  0  0  0  0
  193.1260  176.5420  139.9190 N   0  0  0  0  0  2  0  0  0  0  0  0
  193.1580  176.7000  138.4720 C   0  0  0  0  0  2  0  0  0  0  0  0
  193.7980  175.5150  137.8320 C   0  0  0  0  0  3  0  0  0  0  0  0
  194.9930  175.1460  138.1690 N   0  0  0  0  0  0  0  0  0  0  0  0
  195.4080  172.6610  138.1130 C   0  0  0  0  0  1  0  0  0  0  0  0
  195.6380  174.0230  137.5630 C   0  0  0  0  0  0  0  0  0  0  0  0
  196.4020  174.1700  136.5710 O   0  0  0  0  0  0  0  0  0  0  0  0
  1 10  2  0  0  0  0
  1  2  1  0  0  0  0
  2 12  2  0  0  0  0
  3  9  1  0  0  0  0
  3  7  1  0  0  0  0
  6  2  1  0  0  0  0
  7  8  1  6  0  0  0
  7  6  1  0  0  0  0
  9 13  1  1  0  0  0
  9  1  1  0  0  0  0
 10 11  1  0  0  0  0
 11  5  1  0  0  0  0
 11  4  2  0  0  0  0
 12  4  1  0  0  0  0
 14 13  1  0  0  0  0
 16 19  1  0  0  0  0
 16 20  1  0  0  0  0
 17 18  2  0  0  0  0
 17 15  1  0  0  0  0
 19 17  1  0  0  0  0
 20 21  1  0  0  0  0
 21 14  1  6  0  0  0
 21 15  1  0  0  0  0
 22 18  1  0  0  0  0
 23 22  2  0  0  0  0
 24 22  1  0  0  0  0
 25 26  1  0  0  0  0
 26 27  1  6  0  0  0
 26 24  1  0  0  0  0
 28  3  1  0  0  0  0
 29 28  1  0  0  0  0
 30 37  1  6  0  0  0
 30 29  1  0  0  0  0
 31 30  1  0  0  0  0
 32 31  1  0  0  0  0
 33 34  1  6  0  0  0
 33 32  1  0  0  0  0
 35 33  1  0  0  0  0
 36 35  3  0  0  0  0
 38 37  1  0  0  0  0
 39 38  1  0  0  0  0
 40 41  2  0  0  0  0
 40 39  1  0  0  0  0
 43 42  1  0  0  0  0
 43 41  1  0  0  0  0
 44 43  2  0  0  0  0
M  END
>  <MODEL>
6

>  <REMARK>
 VINA RESULT:      -5.5      2.679      7.816
  Name = 
  18 active torsions:
  status: ('A' for Active; 'I' for Inactive)
    1  A    between atoms: C_1  and  C_4
    2  A    between atoms: C_2  and  C_44
    3  A    between atoms: C_4  and  C_18
    4  A    between atoms: C_8  and  C_27
    5  A    between atoms: C_8  and  N_28
    6  A    between atoms: N_9  and  C_42
    7  A    between atoms: C_11  and  C_29
    8  A    between atoms: C_11  and  C_43
    9  A    between atoms: C_12  and  C_18
   10  A    between atoms: C_12  and  C_19
   11  A    between atoms: C_17  and  N_22
   12  A    between atoms: C_19  and  C_25
   13  A    between atoms: C_19  and  O_36
   14  A    between atoms: C_24  and  C_29
   15  A    between atoms: C_25  and  N_30
   16  A    between atoms: C_27  and  C_32
   17  A    between atoms: N_30  and  C_44
   18  A    between atoms: O_36  and  C_42
                            x       y       z     vdW  Elec       q    Type
                         _______ _______ _______ _____ _____    ______ ____

>  <TORSDO>
F 18

$$$$
=
 OpenBabel10222422013D

 44 46  0  0  1  0  0  0  0  0999 V2000
  181.3240  178.8200  138.5930 C   0  0  0  0  0  0  0  0  0  0  0  0
  180.6140  179.8440  139.2420 C   0  0  0  0  0  0  0  0  0  0  0  0
  182.2020  178.0280  140.8020 N   0  0  0  0  0  0  0  0  0  0  0  0
  180.0030  180.7600  137.1660 N   0  0  0  0  0  0  0  0  0  0  0  0
  180.6720  179.7770  135.0040 C   0  0  0  0  0  1  0  0  0  0  0  0
  180.6230  179.9620  140.7320 C   0  0  0  0  0  2  0  0  0  0  0  0
  180.9810  178.6220  141.3760 C   0  0  2  0  0  3  0  0  0  0  0  0
  181.0830  178.7570  142.8870 C   0  0  0  0  0  1  0  0  0  0  0  0
  182.0390  177.7370  139.3670 C   0  0  1  0  0  3  0  0  0  0  0  0
  181.3440  178.7970  137.1980 C   0  0  0  0  0  3  0  0  0  0  0  0
  180.6670  179.7860  136.4900 C   0  0  0  0  0  0  0  0  0  0  0  0
  179.9830  180.7910  138.4990 N   0  0  0  0  0  0  0  0  0  0  0  0
  181.3710  176.3810  139.1740 C   0  0  0  0  0  2  0  0  0  0  0  0
  182.2140  175.5090  138.2560 C   0  0  0  0  0  2  0  0  0  0  0  0
  181.7090  173.1780  137.3730 C   0  0  0  0  0  2  0  0  0  0  0  0
  182.5030  175.0890  135.3910 C   0  0  0  0  0  2  0  0  0  0  0  0
  182.8410  172.8870  136.4340 C   0  0  0  0  0  0  0  0  0  0  0  0
  183.6510  171.9090  136.7170 N   0  0  0  0  0  0  0  0  0  0  0  0
  182.8930  173.6390  135.1380 C   0  0  0  0  0  2  0  0  0  0  0  0
  181.2360  175.1660  136.0090 O   0  0  0  0  0  0  0  0  0  0  0  0
  181.3280  174.6640  137.3340 C   0  0  2  0  0  3  0  0  0  0  0  0
  184.7590  171.4450  135.9300 C   0  0  0  0  0  0  0  0  0  0  0  0
  184.7580  170.3060  135.3900 O   0  0  0  0  0  0  0  0  0  0  0  0
  185.9250  172.3510  135.7180 C   0  0  0  0  0  2  0  0  0  0  0  0
  187.6940  172.3700  137.3940 N   0  0  0  0  0  1  0  0  0  0  0  0
  186.4020  172.9340  137.0380 C   0  0  1  0  0  3  0  0  0  0  0  0
  186.5340  174.4370  136.9010 C   0  0  0  0  0  1  0  0  0  0  0  0
  183.3660  178.8970  140.9770 C   0  0  0  0  0  2  0  0  0  0  0  0
  184.4920  178.1130  141.2420 O   0  0  0  0  0  0  0  0  0  0  0  0
  185.2450  178.8440  142.1650 C   0  0  1  0  0  3  0  0  0  0  0  0
  185.0690  178.2640  143.5630 C   0  0  0  0  0  2  0  0  0  0  0  0
  185.1780  179.3660  144.6120 C   0  0  0  0  0  2  0  0  0  0  0  0
  185.8190  178.8960  145.9180 C   0  0  1  0  0  3  0  0  0  0  0  0
  184.8250  178.1870  146.8200 C   0  0  0  0  0  1  0  0  0  0  0  0
  186.9950  178.0540  145.6770 C   0  0  0  0  0  0  0  0  0  0  0  0
  187.9280  177.3940  145.4870 N   0  0  0  0  0  0  0  0  0  0  0  0
  186.7150  178.8240  141.7620 C   0  0  0  0  0  2  0  0  0  0  0  0
  186.8510  178.6160  140.3250 N   0  0  0  0  0  2  0  0  0  0  0  0
  188.2600  178.3840  140.0430 C   0  0  0  0  0  2  0  0  0  0  0  0
  188.4190  177.6210  138.7710 C   0  0  0  0  0  3  0  0  0  0  0  0
  188.9520  178.1760  137.7290 N   0  0  0  0  0  0  0  0  0  0  0  0
  188.0430  177.5710  135.4590 C   0  0  0  0  0  1  0  0  0  0  0  0
  189.1060  177.4740  136.4930 C   0  0  0  0  0  0  0  0  0  0  0  0
  190.1270  176.7700  136.2680 O   0  0  0  0  0  0  0  0  0  0  0  0
  1  2  1  0  0  0  0
  1  9  1  0  0  0  0
  2  6  1  0  0  0  0
  3 28  1  0  0  0  0
  3  7  1  0  0  0  0
  4 12  1  0  0  0  0
  5 11  1  0  0  0  0
  6  7  1  0  0  0  0
  7  8  1  1  0  0  0
  9 13  1  1  0  0  0
  9  3  1  0  0  0  0
 10  1  2  0  0  0  0
 11  4  2  0  0  0  0
 11 10  1  0  0  0  0
 12  2  2  0  0  0  0
 14 13  1  0  0  0  0
 16 20  1  0  0  0  0
 17 18  2  0  0  0  0
 17 15  1  0  0  0  0
 19 16  1  0  0  0  0
 19 17  1  0  0  0  0
 20 21  1  0  0  0  0
 21 15  1  0  0  0  0
 21 14  1  1  0  0  0
 22 18  1  0  0  0  0
 23 22  2  0  0  0  0
 24 22  1  0  0  0  0
 24 26  1  0  0  0  0
 26 27  1  6  0  0  0
 26 25  1  0  0  0  0
 28 29  1  0  0  0  0
 29 30  1  0  0  0  0
 30 37  1  6  0  0  0
 30 31  1  0  0  0  0
 31 32  1  0  0  0  0
 32 33  1  0  0  0  0
 33 34  1  6  0  0  0
 35 33  1  0  0  0  0
 36 35  3  0  0  0  0
 38 37  1  0  0  0  0
 39 38  1  0  0  0  0
 40 39  1  0  0  0  0
 41 40  2  0  0  0  0
 42 43  1  0  0  0  0
 43 41  1  0  0  0  0
 44 43  2  0  0  0  0
M  END
>  <MODEL>
7

>  <REMARK>
 VINA RESULT:      -5.5      3.208      8.443
  Name = 
  18 active torsions:
  status: ('A' for Active; 'I' for Inactive)
    1  A    between atoms: C_1  and  C_4
    2  A    between atoms: C_2  and  C_44
    3  A    between atoms: C_4  and  C_18
    4  A    between atoms: C_8  and  C_27
    5  A    between atoms: C_8  and  N_28
    6  A    between atoms: N_9  and  C_42
    7  A    between atoms: C_11  and  C_29
    8  A    between atoms: C_11  and  C_43
    9  A    between atoms: C_12  and  C_18
   10  A    between atoms: C_12  and  C_19
   11  A    between atoms: C_17  and  N_22
   12  A    between atoms: C_19  and  C_25
   13  A    between atoms: C_19  and  O_36
   14  A    between atoms: C_24  and  C_29
   15  A    between atoms: C_25  and  N_30
   16  A    between atoms: C_27  and  C_32
   17  A    between atoms: N_30  and  C_44
   18  A    between atoms: O_36  and  C_42
                            x       y       z     vdW  Elec       q    Type
                         _______ _______ _______ _____ _____    ______ ____

>  <TORSDO>
F 18

$$$$
=
 OpenBabel10222422013D

 44 46  0  0  1  0  0  0  0  0999 V2000
  183.6140  178.4870  142.3220 C   0  0  0  0  0  0  0  0  0  0  0  0
  182.2820  178.9070  142.4740 C   0  0  0  0  0  0  0  0  0  0  0  0
  183.1770  177.9790  139.9080 N   0  0  0  0  0  0  0  0  0  0  0  0
  182.6000  179.1310  144.7930 N   0  0  0  0  0  0  0  0  0  0  0  0
  184.7470  178.6650  145.9140 C   0  0  0  0  0  1  0  0  0  0  0  0
  181.3460  178.9380  141.3100 C   0  0  0  0  0  2  0  0  0  0  0  0
  182.1240  179.0070  139.9960 C   0  0  2  0  0  3  0  0  0  0  0  0
  181.1820  178.9440  138.8040 C   0  0  0  0  0  1  0  0  0  0  0  0
  184.1870  178.1480  140.9660 C   0  0  1  0  0  3  0  0  0  0  0  0
  184.4260  178.4070  143.4530 C   0  0  0  0  0  3  0  0  0  0  0  0
  183.8980  178.7390  144.6980 C   0  0  0  0  0  0  0  0  0  0  0  0
  181.8160  179.2060  143.7160 N   0  0  0  0  0  0  0  0  0  0  0  0
  185.2390  179.1640  140.5360 C   0  0  0  0  0  2  0  0  0  0  0  0
  186.4680  179.0520  141.4260 C   0  0  0  0  0  2  0  0  0  0  0  0
  187.6970  177.1880  142.6430 C   0  0  0  0  0  2  0  0  0  0  0  0
  189.1370  178.3880  140.4760 C   0  0  0  0  0  2  0  0  0  0  0  0
  189.0800  177.7290  142.8460 C   0  0  0  0  0  0  0  0  0  0  0  0
  189.5000  177.9300  144.0610 N   0  0  0  0  0  0  0  0  0  0  0  0
  189.9660  177.8690  141.6440 C   0  0  0  0  0  2  0  0  0  0  0  0
  188.0300  177.5470  140.2360 O   0  0  0  0  0  0  0  0  0  0  0  0
  187.1080  177.6650  141.3090 C   0  0  2  0  0  3  0  0  0  0  0  0
  190.7970  178.3950  144.4640 C   0  0  0  0  0  0  0  0  0  0  0  0
  191.2580  179.5010  144.0700 O   0  0  0  0  0  0  0  0  0  0  0  0
  191.6050  177.5630  145.4010 C   0  0  0  0  0  2  0  0  0  0  0  0
  191.5060  175.8840  147.1660 N   0  0  0  0  0  1  0  0  0  0  0  0
  190.7020  176.7210  146.2900 C   0  0  1  0  0  3  0  0  0  0  0  0
  189.8350  177.6360  147.1300 C   0  0  0  0  0  1  0  0  0  0  0  0
  182.6270  176.6260  139.9930 C   0  0  0  0  0  2  0  0  0  0  0  0
  183.3140  175.7910  139.1070 O   0  0  0  0  0  0  0  0  0  0  0  0
  182.7540  176.0420  137.8510 C   0  0  1  0  0  3  0  0  0  0  0  0
  183.8300  175.9820  136.7750 C   0  0  0  0  0  2  0  0  0  0  0  0
  184.6570  177.2630  136.7800 C   0  0  0  0  0  2  0  0  0  0  0  0
  186.0420  177.0850  137.4010 C   0  0  1  0  0  3  0  0  0  0  0  0
  186.7190  175.8080  136.9350 C   0  0  0  0  0  1  0  0  0  0  0  0
  186.9030  178.2470  137.1570 C   0  0  0  0  0  0  0  0  0  0  0  0
  187.5870  179.1620  136.9600 N   0  0  0  0  0  0  0  0  0  0  0  0
  181.6560  175.0240  137.5650 C   0  0  0  0  0  2  0  0  0  0  0  0
  180.8100  175.4760  136.4660 N   0  0  0  0  0  2  0  0  0  0  0  0
  180.4270  174.3040  135.6920 C   0  0  0  0  0  2  0  0  0  0  0  0
  181.3510  173.1670  135.9730 C   0  0  0  0  0  3  0  0  0  0  0  0
  182.2600  172.8260  135.1150 N   0  0  0  0  0  0  0  0  0  0  0  0
  183.7210  171.5330  136.7090 C   0  0  0  0  0  1  0  0  0  0  0  0
  183.1500  171.7330  135.3520 C   0  0  0  0  0  0  0  0  0  0  0  0
  183.4620  170.9370  134.4250 O   0  0  0  0  0  0  0  0  0  0  0  0
  1  2  2  0  0  0  0
  1 10  1  0  0  0  0
  2 12  1  0  0  0  0
  3 28  1  0  0  0  0
  3  7  1  0  0  0  0
  3  9  1  0  0  0  0
  6  2  1  0  0  0  0
  7  8  1  6  0  0  0
  7  6  1  0  0  0  0
  9 13  1  6  0  0  0
  9  1  1  0  0  0  0
 10 11  2  0  0  0  0
 11  4  1  0  0  0  0
 11  5  1  0  0  0  0
 12  4  2  0  0  0  0
 13 14  1  0  0  0  0
 15 17  1  0  0  0  0
 16 19  1  0  0  0  0
 17 18  2  0  0  0  0
 18 22  1  0  0  0  0
 19 17  1  0  0  0  0
 20 16  1  0  0  0  0
 20 21  1  0  0  0  0
 21 14  1  1  0  0  0
 21 15  1  0  0  0  0
 22 24  1  0  0  0  0
 23 22  2  0  0  0  0
 24 26  1  0  0  0  0
 26 27  1  1  0  0  0
 26 25  1  0  0  0  0
 29 28  1  0  0  0  0
 30 31  1  6  0  0  0
 30 29  1  0  0  0  0
 31 32  1  0  0  0  0
 32 33  1  0  0  0  0
 33 34  1  6  0  0  0
 35 33  1  0  0  0  0
 36 35  3  0  0  0  0
 37 30  1  0  0  0  0
 38 37  1  0  0  0  0
 39 40  1  0  0  0  0
 39 38  1  0  0  0  0
 41 43  1  0  0  0  0
 41 40  2  0  0  0  0
 43 42  1  0  0  0  0
 44 43  2  0  0  0  0
M  END
>  <MODEL>
8

>  <REMARK>
 VINA RESULT:      -5.5      2.814      8.432
  Name = 
  18 active torsions:
  status: ('A' for Active; 'I' for Inactive)
    1  A    between atoms: C_1  and  C_4
    2  A    between atoms: C_2  and  C_44
    3  A    between atoms: C_4  and  C_18
    4  A    between atoms: C_8  and  C_27
    5  A    between atoms: C_8  and  N_28
    6  A    between atoms: N_9  and  C_42
    7  A    between atoms: C_11  and  C_29
    8  A    between atoms: C_11  and  C_43
    9  A    between atoms: C_12  and  C_18
   10  A    between atoms: C_12  and  C_19
   11  A    between atoms: C_17  and  N_22
   12  A    between atoms: C_19  and  C_25
   13  A    between atoms: C_19  and  O_36
   14  A    between atoms: C_24  and  C_29
   15  A    between atoms: C_25  and  N_30
   16  A    between atoms: C_27  and  C_32
   17  A    between atoms: N_30  and  C_44
   18  A    between atoms: O_36  and  C_42
                            x       y       z     vdW  Elec       q    Type
                         _______ _______ _______ _____ _____    ______ ____

>  <TORSDO>
F 18

$$$$
=
 OpenBabel10222422013D

 44 46  0  0  1  0  0  0  0  0999 V2000
  191.9390  175.1210  135.9620 C   0  0  0  0  0  0  0  0  0  0  0  0
  191.8320  173.8590  135.3540 C   0  0  0  0  0  0  0  0  0  0  0  0
  189.5820  174.9220  136.7890 N   0  0  0  0  0  0  0  0  0  0  0  0
  193.9370  174.1460  134.3470 N   0  0  0  0  0  0  0  0  0  0  0  0
  195.3280  176.1580  134.6720 C   0  0  0  0  0  1  0  0  0  0  0  0
  190.5910  173.0380  135.4970 C   0  0  0  0  0  2  0  0  0  0  0  0
  189.8020  173.4660  136.7350 C   0  0  2  0  0  3  0  0  0  0  0  0
  188.4930  172.6990  136.8350 C   0  0  0  0  0  1  0  0  0  0  0  0
  190.8550  175.6590  136.8670 C   0  0  1  0  0  3  0  0  0  0  0  0
  193.0890  175.8780  135.7390 C   0  0  0  0  0  3  0  0  0  0  0  0
  194.0930  175.3690  134.9190 C   0  0  0  0  0  0  0  0  0  0  0  0
  192.8380  173.4180  134.5540 N   0  0  0  0  0  0  0  0  0  0  0  0
  191.3290  175.7450  138.3130 C   0  0  0  0  0  2  0  0  0  0  0  0
  190.2090  176.2690  139.1990 C   0  0  0  0  0  2  0  0  0  0  0  0
  190.9580  177.6410  141.2050 C   0  0  0  0  0  2  0  0  0  0  0  0
  188.3580  178.2830  140.1900 C   0  0  0  0  0  2  0  0  0  0  0  0
  189.7630  177.6560  142.1090 C   0  0  0  0  0  0  0  0  0  0  0  0
  189.8530  177.0840  143.2740 N   0  0  0  0  0  0  0  0  0  0  0  0
  188.5700  178.4610  141.6870 C   0  0  0  0  0  2  0  0  0  0  0  0
  189.5240  178.6300  139.4750 O   0  0  0  0  0  0  0  0  0  0  0  0
  190.5360  177.6690  139.7300 C   0  0  2  0  0  3  0  0  0  0  0  0
  188.8450  177.0300  144.2950 C   0  0  0  0  0  0  0  0  0  0  0  0
  187.8690  176.2350  144.2230 O   0  0  0  0  0  0  0  0  0  0  0  0
  188.9760  177.9150  145.4880 C   0  0  0  0  0  2  0  0  0  0  0  0
  189.6940  177.0680  147.6580 N   0  0  0  0  0  1  0  0  0  0  0  0
  188.5610  177.1800  146.7530 C   0  0  1  0  0  3  0  0  0  0  0  0
  187.4500  177.9510  147.4360 C   0  0  0  0  0  1  0  0  0  0  0  0
  188.8290  175.4040  135.6310 C   0  0  0  0  0  2  0  0  0  0  0  0
  187.4930  175.5930  135.9940 O   0  0  0  0  0  0  0  0  0  0  0  0
  186.9710  176.4770  135.0460 C   0  0  1  0  0  3  0  0  0  0  0  0
  185.6030  175.9990  134.5790 C   0  0  0  0  0  2  0  0  0  0  0  0
  185.1890  174.7460  135.3440 C   0  0  0  0  0  2  0  0  0  0  0  0
  183.8150  174.8660  136.0040 C   0  0  1  0  0  3  0  0  0  0  0  0
  183.8320  174.4010  137.4490 C   0  0  0  0  0  1  0  0  0  0  0  0
  183.2780  176.2260  135.9020 C   0  0  0  0  0  0  0  0  0  0  0  0
  182.8470  177.2990  135.8240 N   0  0  0  0  0  0  0  0  0  0  0  0
  186.8710  177.8750  135.6460 C   0  0  0  0  0  2  0  0  0  0  0  0
  186.7210  177.8030  137.0940 N   0  0  0  0  0  2  0  0  0  0  0  0
  185.6130  178.6700  137.4670 C   0  0  0  0  0  2  0  0  0  0  0  0
  185.1860  178.3970  138.8700 C   0  0  0  0  0  3  0  0  0  0  0  0
  184.9170  179.3710  139.6810 N   0  0  0  0  0  0  0  0  0  0  0  0
  183.2440  178.4280  141.3120 C   0  0  0  0  0  1  0  0  0  0  0  0
  184.5190  179.1400  141.0350 C   0  0  0  0  0  0  0  0  0  0  0  0
  185.2300  179.5350  141.9980 O   0  0  0  0  0  0  0  0  0  0  0  0
  1  9  1  0  0  0  0
  2  6  1  0  0  0  0
  2  1  2  0  0  0  0
  3  9  1  0  0  0  0
  4 12  2  0  0  0  0
  4 11  1  0  0  0  0
  5 11  1  0  0  0  0
  6  7  1  0  0  0  0
  7  3  1  0  0  0  0
  7  8  1  6  0  0  0
  9 13  1  1  0  0  0
 10  1  1  0  0  0  0
 11 10  2  0  0  0  0
 12  2  1  0  0  0  0
 13 14  1  0  0  0  0
 15 17  1  0  0  0  0
 16 19  1  0  0  0  0
 17 18  2  0  0  0  0
 18 22  1  0  0  0  0
 19 17  1  0  0  0  0
 20 21  1  0  0  0  0
 20 16  1  0  0  0  0
 21 14  1  1  0  0  0
 21 15  1  0  0  0  0
 22 24  1  0  0  0  0
 23 22  2  0  0  0  0
 24 26  1  0  0  0  0
 26 27  1  1  0  0  0
 26 25  1  0  0  0  0
 28 29  1  0  0  0  0
 28  3  1  0  0  0  0
 30 31  1  1  0  0  0
 30 37  1  0  0  0  0
 30 29  1  0  0  0  0
 31 32  1  0  0  0  0
 32 33  1  0  0  0  0
 33 34  1  1  0  0  0
 35 33  1  0  0  0  0
 36 35  3  0  0  0  0
 37 38  1  0  0  0  0
 38 39  1  0  0  0  0
 39 40  1  0  0  0  0
 40 41  2  0  0  0  0
 41 43  1  0  0  0  0
 43 42  1  0  0  0  0
 43 44  2  0  0  0  0
M  END
>  <MODEL>
9

>  <REMARK>
 VINA RESULT:      -5.5      2.245      6.892
  Name = 
  18 active torsions:
  status: ('A' for Active; 'I' for Inactive)
    1  A    between atoms: C_1  and  C_4
    2  A    between atoms: C_2  and  C_44
    3  A    between atoms: C_4  and  C_18
    4  A    between atoms: C_8  and  C_27
    5  A    between atoms: C_8  and  N_28
    6  A    between atoms: N_9  and  C_42
    7  A    between atoms: C_11  and  C_29
    8  A    between atoms: C_11  and  C_43
    9  A    between atoms: C_12  and  C_18
   10  A    between atoms: C_12  and  C_19
   11  A    between atoms: C_17  and  N_22
   12  A    between atoms: C_19  and  C_25
   13  A    between atoms: C_19  and  O_36
   14  A    between atoms: C_24  and  C_29
   15  A    between atoms: C_25  and  N_30
   16  A    between atoms: C_27  and  C_32
   17  A    between atoms: N_30  and  C_44
   18  A    between atoms: O_36  and  C_42
                            x       y       z     vdW  Elec       q    Type
                         _______ _______ _______ _____ _____    ______ ____

>  <TORSDO>
F 18

$$$$
