=
 OpenBabel10232409343D

 33 37  0  0  1  0  0  0  0  0999 V2000
  186.0580  173.7060  135.5470 C   0  0  0  0  0  2  0  0  0  0  0  0
  189.3870  176.8940  138.8480 C   0  0  1  0  0  3  0  0  0  0  0  0
  192.5930  174.2910  137.1960 C   0  0  0  0  0  0  0  0  0  0  0  0
  190.8430  175.6260  137.1810 C   0  0  1  0  0  3  0  0  0  0  0  0
  184.6930  177.2820  138.1060 C   0  0  0  0  0  3  0  0  0  0  0  0
  183.0700  176.1690  136.6100 C   0  0  0  0  0  2  0  0  0  0  0  0
  188.8770  178.1360  138.1210 C   0  0  0  0  0  2  0  0  0  0  0  0
  183.9000  176.3690  135.3720 C   0  0  0  0  0  0  0  0  0  0  0  0
  187.5090  173.3710  135.6540 C   0  0  0  0  0  3  0  0  0  0  0  0
  186.3290  176.7070  136.3010 C   0  0  1  0  0  3  0  0  0  0  0  0
  187.9680  177.5950  142.2070 O   0  0  0  0  0  1  0  0  0  0  0  0
  185.8770  174.8770  134.5940 C   0  0  0  0  0  2  0  0  0  0  0  0
  183.3430  176.7230  134.3460 O   0  0  0  0  0  0  0  0  0  0  0  0
  190.7920  176.5780  138.3720 C   0  0  0  0  0  2  0  0  0  0  0  0
  188.1940  177.6710  140.8740 N   0  0  0  0  0  0  0  0  0  0  0  0
  192.2500  175.4660  136.8150 N   0  0  0  0  0  0  0  0  0  0  0  0
  185.7450  177.6230  137.3470 C   0  0  0  0  0  0  0  0  0  0  0  0
  193.9140  173.7650  137.0680 N   0  0  0  0  0  2  0  0  0  0  0  0
  185.3850  176.1010  135.3450 C   0  0  1  0  0  0  0  0  0  0  0  0
  186.2530  178.9260  140.5350 O   0  0  0  0  0  0  0  0  0  0  0  0
  187.2950  178.4130  140.0410 C   0  0  0  0  0  0  0  0  0  0  0  0
  186.1440  177.2990  134.9630 N   0  0  0  0  0  2  0  0  0  0  0  0
  191.5410  173.5860  137.7210 O   0  0  0  0  0  0  0  0  0  0  0  0
  189.4670  177.1900  140.3460 C   0  0  0  0  0  2  0  0  0  0  0  0
  182.9880  175.7880  139.0570 C   0  0  0  0  0  1  0  0  0  0  0  0
  189.6870  173.6920  136.4450 C   0  0  0  0  0  2  0  0  0  0  0  0
  187.5690  178.5330  138.6380 N   0  0  0  0  0  0  0  0  0  0  0  0
  183.9050  176.0290  137.8770 C   0  0  2  0  0  3  0  0  0  0  0  0
  186.5040  178.8600  137.7000 C   0  0  0  0  0  2  0  0  0  0  0  0
  188.2900  174.0300  136.4290 N   0  0  0  0  0  0  0  0  0  0  0  0
  190.3630  174.2880  137.5920 N   0  0  2  0  0  0  0  0  0  0  0  0
  194.9690  174.5220  136.5380 C   0  0  0  0  0  0  0  0  0  0  0  0
  195.8760  175.1730  136.0840 C   0  0  0  0  0  3  0  0  0  0  0  0
  1  9  1  0  0  0  0
  2  7  1  6  0  0  0
  2 24  1  0  0  0  0
  3 23  1  0  0  0  0
  4 31  1  0  0  0  0
  4 14  1  1  0  0  0
  6 28  1  0  0  0  0
  7 27  1  0  0  0  0
  8  6  1  0  0  0  0
  9 30  2  0  0  0  0
 10 22  1  6  0  0  0
 10 17  1  0  0  0  0
 12  1  1  0  0  0  0
 13  8  2  0  0  0  0
 14  2  1  0  0  0  0
 15 11  1  0  0  0  0
 16  4  1  0  0  0  0
 16  3  2  0  0  0  0
 17 29  1  0  0  0  0
 17  5  2  0  0  0  0
 18  3  1  0  0  0  0
 19 12  1  6  0  0  0
 19  8  1  0  0  0  0
 19 10  1  0  0  0  0
 21 20  2  0  0  0  0
 21 15  1  0  0  0  0
 22 19  1  0  0  0  0
 24 15  1  0  0  0  0
 27 21  1  0  0  0  0
 28  5  1  0  0  0  0
 28 25  1  1  0  0  0
 29 27  1  0  0  0  0
 30 26  1  0  0  0  0
 31 26  1  6  0  0  0
 31 23  1  0  0  0  0
 32 18  1  0  0  0  0
 33 32  3  0  0  0  0
M  END
>  <MODEL>
1

>  <REMARK>
 VINA RESULT:      -6.1      0.000      0.000
  Name = 
  1 active torsions:
  status: ('A' for Active; 'I' for Inactive)
    1  A    between atoms: C_4  and  N_19
                            x       y       z     vdW  Elec       q    Type
                         _______ _______ _______ _____ _____    ______ ____

>  <TORSDO>
F 1

$$$$
=
 OpenBabel10232409343D

 33 37  0  0  1  0  0  0  0  0999 V2000
  186.0660  172.4740  136.2710 C   0  0  0  0  0  2  0  0  0  0  0  0
  188.8250  177.1030  138.0330 C   0  0  1  0  0  3  0  0  0  0  0  0
  192.4170  174.6560  137.0890 C   0  0  0  0  0  0  0  0  0  0  0  0
  190.4530  175.5980  136.7720 C   0  0  1  0  0  3  0  0  0  0  0  0
  184.1250  176.4360  137.5920 C   0  0  0  0  0  3  0  0  0  0  0  0
  182.7020  174.6250  136.6910 C   0  0  0  0  0  2  0  0  0  0  0  0
  188.0820  177.9180  136.9770 C   0  0  0  0  0  2  0  0  0  0  0  0
  183.4560  174.5220  135.3940 C   0  0  0  0  0  0  0  0  0  0  0  0
  187.5550  172.4400  136.3640 C   0  0  0  0  0  3  0  0  0  0  0  0
  185.8010  175.5530  135.9550 C   0  0  1  0  0  3  0  0  0  0  0  0
  187.3720  178.6710  141.0690 O   0  0  0  0  0  1  0  0  0  0  0  0
  185.6550  173.2000  135.0000 C   0  0  0  0  0  2  0  0  0  0  0  0
  182.8220  174.4060  134.3580 O   0  0  0  0  0  0  0  0  0  0  0  0
  190.2540  176.8780  137.5770 C   0  0  0  0  0  2  0  0  0  0  0  0
  187.5530  178.3210  139.7730 N   0  0  0  0  0  0  0  0  0  0  0  0
  191.8580  175.5550  136.3670 N   0  0  0  0  0  0  0  0  0  0  0  0
  185.0810  176.6630  136.6790 C   0  0  0  0  0  0  0  0  0  0  0  0
  193.8090  174.3420  137.0370 N   0  0  0  0  0  2  0  0  0  0  0  0
  184.9640  174.5090  135.3360 C   0  0  1  0  0  0  0  0  0  0  0  0
  185.4090  179.0460  139.1940 O   0  0  0  0  0  0  0  0  0  0  0  0
  186.5170  178.5740  138.8170 C   0  0  0  0  0  0  0  0  0  0  0  0
  185.4830  175.6110  134.5150 N   0  0  0  0  0  2  0  0  0  0  0  0
  191.5230  174.0110  137.9040 O   0  0  0  0  0  0  0  0  0  0  0  0
  188.8810  177.9040  139.3350 C   0  0  0  0  0  2  0  0  0  0  0  0
  182.7410  175.1010  139.1230 C   0  0  0  0  0  1  0  0  0  0  0  0
  189.6540  173.3660  136.8220 C   0  0  0  0  0  2  0  0  0  0  0  0
  186.7350  178.2480  137.4380 N   0  0  0  0  0  0  0  0  0  0  0  0
  183.5740  175.0690  137.8590 C   0  0  2  0  0  3  0  0  0  0  0  0
  185.6090  178.0530  136.5340 C   0  0  0  0  0  2  0  0  0  0  0  0
  188.2200  173.4440  136.8090 N   0  0  0  0  0  0  0  0  0  0  0  0
  190.2340  174.4230  137.6450 N   0  0  2  0  0  0  0  0  0  0  0  0
  194.6970  175.0350  136.2000 C   0  0  0  0  0  0  0  0  0  0  0  0
  195.4610  175.6290  135.4810 C   0  0  0  0  0  3  0  0  0  0  0  0
  1  9  1  0  0  0  0
  2  7  1  6  0  0  0
  2 24  1  0  0  0  0
  3 23  1  0  0  0  0
  4 14  1  1  0  0  0
  4 31  1  0  0  0  0
  5 28  1  0  0  0  0
  6 28  1  0  0  0  0
  7 27  1  0  0  0  0
  8  6  1  0  0  0  0
  9 30  2  0  0  0  0
 10 22  1  6  0  0  0
 10 17  1  0  0  0  0
 12  1  1  0  0  0  0
 13  8  2  0  0  0  0
 14  2  1  0  0  0  0
 15 11  1  0  0  0  0
 16  4  1  0  0  0  0
 16  3  2  0  0  0  0
 17  5  2  0  0  0  0
 18  3  1  0  0  0  0
 19 12  1  6  0  0  0
 19  8  1  0  0  0  0
 19 10  1  0  0  0  0
 21 20  2  0  0  0  0
 21 15  1  0  0  0  0
 22 19  1  0  0  0  0
 24 15  1  0  0  0  0
 27 21  1  0  0  0  0
 28 25  1  1  0  0  0
 29 17  1  0  0  0  0
 29 27  1  0  0  0  0
 30 26  1  0  0  0  0
 31 26  1  6  0  0  0
 31 23  1  0  0  0  0
 32 18  1  0  0  0  0
 33 32  3  0  0  0  0
M  END
>  <MODEL>
2

>  <REMARK>
 VINA RESULT:      -5.9      1.156      1.287
  Name = 
  1 active torsions:
  status: ('A' for Active; 'I' for Inactive)
    1  A    between atoms: C_4  and  N_19
                            x       y       z     vdW  Elec       q    Type
                         _______ _______ _______ _____ _____    ______ ____

>  <TORSDO>
F 1

$$$$
=
 OpenBabel10232409343D

 33 37  0  0  1  0  0  0  0  0999 V2000
  189.7320  178.4130  140.3030 C   0  0  0  0  0  2  0  0  0  0  0  0
  185.2710  178.4380  143.8020 C   0  0  1  0  0  3  0  0  0  0  0  0
  182.9780  178.6390  139.9960 C   0  0  0  0  0  0  0  0  0  0  0  0
  184.4690  177.9050  141.4400 C   0  0  1  0  0  3  0  0  0  0  0  0
  189.8980  178.0690  144.8920 C   0  0  0  0  0  3  0  0  0  0  0  0
  191.9820  177.8480  143.5800 C   0  0  0  0  0  2  0  0  0  0  0  0
  185.7630  177.1220  144.3990 C   0  0  0  0  0  2  0  0  0  0  0  0
  191.4640  176.7180  142.7330 C   0  0  0  0  0  0  0  0  0  0  0  0
  188.3630  178.5790  139.7320 C   0  0  0  0  0  3  0  0  0  0  0  0
  188.8580  176.9570  142.9040 C   0  0  1  0  0  3  0  0  0  0  0  0
  185.6990  180.6000  146.7900 O   0  0  0  0  0  1  0  0  0  0  0  0
  189.9750  176.9460  140.6190 C   0  0  0  0  0  2  0  0  0  0  0  0
  192.2020  175.7740  142.5050 O   0  0  0  0  0  0  0  0  0  0  0  0
  184.0870  178.1640  142.8940 C   0  0  0  0  0  2  0  0  0  0  0  0
  185.8020  179.5380  145.9550 N   0  0  0  0  0  0  0  0  0  0  0  0
  183.2340  177.6090  140.7150 N   0  0  0  0  0  0  0  0  0  0  0  0
  189.0290  177.1800  144.3860 C   0  0  0  0  0  0  0  0  0  0  0  0
  181.8180  178.7700  139.1730 N   0  0  0  0  0  2  0  0  0  0  0  0
  190.0860  176.7370  142.1180 C   0  0  1  0  0  0  0  0  0  0  0  0
  187.5670  178.6350  147.1900 O   0  0  0  0  0  0  0  0  0  0  0  0
  186.7640  178.5120  146.2250 C   0  0  0  0  0  0  0  0  0  0  0  0
  189.2830  175.5870  142.5560 N   0  0  0  0  0  2  0  0  0  0  0  0
  183.9560  179.5950  140.0880 O   0  0  0  0  0  0  0  0  0  0  0  0
  184.7810  179.3470  144.9300 C   0  0  0  0  0  2  0  0  0  0  0  0
  191.5090  179.9240  144.8460 C   0  0  0  0  0  1  0  0  0  0  0  0
  186.0340  178.7500  139.8730 C   0  0  0  0  0  2  0  0  0  0  0  0
  186.8310  177.3650  145.3650 N   0  0  0  0  0  0  0  0  0  0  0  0
  190.8880  178.8030  144.0420 C   0  0  2  0  0  3  0  0  0  0  0  0
  188.0380  176.5510  145.3100 C   0  0  0  0  0  2  0  0  0  0  0  0
  187.3280  178.6450  140.4880 N   0  0  0  0  0  0  0  0  0  0  0  0
  185.0170  179.1430  140.8420 N   0  0  2  0  0  0  0  0  0  0  0  0
  180.8300  177.7750  139.1160 C   0  0  0  0  0  0  0  0  0  0  0  0
  179.9820  176.9200  139.0660 C   0  0  0  0  0  3  0  0  0  0  0  0
  1 12  1  0  0  0  0
  2 14  1  6  0  0  0
  2  7  1  0  0  0  0
  2 24  1  0  0  0  0
  3 23  1  0  0  0  0
  3 16  2  0  0  0  0
  4 14  1  1  0  0  0
  6 28  1  0  0  0  0
  7 27  1  0  0  0  0
  8  6  1  0  0  0  0
  9  1  1  0  0  0  0
  9 30  2  0  0  0  0
 10 22  1  1  0  0  0
 10 17  1  0  0  0  0
 13  8  2  0  0  0  0
 15 21  1  0  0  0  0
 15 11  1  0  0  0  0
 16  4  1  0  0  0  0
 17  5  2  0  0  0  0
 17 29  1  0  0  0  0
 18  3  1  0  0  0  0
 19 12  1  6  0  0  0
 19 22  1  0  0  0  0
 19  8  1  0  0  0  0
 19 10  1  0  0  0  0
 21 20  2  0  0  0  0
 23 31  1  0  0  0  0
 24 15  1  0  0  0  0
 26 30  1  0  0  0  0
 27 21  1  0  0  0  0
 28 25  1  1  0  0  0
 28  5  1  0  0  0  0
 29 27  1  0  0  0  0
 31 26  1  6  0  0  0
 31  4  1  0  0  0  0
 32 18  1  0  0  0  0
 33 32  3  0  0  0  0
M  END
>  <MODEL>
3

>  <REMARK>
 VINA RESULT:      -5.2      4.743      9.144
  Name = 
  1 active torsions:
  status: ('A' for Active; 'I' for Inactive)
    1  A    between atoms: C_4  and  N_19
                            x       y       z     vdW  Elec       q    Type
                         _______ _______ _______ _____ _____    ______ ____

>  <TORSDO>
F 1

$$$$
=
 OpenBabel10232409343D

 33 37  0  0  1  0  0  0  0  0999 V2000
  187.5510  177.2360  144.9700 C   0  0  0  0  0  2  0  0  0  0  0  0
  187.6200  177.5570  139.3100 C   0  0  1  0  0  3  0  0  0  0  0  0
  183.4990  179.1240  139.8930 C   0  0  0  0  0  0  0  0  0  0  0  0
  185.6720  178.9440  140.1950 C   0  0  1  0  0  3  0  0  0  0  0  0
  191.1240  176.2120  142.2520 C   0  0  0  0  0  3  0  0  0  0  0  0
  191.4110  176.1620  144.7070 C   0  0  0  0  0  2  0  0  0  0  0  0
  188.8600  178.4430  139.4000 C   0  0  0  0  0  2  0  0  0  0  0  0
  190.9650  177.5850  144.9030 C   0  0  0  0  0  0  0  0  0  0  0  0
  186.3110  177.6520  144.2520 C   0  0  0  0  0  3  0  0  0  0  0  0
  189.5500  178.0940  142.7540 C   0  0  1  0  0  3  0  0  0  0  0  0
  189.1600  174.6170  137.6430 O   0  0  0  0  0  1  0  0  0  0  0  0
  188.5090  178.4130  145.0510 C   0  0  0  0  0  2  0  0  0  0  0  0
  191.5890  178.2920  145.6770 O   0  0  0  0  0  0  0  0  0  0  0  0
  186.4150  178.4130  138.9730 C   0  0  0  0  0  2  0  0  0  0  0  0
  189.0380  175.7900  138.3100 N   0  0  0  0  0  0  0  0  0  0  0  0
  184.5800  179.7860  139.7060 N   0  0  0  0  0  0  0  0  0  0  0  0
  190.6340  177.4230  141.9460 C   0  0  0  0  0  0  0  0  0  0  0  0
  182.2050  179.5800  139.4980 N   0  0  0  0  0  2  0  0  0  0  0  0
  189.7470  178.1500  144.2130 C   0  0  1  0  0  0  0  0  0  0  0  0
  191.2790  175.7430  138.9670 O   0  0  0  0  0  0  0  0  0  0  0  0
  190.1810  176.3650  138.9520 C   0  0  0  0  0  0  0  0  0  0  0  0
  190.0860  179.3150  143.3850 N   0  0  0  0  0  2  0  0  0  0  0  0
  183.7210  177.9350  140.5380 O   0  0  0  0  0  0  0  0  0  0  0  0
  187.8030  176.5560  138.1680 C   0  0  0  0  0  2  0  0  0  0  0  0
  191.2320  174.0520  143.4200 C   0  0  0  0  0  1  0  0  0  0  0  0
  185.0550  178.1480  142.3410 C   0  0  0  0  0  2  0  0  0  0  0  0
  190.0560  177.6320  139.6130 N   0  0  0  0  0  0  0  0  0  0  0  0
  190.7560  175.4860  143.5090 C   0  0  2  0  0  3  0  0  0  0  0  0
  191.0130  178.0330  140.6360 C   0  0  0  0  0  2  0  0  0  0  0  0
  186.2620  177.6870  142.9700 N   0  0  0  0  0  0  0  0  0  0  0  0
  185.0400  177.8190  140.9200 N   0  0  2  0  0  0  0  0  0  0  0  0
  182.0180  180.7970  138.8250 C   0  0  0  0  0  0  0  0  0  0  0  0
  181.8570  181.8430  138.2490 C   0  0  0  0  0  3  0  0  0  0  0  0
  1 12  1  0  0  0  0
  2 24  1  6  0  0  0
  2  7  1  0  0  0  0
  3 23  1  0  0  0  0
  4 14  1  6  0  0  0
  4 31  1  0  0  0  0
  5 28  1  0  0  0  0
  6  8  1  0  0  0  0
  7 27  1  0  0  0  0
  8 13  2  0  0  0  0
  9  1  1  0  0  0  0
 10 17  1  6  0  0  0
 10 22  1  0  0  0  0
 10 19  1  0  0  0  0
 11 15  1  0  0  0  0
 14  2  1  0  0  0  0
 15 21  1  0  0  0  0
 16  3  2  0  0  0  0
 16  4  1  0  0  0  0
 17  5  2  0  0  0  0
 18  3  1  0  0  0  0
 19  8  1  0  0  0  0
 19 12  1  1  0  0  0
 21 20  2  0  0  0  0
 21 27  1  0  0  0  0
 22 19  1  0  0  0  0
 23 31  1  0  0  0  0
 24 15  1  0  0  0  0
 26 30  1  0  0  0  0
 27 29  1  0  0  0  0
 28 25  1  6  0  0  0
 28  6  1  0  0  0  0
 29 17  1  0  0  0  0
 30  9  2  0  0  0  0
 31 26  1  1  0  0  0
 32 18  1  0  0  0  0
 33 32  3  0  0  0  0
M  END
>  <MODEL>
4

>  <REMARK>
 VINA RESULT:      -4.5      3.602      8.956
  Name = 
  1 active torsions:
  status: ('A' for Active; 'I' for Inactive)
    1  A    between atoms: C_4  and  N_19
                            x       y       z     vdW  Elec       q    Type
                         _______ _______ _______ _____ _____    ______ ____

>  <TORSDO>
F 1

$$$$
=
 OpenBabel10232409343D

 33 37  0  0  1  0  0  0  0  0999 V2000
  189.9520  176.3160  139.8650 C   0  0  0  0  0  2  0  0  0  0  0  0
  184.7320  177.9260  141.3840 C   0  0  1  0  0  3  0  0  0  0  0  0
  186.5580  178.1080  145.4360 C   0  0  0  0  0  0  0  0  0  0  0  0
  186.3530  178.4770  143.2750 C   0  0  1  0  0  3  0  0  0  0  0  0
  186.3930  176.9750  137.0170 C   0  0  0  0  0  3  0  0  0  0  0  0
  188.6190  176.4490  136.0790 C   0  0  0  0  0  2  0  0  0  0  0  0
  184.8230  179.0770  140.3860 C   0  0  0  0  0  2  0  0  0  0  0  0
  189.3030  177.6080  136.7510 C   0  0  0  0  0  0  0  0  0  0  0  0
  189.6480  176.5240  141.3110 C   0  0  0  0  0  3  0  0  0  0  0  0
  187.7220  178.1790  138.7650 C   0  0  1  0  0  3  0  0  0  0  0  0
  182.0140  175.9910  139.7530 O   0  0  0  0  0  1  0  0  0  0  0  0
  190.1750  177.6630  139.1960 C   0  0  0  0  0  2  0  0  0  0  0  0
  190.1070  178.2640  136.1100 O   0  0  0  0  0  0  0  0  0  0  0  0
  184.9060  178.4670  142.7900 C   0  0  0  0  0  2  0  0  0  0  0  0
  183.0010  176.8990  139.9410 N   0  0  0  0  0  0  0  0  0  0  0  0
  186.3560  179.0700  144.6120 N   0  0  0  0  0  0  0  0  0  0  0  0
  186.5550  178.0380  137.8190 C   0  0  0  0  0  0  0  0  0  0  0  0
  186.5790  178.2640  146.8550 N   0  0  0  0  0  2  0  0  0  0  0  0
  189.0660  177.9530  138.2010 C   0  0  1  0  0  0  0  0  0  0  0  0
  183.1520  177.3290  137.6500 O   0  0  0  0  0  0  0  0  0  0  0  0
  183.5380  177.6080  138.8180 C   0  0  0  0  0  0  0  0  0  0  0  0
  188.5580  179.3230  138.3540 N   0  0  0  0  0  2  0  0  0  0  0  0
  186.7740  176.9130  144.7990 O   0  0  0  0  0  0  0  0  0  0  0  0
  183.3370  177.3030  141.3030 C   0  0  0  0  0  2  0  0  0  0  0  0
  186.8420  174.7240  136.1390 C   0  0  0  0  0  1  0  0  0  0  0  0
  188.2550  177.0730  143.1090 C   0  0  0  0  0  2  0  0  0  0  0  0
  184.5470  178.6050  139.0310 N   0  0  0  0  0  0  0  0  0  0  0  0
  187.4350  175.9090  136.8700 C   0  0  2  0  0  3  0  0  0  0  0  0
  185.4290  179.0120  137.9450 C   0  0  0  0  0  2  0  0  0  0  0  0
  188.4690  176.8350  141.7080 N   0  0  0  0  0  0  0  0  0  0  0  0
  186.8330  177.0860  143.4330 N   0  0  2  0  0  0  0  0  0  0  0  0
  186.3390  179.5010  147.4710 C   0  0  0  0  0  0  0  0  0  0  0  0
  186.1330  180.5640  148.0010 C   0  0  0  0  0  3  0  0  0  0  0  0
  1  9  1  0  0  0  0
  2  7  1  6  0  0  0
  2 14  1  0  0  0  0
  3 18  1  0  0  0  0
  4 14  1  1  0  0  0
  4 31  1  0  0  0  0
  4 16  1  0  0  0  0
  5 17  2  0  0  0  0
  6  8  1  0  0  0  0
  6 28  1  0  0  0  0
  8 19  1  0  0  0  0
  9 30  2  0  0  0  0
 10 17  1  6  0  0  0
 11 15  1  0  0  0  0
 12  1  1  0  0  0  0
 13  8  2  0  0  0  0
 15 24  1  0  0  0  0
 16  3  2  0  0  0  0
 17 29  1  0  0  0  0
 18 32  1  0  0  0  0
 19 22  1  0  0  0  0
 19 10  1  0  0  0  0
 19 12  1  1  0  0  0
 20 21  2  0  0  0  0
 21 27  1  0  0  0  0
 21 15  1  0  0  0  0
 22 10  1  0  0  0  0
 23  3  1  0  0  0  0
 24  2  1  0  0  0  0
 27  7  1  0  0  0  0
 28 25  1  6  0  0  0
 28  5  1  0  0  0  0
 29 27  1  0  0  0  0
 30 26  1  0  0  0  0
 31 26  1  1  0  0  0
 31 23  1  0  0  0  0
 32 33  3  0  0  0  0
M  END
>  <MODEL>
5

>  <REMARK>
 VINA RESULT:      -4.5      3.538      7.378
  Name = 
  1 active torsions:
  status: ('A' for Active; 'I' for Inactive)
    1  A    between atoms: C_4  and  N_19
                            x       y       z     vdW  Elec       q    Type
                         _______ _______ _______ _____ _____    ______ ____

>  <TORSDO>
F 1

$$$$
=
 OpenBabel10232409343D

 33 37  0  0  1  0  0  0  0  0999 V2000
  189.0670  177.7570  138.3040 C   0  0  0  0  0  2  0  0  0  0  0  0
  183.8470  175.8940  137.1070 C   0  0  1  0  0  3  0  0  0  0  0  0
  182.6260  179.3730  139.5940 C   0  0  0  0  0  0  0  0  0  0  0  0
  183.6910  178.2740  138.0130 C   0  0  1  0  0  3  0  0  0  0  0  0
  188.0310  174.1900  135.5810 C   0  0  0  0  0  3  0  0  0  0  0  0
  190.3850  174.9130  135.7940 C   0  0  0  0  0  2  0  0  0  0  0  0
  184.1710  176.0160  135.6210 C   0  0  0  0  0  2  0  0  0  0  0  0
  190.1110  176.3270  135.3630 C   0  0  0  0  0  0  0  0  0  0  0  0
  187.8930  178.4310  138.9330 C   0  0  0  0  0  3  0  0  0  0  0  0
  187.5490  176.6340  135.8370 C   0  0  1  0  0  3  0  0  0  0  0  0
  183.4740  172.2040  137.2930 O   0  0  0  0  0  1  0  0  0  0  0  0
  189.2230  178.2440  136.8720 C   0  0  0  0  0  2  0  0  0  0  0  0
  190.8850  176.8620  134.5880 O   0  0  0  0  0  0  0  0  0  0  0  0
  182.9420  177.0390  137.5190 C   0  0  0  0  0  2  0  0  0  0  0  0
  183.7950  173.4340  136.8260 N   0  0  0  0  0  0  0  0  0  0  0  0
  182.6890  179.2940  138.3160 N   0  0  0  0  0  0  0  0  0  0  0  0
  187.3270  175.2740  135.2220 C   0  0  0  0  0  0  0  0  0  0  0  0
  181.7210  180.2250  140.2980 N   0  0  0  0  0  2  0  0  0  0  0  0
  188.9400  177.1190  135.8940 C   0  0  1  0  0  0  0  0  0  0  0  0
  185.1790  172.5350  135.1730 O   0  0  0  0  0  0  0  0  0  0  0  0
  184.6560  173.5610  135.6890 C   0  0  0  0  0  0  0  0  0  0  0  0
  188.0550  177.5660  134.8100 N   0  0  0  0  0  2  0  0  0  0  0  0
  183.5430  178.5630  140.2120 O   0  0  0  0  0  0  0  0  0  0  0  0
  183.0770  174.5940  137.3460 C   0  0  0  0  0  2  0  0  0  0  0  0
  189.5920  172.8630  136.9390 C   0  0  0  0  0  1  0  0  0  0  0  0
  185.6080  178.7380  139.3270 C   0  0  0  0  0  2  0  0  0  0  0  0
  184.9490  174.8660  135.1680 N   0  0  0  0  0  0  0  0  0  0  0  0
  189.2060  174.2610  136.5060 C   0  0  2  0  0  3  0  0  0  0  0  0
  186.1310  175.0880  134.3460 C   0  0  0  0  0  2  0  0  0  0  0  0
  186.6970  178.0120  138.7350 N   0  0  0  0  0  0  0  0  0  0  0  0
  184.3720  177.9640  139.2890 N   0  0  2  0  0  0  0  0  0  0  0  0
  180.7850  181.0290  139.6310 C   0  0  0  0  0  0  0  0  0  0  0  0
  179.9820  181.7220  139.0570 C   0  0  0  0  0  3  0  0  0  0  0  0
  1  9  1  0  0  0  0
  2  7  1  6  0  0  0
  2 24  1  0  0  0  0
  2 14  1  0  0  0  0
  3 23  1  0  0  0  0
  3 18  1  0  0  0  0
  4 14  1  1  0  0  0
  4 16  1  0  0  0  0
  4 31  1  0  0  0  0
  5 28  1  0  0  0  0
  6 28  1  0  0  0  0
  8  6  1  0  0  0  0
  8 19  1  0  0  0  0
 10 22  1  6  0  0  0
 10 19  1  0  0  0  0
 12  1  1  0  0  0  0
 13  8  2  0  0  0  0
 15 11  1  0  0  0  0
 15 24  1  0  0  0  0
 16  3  2  0  0  0  0
 17  5  2  0  0  0  0
 17 10  1  0  0  0  0
 19 12  1  1  0  0  0
 20 21  2  0  0  0  0
 21 15  1  0  0  0  0
 22 19  1  0  0  0  0
 27  7  1  0  0  0  0
 27 21  1  0  0  0  0
 28 25  1  6  0  0  0
 29 27  1  0  0  0  0
 29 17  1  0  0  0  0
 30  9  2  0  0  0  0
 30 26  1  0  0  0  0
 31 26  1  6  0  0  0
 31 23  1  0  0  0  0
 32 18  1  0  0  0  0
 33 32  3  0  0  0  0
M  END
>  <MODEL>
6

>  <REMARK>
 VINA RESULT:      -4.4      3.060      8.104
  Name = 
  1 active torsions:
  status: ('A' for Active; 'I' for Inactive)
    1  A    between atoms: C_4  and  N_19
                            x       y       z     vdW  Elec       q    Type
                         _______ _______ _______ _____ _____    ______ ____

>  <TORSDO>
F 1

$$$$
=
 OpenBabel10232409343D

 33 37  0  0  1  0  0  0  0  0999 V2000
  185.6700  172.7670  137.3730 C   0  0  0  0  0  2  0  0  0  0  0  0
  189.5430  176.7840  136.3700 C   0  0  1  0  0  3  0  0  0  0  0  0
  192.3510  173.3360  136.4720 C   0  0  0  0  0  0  0  0  0  0  0  0
  190.5750  174.5000  135.8930 C   0  0  1  0  0  3  0  0  0  0  0  0
  184.8090  177.2410  136.7080 C   0  0  0  0  0  3  0  0  0  0  0  0
  182.9220  175.6630  136.9460 C   0  0  0  0  0  2  0  0  0  0  0  0
  188.7710  177.1810  135.1150 C   0  0  0  0  0  2  0  0  0  0  0  0
  183.3680  174.7790  135.8140 C   0  0  0  0  0  0  0  0  0  0  0  0
  187.1150  172.3920  137.3470 C   0  0  0  0  0  3  0  0  0  0  0  0
  185.9290  175.2990  135.5930 C   0  0  1  0  0  3  0  0  0  0  0  0
  189.0460  179.8950  138.3360 O   0  0  0  0  0  1  0  0  0  0  0  0
  185.1570  172.9030  135.9480 C   0  0  0  0  0  2  0  0  0  0  0  0
  182.5300  174.3670  135.0290 O   0  0  0  0  0  0  0  0  0  0  0  0
  190.7850  176.0100  135.9700 C   0  0  0  0  0  2  0  0  0  0  0  0
  188.8950  178.9520  137.3750 N   0  0  0  0  0  0  0  0  0  0  0  0
  191.8370  173.9110  135.4480 N   0  0  0  0  0  0  0  0  0  0  0  0
  185.5890  176.7630  135.7270 C   0  0  0  0  0  0  0  0  0  0  0  0
  193.6200  172.6820  136.4670 N   0  0  0  0  0  2  0  0  0  0  0  0
  184.8050  174.3480  135.6460 C   0  0  1  0  0  0  0  0  0  0  0  0
  186.8540  179.8590  136.6920 O   0  0  0  0  0  0  0  0  0  0  0  0
  187.7550  178.9960  136.5090 C   0  0  0  0  0  0  0  0  0  0  0  0
  185.3470  174.7670  134.3460 N   0  0  0  0  0  2  0  0  0  0  0  0
  191.5320  173.3990  137.5700 O   0  0  0  0  0  0  0  0  0  0  0  0
  190.0070  178.0490  137.0930 C   0  0  0  0  0  2  0  0  0  0  0  0
  183.5340  177.1780  138.8080 C   0  0  0  0  0  1  0  0  0  0  0  0
  189.3980  172.8410  137.1090 C   0  0  0  0  0  2  0  0  0  0  0  0
  187.6290  178.0250  135.4600 N   0  0  0  0  0  0  0  0  0  0  0  0
  184.0770  176.3500  137.6630 C   0  0  2  0  0  3  0  0  0  0  0  0
  186.3290  177.7370  134.8690 C   0  0  0  0  0  2  0  0  0  0  0  0
  188.0300  173.2750  137.1780 N   0  0  0  0  0  0  0  0  0  0  0  0
  190.3180  173.9650  137.2480 N   0  0  2  0  0  0  0  0  0  0  0  0
  194.4370  172.6510  135.3270 C   0  0  0  0  0  0  0  0  0  0  0  0
  195.1390  172.6230  134.3470 C   0  0  0  0  0  3  0  0  0  0  0  0
  2  7  1  6  0  0  0
  2 24  1  0  0  0  0
  3 23  1  0  0  0  0
  4 14  1  1  0  0  0
  4 31  1  0  0  0  0
  5 28  1  0  0  0  0
  6 28  1  0  0  0  0
  7 27  1  0  0  0  0
  8  6  1  0  0  0  0
  9  1  1  0  0  0  0
 10 22  1  6  0  0  0
 10 19  1  0  0  0  0
 10 17  1  0  0  0  0
 12  1  1  0  0  0  0
 13  8  2  0  0  0  0
 14  2  1  0  0  0  0
 15 11  1  0  0  0  0
 16  4  1  0  0  0  0
 16  3  2  0  0  0  0
 17  5  2  0  0  0  0
 18  3  1  0  0  0  0
 19  8  1  0  0  0  0
 19 12  1  1  0  0  0
 21 20  2  0  0  0  0
 21 15  1  0  0  0  0
 22 19  1  0  0  0  0
 24 15  1  0  0  0  0
 26 30  1  0  0  0  0
 27 21  1  0  0  0  0
 28 25  1  1  0  0  0
 29 27  1  0  0  0  0
 29 17  1  0  0  0  0
 30  9  2  0  0  0  0
 31 26  1  6  0  0  0
 31 23  1  0  0  0  0
 32 18  1  0  0  0  0
 33 32  3  0  0  0  0
M  END
>  <MODEL>
7

>  <REMARK>
 VINA RESULT:      -4.3      2.096      2.419
  Name = 
  1 active torsions:
  status: ('A' for Active; 'I' for Inactive)
    1  A    between atoms: C_4  and  N_19
                            x       y       z     vdW  Elec       q    Type
                         _______ _______ _______ _____ _____    ______ ____

>  <TORSDO>
F 1

$$$$
=
 OpenBabel10232409343D

 33 37  0  0  1  0  0  0  0  0999 V2000
  181.9880  177.0880  138.8540 C   0  0  0  0  0  2  0  0  0  0  0  0
  187.4800  178.0560  139.8750 C   0  0  1  0  0  3  0  0  0  0  0  0
  186.0380  178.6620  144.0390 C   0  0  0  0  0  0  0  0  0  0  0  0
  186.2810  177.6630  142.0920 C   0  0  1  0  0  3  0  0  0  0  0  0
  185.4010  176.7790  135.7780 C   0  0  0  0  0  3  0  0  0  0  0  0
  183.1090  176.1260  135.1200 C   0  0  0  0  0  2  0  0  0  0  0  0
  187.8040  176.6760  139.3080 C   0  0  0  0  0  2  0  0  0  0  0  0
  182.9590  175.1120  136.2210 C   0  0  0  0  0  0  0  0  0  0  0  0
  182.4080  177.5170  140.2200 C   0  0  0  0  0  3  0  0  0  0  0  0
  184.7190  175.8720  138.0110 C   0  0  1  0  0  3  0  0  0  0  0  0
  189.1610  180.1280  137.2920 O   0  0  0  0  0  1  0  0  0  0  0  0
  182.2790  175.6060  138.6770 C   0  0  0  0  0  2  0  0  0  0  0  0
  182.4490  174.0350  135.9580 O   0  0  0  0  0  0  0  0  0  0  0  0
  187.5890  178.0130  141.3870 C   0  0  0  0  0  2  0  0  0  0  0  0
  188.6140  179.0560  137.9140 N   0  0  0  0  0  0  0  0  0  0  0  0
  186.5640  177.6110  143.5260 N   0  0  0  0  0  0  0  0  0  0  0  0
  185.6990  176.0760  136.8820 C   0  0  0  0  0  0  0  0  0  0  0  0
  186.1380  179.0120  145.4190 N   0  0  0  0  0  2  0  0  0  0  0  0
  183.3720  175.3990  137.6440 C   0  0  1  0  0  0  0  0  0  0  0  0
  188.5480  177.8330  135.9250 O   0  0  0  0  0  0  0  0  0  0  0  0
  188.3490  177.8610  137.1700 C   0  0  0  0  0  0  0  0  0  0  0  0
  184.3790  174.4400  138.1190 N   0  0  0  0  0  2  0  0  0  0  0  0
  185.3480  179.4030  143.1150 O   0  0  0  0  0  0  0  0  0  0  0  0
  188.5180  179.0600  139.3700 C   0  0  0  0  0  2  0  0  0  0  0  0
  184.0750  178.2720  134.3460 C   0  0  0  0  0  1  0  0  0  0  0  0
  183.9770  178.1550  141.8340 C   0  0  0  0  0  2  0  0  0  0  0  0
  187.8180  176.7120  137.8470 N   0  0  0  0  0  0  0  0  0  0  0  0
  184.0220  177.2870  135.4940 C   0  0  2  0  0  3  0  0  0  0  0  0
  187.1200  175.6710  137.1040 C   0  0  0  0  0  2  0  0  0  0  0  0
  183.6310  177.8000  140.4850 N   0  0  0  0  0  0  0  0  0  0  0  0
  185.3040  178.7580  141.8980 N   0  0  2  0  0  0  0  0  0  0  0  0
  186.8660  178.2360  146.3330 C   0  0  0  0  0  0  0  0  0  0  0  0
  187.4930  177.5700  147.1190 C   0  0  0  0  0  3  0  0  0  0  0  0
  1  9  1  0  0  0  0
  2  7  1  6  0  0  0
  2 14  1  0  0  0  0
  3 18  1  0  0  0  0
  4 14  1  6  0  0  0
  4 16  1  0  0  0  0
  5 17  2  0  0  0  0
  6 28  1  0  0  0  0
  6  8  1  0  0  0  0
  8 19  1  0  0  0  0
  9 30  2  0  0  0  0
 10 17  1  6  0  0  0
 10 22  1  0  0  0  0
 11 15  1  0  0  0  0
 12  1  1  0  0  0  0
 13  8  2  0  0  0  0
 15 24  1  0  0  0  0
 16  3  2  0  0  0  0
 17 29  1  0  0  0  0
 18 32  1  0  0  0  0
 19 10  1  0  0  0  0
 19 22  1  0  0  0  0
 19 12  1  1  0  0  0
 20 21  2  0  0  0  0
 21 27  1  0  0  0  0
 21 15  1  0  0  0  0
 23  3  1  0  0  0  0
 24  2  1  0  0  0  0
 27  7  1  0  0  0  0
 28 25  1  6  0  0  0
 28  5  1  0  0  0  0
 29 27  1  0  0  0  0
 30 26  1  0  0  0  0
 31 26  1  1  0  0  0
 31  4  1  0  0  0  0
 31 23  1  0  0  0  0
 32 33  3  0  0  0  0
M  END
>  <MODEL>
8

>  <REMARK>
 VINA RESULT:      -3.1      3.475      6.594
  Name = 
  1 active torsions:
  status: ('A' for Active; 'I' for Inactive)
    1  A    between atoms: C_4  and  N_19
                            x       y       z     vdW  Elec       q    Type
                         _______ _______ _______ _____ _____    ______ ____

>  <TORSDO>
F 1

$$$$
