=
 OpenBabel10222422123D

 29 31  0  0  0  0  0  0  0  0999 V2000
  190.1120  177.3750  140.1800 N   0  0  0  0  0  0  0  0  0  0  0  0
  189.7050  177.0610  141.3780 C   0  0  0  0  0  0  0  0  0  0  0  0
  183.5400  178.8380  144.8280 C   0  0  0  0  0  1  0  0  0  0  0  0
  185.3930  179.2830  141.6030 C   0  0  0  0  0  3  0  0  0  0  0  0
  186.5420  178.5460  141.8650 C   0  0  0  0  0  0  0  0  0  0  0  0
  188.3990  177.5590  141.8370 C   0  0  0  0  0  0  0  0  0  0  0  0
  186.7170  177.9180  143.0550 C   0  0  0  0  0  0  0  0  0  0  0  0
  184.4460  179.3530  142.5850 N   0  0  0  0  0  0  0  0  0  0  0  0
  187.8940  177.2780  143.0700 N   0  0  0  0  0  0  0  0  0  0  0  0
  184.6040  178.7260  143.7950 C   0  0  0  0  0  0  0  0  0  0  0  0
  185.7650  177.9790  144.0660 C   0  0  0  0  0  3  0  0  0  0  0  0
  187.5950  178.3380  141.0630 N   0  0  0  0  0  2  0  0  0  0  0  0
  191.4390  175.9370  138.2520 S   0  0  0  0  0  0  0  0  0  0  0  0
  192.6270  177.4480  139.8640 C   0  0  0  0  0  3  0  0  0  0  0  0
  191.3460  177.0110  139.5390 C   0  0  0  0  0  0  0  0  0  0  0  0
  193.1140  176.0700  138.1500 C   0  0  0  0  0  0  0  0  0  0  0  0
  193.6060  176.9180  139.0820 N   0  0  0  0  0  0  0  0  0  0  0  0
  194.9200  175.9450  136.6310 O   0  0  0  0  0  0  0  0  0  0  0  0
  193.9480  175.3610  137.1780 C   0  0  0  0  0  0  0  0  0  0  0  0
  193.6780  174.0700  136.8620 F   0  0  0  0  0  0  0  0  0  0  0  0
  190.5410  176.2570  142.3250 C   0  0  0  0  0  2  0  0  0  0  0  0
  191.9770  178.1690  145.0860 O   0  0  0  0  0  0  0  0  0  0  0  0
  190.1160  176.7590  145.1660 N   0  0  0  0  0  2  0  0  0  0  0  0
  191.1990  177.3910  144.4740 C   0  0  0  0  0  0  0  0  0  0  0  0
  191.4090  177.1420  143.0850 N   0  0  0  0  0  2  0  0  0  0  0  0
  189.8410  176.9960  146.5750 C   0  0  0  0  0  2  0  0  0  0  0  0
  188.4000  177.4430  146.7560 C   0  0  0  0  0  2  0  0  0  0  0  0
  189.3010  178.3620  148.7650 O   0  0  0  0  0  1  0  0  0  0  0  0
  188.1450  177.8200  148.2030 C   0  0  0  0  0  2  0  0  0  0  0  0
  1  2  2  0  0  0  0
  2  6  1  0  0  0  0
  2 21  1  0  0  0  0
  4  5  2  0  0  0  0
  4  8  1  0  0  0  0
  5  7  1  0  0  0  0
  6  9  2  0  0  0  0
  7  9  1  0  0  0  0
  7 11  2  0  0  0  0
  8 10  2  0  0  0  0
 10 11  1  0  0  0  0
 10  3  1  0  0  0  0
 12  6  1  0  0  0  0
 12  5  1  0  0  0  0
 13 15  1  0  0  0  0
 15 14  2  0  0  0  0
 15  1  1  0  0  0  0
 16 13  1  0  0  0  0
 16 17  2  0  0  0  0
 17 14  1  0  0  0  0
 18 19  2  0  0  0  0
 19 16  1  0  0  0  0
 20 19  1  0  0  0  0
 21 25  1  0  0  0  0
 23 26  1  0  0  0  0
 24 22  2  0  0  0  0
 24 23  1  0  0  0  0
 25 24  1  0  0  0  0
 26 27  1  0  0  0  0
 27 29  1  0  0  0  0
 29 28  1  0  0  0  0
M  END
>  <MODEL>
1

>  <REMARK>
 VINA RESULT:      -7.8      0.000      0.000
  Name = 
  8 active torsions:
  status: ('A' for Active; 'I' for Inactive)
    1  A    between atoms: C_6  and  C_17
    2  A    between atoms: N_7  and  C_12
    3  A    between atoms: N_8  and  C_22
    4  A    between atoms: C_10  and  C_17
    5  A    between atoms: C_10  and  N_18
    6  A    between atoms: C_12  and  C_20
    7  A    between atoms: C_20  and  C_23
    8  A    between atoms: C_21  and  C_26
                            x       y       z     vdW  Elec       q    Type
                         _______ _______ _______ _____ _____    ______ ____

>  <TORSDO>
F 8

$$$$
=
 OpenBabel10222422123D

 29 31  0  0  0  0  0  0  0  0999 V2000
  189.1800  177.6640  140.5450 N   0  0  0  0  0  0  0  0  0  0  0  0
  188.6100  178.1700  141.6020 C   0  0  0  0  0  0  0  0  0  0  0  0
  192.2160  175.9600  147.5330 C   0  0  0  0  0  1  0  0  0  0  0  0
  188.8660  177.1390  146.3400 C   0  0  0  0  0  3  0  0  0  0  0  0
  189.1320  177.3370  144.9910 C   0  0  0  0  0  0  0  0  0  0  0  0
  189.0930  177.7660  142.9320 C   0  0  0  0  0  0  0  0  0  0  0  0
  190.3630  177.0970  144.4740 C   0  0  0  0  0  0  0  0  0  0  0  0
  189.8880  176.6930  147.1290 N   0  0  0  0  0  0  0  0  0  0  0  0
  190.3720  177.3600  143.1610 N   0  0  0  0  0  0  0  0  0  0  0  0
  191.1400  176.4440  146.6270 C   0  0  0  0  0  0  0  0  0  0  0  0
  191.4150  176.6430  145.2620 C   0  0  0  0  0  3  0  0  0  0  0  0
  188.2960  177.7650  144.0350 N   0  0  0  0  0  2  0  0  0  0  0  0
  188.1380  176.7720  138.1650 S   0  0  0  0  0  0  0  0  0  0  0  0
  189.1070  179.0690  138.4350 C   0  0  0  0  0  3  0  0  0  0  0  0
  188.8640  177.9090  139.1640 C   0  0  0  0  0  0  0  0  0  0  0  0
  188.1540  177.8030  136.8350 C   0  0  0  0  0  0  0  0  0  0  0  0
  188.7060  179.0000  137.1370 N   0  0  0  0  0  0  0  0  0  0  0  0
  186.9020  178.2680  134.8850 O   0  0  0  0  0  0  0  0  0  0  0  0
  187.6390  177.4600  135.5080 C   0  0  0  0  0  0  0  0  0  0  0  0
  187.9530  176.2680  134.9430 F   0  0  0  0  0  0  0  0  0  0  0  0
  187.4440  179.1070  141.5150 C   0  0  0  0  0  2  0  0  0  0  0  0
  184.0350  177.8110  141.7130 O   0  0  0  0  0  0  0  0  0  0  0  0
  185.0310  179.3800  143.1290 N   0  0  0  0  0  2  0  0  0  0  0  0
  185.0550  178.4860  142.0100 C   0  0  0  0  0  0  0  0  0  0  0  0
  186.2340  178.3560  141.2180 N   0  0  0  0  0  2  0  0  0  0  0  0
  183.8650  179.5340  143.9850 C   0  0  0  0  0  2  0  0  0  0  0  0
  184.1120  178.8660  145.3270 C   0  0  0  0  0  2  0  0  0  0  0  0
  185.5650  179.3670  147.1520 O   0  0  0  0  0  1  0  0  0  0  0  0
  185.5390  179.1100  145.7810 C   0  0  0  0  0  2  0  0  0  0  0  0
  1  2  2  0  0  0  0
  2  6  1  0  0  0  0
  4  8  1  0  0  0  0
  5  4  2  0  0  0  0
  6  9  2  0  0  0  0
  6 12  1  0  0  0  0
  7  5  1  0  0  0  0
  7 11  2  0  0  0  0
  9  7  1  0  0  0  0
 10  8  2  0  0  0  0
 10  3  1  0  0  0  0
 11 10  1  0  0  0  0
 12  5  1  0  0  0  0
 13 15  1  0  0  0  0
 14 15  2  0  0  0  0
 15  1  1  0  0  0  0
 16 17  2  0  0  0  0
 16 13  1  0  0  0  0
 17 14  1  0  0  0  0
 18 19  2  0  0  0  0
 19 16  1  0  0  0  0
 20 19  1  0  0  0  0
 21  2  1  0  0  0  0
 22 24  2  0  0  0  0
 23 26  1  0  0  0  0
 24 23  1  0  0  0  0
 25 21  1  0  0  0  0
 25 24  1  0  0  0  0
 26 27  1  0  0  0  0
 27 29  1  0  0  0  0
 29 28  1  0  0  0  0
M  END
>  <MODEL>
2

>  <REMARK>
 VINA RESULT:      -7.7      3.386      5.575
  Name = 
  8 active torsions:
  status: ('A' for Active; 'I' for Inactive)
    1  A    between atoms: C_6  and  C_17
    2  A    between atoms: N_7  and  C_12
    3  A    between atoms: N_8  and  C_22
    4  A    between atoms: C_10  and  C_17
    5  A    between atoms: C_10  and  N_18
    6  A    between atoms: C_12  and  C_20
    7  A    between atoms: C_20  and  C_23
    8  A    between atoms: C_21  and  C_26
                            x       y       z     vdW  Elec       q    Type
                         _______ _______ _______ _____ _____    ______ ____

>  <TORSDO>
F 8

$$$$
=
 OpenBabel10222422123D

 29 31  0  0  0  0  0  0  0  0999 V2000
  188.1440  177.2970  141.7940 N   0  0  0  0  0  0  0  0  0  0  0  0
  189.4250  177.5240  141.7140 C   0  0  0  0  0  0  0  0  0  0  0  0
  194.0700  176.0730  136.2940 C   0  0  0  0  0  1  0  0  0  0  0  0
  190.4240  176.2320  137.1410 C   0  0  0  0  0  3  0  0  0  0  0  0
  190.4900  176.6180  138.4750 C   0  0  0  0  0  0  0  0  0  0  0  0
  190.1300  177.1820  140.4690 C   0  0  0  0  0  0  0  0  0  0  0  0
  191.6810  176.8230  139.0890 C   0  0  0  0  0  0  0  0  0  0  0  0
  191.6030  176.0660  136.4700 N   0  0  0  0  0  0  0  0  0  0  0  0
  191.4880  177.1850  140.3640 N   0  0  0  0  0  0  0  0  0  0  0  0
  192.8180  176.2690  137.0720 C   0  0  0  0  0  0  0  0  0  0  0  0
  192.8900  176.6590  138.4230 C   0  0  0  0  0  3  0  0  0  0  0  0
  189.4780  176.8380  139.3250 N   0  0  0  0  0  2  0  0  0  0  0  0
  185.9710  178.6050  142.8500 S   0  0  0  0  0  0  0  0  0  0  0  0
  187.3430  176.9790  144.1790 C   0  0  0  0  0  3  0  0  0  0  0  0
  187.2680  177.5400  142.9070 C   0  0  0  0  0  0  0  0  0  0  0  0
  185.5460  178.3080  144.4510 C   0  0  0  0  0  0  0  0  0  0  0  0
  186.3760  177.4140  145.0330 N   0  0  0  0  0  0  0  0  0  0  0  0
  184.2660  178.7760  146.3830 O   0  0  0  0  0  0  0  0  0  0  0  0
  184.4180  178.9360  145.1440 C   0  0  0  0  0  0  0  0  0  0  0  0
  183.5310  179.6930  144.4530 F   0  0  0  0  0  0  0  0  0  0  0  0
  190.2170  178.0680  142.8630 C   0  0  0  0  0  2  0  0  0  0  0  0
  191.9560  175.8020  145.1400 O   0  0  0  0  0  0  0  0  0  0  0  0
  190.3000  177.3550  145.6900 N   0  0  0  0  0  2  0  0  0  0  0  0
  191.1580  176.6960  144.7520 C   0  0  0  0  0  0  0  0  0  0  0  0
  191.1140  177.0420  143.3690 N   0  0  0  0  0  2  0  0  0  0  0  0
  190.3190  177.0600  147.1140 C   0  0  0  0  0  2  0  0  0  0  0  0
  188.9000  176.9230  147.6380 C   0  0  0  0  0  2  0  0  0  0  0  0
  187.2760  178.6250  148.0390 O   0  0  0  0  0  1  0  0  0  0  0  0
  188.5200  178.1460  148.4520 C   0  0  0  0  0  2  0  0  0  0  0  0
  1 15  1  0  0  0  0
  2  1  2  0  0  0  0
  2 21  1  0  0  0  0
  3 10  1  0  0  0  0
  4  5  1  0  0  0  0
  5  7  2  0  0  0  0
  5 12  1  0  0  0  0
  6  2  1  0  0  0  0
  7  9  1  0  0  0  0
  8 10  1  0  0  0  0
  8  4  2  0  0  0  0
  9  6  2  0  0  0  0
 10 11  2  0  0  0  0
 11  7  1  0  0  0  0
 12  6  1  0  0  0  0
 13 15  1  0  0  0  0
 13 16  1  0  0  0  0
 14 17  1  0  0  0  0
 15 14  2  0  0  0  0
 16 17  2  0  0  0  0
 16 19  1  0  0  0  0
 19 18  2  0  0  0  0
 20 19  1  0  0  0  0
 21 25  1  0  0  0  0
 23 26  1  0  0  0  0
 24 22  2  0  0  0  0
 24 23  1  0  0  0  0
 25 24  1  0  0  0  0
 26 27  1  0  0  0  0
 27 29  1  0  0  0  0
 28 29  1  0  0  0  0
M  END
>  <MODEL>
3

>  <REMARK>
 VINA RESULT:      -7.4      3.681      7.377
  Name = 
  8 active torsions:
  status: ('A' for Active; 'I' for Inactive)
    1  A    between atoms: C_6  and  C_17
    2  A    between atoms: N_7  and  C_12
    3  A    between atoms: N_8  and  C_22
    4  A    between atoms: C_10  and  C_17
    5  A    between atoms: C_10  and  N_18
    6  A    between atoms: C_12  and  C_20
    7  A    between atoms: C_20  and  C_23
    8  A    between atoms: C_21  and  C_26
                            x       y       z     vdW  Elec       q    Type
                         _______ _______ _______ _____ _____    ______ ____

>  <TORSDO>
F 8

$$$$
=
 OpenBabel10222422123D

 29 31  0  0  0  0  0  0  0  0999 V2000
  189.4590  176.8080  142.5000 N   0  0  0  0  0  0  0  0  0  0  0  0
  189.3520  177.5240  141.4160 C   0  0  0  0  0  0  0  0  0  0  0  0
  193.9830  175.7820  136.0710 C   0  0  0  0  0  1  0  0  0  0  0  0
  190.3580  175.7360  137.0160 C   0  0  0  0  0  3  0  0  0  0  0  0
  190.4190  176.2970  138.2850 C   0  0  0  0  0  0  0  0  0  0  0  0
  190.0560  177.0840  140.2020 C   0  0  0  0  0  0  0  0  0  0  0  0
  191.6010  176.6820  138.8270 C   0  0  0  0  0  0  0  0  0  0  0  0
  191.5310  175.5860  136.3310 N   0  0  0  0  0  0  0  0  0  0  0  0
  191.4050  177.1900  140.0510 N   0  0  0  0  0  0  0  0  0  0  0  0
  192.7370  175.9690  136.8600 C   0  0  0  0  0  0  0  0  0  0  0  0
  192.8050  176.5370  138.1460 C   0  0  0  0  0  3  0  0  0  0  0  0
  189.4110  176.5390  139.1340 N   0  0  0  0  0  2  0  0  0  0  0  0
  189.7530  177.5520  145.1280 S   0  0  0  0  0  0  0  0  0  0  0  0
  187.5340  176.9160  144.1470 C   0  0  0  0  0  3  0  0  0  0  0  0
  188.8720  177.0550  143.7880 C   0  0  0  0  0  0  0  0  0  0  0  0
  188.3940  177.5780  146.1200 C   0  0  0  0  0  0  0  0  0  0  0  0
  187.2780  177.2120  145.4500 N   0  0  0  0  0  0  0  0  0  0  0  0
  187.3510  178.3570  148.0930 O   0  0  0  0  0  0  0  0  0  0  0  0
  188.4040  177.9490  147.5370 C   0  0  0  0  0  0  0  0  0  0  0  0
  189.5480  177.8540  148.2580 F   0  0  0  0  0  0  0  0  0  0  0  0
  188.5820  178.8080  141.3760 C   0  0  0  0  0  2  0  0  0  0  0  0
  185.1920  178.6750  140.0240 O   0  0  0  0  0  0  0  0  0  0  0  0
  185.8080  179.0350  142.2480 N   0  0  0  0  0  2  0  0  0  0  0  0
  186.1160  178.7920  140.8710 C   0  0  0  0  0  0  0  0  0  0  0  0
  187.4730  178.6860  140.4440 N   0  0  0  0  0  2  0  0  0  0  0  0
  184.4430  179.1280  142.7430 C   0  0  0  0  0  2  0  0  0  0  0  0
  184.4350  179.7290  144.1390 C   0  0  0  0  0  2  0  0  0  0  0  0
  184.4140  178.8050  146.3380 O   0  0  0  0  0  1  0  0  0  0  0  0
  183.7500  178.7870  145.1110 C   0  0  0  0  0  2  0  0  0  0  0  0
  1 15  1  0  0  0  0
  2  1  2  0  0  0  0
  3 10  1  0  0  0  0
  4  5  1  0  0  0  0
  5  7  2  0  0  0  0
  5 12  1  0  0  0  0
  6  2  1  0  0  0  0
  7  9  1  0  0  0  0
  8 10  1  0  0  0  0
  8  4  2  0  0  0  0
  9  6  2  0  0  0  0
 10 11  2  0  0  0  0
 11  7  1  0  0  0  0
 12  6  1  0  0  0  0
 13 16  1  0  0  0  0
 14 17  1  0  0  0  0
 15 14  2  0  0  0  0
 15 13  1  0  0  0  0
 16 19  1  0  0  0  0
 17 16  2  0  0  0  0
 19 18  2  0  0  0  0
 19 20  1  0  0  0  0
 21  2  1  0  0  0  0
 22 24  2  0  0  0  0
 23 26  1  0  0  0  0
 24 23  1  0  0  0  0
 25 24  1  0  0  0  0
 25 21  1  0  0  0  0
 26 27  1  0  0  0  0
 27 29  1  0  0  0  0
 29 28  1  0  0  0  0
M  END
>  <MODEL>
4

>  <REMARK>
 VINA RESULT:      -7.3      3.797      7.863
  Name = 
  8 active torsions:
  status: ('A' for Active; 'I' for Inactive)
    1  A    between atoms: C_6  and  C_17
    2  A    between atoms: N_7  and  C_12
    3  A    between atoms: N_8  and  C_22
    4  A    between atoms: C_10  and  C_17
    5  A    between atoms: C_10  and  N_18
    6  A    between atoms: C_12  and  C_20
    7  A    between atoms: C_20  and  C_23
    8  A    between atoms: C_21  and  C_26
                            x       y       z     vdW  Elec       q    Type
                         _______ _______ _______ _____ _____    ______ ____

>  <TORSDO>
F 8

$$$$
=
 OpenBabel10222422123D

 29 31  0  0  0  0  0  0  0  0999 V2000
  187.6960  177.3830  141.8790 N   0  0  0  0  0  0  0  0  0  0  0  0
  188.9410  177.5750  141.5460 C   0  0  0  0  0  0  0  0  0  0  0  0
  191.7740  175.3920  135.2000 C   0  0  0  0  0  1  0  0  0  0  0  0
  189.3690  177.8310  136.7160 C   0  0  0  0  0  3  0  0  0  0  0  0
  189.4850  177.5010  138.0610 C   0  0  0  0  0  0  0  0  0  0  0  0
  189.3490  177.3340  140.1530 C   0  0  0  0  0  0  0  0  0  0  0  0
  190.3190  176.5130  138.4720 C   0  0  0  0  0  0  0  0  0  0  0  0
  190.1250  177.1270  135.8220 N   0  0  0  0  0  0  0  0  0  0  0  0
  190.2570  176.3810  139.8040 N   0  0  0  0  0  0  0  0  0  0  0  0
  190.9750  176.1250  136.2170 C   0  0  0  0  0  0  0  0  0  0  0  0
  191.0950  175.7860  137.5770 C   0  0  0  0  0  3  0  0  0  0  0  0
  188.8490  178.0460  139.1060 N   0  0  0  0  0  2  0  0  0  0  0  0
  185.7170  178.4750  143.4410 S   0  0  0  0  0  0  0  0  0  0  0  0
  187.5170  177.0020  144.3800 C   0  0  0  0  0  3  0  0  0  0  0  0
  187.0880  177.5450  143.1720 C   0  0  0  0  0  0  0  0  0  0  0  0
  185.7130  178.1470  145.0910 C   0  0  0  0  0  0  0  0  0  0  0  0
  186.7410  177.3430  145.4450 N   0  0  0  0  0  0  0  0  0  0  0  0
  185.0210  178.7890  147.2590 O   0  0  0  0  0  0  0  0  0  0  0  0
  184.7260  178.6640  146.0420 C   0  0  0  0  0  0  0  0  0  0  0  0
  183.4870  179.0100  145.6140 F   0  0  0  0  0  0  0  0  0  0  0  0
  189.9850  177.9800  142.5410 C   0  0  0  0  0  2  0  0  0  0  0  0
  191.9800  175.5040  144.3390 O   0  0  0  0  0  0  0  0  0  0  0  0
  190.7090  177.2310  145.2650 N   0  0  0  0  0  2  0  0  0  0  0  0
  191.2170  176.4880  144.1510 C   0  0  0  0  0  0  0  0  0  0  0  0
  190.8590  176.8520  142.8200 N   0  0  0  0  0  2  0  0  0  0  0  0
  191.0600  176.9210  146.6420 C   0  0  0  0  0  2  0  0  0  0  0  0
  189.8010  176.7010  147.4640 C   0  0  0  0  0  2  0  0  0  0  0  0
  188.2150  177.8460  148.8310 O   0  0  0  0  0  1  0  0  0  0  0  0
  189.1820  178.0340  147.8430 C   0  0  0  0  0  2  0  0  0  0  0  0
  1 15  1  0  0  0  0
  2  1  2  0  0  0  0
  2 21  1  0  0  0  0
  3 10  1  0  0  0  0
  4  5  1  0  0  0  0
  5  7  2  0  0  0  0
  5 12  1  0  0  0  0
  6  2  1  0  0  0  0
  7  9  1  0  0  0  0
  8 10  1  0  0  0  0
  8  4  2  0  0  0  0
  9  6  2  0  0  0  0
 10 11  2  0  0  0  0
 11  7  1  0  0  0  0
 12  6  1  0  0  0  0
 13 16  1  0  0  0  0
 14 17  1  0  0  0  0
 15 13  1  0  0  0  0
 15 14  2  0  0  0  0
 16 17  2  0  0  0  0
 16 19  1  0  0  0  0
 19 18  2  0  0  0  0
 20 19  1  0  0  0  0
 21 25  1  0  0  0  0
 23 26  1  0  0  0  0
 24 22  2  0  0  0  0
 24 23  1  0  0  0  0
 25 24  1  0  0  0  0
 26 27  1  0  0  0  0
 27 29  1  0  0  0  0
 29 28  1  0  0  0  0
M  END
>  <MODEL>
5

>  <REMARK>
 VINA RESULT:      -7.2      3.863      7.267
  Name = 
  8 active torsions:
  status: ('A' for Active; 'I' for Inactive)
    1  A    between atoms: C_6  and  C_17
    2  A    between atoms: N_7  and  C_12
    3  A    between atoms: N_8  and  C_22
    4  A    between atoms: C_10  and  C_17
    5  A    between atoms: C_10  and  N_18
    6  A    between atoms: C_12  and  C_20
    7  A    between atoms: C_20  and  C_23
    8  A    between atoms: C_21  and  C_26
                            x       y       z     vdW  Elec       q    Type
                         _______ _______ _______ _____ _____    ______ ____

>  <TORSDO>
F 8

$$$$
=
 OpenBabel10222422123D

 29 31  0  0  0  0  0  0  0  0999 V2000
  190.4050  177.4150  142.4600 N   0  0  0  0  0  0  0  0  0  0  0  0
  189.3030  177.2740  141.7780 C   0  0  0  0  0  0  0  0  0  0  0  0
  190.1350  176.4890  134.5840 C   0  0  0  0  0  1  0  0  0  0  0  0
  188.9080  178.8650  137.2080 C   0  0  0  0  0  3  0  0  0  0  0  0
  189.1580  178.1260  138.3570 C   0  0  0  0  0  0  0  0  0  0  0  0
  189.3580  177.3730  140.3110 C   0  0  0  0  0  0  0  0  0  0  0  0
  189.7100  176.8880  138.2910 C   0  0  0  0  0  0  0  0  0  0  0  0
  189.2380  178.3020  136.0070 N   0  0  0  0  0  0  0  0  0  0  0  0
  189.8520  176.3790  139.5220 N   0  0  0  0  0  0  0  0  0  0  0  0
  189.7960  177.0530  135.9170 C   0  0  0  0  0  0  0  0  0  0  0  0
  190.0510  176.2990  137.0780 C   0  0  0  0  0  3  0  0  0  0  0  0
  188.9210  178.4680  139.6310 N   0  0  0  0  0  2  0  0  0  0  0  0
  191.5670  176.2560  144.6630 S   0  0  0  0  0  0  0  0  0  0  0  0
  189.9710  178.1820  144.8380 C   0  0  0  0  0  3  0  0  0  0  0  0
  190.5780  177.3670  143.8860 C   0  0  0  0  0  0  0  0  0  0  0  0
  191.1920  176.8580  146.1890 C   0  0  0  0  0  0  0  0  0  0  0  0
  190.3220  177.8910  146.1190 N   0  0  0  0  0  0  0  0  0  0  0  0
  192.2770  177.1140  148.2730 O   0  0  0  0  0  0  0  0  0  0  0  0
  191.7310  176.3370  147.4470 C   0  0  0  0  0  0  0  0  0  0  0  0
  191.6470  175.0130  147.7260 F   0  0  0  0  0  0  0  0  0  0  0  0
  187.9730  177.0690  142.4350 C   0  0  0  0  0  2  0  0  0  0  0  0
  185.2150  179.4610  142.3320 O   0  0  0  0  0  0  0  0  0  0  0  0
  185.8850  178.1610  144.1540 N   0  0  0  0  0  2  0  0  0  0  0  0
  186.0070  178.5990  142.7960 C   0  0  0  0  0  0  0  0  0  0  0  0
  187.0310  178.0690  141.9570 N   0  0  0  0  0  2  0  0  0  0  0  0
  184.8450  178.6500  145.0460 C   0  0  0  0  0  2  0  0  0  0  0  0
  185.3060  178.5460  146.4900 C   0  0  0  0  0  2  0  0  0  0  0  0
  187.2930  178.1590  147.7520 O   0  0  0  0  0  1  0  0  0  0  0  0
  186.6400  177.8260  146.5650 C   0  0  0  0  0  2  0  0  0  0  0  0
  1 15  1  0  0  0  0
  2 21  1  0  0  0  0
  2  1  2  0  0  0  0
  3 10  1  0  0  0  0
  4  5  1  0  0  0  0
  5 12  1  0  0  0  0
  6  2  1  0  0  0  0
  7  5  2  0  0  0  0
  7  9  1  0  0  0  0
  8  4  2  0  0  0  0
  9  6  2  0  0  0  0
 10  8  1  0  0  0  0
 10 11  2  0  0  0  0
 11  7  1  0  0  0  0
 12  6  1  0  0  0  0
 13 16  1  0  0  0  0
 14 17  1  0  0  0  0
 15 13  1  0  0  0  0
 15 14  2  0  0  0  0
 16 19  1  0  0  0  0
 17 16  2  0  0  0  0
 19 20  1  0  0  0  0
 19 18  2  0  0  0  0
 22 24  2  0  0  0  0
 23 26  1  0  0  0  0
 24 23  1  0  0  0  0
 25 21  1  0  0  0  0
 25 24  1  0  0  0  0
 26 27  1  0  0  0  0
 27 29  1  0  0  0  0
 29 28  1  0  0  0  0
M  END
>  <MODEL>
6

>  <REMARK>
 VINA RESULT:      -7.2      3.788      6.657
  Name = 
  8 active torsions:
  status: ('A' for Active; 'I' for Inactive)
    1  A    between atoms: C_6  and  C_17
    2  A    between atoms: N_7  and  C_12
    3  A    between atoms: N_8  and  C_22
    4  A    between atoms: C_10  and  C_17
    5  A    between atoms: C_10  and  N_18
    6  A    between atoms: C_12  and  C_20
    7  A    between atoms: C_20  and  C_23
    8  A    between atoms: C_21  and  C_26
                            x       y       z     vdW  Elec       q    Type
                         _______ _______ _______ _____ _____    ______ ____

>  <TORSDO>
F 8

$$$$
=
 OpenBabel10222422123D

 29 31  0  0  0  0  0  0  0  0999 V2000
  187.6620  177.8700  144.7230 N   0  0  0  0  0  0  0  0  0  0  0  0
  187.2020  177.8120  143.5050 C   0  0  0  0  0  0  0  0  0  0  0  0
  180.4800  179.0600  140.9910 C   0  0  0  0  0  1  0  0  0  0  0  0
  182.5500  179.0640  144.1130 C   0  0  0  0  0  3  0  0  0  0  0  0
  183.7820  178.6750  143.6020 C   0  0  0  0  0  0  0  0  0  0  0  0
  185.7840  178.1230  143.2660 C   0  0  0  0  0  0  0  0  0  0  0  0
  183.9450  178.4170  142.2810 C   0  0  0  0  0  0  0  0  0  0  0  0
  181.5070  179.1770  143.2380 N   0  0  0  0  0  0  0  0  0  0  0  0
  185.2130  178.0620  142.0320 N   0  0  0  0  0  0  0  0  0  0  0  0
  181.6500  178.9210  141.8980 C   0  0  0  0  0  0  0  0  0  0  0  0
  182.8960  178.5260  141.3750 C   0  0  0  0  0  3  0  0  0  0  0  0
  184.9350  178.4980  144.2620 N   0  0  0  0  0  2  0  0  0  0  0  0
  189.3390  176.6970  146.5560 S   0  0  0  0  0  0  0  0  0  0  0  0
  190.1910  178.0250  144.6060 C   0  0  0  0  0  3  0  0  0  0  0  0
  188.9970  177.5970  145.1810 C   0  0  0  0  0  0  0  0  0  0  0  0
  191.0010  176.8790  146.3670 C   0  0  0  0  0  0  0  0  0  0  0  0
  191.3030  177.6170  145.2750 N   0  0  0  0  0  0  0  0  0  0  0  0
  192.3380  176.9290  148.3160 O   0  0  0  0  0  0  0  0  0  0  0  0
  192.0090  176.3150  147.2680 C   0  0  0  0  0  0  0  0  0  0  0  0
  192.5940  175.1270  146.9750 F   0  0  0  0  0  0  0  0  0  0  0  0
  188.0500  177.3860  142.3470 C   0  0  0  0  0  2  0  0  0  0  0  0
  188.6350  179.1610  139.2080 O   0  0  0  0  0  0  0  0  0  0  0  0
  189.3920  177.0270  139.7820 N   0  0  0  0  0  2  0  0  0  0  0  0
  188.6840  178.2400  140.0650 C   0  0  0  0  0  0  0  0  0  0  0  0
  188.0240  178.4130  141.3170 N   0  0  0  0  0  2  0  0  0  0  0  0
  190.1030  176.8060  138.5320 C   0  0  0  0  0  2  0  0  0  0  0  0
  191.5510  176.4410  138.8140 C   0  0  0  0  0  2  0  0  0  0  0  0
  193.6280  176.9130  137.7400 O   0  0  0  0  0  1  0  0  0  0  0  0
  192.3460  176.4100  137.5220 C   0  0  0  0  0  2  0  0  0  0  0  0
  1 15  1  0  0  0  0
  2  1  2  0  0  0  0
  3 10  1  0  0  0  0
  5  4  1  0  0  0  0
  5 12  1  0  0  0  0
  6  2  1  0  0  0  0
  6 12  1  0  0  0  0
  7  5  2  0  0  0  0
  8  4  2  0  0  0  0
  9  7  1  0  0  0  0
  9  6  2  0  0  0  0
 10  8  1  0  0  0  0
 11 10  2  0  0  0  0
 11  7  1  0  0  0  0
 14 15  2  0  0  0  0
 14 17  1  0  0  0  0
 15 13  1  0  0  0  0
 16 13  1  0  0  0  0
 16 19  1  0  0  0  0
 17 16  2  0  0  0  0
 19 18  2  0  0  0  0
 20 19  1  0  0  0  0
 21  2  1  0  0  0  0
 22 24  2  0  0  0  0
 23 24  1  0  0  0  0
 24 25  1  0  0  0  0
 25 21  1  0  0  0  0
 26 27  1  0  0  0  0
 26 23  1  0  0  0  0
 29 28  1  0  0  0  0
 29 27  1  0  0  0  0
M  END
>  <MODEL>
7

>  <REMARK>
 VINA RESULT:      -7.1      3.382      6.753
  Name = 
  8 active torsions:
  status: ('A' for Active; 'I' for Inactive)
    1  A    between atoms: C_6  and  C_17
    2  A    between atoms: N_7  and  C_12
    3  A    between atoms: N_8  and  C_22
    4  A    between atoms: C_10  and  C_17
    5  A    between atoms: C_10  and  N_18
    6  A    between atoms: C_12  and  C_20
    7  A    between atoms: C_20  and  C_23
    8  A    between atoms: C_21  and  C_26
                            x       y       z     vdW  Elec       q    Type
                         _______ _______ _______ _____ _____    ______ ____

>  <TORSDO>
F 8

$$$$
=
 OpenBabel10222422123D

 29 31  0  0  0  0  0  0  0  0999 V2000
  186.4460  177.8590  143.4560 N   0  0  0  0  0  0  0  0  0  0  0  0
  186.5270  178.3970  142.2720 C   0  0  0  0  0  0  0  0  0  0  0  0
  181.2420  180.0150  137.5270 C   0  0  0  0  0  1  0  0  0  0  0  0
  181.9280  178.1940  140.7280 C   0  0  0  0  0  3  0  0  0  0  0  0
  183.2860  178.4460  140.8780 C   0  0  0  0  0  0  0  0  0  0  0  0
  185.2950  178.5740  141.4870 C   0  0  0  0  0  0  0  0  0  0  0  0
  183.9680  179.1850  139.9680 C   0  0  0  0  0  0  0  0  0  0  0  0
  181.3020  178.7190  139.6320 N   0  0  0  0  0  0  0  0  0  0  0  0
  185.2550  179.2870  140.3270 N   0  0  0  0  0  0  0  0  0  0  0  0
  181.9730  179.4690  138.7010 C   0  0  0  0  0  0  0  0  0  0  0  0
  183.3490  179.7260  138.8470 C   0  0  0  0  0  3  0  0  0  0  0  0
  184.1010  178.0390  141.8610 N   0  0  0  0  0  2  0  0  0  0  0  0
  187.4780  178.0390  145.9960 S   0  0  0  0  0  0  0  0  0  0  0  0
  188.7160  176.9380  144.1130 C   0  0  0  0  0  3  0  0  0  0  0  0
  187.5120  177.5840  144.3800 C   0  0  0  0  0  0  0  0  0  0  0  0
  189.0000  177.3910  146.3000 C   0  0  0  0  0  0  0  0  0  0  0  0
  189.5380  176.8340  145.1920 N   0  0  0  0  0  0  0  0  0  0  0  0
  190.8170  176.9100  147.7350 O   0  0  0  0  0  0  0  0  0  0  0  0
  189.6730  177.4190  147.6010 C   0  0  0  0  0  0  0  0  0  0  0  0
  189.0670  177.9940  148.6690 F   0  0  0  0  0  0  0  0  0  0  0  0
  187.8340  178.7900  141.6570 C   0  0  0  0  0  2  0  0  0  0  0  0
  189.3090  176.6020  139.1310 O   0  0  0  0  0  0  0  0  0  0  0  0
  188.5420  178.7870  138.8270 N   0  0  0  0  0  2  0  0  0  0  0  0
  188.7860  177.6300  139.6350 C   0  0  0  0  0  0  0  0  0  0  0  0
  188.4440  177.6340  141.0200 N   0  0  0  0  0  2  0  0  0  0  0  0
  188.8480  178.8310  137.4060 C   0  0  0  0  0  2  0  0  0  0  0  0
  187.5620  178.8340  136.5960 C   0  0  0  0  0  2  0  0  0  0  0  0
  185.6550  177.5250  137.1820 O   0  0  0  0  0  1  0  0  0  0  0  0
  186.9270  177.4560  136.6140 C   0  0  0  0  0  2  0  0  0  0  0  0
  1 15  1  0  0  0  0
  2  1  2  0  0  0  0
  3 10  1  0  0  0  0
  4  5  1  0  0  0  0
  5 12  1  0  0  0  0
  6 12  1  0  0  0  0
  6  2  1  0  0  0  0
  7  9  1  0  0  0  0
  7  5  2  0  0  0  0
  8  4  2  0  0  0  0
  9  6  2  0  0  0  0
 10 11  2  0  0  0  0
 10  8  1  0  0  0  0
 11  7  1  0  0  0  0
 13 16  1  0  0  0  0
 14 15  2  0  0  0  0
 14 17  1  0  0  0  0
 15 13  1  0  0  0  0
 16 19  1  0  0  0  0
 17 16  2  0  0  0  0
 19 18  2  0  0  0  0
 19 20  1  0  0  0  0
 21  2  1  0  0  0  0
 22 24  2  0  0  0  0
 23 24  1  0  0  0  0
 24 25  1  0  0  0  0
 25 21  1  0  0  0  0
 26 23  1  0  0  0  0
 27 29  1  0  0  0  0
 27 26  1  0  0  0  0
 29 28  1  0  0  0  0
M  END
>  <MODEL>
8

>  <REMARK>
 VINA RESULT:      -7.0      4.556      7.516
  Name = 
  8 active torsions:
  status: ('A' for Active; 'I' for Inactive)
    1  A    between atoms: C_6  and  C_17
    2  A    between atoms: N_7  and  C_12
    3  A    between atoms: N_8  and  C_22
    4  A    between atoms: C_10  and  C_17
    5  A    between atoms: C_10  and  N_18
    6  A    between atoms: C_12  and  C_20
    7  A    between atoms: C_20  and  C_23
    8  A    between atoms: C_21  and  C_26
                            x       y       z     vdW  Elec       q    Type
                         _______ _______ _______ _____ _____    ______ ____

>  <TORSDO>
F 8

$$$$
=
 OpenBabel10222422123D

 29 31  0  0  0  0  0  0  0  0999 V2000
  190.5650  176.7860  141.8280 N   0  0  0  0  0  0  0  0  0  0  0  0
  190.1340  177.0800  140.6330 C   0  0  0  0  0  0  0  0  0  0  0  0
  194.6810  175.2240  135.2530 C   0  0  0  0  0  1  0  0  0  0  0  0
  191.2780  174.5340  136.6600 C   0  0  0  0  0  3  0  0  0  0  0  0
  191.2730  175.3970  137.7490 C   0  0  0  0  0  0  0  0  0  0  0  0
  190.8450  176.5320  139.4670 C   0  0  0  0  0  0  0  0  0  0  0  0
  192.3420  176.1850  138.0260 C   0  0  0  0  0  0  0  0  0  0  0  0
  192.3980  174.5070  135.8770 N   0  0  0  0  0  0  0  0  0  0  0  0
  192.1020  176.9230  139.1180 N   0  0  0  0  0  0  0  0  0  0  0  0
  193.4890  175.2950  136.1390 C   0  0  0  0  0  0  0  0  0  0  0  0
  193.4900  176.1700  137.2410 C   0  0  0  0  0  3  0  0  0  0  0  0
  190.2990  175.5920  138.6480 N   0  0  0  0  0  2  0  0  0  0  0  0
  188.5930  176.6440  143.7360 S   0  0  0  0  0  0  0  0  0  0  0  0
  190.5830  178.1530  143.9630 C   0  0  0  0  0  3  0  0  0  0  0  0
  190.0350  177.2160  143.0920 C   0  0  0  0  0  0  0  0  0  0  0  0
  188.7230  177.6090  145.1080 C   0  0  0  0  0  0  0  0  0  0  0  0
  189.8440  178.3640  145.0860 N   0  0  0  0  0  0  0  0  0  0  0  0
  186.5160  177.5470  145.9540 O   0  0  0  0  0  0  0  0  0  0  0  0
  187.7470  177.6400  146.2000 C   0  0  0  0  0  0  0  0  0  0  0  0
  188.1660  177.7700  147.4830 F   0  0  0  0  0  0  0  0  0  0  0  0
  188.9760  178.0000  140.4020 C   0  0  0  0  0  2  0  0  0  0  0  0
  188.1820  179.1530  137.0280 O   0  0  0  0  0  0  0  0  0  0  0  0
  186.7820  177.9760  138.4800 N   0  0  0  0  0  2  0  0  0  0  0  0
  188.0260  178.6050  138.1500 C   0  0  0  0  0  0  0  0  0  0  0  0
  189.0970  178.6200  139.0920 N   0  0  0  0  0  2  0  0  0  0  0  0
  185.6650  177.9080  137.5500 C   0  0  0  0  0  2  0  0  0  0  0  0
  184.3540  178.0930  138.2950 C   0  0  0  0  0  2  0  0  0  0  0  0
  184.4430  180.2900  139.2220 O   0  0  0  0  0  1  0  0  0  0  0  0
  184.5700  178.9370  139.5370 C   0  0  0  0  0  2  0  0  0  0  0  0
  1 15  1  0  0  0  0
  2  1  2  0  0  0  0
  3 10  1  0  0  0  0
  4  5  1  0  0  0  0
  5  7  2  0  0  0  0
  5 12  1  0  0  0  0
  6  2  1  0  0  0  0
  7  9  1  0  0  0  0
  8 10  1  0  0  0  0
  8  4  2  0  0  0  0
  9  6  2  0  0  0  0
 10 11  2  0  0  0  0
 11  7  1  0  0  0  0
 12  6  1  0  0  0  0
 13 16  1  0  0  0  0
 14 17  1  0  0  0  0
 15 13  1  0  0  0  0
 15 14  2  0  0  0  0
 16 19  1  0  0  0  0
 17 16  2  0  0  0  0
 18 19  2  0  0  0  0
 19 20  1  0  0  0  0
 21  2  1  0  0  0  0
 22 24  2  0  0  0  0
 24 23  1  0  0  0  0
 24 25  1  0  0  0  0
 25 21  1  0  0  0  0
 26 27  1  0  0  0  0
 26 23  1  0  0  0  0
 27 29  1  0  0  0  0
 28 29  1  0  0  0  0
M  END
>  <MODEL>
9

>  <REMARK>
 VINA RESULT:      -6.9      4.094      8.585
  Name = 
  8 active torsions:
  status: ('A' for Active; 'I' for Inactive)
    1  A    between atoms: C_6  and  C_17
    2  A    between atoms: N_7  and  C_12
    3  A    between atoms: N_8  and  C_22
    4  A    between atoms: C_10  and  C_17
    5  A    between atoms: C_10  and  N_18
    6  A    between atoms: C_12  and  C_20
    7  A    between atoms: C_20  and  C_23
    8  A    between atoms: C_21  and  C_26
                            x       y       z     vdW  Elec       q    Type
                         _______ _______ _______ _____ _____    ______ ____

>  <TORSDO>
F 8

$$$$
