=
 OpenBabel10232409473D

 25 27  0  0  1  0  0  0  0  0999 V2000
  188.0070  177.2250  144.4540 C   0  0  0  0  0  0  0  0  0  0  0  0
  187.6440  177.0000  143.2380 N   0  0  0  0  0  2  0  0  0  0  0  0
  188.8450  176.6540  142.4780 C   0  0  2  0  0  3  0  0  0  0  0  0
  189.3710  177.0660  144.6330 C   0  0  0  0  0  0  0  0  0  0  0  0
  187.1590  177.5930  145.5260 C   0  0  0  0  0  0  0  0  0  0  0  0
  189.9920  177.2510  145.8780 C   0  0  0  0  0  3  0  0  0  0  0  0
  189.1440  177.6050  146.9310 C   0  0  0  0  0  0  0  0  0  0  0  0
  187.7890  177.7670  146.7650 C   0  0  0  0  0  0  0  0  0  0  0  0
  189.9500  176.7300  143.4960 C   0  0  0  0  0  2  0  0  0  0  0  0
  189.4350  177.8530  148.2540 C   0  0  0  0  0  3  0  0  0  0  0  0
  187.2390  178.0980  147.9010 O   0  0  0  0  0  0  0  0  0  0  0  0
  188.1920  178.1590  148.8170 C   0  0  0  0  0  3  0  0  0  0  0  0
  188.3350  178.6650  141.3150 O   0  0  0  0  0  0  0  0  0  0  0  0
  189.0690  177.6430  141.3790 C   0  0  0  0  0  0  0  0  0  0  0  0
  189.8940  177.5820  139.1390 C   0  0  0  0  0  2  0  0  0  0  0  0
  190.0950  177.4170  140.4060 N   0  0  0  0  0  0  0  0  0  0  0  0
  185.7730  177.7820  145.4180 O   0  0  0  0  0  0  0  0  0  0  0  0
  185.1370  179.0560  145.3630 C   0  0  0  0  0  2  0  0  0  0  0  0
  183.6640  178.9060  145.0030 C   0  0  0  0  0  2  0  0  0  0  0  0
  183.4100  179.2790  143.5510 C   0  0  0  0  0  2  0  0  0  0  0  0
  184.1630  178.3440  142.6190 C   0  0  0  0  0  2  0  0  0  0  0  0
  185.0030  179.1400  141.6330 C   0  0  0  0  0  2  0  0  0  0  0  0
  184.7050  178.7300  140.1990 C   0  0  1  0  0  3  0  0  0  0  0  0
  183.4740  177.8450  140.1410 C   0  0  0  0  0  1  0  0  0  0  0  0
  184.4730  179.9180  139.3990 N   0  0  0  0  0  1  0  0  0  0  0  0
  1  4  2  0  0  0  0
  1  5  1  0  0  0  0
  2  1  1  0  0  0  0
  3 14  1  6  0  0  0
  3  2  1  0  0  0  0
  3  9  1  0  0  0  0
  4  6  1  0  0  0  0
  5  8  2  0  0  0  0
  6  7  2  0  0  0  0
  7 10  1  0  0  0  0
  8  7  1  0  0  0  0
  8 11  1  0  0  0  0
  9  4  1  0  0  0  0
 10 12  2  0  0  0  0
 11 12  1  0  0  0  0
 13 14  2  0  0  0  0
 15 16  2  0  0  0  0
 16 14  1  0  0  0  0
 17  5  1  0  0  0  0
 18 17  1  0  0  0  0
 19 18  1  0  0  0  0
 20 19  1  0  0  0  0
 21 20  1  0  0  0  0
 22 21  1  0  0  0  0
 23 24  1  1  0  0  0
 23 22  1  0  0  0  0
 25 23  1  0  0  0  0
M  END
>  <MODEL>
1

>  <REMARK>
 VINA RESULT:      -7.9      0.000      0.000
  Name = 
  9 active torsions:
  status: ('A' for Active; 'I' for Inactive)
    1  A    between atoms: C_2  and  C_5
    2  A    between atoms: C_4  and  C_13
    3  A    between atoms: C_4  and  C_23
    4  A    between atoms: C_5  and  C_10
    5  A    between atoms: C_7  and  C_8
    6  A    between atoms: C_8  and  N_12
    7  A    between atoms: C_10  and  C_23
    8  A    between atoms: C_13  and  O_16
    9  A    between atoms: C_14  and  O_16
                            x       y       z     vdW  Elec       q    Type
                         _______ _______ _______ _____ _____    ______ ____

>  <TORSDO>
F 9

$$$$
=
 OpenBabel10232409473D

 25 27  0  0  1  0  0  0  0  0999 V2000
  188.7180  176.8530  144.2950 C   0  0  0  0  0  0  0  0  0  0  0  0
  188.6480  176.5010  143.0570 N   0  0  0  0  0  2  0  0  0  0  0  0
  190.0100  176.2160  142.6050 C   0  0  2  0  0  3  0  0  0  0  0  0
  190.0170  176.8400  144.7730 C   0  0  0  0  0  0  0  0  0  0  0  0
  187.6290  177.2190  145.1220 C   0  0  0  0  0  0  0  0  0  0  0  0
  190.3340  177.1790  146.0980 C   0  0  0  0  0  3  0  0  0  0  0  0
  189.2500  177.5290  146.9090 C   0  0  0  0  0  0  0  0  0  0  0  0
  187.9570  177.5470  146.4440 C   0  0  0  0  0  0  0  0  0  0  0  0
  190.8560  176.4750  143.8220 C   0  0  0  0  0  2  0  0  0  0  0  0
  189.2240  177.9050  148.2330 C   0  0  0  0  0  3  0  0  0  0  0  0
  187.1470  177.9100  147.4020 O   0  0  0  0  0  0  0  0  0  0  0  0
  187.8680  178.1330  148.4880 C   0  0  0  0  0  3  0  0  0  0  0  0
  191.5990  177.4720  141.3570 O   0  0  0  0  0  0  0  0  0  0  0  0
  190.3920  177.1340  141.4890 C   0  0  0  0  0  0  0  0  0  0  0  0
  189.5010  177.5310  139.3090 C   0  0  0  0  0  2  0  0  0  0  0  0
  189.3920  177.6330  140.5930 N   0  0  0  0  0  0  0  0  0  0  0  0
  186.2900  177.2660  144.7060 O   0  0  0  0  0  0  0  0  0  0  0  0
  185.6100  178.4550  144.3180 C   0  0  0  0  0  2  0  0  0  0  0  0
  185.2190  178.3960  142.8460 C   0  0  0  0  0  2  0  0  0  0  0  0
  183.7160  178.5450  142.6680 C   0  0  0  0  0  2  0  0  0  0  0  0
  183.0630  178.9760  143.9700 C   0  0  0  0  0  2  0  0  0  0  0  0
  181.5580  178.7700  143.9020 C   0  0  0  0  0  2  0  0  0  0  0  0
  180.9900  179.2870  142.5890 C   0  0  1  0  0  3  0  0  0  0  0  0
  180.1430  178.2230  141.9170 C   0  0  0  0  0  1  0  0  0  0  0  0
  180.1670  180.4540  142.8500 N   0  0  0  0  0  1  0  0  0  0  0  0
  1  4  2  0  0  0  0
  1  5  1  0  0  0  0
  2  1  1  0  0  0  0
  3 14  1  6  0  0  0
  3  2  1  0  0  0  0
  3  9  1  0  0  0  0
  4  6  1  0  0  0  0
  5  8  2  0  0  0  0
  6  7  2  0  0  0  0
  7 10  1  0  0  0  0
  8  7  1  0  0  0  0
  8 11  1  0  0  0  0
  9  4  1  0  0  0  0
 10 12  2  0  0  0  0
 11 12  1  0  0  0  0
 13 14  2  0  0  0  0
 15 16  2  0  0  0  0
 16 14  1  0  0  0  0
 17  5  1  0  0  0  0
 18 17  1  0  0  0  0
 19 18  1  0  0  0  0
 20 19  1  0  0  0  0
 20 21  1  0  0  0  0
 22 21  1  0  0  0  0
 23 24  1  1  0  0  0
 23 25  1  0  0  0  0
 23 22  1  0  0  0  0
M  END
>  <MODEL>
2

>  <REMARK>
 VINA RESULT:      -7.6      1.800      2.176
  Name = 
  9 active torsions:
  status: ('A' for Active; 'I' for Inactive)
    1  A    between atoms: C_2  and  C_5
    2  A    between atoms: C_4  and  C_13
    3  A    between atoms: C_4  and  C_23
    4  A    between atoms: C_5  and  C_10
    5  A    between atoms: C_7  and  C_8
    6  A    between atoms: C_8  and  N_12
    7  A    between atoms: C_10  and  C_23
    8  A    between atoms: C_13  and  O_16
    9  A    between atoms: C_14  and  O_16
                            x       y       z     vdW  Elec       q    Type
                         _______ _______ _______ _____ _____    ______ ____

>  <TORSDO>
F 9

$$$$
=
 OpenBabel10232409473D

 25 27  0  0  1  0  0  0  0  0999 V2000
  187.5000  177.4050  145.3830 C   0  0  0  0  0  0  0  0  0  0  0  0
  188.6350  176.8510  145.6380 N   0  0  0  0  0  2  0  0  0  0  0  0
  188.7680  176.7750  147.0930 C   0  0  2  0  0  3  0  0  0  0  0  0
  186.8020  177.7310  146.5340 C   0  0  0  0  0  0  0  0  0  0  0  0
  186.9710  177.6750  144.0970 C   0  0  0  0  0  0  0  0  0  0  0  0
  185.5360  178.3350  146.5000 C   0  0  0  0  0  3  0  0  0  0  0  0
  185.0200  178.5880  145.2260 C   0  0  0  0  0  0  0  0  0  0  0  0
  185.7040  178.2710  144.0760 C   0  0  0  0  0  0  0  0  0  0  0  0
  187.4940  177.3920  147.6050 C   0  0  0  0  0  2  0  0  0  0  0  0
  183.8230  179.1600  144.8560 C   0  0  0  0  0  3  0  0  0  0  0  0
  185.0000  178.6150  143.0320 O   0  0  0  0  0  0  0  0  0  0  0  0
  183.8670  179.1500  143.4580 C   0  0  0  0  0  3  0  0  0  0  0  0
  189.8010  178.4640  148.4130 O   0  0  0  0  0  0  0  0  0  0  0  0
  189.9570  177.5590  147.5500 C   0  0  0  0  0  0  0  0  0  0  0  0
  191.8270  176.1380  147.1160 C   0  0  0  0  0  2  0  0  0  0  0  0
  191.2510  177.2890  146.9980 N   0  0  0  0  0  0  0  0  0  0  0  0
  187.6230  177.3850  142.8900 O   0  0  0  0  0  0  0  0  0  0  0  0
  188.1890  178.3650  142.0250 C   0  0  0  0  0  2  0  0  0  0  0  0
  188.2170  177.8620  140.5870 C   0  0  0  0  0  2  0  0  0  0  0  0
  189.6330  177.8570  140.0320 C   0  0  0  0  0  2  0  0  0  0  0  0
  190.4760  176.8010  140.7250 C   0  0  0  0  0  2  0  0  0  0  0  0
  191.7100  177.4330  141.3500 C   0  0  0  0  0  2  0  0  0  0  0  0
  191.7750  177.1530  142.8440 C   0  0  1  0  0  3  0  0  0  0  0  0
  191.4030  178.3910  143.6370 C   0  0  0  0  0  1  0  0  0  0  0  0
  190.8510  176.0830  143.1720 N   0  0  0  0  0  1  0  0  0  0  0  0
  1  2  1  0  0  0  0
  1  4  1  0  0  0  0
  2  3  1  0  0  0  0
  3 14  1  1  0  0  0
  3  9  1  0  0  0  0
  4  9  1  0  0  0  0
  5  1  2  0  0  0  0
  6  4  2  0  0  0  0
  7  6  1  0  0  0  0
  8  5  1  0  0  0  0
  8  7  2  0  0  0  0
 10  7  1  0  0  0  0
 11 12  1  0  0  0  0
 11  8  1  0  0  0  0
 12 10  2  0  0  0  0
 14 13  2  0  0  0  0
 16 15  2  0  0  0  0
 16 14  1  0  0  0  0
 17  5  1  0  0  0  0
 18 17  1  0  0  0  0
 19 18  1  0  0  0  0
 20 19  1  0  0  0  0
 20 21  1  0  0  0  0
 21 22  1  0  0  0  0
 22 23  1  0  0  0  0
 23 25  1  0  0  0  0
 23 24  1  1  0  0  0
M  END
>  <MODEL>
3

>  <REMARK>
 VINA RESULT:      -7.5      2.493      5.902
  Name = 
  9 active torsions:
  status: ('A' for Active; 'I' for Inactive)
    1  A    between atoms: C_2  and  C_5
    2  A    between atoms: C_4  and  C_13
    3  A    between atoms: C_4  and  C_23
    4  A    between atoms: C_5  and  C_10
    5  A    between atoms: C_7  and  C_8
    6  A    between atoms: C_8  and  N_12
    7  A    between atoms: C_10  and  C_23
    8  A    between atoms: C_13  and  O_16
    9  A    between atoms: C_14  and  O_16
                            x       y       z     vdW  Elec       q    Type
                         _______ _______ _______ _____ _____    ______ ____

>  <TORSDO>
F 9

$$$$
=
 OpenBabel10232409473D

 25 27  0  0  1  0  0  0  0  0999 V2000
  186.0510  178.0930  143.6540 C   0  0  0  0  0  0  0  0  0  0  0  0
  185.6920  178.1230  142.4170 N   0  0  0  0  0  2  0  0  0  0  0  0
  184.5950  179.0840  142.3020 C   0  0  2  0  0  3  0  0  0  0  0  0
  185.3050  178.9560  144.4400 C   0  0  0  0  0  0  0  0  0  0  0  0
  187.0810  177.2930  144.2070 C   0  0  0  0  0  0  0  0  0  0  0  0
  185.5250  179.0970  145.8180 C   0  0  0  0  0  3  0  0  0  0  0  0
  186.5510  178.3100  146.3520 C   0  0  0  0  0  0  0  0  0  0  0  0
  187.2960  177.4490  145.5820 C   0  0  0  0  0  0  0  0  0  0  0  0
  184.4050  179.5850  143.7080 C   0  0  0  0  0  2  0  0  0  0  0  0
  187.0110  178.2180  147.6460 C   0  0  0  0  0  3  0  0  0  0  0  0
  188.1780  176.8400  146.3270 O   0  0  0  0  0  0  0  0  0  0  0  0
  188.0390  177.2740  147.5680 C   0  0  0  0  0  3  0  0  0  0  0  0
  183.4520  177.5350  140.9030 O   0  0  0  0  0  0  0  0  0  0  0  0
  183.3560  178.4050  141.8110 C   0  0  0  0  0  0  0  0  0  0  0  0
  181.0960  179.1490  141.6170 C   0  0  0  0  0  2  0  0  0  0  0  0
  182.0790  178.7540  142.3570 N   0  0  0  0  0  0  0  0  0  0  0  0
  187.8680  176.3900  143.4770 O   0  0  0  0  0  0  0  0  0  0  0  0
  189.0190  176.7550  142.7220 C   0  0  0  0  0  2  0  0  0  0  0  0
  190.2610  176.0540  143.2600 C   0  0  0  0  0  2  0  0  0  0  0  0
  191.3320  177.0560  143.6600 C   0  0  0  0  0  2  0  0  0  0  0  0
  191.3300  177.2700  145.1640 C   0  0  0  0  0  2  0  0  0  0  0  0
  191.8990  176.0510  145.8740 C   0  0  0  0  0  2  0  0  0  0  0  0
  191.6320  176.1110  147.3700 C   0  0  1  0  0  3  0  0  0  0  0  0
  192.8170  175.5690  148.1470 C   0  0  0  0  0  1  0  0  0  0  0  0
  191.3990  177.4900  147.7600 N   0  0  0  0  0  1  0  0  0  0  0  0
  1  5  2  0  0  0  0
  1  4  1  0  0  0  0
  2  1  1  0  0  0  0
  3 14  1  1  0  0  0
  3  2  1  0  0  0  0
  3  9  1  0  0  0  0
  4  6  2  0  0  0  0
  5  8  1  0  0  0  0
  6  7  1  0  0  0  0
  7 10  1  0  0  0  0
  8 11  1  0  0  0  0
  8  7  2  0  0  0  0
  9  4  1  0  0  0  0
 11 12  1  0  0  0  0
 12 10  2  0  0  0  0
 13 14  2  0  0  0  0
 14 16  1  0  0  0  0
 15 16  2  0  0  0  0
 17  5  1  0  0  0  0
 18 19  1  0  0  0  0
 18 17  1  0  0  0  0
 19 20  1  0  0  0  0
 20 21  1  0  0  0  0
 21 22  1  0  0  0  0
 22 23  1  0  0  0  0
 23 25  1  0  0  0  0
 23 24  1  1  0  0  0
M  END
>  <MODEL>
4

>  <REMARK>
 VINA RESULT:      -7.4      2.467      6.442
  Name = 
  9 active torsions:
  status: ('A' for Active; 'I' for Inactive)
    1  A    between atoms: C_2  and  C_5
    2  A    between atoms: C_4  and  C_13
    3  A    between atoms: C_4  and  C_23
    4  A    between atoms: C_5  and  C_10
    5  A    between atoms: C_7  and  C_8
    6  A    between atoms: C_8  and  N_12
    7  A    between atoms: C_10  and  C_23
    8  A    between atoms: C_13  and  O_16
    9  A    between atoms: C_14  and  O_16
                            x       y       z     vdW  Elec       q    Type
                         _______ _______ _______ _____ _____    ______ ____

>  <TORSDO>
F 9

$$$$
=
 OpenBabel10232409473D

 25 27  0  0  1  0  0  0  0  0999 V2000
  189.7290  177.8460  142.7310 C   0  0  0  0  0  0  0  0  0  0  0  0
  189.4590  178.1820  143.9460 N   0  0  0  0  0  2  0  0  0  0  0  0
  190.7310  178.3070  144.6590 C   0  0  2  0  0  3  0  0  0  0  0  0
  191.0900  177.7230  142.5090 C   0  0  0  0  0  0  0  0  0  0  0  0
  188.7880  177.6170  141.6990 C   0  0  0  0  0  0  0  0  0  0  0  0
  191.6190  177.3740  141.2570 C   0  0  0  0  0  3  0  0  0  0  0  0
  190.6820  177.1600  140.2420 C   0  0  0  0  0  0  0  0  0  0  0  0
  189.3280  177.2780  140.4510 C   0  0  0  0  0  0  0  0  0  0  0  0
  191.7630  177.9770  143.6150 C   0  0  0  0  0  2  0  0  0  0  0  0
  190.8720  176.8130  138.9240 C   0  0  0  0  0  3  0  0  0  0  0  0
  188.6850  177.0230  139.3450 O   0  0  0  0  0  0  0  0  0  0  0  0
  189.5740  176.7410  138.4070 C   0  0  0  0  0  3  0  0  0  0  0  0
  191.9160  176.9620  146.2220 O   0  0  0  0  0  0  0  0  0  0  0  0
  190.7920  177.3330  145.7910 C   0  0  0  0  0  0  0  0  0  0  0  0
  189.2650  177.0200  147.6010 C   0  0  0  0  0  2  0  0  0  0  0  0
  189.5830  176.8190  146.3640 N   0  0  0  0  0  0  0  0  0  0  0  0
  187.3970  177.7120  141.8510 O   0  0  0  0  0  0  0  0  0  0  0  0
  186.6230  178.8520  141.4890 C   0  0  0  0  0  2  0  0  0  0  0  0
  185.1370  178.5130  141.4820 C   0  0  0  0  0  2  0  0  0  0  0  0
  184.3890  179.2930  142.5510 C   0  0  0  0  0  2  0  0  0  0  0  0
  184.1490  178.4260  143.7760 C   0  0  0  0  0  2  0  0  0  0  0  0
  184.3790  179.2280  145.0470 C   0  0  0  0  0  2  0  0  0  0  0  0
  185.1420  178.4130  146.0810 C   0  0  1  0  0  3  0  0  0  0  0  0
  186.3120  177.6930  145.4370 C   0  0  0  0  0  1  0  0  0  0  0  0
  185.6400  179.2990  147.1170 N   0  0  0  0  0  1  0  0  0  0  0  0
  1  2  1  0  0  0  0
  2  3  1  0  0  0  0
  3 14  1  1  0  0  0
  4  1  1  0  0  0  0
  4  9  1  0  0  0  0
  5 17  1  0  0  0  0
  5  1  2  0  0  0  0
  6  4  2  0  0  0  0
  7  8  2  0  0  0  0
  7  6  1  0  0  0  0
  8  5  1  0  0  0  0
  9  3  1  0  0  0  0
 10  7  1  0  0  0  0
 11  8  1  0  0  0  0
 12 10  2  0  0  0  0
 12 11  1  0  0  0  0
 14 13  2  0  0  0  0
 14 16  1  0  0  0  0
 16 15  2  0  0  0  0
 18 17  1  0  0  0  0
 19 18  1  0  0  0  0
 19 20  1  0  0  0  0
 20 21  1  0  0  0  0
 21 22  1  0  0  0  0
 22 23  1  0  0  0  0
 23 24  1  6  0  0  0
 23 25  1  0  0  0  0
M  END
>  <MODEL>
5

>  <REMARK>
 VINA RESULT:      -7.2      2.406      5.696
  Name = 
  9 active torsions:
  status: ('A' for Active; 'I' for Inactive)
    1  A    between atoms: C_2  and  C_5
    2  A    between atoms: C_4  and  C_13
    3  A    between atoms: C_4  and  C_23
    4  A    between atoms: C_5  and  C_10
    5  A    between atoms: C_7  and  C_8
    6  A    between atoms: C_8  and  N_12
    7  A    between atoms: C_10  and  C_23
    8  A    between atoms: C_13  and  O_16
    9  A    between atoms: C_14  and  O_16
                            x       y       z     vdW  Elec       q    Type
                         _______ _______ _______ _____ _____    ______ ____

>  <TORSDO>
F 9

$$$$
=
 OpenBabel10232409473D

 25 27  0  0  1  0  0  0  0  0999 V2000
  187.9980  177.3080  144.3610 C   0  0  0  0  0  0  0  0  0  0  0  0
  189.1410  176.8000  144.0510 N   0  0  0  0  0  2  0  0  0  0  0  0
  189.8750  176.5790  145.2970 C   0  0  2  0  0  3  0  0  0  0  0  0
  187.8460  177.4690  145.7280 C   0  0  0  0  0  0  0  0  0  0  0  0
  186.9740  177.6780  143.4550 C   0  0  0  0  0  0  0  0  0  0  0  0
  186.6780  177.9970  146.2980 C   0  0  0  0  0  3  0  0  0  0  0  0
  185.6700  178.3500  145.3960 C   0  0  0  0  0  0  0  0  0  0  0  0
  185.8090  178.1970  144.0370 C   0  0  0  0  0  0  0  0  0  0  0  0
  188.9290  177.0620  146.3630 C   0  0  0  0  0  2  0  0  0  0  0  0
  184.4230  178.8840  145.6300 C   0  0  0  0  0  3  0  0  0  0  0  0
  184.7280  178.6050  143.4320 O   0  0  0  0  0  0  0  0  0  0  0  0
  183.8750  179.0230  144.3520 C   0  0  0  0  0  3  0  0  0  0  0  0
  191.8730  177.3540  146.3290 O   0  0  0  0  0  0  0  0  0  0  0  0
  191.1370  177.3810  145.3060 C   0  0  0  0  0  0  0  0  0  0  0  0
  191.2250  179.4420  144.1030 C   0  0  0  0  0  2  0  0  0  0  0  0
  191.4910  178.1780  144.1700 N   0  0  0  0  0  0  0  0  0  0  0  0
  187.0590  177.5560  142.0610 O   0  0  0  0  0  0  0  0  0  0  0  0
  187.2090  178.6530  141.1650 C   0  0  0  0  0  2  0  0  0  0  0  0
  188.4330  178.4590  140.2770 C   0  0  0  0  0  2  0  0  0  0  0  0
  189.1270  177.1390  140.5740 C   0  0  0  0  0  2  0  0  0  0  0  0
  190.5020  177.1000  139.9270 C   0  0  0  0  0  2  0  0  0  0  0  0
  190.3770  177.1250  138.4120 C   0  0  0  0  0  2  0  0  0  0  0  0
  191.3870  176.1930  137.7610 C   0  0  1  0  0  3  0  0  0  0  0  0
  192.7890  176.4920  138.2590 C   0  0  0  0  0  1  0  0  0  0  0  0
  191.0510  174.8190  138.0870 N   0  0  0  0  0  1  0  0  0  0  0  0
  1  4  1  0  0  0  0
  2  1  1  0  0  0  0
  2  3  1  0  0  0  0
  3 14  1  6  0  0  0
  3  9  1  0  0  0  0
  4  6  2  0  0  0  0
  4  9  1  0  0  0  0
  5  8  1  0  0  0  0
  5  1  2  0  0  0  0
  7 10  1  0  0  0  0
  7  6  1  0  0  0  0
  8  7  2  0  0  0  0
 11  8  1  0  0  0  0
 11 12  1  0  0  0  0
 12 10  2  0  0  0  0
 14 13  2  0  0  0  0
 15 16  2  0  0  0  0
 16 14  1  0  0  0  0
 17  5  1  0  0  0  0
 18 17  1  0  0  0  0
 19 20  1  0  0  0  0
 19 18  1  0  0  0  0
 21 20  1  0  0  0  0
 22 21  1  0  0  0  0
 23 25  1  0  0  0  0
 23 24  1  1  0  0  0
 23 22  1  0  0  0  0
M  END
>  <MODEL>
6

>  <REMARK>
 VINA RESULT:      -7.2      2.545      5.334
  Name = 
  9 active torsions:
  status: ('A' for Active; 'I' for Inactive)
    1  A    between atoms: C_2  and  C_5
    2  A    between atoms: C_4  and  C_13
    3  A    between atoms: C_4  and  C_23
    4  A    between atoms: C_5  and  C_10
    5  A    between atoms: C_7  and  C_8
    6  A    between atoms: C_8  and  N_12
    7  A    between atoms: C_10  and  C_23
    8  A    between atoms: C_13  and  O_16
    9  A    between atoms: C_14  and  O_16
                            x       y       z     vdW  Elec       q    Type
                         _______ _______ _______ _____ _____    ______ ____

>  <TORSDO>
F 9

$$$$
=
 OpenBabel10232409473D

 25 27  0  0  1  0  0  0  0  0999 V2000
  186.9830  178.0010  143.5740 C   0  0  0  0  0  0  0  0  0  0  0  0
  188.2240  177.7150  143.7730 N   0  0  0  0  0  2  0  0  0  0  0  0
  188.9200  177.8740  142.4960 C   0  0  2  0  0  3  0  0  0  0  0  0
  186.7280  178.3550  142.2600 C   0  0  0  0  0  0  0  0  0  0  0  0
  185.9530  177.9750  144.5460 C   0  0  0  0  0  0  0  0  0  0  0  0
  185.4480  178.7150  141.8140 C   0  0  0  0  0  3  0  0  0  0  0  0
  184.4400  178.6960  142.7830 C   0  0  0  0  0  0  0  0  0  0  0  0
  184.6810  178.3440  144.0900 C   0  0  0  0  0  0  0  0  0  0  0  0
  187.8350  178.2990  141.5440 C   0  0  0  0  0  2  0  0  0  0  0  0
  183.1010  178.9930  142.6700 C   0  0  0  0  0  3  0  0  0  0  0  0
  183.5730  178.4070  144.7770 O   0  0  0  0  0  0  0  0  0  0  0  0
  182.6050  178.7920  143.9620 C   0  0  0  0  0  3  0  0  0  0  0  0
  189.4220  175.5710  142.8220 O   0  0  0  0  0  0  0  0  0  0  0  0
  189.5220  176.5740  142.0660 C   0  0  0  0  0  0  0  0  0  0  0  0
  191.2290  177.2300  140.5300 C   0  0  0  0  0  2  0  0  0  0  0  0
  190.2150  176.4800  140.8150 N   0  0  0  0  0  0  0  0  0  0  0  0
  186.1330  177.6160  145.8900 O   0  0  0  0  0  0  0  0  0  0  0  0
  186.4040  178.5400  146.9390 C   0  0  0  0  0  2  0  0  0  0  0  0
  187.8640  178.4530  147.3690 C   0  0  0  0  0  2  0  0  0  0  0  0
  188.1380  177.1680  148.1350 C   0  0  0  0  0  2  0  0  0  0  0  0
  189.3600  176.4600  147.5740 C   0  0  0  0  0  2  0  0  0  0  0  0
  190.0810  177.3550  146.5770 C   0  0  0  0  0  2  0  0  0  0  0  0
  191.5220  176.9100  146.3790 C   0  0  1  0  0  3  0  0  0  0  0  0
  191.8980  175.8500  147.3980 C   0  0  0  0  0  1  0  0  0  0  0  0
  191.6750  176.3630  145.0440 N   0  0  0  0  0  1  0  0  0  0  0  0
  1  2  1  0  0  0  0
  1  5  1  0  0  0  0
  3 14  1  6  0  0  0
  3  2  1  0  0  0  0
  4  1  2  0  0  0  0
  5 17  1  0  0  0  0
  6  4  1  0  0  0  0
  6  7  2  0  0  0  0
  7  8  1  0  0  0  0
  8  5  2  0  0  0  0
  8 11  1  0  0  0  0
  9  4  1  0  0  0  0
  9  3  1  0  0  0  0
 10  7  1  0  0  0  0
 10 12  2  0  0  0  0
 12 11  1  0  0  0  0
 14 13  2  0  0  0  0
 15 16  2  0  0  0  0
 16 14  1  0  0  0  0
 17 18  1  0  0  0  0
 18 19  1  0  0  0  0
 19 20  1  0  0  0  0
 21 20  1  0  0  0  0
 22 21  1  0  0  0  0
 23 22  1  0  0  0  0
 23 24  1  1  0  0  0
 25 23  1  0  0  0  0
M  END
>  <MODEL>
7

>  <REMARK>
 VINA RESULT:      -7.2      1.993      5.646
  Name = 
  9 active torsions:
  status: ('A' for Active; 'I' for Inactive)
    1  A    between atoms: C_2  and  C_5
    2  A    between atoms: C_4  and  C_13
    3  A    between atoms: C_4  and  C_23
    4  A    between atoms: C_5  and  C_10
    5  A    between atoms: C_7  and  C_8
    6  A    between atoms: C_8  and  N_12
    7  A    between atoms: C_10  and  C_23
    8  A    between atoms: C_13  and  O_16
    9  A    between atoms: C_14  and  O_16
                            x       y       z     vdW  Elec       q    Type
                         _______ _______ _______ _____ _____    ______ ____

>  <TORSDO>
F 9

$$$$
=
 OpenBabel10232409473D

 25 27  0  0  1  0  0  0  0  0999 V2000
  187.5190  177.4810  144.3970 C   0  0  0  0  0  0  0  0  0  0  0  0
  188.6770  176.9910  144.1140 N   0  0  0  0  0  2  0  0  0  0  0  0
  189.3950  176.8080  145.3750 C   0  0  2  0  0  3  0  0  0  0  0  0
  187.3420  177.6620  145.7590 C   0  0  0  0  0  0  0  0  0  0  0  0
  186.5020  177.8140  143.4690 C   0  0  0  0  0  0  0  0  0  0  0  0
  186.1550  178.1750  146.3010 C   0  0  0  0  0  3  0  0  0  0  0  0
  185.1540  178.4910  145.3780 C   0  0  0  0  0  0  0  0  0  0  0  0
  185.3180  178.3180  144.0240 C   0  0  0  0  0  0  0  0  0  0  0  0
  188.4230  177.2890  146.4180 C   0  0  0  0  0  2  0  0  0  0  0  0
  183.8930  179.0040  145.5830 C   0  0  0  0  0  3  0  0  0  0  0  0
  184.2380  178.6930  143.3950 O   0  0  0  0  0  0  0  0  0  0  0  0
  183.3620  179.1090  144.2930 C   0  0  0  0  0  3  0  0  0  0  0  0
  191.6000  177.2880  146.1300 O   0  0  0  0  0  0  0  0  0  0  0  0
  190.6410  177.6360  145.3900 C   0  0  0  0  0  0  0  0  0  0  0  0
  191.8180  179.1550  143.9730 C   0  0  0  0  0  2  0  0  0  0  0  0
  190.7300  178.8160  144.5830 N   0  0  0  0  0  0  0  0  0  0  0  0
  186.6120  177.6690  142.0790 O   0  0  0  0  0  0  0  0  0  0  0  0
  186.9560  178.7230  141.1850 C   0  0  0  0  0  2  0  0  0  0  0  0
  188.4580  178.7440  140.9300 C   0  0  0  0  0  2  0  0  0  0  0  0
  188.9750  177.3620  140.5620 C   0  0  0  0  0  2  0  0  0  0  0  0
  188.6410  177.0330  139.1160 C   0  0  0  0  0  2  0  0  0  0  0  0
  189.6990  177.6030  138.1840 C   0  0  0  0  0  2  0  0  0  0  0  0
  189.0630  178.3590  137.0270 C   0  0  1  0  0  3  0  0  0  0  0  0
  187.6770  177.8180  136.7320 C   0  0  0  0  0  1  0  0  0  0  0  0
  188.9610  179.7650  137.3720 N   0  0  0  0  0  1  0  0  0  0  0  0
  1  4  1  0  0  0  0
  2  1  1  0  0  0  0
  2  3  1  0  0  0  0
  3 14  1  6  0  0  0
  3  9  1  0  0  0  0
  4  6  2  0  0  0  0
  4  9  1  0  0  0  0
  5  8  1  0  0  0  0
  5  1  2  0  0  0  0
  7 10  1  0  0  0  0
  7  6  1  0  0  0  0
  8  7  2  0  0  0  0
 11  8  1  0  0  0  0
 11 12  1  0  0  0  0
 12 10  2  0  0  0  0
 14 13  2  0  0  0  0
 15 16  2  0  0  0  0
 16 14  1  0  0  0  0
 17  5  1  0  0  0  0
 18 17  1  0  0  0  0
 19 18  1  0  0  0  0
 20 19  1  0  0  0  0
 21 20  1  0  0  0  0
 22 21  1  0  0  0  0
 23 24  1  1  0  0  0
 23 25  1  0  0  0  0
 23 22  1  0  0  0  0
M  END
>  <MODEL>
8

>  <REMARK>
 VINA RESULT:      -7.1      2.280      4.765
  Name = 
  9 active torsions:
  status: ('A' for Active; 'I' for Inactive)
    1  A    between atoms: C_2  and  C_5
    2  A    between atoms: C_4  and  C_13
    3  A    between atoms: C_4  and  C_23
    4  A    between atoms: C_5  and  C_10
    5  A    between atoms: C_7  and  C_8
    6  A    between atoms: C_8  and  N_12
    7  A    between atoms: C_10  and  C_23
    8  A    between atoms: C_13  and  O_16
    9  A    between atoms: C_14  and  O_16
                            x       y       z     vdW  Elec       q    Type
                         _______ _______ _______ _____ _____    ______ ____

>  <TORSDO>
F 9

$$$$
=
 OpenBabel10232409473D

 25 27  0  0  1  0  0  0  0  0999 V2000
  184.7880  178.3670  142.7780 C   0  0  0  0  0  0  0  0  0  0  0  0
  184.5280  178.2960  141.5180 N   0  0  0  0  0  2  0  0  0  0  0  0
  183.1490  178.7450  141.3290 C   0  0  2  0  0  3  0  0  0  0  0  0
  183.7110  178.8340  143.5130 C   0  0  0  0  0  0  0  0  0  0  0  0
  186.0140  178.0240  143.3990 C   0  0  0  0  0  0  0  0  0  0  0  0
  183.7670  179.0020  144.9040 C   0  0  0  0  0  3  0  0  0  0  0  0
  184.9840  178.6700  145.5070 C   0  0  0  0  0  0  0  0  0  0  0  0
  186.0590  178.2040  144.7880 C   0  0  0  0  0  0  0  0  0  0  0  0
  182.6840  179.0790  142.7210 C   0  0  0  0  0  2  0  0  0  0  0  0
  185.3570  178.7220  146.8300 C   0  0  0  0  0  3  0  0  0  0  0  0
  187.0610  177.9690  145.5920 O   0  0  0  0  0  0  0  0  0  0  0  0
  186.6800  178.2680  146.8220 C   0  0  0  0  0  3  0  0  0  0  0  0
  181.0710  177.6630  140.9140 O   0  0  0  0  0  0  0  0  0  0  0  0
  182.3190  177.6480  140.7430 C   0  0  0  0  0  0  0  0  0  0  0  0
  182.5120  176.1970  138.8560 C   0  0  0  0  0  2  0  0  0  0  0  0
  182.9440  176.5870  140.0100 N   0  0  0  0  0  0  0  0  0  0  0  0
  187.1420  177.5360  142.7240 O   0  0  0  0  0  0  0  0  0  0  0  0
  188.0990  178.3550  142.0600 C   0  0  0  0  0  2  0  0  0  0  0  0
  189.4930  177.7480  142.1670 C   0  0  0  0  0  2  0  0  0  0  0  0
  189.6380  176.9190  143.4330 C   0  0  0  0  0  2  0  0  0  0  0  0
  190.3620  177.7100  144.5100 C   0  0  0  0  0  2  0  0  0  0  0  0
  191.5370  176.9120  145.0550 C   0  0  0  0  0  2  0  0  0  0  0  0
  191.4610  176.7860  146.5690 C   0  0  1  0  0  3  0  0  0  0  0  0
  190.0250  176.9100  147.0450 C   0  0  0  0  0  1  0  0  0  0  0  0
  191.9840  175.4920  146.9690 N   0  0  0  0  0  1  0  0  0  0  0  0
  1  5  2  0  0  0  0
  1  4  1  0  0  0  0
  2  1  1  0  0  0  0
  3 14  1  1  0  0  0
  3  2  1  0  0  0  0
  3  9  1  0  0  0  0
  4  6  2  0  0  0  0
  5  8  1  0  0  0  0
  6  7  1  0  0  0  0
  7 10  1  0  0  0  0
  8  7  2  0  0  0  0
  8 11  1  0  0  0  0
  9  4  1  0  0  0  0
 11 12  1  0  0  0  0
 12 10  2  0  0  0  0
 14 13  2  0  0  0  0
 15 16  2  0  0  0  0
 16 14  1  0  0  0  0
 17  5  1  0  0  0  0
 18 19  1  0  0  0  0
 18 17  1  0  0  0  0
 19 20  1  0  0  0  0
 20 21  1  0  0  0  0
 21 22  1  0  0  0  0
 22 23  1  0  0  0  0
 23 25  1  0  0  0  0
 23 24  1  6  0  0  0
M  END
>  <MODEL>
9

>  <REMARK>
 VINA RESULT:      -7.1      2.347      6.362
  Name = 
  9 active torsions:
  status: ('A' for Active; 'I' for Inactive)
    1  A    between atoms: C_2  and  C_5
    2  A    between atoms: C_4  and  C_13
    3  A    between atoms: C_4  and  C_23
    4  A    between atoms: C_5  and  C_10
    5  A    between atoms: C_7  and  C_8
    6  A    between atoms: C_8  and  N_12
    7  A    between atoms: C_10  and  C_23
    8  A    between atoms: C_13  and  O_16
    9  A    between atoms: C_14  and  O_16
                            x       y       z     vdW  Elec       q    Type
                         _______ _______ _______ _____ _____    ______ ____

>  <TORSDO>
F 9

$$$$
