=
 OpenBabel10232408033D

 46 51  0  0  1  0  0  0  0  0999 V2000
  182.5970  179.4030  145.2350 O   0  0  0  0  0  1  0  0  0  0  0  0
  183.0740  179.0090  143.9850 C   0  0  0  0  0  0  0  0  0  0  0  0
  184.4250  177.8250  140.0660 C   0  0  0  0  0  2  0  0  0  0  0  0
  184.4190  178.6050  143.8130 C   0  0  0  0  0  0  0  0  0  0  0  0
  182.1970  179.0130  142.8890 C   0  0  0  0  0  0  0  0  0  0  0  0
  185.0750  178.9290  139.4810 O   0  0  0  0  0  0  0  0  0  0  0  0
  187.9560  178.5300  140.5250 C   0  0  0  0  0  2  0  0  0  0  0  0
  184.8670  178.2000  142.5400 C   0  0  0  0  0  0  0  0  0  0  0  0
  187.2120  177.6730  139.5030 C   0  0  0  0  0  2  0  0  0  0  0  0
  186.3240  177.8510  142.3180 C   0  0  2  0  0  3  0  0  0  0  0  0
  187.0530  177.4560  143.5670 C   0  0  0  0  0  3  0  0  0  0  0  0
  187.0430  179.0180  141.6490 C   0  0  0  0  0  2  0  0  0  0  0  0
  182.6560  178.6030  141.6270 C   0  0  0  0  0  3  0  0  0  0  0  0
  186.6460  177.8230  144.7840 C   0  0  0  0  0  0  0  0  0  0  0  0
  183.9750  178.1940  141.4470 C   0  0  0  0  0  0  0  0  0  0  0  0
  185.1090  179.0990  146.0500 O   0  0  0  0  0  0  0  0  0  0  0  0
  186.1740  178.4840  138.7070 C   0  0  1  0  0  3  0  0  0  0  0  0
  185.3720  178.5440  144.9520 C   0  0  0  0  0  0  0  0  0  0  0  0
  180.8430  179.4450  143.0630 N   0  0  0  0  0  2  0  0  0  0  0  0
  180.0620  180.0530  141.9920 C   0  0  0  0  0  1  0  0  0  0  0  0
  187.4830  177.4530  145.9640 C   0  0  0  0  0  2  0  0  0  0  0  0
  188.7820  176.8150  145.5040 C   0  0  0  0  0  2  0  0  0  0  0  0
  189.8830  177.7510  145.7250 N   0  0  0  0  0  2  0  0  0  0  0  0
  190.8590  176.4830  143.8180 C   0  0  0  0  0  2  0  0  0  0  0  0
  190.4210  178.7230  143.1110 O   0  0  0  0  0  0  0  0  0  0  0  0
  190.8290  177.4630  142.6440 C   0  0  0  0  0  2  0  0  0  0  0  0
  192.0110  178.3330  144.8610 O   0  0  0  0  0  0  0  0  0  0  0  0
  191.4870  179.2490  143.8970 C   0  0  0  0  0  2  0  0  0  0  0  0
  191.7640  176.3920  146.0220 O   0  0  0  0  0  1  0  0  0  0  0  0
  191.1330  177.2500  145.1220 C   0  0  1  0  0  0  0  0  0  0  0  0
  185.7260  177.7570  137.4350 C   0  0  0  0  0  2  0  0  0  0  0  0
  185.8590  175.7470  134.8700 Cl  0  0  0  0  0  0  0  0  0  0  0  0
  187.1840  176.5030  135.7940 C   0  0  2  0  0  3  0  0  0  0  0  0
  186.7680  177.8780  136.3320 C   0  0  2  0  0  3  0  0  0  0  0  0
  187.9570  178.6100  136.8910 C   0  0  0  0  0  3  0  0  0  0  0  0
  189.2160  178.2860  136.5670 C   0  0  0  0  0  3  0  0  0  0  0  0
  188.3510  176.6280  134.9170 N   0  0  0  0  0  2  0  0  0  0  0  0
  189.5270  177.1280  135.6490 C   0  0  2  0  0  3  0  0  0  0  0  0
  190.3580  176.0350  136.3440 C   0  0  1  0  0  3  0  0  0  0  0  0
  189.8690  173.6110  135.9300 O   0  0  0  0  0  1  0  0  0  0  0  0
  190.5200  174.7790  135.5380 C   0  0  0  0  0  0  0  0  0  0  0  0
  191.2120  174.7970  134.4740 O   0  0  0  0  0  0  0  0  0  0  0  0
  191.6100  176.5440  136.7080 O   0  0  0  0  0  0  0  0  0  0  0  0
  192.9700  176.6800  138.6470 C   0  0  0  0  0  2  0  0  0  0  0  0
  191.5120  176.6910  139.0820 C   0  0  0  0  0  2  0  0  0  0  0  0
  191.9470  175.8610  137.8870 C   0  0  0  0  0  3  0  0  0  0  0  0
  2  1  1  0  0  0  0
  3 15  1  0  0  0  0
  4  2  1  0  0  0  0
  4 18  1  0  0  0  0
  5 19  1  0  0  0  0
  5  2  2  0  0  0  0
  6  3  1  0  0  0  0
  7 12  1  0  0  0  0
  8  4  2  0  0  0  0
  9  7  1  0  0  0  0
 10 12  1  1  0  0  0
 10  8  1  0  0  0  0
 10 11  1  0  0  0  0
 11 14  2  0  0  0  0
 13  5  1  0  0  0  0
 14 18  1  0  0  0  0
 14 21  1  0  0  0  0
 15 13  2  0  0  0  0
 15  8  1  0  0  0  0
 17 31  1  6  0  0  0
 17  6  1  0  0  0  0
 17  9  1  0  0  0  0
 18 16  2  0  0  0  0
 20 19  1  0  0  0  0
 22 23  1  0  0  0  0
 22 21  1  0  0  0  0
 24 30  1  0  0  0  0
 25 28  1  0  0  0  0
 26 25  1  0  0  0  0
 26 24  1  0  0  0  0
 27 30  1  0  0  0  0
 28 27  1  0  0  0  0
 30 23  1  0  0  0  0
 30 29  1  1  0  0  0
 33 32  1  6  0  0  0
 33 34  1  0  0  0  0
 34 35  1  0  0  0  0
 34 31  1  1  0  0  0
 36 35  2  0  0  0  0
 37 38  1  0  0  0  0
 37 33  1  0  0  0  0
 38 39  1  1  0  0  0
 38 36  1  0  0  0  0
 39 41  1  6  0  0  0
 39 43  1  0  0  0  0
 41 40  1  0  0  0  0
 42 41  2  0  0  0  0
 43 46  1  0  0  0  0
 44 45  1  0  0  0  0
 46 44  1  0  0  0  0
 46 45  1  0  0  0  0
M  END
>  <MODEL>
1

>  <REMARK>
 VINA RESULT:      -8.6      0.000      0.000
  Name = 
  11 active torsions:
  status: ('A' for Active; 'I' for Inactive)
    1  A    between atoms: N_2  and  C_12
    2  A    between atoms: O_4  and  C_36
    3  A    between atoms: O_4  and  C_46
    4  A    between atoms: C_5  and  C_27
    5  A    between atoms: C_5  and  C_38
    6  A    between atoms: N_15  and  C_38
    7  A    between atoms: N_15  and  C_43
    8  A    between atoms: C_28  and  C_30
    9  A    between atoms: C_30  and  C_33
   10  A    between atoms: C_32  and  C_46
   11  A    between atoms: C_45  and  C_46
                            x       y       z     vdW  Elec       q    Type
                         _______ _______ _______ _____ _____    ______ ____

>  <TORSDO>
F 11

$$$$
=
 OpenBabel10232408033D

 46 51  0  0  1  0  0  0  0  0999 V2000
  185.3300  176.8510  134.3460 O   0  0  0  0  0  1  0  0  0  0  0  0
  185.4250  177.1730  135.7000 C   0  0  0  0  0  0  0  0  0  0  0  0
  185.8380  178.2330  139.8590 C   0  0  0  0  0  2  0  0  0  0  0  0
  184.3760  176.8610  136.5980 C   0  0  0  0  0  0  0  0  0  0  0  0
  186.5830  177.8120  136.1700 C   0  0  0  0  0  0  0  0  0  0  0  0
  185.1510  179.4450  140.0670 O   0  0  0  0  0  0  0  0  0  0  0  0
  182.3070  178.4050  140.6810 C   0  0  0  0  0  2  0  0  0  0  0  0
  184.5090  177.1880  137.9630 C   0  0  0  0  0  0  0  0  0  0  0  0
  183.5520  178.2740  141.5560 C   0  0  0  0  0  2  0  0  0  0  0  0
  183.3610  176.9450  138.9210 C   0  0  2  0  0  3  0  0  0  0  0  0
  182.3890  175.9010  138.4560 C   0  0  0  0  0  3  0  0  0  0  0  0
  182.6230  178.2510  139.1940 C   0  0  0  0  0  2  0  0  0  0  0  0
  186.7020  178.1280  137.5320 C   0  0  0  0  0  3  0  0  0  0  0  0
  182.2490  175.5710  137.1700 C   0  0  0  0  0  0  0  0  0  0  0  0
  185.6820  177.8170  138.4270 C   0  0  0  0  0  0  0  0  0  0  0  0
  182.8690  176.0330  134.9350 O   0  0  0  0  0  0  0  0  0  0  0  0
  184.5390  179.4360  141.3430 C   0  0  1  0  0  3  0  0  0  0  0  0
  183.1500  176.1480  136.1560 C   0  0  0  0  0  0  0  0  0  0  0  0
  187.6310  178.1460  135.2530 N   0  0  0  0  0  2  0  0  0  0  0  0
  189.0450  178.0320  135.5920 C   0  0  0  0  0  1  0  0  0  0  0  0
  181.1970  174.5810  136.7920 C   0  0  0  0  0  2  0  0  0  0  0  0
  181.7040  173.1680  137.0200 C   0  0  0  0  0  2  0  0  0  0  0  0
  182.8400  172.9160  136.1340 N   0  0  0  0  0  2  0  0  0  0  0  0
  184.6310  171.2680  135.6090 C   0  0  0  0  0  2  0  0  0  0  0  0
  185.6170  173.4320  135.8420 O   0  0  0  0  0  0  0  0  0  0  0  0
  185.9030  172.1070  135.4730 C   0  0  0  0  0  2  0  0  0  0  0  0
  184.5260  172.4300  137.7250 O   0  0  0  0  0  0  0  0  0  0  0  0
  185.4140  173.4460  137.2520 C   0  0  0  0  0  2  0  0  0  0  0  0
  182.9480  170.8610  137.2470 O   0  0  0  0  0  1  0  0  0  0  0  0
  183.7260  171.8770  136.6930 C   0  0  1  0  0  0  0  0  0  0  0  0
  185.5650  179.5360  142.4750 C   0  0  0  0  0  2  0  0  0  0  0  0
  183.8390  179.1660  145.2170 Cl  0  0  0  0  0  0  0  0  0  0  0  0
  185.4710  178.5730  144.8110 C   0  0  2  0  0  3  0  0  0  0  0  0
  185.5900  178.2640  143.3130 C   0  0  2  0  0  3  0  0  0  0  0  0
  186.8750  177.5380  143.0220 C   0  0  0  0  0  3  0  0  0  0  0  0
  187.5650  176.8950  143.9730 C   0  0  0  0  0  3  0  0  0  0  0  0
  185.7400  177.3720  145.6050 N   0  0  0  0  0  2  0  0  0  0  0  0
  187.1230  176.8970  145.4160 C   0  0  2  0  0  3  0  0  0  0  0  0
  188.1550  177.5570  146.3470 C   0  0  1  0  0  3  0  0  0  0  0  0
  187.5890  177.0750  148.7420 O   0  0  0  0  0  1  0  0  0  0  0  0
  187.6040  177.9760  147.6790 C   0  0  0  0  0  0  0  0  0  0  0  0
  187.1980  179.1670  147.8480 O   0  0  0  0  0  0  0  0  0  0  0  0
  189.2550  176.7080  146.5210 O   0  0  0  0  0  0  0  0  0  0  0  0
  191.6270  176.7120  146.5130 C   0  0  0  0  0  2  0  0  0  0  0  0
  191.1420  176.7920  145.0730 C   0  0  0  0  0  2  0  0  0  0  0  0
  190.3690  177.4890  146.1790 C   0  0  0  0  0  3  0  0  0  0  0  0
  1  2  1  0  0  0  0
  2  5  2  0  0  0  0
  2  4  1  0  0  0  0
  3  6  1  0  0  0  0
  4  8  2  0  0  0  0
  5 13  1  0  0  0  0
  6 17  1  0  0  0  0
  7  9  1  0  0  0  0
  8 15  1  0  0  0  0
  8 10  1  0  0  0  0
 10 11  1  6  0  0  0
 10 12  1  0  0  0  0
 12  7  1  0  0  0  0
 13 15  2  0  0  0  0
 14 11  2  0  0  0  0
 15  3  1  0  0  0  0
 16 18  2  0  0  0  0
 17  9  1  0  0  0  0
 17 31  1  1  0  0  0
 18  4  1  0  0  0  0
 18 14  1  0  0  0  0
 19 20  1  0  0  0  0
 19  5  1  0  0  0  0
 21 22  1  0  0  0  0
 21 14  1  0  0  0  0
 23 30  1  0  0  0  0
 23 22  1  0  0  0  0
 24 30  1  0  0  0  0
 25 28  1  0  0  0  0
 26 24  1  0  0  0  0
 26 25  1  0  0  0  0
 28 27  1  0  0  0  0
 30 29  1  1  0  0  0
 30 27  1  0  0  0  0
 33 32  1  6  0  0  0
 33 37  1  0  0  0  0
 34 31  1  6  0  0  0
 34 33  1  0  0  0  0
 35 34  1  0  0  0  0
 35 36  2  0  0  0  0
 36 38  1  0  0  0  0
 38 37  1  0  0  0  0
 38 39  1  1  0  0  0
 39 43  1  1  0  0  0
 39 41  1  0  0  0  0
 41 42  2  0  0  0  0
 41 40  1  0  0  0  0
 45 46  1  0  0  0  0
 45 44  1  0  0  0  0
 46 44  1  0  0  0  0
 46 43  1  0  0  0  0
M  END
>  <MODEL>
2

>  <REMARK>
 VINA RESULT:      -7.3      3.734      9.360
  Name = 
  11 active torsions:
  status: ('A' for Active; 'I' for Inactive)
    1  A    between atoms: N_2  and  C_12
    2  A    between atoms: O_4  and  C_36
    3  A    between atoms: O_4  and  C_46
    4  A    between atoms: C_5  and  C_27
    5  A    between atoms: C_5  and  C_38
    6  A    between atoms: N_15  and  C_38
    7  A    between atoms: N_15  and  C_43
    8  A    between atoms: C_28  and  C_30
    9  A    between atoms: C_30  and  C_33
   10  A    between atoms: C_32  and  C_46
   11  A    between atoms: C_45  and  C_46
                            x       y       z     vdW  Elec       q    Type
                         _______ _______ _______ _____ _____    ______ ____

>  <TORSDO>
F 11

$$$$
=
 OpenBabel10232408033D

 46 51  0  0  1  0  0  0  0  0999 V2000
  193.5710  173.8610  135.6440 O   0  0  0  0  0  1  0  0  0  0  0  0
  192.7850  174.5420  136.5740 C   0  0  0  0  0  0  0  0  0  0  0  0
  190.4700  176.6920  139.5070 C   0  0  0  0  0  2  0  0  0  0  0  0
  191.3760  174.5780  136.4480 C   0  0  0  0  0  0  0  0  0  0  0  0
  193.4100  175.1950  137.6480 C   0  0  0  0  0  0  0  0  0  0  0  0
  190.1740  177.9640  138.9780 O   0  0  0  0  0  0  0  0  0  0  0  0
  187.5580  177.3640  137.4470 C   0  0  0  0  0  2  0  0  0  0  0  0
  190.6080  175.2640  137.4110 C   0  0  0  0  0  0  0  0  0  0  0  0
  187.7630  177.3880  138.9600 C   0  0  0  0  0  2  0  0  0  0  0  0
  189.1080  175.3900  137.2430 C   0  0  2  0  0  3  0  0  0  0  0  0
  188.5020  174.3370  136.3630 C   0  0  0  0  0  3  0  0  0  0  0  0
  188.7570  176.7740  136.7070 C   0  0  0  0  0  2  0  0  0  0  0  0
  192.6320  175.8710  138.6010 C   0  0  0  0  0  3  0  0  0  0  0  0
  189.2090  173.6710  135.4480 C   0  0  0  0  0  0  0  0  0  0  0  0
  191.2440  175.9050  138.4940 C   0  0  0  0  0  0  0  0  0  0  0  0
  191.2890  173.4360  134.3480 O   0  0  0  0  0  0  0  0  0  0  0  0
  188.8770  178.3620  139.3830 C   0  0  1  0  0  3  0  0  0  0  0  0
  190.6670  173.8670  135.3520 C   0  0  0  0  0  0  0  0  0  0  0  0
  194.8370  175.1750  137.7580 N   0  0  0  0  0  2  0  0  0  0  0  0
  195.5310  174.8410  138.9970 C   0  0  0  0  0  1  0  0  0  0  0  0
  188.5030  172.7000  134.5610 C   0  0  0  0  0  2  0  0  0  0  0  0
  187.3720  172.0270  135.3190 C   0  0  0  0  0  2  0  0  0  0  0  0
  186.0980  172.3720  134.6890 N   0  0  0  0  0  2  0  0  0  0  0  0
  185.3110  172.5390  137.0450 C   0  0  0  0  0  2  0  0  0  0  0  0
  185.0890  174.6790  136.0040 O   0  0  0  0  0  0  0  0  0  0  0  0
  184.9780  174.0190  137.2400 C   0  0  0  0  0  2  0  0  0  0  0  0
  183.8220  172.8260  135.1630 O   0  0  0  0  0  0  0  0  0  0  0  0
  184.0000  174.2440  135.1930 C   0  0  0  0  0  2  0  0  0  0  0  0
  184.6680  170.7580  135.5960 O   0  0  0  0  0  1  0  0  0  0  0  0
  184.9690  172.1190  135.6060 C   0  0  1  0  0  0  0  0  0  0  0  0
  188.8170  178.6950  140.8760 C   0  0  0  0  0  2  0  0  0  0  0  0
  185.6230  179.2890  141.1610 Cl  0  0  0  0  0  0  0  0  0  0  0  0
  186.7530  178.5550  142.3300 C   0  0  2  0  0  3  0  0  0  0  0  0
  187.8570  177.7690  141.6110 C   0  0  2  0  0  3  0  0  0  0  0  0
  188.6540  176.9560  142.5940 C   0  0  0  0  0  3  0  0  0  0  0  0
  188.1870  176.6440  143.8100 C   0  0  0  0  0  3  0  0  0  0  0  0
  185.9950  177.6740  143.2210 N   0  0  0  0  0  2  0  0  0  0  0  0
  186.8430  177.1300  144.2960 C   0  0  2  0  0  3  0  0  0  0  0  0
  186.9570  178.0330  145.5370 C   0  0  1  0  0  3  0  0  0  0  0  0
  185.6320  179.5220  147.0580 O   0  0  0  0  0  1  0  0  0  0  0  0
  185.6650  178.6700  145.9550 C   0  0  0  0  0  0  0  0  0  0  0  0
  184.6120  178.4690  145.2750 O   0  0  0  0  0  0  0  0  0  0  0  0
  187.5130  177.3150  146.6020 O   0  0  0  0  0  0  0  0  0  0  0  0
  188.9380  177.9580  148.3860 C   0  0  0  0  0  2  0  0  0  0  0  0
  189.6910  176.9770  147.5000 C   0  0  0  0  0  2  0  0  0  0  0  0
  188.7210  177.9700  146.8860 C   0  0  0  0  0  3  0  0  0  0  0  0
  1  2  1  0  0  0  0
  2  5  1  0  0  0  0
  4  2  2  0  0  0  0
  4  8  1  0  0  0  0
  5 19  1  0  0  0  0
  5 13  2  0  0  0  0
  6 17  1  0  0  0  0
  6  3  1  0  0  0  0
  7  9  1  0  0  0  0
  8 15  2  0  0  0  0
  9 17  1  0  0  0  0
 10 11  1  6  0  0  0
 10  8  1  0  0  0  0
 12 10  1  0  0  0  0
 12  7  1  0  0  0  0
 14 11  2  0  0  0  0
 15 13  1  0  0  0  0
 15  3  1  0  0  0  0
 16 18  2  0  0  0  0
 17 31  1  1  0  0  0
 18 14  1  0  0  0  0
 18  4  1  0  0  0  0
 19 20  1  0  0  0  0
 21 22  1  0  0  0  0
 21 14  1  0  0  0  0
 23 22  1  0  0  0  0
 23 30  1  0  0  0  0
 24 26  1  0  0  0  0
 25 26  1  0  0  0  0
 27 28  1  0  0  0  0
 27 30  1  0  0  0  0
 28 25  1  0  0  0  0
 30 29  1  6  0  0  0
 30 24  1  0  0  0  0
 33 32  1  6  0  0  0
 33 37  1  0  0  0  0
 34 31  1  1  0  0  0
 34 33  1  0  0  0  0
 34 35  1  0  0  0  0
 35 36  2  0  0  0  0
 36 38  1  0  0  0  0
 37 38  1  0  0  0  0
 38 39  1  1  0  0  0
 39 41  1  1  0  0  0
 39 43  1  0  0  0  0
 41 40  1  0  0  0  0
 42 41  2  0  0  0  0
 43 46  1  0  0  0  0
 45 44  1  0  0  0  0
 46 45  1  0  0  0  0
 46 44  1  0  0  0  0
M  END
>  <MODEL>
3

>  <REMARK>
 VINA RESULT:      -7.3      3.115     10.372
  Name = 
  11 active torsions:
  status: ('A' for Active; 'I' for Inactive)
    1  A    between atoms: N_2  and  C_12
    2  A    between atoms: O_4  and  C_36
    3  A    between atoms: O_4  and  C_46
    4  A    between atoms: C_5  and  C_27
    5  A    between atoms: C_5  and  C_38
    6  A    between atoms: N_15  and  C_38
    7  A    between atoms: N_15  and  C_43
    8  A    between atoms: C_28  and  C_30
    9  A    between atoms: C_30  and  C_33
   10  A    between atoms: C_32  and  C_46
   11  A    between atoms: C_45  and  C_46
                            x       y       z     vdW  Elec       q    Type
                         _______ _______ _______ _____ _____    ______ ____

>  <TORSDO>
F 11

$$$$
=
 OpenBabel10232408033D

 46 51  0  0  1  0  0  0  0  0999 V2000
  182.7530  179.1930  145.4420 O   0  0  0  0  0  1  0  0  0  0  0  0
  183.3220  178.8200  144.2250 C   0  0  0  0  0  0  0  0  0  0  0  0
  184.9620  177.6970  140.3990 C   0  0  0  0  0  2  0  0  0  0  0  0
  184.6890  178.4670  144.1380 C   0  0  0  0  0  0  0  0  0  0  0  0
  182.5170  178.7940  143.0750 C   0  0  0  0  0  0  0  0  0  0  0  0
  185.6050  178.8260  139.8560 O   0  0  0  0  0  0  0  0  0  0  0  0
  188.4280  178.5320  141.0800 C   0  0  0  0  0  2  0  0  0  0  0  0
  185.2320  178.0820  142.8950 C   0  0  0  0  0  0  0  0  0  0  0  0
  187.7820  177.6500  140.0120 C   0  0  0  0  0  2  0  0  0  0  0  0
  186.7120  177.7880  142.7660 C   0  0  2  0  0  3  0  0  0  0  0  0
  187.3750  177.4170  144.0590 C   0  0  0  0  0  3  0  0  0  0  0  0
  187.4280  178.9830  142.1440 C   0  0  0  0  0  2  0  0  0  0  0  0
  183.0700  178.4050  141.8450 C   0  0  0  0  0  3  0  0  0  0  0  0
  186.8790  177.7660  145.2480 C   0  0  0  0  0  0  0  0  0  0  0  0
  184.4120  178.0460  141.7490 C   0  0  0  0  0  0  0  0  0  0  0  0
  185.2180  178.9810  146.4140 O   0  0  0  0  0  0  0  0  0  0  0  0
  186.7670  178.4240  139.1520 C   0  0  1  0  0  3  0  0  0  0  0  0
  185.5700  178.4390  145.3340 C   0  0  0  0  0  0  0  0  0  0  0  0
  181.1390  179.1750  143.1640 N   0  0  0  0  0  2  0  0  0  0  0  0
  180.4260  179.8270  142.0710 C   0  0  0  0  0  1  0  0  0  0  0  0
  187.6530  177.4240  146.4780 C   0  0  0  0  0  2  0  0  0  0  0  0
  188.9920  176.8150  146.1000 C   0  0  0  0  0  2  0  0  0  0  0  0
  189.8540  177.8560  145.5420 N   0  0  0  0  0  2  0  0  0  0  0  0
  191.3260  176.2150  144.3860 C   0  0  0  0  0  2  0  0  0  0  0  0
  190.9130  178.0520  142.9140 O   0  0  0  0  0  0  0  0  0  0  0  0
  191.5020  176.7780  142.9740 C   0  0  0  0  0  2  0  0  0  0  0  0
  192.0790  178.4360  144.9720 O   0  0  0  0  0  0  0  0  0  0  0  0
  191.7300  178.9340  143.6780 C   0  0  0  0  0  2  0  0  0  0  0  0
  191.7020  176.9240  146.6310 O   0  0  0  0  0  1  0  0  0  0  0  0
  191.2400  177.3730  145.3950 C   0  0  1  0  0  0  0  0  0  0  0  0
  186.4270  177.6840  137.8550 C   0  0  0  0  0  2  0  0  0  0  0  0
  186.6900  178.2760  134.6590 Cl  0  0  0  0  0  0  0  0  0  0  0  0
  187.3400  176.9240  135.6240 C   0  0  2  0  0  3  0  0  0  0  0  0
  187.6820  177.3770  137.0490 C   0  0  2  0  0  3  0  0  0  0  0  0
  188.4520  176.3070  137.7740 C   0  0  0  0  0  3  0  0  0  0  0  0
  189.0970  175.3260  137.1290 C   0  0  0  0  0  3  0  0  0  0  0  0
  188.5330  176.4040  134.9520 N   0  0  0  0  0  2  0  0  0  0  0  0
  189.0530  175.2010  135.6250 C   0  0  2  0  0  3  0  0  0  0  0  0
  188.4070  173.8820  135.1640 C   0  0  1  0  0  3  0  0  0  0  0  0
  190.7320  172.9460  135.1970 O   0  0  0  0  0  1  0  0  0  0  0  0
  189.3880  172.7870  134.8650 C   0  0  0  0  0  0  0  0  0  0  0  0
  188.9830  171.6970  134.3550 O   0  0  0  0  0  0  0  0  0  0  0  0
  187.4700  173.4510  136.1110 O   0  0  0  0  0  0  0  0  0  0  0  0
  185.6110  172.0180  135.7720 C   0  0  0  0  0  2  0  0  0  0  0  0
  185.1090  173.3190  136.3800 C   0  0  0  0  0  2  0  0  0  0  0  0
  186.2670  173.3310  135.3980 C   0  0  0  0  0  3  0  0  0  0  0  0
  2  1  1  0  0  0  0
  3 15  1  0  0  0  0
  4  2  1  0  0  0  0
  4 18  1  0  0  0  0
  5 19  1  0  0  0  0
  5  2  2  0  0  0  0
  6  3  1  0  0  0  0
  7 12  1  0  0  0  0
  8  4  2  0  0  0  0
  9  7  1  0  0  0  0
 10 12  1  1  0  0  0
 10  8  1  0  0  0  0
 10 11  1  0  0  0  0
 11 14  2  0  0  0  0
 13  5  1  0  0  0  0
 14 18  1  0  0  0  0
 14 21  1  0  0  0  0
 15 13  2  0  0  0  0
 15  8  1  0  0  0  0
 17 31  1  6  0  0  0
 17  6  1  0  0  0  0
 17  9  1  0  0  0  0
 18 16  2  0  0  0  0
 20 19  1  0  0  0  0
 22 21  1  0  0  0  0
 23 22  1  0  0  0  0
 24 30  1  0  0  0  0
 25 26  1  0  0  0  0
 25 28  1  0  0  0  0
 26 24  1  0  0  0  0
 27 30  1  0  0  0  0
 28 27  1  0  0  0  0
 30 23  1  0  0  0  0
 30 29  1  1  0  0  0
 33 32  1  6  0  0  0
 33 34  1  0  0  0  0
 34 35  1  0  0  0  0
 34 31  1  1  0  0  0
 36 35  2  0  0  0  0
 37 33  1  0  0  0  0
 37 38  1  0  0  0  0
 38 39  1  1  0  0  0
 38 36  1  0  0  0  0
 39 41  1  1  0  0  0
 39 43  1  0  0  0  0
 41 40  1  0  0  0  0
 42 41  2  0  0  0  0
 44 45  1  0  0  0  0
 46 44  1  0  0  0  0
 46 43  1  0  0  0  0
 46 45  1  0  0  0  0
M  END
>  <MODEL>
4

>  <REMARK>
 VINA RESULT:      -7.0      1.508      2.497
  Name = 
  11 active torsions:
  status: ('A' for Active; 'I' for Inactive)
    1  A    between atoms: N_2  and  C_12
    2  A    between atoms: O_4  and  C_36
    3  A    between atoms: O_4  and  C_46
    4  A    between atoms: C_5  and  C_27
    5  A    between atoms: C_5  and  C_38
    6  A    between atoms: N_15  and  C_38
    7  A    between atoms: N_15  and  C_43
    8  A    between atoms: C_28  and  C_30
    9  A    between atoms: C_30  and  C_33
   10  A    between atoms: C_32  and  C_46
   11  A    between atoms: C_45  and  C_46
                            x       y       z     vdW  Elec       q    Type
                         _______ _______ _______ _____ _____    ______ ____

>  <TORSDO>
F 11

$$$$
=
 OpenBabel10232408033D

 46 51  0  0  1  0  0  0  0  0999 V2000
  190.8920  175.7920  138.9660 O   0  0  0  0  0  1  0  0  0  0  0  0
  189.7110  176.5340  138.9740 C   0  0  0  0  0  0  0  0  0  0  0  0
  186.0370  178.7870  138.8670 C   0  0  0  0  0  2  0  0  0  0  0  0
  189.2610  177.1730  140.1530 C   0  0  0  0  0  0  0  0  0  0  0  0
  188.9680  176.6450  137.7880 C   0  0  0  0  0  0  0  0  0  0  0  0
  185.0100  177.9650  139.3690 O   0  0  0  0  0  0  0  0  0  0  0  0
  185.2130  178.5600  142.3940 C   0  0  0  0  0  2  0  0  0  0  0  0
  188.0690  177.9270  140.1250 C   0  0  0  0  0  0  0  0  0  0  0  0
  184.7300  179.5020  141.2930 C   0  0  0  0  0  2  0  0  0  0  0  0
  187.5250  178.5420  141.3970 C   0  0  2  0  0  3  0  0  0  0  0  0
  188.5570  178.7480  142.4650 C   0  0  0  0  0  3  0  0  0  0  0  0
  186.3840  177.6890  141.9420 C   0  0  0  0  0  2  0  0  0  0  0  0
  187.7860  177.4020  137.7740 C   0  0  0  0  0  3  0  0  0  0  0  0
  189.6940  178.0510  142.5100 C   0  0  0  0  0  0  0  0  0  0  0  0
  187.3370  178.0440  138.9260 C   0  0  0  0  0  0  0  0  0  0  0  0
  190.9700  176.2920  141.5760 O   0  0  0  0  0  0  0  0  0  0  0  0
  184.0930  178.7440  140.1150 C   0  0  1  0  0  3  0  0  0  0  0  0
  190.0350  177.1190  141.4200 C   0  0  0  0  0  0  0  0  0  0  0  0
  189.4160  175.9770  136.6030 N   0  0  0  0  0  2  0  0  0  0  0  0
  188.5090  175.5550  135.5420 C   0  0  0  0  0  1  0  0  0  0  0  0
  190.6240  178.2660  143.6590 C   0  0  0  0  0  2  0  0  0  0  0  0
  190.2140  177.3950  144.8330 C   0  0  0  0  0  2  0  0  0  0  0  0
  189.4390  178.1970  145.7790 N   0  0  0  0  0  2  0  0  0  0  0  0
  188.1250  178.1760  147.8930 C   0  0  0  0  0  2  0  0  0  0  0  0
  186.6500  178.6460  146.0720 O   0  0  0  0  0  0  0  0  0  0  0  0
  186.7080  178.5750  147.4740 C   0  0  0  0  0  2  0  0  0  0  0  0
  187.7890  176.5380  146.1490 O   0  0  0  0  0  0  0  0  0  0  0  0
  186.7320  177.3120  145.5760 C   0  0  0  0  0  2  0  0  0  0  0  0
  189.7190  176.4880  147.3530 O   0  0  0  0  0  1  0  0  0  0  0  0
  188.7750  177.3390  146.7790 C   0  0  1  0  0  0  0  0  0  0  0  0
  183.2580  179.6640  139.2200 C   0  0  0  0  0  2  0  0  0  0  0  0
  181.2140  178.4470  141.4510 Cl  0  0  0  0  0  0  0  0  0  0  0  0
  181.5840  177.8630  139.8060 C   0  0  2  0  0  3  0  0  0  0  0  0
  181.9190  179.0290  138.8680 C   0  0  2  0  0  3  0  0  0  0  0  0
  181.9870  178.5580  137.4410 C   0  0  0  0  0  3  0  0  0  0  0  0
  181.4170  177.4160  137.0360 C   0  0  0  0  0  3  0  0  0  0  0  0
  180.4260  177.1190  139.3050 N   0  0  0  0  0  2  0  0  0  0  0  0
  180.7070  176.4960  138.0000 C   0  0  2  0  0  3  0  0  0  0  0  0
  181.3680  175.1090  138.0840 C   0  0  1  0  0  3  0  0  0  0  0  0
  179.9830  173.1670  138.8560 O   0  0  0  0  0  1  0  0  0  0  0  0
  180.4360  173.9650  137.8080 C   0  0  0  0  0  0  0  0  0  0  0  0
  180.0250  173.7570  136.6250 O   0  0  0  0  0  0  0  0  0  0  0  0
  182.4740  175.0520  137.2280 O   0  0  0  0  0  0  0  0  0  0  0  0
  184.4140  173.7540  137.6530 C   0  0  0  0  0  2  0  0  0  0  0  0
  184.8510  175.1610  137.2730 C   0  0  0  0  0  2  0  0  0  0  0  0
  183.5840  174.9480  138.0810 C   0  0  0  0  0  3  0  0  0  0  0  0
  1  2  1  0  0  0  0
  2  4  1  0  0  0  0
  3 15  1  0  0  0  0
  3  6  1  0  0  0  0
  4 18  1  0  0  0  0
  5  2  2  0  0  0  0
  6 17  1  0  0  0  0
  8  4  2  0  0  0  0
  8 10  1  0  0  0  0
  9  7  1  0  0  0  0
 10 12  1  1  0  0  0
 10 11  1  0  0  0  0
 11 14  2  0  0  0  0
 12  7  1  0  0  0  0
 13  5  1  0  0  0  0
 13 15  2  0  0  0  0
 14 21  1  0  0  0  0
 15  8  1  0  0  0  0
 17 31  1  6  0  0  0
 17  9  1  0  0  0  0
 18 16  2  0  0  0  0
 18 14  1  0  0  0  0
 19  5  1  0  0  0  0
 20 19  1  0  0  0  0
 21 22  1  0  0  0  0
 22 23  1  0  0  0  0
 23 30  1  0  0  0  0
 25 26  1  0  0  0  0
 26 24  1  0  0  0  0
 27 30  1  0  0  0  0
 28 25  1  0  0  0  0
 28 27  1  0  0  0  0
 30 29  1  1  0  0  0
 30 24  1  0  0  0  0
 33 32  1  1  0  0  0
 34 31  1  1  0  0  0
 34 33  1  0  0  0  0
 35 34  1  0  0  0  0
 36 35  2  0  0  0  0
 36 38  1  0  0  0  0
 37 33  1  0  0  0  0
 38 39  1  1  0  0  0
 38 37  1  0  0  0  0
 39 43  1  6  0  0  0
 41 39  1  0  0  0  0
 41 40  1  0  0  0  0
 42 41  2  0  0  0  0
 43 46  1  0  0  0  0
 44 46  1  0  0  0  0
 45 44  1  0  0  0  0
 45 46  1  0  0  0  0
M  END
>  <MODEL>
5

>  <REMARK>
 VINA RESULT:      -6.8      3.261      6.811
  Name = 
  11 active torsions:
  status: ('A' for Active; 'I' for Inactive)
    1  A    between atoms: N_2  and  C_12
    2  A    between atoms: O_4  and  C_36
    3  A    between atoms: O_4  and  C_46
    4  A    between atoms: C_5  and  C_27
    5  A    between atoms: C_5  and  C_38
    6  A    between atoms: N_15  and  C_38
    7  A    between atoms: N_15  and  C_43
    8  A    between atoms: C_28  and  C_30
    9  A    between atoms: C_30  and  C_33
   10  A    between atoms: C_32  and  C_46
   11  A    between atoms: C_45  and  C_46
                            x       y       z     vdW  Elec       q    Type
                         _______ _______ _______ _____ _____    ______ ____

>  <TORSDO>
F 11

$$$$
=
 OpenBabel10232408033D

 46 51  0  0  1  0  0  0  0  0999 V2000
  192.1890  172.2000  134.3460 O   0  0  0  0  0  1  0  0  0  0  0  0
  191.7070  173.1680  135.2270 C   0  0  0  0  0  0  0  0  0  0  0  0
  190.0940  176.0920  137.9540 C   0  0  0  0  0  2  0  0  0  0  0  0
  192.5590  174.1720  135.7430 C   0  0  0  0  0  0  0  0  0  0  0  0
  190.3530  173.1370  135.5990 C   0  0  0  0  0  0  0  0  0  0  0  0
  190.4070  175.6810  139.2640 O   0  0  0  0  0  0  0  0  0  0  0  0
  193.1910  176.9690  139.6310 C   0  0  0  0  0  2  0  0  0  0  0  0
  192.0380  175.1440  136.6220 C   0  0  0  0  0  0  0  0  0  0  0  0
  191.8430  177.6820  139.5410 C   0  0  0  0  0  2  0  0  0  0  0  0
  192.9540  176.1710  137.2540 C   0  0  2  0  0  3  0  0  0  0  0  0
  194.2260  176.4040  136.4940 C   0  0  0  0  0  3  0  0  0  0  0  0
  193.2780  175.7690  138.6890 C   0  0  0  0  0  2  0  0  0  0  0  0
  189.8480  174.1130  136.4720 C   0  0  0  0  0  3  0  0  0  0  0  0
  194.7360  175.5020  135.6530 C   0  0  0  0  0  0  0  0  0  0  0  0
  190.6750  175.1130  136.9790 C   0  0  0  0  0  0  0  0  0  0  0  0
  194.5650  173.3200  134.7560 O   0  0  0  0  0  0  0  0  0  0  0  0
  190.6880  176.8120  140.0680 C   0  0  1  0  0  3  0  0  0  0  0  0
  193.9880  174.2700  135.3460 C   0  0  0  0  0  0  0  0  0  0  0  0
  189.5010  172.1040  135.0930 N   0  0  0  0  0  2  0  0  0  0  0  0
  188.0580  172.2660  134.9550 C   0  0  0  0  0  1  0  0  0  0  0  0
  196.0510  175.7870  135.0050 C   0  0  0  0  0  2  0  0  0  0  0  0
  197.1300  174.9000  135.6010 C   0  0  0  0  0  2  0  0  0  0  0  0
  197.5740  175.4710  136.8730 N   0  0  0  0  0  2  0  0  0  0  0  0
  198.7180  175.0450  139.0420 C   0  0  0  0  0  2  0  0  0  0  0  0
  196.3560  175.0560  139.4050 O   0  0  0  0  0  0  0  0  0  0  0  0
  197.5900  175.0000  140.0740 C   0  0  0  0  0  2  0  0  0  0  0  0
  197.3170  173.3900  137.9750 O   0  0  0  0  0  0  0  0  0  0  0  0
  196.1810  173.8120  138.7330 C   0  0  0  0  0  2  0  0  0  0  0  0
  199.3170  173.9190  137.0280 O   0  0  0  0  0  1  0  0  0  0  0  0
  198.2250  174.4490  137.7130 C   0  0  1  0  0  0  0  0  0  0  0  0
  189.4310  177.6370  140.3600 C   0  0  0  0  0  2  0  0  0  0  0  0
  186.5410  178.8080  141.3140 Cl  0  0  0  0  0  0  0  0  0  0  0  0
  187.8380  178.0520  142.2780 C   0  0  2  0  0  3  0  0  0  0  0  0
  188.5920  176.9980  141.4580 C   0  0  2  0  0  3  0  0  0  0  0  0
  189.5110  176.1980  142.3410 C   0  0  0  0  0  3  0  0  0  0  0  0
  189.3530  176.1370  143.6700 C   0  0  0  0  0  3  0  0  0  0  0  0
  187.2390  177.4430  143.4680 N   0  0  0  0  0  2  0  0  0  0  0  0
  188.2660  176.9080  144.3790 C   0  0  2  0  0  3  0  0  0  0  0  0
  188.8300  177.9350  145.3770 C   0  0  1  0  0  3  0  0  0  0  0  0
  189.3040  176.9360  147.6270 O   0  0  0  0  0  1  0  0  0  0  0  0
  188.4540  177.6750  146.8060 C   0  0  0  0  0  0  0  0  0  0  0  0
  187.3850  178.1700  147.2780 O   0  0  0  0  0  0  0  0  0  0  0  0
  190.2210  178.0160  145.2470 O   0  0  0  0  0  0  0  0  0  0  0  0
  191.9080  179.4830  144.4530 C   0  0  0  0  0  2  0  0  0  0  0  0
  191.3700  178.6870  143.2730 C   0  0  0  0  0  2  0  0  0  0  0  0
  190.4400  179.1100  144.3960 C   0  0  0  0  0  3  0  0  0  0  0  0
  1  2  1  0  0  0  0
  2  5  2  0  0  0  0
  2  4  1  0  0  0  0
  3  6  1  0  0  0  0
  4  8  2  0  0  0  0
  5 13  1  0  0  0  0
  6 17  1  0  0  0  0
  8 15  1  0  0  0  0
  8 10  1  0  0  0  0
  9  7  1  0  0  0  0
  9 17  1  0  0  0  0
 10 11  1  6  0  0  0
 10 12  1  0  0  0  0
 12  7  1  0  0  0  0
 13 15  2  0  0  0  0
 14 11  2  0  0  0  0
 15  3  1  0  0  0  0
 16 18  2  0  0  0  0
 17 31  1  6  0  0  0
 18 14  1  0  0  0  0
 18  4  1  0  0  0  0
 19  5  1  0  0  0  0
 20 19  1  0  0  0  0
 21 22  1  0  0  0  0
 21 14  1  0  0  0  0
 22 23  1  0  0  0  0
 23 30  1  0  0  0  0
 24 26  1  0  0  0  0
 25 26  1  0  0  0  0
 27 28  1  0  0  0  0
 28 25  1  0  0  0  0
 30 29  1  6  0  0  0
 30 27  1  0  0  0  0
 30 24  1  0  0  0  0
 33 32  1  6  0  0  0
 33 37  1  0  0  0  0
 34 31  1  6  0  0  0
 34 33  1  0  0  0  0
 34 35  1  0  0  0  0
 35 36  2  0  0  0  0
 36 38  1  0  0  0  0
 37 38  1  0  0  0  0
 38 39  1  6  0  0  0
 39 43  1  1  0  0  0
 39 41  1  0  0  0  0
 41 42  2  0  0  0  0
 41 40  1  0  0  0  0
 45 46  1  0  0  0  0
 45 44  1  0  0  0  0
 46 44  1  0  0  0  0
 46 43  1  0  0  0  0
M  END
>  <MODEL>
6

>  <REMARK>
 VINA RESULT:      -6.8      3.692     10.083
  Name = 
  11 active torsions:
  status: ('A' for Active; 'I' for Inactive)
    1  A    between atoms: N_2  and  C_12
    2  A    between atoms: O_4  and  C_36
    3  A    between atoms: O_4  and  C_46
    4  A    between atoms: C_5  and  C_27
    5  A    between atoms: C_5  and  C_38
    6  A    between atoms: N_15  and  C_38
    7  A    between atoms: N_15  and  C_43
    8  A    between atoms: C_28  and  C_30
    9  A    between atoms: C_30  and  C_33
   10  A    between atoms: C_32  and  C_46
   11  A    between atoms: C_45  and  C_46
                            x       y       z     vdW  Elec       q    Type
                         _______ _______ _______ _____ _____    ______ ____

>  <TORSDO>
F 11

$$$$
=
 OpenBabel10232408033D

 46 51  0  0  1  0  0  0  0  0999 V2000
  188.5650  176.8120  145.3200 O   0  0  0  0  0  1  0  0  0  0  0  0
  189.2670  176.9530  144.1230 C   0  0  0  0  0  0  0  0  0  0  0  0
  191.5490  177.3340  140.4850 C   0  0  0  0  0  2  0  0  0  0  0  0
  188.6210  177.4080  142.9490 C   0  0  0  0  0  0  0  0  0  0  0  0
  190.6360  176.6410  144.0940 C   0  0  0  0  0  0  0  0  0  0  0  0
  191.3250  176.1790  139.7110 O   0  0  0  0  0  0  0  0  0  0  0  0
  188.7990  177.0130  138.1380 C   0  0  0  0  0  2  0  0  0  0  0  0
  189.3620  177.5520  141.7580 C   0  0  0  0  0  0  0  0  0  0  0  0
  190.2150  177.5640  137.9800 C   0  0  0  0  0  2  0  0  0  0  0  0
  188.6690  177.9500  140.4720 C   0  0  2  0  0  3  0  0  0  0  0  0
  187.3670  178.6670  140.6760 C   0  0  0  0  0  3  0  0  0  0  0  0
  188.4480  176.7210  139.5960 C   0  0  0  0  0  2  0  0  0  0  0  0
  191.3610  176.7920  142.9020 C   0  0  0  0  0  3  0  0  0  0  0  0
  186.6510  178.5500  141.7960 C   0  0  0  0  0  0  0  0  0  0  0  0
  190.7390  177.2490  141.7430 C   0  0  0  0  0  0  0  0  0  0  0  0
  186.4230  177.4760  143.8910 O   0  0  0  0  0  0  0  0  0  0  0  0
  191.2890  176.5220  138.3370 C   0  0  1  0  0  3  0  0  0  0  0  0
  187.1860  177.7910  142.9410 C   0  0  0  0  0  0  0  0  0  0  0  0
  191.2790  176.1590  145.2790 N   0  0  0  0  0  2  0  0  0  0  0  0
  191.6070  177.0210  146.4090 C   0  0  0  0  0  1  0  0  0  0  0  0
  185.3260  179.2340  141.8770 C   0  0  0  0  0  2  0  0  0  0  0  0
  184.2380  178.3320  141.3220 C   0  0  0  0  0  2  0  0  0  0  0  0
  183.2220  179.1520  140.6620 N   0  0  0  0  0  2  0  0  0  0  0  0
  184.0380  177.9870  138.6200 C   0  0  0  0  0  2  0  0  0  0  0  0
  181.7400  177.4290  138.9610 O   0  0  0  0  0  0  0  0  0  0  0  0
  182.8580  177.1240  138.1670 C   0  0  0  0  0  2  0  0  0  0  0  0
  182.3450  179.7080  138.5340 O   0  0  0  0  0  0  0  0  0  0  0  0
  181.3000  178.7330  138.5920 C   0  0  0  0  0  2  0  0  0  0  0  0
  184.4830  180.2880  139.0520 O   0  0  0  0  0  1  0  0  0  0  0  0
  183.5150  179.3000  139.2240 C   0  0  1  0  0  0  0  0  0  0  0  0
  192.6720  176.9120  137.8050 C   0  0  0  0  0  2  0  0  0  0  0  0
  191.7350  173.8220  137.3470 Cl  0  0  0  0  0  0  0  0  0  0  0  0
  193.2660  174.6250  136.9090 C   0  0  2  0  0  3  0  0  0  0  0  0
  193.0380  176.1030  136.5690 C   0  0  2  0  0  3  0  0  0  0  0  0
  194.2780  176.7060  135.9660 C   0  0  0  0  0  3  0  0  0  0  0  0
  195.2480  175.9570  135.4250 C   0  0  0  0  0  3  0  0  0  0  0  0
  193.8500  173.9200  135.7650 N   0  0  0  0  0  2  0  0  0  0  0  0
  195.1830  174.4490  135.4260 C   0  0  2  0  0  3  0  0  0  0  0  0
  196.3410  173.8110  136.2130 C   0  0  1  0  0  3  0  0  0  0  0  0
  196.2490  174.7580  138.5330 O   0  0  0  0  0  1  0  0  0  0  0  0
  196.8970  174.6820  137.3020 C   0  0  0  0  0  0  0  0  0  0  0  0
  197.9850  175.3090  137.1150 O   0  0  0  0  0  0  0  0  0  0  0  0
  195.9420  172.5750  136.7350 O   0  0  0  0  0  0  0  0  0  0  0  0
  196.8120  170.3770  136.9340 C   0  0  0  0  0  2  0  0  0  0  0  0
  197.3920  171.0110  135.6780 C   0  0  0  0  0  2  0  0  0  0  0  0
  197.1350  171.8580  136.9120 C   0  0  0  0  0  3  0  0  0  0  0  0
  2  1  1  0  0  0  0
  3 15  1  0  0  0  0
  4  2  2  0  0  0  0
  5  2  1  0  0  0  0
  5 19  1  0  0  0  0
  6  3  1  0  0  0  0
  7 12  1  0  0  0  0
  8  4  1  0  0  0  0
  9  7  1  0  0  0  0
  9 17  1  0  0  0  0
 10 12  1  6  0  0  0
 10 11  1  0  0  0  0
 10  8  1  0  0  0  0
 11 14  2  0  0  0  0
 13  5  2  0  0  0  0
 14 21  1  0  0  0  0
 14 18  1  0  0  0  0
 15  8  2  0  0  0  0
 15 13  1  0  0  0  0
 17 31  1  1  0  0  0
 17  6  1  0  0  0  0
 18  4  1  0  0  0  0
 18 16  2  0  0  0  0
 19 20  1  0  0  0  0
 22 21  1  0  0  0  0
 23 22  1  0  0  0  0
 24 30  1  0  0  0  0
 26 24  1  0  0  0  0
 26 25  1  0  0  0  0
 27 28  1  0  0  0  0
 27 30  1  0  0  0  0
 28 25  1  0  0  0  0
 30 29  1  6  0  0  0
 30 23  1  0  0  0  0
 33 32  1  6  0  0  0
 34 33  1  0  0  0  0
 34 31  1  1  0  0  0
 35 34  1  0  0  0  0
 36 38  1  0  0  0  0
 36 35  2  0  0  0  0
 37 33  1  0  0  0  0
 38 37  1  0  0  0  0
 38 39  1  1  0  0  0
 39 43  1  1  0  0  0
 39 41  1  0  0  0  0
 41 40  1  0  0  0  0
 42 41  2  0  0  0  0
 43 46  1  0  0  0  0
 45 46  1  0  0  0  0
 45 44  1  0  0  0  0
 46 44  1  0  0  0  0
M  END
>  <MODEL>
7

>  <REMARK>
 VINA RESULT:      -6.7      3.498      7.281
  Name = 
  11 active torsions:
  status: ('A' for Active; 'I' for Inactive)
    1  A    between atoms: N_2  and  C_12
    2  A    between atoms: O_4  and  C_36
    3  A    between atoms: O_4  and  C_46
    4  A    between atoms: C_5  and  C_27
    5  A    between atoms: C_5  and  C_38
    6  A    between atoms: N_15  and  C_38
    7  A    between atoms: N_15  and  C_43
    8  A    between atoms: C_28  and  C_30
    9  A    between atoms: C_30  and  C_33
   10  A    between atoms: C_32  and  C_46
   11  A    between atoms: C_45  and  C_46
                            x       y       z     vdW  Elec       q    Type
                         _______ _______ _______ _____ _____    ______ ____

>  <TORSDO>
F 11

$$$$
=
 OpenBabel10232408033D

 46 51  0  0  1  0  0  0  0  0999 V2000
  191.0590  177.2690  145.7050 O   0  0  0  0  0  1  0  0  0  0  0  0
  189.7800  177.3170  145.1510 C   0  0  0  0  0  0  0  0  0  0  0  0
  185.7730  177.4710  143.5670 C   0  0  0  0  0  2  0  0  0  0  0  0
  189.5960  177.4230  143.7520 C   0  0  0  0  0  0  0  0  0  0  0  0
  188.6650  177.2560  146.0020 C   0  0  0  0  0  0  0  0  0  0  0  0
  185.4520  178.8220  143.3330 O   0  0  0  0  0  0  0  0  0  0  0  0
  186.5320  179.1890  140.4610 C   0  0  0  0  0  2  0  0  0  0  0  0
  188.2900  177.4560  143.2220 C   0  0  0  0  0  0  0  0  0  0  0  0
  185.3250  178.3630  140.9000 C   0  0  0  0  0  2  0  0  0  0  0  0
  188.0730  177.6600  141.7370 C   0  0  2  0  0  3  0  0  0  0  0  0
  189.2520  177.2800  140.8910 C   0  0  0  0  0  3  0  0  0  0  0  0
  187.6860  179.1090  141.4600 C   0  0  0  0  0  2  0  0  0  0  0  0
  187.3710  177.2880  145.4600 C   0  0  0  0  0  3  0  0  0  0  0  0
  190.4970  177.2360  141.3710 C   0  0  0  0  0  0  0  0  0  0  0  0
  187.1770  177.3810  144.0840 C   0  0  0  0  0  0  0  0  0  0  0  0
  191.9170  177.6480  143.2170 O   0  0  0  0  0  0  0  0  0  0  0  0
  184.6580  178.9310  142.1650 C   0  0  1  0  0  3  0  0  0  0  0  0
  190.7440  177.4470  142.8090 C   0  0  0  0  0  0  0  0  0  0  0  0
  188.8570  177.1730  147.4190 N   0  0  0  0  0  2  0  0  0  0  0  0
  188.6730  178.3130  148.3100 C   0  0  0  0  0  1  0  0  0  0  0  0
  191.6180  176.9290  140.4340 C   0  0  0  0  0  2  0  0  0  0  0  0
  191.0850  176.7510  139.0230 C   0  0  0  0  0  2  0  0  0  0  0  0
  192.2060  176.5260  138.1100 N   0  0  0  0  0  2  0  0  0  0  0  0
  191.9630  175.3410  135.9350 C   0  0  0  0  0  2  0  0  0  0  0  0
  194.2530  175.9600  136.2240 O   0  0  0  0  0  0  0  0  0  0  0  0
  193.3520  175.4090  135.2970 C   0  0  0  0  0  2  0  0  0  0  0  0
  193.2470  174.4260  137.7660 O   0  0  0  0  0  0  0  0  0  0  0  0
  194.4540  174.9900  137.2490 C   0  0  0  0  0  2  0  0  0  0  0  0
  190.9820  174.5390  137.9540 O   0  0  0  0  0  1  0  0  0  0  0  0
  192.1020  175.2060  137.4600 C   0  0  1  0  0  0  0  0  0  0  0  0
  183.2470  178.3730  142.3740 C   0  0  0  0  0  2  0  0  0  0  0  0
  180.0300  177.9770  142.7340 Cl  0  0  0  0  0  0  0  0  0  0  0  0
  180.9760  178.3330  141.2640 C   0  0  2  0  0  3  0  0  0  0  0  0
  182.2140  179.1760  141.5950 C   0  0  2  0  0  3  0  0  0  0  0  0
  182.8650  179.6770  140.3340 C   0  0  0  0  0  3  0  0  0  0  0  0
  182.2140  179.7350  139.1660 C   0  0  0  0  0  3  0  0  0  0  0  0
  180.1130  179.0400  140.3150 N   0  0  0  0  0  2  0  0  0  0  0  0
  180.7890  179.2550  139.0240 C   0  0  2  0  0  3  0  0  0  0  0  0
  180.6600  178.0850  138.0340 C   0  0  1  0  0  3  0  0  0  0  0  0
  179.9820  177.5160  135.6870 O   0  0  0  0  0  0  0  0  0  0  0  0
  180.2140  178.4880  136.6580 C   0  0  0  0  0  0  0  0  0  0  0  0
  180.0030  179.7130  136.3970 O   0  0  0  0  0  1  0  0  0  0  0  0
  181.8660  177.3780  137.9660 O   0  0  0  0  0  0  0  0  0  0  0  0
  182.6470  175.1430  138.1080 C   0  0  0  0  0  2  0  0  0  0  0  0
  182.7140  175.7640  139.4950 C   0  0  0  0  0  2  0  0  0  0  0  0
  181.5860  176.1320  138.5470 C   0  0  0  0  0  3  0  0  0  0  0  0
  2  1  1  0  0  0  0
  2  5  1  0  0  0  0
  3 15  1  0  0  0  0
  4  2  2  0  0  0  0
  5 19  1  0  0  0  0
  6  3  1  0  0  0  0
  7  9  1  0  0  0  0
  7 12  1  0  0  0  0
  8  4  1  0  0  0  0
  8 15  2  0  0  0  0
  9 17  1  0  0  0  0
 10 11  1  6  0  0  0
 10  8  1  0  0  0  0
 11 14  2  0  0  0  0
 12 10  1  0  0  0  0
 13  5  2  0  0  0  0
 14 18  1  0  0  0  0
 15 13  1  0  0  0  0
 17 31  1  1  0  0  0
 17  6  1  0  0  0  0
 18 16  2  0  0  0  0
 18  4  1  0  0  0  0
 19 20  1  0  0  0  0
 21 14  1  0  0  0  0
 22 21  1  0  0  0  0
 23 22  1  0  0  0  0
 24 30  1  0  0  0  0
 25 28  1  0  0  0  0
 26 24  1  0  0  0  0
 26 25  1  0  0  0  0
 28 27  1  0  0  0  0
 30 27  1  0  0  0  0
 30 29  1  1  0  0  0
 30 23  1  0  0  0  0
 33 34  1  0  0  0  0
 33 32  1  1  0  0  0
 34 31  1  6  0  0  0
 35 34  1  0  0  0  0
 36 35  2  0  0  0  0
 37 33  1  0  0  0  0
 38 39  1  1  0  0  0
 38 36  1  0  0  0  0
 38 37  1  0  0  0  0
 39 41  1  6  0  0  0
 40 41  2  0  0  0  0
 42 41  1  0  0  0  0
 43 39  1  0  0  0  0
 43 46  1  0  0  0  0
 44 46  1  0  0  0  0
 44 45  1  0  0  0  0
 46 45  1  0  0  0  0
M  END
>  <MODEL>
8

>  <REMARK>
 VINA RESULT:      -6.5      3.025      7.699
  Name = 
  11 active torsions:
  status: ('A' for Active; 'I' for Inactive)
    1  A    between atoms: N_2  and  C_12
    2  A    between atoms: O_4  and  C_36
    3  A    between atoms: O_4  and  C_46
    4  A    between atoms: C_5  and  C_27
    5  A    between atoms: C_5  and  C_38
    6  A    between atoms: N_15  and  C_38
    7  A    between atoms: N_15  and  C_43
    8  A    between atoms: C_28  and  C_30
    9  A    between atoms: C_30  and  C_33
   10  A    between atoms: C_32  and  C_46
   11  A    between atoms: C_45  and  C_46
                            x       y       z     vdW  Elec       q    Type
                         _______ _______ _______ _____ _____    ______ ____

>  <TORSDO>
F 11

$$$$
=
 OpenBabel10232408033D

 46 51  0  0  1  0  0  0  0  0999 V2000
  191.1690  177.5090  145.4820 O   0  0  0  0  0  1  0  0  0  0  0  0
  189.8570  177.5190  145.0090 C   0  0  0  0  0  0  0  0  0  0  0  0
  185.7570  177.5590  143.6760 C   0  0  0  0  0  2  0  0  0  0  0  0
  189.5840  177.5560  143.6210 C   0  0  0  0  0  0  0  0  0  0  0  0
  188.7990  177.4880  145.9310 C   0  0  0  0  0  0  0  0  0  0  0  0
  185.4050  178.8950  143.3990 O   0  0  0  0  0  0  0  0  0  0  0  0
  186.2990  179.1340  140.4510 C   0  0  0  0  0  2  0  0  0  0  0  0
  188.2470  177.5520  143.1740 C   0  0  0  0  0  0  0  0  0  0  0  0
  185.1320  178.3180  141.0040 C   0  0  0  0  0  2  0  0  0  0  0  0
  187.9350  177.6820  141.6970 C   0  0  2  0  0  3  0  0  0  0  0  0
  189.0630  177.2730  140.7970 C   0  0  0  0  0  3  0  0  0  0  0  0
  187.5140  179.1120  141.3770 C   0  0  0  0  0  2  0  0  0  0  0  0
  187.4730  177.4820  145.4710 C   0  0  0  0  0  3  0  0  0  0  0  0
  190.3360  177.2640  141.1990 C   0  0  0  0  0  0  0  0  0  0  0  0
  187.1910  177.5070  144.1070 C   0  0  0  0  0  0  0  0  0  0  0  0
  191.8640  177.7770  142.9300 O   0  0  0  0  0  0  0  0  0  0  0  0
  184.5380  178.9410  142.2810 C   0  0  1  0  0  3  0  0  0  0  0  0
  190.6700  177.5460  142.6070 C   0  0  0  0  0  0  0  0  0  0  0  0
  189.0800  177.4750  147.3350 N   0  0  0  0  0  2  0  0  0  0  0  0
  188.1460  177.9800  148.3340 C   0  0  0  0  0  1  0  0  0  0  0  0
  191.4000  176.9230  140.2080 C   0  0  0  0  0  2  0  0  0  0  0  0
  190.7820  176.2770  138.9800 C   0  0  0  0  0  2  0  0  0  0  0  0
  190.4970  177.3100  137.9850 N   0  0  0  0  0  2  0  0  0  0  0  0
  188.7680  175.7250  137.1520 C   0  0  0  0  0  2  0  0  0  0  0  0
  187.7080  177.7860  137.7350 O   0  0  0  0  0  0  0  0  0  0  0  0
  187.4420  176.4680  137.3280 C   0  0  0  0  0  2  0  0  0  0  0  0
  189.3310  177.7570  135.9720 O   0  0  0  0  0  0  0  0  0  0  0  0
  188.2730  178.4680  136.6180 C   0  0  0  0  0  2  0  0  0  0  0  0
  190.8480  176.0620  136.0370 O   0  0  0  0  0  1  0  0  0  0  0  0
  189.8740  176.7260  136.7810 C   0  0  1  0  0  0  0  0  0  0  0  0
  183.1500  178.3800  142.6040 C   0  0  0  0  0  2  0  0  0  0  0  0
  179.9820  177.6380  142.8270 Cl  0  0  0  0  0  0  0  0  0  0  0  0
  180.9230  178.2020  141.4210 C   0  0  2  0  0  3  0  0  0  0  0  0
  182.0600  179.1350  141.8550 C   0  0  2  0  0  3  0  0  0  0  0  0
  182.6880  179.7980  140.6590 C   0  0  0  0  0  3  0  0  0  0  0  0
  182.0640  179.8830  139.4780 C   0  0  0  0  0  3  0  0  0  0  0  0
  180.0170  178.8930  140.5010 N   0  0  0  0  0  2  0  0  0  0  0  0
  180.7000  179.2760  139.2530 C   0  0  2  0  0  3  0  0  0  0  0  0
  180.7140  178.1810  138.1720 C   0  0  1  0  0  3  0  0  0  0  0  0
  180.1520  180.0100  136.5520 O   0  0  0  0  0  1  0  0  0  0  0  0
  180.2650  178.6470  136.8180 C   0  0  0  0  0  0  0  0  0  0  0  0
  180.0360  177.7980  135.9020 O   0  0  0  0  0  0  0  0  0  0  0  0
  181.9880  177.6060  138.0910 O   0  0  0  0  0  0  0  0  0  0  0  0
  182.9130  175.4460  137.7590 C   0  0  0  0  0  2  0  0  0  0  0  0
  182.9330  175.7540  139.2490 C   0  0  0  0  0  2  0  0  0  0  0  0
  181.7880  176.2480  138.3830 C   0  0  0  0  0  3  0  0  0  0  0  0
  2  1  1  0  0  0  0
  2  5  1  0  0  0  0
  3 15  1  0  0  0  0
  4  2  2  0  0  0  0
  5 19  1  0  0  0  0
  6  3  1  0  0  0  0
  7  9  1  0  0  0  0
  7 12  1  0  0  0  0
  8  4  1  0  0  0  0
  8 15  2  0  0  0  0
  9 17  1  0  0  0  0
 10 11  1  6  0  0  0
 10  8  1  0  0  0  0
 11 14  2  0  0  0  0
 12 10  1  0  0  0  0
 13  5  2  0  0  0  0
 14 18  1  0  0  0  0
 15 13  1  0  0  0  0
 17 31  1  1  0  0  0
 17  6  1  0  0  0  0
 18 16  2  0  0  0  0
 18  4  1  0  0  0  0
 19 20  1  0  0  0  0
 21 14  1  0  0  0  0
 22 21  1  0  0  0  0
 23 22  1  0  0  0  0
 24 26  1  0  0  0  0
 26 25  1  0  0  0  0
 27 28  1  0  0  0  0
 27 30  1  0  0  0  0
 28 25  1  0  0  0  0
 30 29  1  6  0  0  0
 30 24  1  0  0  0  0
 30 23  1  0  0  0  0
 33 34  1  0  0  0  0
 33 32  1  1  0  0  0
 34 31  1  6  0  0  0
 35 34  1  0  0  0  0
 36 35  2  0  0  0  0
 37 33  1  0  0  0  0
 38 39  1  6  0  0  0
 38 36  1  0  0  0  0
 38 37  1  0  0  0  0
 39 41  1  6  0  0  0
 40 41  1  0  0  0  0
 42 41  2  0  0  0  0
 43 39  1  0  0  0  0
 43 46  1  0  0  0  0
 44 46  1  0  0  0  0
 44 45  1  0  0  0  0
 46 45  1  0  0  0  0
M  END
>  <MODEL>
9

>  <REMARK>
 VINA RESULT:      -6.5      2.877      7.684
  Name = 
  11 active torsions:
  status: ('A' for Active; 'I' for Inactive)
    1  A    between atoms: N_2  and  C_12
    2  A    between atoms: O_4  and  C_36
    3  A    between atoms: O_4  and  C_46
    4  A    between atoms: C_5  and  C_27
    5  A    between atoms: C_5  and  C_38
    6  A    between atoms: N_15  and  C_38
    7  A    between atoms: N_15  and  C_43
    8  A    between atoms: C_28  and  C_30
    9  A    between atoms: C_30  and  C_33
   10  A    between atoms: C_32  and  C_46
   11  A    between atoms: C_45  and  C_46
                            x       y       z     vdW  Elec       q    Type
                         _______ _______ _______ _____ _____    ______ ____

>  <TORSDO>
F 11

$$$$
