=
 OpenBabel10232412273D

 55 59  0  0  1  0  0  0  0  0999 V2000
  192.5810  177.1840  141.9280 C   0  0  0  0  0  3  0  0  0  0  0  0
  192.1550  177.7770  140.7400 C   0  0  0  0  0  3  0  0  0  0  0  0
  189.1010  176.1930  141.9130 C   0  0  0  0  0  2  0  0  0  0  0  0
  190.4580  176.7990  141.7810 C   0  0  0  0  0  0  0  0  0  0  0  0
  188.1260  177.0200  141.1880 N   0  0  0  0  0  0  0  0  0  0  0  0
  191.5380  176.6020  142.5570 N   0  0  0  0  0  0  0  0  0  0  0  0
  187.3920  178.5240  139.4880 N   0  0  0  0  0  2  0  0  0  0  0  0
  188.4100  177.7420  140.1310 C   0  0  0  0  0  0  0  0  0  0  0  0
  189.8220  177.7860  139.5600 C   0  0  1  0  0  3  0  0  0  0  0  0
  190.8000  177.5100  140.6710 C   0  0  0  0  0  0  0  0  0  0  0  0
  189.9730  176.7530  138.4300 C   0  0  2  0  0  3  0  0  0  0  0  0
  189.9640  177.0060  134.7550 N   0  0  0  0  0  1  0  0  0  0  0  0
  191.7110  176.3190  138.1280 S   0  0  0  0  0  0  0  0  0  0  0  0
  189.9410  176.3280  136.0400 C   0  0  2  0  0  3  0  0  0  0  0  0
  189.4580  177.2810  137.1100 C   0  0  0  0  0  2  0  0  0  0  0  0
  191.3430  175.8530  136.4060 C   0  0  2  0  0  3  0  0  0  0  0  0
  191.4210  174.3400  136.2780 C   0  0  0  0  0  2  0  0  0  0  0  0
  192.0270  173.9310  134.9470 C   0  0  0  0  0  2  0  0  0  0  0  0
  193.4770  173.8500  135.0510 N   0  0  0  0  0  2  0  0  0  0  0  0
  194.1050  171.3100  135.5900 S   0  0  0  0  0  0  0  0  0  0  0  0
  194.1540  172.9240  135.9110 C   0  0  0  0  0  0  0  0  0  0  0  0
  194.8790  173.4210  137.0510 N   0  0  0  0  0  0  0  0  0  0  0  0
  195.0760  172.5590  138.2130 C   0  0  0  0  0  1  0  0  0  0  0  0
  195.7900  175.1420  138.3530 O   0  0  0  0  0  1  0  0  0  0  0  0
  195.4630  174.7640  137.0500 C   0  0  1  0  0  3  0  0  0  0  0  0
  196.6950  174.8300  136.1500 C   0  0  1  0  0  3  0  0  0  0  0  0
  197.3230  176.0680  136.2940 O   0  0  0  0  0  1  0  0  0  0  0  0
  199.2780  174.4140  135.9080 C   0  0  0  0  0  1  0  0  0  0  0  0
  197.8630  173.5100  136.5950 S   0  0  0  0  0  0  0  0  0  0  0  0
  183.6820  178.4050  139.1270 C   0  0  0  0  0  3  0  0  0  0  0  0
  185.9980  178.5950  139.8300 C   0  0  0  0  0  0  0  0  0  0  0  0
  183.2450  178.6920  140.4310 C   0  0  0  0  0  0  0  0  0  0  0  0
  184.2010  178.9190  141.4320 C   0  0  0  0  0  3  0  0  0  0  0  0
  185.5650  178.8720  141.1330 C   0  0  0  0  0  3  0  0  0  0  0  0
  185.0470  178.3610  138.8310 C   0  0  0  0  0  3  0  0  0  0  0  0
  181.3420  177.3970  140.9950 F   0  0  0  0  0  0  0  0  0  0  0  0
  181.7720  178.7000  140.7600 C   0  0  2  0  0  0  0  0  0  0  0  0
  181.0500  179.2740  139.6200 N   0  0  0  0  0  2  0  0  0  0  0  0
  180.5310  180.4740  139.9820 O   0  0  0  0  0  1  0  0  0  0  0  0
  181.5510  179.5510  142.0200 C   0  0  0  0  0  2  0  0  0  0  0  0
  181.8900  178.6310  144.2050 O   0  0  0  0  0  1  0  0  0  0  0  0
  180.9450  178.7730  143.1840 C   0  0  0  0  0  2  0  0  0  0  0  0
  191.4700  176.3370  144.9780 C   0  0  0  0  0  3  0  0  0  0  0  0
  191.6480  175.8280  143.7580 C   0  0  0  0  0  3  0  0  0  0  0  0
  191.2210  177.7270  145.1860 N   0  0  0  0  0  2  0  0  0  0  0  0
  189.9710  178.3410  144.7680 C   0  0  0  0  0  2  0  0  0  0  0  0
  186.9340  177.7850  144.4070 C   0  0  0  0  0  2  0  0  0  0  0  0
  189.1920  178.1150  147.1110 C   0  0  0  0  0  3  0  0  0  0  0  0
  188.0480  176.6990  148.6210 O   0  0  0  0  0  1  0  0  0  0  0  0
  187.9450  177.8970  147.9150 C   0  0  2  0  0  3  0  0  0  0  0  0
  188.9210  178.1630  145.8200 C   0  0  0  0  0  0  0  0  0  0  0  0
  186.8070  177.7910  146.8920 C   0  0  2  0  0  3  0  0  0  0  0  0
  187.5010  177.9810  145.5930 C   0  0  0  0  0  0  0  0  0  0  0  0
  184.6640  178.3090  146.7160 C   0  0  0  0  0  1  0  0  0  0  0  0
  185.8980  178.8310  147.0960 O   0  0  0  0  0  0  0  0  0  0  0  0
  1  6  1  0  0  0  0
  2  1  2  0  0  0  0
  4  3  1  0  0  0  0
  4  6  1  0  0  0  0
  5  3  1  0  0  0  0
  6 44  1  0  0  0  0
  7 31  1  0  0  0  0
  7  8  1  0  0  0  0
  8  5  2  0  0  0  0
  9  8  1  1  0  0  0
  9 10  1  0  0  0  0
 10  2  1  0  0  0  0
 10  4  2  0  0  0  0
 11 15  1  6  0  0  0
 11  9  1  0  0  0  0
 13 11  1  0  0  0  0
 14 12  1  6  0  0  0
 14 16  1  0  0  0  0
 14 15  1  0  0  0  0
 16 17  1  1  0  0  0
 16 13  1  0  0  0  0
 18 19  1  0  0  0  0
 18 17  1  0  0  0  0
 19 21  1  0  0  0  0
 20 21  2  0  0  0  0
 21 22  1  0  0  0  0
 22 23  1  0  0  0  0
 25 22  1  0  0  0  0
 25 24  1  1  0  0  0
 26 27  1  1  0  0  0
 26 29  1  0  0  0  0
 26 25  1  0  0  0  0
 28 29  1  0  0  0  0
 30 32  1  0  0  0  0
 31 34  2  0  0  0  0
 32 37  1  0  0  0  0
 32 33  2  0  0  0  0
 34 33  1  0  0  0  0
 35 30  2  0  0  0  0
 35 31  1  0  0  0  0
 37 36  1  1  0  0  0
 37 40  1  0  0  0  0
 38 39  1  0  0  0  0
 38 37  1  0  0  0  0
 40 42  1  0  0  0  0
 42 41  1  0  0  0  0
 43 45  1  0  0  0  0
 44 43  2  0  0  0  0
 46 45  1  0  0  0  0
 46 51  1  0  0  0  0
 47 53  2  0  0  0  0
 48 50  1  0  0  0  0
 50 49  1  6  0  0  0
 51 48  2  0  0  0  0
 52 55  1  1  0  0  0
 52 50  1  0  0  0  0
 53 51  1  0  0  0  0
 53 52  1  0  0  0  0
 54 55  1  0  0  0  0
M  END
>  <MODEL>
1

>  <REMARK>
 VINA RESULT:      -7.0      0.000      0.000
  Name = 
  19 active torsions:
  status: ('A' for Active; 'I' for Inactive)
    1  A    between atoms: N_2  and  C_46
    2  A    between atoms: N_2  and  C_48
    3  A    between atoms: C_8  and  C_39
    4  A    between atoms: C_9  and  N_33
    5  A    between atoms: C_14  and  C_24
    6  A    between atoms: C_14  and  S_37
    7  A    between atoms: C_16  and  C_18
    8  A    between atoms: C_18  and  N_38
    9  A    between atoms: C_18  and  C_47
   10  A    between atoms: C_20  and  N_32
   11  A    between atoms: C_22  and  C_26
   12  A    between atoms: C_22  and  N_32
   13  A    between atoms: C_23  and  C_46
   14  A    between atoms: C_23  and  C_53
   15  A    between atoms: C_24  and  N_52
   16  A    between atoms: N_28  and  C_43
   17  A    between atoms: C_45  and  C_47
   18  A    between atoms: C_48  and  N_52
   19  A    between atoms: C_49  and  O_51
                            x       y       z     vdW  Elec       q    Type
                         _______ _______ _______ _____ _____    ______ ____

>  <TORSDO>
F 19

$$$$
=
 OpenBabel10232412273D

 55 59  0  0  1  0  0  0  0  0999 V2000
  192.5710  177.4010  141.8800 C   0  0  0  0  0  3  0  0  0  0  0  0
  192.1320  178.0930  140.7530 C   0  0  0  0  0  3  0  0  0  0  0  0
  189.1510  176.2340  141.6870 C   0  0  0  0  0  2  0  0  0  0  0  0
  190.4750  176.9220  141.6480 C   0  0  0  0  0  0  0  0  0  0  0  0
  188.1440  177.0810  141.0320 N   0  0  0  0  0  0  0  0  0  0  0  0
  191.5520  176.7010  142.4220 N   0  0  0  0  0  0  0  0  0  0  0  0
  187.3550  178.7150  139.4840 N   0  0  0  0  0  2  0  0  0  0  0  0
  188.4050  177.9240  140.0620 C   0  0  0  0  0  0  0  0  0  0  0  0
  189.8210  178.1040  139.5290 C   0  0  1  0  0  3  0  0  0  0  0  0
  190.7940  177.7630  140.6260 C   0  0  0  0  0  0  0  0  0  0  0  0
  190.0460  177.2060  138.3010 C   0  0  2  0  0  3  0  0  0  0  0  0
  191.7600  173.9830  137.8070 N   0  0  0  0  0  1  0  0  0  0  0  0
  188.5920  176.1840  137.9240 S   0  0  0  0  0  0  0  0  0  0  0  0
  191.0960  175.2100  137.4010 C   0  0  2  0  0  3  0  0  0  0  0  0
  191.1780  176.2260  138.5180 C   0  0  0  0  0  2  0  0  0  0  0  0
  189.6270  174.9340  137.0990 C   0  0  2  0  0  3  0  0  0  0  0  0
  189.3900  175.0100  135.5990 C   0  0  0  0  0  2  0  0  0  0  0  0
  188.5400  173.8480  135.1160 C   0  0  0  0  0  2  0  0  0  0  0  0
  187.1690  174.2790  134.8880 N   0  0  0  0  0  2  0  0  0  0  0  0
  186.3340  172.9640  137.0580 S   0  0  0  0  0  0  0  0  0  0  0  0
  186.0880  173.9710  135.7780 C   0  0  0  0  0  0  0  0  0  0  0  0
  184.7920  174.5510  135.5440 N   0  0  0  0  0  0  0  0  0  0  0  0
  183.9790  174.0770  134.4280 C   0  0  0  0  0  1  0  0  0  0  0  0
  184.1010  176.7820  135.7370 O   0  0  0  0  0  1  0  0  0  0  0  0
  184.2540  175.5820  136.4350 C   0  0  1  0  0  3  0  0  0  0  0  0
  182.9230  175.1460  137.0440 C   0  0  1  0  0  3  0  0  0  0  0  0
  183.0260  175.1120  138.4350 O   0  0  0  0  0  1  0  0  0  0  0  0
  180.4710  174.9730  136.1150 C   0  0  0  0  0  1  0  0  0  0  0  0
  181.6090  176.3100  136.5690 S   0  0  0  0  0  0  0  0  0  0  0  0
  184.1990  178.9230  141.4600 C   0  0  0  0  0  3  0  0  0  0  0  0
  185.9550  178.6750  139.8000 C   0  0  0  0  0  0  0  0  0  0  0  0
  183.2210  178.6400  140.4910 C   0  0  0  0  0  0  0  0  0  0  0  0
  183.6260  178.3870  139.1720 C   0  0  0  0  0  3  0  0  0  0  0  0
  184.9800  178.4020  138.8310 C   0  0  0  0  0  3  0  0  0  0  0  0
  185.5540  178.9360  141.1150 C   0  0  0  0  0  3  0  0  0  0  0  0
  181.1720  177.4480  140.5100 F   0  0  0  0  0  0  0  0  0  0  0  0
  181.7560  178.6650  140.8530 C   0  0  2  0  0  0  0  0  0  0  0  0
  181.1180  179.7590  140.1150 N   0  0  0  0  0  2  0  0  0  0  0  0
  180.7660  179.3150  138.8820 O   0  0  0  0  0  1  0  0  0  0  0  0
  181.6250  178.8890  142.3680 C   0  0  0  0  0  2  0  0  0  0  0  0
  180.2500  178.6430  144.3130 O   0  0  0  0  0  1  0  0  0  0  0  0
  180.2420  178.5550  142.9180 C   0  0  0  0  0  2  0  0  0  0  0  0
  191.5380  176.1970  144.8060 C   0  0  0  0  0  3  0  0  0  0  0  0
  191.6850  175.8110  143.5380 C   0  0  0  0  0  3  0  0  0  0  0  0
  191.3030  177.5610  145.1570 N   0  0  0  0  0  2  0  0  0  0  0  0
  190.0820  178.2430  144.7590 C   0  0  0  0  0  2  0  0  0  0  0  0
  187.0280  177.8400  144.3440 C   0  0  0  0  0  2  0  0  0  0  0  0
  189.2700  177.9240  147.0790 C   0  0  0  0  0  3  0  0  0  0  0  0
  188.0520  176.4790  148.5010 O   0  0  0  0  0  1  0  0  0  0  0  0
  188.0070  177.7180  147.8610 C   0  0  2  0  0  3  0  0  0  0  0  0
  189.0150  178.0540  145.7910 C   0  0  0  0  0  0  0  0  0  0  0  0
  186.8760  177.7170  146.8250 C   0  0  2  0  0  3  0  0  0  0  0  0
  187.5910  177.9470  145.5440 C   0  0  0  0  0  0  0  0  0  0  0  0
  184.7510  178.3190  146.7060 C   0  0  0  0  0  1  0  0  0  0  0  0
  186.0110  178.7830  147.0790 O   0  0  0  0  0  0  0  0  0  0  0  0
  1  6  1  0  0  0  0
  2  1  2  0  0  0  0
  4  3  1  0  0  0  0
  4  6  1  0  0  0  0
  5  3  1  0  0  0  0
  6 44  1  0  0  0  0
  7 31  1  0  0  0  0
  7  8  1  0  0  0  0
  8  5  2  0  0  0  0
  9  8  1  1  0  0  0
  9 10  1  0  0  0  0
 10  2  1  0  0  0  0
 10  4  2  0  0  0  0
 11 15  1  1  0  0  0
 11  9  1  0  0  0  0
 13 11  1  0  0  0  0
 14 12  1  1  0  0  0
 14 15  1  0  0  0  0
 16 17  1  6  0  0  0
 16 14  1  0  0  0  0
 16 13  1  0  0  0  0
 18 17  1  0  0  0  0
 19 18  1  0  0  0  0
 19 21  1  0  0  0  0
 21 20  2  0  0  0  0
 22 21  1  0  0  0  0
 22 25  1  0  0  0  0
 23 22  1  0  0  0  0
 25 24  1  6  0  0  0
 25 26  1  0  0  0  0
 26 27  1  1  0  0  0
 28 29  1  0  0  0  0
 29 26  1  0  0  0  0
 31 35  2  0  0  0  0
 32 37  1  0  0  0  0
 32 30  2  0  0  0  0
 33 32  1  0  0  0  0
 34 33  2  0  0  0  0
 34 31  1  0  0  0  0
 35 30  1  0  0  0  0
 37 36  1  6  0  0  0
 37 40  1  0  0  0  0
 38 37  1  0  0  0  0
 39 38  1  0  0  0  0
 40 42  1  0  0  0  0
 42 41  1  0  0  0  0
 43 45  1  0  0  0  0
 44 43  2  0  0  0  0
 46 45  1  0  0  0  0
 46 51  1  0  0  0  0
 47 53  2  0  0  0  0
 48 50  1  0  0  0  0
 50 49  1  6  0  0  0
 51 48  2  0  0  0  0
 52 55  1  1  0  0  0
 52 50  1  0  0  0  0
 53 51  1  0  0  0  0
 53 52  1  0  0  0  0
 54 55  1  0  0  0  0
M  END
>  <MODEL>
2

>  <REMARK>
 VINA RESULT:      -6.3      3.592      5.739
  Name = 
  19 active torsions:
  status: ('A' for Active; 'I' for Inactive)
    1  A    between atoms: N_2  and  C_46
    2  A    between atoms: N_2  and  C_48
    3  A    between atoms: C_8  and  C_39
    4  A    between atoms: C_9  and  N_33
    5  A    between atoms: C_14  and  C_24
    6  A    between atoms: C_14  and  S_37
    7  A    between atoms: C_16  and  C_18
    8  A    between atoms: C_18  and  N_38
    9  A    between atoms: C_18  and  C_47
   10  A    between atoms: C_20  and  N_32
   11  A    between atoms: C_22  and  C_26
   12  A    between atoms: C_22  and  N_32
   13  A    between atoms: C_23  and  C_46
   14  A    between atoms: C_23  and  C_53
   15  A    between atoms: C_24  and  N_52
   16  A    between atoms: N_28  and  C_43
   17  A    between atoms: C_45  and  C_47
   18  A    between atoms: C_48  and  N_52
   19  A    between atoms: C_49  and  O_51
                            x       y       z     vdW  Elec       q    Type
                         _______ _______ _______ _____ _____    ______ ____

>  <TORSDO>
F 19

$$$$
=
 OpenBabel10232412273D

 55 59  0  0  1  0  0  0  0  0999 V2000
  189.4080  177.2680  142.3470 C   0  0  0  0  0  3  0  0  0  0  0  0
  189.0450  176.4800  141.2570 C   0  0  0  0  0  3  0  0  0  0  0  0
  192.2650  177.7830  140.1870 C   0  0  0  0  0  2  0  0  0  0  0  0
  191.0630  177.3500  140.9580 C   0  0  0  0  0  0  0  0  0  0  0  0
  192.6090  176.7510  139.1990 N   0  0  0  0  0  0  0  0  0  0  0  0
  190.6410  177.7840  142.1590 N   0  0  0  0  0  0  0  0  0  0  0  0
  192.1680  174.9610  137.6850 N   0  0  0  0  0  2  0  0  0  0  0  0
  191.7390  175.9450  138.6390 C   0  0  0  0  0  0  0  0  0  0  0  0
  190.2570  176.0150  138.9870 C   0  0  1  0  0  3  0  0  0  0  0  0
  190.1170  176.5560  140.3850 C   0  0  0  0  0  0  0  0  0  0  0  0
  189.5140  176.9080  137.9790 C   0  0  2  0  0  3  0  0  0  0  0  0
  189.9160  177.5220  134.3690 N   0  0  0  0  0  1  0  0  0  0  0  0
  187.9660  176.1500  137.4050 S   0  0  0  0  0  0  0  0  0  0  0  0
  189.3940  177.7520  135.7060 C   0  0  2  0  0  3  0  0  0  0  0  0
  190.3300  177.1480  136.7290 C   0  0  0  0  0  2  0  0  0  0  0  0
  188.0240  177.0990  135.8520 C   0  0  2  0  0  3  0  0  0  0  0  0
  186.9470  178.1730  135.8900 C   0  0  0  0  0  2  0  0  0  0  0  0
  185.5580  177.5600  135.8790 C   0  0  0  0  0  2  0  0  0  0  0  0
  184.9480  177.6560  137.1970 N   0  0  0  0  0  2  0  0  0  0  0  0
  183.6100  175.3750  136.8210 S   0  0  0  0  0  0  0  0  0  0  0  0
  183.9480  176.7450  137.6710 C   0  0  0  0  0  0  0  0  0  0  0  0
  183.2490  177.0370  138.8950 N   0  0  0  0  0  0  0  0  0  0  0  0
  182.5100  175.9770  139.5740 C   0  0  0  0  0  1  0  0  0  0  0  0
  182.0610  178.6990  140.0420 O   0  0  0  0  0  1  0  0  0  0  0  0
  183.3040  178.3710  139.4970 C   0  0  1  0  0  3  0  0  0  0  0  0
  184.3930  178.4510  140.5650 C   0  0  1  0  0  3  0  0  0  0  0  0
  185.2350  179.5340  140.3040 O   0  0  0  0  0  1  0  0  0  0  0  0
  185.1700  178.1910  143.0610 C   0  0  0  0  0  1  0  0  0  0  0  0
  183.6400  178.6590  142.2070 S   0  0  0  0  0  0  0  0  0  0  0  0
  195.5950  173.5360  137.3200 C   0  0  0  0  0  3  0  0  0  0  0  0
  193.4970  174.7520  137.1830 C   0  0  0  0  0  0  0  0  0  0  0  0
  196.1090  174.2670  136.2360 C   0  0  0  0  0  0  0  0  0  0  0  0
  195.2970  175.2340  135.6250 C   0  0  0  0  0  3  0  0  0  0  0  0
  194.0040  175.4750  136.0950 C   0  0  0  0  0  3  0  0  0  0  0  0
  194.3010  173.7810  137.7900 C   0  0  0  0  0  3  0  0  0  0  0  0
  197.5430  174.2990  134.3490 F   0  0  0  0  0  0  0  0  0  0  0  0
  197.4900  173.9750  135.7030 C   0  0  2  0  0  0  0  0  0  0  0  0
  197.7650  172.5480  135.8930 N   0  0  0  0  0  2  0  0  0  0  0  0
  196.9940  171.8300  135.0380 O   0  0  0  0  0  1  0  0  0  0  0  0
  198.5090  174.8280  136.4760 C   0  0  0  0  0  2  0  0  0  0  0  0
  199.4040  175.0120  138.6890 O   0  0  0  0  0  1  0  0  0  0  0  0
  199.1370  174.1020  137.6620 C   0  0  0  0  0  2  0  0  0  0  0  0
  191.5780  178.4220  144.3160 C   0  0  0  0  0  3  0  0  0  0  0  0
  191.2760  178.7100  143.0490 C   0  0  0  0  0  3  0  0  0  0  0  0
  191.2230  177.1740  144.9100 N   0  0  0  0  0  2  0  0  0  0  0  0
  191.1300  177.0230  146.3530 C   0  0  0  0  0  2  0  0  0  0  0  0
  188.3790  176.6050  144.9680 C   0  0  0  0  0  2  0  0  0  0  0  0
  189.5490  177.9310  148.0320 C   0  0  0  0  0  3  0  0  0  0  0  0
  187.6270  177.4360  149.3170 O   0  0  0  0  0  1  0  0  0  0  0  0
  188.0880  178.1960  148.2430 C   0  0  2  0  0  3  0  0  0  0  0  0
  189.7700  177.4180  146.8360 C   0  0  0  0  0  0  0  0  0  0  0  0
  187.3950  177.7320  146.9550 C   0  0  2  0  0  3  0  0  0  0  0  0
  188.5240  177.2660  146.1120 C   0  0  0  0  0  0  0  0  0  0  0  0
  185.4360  178.7370  146.7370 C   0  0  0  0  0  1  0  0  0  0  0  0
  186.7700  178.8220  146.3450 O   0  0  0  0  0  0  0  0  0  0  0  0
  2  1  2  0  0  0  0
  3  4  1  0  0  0  0
  4  6  1  0  0  0  0
  5  3  1  0  0  0  0
  6  1  1  0  0  0  0
  6 44  1  0  0  0  0
  7  8  1  0  0  0  0
  8  5  2  0  0  0  0
  9  8  1  6  0  0  0
  9 10  1  0  0  0  0
 10  4  2  0  0  0  0
 10  2  1  0  0  0  0
 11 15  1  6  0  0  0
 11  9  1  0  0  0  0
 13 11  1  0  0  0  0
 14 12  1  6  0  0  0
 14 16  1  0  0  0  0
 14 15  1  0  0  0  0
 16 17  1  1  0  0  0
 16 13  1  0  0  0  0
 18 17  1  0  0  0  0
 18 19  1  0  0  0  0
 19 21  1  0  0  0  0
 20 21  2  0  0  0  0
 21 22  1  0  0  0  0
 22 25  1  0  0  0  0
 22 23  1  0  0  0  0
 25 24  1  1  0  0  0
 25 26  1  0  0  0  0
 26 27  1  6  0  0  0
 26 29  1  0  0  0  0
 29 28  1  0  0  0  0
 30 35  1  0  0  0  0
 31  7  1  0  0  0  0
 31 35  2  0  0  0  0
 32 30  2  0  0  0  0
 33 34  2  0  0  0  0
 33 32  1  0  0  0  0
 34 31  1  0  0  0  0
 37 36  1  6  0  0  0
 37 38  1  0  0  0  0
 37 32  1  0  0  0  0
 37 40  1  0  0  0  0
 39 38  1  0  0  0  0
 40 42  1  0  0  0  0
 42 41  1  0  0  0  0
 43 45  1  0  0  0  0
 44 43  2  0  0  0  0
 45 46  1  0  0  0  0
 46 51  1  0  0  0  0
 47 53  2  0  0  0  0
 48 50  1  0  0  0  0
 50 49  1  1  0  0  0
 51 48  2  0  0  0  0
 52 55  1  6  0  0  0
 52 50  1  0  0  0  0
 53 51  1  0  0  0  0
 53 52  1  0  0  0  0
 55 54  1  0  0  0  0
M  END
>  <MODEL>
3

>  <REMARK>
 VINA RESULT:      -6.3      3.588      9.935
  Name = 
  19 active torsions:
  status: ('A' for Active; 'I' for Inactive)
    1  A    between atoms: N_2  and  C_46
    2  A    between atoms: N_2  and  C_48
    3  A    between atoms: C_8  and  C_39
    4  A    between atoms: C_9  and  N_33
    5  A    between atoms: C_14  and  C_24
    6  A    between atoms: C_14  and  S_37
    7  A    between atoms: C_16  and  C_18
    8  A    between atoms: C_18  and  N_38
    9  A    between atoms: C_18  and  C_47
   10  A    between atoms: C_20  and  N_32
   11  A    between atoms: C_22  and  C_26
   12  A    between atoms: C_22  and  N_32
   13  A    between atoms: C_23  and  C_46
   14  A    between atoms: C_23  and  C_53
   15  A    between atoms: C_24  and  N_52
   16  A    between atoms: N_28  and  C_43
   17  A    between atoms: C_45  and  C_47
   18  A    between atoms: C_48  and  N_52
   19  A    between atoms: C_49  and  O_51
                            x       y       z     vdW  Elec       q    Type
                         _______ _______ _______ _____ _____    ______ ____

>  <TORSDO>
F 19

$$$$
=
 OpenBabel10232412273D

 55 59  0  0  1  0  0  0  0  0999 V2000
  189.4450  177.2320  142.5200 C   0  0  0  0  0  3  0  0  0  0  0  0
  189.0880  176.4760  141.4040 C   0  0  0  0  0  3  0  0  0  0  0  0
  192.2920  177.8490  140.3730 C   0  0  0  0  0  2  0  0  0  0  0  0
  191.0960  177.3770  141.1310 C   0  0  0  0  0  0  0  0  0  0  0  0
  192.6450  176.8540  139.3510 N   0  0  0  0  0  0  0  0  0  0  0  0
  190.6720  177.7660  142.3460 N   0  0  0  0  0  0  0  0  0  0  0  0
  192.2200  175.1120  137.7780 N   0  0  0  0  0  2  0  0  0  0  0  0
  191.7830  176.0590  138.7650 C   0  0  0  0  0  0  0  0  0  0  0  0
  190.3010  176.1010  139.1180 C   0  0  1  0  0  3  0  0  0  0  0  0
  190.1570  176.5930  140.5340 C   0  0  0  0  0  0  0  0  0  0  0  0
  189.5460  177.0190  138.1420 C   0  0  2  0  0  3  0  0  0  0  0  0
  189.6440  177.4450  134.4840 N   0  0  0  0  0  1  0  0  0  0  0  0
  187.8860  176.3900  137.7550 S   0  0  0  0  0  0  0  0  0  0  0  0
  189.2800  177.7780  135.8510 C   0  0  2  0  0  3  0  0  0  0  0  0
  190.2530  177.1290  136.8090 C   0  0  0  0  0  2  0  0  0  0  0  0
  187.8770  177.2660  136.1580 C   0  0  2  0  0  3  0  0  0  0  0  0
  186.9110  178.4380  136.2440 C   0  0  0  0  0  2  0  0  0  0  0  0
  185.7300  178.1140  137.1410 C   0  0  0  0  0  2  0  0  0  0  0  0
  185.6270  179.0860  138.2190 N   0  0  0  0  0  2  0  0  0  0  0  0
  185.6720  178.8060  140.8760 S   0  0  0  0  0  0  0  0  0  0  0  0
  184.8910  178.8490  139.4260 C   0  0  0  0  0  0  0  0  0  0  0  0
  183.4670  178.6540  139.3590 N   0  0  0  0  0  0  0  0  0  0  0  0
  182.6660  179.4850  138.4650 C   0  0  0  0  0  1  0  0  0  0  0  0
  182.0040  178.1760  141.1250 O   0  0  0  0  0  1  0  0  0  0  0  0
  182.8090  177.6030  140.1390 C   0  0  1  0  0  3  0  0  0  0  0  0
  181.9830  176.6840  139.2430 C   0  0  1  0  0  3  0  0  0  0  0  0
  182.6440  175.4650  139.0760 O   0  0  0  0  0  1  0  0  0  0  0  0
  180.2190  174.7370  139.2450 C   0  0  0  0  0  1  0  0  0  0  0  0
  180.3530  176.3840  139.9920 S   0  0  0  0  0  0  0  0  0  0  0  0
  195.6720  173.7560  137.3800 C   0  0  0  0  0  3  0  0  0  0  0  0
  193.5500  174.9330  137.2680 C   0  0  0  0  0  0  0  0  0  0  0  0
  196.1660  174.5100  136.3020 C   0  0  0  0  0  0  0  0  0  0  0  0
  195.3330  175.4680  135.7060 C   0  0  0  0  0  3  0  0  0  0  0  0
  194.0380  175.6790  136.1860 C   0  0  0  0  0  3  0  0  0  0  0  0
  194.3760  173.9710  137.8590 C   0  0  0  0  0  3  0  0  0  0  0  0
  198.2340  173.3970  136.6210 F   0  0  0  0  0  0  0  0  0  0  0  0
  197.5500  174.2500  135.7590 C   0  0  2  0  0  0  0  0  0  0  0  0
  198.2510  175.5340  135.6540 N   0  0  0  0  0  2  0  0  0  0  0  0
  199.5650  175.3030  135.4120 O   0  0  0  0  0  1  0  0  0  0  0  0
  197.4230  173.5920  134.3750 C   0  0  0  0  0  2  0  0  0  0  0  0
  197.1270  171.2440  134.7390 O   0  0  0  0  0  1  0  0  0  0  0  0
  196.4600  172.4090  134.3480 C   0  0  0  0  0  2  0  0  0  0  0  0
  191.5990  178.3440  144.5240 C   0  0  0  0  0  3  0  0  0  0  0  0
  191.2990  178.6690  143.2660 C   0  0  0  0  0  3  0  0  0  0  0  0
  191.2510  177.0760  145.0790 N   0  0  0  0  0  2  0  0  0  0  0  0
  191.0990  176.8950  146.5140 C   0  0  0  0  0  2  0  0  0  0  0  0
  188.3540  176.6420  145.0790 C   0  0  0  0  0  2  0  0  0  0  0  0
  189.5500  177.9230  148.1520 C   0  0  0  0  0  3  0  0  0  0  0  0
  187.5750  177.5680  149.4040 O   0  0  0  0  0  1  0  0  0  0  0  0
  188.1050  178.2850  148.3320 C   0  0  2  0  0  3  0  0  0  0  0  0
  189.7590  177.3830  146.9660 C   0  0  0  0  0  0  0  0  0  0  0  0
  187.4080  177.8540  147.0350 C   0  0  2  0  0  3  0  0  0  0  0  0
  188.5200  177.3050  146.2190 C   0  0  0  0  0  0  0  0  0  0  0  0
  185.4990  178.7240  146.3330 C   0  0  0  0  0  1  0  0  0  0  0  0
  186.8680  178.9750  146.4020 O   0  0  0  0  0  0  0  0  0  0  0  0
  2  1  2  0  0  0  0
  3  4  1  0  0  0  0
  4  6  1  0  0  0  0
  5  3  1  0  0  0  0
  6  1  1  0  0  0  0
  6 44  1  0  0  0  0
  7  8  1  0  0  0  0
  8  5  2  0  0  0  0
  9  8  1  6  0  0  0
  9 10  1  0  0  0  0
 10  4  2  0  0  0  0
 10  2  1  0  0  0  0
 11 15  1  6  0  0  0
 11  9  1  0  0  0  0
 13 11  1  0  0  0  0
 14 12  1  6  0  0  0
 14 16  1  0  0  0  0
 14 15  1  0  0  0  0
 16 17  1  1  0  0  0
 16 13  1  0  0  0  0
 17 18  1  0  0  0  0
 18 19  1  0  0  0  0
 19 21  1  0  0  0  0
 21 20  2  0  0  0  0
 22 21  1  0  0  0  0
 22 25  1  0  0  0  0
 23 22  1  0  0  0  0
 25 24  1  1  0  0  0
 26 27  1  1  0  0  0
 26 29  1  0  0  0  0
 26 25  1  0  0  0  0
 28 29  1  0  0  0  0
 30 35  1  0  0  0  0
 31  7  1  0  0  0  0
 31 35  2  0  0  0  0
 32 30  2  0  0  0  0
 33 34  2  0  0  0  0
 33 32  1  0  0  0  0
 34 31  1  0  0  0  0
 37 32  1  0  0  0  0
 37 36  1  1  0  0  0
 38 37  1  0  0  0  0
 39 38  1  0  0  0  0
 40 37  1  0  0  0  0
 42 40  1  0  0  0  0
 42 41  1  0  0  0  0
 43 45  1  0  0  0  0
 44 43  2  0  0  0  0
 45 46  1  0  0  0  0
 46 51  1  0  0  0  0
 47 53  2  0  0  0  0
 48 50  1  0  0  0  0
 50 49  1  1  0  0  0
 51 48  2  0  0  0  0
 52 55  1  6  0  0  0
 52 50  1  0  0  0  0
 53 51  1  0  0  0  0
 53 52  1  0  0  0  0
 54 55  1  0  0  0  0
M  END
>  <MODEL>
4

>  <REMARK>
 VINA RESULT:      -6.2      3.692     10.305
  Name = 
  19 active torsions:
  status: ('A' for Active; 'I' for Inactive)
    1  A    between atoms: N_2  and  C_46
    2  A    between atoms: N_2  and  C_48
    3  A    between atoms: C_8  and  C_39
    4  A    between atoms: C_9  and  N_33
    5  A    between atoms: C_14  and  C_24
    6  A    between atoms: C_14  and  S_37
    7  A    between atoms: C_16  and  C_18
    8  A    between atoms: C_18  and  N_38
    9  A    between atoms: C_18  and  C_47
   10  A    between atoms: C_20  and  N_32
   11  A    between atoms: C_22  and  C_26
   12  A    between atoms: C_22  and  N_32
   13  A    between atoms: C_23  and  C_46
   14  A    between atoms: C_23  and  C_53
   15  A    between atoms: C_24  and  N_52
   16  A    between atoms: N_28  and  C_43
   17  A    between atoms: C_45  and  C_47
   18  A    between atoms: C_48  and  N_52
   19  A    between atoms: C_49  and  O_51
                            x       y       z     vdW  Elec       q    Type
                         _______ _______ _______ _____ _____    ______ ____

>  <TORSDO>
F 19

$$$$
=
 OpenBabel10232412273D

 55 59  0  0  1  0  0  0  0  0999 V2000
  192.2860  177.4640  142.6550 C   0  0  0  0  0  3  0  0  0  0  0  0
  192.2140  177.9410  141.3470 C   0  0  0  0  0  3  0  0  0  0  0  0
  189.0560  176.1700  141.6630 C   0  0  0  0  0  2  0  0  0  0  0  0
  190.3450  176.8840  141.9000 C   0  0  0  0  0  0  0  0  0  0  0  0
  188.3050  176.8600  140.6040 N   0  0  0  0  0  0  0  0  0  0  0  0
  191.1390  176.8330  142.9830 N   0  0  0  0  0  0  0  0  0  0  0  0
  188.0420  178.1820  138.6370 N   0  0  0  0  0  2  0  0  0  0  0  0
  188.8570  177.5350  139.6260 C   0  0  0  0  0  0  0  0  0  0  0  0
  190.3710  177.6690  139.5130 C   0  0  1  0  0  3  0  0  0  0  0  0
  190.9690  177.5510  140.8900 C   0  0  0  0  0  0  0  0  0  0  0  0
  190.9330  176.5840  138.5790 C   0  0  2  0  0  3  0  0  0  0  0  0
  191.1160  176.2480  134.9150 N   0  0  0  0  0  1  0  0  0  0  0  0
  192.7360  176.7120  138.3880 S   0  0  0  0  0  0  0  0  0  0  0  0
  191.2190  175.8080  136.2960 C   0  0  2  0  0  3  0  0  0  0  0  0
  190.3740  176.6990  137.1780 C   0  0  0  0  0  2  0  0  0  0  0  0
  192.6680  175.8900  136.7640 C   0  0  2  0  0  3  0  0  0  0  0  0
  193.2440  174.4890  136.8960 C   0  0  0  0  0  2  0  0  0  0  0  0
  194.6450  174.5220  137.4800 C   0  0  0  0  0  2  0  0  0  0  0  0
  195.5370  175.2870  136.6210 N   0  0  0  0  0  2  0  0  0  0  0  0
  197.6840  175.4640  135.0430 S   0  0  0  0  0  0  0  0  0  0  0  0
  196.9070  174.9340  136.3950 C   0  0  0  0  0  0  0  0  0  0  0  0
  197.5960  174.1180  137.3600 N   0  0  0  0  0  0  0  0  0  0  0  0
  198.0700  174.7170  138.6040 C   0  0  0  0  0  1  0  0  0  0  0  0
  196.8850  172.2250  136.1780 O   0  0  0  0  0  1  0  0  0  0  0  0
  197.7900  172.6830  137.1370 C   0  0  1  0  0  3  0  0  0  0  0  0
  199.2230  172.3800  136.7070 C   0  0  1  0  0  3  0  0  0  0  0  0
  199.7700  171.4010  137.5390 O   0  0  0  0  0  1  0  0  0  0  0  0
  199.6350  170.0880  135.4900 C   0  0  0  0  0  1  0  0  0  0  0  0
  199.2460  171.7870  134.9880 S   0  0  0  0  0  0  0  0  0  0  0  0
  184.4500  178.8340  139.4030 C   0  0  0  0  0  3  0  0  0  0  0  0
  186.6100  178.1500  138.5280 C   0  0  0  0  0  0  0  0  0  0  0  0
  183.7950  178.1530  138.3640 C   0  0  0  0  0  0  0  0  0  0  0  0
  184.5640  177.4820  137.4020 C   0  0  0  0  0  3  0  0  0  0  0  0
  185.9580  177.4790  137.4840 C   0  0  0  0  0  3  0  0  0  0  0  0
  185.8460  178.8280  139.4840 C   0  0  0  0  0  3  0  0  0  0  0  0
  181.8780  177.3480  137.2250 F   0  0  0  0  0  0  0  0  0  0  0  0
  182.2900  178.1930  138.2530 C   0  0  2  0  0  0  0  0  0  0  0  0
  181.8870  179.5740  137.9660 N   0  0  0  0  0  2  0  0  0  0  0  0
  180.8730  179.9200  138.7980 O   0  0  0  0  0  1  0  0  0  0  0  0
  181.6840  177.7200  139.5840 C   0  0  0  0  0  2  0  0  0  0  0  0
  181.3480  175.3520  139.6950 O   0  0  0  0  0  1  0  0  0  0  0  0
  180.7020  176.5630  139.4310 C   0  0  0  0  0  2  0  0  0  0  0  0
  189.9230  176.4480  145.0600 C   0  0  0  0  0  3  0  0  0  0  0  0
  190.9190  176.1490  144.2240 C   0  0  0  0  0  3  0  0  0  0  0  0
  189.0310  177.5340  144.8110 N   0  0  0  0  0  2  0  0  0  0  0  0
  187.9760  177.8750  145.7520 C   0  0  0  0  0  2  0  0  0  0  0  0
  185.4020  179.1970  146.8880 C   0  0  0  0  0  2  0  0  0  0  0  0
  186.6120  178.2180  143.7110 C   0  0  0  0  0  3  0  0  0  0  0  0
  185.4370  179.8310  142.4410 O   0  0  0  0  0  1  0  0  0  0  0  0
  185.2700  178.7210  143.2690 C   0  0  2  0  0  3  0  0  0  0  0  0
  186.7330  178.2810  145.0230 C   0  0  0  0  0  0  0  0  0  0  0  0
  184.5450  179.1450  144.5520 C   0  0  2  0  0  3  0  0  0  0  0  0
  185.5290  178.8260  145.6170 C   0  0  0  0  0  0  0  0  0  0  0  0
  182.4590  178.9180  143.8530 C   0  0  0  0  0  1  0  0  0  0  0  0
  183.4000  178.3650  144.7200 O   0  0  0  0  0  0  0  0  0  0  0  0
  1  6  1  0  0  0  0
  2  1  2  0  0  0  0
  3  4  1  0  0  0  0
  4  6  1  0  0  0  0
  5  3  1  0  0  0  0
  6 44  1  0  0  0  0
  7  8  1  0  0  0  0
  8  5  2  0  0  0  0
  9  8  1  1  0  0  0
  9 10  1  0  0  0  0
 10  2  1  0  0  0  0
 10  4  2  0  0  0  0
 11 15  1  6  0  0  0
 11  9  1  0  0  0  0
 13 11  1  0  0  0  0
 14 12  1  6  0  0  0
 14 16  1  0  0  0  0
 14 15  1  0  0  0  0
 16 17  1  1  0  0  0
 16 13  1  0  0  0  0
 17 18  1  0  0  0  0
 19 18  1  0  0  0  0
 20 21  2  0  0  0  0
 21 19  1  0  0  0  0
 21 22  1  0  0  0  0
 22 23  1  0  0  0  0
 25 24  1  6  0  0  0
 25 22  1  0  0  0  0
 26 25  1  0  0  0  0
 26 27  1  1  0  0  0
 29 28  1  0  0  0  0
 29 26  1  0  0  0  0
 30 35  1  0  0  0  0
 31  7  1  0  0  0  0
 31 35  2  0  0  0  0
 32 30  2  0  0  0  0
 33 34  2  0  0  0  0
 33 32  1  0  0  0  0
 34 31  1  0  0  0  0
 37 36  1  6  0  0  0
 37 32  1  0  0  0  0
 37 40  1  0  0  0  0
 38 37  1  0  0  0  0
 38 39  1  0  0  0  0
 42 40  1  0  0  0  0
 42 41  1  0  0  0  0
 44 43  2  0  0  0  0
 45 43  1  0  0  0  0
 45 46  1  0  0  0  0
 48 51  2  0  0  0  0
 50 49  1  6  0  0  0
 50 48  1  0  0  0  0
 50 52  1  0  0  0  0
 51 53  1  0  0  0  0
 51 46  1  0  0  0  0
 52 55  1  1  0  0  0
 52 53  1  0  0  0  0
 53 47  2  0  0  0  0
 54 55  1  0  0  0  0
M  END
>  <MODEL>
5

>  <REMARK>
 VINA RESULT:      -5.9      2.089      3.015
  Name = 
  19 active torsions:
  status: ('A' for Active; 'I' for Inactive)
    1  A    between atoms: N_2  and  C_46
    2  A    between atoms: N_2  and  C_48
    3  A    between atoms: C_8  and  C_39
    4  A    between atoms: C_9  and  N_33
    5  A    between atoms: C_14  and  C_24
    6  A    between atoms: C_14  and  S_37
    7  A    between atoms: C_16  and  C_18
    8  A    between atoms: C_18  and  N_38
    9  A    between atoms: C_18  and  C_47
   10  A    between atoms: C_20  and  N_32
   11  A    between atoms: C_22  and  C_26
   12  A    between atoms: C_22  and  N_32
   13  A    between atoms: C_23  and  C_46
   14  A    between atoms: C_23  and  C_53
   15  A    between atoms: C_24  and  N_52
   16  A    between atoms: N_28  and  C_43
   17  A    between atoms: C_45  and  C_47
   18  A    between atoms: C_48  and  N_52
   19  A    between atoms: C_49  and  O_51
                            x       y       z     vdW  Elec       q    Type
                         _______ _______ _______ _____ _____    ______ ____

>  <TORSDO>
F 19

$$$$
=
 OpenBabel10232412273D

 55 59  0  0  1  0  0  0  0  0999 V2000
  187.5360  175.7680  135.7980 C   0  0  0  0  0  3  0  0  0  0  0  0
  188.5620  175.1230  136.4880 C   0  0  0  0  0  3  0  0  0  0  0  0
  187.8450  177.9310  138.6820 C   0  0  0  0  0  2  0  0  0  0  0  0
  187.8080  176.8590  137.6450 C   0  0  0  0  0  0  0  0  0  0  0  0
  188.3770  177.3780  139.9360 N   0  0  0  0  0  0  0  0  0  0  0  0
  187.0790  176.8150  136.5160 N   0  0  0  0  0  0  0  0  0  0  0  0
  189.6950  175.9090  141.2740 N   0  0  0  0  0  2  0  0  0  0  0  0
  189.2320  176.3870  140.0020 C   0  0  0  0  0  0  0  0  0  0  0  0
  189.7510  175.7040  138.7420 C   0  0  1  0  0  3  0  0  0  0  0  0
  188.7160  175.8440  137.6580 C   0  0  0  0  0  0  0  0  0  0  0  0
  191.0870  176.3320  138.3070 C   0  0  2  0  0  3  0  0  0  0  0  0
  194.1980  177.1530  140.1010 N   0  0  0  0  0  1  0  0  0  0  0  0
  192.1830  175.1230  137.5080 S   0  0  0  0  0  0  0  0  0  0  0  0
  193.2670  177.1570  138.9850 C   0  0  2  0  0  3  0  0  0  0  0  0
  191.8710  176.8650  139.4860 C   0  0  0  0  0  2  0  0  0  0  0  0
  193.6580  176.0840  137.9740 C   0  0  2  0  0  3  0  0  0  0  0  0
  194.2320  176.7410  136.7280 C   0  0  0  0  0  2  0  0  0  0  0  0
  194.9340  175.7240  135.8440 C   0  0  0  0  0  2  0  0  0  0  0  0
  196.3340  175.6010  136.2240 N   0  0  0  0  0  2  0  0  0  0  0  0
  198.0880  174.7020  138.0280 S   0  0  0  0  0  0  0  0  0  0  0  0
  196.8550  174.4840  136.9570 C   0  0  0  0  0  0  0  0  0  0  0  0
  196.2890  173.1770  136.7520 N   0  0  0  0  0  0  0  0  0  0  0  0
  195.8200  172.7940  135.4240 C   0  0  0  0  0  1  0  0  0  0  0  0
  195.0600  172.4220  138.5980 O   0  0  0  0  0  1  0  0  0  0  0  0
  196.2150  172.2050  137.8450 C   0  0  1  0  0  3  0  0  0  0  0  0
  196.2470  170.7740  137.3150 C   0  0  1  0  0  3  0  0  0  0  0  0
  197.5490  170.2740  137.3760 O   0  0  0  0  0  1  0  0  0  0  0  0
  194.6150  168.7640  136.8630 C   0  0  0  0  0  1  0  0  0  0  0  0
  195.1520  169.7170  138.3110 S   0  0  0  0  0  0  0  0  0  0  0  0
  187.7000  176.8300  144.2880 C   0  0  0  0  0  3  0  0  0  0  0  0
  189.3730  176.4290  142.5730 C   0  0  0  0  0  0  0  0  0  0  0  0
  188.6700  177.4080  145.1230 C   0  0  0  0  0  0  0  0  0  0  0  0
  189.9960  177.4800  144.6730 C   0  0  0  0  0  3  0  0  0  0  0  0
  190.3440  176.9970  143.4090 C   0  0  0  0  0  3  0  0  0  0  0  0
  188.0500  176.3490  143.0220 C   0  0  0  0  0  3  0  0  0  0  0  0
  188.6290  179.2390  146.6280 F   0  0  0  0  0  0  0  0  0  0  0  0
  188.3000  177.8910  146.5040 C   0  0  2  0  0  0  0  0  0  0  0  0
  189.0460  177.0950  147.4850 N   0  0  0  0  0  2  0  0  0  0  0  0
  188.3550  177.0690  148.6520 O   0  0  0  0  0  1  0  0  0  0  0  0
  186.7870  177.7100  146.7030 C   0  0  0  0  0  2  0  0  0  0  0  0
  184.9350  179.1660  146.2710 O   0  0  0  0  0  1  0  0  0  0  0  0
  186.0620  178.9980  147.0820 C   0  0  0  0  0  2  0  0  0  0  0  0
  184.8180  177.4030  135.8240 C   0  0  0  0  0  3  0  0  0  0  0  0
  186.0880  177.7410  136.0540 C   0  0  0  0  0  3  0  0  0  0  0  0
  184.3600  176.0580  135.9550 N   0  0  0  0  0  2  0  0  0  0  0  0
  183.7180  175.5940  137.1740 C   0  0  0  0  0  2  0  0  0  0  0  0
  185.3730  172.9940  137.5810 C   0  0  0  0  0  2  0  0  0  0  0  0
  182.0250  173.8240  136.7920 C   0  0  0  0  0  3  0  0  0  0  0  0
  181.0190  171.9010  137.7320 O   0  0  0  0  0  1  0  0  0  0  0  0
  181.8840  172.3320  136.7270 C   0  0  2  0  0  3  0  0  0  0  0  0
  183.2770  174.1710  137.0270 C   0  0  0  0  0  0  0  0  0  0  0  0
  183.2880  171.7720  136.9870 C   0  0  2  0  0  3  0  0  0  0  0  0
  184.1130  172.9950  137.1550 C   0  0  0  0  0  0  0  0  0  0  0  0
  183.5840  169.7200  136.2160 C   0  0  0  0  0  1  0  0  0  0  0  0
  183.7210  171.0620  135.8660 O   0  0  0  0  0  0  0  0  0  0  0  0
  1  2  2  0  0  0  0
  1  6  1  0  0  0  0
  2 10  1  0  0  0  0
  3  5  1  0  0  0  0
  4 10  2  0  0  0  0
  4  3  1  0  0  0  0
  5  8  2  0  0  0  0
  6  4  1  0  0  0  0
  7 31  1  0  0  0  0
  8  7  1  0  0  0  0
  9 10  1  6  0  0  0
  9  8  1  0  0  0  0
 11  9  1  0  0  0  0
 11 15  1  1  0  0  0
 13 16  1  0  0  0  0
 13 11  1  0  0  0  0
 14 15  1  0  0  0  0
 14 12  1  1  0  0  0
 16 17  1  6  0  0  0
 16 14  1  0  0  0  0
 18 19  1  0  0  0  0
 18 17  1  0  0  0  0
 19 21  1  0  0  0  0
 21 20  2  0  0  0  0
 22 21  1  0  0  0  0
 22 25  1  0  0  0  0
 23 22  1  0  0  0  0
 25 24  1  6  0  0  0
 26 27  1  1  0  0  0
 26 25  1  0  0  0  0
 26 29  1  0  0  0  0
 28 29  1  0  0  0  0
 30 32  1  0  0  0  0
 31 35  1  0  0  0  0
 31 34  2  0  0  0  0
 32 37  1  0  0  0  0
 33 32  2  0  0  0  0
 34 33  1  0  0  0  0
 35 30  2  0  0  0  0
 37 36  1  1  0  0  0
 37 40  1  0  0  0  0
 37 38  1  0  0  0  0
 38 39  1  0  0  0  0
 40 42  1  0  0  0  0
 41 42  1  0  0  0  0
 43 45  1  0  0  0  0
 43 44  2  0  0  0  0
 44  6  1  0  0  0  0
 45 46  1  0  0  0  0
 48 51  2  0  0  0  0
 50 48  1  0  0  0  0
 50 52  1  0  0  0  0
 50 49  1  1  0  0  0
 51 53  1  0  0  0  0
 51 46  1  0  0  0  0
 52 55  1  6  0  0  0
 52 53  1  0  0  0  0
 53 47  2  0  0  0  0
 55 54  1  0  0  0  0
M  END
>  <MODEL>
6

>  <REMARK>
 VINA RESULT:      -5.9      3.866      7.631
  Name = 
  19 active torsions:
  status: ('A' for Active; 'I' for Inactive)
    1  A    between atoms: N_2  and  C_46
    2  A    between atoms: N_2  and  C_48
    3  A    between atoms: C_8  and  C_39
    4  A    between atoms: C_9  and  N_33
    5  A    between atoms: C_14  and  C_24
    6  A    between atoms: C_14  and  S_37
    7  A    between atoms: C_16  and  C_18
    8  A    between atoms: C_18  and  N_38
    9  A    between atoms: C_18  and  C_47
   10  A    between atoms: C_20  and  N_32
   11  A    between atoms: C_22  and  C_26
   12  A    between atoms: C_22  and  N_32
   13  A    between atoms: C_23  and  C_46
   14  A    between atoms: C_23  and  C_53
   15  A    between atoms: C_24  and  N_52
   16  A    between atoms: N_28  and  C_43
   17  A    between atoms: C_45  and  C_47
   18  A    between atoms: C_48  and  N_52
   19  A    between atoms: C_49  and  O_51
                            x       y       z     vdW  Elec       q    Type
                         _______ _______ _______ _____ _____    ______ ____

>  <TORSDO>
F 19

$$$$
=
 OpenBabel10232412273D

 55 59  0  0  1  0  0  0  0  0999 V2000
  187.3650  176.0250  135.8370 C   0  0  0  0  0  3  0  0  0  0  0  0
  188.3870  175.3830  136.5340 C   0  0  0  0  0  3  0  0  0  0  0  0
  187.6450  178.1860  138.7260 C   0  0  0  0  0  2  0  0  0  0  0  0
  187.6190  177.1140  137.6870 C   0  0  0  0  0  0  0  0  0  0  0  0
  188.1690  177.6330  139.9830 N   0  0  0  0  0  0  0  0  0  0  0  0
  186.8990  177.0700  136.5530 N   0  0  0  0  0  0  0  0  0  0  0  0
  189.4820  176.1660  141.3300 N   0  0  0  0  0  2  0  0  0  0  0  0
  189.0270  176.6440  140.0540 C   0  0  0  0  0  0  0  0  0  0  0  0
  189.5580  175.9650  138.7980 C   0  0  1  0  0  3  0  0  0  0  0  0
  188.5310  176.1030  137.7060 C   0  0  0  0  0  0  0  0  0  0  0  0
  190.8940  176.5970  138.3740 C   0  0  2  0  0  3  0  0  0  0  0  0
  194.1450  177.0070  140.0580 N   0  0  0  0  0  1  0  0  0  0  0  0
  191.8790  175.4820  137.3300 S   0  0  0  0  0  0  0  0  0  0  0  0
  193.1500  177.2200  139.0200 C   0  0  2  0  0  3  0  0  0  0  0  0
  191.7730  176.9110  139.5640 C   0  0  0  0  0  2  0  0  0  0  0  0
  193.4250  176.3000  137.8360 C   0  0  2  0  0  3  0  0  0  0  0  0
  193.9560  177.1160  136.6660 C   0  0  0  0  0  2  0  0  0  0  0  0
  194.2230  176.2360  135.4580 C   0  0  0  0  0  2  0  0  0  0  0  0
  195.5620  175.6680  135.5280 N   0  0  0  0  0  2  0  0  0  0  0  0
  194.9500  173.0830  135.2440 S   0  0  0  0  0  0  0  0  0  0  0  0
  195.8220  174.3110  135.9110 C   0  0  0  0  0  0  0  0  0  0  0  0
  196.8520  174.0340  136.8770 N   0  0  0  0  0  0  0  0  0  0  0  0
  196.7530  172.8450  137.7180 C   0  0  0  0  0  1  0  0  0  0  0  0
  198.1470  175.3530  138.3180 O   0  0  0  0  0  1  0  0  0  0  0  0
  198.0250  174.9040  137.0020 C   0  0  1  0  0  3  0  0  0  0  0  0
  199.2970  174.1820  136.5640 C   0  0  1  0  0  3  0  0  0  0  0  0
  200.0940  175.0420  135.8070 O   0  0  0  0  0  1  0  0  0  0  0  0
  200.2070  171.8940  137.4810 C   0  0  0  0  0  1  0  0  0  0  0  0
  200.2310  173.6250  138.0210 S   0  0  0  0  0  0  0  0  0  0  0  0
  187.5740  176.7890  144.4730 C   0  0  0  0  0  3  0  0  0  0  0  0
  189.1480  176.6840  142.6270 C   0  0  0  0  0  0  0  0  0  0  0  0
  188.4360  177.6420  145.1820 C   0  0  0  0  0  0  0  0  0  0  0  0
  189.6620  178.0010  144.6030 C   0  0  0  0  0  3  0  0  0  0  0  0
  190.0130  177.5280  143.3360 C   0  0  0  0  0  3  0  0  0  0  0  0
  187.9280  176.3180  143.2050 C   0  0  0  0  0  3  0  0  0  0  0  0
  189.1070  178.8980  147.0770 F   0  0  0  0  0  0  0  0  0  0  0  0
  188.0720  178.1180  146.5670 C   0  0  2  0  0  0  0  0  0  0  0  0
  187.8590  176.9410  147.4160 N   0  0  0  0  0  2  0  0  0  0  0  0
  188.2220  177.2410  148.6880 O   0  0  0  0  0  1  0  0  0  0  0  0
  186.7880  178.9590  146.4800 C   0  0  0  0  0  2  0  0  0  0  0  0
  184.4090  178.8170  146.2520 O   0  0  0  0  0  1  0  0  0  0  0  0
  185.5210  178.1740  146.8040 C   0  0  0  0  0  2  0  0  0  0  0  0
  184.6000  177.7320  136.0900 C   0  0  0  0  0  3  0  0  0  0  0  0
  185.9080  177.9930  136.0850 C   0  0  0  0  0  3  0  0  0  0  0  0
  184.0860  176.4670  136.5030 N   0  0  0  0  0  2  0  0  0  0  0  0
  183.9470  176.1310  137.9110 C   0  0  0  0  0  2  0  0  0  0  0  0
  183.7390  178.0460  140.3500 C   0  0  0  0  0  2  0  0  0  0  0  0
  181.5340  176.6970  137.9350 C   0  0  0  0  0  3  0  0  0  0  0  0
  179.9860  178.4840  137.9220 O   0  0  0  0  0  1  0  0  0  0  0  0
  180.5200  177.4740  138.7210 C   0  0  2  0  0  3  0  0  0  0  0  0
  182.7290  176.7810  138.4890 C   0  0  0  0  0  0  0  0  0  0  0  0
  181.2950  178.1020  139.8870 C   0  0  2  0  0  3  0  0  0  0  0  0
  182.6790  177.6080  139.6780 C   0  0  0  0  0  0  0  0  0  0  0  0
  180.3420  178.7340  141.7810 C   0  0  0  0  0  1  0  0  0  0  0  0
  180.7970  177.6100  141.0950 O   0  0  0  0  0  0  0  0  0  0  0  0
  1  2  2  0  0  0  0
  1  6  1  0  0  0  0
  2 10  1  0  0  0  0
  3  5  1  0  0  0  0
  4 10  2  0  0  0  0
  4  3  1  0  0  0  0
  5  8  2  0  0  0  0
  6  4  1  0  0  0  0
  7 31  1  0  0  0  0
  8  7  1  0  0  0  0
  9 10  1  6  0  0  0
  9  8  1  0  0  0  0
 11  9  1  0  0  0  0
 11 15  1  1  0  0  0
 13 16  1  0  0  0  0
 13 11  1  0  0  0  0
 14 15  1  0  0  0  0
 14 12  1  1  0  0  0
 16 17  1  6  0  0  0
 16 14  1  0  0  0  0
 18 19  1  0  0  0  0
 18 17  1  0  0  0  0
 19 21  1  0  0  0  0
 20 21  2  0  0  0  0
 21 22  1  0  0  0  0
 22 25  1  0  0  0  0
 22 23  1  0  0  0  0
 25 24  1  1  0  0  0
 26 27  1  1  0  0  0
 26 25  1  0  0  0  0
 26 29  1  0  0  0  0
 28 29  1  0  0  0  0
 30 32  1  0  0  0  0
 31 35  1  0  0  0  0
 31 34  2  0  0  0  0
 32 37  1  0  0  0  0
 33 32  2  0  0  0  0
 34 33  1  0  0  0  0
 35 30  2  0  0  0  0
 37 36  1  1  0  0  0
 37 38  1  0  0  0  0
 38 39  1  0  0  0  0
 40 37  1  0  0  0  0
 40 42  1  0  0  0  0
 41 42  1  0  0  0  0
 43 45  1  0  0  0  0
 44 43  2  0  0  0  0
 44  6  1  0  0  0  0
 45 46  1  0  0  0  0
 46 51  1  0  0  0  0
 48 51  2  0  0  0  0
 48 50  1  0  0  0  0
 50 49  1  6  0  0  0
 50 52  1  0  0  0  0
 51 53  1  0  0  0  0
 52 55  1  1  0  0  0
 53 52  1  0  0  0  0
 53 47  2  0  0  0  0
 55 54  1  0  0  0  0
M  END
>  <MODEL>
7

>  <REMARK>
 VINA RESULT:      -5.8      2.554      6.652
  Name = 
  19 active torsions:
  status: ('A' for Active; 'I' for Inactive)
    1  A    between atoms: N_2  and  C_46
    2  A    between atoms: N_2  and  C_48
    3  A    between atoms: C_8  and  C_39
    4  A    between atoms: C_9  and  N_33
    5  A    between atoms: C_14  and  C_24
    6  A    between atoms: C_14  and  S_37
    7  A    between atoms: C_16  and  C_18
    8  A    between atoms: C_18  and  N_38
    9  A    between atoms: C_18  and  C_47
   10  A    between atoms: C_20  and  N_32
   11  A    between atoms: C_22  and  C_26
   12  A    between atoms: C_22  and  N_32
   13  A    between atoms: C_23  and  C_46
   14  A    between atoms: C_23  and  C_53
   15  A    between atoms: C_24  and  N_52
   16  A    between atoms: N_28  and  C_43
   17  A    between atoms: C_45  and  C_47
   18  A    between atoms: C_48  and  N_52
   19  A    between atoms: C_49  and  O_51
                            x       y       z     vdW  Elec       q    Type
                         _______ _______ _______ _____ _____    ______ ____

>  <TORSDO>
F 19

$$$$
=
 OpenBabel10232412273D

 55 59  0  0  1  0  0  0  0  0999 V2000
  191.7990  177.8870  143.7390 C   0  0  0  0  0  3  0  0  0  0  0  0
  192.0470  178.2230  142.4090 C   0  0  0  0  0  3  0  0  0  0  0  0
  189.0640  176.1680  142.1080 C   0  0  0  0  0  2  0  0  0  0  0  0
  190.1840  177.0330  142.5830 C   0  0  0  0  0  0  0  0  0  0  0  0
  188.5770  176.6670  140.8140 N   0  0  0  0  0  0  0  0  0  0  0  0
  190.6570  177.1730  143.8330 N   0  0  0  0  0  0  0  0  0  0  0  0
  188.7560  177.7550  138.7000 N   0  0  0  0  0  2  0  0  0  0  0  0
  189.3210  177.2980  139.9380 C   0  0  0  0  0  0  0  0  0  0  0  0
  190.7940  177.5790  140.2070 C   0  0  1  0  0  3  0  0  0  0  0  0
  191.0050  177.6600  141.6950 C   0  0  0  0  0  0  0  0  0  0  0  0
  191.6680  176.4730  139.5910 C   0  0  2  0  0  3  0  0  0  0  0  0
  191.6300  174.7340  136.3440 N   0  0  0  0  0  1  0  0  0  0  0  0
  193.2260  177.1250  138.9200 S   0  0  0  0  0  0  0  0  0  0  0  0
  192.0370  174.9720  137.7190 C   0  0  2  0  0  3  0  0  0  0  0  0
  190.9840  175.7950  138.4260 C   0  0  0  0  0  2  0  0  0  0  0  0
  193.3560  175.7370  137.7490 C   0  0  2  0  0  3  0  0  0  0  0  0
  194.4740  174.8120  138.2040 C   0  0  0  0  0  2  0  0  0  0  0  0
  195.5430  174.6740  137.1350 C   0  0  0  0  0  2  0  0  0  0  0  0
  195.0120  173.9820  135.9690 N   0  0  0  0  0  2  0  0  0  0  0  0
  193.8880  171.6800  135.2140 S   0  0  0  0  0  0  0  0  0  0  0  0
  195.1620  172.5730  135.7530 C   0  0  0  0  0  0  0  0  0  0  0  0
  196.4350  171.9510  136.0060 N   0  0  0  0  0  0  0  0  0  0  0  0
  197.4670  171.9710  134.9740 C   0  0  0  0  0  1  0  0  0  0  0  0
  195.5490  171.1470  138.0210 O   0  0  0  0  0  1  0  0  0  0  0  0
  196.7310  171.3350  137.3020 C   0  0  1  0  0  3  0  0  0  0  0  0
  197.4670  170.0090  137.1290 C   0  0  1  0  0  3  0  0  0  0  0  0
  198.7920  170.1430  137.5470 O   0  0  0  0  0  1  0  0  0  0  0  0
  198.2340  167.9180  138.5220 C   0  0  0  0  0  1  0  0  0  0  0  0
  196.6560  168.7130  138.1130 S   0  0  0  0  0  0  0  0  0  0  0  0
  185.8450  176.2370  136.9300 C   0  0  0  0  0  3  0  0  0  0  0  0
  187.4140  177.5620  138.2270 C   0  0  0  0  0  0  0  0  0  0  0  0
  184.7980  177.1050  137.2800 C   0  0  0  0  0  0  0  0  0  0  0  0
  185.0720  178.1960  138.1170 C   0  0  0  0  0  3  0  0  0  0  0  0
  186.3680  178.4230  138.5840 C   0  0  0  0  0  3  0  0  0  0  0  0
  187.1430  176.4680  137.3980 C   0  0  0  0  0  3  0  0  0  0  0  0
  183.3770  175.6810  136.0250 F   0  0  0  0  0  0  0  0  0  0  0  0
  183.3900  176.8330  136.8080 C   0  0  2  0  0  0  0  0  0  0  0  0
  182.9380  177.9850  136.0210 N   0  0  0  0  0  2  0  0  0  0  0  0
  182.0010  178.6650  136.7280 O   0  0  0  0  0  1  0  0  0  0  0  0
  182.4870  176.6320  138.0360 C   0  0  0  0  0  2  0  0  0  0  0  0
  181.3750  174.7760  139.0620 O   0  0  0  0  0  1  0  0  0  0  0  0
  182.6310  175.2580  138.6820 C   0  0  0  0  0  2  0  0  0  0  0  0
  188.9820  176.9100  145.5820 C   0  0  0  0  0  3  0  0  0  0  0  0
  190.1620  176.5950  145.0470 C   0  0  0  0  0  2  0  0  0  0  0  0
  188.1410  177.9140  145.0150 N   0  0  0  0  0  0  0  0  0  0  0  0
  186.7440  178.0350  145.4000 C   0  0  0  0  0  2  0  0  0  0  0  0
  183.8410  179.1440  145.3310 C   0  0  0  0  0  2  0  0  0  0  0  0
  186.3480  178.3330  142.9710 C   0  0  0  0  0  3  0  0  0  0  0  0
  185.7020  179.8900  141.3120 O   0  0  0  0  0  1  0  0  0  0  0  0
  185.2850  178.7510  141.9990 C   0  0  2  0  0  3  0  0  0  0  0  0
  185.8980  178.3710  144.2110 C   0  0  0  0  0  0  0  0  0  0  0  0
  184.0570  179.0910  142.8530 C   0  0  2  0  0  3  0  0  0  0  0  0
  184.5190  178.8150  144.2360 C   0  0  0  0  0  0  0  0  0  0  0  0
  181.8510  178.9240  142.8670 C   0  0  0  0  0  1  0  0  0  0  0  0
  183.0090  178.2280  142.5260 O   0  0  0  0  0  0  0  0  0  0  0  0
  1  6  1  0  0  0  0
  2  1  2  0  0  0  0
  3  4  1  0  0  0  0
  4  6  1  0  0  0  0
  5  3  1  0  0  0  0
  6 44  1  0  0  0  0
  7  8  1  0  0  0  0
  8  5  2  0  0  0  0
  9  8  1  1  0  0  0
  9 10  1  0  0  0  0
 10  2  1  0  0  0  0
 10  4  2  0  0  0  0
 11 15  1  6  0  0  0
 11  9  1  0  0  0  0
 13 11  1  0  0  0  0
 14 12  1  6  0  0  0
 14 16  1  0  0  0  0
 14 15  1  0  0  0  0
 16 17  1  1  0  0  0
 16 13  1  0  0  0  0
 18 17  1  0  0  0  0
 19 18  1  0  0  0  0
 20 21  2  0  0  0  0
 21 19  1  0  0  0  0
 21 22  1  0  0  0  0
 22 25  1  0  0  0  0
 23 22  1  0  0  0  0
 25 24  1  6  0  0  0
 26 25  1  0  0  0  0
 26 27  1  1  0  0  0
 26 29  1  0  0  0  0
 29 28  1  0  0  0  0
 30 32  2  0  0  0  0
 30 35  1  0  0  0  0
 31 34  1  0  0  0  0
 31  7  1  0  0  0  0
 32 33  1  0  0  0  0
 33 34  2  0  0  0  0
 35 31  2  0  0  0  0
 37 36  1  6  0  0  0
 37 32  1  0  0  0  0
 37 40  1  0  0  0  0
 38 39  1  0  0  0  0
 38 37  1  0  0  0  0
 40 42  1  0  0  0  0
 42 41  1  0  0  0  0
 44 43  1  0  0  0  0
 45 46  1  0  0  0  0
 45 43  2  0  0  0  0
 48 51  2  0  0  0  0
 50 49  1  1  0  0  0
 50 52  1  0  0  0  0
 50 48  1  0  0  0  0
 51 53  1  0  0  0  0
 51 46  1  0  0  0  0
 52 55  1  6  0  0  0
 52 53  1  0  0  0  0
 53 47  2  0  0  0  0
 55 54  1  0  0  0  0
M  END
>  <MODEL>
8

>  <REMARK>
 VINA RESULT:      -5.7      2.662      3.867
  Name = 
  19 active torsions:
  status: ('A' for Active; 'I' for Inactive)
    1  A    between atoms: N_2  and  C_46
    2  A    between atoms: N_2  and  C_48
    3  A    between atoms: C_8  and  C_39
    4  A    between atoms: C_9  and  N_33
    5  A    between atoms: C_14  and  C_24
    6  A    between atoms: C_14  and  S_37
    7  A    between atoms: C_16  and  C_18
    8  A    between atoms: C_18  and  N_38
    9  A    between atoms: C_18  and  C_47
   10  A    between atoms: C_20  and  N_32
   11  A    between atoms: C_22  and  C_26
   12  A    between atoms: C_22  and  N_32
   13  A    between atoms: C_23  and  C_46
   14  A    between atoms: C_23  and  C_53
   15  A    between atoms: C_24  and  N_52
   16  A    between atoms: N_28  and  C_43
   17  A    between atoms: C_45  and  C_47
   18  A    between atoms: C_48  and  N_52
   19  A    between atoms: C_49  and  O_51
                            x       y       z     vdW  Elec       q    Type
                         _______ _______ _______ _____ _____    ______ ____

>  <TORSDO>
F 19

$$$$
=
 OpenBabel10232412273D

 55 59  0  0  1  0  0  0  0  0999 V2000
  189.6220  177.3980  135.4560 C   0  0  0  0  0  3  0  0  0  0  0  0
  188.9140  178.3360  136.2070 C   0  0  0  0  0  3  0  0  0  0  0  0
  189.5430  175.7400  138.6720 C   0  0  0  0  0  2  0  0  0  0  0  0
  189.5560  176.6370  137.4790 C   0  0  0  0  0  0  0  0  0  0  0  0
  189.4130  176.5510  139.8900 N   0  0  0  0  0  0  0  0  0  0  0  0
  190.0160  176.3750  136.2440 N   0  0  0  0  0  0  0  0  0  0  0  0
  188.7240  178.4330  141.1830 N   0  0  0  0  0  2  0  0  0  0  0  0
  188.7980  177.7080  139.9470 C   0  0  0  0  0  0  0  0  0  0  0  0
  188.1570  178.3240  138.7090 C   0  0  1  0  0  3  0  0  0  0  0  0
  188.8840  177.8210  137.4900 C   0  0  0  0  0  0  0  0  0  0  0  0
  186.6640  177.9580  138.6440 C   0  0  2  0  0  3  0  0  0  0  0  0
  183.6790  179.1960  140.4120 N   0  0  0  0  0  1  0  0  0  0  0  0
  185.8270  178.7460  137.2370 S   0  0  0  0  0  0  0  0  0  0  0  0
  184.4400  178.3030  139.5550 C   0  0  2  0  0  3  0  0  0  0  0  0
  185.9130  178.4280  139.8700 C   0  0  0  0  0  2  0  0  0  0  0  0
  184.2210  178.6700  138.0910 C   0  0  2  0  0  3  0  0  0  0  0  0
  183.3560  177.6130  137.4220 C   0  0  0  0  0  2  0  0  0  0  0  0
  183.3540  176.3190  138.2170 C   0  0  0  0  0  2  0  0  0  0  0  0
  182.1430  175.5580  137.9470 N   0  0  0  0  0  2  0  0  0  0  0  0
  181.1230  173.1530  137.3900 S   0  0  0  0  0  0  0  0  0  0  0  0
  182.1000  174.4360  137.0560 C   0  0  0  0  0  0  0  0  0  0  0  0
  182.9130  174.4450  135.8690 N   0  0  0  0  0  0  0  0  0  0  0  0
  182.5350  175.2900  134.7410 C   0  0  0  0  0  1  0  0  0  0  0  0
  184.8670  174.0100  134.6500 O   0  0  0  0  0  1  0  0  0  0  0  0
  184.1430  173.6520  135.7890 C   0  0  1  0  0  3  0  0  0  0  0  0
  184.9970  173.8300  137.0420 C   0  0  1  0  0  3  0  0  0  0  0  0
  185.0730  172.6230  137.7400 O   0  0  0  0  0  1  0  0  0  0  0  0
  187.4290  172.8590  137.2590 C   0  0  0  0  0  1  0  0  0  0  0  0
  186.6740  174.3620  136.5820 S   0  0  0  0  0  0  0  0  0  0  0  0
  190.6790  178.4510  144.3600 C   0  0  0  0  0  3  0  0  0  0  0  0
  189.2170  178.0230  142.4680 C   0  0  0  0  0  0  0  0  0  0  0  0
  190.2130  177.2930  145.0040 C   0  0  0  0  0  0  0  0  0  0  0  0
  189.2350  176.5110  144.3700 C   0  0  0  0  0  3  0  0  0  0  0  0
  188.7430  176.8720  143.1130 C   0  0  0  0  0  3  0  0  0  0  0  0
  190.1860  178.8090  143.1010 C   0  0  0  0  0  3  0  0  0  0  0  0
  191.3250  178.0380  146.9600 F   0  0  0  0  0  0  0  0  0  0  0  0
  190.7150  176.9280  146.3800 C   0  0  2  0  0  0  0  0  0  0  0  0
  191.6800  175.8330  146.2410 N   0  0  0  0  0  2  0  0  0  0  0  0
  191.9650  175.3360  147.4710 O   0  0  0  0  0  1  0  0  0  0  0  0
  189.5210  176.4880  147.2410 C   0  0  0  0  0  2  0  0  0  0  0  0
  188.2580  177.6990  148.8750 O   0  0  0  0  0  1  0  0  0  0  0  0
  188.5130  177.6030  147.5040 C   0  0  0  0  0  2  0  0  0  0  0  0
  191.9840  174.9660  135.9680 C   0  0  0  0  0  3  0  0  0  0  0  0
  190.6870  175.2010  135.7690 C   0  0  0  0  0  3  0  0  0  0  0  0
  192.8310  175.9120  136.6190 N   0  0  0  0  0  2  0  0  0  0  0  0
  193.7170  175.5150  137.7020 C   0  0  0  0  0  2  0  0  0  0  0  0
  195.9810  173.9330  139.1260 C   0  0  0  0  0  2  0  0  0  0  0  0
  195.4110  175.2830  135.9070 C   0  0  0  0  0  3  0  0  0  0  0  0
  196.7230  173.7290  134.7010 O   0  0  0  0  0  1  0  0  0  0  0  0
  196.7870  174.7420  135.6570 C   0  0  2  0  0  3  0  0  0  0  0  0
  195.0520  175.1030  137.1640 C   0  0  0  0  0  0  0  0  0  0  0  0
  197.2480  174.1530  136.9960 C   0  0  2  0  0  3  0  0  0  0  0  0
  196.1030  174.4300  137.8990 C   0  0  0  0  0  0  0  0  0  0  0  0
  199.3680  173.8670  137.5570 C   0  0  0  0  0  1  0  0  0  0  0  0
  198.3780  174.8400  137.4430 O   0  0  0  0  0  0  0  0  0  0  0  0
  1  2  2  0  0  0  0
  1  6  1  0  0  0  0
  2 10  1  0  0  0  0
  3  5  1  0  0  0  0
  4 10  2  0  0  0  0
  4  3  1  0  0  0  0
  5  8  2  0  0  0  0
  6  4  1  0  0  0  0
  7 31  1  0  0  0  0
  8  7  1  0  0  0  0
  9 10  1  6  0  0  0
  9  8  1  0  0  0  0
 11  9  1  0  0  0  0
 11 15  1  1  0  0  0
 13 16  1  0  0  0  0
 13 11  1  0  0  0  0
 14 15  1  0  0  0  0
 14 12  1  1  0  0  0
 16 17  1  6  0  0  0
 16 14  1  0  0  0  0
 17 18  1  0  0  0  0
 19 18  1  0  0  0  0
 21 20  2  0  0  0  0
 21 19  1  0  0  0  0
 22 21  1  0  0  0  0
 23 22  1  0  0  0  0
 25 24  1  6  0  0  0
 25 22  1  0  0  0  0
 25 26  1  0  0  0  0
 26 27  1  6  0  0  0
 29 26  1  0  0  0  0
 29 28  1  0  0  0  0
 30 32  1  0  0  0  0
 31 35  1  0  0  0  0
 31 34  2  0  0  0  0
 32 37  1  0  0  0  0
 33 32  2  0  0  0  0
 34 33  1  0  0  0  0
 35 30  2  0  0  0  0
 37 36  1  1  0  0  0
 37 40  1  0  0  0  0
 38 37  1  0  0  0  0
 38 39  1  0  0  0  0
 40 42  1  0  0  0  0
 42 41  1  0  0  0  0
 43 45  1  0  0  0  0
 44 43  2  0  0  0  0
 44  6  1  0  0  0  0
 45 46  1  0  0  0  0
 48 51  2  0  0  0  0
 50 49  1  6  0  0  0
 50 48  1  0  0  0  0
 50 52  1  0  0  0  0
 51 46  1  0  0  0  0
 51 53  1  0  0  0  0
 52 55  1  1  0  0  0
 52 53  1  0  0  0  0
 53 47  2  0  0  0  0
 55 54  1  0  0  0  0
M  END
>  <MODEL>
9

>  <REMARK>
 VINA RESULT:      -5.6      3.849     10.054
  Name = 
  19 active torsions:
  status: ('A' for Active; 'I' for Inactive)
    1  A    between atoms: N_2  and  C_46
    2  A    between atoms: N_2  and  C_48
    3  A    between atoms: C_8  and  C_39
    4  A    between atoms: C_9  and  N_33
    5  A    between atoms: C_14  and  C_24
    6  A    between atoms: C_14  and  S_37
    7  A    between atoms: C_16  and  C_18
    8  A    between atoms: C_18  and  N_38
    9  A    between atoms: C_18  and  C_47
   10  A    between atoms: C_20  and  N_32
   11  A    between atoms: C_22  and  C_26
   12  A    between atoms: C_22  and  N_32
   13  A    between atoms: C_23  and  C_46
   14  A    between atoms: C_23  and  C_53
   15  A    between atoms: C_24  and  N_52
   16  A    between atoms: N_28  and  C_43
   17  A    between atoms: C_45  and  C_47
   18  A    between atoms: C_48  and  N_52
   19  A    between atoms: C_49  and  O_51
                            x       y       z     vdW  Elec       q    Type
                         _______ _______ _______ _____ _____    ______ ____

>  <TORSDO>
F 19

$$$$
