=
 OpenBabel10232408443D

 55 58  0  0  1  0  0  0  0  0999 V2000
  186.1790  177.6030  142.8120 C   0  0  0  0  0  2  0  0  0  0  0  0
  185.3250  178.8800  142.7260 C   0  0  2  0  0  3  0  0  0  0  0  0
  185.8590  178.8390  140.3520 O   0  0  0  0  0  1  0  0  0  0  0  0
  182.8980  178.4830  142.4530 C   0  0  2  0  0  3  0  0  0  0  0  0
  184.0050  178.7140  143.4830 C   0  0  0  0  0  2  0  0  0  0  0  0
  183.6410  178.3040  141.1340 C   0  0  2  0  0  3  0  0  0  0  0  0
  184.8840  179.1590  141.2980 C   0  0  1  0  0  3  0  0  0  0  0  0
  180.0130  178.5880  143.3480 O   0  0  0  0  0  1  0  0  0  0  0  0
  180.6410  179.6980  142.7840 C   0  0  0  0  0  0  0  0  0  0  0  0
  182.0130  179.6480  142.3780 N   0  0  0  0  0  2  0  0  0  0  0  0
  179.9990  180.7730  142.6580 O   0  0  0  0  0  0  0  0  0  0  0  0
  182.7750  178.5950  139.8830 C   0  0  1  0  0  3  0  0  0  0  0  0
  182.8120  179.9820  139.3060 C   0  0  0  0  0  0  0  0  0  0  0  0
  184.0150  180.5120  138.8630 O   0  0  0  0  0  0  0  0  0  0  0  0
  181.7580  180.6660  139.2070 O   0  0  0  0  0  1  0  0  0  0  0  0
  182.7910  177.5730  138.9080 O   0  0  0  0  0  0  0  0  0  0  0  0
  181.6910  176.7300  139.1270 C   0  0  0  0  0  2  0  0  0  0  0  0
  181.1280  176.3280  137.8490 N   0  0  0  0  0  2  0  0  0  0  0  0
  182.9980  173.9370  136.3100 C   0  0  2  0  0  0  0  0  0  0  0  0
  182.2350  175.9090  137.0060 C   0  0  2  0  0  3  0  0  0  0  0  0
  182.2290  172.6370  136.3410 C   0  0  0  0  0  2  0  0  0  0  0  0
  184.4580  173.5190  136.2250 C   0  0  2  0  0  3  0  0  0  0  0  0
  181.8040  175.8100  135.6720 O   0  0  0  0  0  0  0  0  0  0  0  0
  184.5550  172.2180  136.9990 C   0  0  0  0  0  2  0  0  0  0  0  0
  182.7300  174.6740  137.4650 O   0  0  0  0  0  0  0  0  0  0  0  0
  182.5830  174.7810  135.1480 C   0  0  0  0  0  2  0  0  0  0  0  0
  183.1450  171.6360  137.0410 C   0  0  0  0  0  2  0  0  0  0  0  0
  185.3060  174.4800  136.7770 O   0  0  0  0  0  1  0  0  0  0  0  0
  187.0730  177.5550  144.0480 C   0  0  0  0  0  2  0  0  0  0  0  0
  188.5510  177.5770  143.6940 C   0  0  1  0  0  3  0  0  0  0  0  0
  189.3460  177.9940  144.9250 C   0  0  0  0  0  2  0  0  0  0  0  0
  192.1770  176.9260  144.7660 O   0  0  0  0  0  0  0  0  0  0  0  0
  192.6950  175.7380  147.4120 N   0  0  0  0  0  1  0  0  0  0  0  0
  191.4100  176.8760  145.7190 C   0  0  0  0  0  0  0  0  0  0  0  0
  191.8410  176.8820  147.1430 C   0  0  1  0  0  3  0  0  0  0  0  0
  189.9380  176.7570  145.5950 C   0  0  1  0  0  3  0  0  0  0  0  0
  190.5830  176.7270  147.8540 N   0  0  0  0  0  0  0  0  0  0  0  0
  189.5690  176.7140  147.0400 C   0  0  0  0  0  0  0  0  0  0  0  0
  188.2270  176.4400  147.4770 N   0  0  0  0  0  0  0  0  0  0  0  0
  187.3280  177.3170  147.8180 C   0  0  0  0  0  3  0  0  0  0  0  0
  187.5600  178.7950  147.7870 C   0  0  0  0  0  2  0  0  0  0  0  0
  185.9430  180.5360  147.9930 O   0  0  0  0  0  1  0  0  0  0  0  0
  186.3770  179.5050  147.1570 C   0  0  2  0  0  3  0  0  0  0  0  0
  185.2590  178.5170  146.9520 C   0  0  0  0  0  1  0  0  0  0  0  0
  188.9940  176.2040  143.2330 C   0  0  0  0  0  2  0  0  0  0  0  0
  190.0720  176.3320  142.1730 C   0  0  0  0  0  2  0  0  0  0  0  0
  189.8420  177.5900  141.3640 C   0  0  0  0  0  2  0  0  0  0  0  0
  189.0440  177.2850  140.1050 C   0  0  0  0  0  2  0  0  0  0  0  0
  189.1060  178.4240  139.2010 N   0  0  0  0  0  2  0  0  0  0  0  0
  188.2150  178.1270  138.0950 C   0  0  0  0  0  2  0  0  0  0  0  0
  188.3020  176.6550  137.7420 C   0  0  0  0  0  2  0  0  0  0  0  0
  188.7480  176.4490  136.0300 S   0  0  0  0  0  0  0  0  0  0  0  0
  187.7680  177.5410  135.0270 C   0  0  0  0  0  1  0  0  0  0  0  0
  188.4790  175.0280  135.6230 O   0  0  0  0  0  0  0  0  0  0  0  0
  190.2050  176.7540  135.8240 O   0  0  0  0  0  0  0  0  0  0  0  0
  1 29  1  0  0  0  0
  2  1  1  6  0  0  0
  2  5  1  0  0  0  0
  4 10  1  6  0  0  0
  4  5  1  0  0  0  0
  6 12  1  6  0  0  0
  6  7  1  0  0  0  0
  6  4  1  0  0  0  0
  7  3  1  6  0  0  0
  7  2  1  0  0  0  0
  9  8  1  0  0  0  0
 10  9  1  0  0  0  0
 11  9  2  0  0  0  0
 12 16  1  6  0  0  0
 13 12  1  0  0  0  0
 14 13  2  0  0  0  0
 15 13  1  0  0  0  0
 16 17  1  0  0  0  0
 18 17  1  0  0  0  0
 19 26  1  6  0  0  0
 19 21  1  0  0  0  0
 19 25  1  0  0  0  0
 20 25  1  0  0  0  0
 20 18  1  1  0  0  0
 21 27  1  0  0  0  0
 22 19  1  0  0  0  0
 22 28  1  1  0  0  0
 22 24  1  0  0  0  0
 23 20  1  0  0  0  0
 24 27  1  0  0  0  0
 26 23  1  0  0  0  0
 30 45  1  1  0  0  0
 30 29  1  0  0  0  0
 30 31  1  0  0  0  0
 32 34  2  0  0  0  0
 34 35  1  0  0  0  0
 35 33  1  6  0  0  0
 35 37  1  0  0  0  0
 36 31  1  1  0  0  0
 36 34  1  0  0  0  0
 36 38  1  0  0  0  0
 38 39  1  0  0  0  0
 38 37  2  0  0  0  0
 39 40  2  0  0  0  0
 41 40  1  0  0  0  0
 43 44  1  1  0  0  0
 43 41  1  0  0  0  0
 43 42  1  0  0  0  0
 46 45  1  0  0  0  0
 47 46  1  0  0  0  0
 48 47  1  0  0  0  0
 49 48  1  0  0  0  0
 50 49  1  0  0  0  0
 51 50  1  0  0  0  0
 52 51  1  0  0  0  0
 53 52  1  0  0  0  0
 54 52  2  0  0  0  0
 55 52  2  0  0  0  0
M  END
>  <MODEL>
1

>  <REMARK>
 VINA RESULT:      -6.8      0.000      0.000
  Name = 
  23 active torsions:
  status: ('A' for Active; 'I' for Inactive)
    1  A    between atoms: C_1  and  C_23
    2  A    between atoms: C_1  and  C_47
    3  A    between atoms: C_2  and  C_29
    4  A    between atoms: S_5  and  C_31
    5  A    between atoms: C_7  and  C_20
    6  A    between atoms: C_8  and  N_45
    7  A    between atoms: N_9  and  C_26
    8  A    between atoms: N_9  and  C_47
    9  A    between atoms: N_12  and  C_49
   10  A    between atoms: C_15  and  C_16
   11  A    between atoms: C_15  and  C_23
   12  A    between atoms: C_16  and  C_40
   13  A    between atoms: C_16  and  C_55
   14  A    between atoms: C_19  and  C_43
   15  A    between atoms: C_20  and  O_38
   16  A    between atoms: C_20  and  C_46
   17  A    between atoms: C_21  and  O_38
   18  A    between atoms: C_21  and  N_45
   19  A    between atoms: C_25  and  C_40
   20  A    between atoms: C_26  and  C_31
   21  A    between atoms: C_29  and  C_55
   22  A    between atoms: C_30  and  N_42
   23  A    between atoms: C_41  and  C_43
                            x       y       z     vdW  Elec       q    Type
                         _______ _______ _______ _____ _____    ______ ____

>  <TORSDO>
F 23

$$$$
=
 OpenBabel10232408443D

 55 58  0  0  1  0  0  0  0  0999 V2000
  186.8670  178.2090  141.9340 C   0  0  0  0  0  2  0  0  0  0  0  0
  185.7850  179.3000  141.8530 C   0  0  2  0  0  3  0  0  0  0  0  0
  185.5540  178.6160  139.5290 O   0  0  0  0  0  1  0  0  0  0  0  0
  183.5290  178.5720  142.5630 C   0  0  2  0  0  3  0  0  0  0  0  0
  184.8290  179.2190  143.0450 C   0  0  0  0  0  2  0  0  0  0  0  0
  183.8480  178.0940  141.1500 C   0  0  2  0  0  3  0  0  0  0  0  0
  184.8760  179.0920  140.6510 C   0  0  1  0  0  3  0  0  0  0  0  0
  180.8550  178.3240  143.9490 O   0  0  0  0  0  1  0  0  0  0  0  0
  181.1710  179.4360  143.1680 C   0  0  0  0  0  0  0  0  0  0  0  0
  182.4450  179.5560  142.5290 N   0  0  0  0  0  2  0  0  0  0  0  0
  180.3300  180.3650  143.0500 O   0  0  0  0  0  0  0  0  0  0  0  0
  182.5960  177.9030  140.2570 C   0  0  1  0  0  3  0  0  0  0  0  0
  182.3530  178.9000  139.1600 C   0  0  0  0  0  0  0  0  0  0  0  0
  182.8260  178.6450  137.8800 O   0  0  0  0  0  0  0  0  0  0  0  0
  181.7130  179.9620  139.3850 O   0  0  0  0  0  1  0  0  0  0  0  0
  182.3470  176.5660  139.8770 O   0  0  0  0  0  0  0  0  0  0  0  0
  180.9780  176.4270  139.6010 C   0  0  0  0  0  2  0  0  0  0  0  0
  180.7020  175.0600  139.1930 N   0  0  0  0  0  2  0  0  0  0  0  0
  182.0360  173.3080  136.5980 C   0  0  2  0  0  0  0  0  0  0  0  0
  181.1160  174.9360  137.8060 C   0  0  2  0  0  3  0  0  0  0  0  0
  182.0760  171.8470  136.9810 C   0  0  0  0  0  2  0  0  0  0  0  0
  183.1480  173.4700  135.5730 C   0  0  2  0  0  3  0  0  0  0  0  0
  180.0580  174.4200  137.0390 O   0  0  0  0  0  0  0  0  0  0  0  0
  184.2260  172.4830  135.9830 C   0  0  0  0  0  2  0  0  0  0  0  0
  182.2460  174.1000  137.7290 O   0  0  0  0  0  0  0  0  0  0  0  0
  180.6990  173.6840  136.0450 C   0  0  0  0  0  2  0  0  0  0  0  0
  183.5390  171.4300  136.8460 C   0  0  0  0  0  2  0  0  0  0  0  0
  183.6550  174.7690  135.5580 O   0  0  0  0  0  1  0  0  0  0  0  0
  188.1900  178.6190  141.2910 C   0  0  0  0  0  2  0  0  0  0  0  0
  188.8350  177.4800  140.5180 C   0  0  1  0  0  3  0  0  0  0  0  0
  189.3130  178.0070  139.1710 C   0  0  0  0  0  2  0  0  0  0  0  0
  187.4100  179.2860  137.1920 O   0  0  0  0  0  0  0  0  0  0  0  0
  187.7360  177.7360  134.7070 N   0  0  0  0  0  1  0  0  0  0  0  0
  188.1530  178.3310  137.0060 C   0  0  0  0  0  0  0  0  0  0  0  0
  188.7700  177.9920  135.6960 C   0  0  1  0  0  3  0  0  0  0  0  0
  188.5150  177.3450  138.0510 C   0  0  1  0  0  3  0  0  0  0  0  0
  189.4770  176.7560  135.9900 N   0  0  0  0  0  0  0  0  0  0  0  0
  189.3880  176.4400  137.2480 C   0  0  0  0  0  0  0  0  0  0  0  0
  189.8870  175.1980  137.7730 N   0  0  0  0  0  0  0  0  0  0  0  0
  191.1330  174.8290  137.8400 C   0  0  0  0  0  3  0  0  0  0  0  0
  192.2750  175.6790  137.3810 C   0  0  0  0  0  2  0  0  0  0  0  0
  193.8720  176.7330  138.8020 O   0  0  0  0  0  1  0  0  0  0  0  0
  193.4730  175.4960  138.2930 C   0  0  2  0  0  3  0  0  0  0  0  0
  194.6030  174.8840  137.5070 C   0  0  0  0  0  1  0  0  0  0  0  0
  190.0060  176.9210  141.3000 C   0  0  0  0  0  2  0  0  0  0  0  0
  190.4380  177.9070  142.3680 C   0  0  0  0  0  2  0  0  0  0  0  0
  191.6890  177.4000  143.0510 C   0  0  0  0  0  2  0  0  0  0  0  0
  191.3370  176.5800  144.2840 C   0  0  0  0  0  2  0  0  0  0  0  0
  191.7430  177.3020  145.4820 N   0  0  0  0  0  2  0  0  0  0  0  0
  190.8150  176.9230  146.5310 C   0  0  0  0  0  2  0  0  0  0  0  0
  189.3900  177.1350  146.0610 C   0  0  0  0  0  2  0  0  0  0  0  0
  188.3410  177.5790  147.4310 S   0  0  0  0  0  0  0  0  0  0  0  0
  186.7990  178.2120  146.8160 C   0  0  0  0  0  1  0  0  0  0  0  0
  189.0240  178.6430  148.2430 O   0  0  0  0  0  0  0  0  0  0  0  0
  188.0790  176.3840  148.3030 O   0  0  0  0  0  0  0  0  0  0  0  0
  2  1  1  1  0  0  0
  2  5  1  0  0  0  0
  4 10  1  6  0  0  0
  4  5  1  0  0  0  0
  6 12  1  6  0  0  0
  6  4  1  0  0  0  0
  7  3  1  6  0  0  0
  7  6  1  0  0  0  0
  7  2  1  0  0  0  0
  9  8  1  0  0  0  0
 10  9  1  0  0  0  0
 11  9  2  0  0  0  0
 12 13  1  6  0  0  0
 13 15  1  0  0  0  0
 14 13  2  0  0  0  0
 16 12  1  0  0  0  0
 17 16  1  0  0  0  0
 18 17  1  0  0  0  0
 19 26  1  6  0  0  0
 19 21  1  0  0  0  0
 19 25  1  0  0  0  0
 20 18  1  1  0  0  0
 22 28  1  1  0  0  0
 22 24  1  0  0  0  0
 22 19  1  0  0  0  0
 23 20  1  0  0  0  0
 24 27  1  0  0  0  0
 25 20  1  0  0  0  0
 26 23  1  0  0  0  0
 27 21  1  0  0  0  0
 29  1  1  0  0  0  0
 30 31  1  6  0  0  0
 30 29  1  0  0  0  0
 30 45  1  0  0  0  0
 34 32  2  0  0  0  0
 34 36  1  0  0  0  0
 35 33  1  6  0  0  0
 35 37  1  0  0  0  0
 35 34  1  0  0  0  0
 36 31  1  1  0  0  0
 37 38  2  0  0  0  0
 38 39  1  0  0  0  0
 38 36  1  0  0  0  0
 39 40  2  0  0  0  0
 41 40  1  0  0  0  0
 41 43  1  0  0  0  0
 43 44  1  6  0  0  0
 43 42  1  0  0  0  0
 45 46  1  0  0  0  0
 46 47  1  0  0  0  0
 47 48  1  0  0  0  0
 48 49  1  0  0  0  0
 49 50  1  0  0  0  0
 51 50  1  0  0  0  0
 51 52  1  0  0  0  0
 52 54  2  0  0  0  0
 52 55  2  0  0  0  0
 53 52  1  0  0  0  0
M  END
>  <MODEL>
2

>  <REMARK>
 VINA RESULT:      -6.7      2.754      6.877
  Name = 
  23 active torsions:
  status: ('A' for Active; 'I' for Inactive)
    1  A    between atoms: C_1  and  C_23
    2  A    between atoms: C_1  and  C_47
    3  A    between atoms: C_2  and  C_29
    4  A    between atoms: S_5  and  C_31
    5  A    between atoms: C_7  and  C_20
    6  A    between atoms: C_8  and  N_45
    7  A    between atoms: N_9  and  C_26
    8  A    between atoms: N_9  and  C_47
    9  A    between atoms: N_12  and  C_49
   10  A    between atoms: C_15  and  C_16
   11  A    between atoms: C_15  and  C_23
   12  A    between atoms: C_16  and  C_40
   13  A    between atoms: C_16  and  C_55
   14  A    between atoms: C_19  and  C_43
   15  A    between atoms: C_20  and  O_38
   16  A    between atoms: C_20  and  C_46
   17  A    between atoms: C_21  and  O_38
   18  A    between atoms: C_21  and  N_45
   19  A    between atoms: C_25  and  C_40
   20  A    between atoms: C_26  and  C_31
   21  A    between atoms: C_29  and  C_55
   22  A    between atoms: C_30  and  N_42
   23  A    between atoms: C_41  and  C_43
                            x       y       z     vdW  Elec       q    Type
                         _______ _______ _______ _____ _____    ______ ____

>  <TORSDO>
F 23

$$$$
=
 OpenBabel10232408443D

 55 58  0  0  1  0  0  0  0  0999 V2000
  186.5940  178.2800  141.1870 C   0  0  0  0  0  2  0  0  0  0  0  0
  185.4010  179.2360  141.3690 C   0  0  2  0  0  3  0  0  0  0  0  0
  185.2700  179.2150  138.9390 O   0  0  0  0  0  1  0  0  0  0  0  0
  183.2300  178.1140  141.7560 C   0  0  2  0  0  3  0  0  0  0  0  0
  184.4470  178.7270  142.4520 C   0  0  0  0  0  2  0  0  0  0  0  0
  183.6130  178.0880  140.2800 C   0  0  2  0  0  3  0  0  0  0  0  0
  184.5330  179.2840  140.1220 C   0  0  1  0  0  3  0  0  0  0  0  0
  181.7960  178.5790  144.3750 O   0  0  0  0  0  1  0  0  0  0  0  0
  181.3530  179.1630  143.1880 C   0  0  0  0  0  0  0  0  0  0  0  0
  182.0460  178.9540  141.9540 N   0  0  0  0  0  2  0  0  0  0  0  0
  180.3430  179.9140  143.2100 O   0  0  0  0  0  0  0  0  0  0  0  0
  182.3980  178.0310  139.3190 C   0  0  1  0  0  3  0  0  0  0  0  0
  182.0180  179.2870  138.5880 C   0  0  0  0  0  0  0  0  0  0  0  0
  181.5730  180.3910  139.3020 O   0  0  0  0  0  1  0  0  0  0  0  0
  182.1110  179.3550  137.3330 O   0  0  0  0  0  0  0  0  0  0  0  0
  182.3360  176.8670  138.5220 O   0  0  0  0  0  0  0  0  0  0  0  0
  183.4110  176.0320  138.8650 C   0  0  0  0  0  2  0  0  0  0  0  0
  183.9750  175.4490  137.6600 N   0  0  0  0  0  2  0  0  0  0  0  0
  186.4620  176.5350  135.6060 C   0  0  2  0  0  0  0  0  0  0  0  0
  184.7100  176.5010  136.9780 C   0  0  2  0  0  3  0  0  0  0  0  0
  187.0050  175.3480  134.8450 C   0  0  0  0  0  2  0  0  0  0  0  0
  187.6140  177.5280  135.6460 C   0  0  2  0  0  3  0  0  0  0  0  0
  184.1600  176.7140  135.7030 O   0  0  0  0  0  0  0  0  0  0  0  0
  188.8750  176.6850  135.7030 C   0  0  0  0  0  2  0  0  0  0  0  0
  186.0660  176.1390  136.8840 O   0  0  0  0  0  0  0  0  0  0  0  0
  185.2530  177.1000  134.9310 C   0  0  0  0  0  2  0  0  0  0  0  0
  188.4990  175.3100  135.1580 C   0  0  0  0  0  2  0  0  0  0  0  0
  187.5370  178.3670  136.7570 O   0  0  0  0  0  1  0  0  0  0  0  0
  187.9420  178.9960  141.1470 C   0  0  0  0  0  2  0  0  0  0  0  0
  189.0900  178.0920  141.5630 C   0  0  1  0  0  3  0  0  0  0  0  0
  188.5180  176.7860  142.1010 C   0  0  0  0  0  2  0  0  0  0  0  0
  191.2000  175.7600  143.0680 O   0  0  0  0  0  0  0  0  0  0  0  0
  191.7000  177.1930  145.5940 N   0  0  0  0  0  1  0  0  0  0  0  0
  190.4760  176.5880  143.6060 C   0  0  0  0  0  0  0  0  0  0  0  0
  190.9700  177.7100  144.4500 C   0  0  1  0  0  3  0  0  0  0  0  0
  188.9970  176.5700  143.5350 C   0  0  1  0  0  3  0  0  0  0  0  0
  189.7360  178.3310  144.9020 N   0  0  0  0  0  0  0  0  0  0  0  0
  188.6910  177.7630  144.3770 C   0  0  0  0  0  0  0  0  0  0  0  0
  187.3480  178.1010  144.7620 N   0  0  0  0  0  0  0  0  0  0  0  0
  186.7690  177.8150  145.8910 C   0  0  0  0  0  3  0  0  0  0  0  0
  187.4440  177.0800  147.0050 C   0  0  0  0  0  2  0  0  0  0  0  0
  186.9380  179.1880  147.9990 O   0  0  0  0  0  1  0  0  0  0  0  0
  187.6080  177.9820  148.2140 C   0  0  2  0  0  3  0  0  0  0  0  0
  189.0740  178.2500  148.4350 C   0  0  0  0  0  1  0  0  0  0  0  0
  189.9880  177.8130  140.3770 C   0  0  0  0  0  2  0  0  0  0  0  0
  189.4720  176.6150  139.6020 C   0  0  0  0  0  2  0  0  0  0  0  0
  190.6220  175.9340  138.8940 C   0  0  0  0  0  2  0  0  0  0  0  0
  191.5660  176.9590  138.2840 C   0  0  0  0  0  2  0  0  0  0  0  0
  192.4070  176.3150  137.2850 N   0  0  0  0  0  2  0  0  0  0  0  0
  193.4350  175.5930  138.0110 C   0  0  0  0  0  2  0  0  0  0  0  0
  193.7840  174.3130  137.2760 C   0  0  0  0  0  2  0  0  0  0  0  0
  195.3720  173.7040  137.8050 S   0  0  0  0  0  0  0  0  0  0  0  0
  195.9980  172.5560  136.6020 C   0  0  0  0  0  1  0  0  0  0  0  0
  195.2110  173.0020  139.1240 O   0  0  0  0  0  0  0  0  0  0  0  0
  196.3450  174.8380  137.9660 O   0  0  0  0  0  0  0  0  0  0  0  0
  2  1  1  6  0  0  0
  2  5  1  0  0  0  0
  4 10  1  6  0  0  0
  4  5  1  0  0  0  0
  6 12  1  6  0  0  0
  6  4  1  0  0  0  0
  7  3  1  6  0  0  0
  7  6  1  0  0  0  0
  7  2  1  0  0  0  0
  9 11  2  0  0  0  0
  9  8  1  0  0  0  0
 10  9  1  0  0  0  0
 12 16  1  6  0  0  0
 13 14  1  0  0  0  0
 13 12  1  0  0  0  0
 15 13  2  0  0  0  0
 16 17  1  0  0  0  0
 18 17  1  0  0  0  0
 19 21  1  6  0  0  0
 19 22  1  0  0  0  0
 19 25  1  0  0  0  0
 20 18  1  6  0  0  0
 21 27  1  0  0  0  0
 22 24  1  0  0  0  0
 22 28  1  1  0  0  0
 23 20  1  0  0  0  0
 25 20  1  0  0  0  0
 26 19  1  0  0  0  0
 26 23  1  0  0  0  0
 27 24  1  0  0  0  0
 29  1  1  0  0  0  0
 29 30  1  0  0  0  0
 30 45  1  6  0  0  0
 30 31  1  0  0  0  0
 32 34  2  0  0  0  0
 34 35  1  0  0  0  0
 35 37  1  0  0  0  0
 35 33  1  1  0  0  0
 36 31  1  6  0  0  0
 36 34  1  0  0  0  0
 36 38  1  0  0  0  0
 38 39  1  0  0  0  0
 38 37  2  0  0  0  0
 39 40  2  0  0  0  0
 40 41  1  0  0  0  0
 41 43  1  0  0  0  0
 42 43  1  0  0  0  0
 43 44  1  6  0  0  0
 46 45  1  0  0  0  0
 47 46  1  0  0  0  0
 48 47  1  0  0  0  0
 49 50  1  0  0  0  0
 49 48  1  0  0  0  0
 51 52  1  0  0  0  0
 51 50  1  0  0  0  0
 52 55  2  0  0  0  0
 52 54  2  0  0  0  0
 53 52  1  0  0  0  0
M  END
>  <MODEL>
3

>  <REMARK>
 VINA RESULT:      -6.6      2.934      3.753
  Name = 
  23 active torsions:
  status: ('A' for Active; 'I' for Inactive)
    1  A    between atoms: C_1  and  C_23
    2  A    between atoms: C_1  and  C_47
    3  A    between atoms: C_2  and  C_29
    4  A    between atoms: S_5  and  C_31
    5  A    between atoms: C_7  and  C_20
    6  A    between atoms: C_8  and  N_45
    7  A    between atoms: N_9  and  C_26
    8  A    between atoms: N_9  and  C_47
    9  A    between atoms: N_12  and  C_49
   10  A    between atoms: C_15  and  C_16
   11  A    between atoms: C_15  and  C_23
   12  A    between atoms: C_16  and  C_40
   13  A    between atoms: C_16  and  C_55
   14  A    between atoms: C_19  and  C_43
   15  A    between atoms: C_20  and  O_38
   16  A    between atoms: C_20  and  C_46
   17  A    between atoms: C_21  and  O_38
   18  A    between atoms: C_21  and  N_45
   19  A    between atoms: C_25  and  C_40
   20  A    between atoms: C_26  and  C_31
   21  A    between atoms: C_29  and  C_55
   22  A    between atoms: C_30  and  N_42
   23  A    between atoms: C_41  and  C_43
                            x       y       z     vdW  Elec       q    Type
                         _______ _______ _______ _____ _____    ______ ____

>  <TORSDO>
F 23

$$$$
=
 OpenBabel10232408443D

 55 58  0  0  1  0  0  0  0  0999 V2000
  186.6210  178.4000  140.8080 C   0  0  0  0  0  2  0  0  0  0  0  0
  185.4060  179.2950  141.1070 C   0  0  2  0  0  3  0  0  0  0  0  0
  185.1400  179.4010  138.6910 O   0  0  0  0  0  1  0  0  0  0  0  0
  183.3020  178.0670  141.5460 C   0  0  2  0  0  3  0  0  0  0  0  0
  184.5330  178.6890  142.2090 C   0  0  0  0  0  2  0  0  0  0  0  0
  183.6030  178.1370  140.0520 C   0  0  2  0  0  3  0  0  0  0  0  0
  184.4680  179.3760  139.9130 C   0  0  1  0  0  3  0  0  0  0  0  0
  182.1990  178.6210  144.3040 O   0  0  0  0  0  1  0  0  0  0  0  0
  181.5640  179.0970  143.1570 C   0  0  0  0  0  0  0  0  0  0  0  0
  182.1010  178.8460  141.8540 N   0  0  0  0  0  2  0  0  0  0  0  0
  180.5170  179.7860  143.2720 O   0  0  0  0  0  0  0  0  0  0  0  0
  182.3400  178.0840  139.1560 C   0  0  1  0  0  3  0  0  0  0  0  0
  181.5940  179.3650  138.9130 C   0  0  0  0  0  0  0  0  0  0  0  0
  180.3410  179.5500  139.4800 O   0  0  0  0  0  1  0  0  0  0  0  0
  182.0980  180.2800  138.2090 O   0  0  0  0  0  0  0  0  0  0  0  0
  182.4720  177.2740  138.0070 O   0  0  0  0  0  0  0  0  0  0  0  0
  181.2420  176.6460  137.7590 C   0  0  0  0  0  2  0  0  0  0  0  0
  181.4170  175.2040  137.8050 N   0  0  0  0  0  2  0  0  0  0  0  0
  184.0420  173.5610  136.3930 C   0  0  2  0  0  0  0  0  0  0  0  0
  182.2370  174.8360  136.6640 C   0  0  2  0  0  3  0  0  0  0  0  0
  184.5460  172.5330  137.3790 C   0  0  0  0  0  2  0  0  0  0  0  0
  185.2470  173.8850  135.5230 C   0  0  2  0  0  3  0  0  0  0  0  0
  181.7520  173.6470  136.0940 O   0  0  0  0  0  0  0  0  0  0  0  0
  186.4540  173.7520  136.4320 C   0  0  0  0  0  2  0  0  0  0  0  0
  183.5730  174.6840  137.0780 O   0  0  0  0  0  0  0  0  0  0  0  0
  182.8960  173.0280  135.5960 C   0  0  0  0  0  2  0  0  0  0  0  0
  186.0220  172.8610  137.5930 C   0  0  0  0  0  2  0  0  0  0  0  0
  185.1730  175.1730  134.9940 O   0  0  0  0  0  1  0  0  0  0  0  0
  187.9280  178.9430  141.3790 C   0  0  0  0  0  2  0  0  0  0  0  0
  188.8080  177.8460  141.9550 C   0  0  1  0  0  3  0  0  0  0  0  0
  188.0670  177.1710  143.1010 C   0  0  0  0  0  2  0  0  0  0  0  0
  185.6880  177.6440  144.9160 O   0  0  0  0  0  0  0  0  0  0  0  0
  186.8500  178.2820  147.5480 N   0  0  0  0  0  1  0  0  0  0  0  0
  186.8760  177.7050  145.2070 C   0  0  0  0  0  0  0  0  0  0  0  0
  187.4270  177.3930  146.5530 C   0  0  1  0  0  3  0  0  0  0  0  0
  187.9380  178.1420  144.2710 C   0  0  1  0  0  3  0  0  0  0  0  0
  188.8400  177.6940  146.3940 N   0  0  0  0  0  0  0  0  0  0  0  0
  189.1220  178.0390  145.1730 C   0  0  0  0  0  0  0  0  0  0  0  0
  190.4220  178.5130  144.7820 N   0  0  0  0  0  0  0  0  0  0  0  0
  191.5510  177.8810  144.9170 C   0  0  0  0  0  3  0  0  0  0  0  0
  191.6680  176.5100  145.5040 C   0  0  0  0  0  2  0  0  0  0  0  0
  192.5240  174.4600  144.6370 O   0  0  0  0  0  1  0  0  0  0  0  0
  191.5720  175.4570  144.4160 C   0  0  2  0  0  3  0  0  0  0  0  0
  191.8190  176.1040  143.0780 C   0  0  0  0  0  1  0  0  0  0  0  0
  189.1400  176.8300  140.8830 C   0  0  0  0  0  2  0  0  0  0  0  0
  189.8500  177.5050  139.7250 C   0  0  0  0  0  2  0  0  0  0  0  0
  191.2200  176.8920  139.5420 C   0  0  0  0  0  2  0  0  0  0  0  0
  191.4620  176.5340  138.0830 C   0  0  0  0  0  2  0  0  0  0  0  0
  192.8930  176.5110  137.8170 N   0  0  0  0  0  2  0  0  0  0  0  0
  193.2950  175.1170  137.8200 C   0  0  0  0  0  2  0  0  0  0  0  0
  194.7370  174.9940  137.3710 C   0  0  0  0  0  2  0  0  0  0  0  0
  195.7270  174.2440  138.6480 S   0  0  0  0  0  0  0  0  0  0  0  0
  197.3500  173.8970  138.0140 C   0  0  0  0  0  1  0  0  0  0  0  0
  195.0780  172.9590  139.0770 O   0  0  0  0  0  0  0  0  0  0  0  0
  195.8390  175.1600  139.8340 O   0  0  0  0  0  0  0  0  0  0  0  0
  1 29  1  0  0  0  0
  2  1  1  6  0  0  0
  2  5  1  0  0  0  0
  4 10  1  6  0  0  0
  4  5  1  0  0  0  0
  6 12  1  6  0  0  0
  6  4  1  0  0  0  0
  7  3  1  6  0  0  0
  7  6  1  0  0  0  0
  7  2  1  0  0  0  0
  9 11  2  0  0  0  0
  9  8  1  0  0  0  0
 10  9  1  0  0  0  0
 12 16  1  6  0  0  0
 13 12  1  0  0  0  0
 13 14  1  0  0  0  0
 15 13  2  0  0  0  0
 17 18  1  0  0  0  0
 17 16  1  0  0  0  0
 19 26  1  6  0  0  0
 19 25  1  0  0  0  0
 19 21  1  0  0  0  0
 20 25  1  0  0  0  0
 20 18  1  1  0  0  0
 21 27  1  0  0  0  0
 22 28  1  1  0  0  0
 22 19  1  0  0  0  0
 22 24  1  0  0  0  0
 23 20  1  0  0  0  0
 24 27  1  0  0  0  0
 26 23  1  0  0  0  0
 29 30  1  0  0  0  0
 30 45  1  6  0  0  0
 30 31  1  0  0  0  0
 32 34  2  0  0  0  0
 34 35  1  0  0  0  0
 35 33  1  1  0  0  0
 36 31  1  6  0  0  0
 36 38  1  0  0  0  0
 36 34  1  0  0  0  0
 37 35  1  0  0  0  0
 38 37  2  0  0  0  0
 39 40  2  0  0  0  0
 39 38  1  0  0  0  0
 40 41  1  0  0  0  0
 43 44  1  6  0  0  0
 43 42  1  0  0  0  0
 43 41  1  0  0  0  0
 46 45  1  0  0  0  0
 47 46  1  0  0  0  0
 48 47  1  0  0  0  0
 49 50  1  0  0  0  0
 49 48  1  0  0  0  0
 51 50  1  0  0  0  0
 51 52  1  0  0  0  0
 52 54  2  0  0  0  0
 52 55  2  0  0  0  0
 53 52  1  0  0  0  0
M  END
>  <MODEL>
4

>  <REMARK>
 VINA RESULT:      -6.2      2.872      4.140
  Name = 
  23 active torsions:
  status: ('A' for Active; 'I' for Inactive)
    1  A    between atoms: C_1  and  C_23
    2  A    between atoms: C_1  and  C_47
    3  A    between atoms: C_2  and  C_29
    4  A    between atoms: S_5  and  C_31
    5  A    between atoms: C_7  and  C_20
    6  A    between atoms: C_8  and  N_45
    7  A    between atoms: N_9  and  C_26
    8  A    between atoms: N_9  and  C_47
    9  A    between atoms: N_12  and  C_49
   10  A    between atoms: C_15  and  C_16
   11  A    between atoms: C_15  and  C_23
   12  A    between atoms: C_16  and  C_40
   13  A    between atoms: C_16  and  C_55
   14  A    between atoms: C_19  and  C_43
   15  A    between atoms: C_20  and  O_38
   16  A    between atoms: C_20  and  C_46
   17  A    between atoms: C_21  and  O_38
   18  A    between atoms: C_21  and  N_45
   19  A    between atoms: C_25  and  C_40
   20  A    between atoms: C_26  and  C_31
   21  A    between atoms: C_29  and  C_55
   22  A    between atoms: C_30  and  N_42
   23  A    between atoms: C_41  and  C_43
                            x       y       z     vdW  Elec       q    Type
                         _______ _______ _______ _____ _____    ______ ____

>  <TORSDO>
F 23

$$$$
=
 OpenBabel10232408443D

 55 58  0  0  1  0  0  0  0  0999 V2000
  186.3840  178.3940  140.9590 C   0  0  0  0  0  2  0  0  0  0  0  0
  185.1710  179.3210  141.1510 C   0  0  2  0  0  3  0  0  0  0  0  0
  185.0370  179.3190  138.7210 O   0  0  0  0  0  1  0  0  0  0  0  0
  183.0260  178.1480  141.5300 C   0  0  2  0  0  3  0  0  0  0  0  0
  184.2300  178.7810  142.2300 C   0  0  0  0  0  2  0  0  0  0  0  0
  183.4070  178.1440  140.0540 C   0  0  2  0  0  3  0  0  0  0  0  0
  184.3000  179.3610  139.9050 C   0  0  1  0  0  3  0  0  0  0  0  0
  181.6480  178.6460  144.1740 O   0  0  0  0  0  1  0  0  0  0  0  0
  181.1570  179.1840  142.9840 C   0  0  0  0  0  0  0  0  0  0  0  0
  181.8240  178.9600  141.7380 N   0  0  0  0  0  2  0  0  0  0  0  0
  180.1270  179.9070  143.0120 O   0  0  0  0  0  0  0  0  0  0  0  0
  182.1930  178.0690  139.0940 C   0  0  1  0  0  3  0  0  0  0  0  0
  181.7080  179.3460  138.4690 C   0  0  0  0  0  0  0  0  0  0  0  0
  181.8230  179.5300  137.0980 O   0  0  0  0  0  0  0  0  0  0  0  0
  181.1840  180.2500  139.1750 O   0  0  0  0  0  1  0  0  0  0  0  0
  182.2160  176.9730  138.2050 O   0  0  0  0  0  0  0  0  0  0  0  0
  180.9890  176.2980  138.2940 C   0  0  0  0  0  2  0  0  0  0  0  0
  181.2290  174.8870  138.5440 N   0  0  0  0  0  2  0  0  0  0  0  0
  183.4610  173.1730  136.6300 C   0  0  2  0  0  0  0  0  0  0  0  0
  181.6540  174.2960  137.2870 C   0  0  2  0  0  3  0  0  0  0  0  0
  184.4650  172.5110  137.5450 C   0  0  0  0  0  2  0  0  0  0  0  0
  184.2000  173.3540  135.3130 C   0  0  2  0  0  3  0  0  0  0  0  0
  181.2390  172.9540  137.2290 O   0  0  0  0  0  0  0  0  0  0  0  0
  185.6500  173.5940  135.6900 C   0  0  0  0  0  2  0  0  0  0  0  0
  183.0540  174.3920  137.1750 O   0  0  0  0  0  0  0  0  0  0  0  0
  182.2340  172.3330  136.4780 C   0  0  0  0  0  2  0  0  0  0  0  0
  185.8300  173.0250  137.0940 C   0  0  0  0  0  2  0  0  0  0  0  0
  183.7010  174.4320  134.5820 O   0  0  0  0  0  1  0  0  0  0  0  0
  187.6890  178.9880  141.4830 C   0  0  0  0  0  2  0  0  0  0  0  0
  188.6840  177.9200  141.9050 C   0  0  1  0  0  3  0  0  0  0  0  0
  188.1260  177.1760  143.1110 C   0  0  0  0  0  2  0  0  0  0  0  0
  185.6550  177.5500  144.8240 O   0  0  0  0  0  0  0  0  0  0  0  0
  186.6760  178.2920  147.4860 N   0  0  0  0  0  1  0  0  0  0  0  0
  186.8250  177.6800  145.1590 C   0  0  0  0  0  0  0  0  0  0  0  0
  187.3380  177.4190  146.5310 C   0  0  1  0  0  3  0  0  0  0  0  0
  187.8990  178.1580  144.2580 C   0  0  1  0  0  3  0  0  0  0  0  0
  188.7390  177.7930  146.4210 N   0  0  0  0  0  0  0  0  0  0  0  0
  189.0500  178.1330  145.2060 C   0  0  0  0  0  0  0  0  0  0  0  0
  190.3380  178.6700  144.8570 N   0  0  0  0  0  0  0  0  0  0  0  0
  191.4720  178.0320  144.8640 C   0  0  0  0  0  3  0  0  0  0  0  0
  191.6080  176.5890  145.2300 C   0  0  0  0  0  2  0  0  0  0  0  0
  192.3400  174.6010  144.1340 O   0  0  0  0  0  1  0  0  0  0  0  0
  191.5100  175.7150  143.9940 C   0  0  2  0  0  3  0  0  0  0  0  0
  191.9340  176.5140  142.7900 C   0  0  0  0  0  1  0  0  0  0  0  0
  188.9200  176.9510  140.7650 C   0  0  0  0  0  2  0  0  0  0  0  0
  189.5980  177.6620  139.6090 C   0  0  0  0  0  2  0  0  0  0  0  0
  188.7680  177.4990  138.3550 C   0  0  0  0  0  2  0  0  0  0  0  0
  189.3500  178.3180  137.2110 C   0  0  0  0  0  2  0  0  0  0  0  0
  188.9520  177.7310  135.9400 N   0  0  0  0  0  2  0  0  0  0  0  0
  189.1890  176.3040  136.0480 C   0  0  0  0  0  2  0  0  0  0  0  0
  190.6790  176.0260  136.0340 C   0  0  0  0  0  2  0  0  0  0  0  0
  191.0180  174.4100  136.7050 S   0  0  0  0  0  0  0  0  0  0  0  0
  189.4870  173.5570  136.9980 C   0  0  0  0  0  1  0  0  0  0  0  0
  191.7550  174.5670  138.0050 O   0  0  0  0  0  0  0  0  0  0  0  0
  191.8610  173.6100  135.7530 O   0  0  0  0  0  0  0  0  0  0  0  0
  1 29  1  0  0  0  0
  2  1  1  6  0  0  0
  2  5  1  0  0  0  0
  4 10  1  6  0  0  0
  4  5  1  0  0  0  0
  6 12  1  6  0  0  0
  6  4  1  0  0  0  0
  7  3  1  6  0  0  0
  7  6  1  0  0  0  0
  7  2  1  0  0  0  0
  9 11  2  0  0  0  0
  9  8  1  0  0  0  0
 10  9  1  0  0  0  0
 12 16  1  6  0  0  0
 13 12  1  0  0  0  0
 13 15  1  0  0  0  0
 14 13  2  0  0  0  0
 16 17  1  0  0  0  0
 17 18  1  0  0  0  0
 19 26  1  6  0  0  0
 19 25  1  0  0  0  0
 19 21  1  0  0  0  0
 20 18  1  1  0  0  0
 22 28  1  1  0  0  0
 22 24  1  0  0  0  0
 22 19  1  0  0  0  0
 23 20  1  0  0  0  0
 24 27  1  0  0  0  0
 25 20  1  0  0  0  0
 26 23  1  0  0  0  0
 27 21  1  0  0  0  0
 29 30  1  0  0  0  0
 30 45  1  6  0  0  0
 30 31  1  0  0  0  0
 32 34  2  0  0  0  0
 34 35  1  0  0  0  0
 35 33  1  1  0  0  0
 36 31  1  6  0  0  0
 36 34  1  0  0  0  0
 36 38  1  0  0  0  0
 37 35  1  0  0  0  0
 38 37  2  0  0  0  0
 39 40  2  0  0  0  0
 39 38  1  0  0  0  0
 40 41  1  0  0  0  0
 43 44  1  6  0  0  0
 43 42  1  0  0  0  0
 43 41  1  0  0  0  0
 46 45  1  0  0  0  0
 47 46  1  0  0  0  0
 48 47  1  0  0  0  0
 49 50  1  0  0  0  0
 49 48  1  0  0  0  0
 51 50  1  0  0  0  0
 51 52  1  0  0  0  0
 52 53  1  0  0  0  0
 52 54  2  0  0  0  0
 55 52  2  0  0  0  0
M  END
>  <MODEL>
5

>  <REMARK>
 VINA RESULT:      -6.1      1.896      3.469
  Name = 
  23 active torsions:
  status: ('A' for Active; 'I' for Inactive)
    1  A    between atoms: C_1  and  C_23
    2  A    between atoms: C_1  and  C_47
    3  A    between atoms: C_2  and  C_29
    4  A    between atoms: S_5  and  C_31
    5  A    between atoms: C_7  and  C_20
    6  A    between atoms: C_8  and  N_45
    7  A    between atoms: N_9  and  C_26
    8  A    between atoms: N_9  and  C_47
    9  A    between atoms: N_12  and  C_49
   10  A    between atoms: C_15  and  C_16
   11  A    between atoms: C_15  and  C_23
   12  A    between atoms: C_16  and  C_40
   13  A    between atoms: C_16  and  C_55
   14  A    between atoms: C_19  and  C_43
   15  A    between atoms: C_20  and  O_38
   16  A    between atoms: C_20  and  C_46
   17  A    between atoms: C_21  and  O_38
   18  A    between atoms: C_21  and  N_45
   19  A    between atoms: C_25  and  C_40
   20  A    between atoms: C_26  and  C_31
   21  A    between atoms: C_29  and  C_55
   22  A    between atoms: C_30  and  N_42
   23  A    between atoms: C_41  and  C_43
                            x       y       z     vdW  Elec       q    Type
                         _______ _______ _______ _____ _____    ______ ____

>  <TORSDO>
F 23

$$$$
=
 OpenBabel10232408443D

 55 58  0  0  1  0  0  0  0  0999 V2000
  186.2970  178.7800  140.7590 C   0  0  0  0  0  2  0  0  0  0  0  0
  184.8270  179.1480  141.0300 C   0  0  2  0  0  3  0  0  0  0  0  0
  184.8640  180.1080  138.7940 O   0  0  0  0  0  1  0  0  0  0  0  0
  183.2030  177.3540  140.5160 C   0  0  2  0  0  3  0  0  0  0  0  0
  184.0630  177.9630  141.6250 C   0  0  0  0  0  2  0  0  0  0  0  0
  183.6580  178.0700  139.2490 C   0  0  2  0  0  3  0  0  0  0  0  0
  184.0810  179.4420  139.7380 C   0  0  1  0  0  3  0  0  0  0  0  0
  182.0500  178.8250  142.8910 O   0  0  0  0  0  1  0  0  0  0  0  0
  181.2300  178.2990  141.8910 C   0  0  0  0  0  0  0  0  0  0  0  0
  181.7830  177.6190  140.7600 N   0  0  0  0  0  2  0  0  0  0  0  0
  179.9840  178.4540  141.9710 O   0  0  0  0  0  0  0  0  0  0  0  0
  182.6130  178.0470  138.1060 C   0  0  1  0  0  3  0  0  0  0  0  0
  181.5420  179.1010  138.1080 C   0  0  0  0  0  0  0  0  0  0  0  0
  180.2810  178.8010  138.6020 O   0  0  0  0  0  1  0  0  0  0  0  0
  181.7810  180.2610  137.6770 O   0  0  0  0  0  0  0  0  0  0  0  0
  183.1490  177.7820  136.8270 O   0  0  0  0  0  0  0  0  0  0  0  0
  183.8690  176.5790  136.8830 C   0  0  0  0  0  2  0  0  0  0  0  0
  183.5910  175.7910  135.6940 N   0  0  0  0  0  2  0  0  0  0  0  0
  185.3430  172.9780  136.4720 C   0  0  2  0  0  0  0  0  0  0  0  0
  183.6690  174.3930  136.0800 C   0  0  2  0  0  3  0  0  0  0  0  0
  186.7780  173.3690  136.7380 C   0  0  0  0  0  2  0  0  0  0  0  0
  185.4150  171.5270  136.0230 C   0  0  2  0  0  3  0  0  0  0  0  0
  183.7280  174.2890  137.4800 O   0  0  0  0  0  0  0  0  0  0  0  0
  186.7320  171.3950  135.2820 C   0  0  0  0  0  2  0  0  0  0  0  0
  184.8020  173.8060  135.4860 O   0  0  0  0  0  0  0  0  0  0  0  0
  184.5010  173.1500  137.6950 C   0  0  0  0  0  2  0  0  0  0  0  0
  187.6140  172.5430  135.7640 C   0  0  0  0  0  2  0  0  0  0  0  0
  184.3490  171.1880  135.1890 O   0  0  0  0  0  1  0  0  0  0  0  0
  187.0400  178.3000  142.0040 C   0  0  0  0  0  2  0  0  0  0  0  0
  188.5190  178.0720  141.7430 C   0  0  1  0  0  3  0  0  0  0  0  0
  188.9120  176.7070  142.2930 C   0  0  0  0  0  2  0  0  0  0  0  0
  191.7130  177.8030  141.9320 O   0  0  0  0  0  0  0  0  0  0  0  0
  192.3280  179.1760  144.4660 N   0  0  0  0  0  1  0  0  0  0  0  0
  190.9900  177.9040  142.9150 C   0  0  0  0  0  0  0  0  0  0  0  0
  191.0140  179.0540  143.8590 C   0  0  1  0  0  3  0  0  0  0  0  0
  190.0130  176.8730  143.3370 C   0  0  1  0  0  3  0  0  0  0  0  0
  190.0470  178.6540  144.8680 N   0  0  0  0  0  0  0  0  0  0  0  0
  189.4770  177.5260  144.5670 C   0  0  0  0  0  0  0  0  0  0  0  0
  188.5810  176.8450  145.4620 N   0  0  0  0  0  0  0  0  0  0  0  0
  187.3250  177.1200  145.6590 C   0  0  0  0  0  3  0  0  0  0  0  0
  186.5930  178.2110  144.9440 C   0  0  0  0  0  2  0  0  0  0  0  0
  185.2280  178.0350  146.8910 O   0  0  0  0  0  1  0  0  0  0  0  0
  185.6350  178.9150  145.8870 C   0  0  2  0  0  3  0  0  0  0  0  0
  184.4340  179.3860  145.1090 C   0  0  0  0  0  1  0  0  0  0  0  0
  188.7990  178.1310  140.2560 C   0  0  0  0  0  2  0  0  0  0  0  0
  189.1910  176.7580  139.7440 C   0  0  0  0  0  2  0  0  0  0  0  0
  189.6540  176.8630  138.3080 C   0  0  0  0  0  2  0  0  0  0  0  0
  189.5040  175.5280  137.5920 C   0  0  0  0  0  2  0  0  0  0  0  0
  190.7040  174.7290  137.7950 N   0  0  0  0  0  2  0  0  0  0  0  0
  191.8110  175.4960  137.2570 C   0  0  0  0  0  2  0  0  0  0  0  0
  192.8750  174.5600  136.7190 C   0  0  0  0  0  2  0  0  0  0  0  0
  194.4900  175.2980  136.8680 S   0  0  0  0  0  0  0  0  0  0  0  0
  195.6090  174.5120  135.7350 C   0  0  0  0  0  1  0  0  0  0  0  0
  194.9870  175.1030  138.2730 O   0  0  0  0  0  0  0  0  0  0  0  0
  194.4260  176.7690  136.5670 O   0  0  0  0  0  0  0  0  0  0  0  0
  1 29  1  0  0  0  0
  2  1  1  6  0  0  0
  2  5  1  0  0  0  0
  4 10  1  1  0  0  0
  4  5  1  0  0  0  0
  6 12  1  6  0  0  0
  6  7  1  0  0  0  0
  6  4  1  0  0  0  0
  7  3  1  6  0  0  0
  7  2  1  0  0  0  0
  9 11  2  0  0  0  0
  9  8  1  0  0  0  0
 10  9  1  0  0  0  0
 12 16  1  6  0  0  0
 12 13  1  0  0  0  0
 13 14  1  0  0  0  0
 15 13  2  0  0  0  0
 16 17  1  0  0  0  0
 18 17  1  0  0  0  0
 19 21  1  1  0  0  0
 19 26  1  0  0  0  0
 20 18  1  1  0  0  0
 20 23  1  0  0  0  0
 22 28  1  6  0  0  0
 22 19  1  0  0  0  0
 23 26  1  0  0  0  0
 24 27  1  0  0  0  0
 24 22  1  0  0  0  0
 25 20  1  0  0  0  0
 25 19  1  0  0  0  0
 27 21  1  0  0  0  0
 30 45  1  6  0  0  0
 30 29  1  0  0  0  0
 30 31  1  0  0  0  0
 32 34  2  0  0  0  0
 34 36  1  0  0  0  0
 34 35  1  0  0  0  0
 35 33  1  1  0  0  0
 35 37  1  0  0  0  0
 36 31  1  6  0  0  0
 36 38  1  0  0  0  0
 38 37  2  0  0  0  0
 38 39  1  0  0  0  0
 39 40  2  0  0  0  0
 41 40  1  0  0  0  0
 41 43  1  0  0  0  0
 43 44  1  6  0  0  0
 43 42  1  0  0  0  0
 46 45  1  0  0  0  0
 47 46  1  0  0  0  0
 48 49  1  0  0  0  0
 48 47  1  0  0  0  0
 50 49  1  0  0  0  0
 51 52  1  0  0  0  0
 51 50  1  0  0  0  0
 52 54  2  0  0  0  0
 53 52  1  0  0  0  0
 55 52  2  0  0  0  0
M  END
>  <MODEL>
6

>  <REMARK>
 VINA RESULT:      -5.7      2.694      3.371
  Name = 
  23 active torsions:
  status: ('A' for Active; 'I' for Inactive)
    1  A    between atoms: C_1  and  C_23
    2  A    between atoms: C_1  and  C_47
    3  A    between atoms: C_2  and  C_29
    4  A    between atoms: S_5  and  C_31
    5  A    between atoms: C_7  and  C_20
    6  A    between atoms: C_8  and  N_45
    7  A    between atoms: N_9  and  C_26
    8  A    between atoms: N_9  and  C_47
    9  A    between atoms: N_12  and  C_49
   10  A    between atoms: C_15  and  C_16
   11  A    between atoms: C_15  and  C_23
   12  A    between atoms: C_16  and  C_40
   13  A    between atoms: C_16  and  C_55
   14  A    between atoms: C_19  and  C_43
   15  A    between atoms: C_20  and  O_38
   16  A    between atoms: C_20  and  C_46
   17  A    between atoms: C_21  and  O_38
   18  A    between atoms: C_21  and  N_45
   19  A    between atoms: C_25  and  C_40
   20  A    between atoms: C_26  and  C_31
   21  A    between atoms: C_29  and  C_55
   22  A    between atoms: C_30  and  N_42
   23  A    between atoms: C_41  and  C_43
                            x       y       z     vdW  Elec       q    Type
                         _______ _______ _______ _____ _____    ______ ____

>  <TORSDO>
F 23

$$$$
=
 OpenBabel10232408443D

 55 58  0  0  1  0  0  0  0  0999 V2000
  190.0430  176.4240  138.4450 C   0  0  0  0  0  2  0  0  0  0  0  0
  190.1610  177.6990  139.2990 C   0  0  2  0  0  3  0  0  0  0  0  0
  187.7650  177.9240  138.9370 O   0  0  0  0  0  1  0  0  0  0  0  0
  190.0210  177.3210  141.7410 C   0  0  2  0  0  3  0  0  0  0  0  0
  190.9880  177.4420  140.5610 C   0  0  0  0  0  2  0  0  0  0  0  0
  188.6400  177.2950  141.0950 C   0  0  2  0  0  3  0  0  0  0  0  0
  188.8080  178.1320  139.8410 C   0  0  1  0  0  3  0  0  0  0  0  0
  191.9670  177.6210  144.0330 O   0  0  0  0  0  0  0  0  0  0  0  0
  191.0470  178.6230  143.7230 C   0  0  0  0  0  0  0  0  0  0  0  0
  190.1400  178.4830  142.6250 N   0  0  0  0  0  2  0  0  0  0  0  0
  191.0370  179.6830  144.4020 O   0  0  0  0  0  1  0  0  0  0  0  0
  187.4940  177.7190  142.0480 C   0  0  1  0  0  3  0  0  0  0  0  0
  187.5120  177.1870  143.4520 C   0  0  0  0  0  0  0  0  0  0  0  0
  187.4400  178.0670  144.5230 O   0  0  0  0  0  1  0  0  0  0  0  0
  187.5770  175.9470  143.6700 O   0  0  0  0  0  0  0  0  0  0  0  0
  187.1330  179.0810  141.9590 O   0  0  0  0  0  0  0  0  0  0  0  0
  185.7490  179.1640  141.7430 C   0  0  0  0  0  2  0  0  0  0  0  0
  185.4920  179.3970  140.3320 N   0  0  0  0  0  2  0  0  0  0  0  0
  183.2320  177.6430  138.4880 C   0  0  2  0  0  0  0  0  0  0  0  0
  184.1440  178.9290  140.0600 C   0  0  2  0  0  3  0  0  0  0  0  0
  183.9870  176.7120  137.5680 C   0  0  0  0  0  2  0  0  0  0  0  0
  181.9070  177.8900  137.7830 C   0  0  2  0  0  3  0  0  0  0  0  0
  183.9350  177.6900  140.6890 O   0  0  0  0  0  0  0  0  0  0  0  0
  182.2200  177.8470  136.2990 C   0  0  0  0  0  2  0  0  0  0  0  0
  183.9580  178.8220  138.6690 O   0  0  0  0  0  0  0  0  0  0  0  0
  183.0480  177.0330  139.8400 C   0  0  0  0  0  2  0  0  0  0  0  0
  183.5230  177.0650  136.1570 C   0  0  0  0  0  2  0  0  0  0  0  0
  181.3570  179.1250  138.1300 O   0  0  0  0  0  1  0  0  0  0  0  0
  190.9150  176.4520  137.1930 C   0  0  0  0  0  2  0  0  0  0  0  0
  190.0930  176.5160  135.9160 C   0  0  1  0  0  3  0  0  0  0  0  0
  190.7670  175.6590  134.8520 C   0  0  0  0  0  2  0  0  0  0  0  0
  189.8700  172.8370  135.4910 O   0  0  0  0  0  0  0  0  0  0  0  0
  192.2850  171.1780  135.1730 N   0  0  0  0  0  1  0  0  0  0  0  0
  190.9910  173.2120  135.1720 C   0  0  0  0  0  0  0  0  0  0  0  0
  191.9720  172.3820  134.4220 C   0  0  1  0  0  3  0  0  0  0  0  0
  191.5550  174.5370  135.5230 C   0  0  1  0  0  3  0  0  0  0  0  0
  193.1420  173.2420  134.3730 N   0  0  0  0  0  0  0  0  0  0  0  0
  192.9070  174.4030  134.9080 C   0  0  0  0  0  0  0  0  0  0  0  0
  193.9360  175.3890  135.1050 N   0  0  0  0  0  0  0  0  0  0  0  0
  194.6360  175.5740  136.1860 C   0  0  0  0  0  3  0  0  0  0  0  0
  194.4840  174.7480  137.4230 C   0  0  0  0  0  2  0  0  0  0  0  0
  195.5600  173.0740  138.7380 O   0  0  0  0  0  1  0  0  0  0  0  0
  195.5450  173.6650  137.4730 C   0  0  2  0  0  3  0  0  0  0  0  0
  196.8910  174.2790  137.1860 C   0  0  0  0  0  1  0  0  0  0  0  0
  188.6900  176.0100  136.1760 C   0  0  0  0  0  2  0  0  0  0  0  0
  187.7230  176.6140  135.1750 C   0  0  0  0  0  2  0  0  0  0  0  0
  186.9430  175.5120  134.4930 C   0  0  0  0  0  2  0  0  0  0  0  0
  186.1990  174.6640  135.5130 C   0  0  0  0  0  2  0  0  0  0  0  0
  186.3520  173.2550  135.1820 N   0  0  0  0  0  2  0  0  0  0  0  0
  185.1710  172.8720  134.4330 C   0  0  0  0  0  2  0  0  0  0  0  0
  183.9230  173.2970  135.1820 C   0  0  0  0  0  2  0  0  0  0  0  0
  183.0820  171.8750  135.8500 S   0  0  0  0  0  0  0  0  0  0  0  0
  184.1040  170.4350  135.6530 C   0  0  0  0  0  1  0  0  0  0  0  0
  181.7940  171.6750  135.1030 O   0  0  0  0  0  0  0  0  0  0  0  0
  182.7810  172.0790  137.3080 O   0  0  0  0  0  0  0  0  0  0  0  0
  2  1  1  1  0  0  0
  2  7  1  0  0  0  0
  2  5  1  0  0  0  0
  4 10  1  1  0  0  0
  5  4  1  0  0  0  0
  6  4  1  0  0  0  0
  6 12  1  1  0  0  0
  7  3  1  6  0  0  0
  7  6  1  0  0  0  0
  9  8  2  0  0  0  0
  9 11  1  0  0  0  0
 10  9  1  0  0  0  0
 12 16  1  1  0  0  0
 12 13  1  0  0  0  0
 13 15  2  0  0  0  0
 13 14  1  0  0  0  0
 17 16  1  0  0  0  0
 18 17  1  0  0  0  0
 19 21  1  6  0  0  0
 19 25  1  0  0  0  0
 19 26  1  0  0  0  0
 20 18  1  6  0  0  0
 20 23  1  0  0  0  0
 22 28  1  1  0  0  0
 22 19  1  0  0  0  0
 24 22  1  0  0  0  0
 25 20  1  0  0  0  0
 26 23  1  0  0  0  0
 27 24  1  0  0  0  0
 27 21  1  0  0  0  0
 29  1  1  0  0  0  0
 30 31  1  6  0  0  0
 30 45  1  0  0  0  0
 30 29  1  0  0  0  0
 34 32  2  0  0  0  0
 34 36  1  0  0  0  0
 35 34  1  0  0  0  0
 35 33  1  1  0  0  0
 36 31  1  6  0  0  0
 37 35  1  0  0  0  0
 37 38  2  0  0  0  0
 38 39  1  0  0  0  0
 38 36  1  0  0  0  0
 39 40  2  0  0  0  0
 40 41  1  0  0  0  0
 41 43  1  0  0  0  0
 43 44  1  1  0  0  0
 43 42  1  0  0  0  0
 46 45  1  0  0  0  0
 47 46  1  0  0  0  0
 47 48  1  0  0  0  0
 49 48  1  0  0  0  0
 50 51  1  0  0  0  0
 50 49  1  0  0  0  0
 51 52  1  0  0  0  0
 52 55  2  0  0  0  0
 53 52  1  0  0  0  0
 54 52  2  0  0  0  0
M  END
>  <MODEL>
7

>  <REMARK>
 VINA RESULT:      -5.5      4.063      8.930
  Name = 
  23 active torsions:
  status: ('A' for Active; 'I' for Inactive)
    1  A    between atoms: C_1  and  C_23
    2  A    between atoms: C_1  and  C_47
    3  A    between atoms: C_2  and  C_29
    4  A    between atoms: S_5  and  C_31
    5  A    between atoms: C_7  and  C_20
    6  A    between atoms: C_8  and  N_45
    7  A    between atoms: N_9  and  C_26
    8  A    between atoms: N_9  and  C_47
    9  A    between atoms: N_12  and  C_49
   10  A    between atoms: C_15  and  C_16
   11  A    between atoms: C_15  and  C_23
   12  A    between atoms: C_16  and  C_40
   13  A    between atoms: C_16  and  C_55
   14  A    between atoms: C_19  and  C_43
   15  A    between atoms: C_20  and  O_38
   16  A    between atoms: C_20  and  C_46
   17  A    between atoms: C_21  and  O_38
   18  A    between atoms: C_21  and  N_45
   19  A    between atoms: C_25  and  C_40
   20  A    between atoms: C_26  and  C_31
   21  A    between atoms: C_29  and  C_55
   22  A    between atoms: C_30  and  N_42
   23  A    between atoms: C_41  and  C_43
                            x       y       z     vdW  Elec       q    Type
                         _______ _______ _______ _____ _____    ______ ____

>  <TORSDO>
F 23

$$$$
=
 OpenBabel10232408443D

 55 58  0  0  1  0  0  0  0  0999 V2000
  186.2800  177.7600  142.9780 C   0  0  0  0  0  2  0  0  0  0  0  0
  185.3350  178.9370  142.6800 C   0  0  2  0  0  3  0  0  0  0  0  0
  185.7510  178.4180  140.3390 O   0  0  0  0  0  1  0  0  0  0  0  0
  182.9310  178.3500  142.6540 C   0  0  2  0  0  3  0  0  0  0  0  0
  184.0710  178.8600  143.5390 C   0  0  0  0  0  2  0  0  0  0  0  0
  183.6180  177.9360  141.3570 C   0  0  2  0  0  3  0  0  0  0  0  0
  184.8040  178.8760  141.2560 C   0  0  1  0  0  3  0  0  0  0  0  0
  180.3190  178.7840  144.1100 O   0  0  0  0  0  1  0  0  0  0  0  0
  180.7180  179.6180  143.0660 C   0  0  0  0  0  0  0  0  0  0  0  0
  181.9640  179.4190  142.3920 N   0  0  0  0  0  2  0  0  0  0  0  0
  179.9820  180.5830  142.7320 O   0  0  0  0  0  0  0  0  0  0  0  0
  182.6720  177.9010  140.1300 C   0  0  1  0  0  3  0  0  0  0  0  0
  181.3990  177.1110  140.2430 C   0  0  0  0  0  0  0  0  0  0  0  0
  180.2160  177.7550  140.5740 O   0  0  0  0  0  1  0  0  0  0  0  0
  181.3920  175.8690  140.0280 O   0  0  0  0  0  0  0  0  0  0  0  0
  182.5150  179.1430  139.4760 O   0  0  0  0  0  0  0  0  0  0  0  0
  182.5500  178.9260  138.0900 C   0  0  0  0  0  2  0  0  0  0  0  0
  183.9240  178.7180  137.6670 N   0  0  0  0  0  2  0  0  0  0  0  0
  182.8970  176.0880  135.7650 C   0  0  2  0  0  0  0  0  0  0  0  0
  184.0280  177.3400  137.2170 C   0  0  2  0  0  3  0  0  0  0  0  0
  181.9730  176.6100  134.6890 C   0  0  0  0  0  2  0  0  0  0  0  0
  182.4780  174.6390  135.9630 C   0  0  2  0  0  3  0  0  0  0  0  0
  184.8570  177.2710  136.0850 O   0  0  0  0  0  0  0  0  0  0  0  0
  180.9840  174.6090  135.7070 C   0  0  0  0  0  2  0  0  0  0  0  0
  182.7430  176.8430  136.9290 O   0  0  0  0  0  0  0  0  0  0  0  0
  184.3290  176.2110  135.3520 C   0  0  0  0  0  2  0  0  0  0  0  0
  180.6660  175.8410  134.8640 C   0  0  0  0  0  2  0  0  0  0  0  0
  182.7620  174.1900  137.2530 O   0  0  0  0  0  1  0  0  0  0  0  0
  187.6150  178.1920  143.5790 C   0  0  0  0  0  2  0  0  0  0  0  0
  188.6680  178.4600  142.5160 C   0  0  1  0  0  3  0  0  0  0  0  0
  190.0490  178.2810  143.1340 C   0  0  0  0  0  2  0  0  0  0  0  0
  190.4600  175.3990  142.2970 O   0  0  0  0  0  0  0  0  0  0  0  0
  191.8870  174.1460  144.5500 N   0  0  0  0  0  1  0  0  0  0  0  0
  190.8070  175.9320  143.3440 C   0  0  0  0  0  0  0  0  0  0  0  0
  192.0040  175.5320  144.1310 C   0  0  1  0  0  3  0  0  0  0  0  0
  190.0610  177.0270  144.0050 C   0  0  1  0  0  3  0  0  0  0  0  0
  191.9210  176.4000  145.2940 N   0  0  0  0  0  0  0  0  0  0  0  0
  190.9240  177.2280  145.2050 C   0  0  0  0  0  0  0  0  0  0  0  0
  190.5430  178.1030  146.2810 N   0  0  0  0  0  0  0  0  0  0  0  0
  189.4870  177.9940  147.0330 C   0  0  0  0  0  3  0  0  0  0  0  0
  188.4850  176.8920  146.8980 C   0  0  0  0  0  2  0  0  0  0  0  0
  186.2040  177.3090  146.3430 O   0  0  0  0  0  1  0  0  0  0  0  0
  187.1250  177.3470  147.3910 C   0  0  2  0  0  3  0  0  0  0  0  0
  187.2360  178.7550  147.9160 C   0  0  0  0  0  1  0  0  0  0  0  0
  188.4920  177.5010  141.3580 C   0  0  0  0  0  2  0  0  0  0  0  0
  189.5020  177.8070  140.2680 C   0  0  0  0  0  2  0  0  0  0  0  0
  188.8880  178.7490  139.2560 C   0  0  0  0  0  2  0  0  0  0  0  0
  188.8660  178.1150  137.8720 C   0  0  0  0  0  2  0  0  0  0  0  0
  188.1990  176.8230  137.9390 N   0  0  0  0  0  2  0  0  0  0  0  0
  188.4130  176.1780  136.6570 C   0  0  0  0  0  2  0  0  0  0  0  0
  189.8960  176.1270  136.3450 C   0  0  0  0  0  2  0  0  0  0  0  0
  190.6880  174.8430  137.2930 S   0  0  0  0  0  0  0  0  0  0  0  0
  192.2200  174.3910  136.5150 C   0  0  0  0  0  1  0  0  0  0  0  0
  189.7840  173.6440  137.3430 O   0  0  0  0  0  0  0  0  0  0  0  0
  190.9600  175.3140  138.6940 O   0  0  0  0  0  0  0  0  0  0  0  0
  1 29  1  0  0  0  0
  2  1  1  1  0  0  0
  2  5  1  0  0  0  0
  4 10  1  6  0  0  0
  4  5  1  0  0  0  0
  6 12  1  6  0  0  0
  6  4  1  0  0  0  0
  7  3  1  6  0  0  0
  7  6  1  0  0  0  0
  7  2  1  0  0  0  0
  9  8  1  0  0  0  0
 10  9  1  0  0  0  0
 11  9  2  0  0  0  0
 12 16  1  1  0  0  0
 12 13  1  0  0  0  0
 13 14  1  0  0  0  0
 15 13  2  0  0  0  0
 17 16  1  0  0  0  0
 18 17  1  0  0  0  0
 19 21  1  6  0  0  0
 19 22  1  0  0  0  0
 19 25  1  0  0  0  0
 20 18  1  6  0  0  0
 21 27  1  0  0  0  0
 22 28  1  1  0  0  0
 23 20  1  0  0  0  0
 24 22  1  0  0  0  0
 25 20  1  0  0  0  0
 26 19  1  0  0  0  0
 26 23  1  0  0  0  0
 27 24  1  0  0  0  0
 30 45  1  6  0  0  0
 30 31  1  0  0  0  0
 30 29  1  0  0  0  0
 32 34  2  0  0  0  0
 34 36  1  0  0  0  0
 34 35  1  0  0  0  0
 35 33  1  1  0  0  0
 35 37  1  0  0  0  0
 36 31  1  6  0  0  0
 36 38  1  0  0  0  0
 38 37  2  0  0  0  0
 38 39  1  0  0  0  0
 39 40  2  0  0  0  0
 41 40  1  0  0  0  0
 41 43  1  0  0  0  0
 42 43  1  0  0  0  0
 43 44  1  6  0  0  0
 46 45  1  0  0  0  0
 47 46  1  0  0  0  0
 48 49  1  0  0  0  0
 48 47  1  0  0  0  0
 50 49  1  0  0  0  0
 51 50  1  0  0  0  0
 51 52  1  0  0  0  0
 52 54  2  0  0  0  0
 52 55  2  0  0  0  0
 53 52  1  0  0  0  0
M  END
>  <MODEL>
8

>  <REMARK>
 VINA RESULT:      -5.3      1.920      2.701
  Name = 
  23 active torsions:
  status: ('A' for Active; 'I' for Inactive)
    1  A    between atoms: C_1  and  C_23
    2  A    between atoms: C_1  and  C_47
    3  A    between atoms: C_2  and  C_29
    4  A    between atoms: S_5  and  C_31
    5  A    between atoms: C_7  and  C_20
    6  A    between atoms: C_8  and  N_45
    7  A    between atoms: N_9  and  C_26
    8  A    between atoms: N_9  and  C_47
    9  A    between atoms: N_12  and  C_49
   10  A    between atoms: C_15  and  C_16
   11  A    between atoms: C_15  and  C_23
   12  A    between atoms: C_16  and  C_40
   13  A    between atoms: C_16  and  C_55
   14  A    between atoms: C_19  and  C_43
   15  A    between atoms: C_20  and  O_38
   16  A    between atoms: C_20  and  C_46
   17  A    between atoms: C_21  and  O_38
   18  A    between atoms: C_21  and  N_45
   19  A    between atoms: C_25  and  C_40
   20  A    between atoms: C_26  and  C_31
   21  A    between atoms: C_29  and  C_55
   22  A    between atoms: C_30  and  N_42
   23  A    between atoms: C_41  and  C_43
                            x       y       z     vdW  Elec       q    Type
                         _______ _______ _______ _____ _____    ______ ____

>  <TORSDO>
F 23

$$$$
=
 OpenBabel10232408443D

 55 58  0  0  1  0  0  0  0  0999 V2000
  189.3990  177.2300  139.7220 C   0  0  0  0  0  2  0  0  0  0  0  0
  190.0280  177.6900  141.0490 C   0  0  2  0  0  3  0  0  0  0  0  0
  187.8810  178.7590  141.4640 O   0  0  0  0  0  1  0  0  0  0  0  0
  189.8620  176.0500  142.8940 C   0  0  2  0  0  3  0  0  0  0  0  0
  190.7500  176.5360  141.7470 C   0  0  0  0  0  2  0  0  0  0  0  0
  188.5460  176.7950  142.6940 C   0  0  2  0  0  3  0  0  0  0  0  0
  188.9640  178.1050  142.0530 C   0  0  1  0  0  3  0  0  0  0  0  0
  192.2740  174.7530  144.1710 O   0  0  0  0  0  0  0  0  0  0  0  0
  191.5800  175.7840  144.8050 C   0  0  0  0  0  0  0  0  0  0  0  0
  190.4490  176.4060  144.1880 N   0  0  0  0  0  2  0  0  0  0  0  0
  191.9760  176.1950  145.9270 O   0  0  0  0  0  1  0  0  0  0  0  0
  187.6880  176.9080  143.9790 C   0  0  1  0  0  3  0  0  0  0  0  0
  188.2080  177.7620  145.1000 C   0  0  0  0  0  0  0  0  0  0  0  0
  187.7530  177.5500  146.3940 O   0  0  0  0  0  1  0  0  0  0  0  0
  189.0630  178.6610  144.8820 O   0  0  0  0  0  0  0  0  0  0  0  0
  186.3030  177.0520  143.7470 O   0  0  0  0  0  0  0  0  0  0  0  0
  185.9530  178.3960  143.9490 C   0  0  0  0  0  2  0  0  0  0  0  0
  184.5550  178.5900  143.6030 N   0  0  0  0  0  2  0  0  0  0  0  0
  182.7740  178.4360  140.7070 C   0  0  2  0  0  0  0  0  0  0  0  0
  184.4050  178.2180  142.2070 C   0  0  2  0  0  3  0  0  0  0  0  0
  181.5940  179.3740  140.8230 C   0  0  0  0  0  2  0  0  0  0  0  0
  182.3330  177.3840  139.7010 C   0  0  2  0  0  3  0  0  0  0  0  0
  184.8150  179.2810  141.3850 O   0  0  0  0  0  0  0  0  0  0  0  0
  180.8370  177.2290  139.9040 C   0  0  0  0  0  2  0  0  0  0  0  0
  183.0620  177.8810  141.9560 O   0  0  0  0  0  0  0  0  0  0  0  0
  184.0010  179.1650  140.2620 C   0  0  0  0  0  2  0  0  0  0  0  0
  180.3600  178.5090  140.5820 C   0  0  0  0  0  2  0  0  0  0  0  0
  182.9820  176.1670  139.9060 O   0  0  0  0  0  1  0  0  0  0  0  0
  190.3820  177.2350  138.5540 C   0  0  0  0  0  2  0  0  0  0  0  0
  189.7360  177.6920  137.2560 C   0  0  1  0  0  3  0  0  0  0  0  0
  190.2970  176.8620  136.1080 C   0  0  0  0  0  2  0  0  0  0  0  0
  188.3310  174.6880  135.3420 O   0  0  0  0  0  0  0  0  0  0  0  0
  189.9500  172.2360  135.1280 N   0  0  0  0  0  1  0  0  0  0  0  0
  189.5360  174.5770  135.5260 C   0  0  0  0  0  0  0  0  0  0  0  0
  190.4020  173.5850  134.8340 C   0  0  1  0  0  3  0  0  0  0  0  0
  190.3060  175.3870  136.4990 C   0  0  1  0  0  3  0  0  0  0  0  0
  191.6970  173.8090  135.4540 N   0  0  0  0  0  0  0  0  0  0  0  0
  191.6610  174.7970  136.2970 C   0  0  0  0  0  0  0  0  0  0  0  0
  192.7750  175.1390  137.1400 N   0  0  0  0  0  0  0  0  0  0  0  0
  193.7920  175.8840  136.8170 C   0  0  0  0  0  3  0  0  0  0  0  0
  193.9520  176.5340  135.4790 C   0  0  0  0  0  2  0  0  0  0  0  0
  196.2070  176.1520  136.1530 O   0  0  0  0  0  1  0  0  0  0  0  0
  195.4180  176.6080  135.0960 C   0  0  2  0  0  3  0  0  0  0  0  0
  195.7740  178.0360  134.7770 C   0  0  0  0  0  1  0  0  0  0  0  0
  188.2340  177.5160  137.3340 C   0  0  0  0  0  2  0  0  0  0  0  0
  187.5490  178.4340  136.3400 C   0  0  0  0  0  2  0  0  0  0  0  0
  186.5160  177.6550  135.5560 C   0  0  0  0  0  2  0  0  0  0  0  0
  185.5900  176.8920  136.4910 C   0  0  0  0  0  2  0  0  0  0  0  0
  184.4150  176.4460  135.7560 N   0  0  0  0  0  2  0  0  0  0  0  0
  184.6970  175.0990  135.2970 C   0  0  0  0  0  2  0  0  0  0  0  0
  183.4100  174.3020  135.2110 C   0  0  0  0  0  2  0  0  0  0  0  0
  183.2530  173.2190  136.6170 S   0  0  0  0  0  0  0  0  0  0  0  0
  184.6220  173.4770  137.7200 C   0  0  0  0  0  1  0  0  0  0  0  0
  183.2630  171.7950  136.1390 O   0  0  0  0  0  0  0  0  0  0  0  0
  181.9670  173.4860  137.3470 O   0  0  0  0  0  0  0  0  0  0  0  0
  2  1  1  6  0  0  0
  2  5  1  0  0  0  0
  2  7  1  0  0  0  0
  4 10  1  1  0  0  0
  5  4  1  0  0  0  0
  6  4  1  0  0  0  0
  6 12  1  1  0  0  0
  7  3  1  6  0  0  0
  7  6  1  0  0  0  0
  8  9  2  0  0  0  0
  9 11  1  0  0  0  0
 10  9  1  0  0  0  0
 12 16  1  6  0  0  0
 12 13  1  0  0  0  0
 13 14  1  0  0  0  0
 15 13  2  0  0  0  0
 16 17  1  0  0  0  0
 18 17  1  0  0  0  0
 19 26  1  6  0  0  0
 19 21  1  0  0  0  0
 19 25  1  0  0  0  0
 20 18  1  1  0  0  0
 22 24  1  0  0  0  0
 22 28  1  1  0  0  0
 22 19  1  0  0  0  0
 23 20  1  0  0  0  0
 24 27  1  0  0  0  0
 25 20  1  0  0  0  0
 26 23  1  0  0  0  0
 27 21  1  0  0  0  0
 29  1  1  0  0  0  0
 30 31  1  6  0  0  0
 30 45  1  0  0  0  0
 30 29  1  0  0  0  0
 32 34  2  0  0  0  0
 34 36  1  0  0  0  0
 35 33  1  1  0  0  0
 35 37  1  0  0  0  0
 35 34  1  0  0  0  0
 36 31  1  6  0  0  0
 37 38  2  0  0  0  0
 38 36  1  0  0  0  0
 38 39  1  0  0  0  0
 40 39  2  0  0  0  0
 41 40  1  0  0  0  0
 43 44  1  1  0  0  0
 43 41  1  0  0  0  0
 43 42  1  0  0  0  0
 46 45  1  0  0  0  0
 47 46  1  0  0  0  0
 47 48  1  0  0  0  0
 49 48  1  0  0  0  0
 50 49  1  0  0  0  0
 51 50  1  0  0  0  0
 51 52  1  0  0  0  0
 52 55  2  0  0  0  0
 52 53  1  0  0  0  0
 54 52  2  0  0  0  0
M  END
>  <MODEL>
9

>  <REMARK>
 VINA RESULT:      -5.3      3.386      8.957
  Name = 
  23 active torsions:
  status: ('A' for Active; 'I' for Inactive)
    1  A    between atoms: C_1  and  C_23
    2  A    between atoms: C_1  and  C_47
    3  A    between atoms: C_2  and  C_29
    4  A    between atoms: S_5  and  C_31
    5  A    between atoms: C_7  and  C_20
    6  A    between atoms: C_8  and  N_45
    7  A    between atoms: N_9  and  C_26
    8  A    between atoms: N_9  and  C_47
    9  A    between atoms: N_12  and  C_49
   10  A    between atoms: C_15  and  C_16
   11  A    between atoms: C_15  and  C_23
   12  A    between atoms: C_16  and  C_40
   13  A    between atoms: C_16  and  C_55
   14  A    between atoms: C_19  and  C_43
   15  A    between atoms: C_20  and  O_38
   16  A    between atoms: C_20  and  C_46
   17  A    between atoms: C_21  and  O_38
   18  A    between atoms: C_21  and  N_45
   19  A    between atoms: C_25  and  C_40
   20  A    between atoms: C_26  and  C_31
   21  A    between atoms: C_29  and  C_55
   22  A    between atoms: C_30  and  N_42
   23  A    between atoms: C_41  and  C_43
                            x       y       z     vdW  Elec       q    Type
                         _______ _______ _______ _____ _____    ______ ____

>  <TORSDO>
F 23

$$$$
