=
 OpenBabel10222421403D

 47 53  0  0  1  0  0  0  0  0999 V2000
  188.1630  178.2280  142.0800 F   0  0  0  0  0  0  0  0  0  0  0  0
  188.3310  176.6710  137.9720 C   0  0  1  0  0  3  0  0  0  0  0  0
  189.4460  177.6580  140.1410 C   0  0  0  0  0  0  0  0  0  0  0  0
  190.8470  176.8500  138.1220 C   0  0  1  0  0  3  0  0  0  0  0  0
  191.8110  177.1620  140.4040 C   0  0  0  0  0  3  0  0  0  0  0  0
  189.6140  177.0300  137.2330 C   0  0  0  0  0  2  0  0  0  0  0  0
  188.0010  178.0200  139.1300 S   0  0  0  0  0  0  0  0  0  0  0  0
  189.3490  177.8540  141.5300 C   0  0  0  0  0  0  0  0  0  0  0  0
  190.6860  177.2680  139.5730 C   0  0  0  0  0  0  0  0  0  0  0  0
  190.4810  177.7150  142.3440 C   0  0  0  0  0  0  0  0  0  0  0  0
  191.7120  177.3920  141.7760 C   0  0  0  0  0  3  0  0  0  0  0  0
  186.2840  175.4930  135.0350 N   0  0  0  0  0  0  0  0  0  0  0  0
  183.4630  177.2680  136.4180 C   0  0  0  0  0  2  0  0  0  0  0  0
  182.9890  176.6180  135.1360 C   0  0  0  0  0  3  0  0  0  0  0  0
  187.1680  176.5030  137.0420 C   0  0  0  0  0  0  0  0  0  0  0  0
  185.9020  177.0590  137.3230 C   0  0  0  0  0  3  0  0  0  0  0  0
  183.9100  175.9310  134.5280 N   0  0  0  0  0  0  0  0  0  0  0  0
  187.3310  175.7070  135.8850 C   0  0  0  0  0  3  0  0  0  0  0  0
  185.0780  176.0470  135.3150 C   0  0  0  0  0  0  0  0  0  0  0  0
  184.8730  176.8120  136.4210 C   0  0  0  0  0  0  0  0  0  0  0  0
  192.1670  175.0740  137.0570 C   0  0  0  0  0  3  0  0  0  0  0  0
  191.3340  175.4360  138.0300 C   0  0  0  0  0  3  0  0  0  0  0  0
  192.7610  173.3890  136.9590 S   0  0  0  0  0  0  0  0  0  0  0  0
  196.6930  173.6040  136.0680 N   0  0  0  0  0  0  0  0  0  0  0  0
  196.4950  174.8160  136.8620 C   0  0  0  0  0  2  0  0  0  0  0  0
  195.4320  172.8470  136.1520 C   0  0  2  0  0  3  0  0  0  0  0  0
  194.9970  175.0330  137.0270 C   0  0  0  0  0  2  0  0  0  0  0  0
  194.3550  173.9170  136.2390 C   0  0  2  0  0  3  0  0  0  0  0  0
  193.9730  168.6210  137.8960 C   0  0  0  0  0  1  0  0  0  0  0  0
  195.3530  169.0360  137.4270 C   0  0  0  0  0  0  0  0  0  0  0  0
  196.5800  168.6090  138.2020 C   0  0  0  0  0  1  0  0  0  0  0  0
  195.3760  171.8590  137.3010 C   0  0  0  0  0  0  0  0  0  0  0  0
  195.4070  170.4650  137.0230 N   0  0  0  0  0  0  0  0  0  0  0  0
  195.5100  169.3010  136.0850 C   0  0  0  0  0  2  0  0  0  0  0  0
  195.2800  172.2560  138.4940 O   0  0  0  0  0  0  0  0  0  0  0  0
  197.8600  172.8890  136.5810 C   0  0  0  0  0  2  0  0  0  0  0  0
  198.5420  173.7070  137.5670 N   0  0  0  0  0  1  0  0  0  0  0  0
  190.4080  177.9820  143.8140 C   0  0  0  0  0  2  0  0  0  0  0  0
  189.5400  177.0060  144.4620 N   0  0  0  0  0  2  0  0  0  0  0  0
  186.6380  178.0570  146.4200 C   0  0  0  0  0  0  0  0  0  0  0  0
  187.2410  178.2150  147.7840 C   0  0  0  0  0  2  0  0  0  0  0  0
  188.2300  177.0740  148.0350 C   0  0  0  0  0  2  0  0  0  0  0  0
  185.2920  178.1210  146.2520 F   0  0  0  0  0  0  0  0  0  0  0  0
  188.9160  177.6590  145.6020 C   0  0  2  0  0  3  0  0  0  0  0  0
  189.2590  176.9020  146.8990 C   0  0  1  0  0  3  0  0  0  0  0  0
  190.5220  177.2890  147.3470 O   0  0  0  0  0  1  0  0  0  0  0  0
  187.4300  177.7620  145.3850 C   0  0  0  0  0  3  0  0  0  0  0  0
  2 15  1  6  0  0  0
  2  7  1  0  0  0  0
  3  8  1  0  0  0  0
  4 22  1  1  0  0  0
  4  9  1  0  0  0  0
  5 11  2  0  0  0  0
  6  2  1  0  0  0  0
  6  4  1  0  0  0  0
  7  3  1  0  0  0  0
  8  1  1  0  0  0  0
  8 10  2  0  0  0  0
  9  3  2  0  0  0  0
  9  5  1  0  0  0  0
 10 38  1  0  0  0  0
 11 10  1  0  0  0  0
 12 19  2  0  0  0  0
 12 18  1  0  0  0  0
 13 20  1  0  0  0  0
 14 13  1  0  0  0  0
 15 16  1  0  0  0  0
 17 14  2  0  0  0  0
 17 19  1  0  0  0  0
 18 15  2  0  0  0  0
 19 20  1  0  0  0  0
 20 16  2  0  0  0  0
 21 22  2  0  0  0  0
 23 21  1  0  0  0  0
 24 26  1  0  0  0  0
 24 36  1  0  0  0  0
 24 25  1  0  0  0  0
 25 27  1  0  0  0  0
 26 28  1  0  0  0  0
 26 32  1  1  0  0  0
 28 23  1  1  0  0  0
 28 27  1  0  0  0  0
 30 29  1  0  0  0  0
 30 31  1  0  0  0  0
 32 35  2  0  0  0  0
 33 32  1  0  0  0  0
 33 30  1  0  0  0  0
 34 33  1  0  0  0  0
 34 30  1  0  0  0  0
 36 37  1  0  0  0  0
 38 39  1  0  0  0  0
 40 41  1  0  0  0  0
 41 42  1  0  0  0  0
 43 40  1  0  0  0  0
 44 39  1  6  0  0  0
 44 45  1  0  0  0  0
 45 46  1  1  0  0  0
 45 42  1  0  0  0  0
 47 44  1  0  0  0  0
 47 40  2  0  0  0  0
M  END
>  <MODEL>
1

>  <REMARK>
 VINA RESULT:      -8.7      0.000      0.000
  Name = 
  9 active torsions:
  status: ('A' for Active; 'I' for Inactive)
    1  A    between atoms: C_2  and  S_16
    2  A    between atoms: C_7  and  C_17
    3  A    between atoms: C_10  and  C_21
    4  A    between atoms: S_16  and  C_46
    5  A    between atoms: C_19  and  N_29
    6  A    between atoms: C_19  and  C_37
    7  A    between atoms: N_20  and  C_30
    8  A    between atoms: C_22  and  C_31
    9  A    between atoms: C_26  and  N_29
                            x       y       z     vdW  Elec       q    Type
                         _______ _______ _______ _____ _____    ______ ____

>  <TORSDO>
F 9

$$$$
=
 OpenBabel10222421403D

 47 53  0  0  1  0  0  0  0  0999 V2000
  193.6200  176.0990  138.6740 F   0  0  0  0  0  0  0  0  0  0  0  0
  189.7070  176.9670  140.4810 C   0  0  1  0  0  3  0  0  0  0  0  0
  191.3400  176.7850  138.4260 C   0  0  0  0  0  0  0  0  0  0  0  0
  188.8270  177.3260  138.1400 C   0  0  1  0  0  3  0  0  0  0  0  0
  190.2580  176.5000  136.2680 C   0  0  0  0  0  3  0  0  0  0  0  0
  188.7960  177.8040  139.5930 C   0  0  0  0  0  2  0  0  0  0  0  0
  191.4040  177.4560  140.0950 S   0  0  0  0  0  0  0  0  0  0  0  0
  192.5090  176.2090  137.8990 C   0  0  0  0  0  0  0  0  0  0  0  0
  190.1850  176.8970  137.6120 C   0  0  0  0  0  0  0  0  0  0  0  0
  192.5500  175.7930  136.5600 C   0  0  0  0  0  0  0  0  0  0  0  0
  191.4320  175.9600  135.7450 C   0  0  0  0  0  3  0  0  0  0  0  0
  190.2900  177.8090  144.1080 N   0  0  0  0  0  0  0  0  0  0  0  0
  186.7650  177.2980  144.6880 C   0  0  0  0  0  2  0  0  0  0  0  0
  187.3810  177.6790  146.0180 C   0  0  0  0  0  3  0  0  0  0  0  0
  189.4340  177.1820  141.9390 C   0  0  0  0  0  0  0  0  0  0  0  0
  188.1340  177.0830  142.4770 C   0  0  0  0  0  3  0  0  0  0  0  0
  188.6600  177.9020  145.9560 N   0  0  0  0  0  0  0  0  0  0  0  0
  190.5040  177.5610  142.7820 C   0  0  0  0  0  3  0  0  0  0  0  0
  189.0350  177.6950  144.6090 C   0  0  0  0  0  0  0  0  0  0  0  0
  187.9750  177.3420  143.8340 C   0  0  0  0  0  0  0  0  0  0  0  0
  186.7350  176.4530  137.1950 C   0  0  0  0  0  3  0  0  0  0  0  0
  187.8150  176.2390  137.9430 C   0  0  0  0  0  3  0  0  0  0  0  0
  185.5370  175.1470  136.9500 S   0  0  0  0  0  0  0  0  0  0  0  0
  182.6290  177.7090  135.8130 N   0  0  0  0  0  0  0  0  0  0  0  0
  182.1910  176.4580  135.1960 C   0  0  0  0  0  2  0  0  0  0  0  0
  183.7800  177.3650  136.6670 C   0  0  2  0  0  3  0  0  0  0  0  0
  183.3360  175.4600  135.2860 C   0  0  0  0  0  2  0  0  0  0  0  0
  184.4670  176.2240  135.9330 C   0  0  2  0  0  3  0  0  0  0  0  0
  184.4750  177.9450  141.3790 C   0  0  0  0  0  1  0  0  0  0  0  0
  183.3610  178.4830  140.5050 C   0  0  0  0  0  0  0  0  0  0  0  0
  181.9330  178.4810  141.0050 C   0  0  0  0  0  1  0  0  0  0  0  0
  183.4100  177.0090  138.0930 C   0  0  0  0  0  0  0  0  0  0  0  0
  183.4690  178.0130  139.0990 N   0  0  0  0  0  0  0  0  0  0  0  0
  183.6990  179.4220  139.5560 C   0  0  0  0  0  2  0  0  0  0  0  0
  183.0740  175.8340  138.4030 O   0  0  0  0  0  0  0  0  0  0  0  0
  181.5030  178.3030  136.5310 C   0  0  0  0  0  2  0  0  0  0  0  0
  180.9660  179.4130  135.7670 N   0  0  0  0  0  1  0  0  0  0  0  0
  193.8060  175.2370  135.9680 C   0  0  0  0  0  2  0  0  0  0  0  0
  193.9970  173.8560  136.3930 N   0  0  0  0  0  2  0  0  0  0  0  0
  197.5140  174.8270  136.1730 C   0  0  0  0  0  0  0  0  0  0  0  0
  198.0810  174.1720  137.3980 C   0  0  0  0  0  2  0  0  0  0  0  0
  197.0930  174.3270  138.5580 C   0  0  0  0  0  2  0  0  0  0  0  0
  198.2650  175.6960  135.4490 F   0  0  0  0  0  0  0  0  0  0  0  0
  195.4090  173.6780  136.6920 C   0  0  2  0  0  3  0  0  0  0  0  0
  195.6610  173.8790  138.1990 C   0  0  1  0  0  3  0  0  0  0  0  0
  195.3520  172.7040  138.8850 O   0  0  0  0  0  1  0  0  0  0  0  0
  196.2340  174.6170  135.8530 C   0  0  0  0  0  3  0  0  0  0  0  0
  2 15  1  1  0  0  0
  3  7  1  0  0  0  0
  4 22  1  1  0  0  0
  4  6  1  0  0  0  0
  5  9  1  0  0  0  0
  6  2  1  0  0  0  0
  7  2  1  0  0  0  0
  8  3  1  0  0  0  0
  8  1  1  0  0  0  0
  9  4  1  0  0  0  0
  9  3  2  0  0  0  0
 10  8  2  0  0  0  0
 11  5  2  0  0  0  0
 11 10  1  0  0  0  0
 12 19  2  0  0  0  0
 13 14  1  0  0  0  0
 15 16  1  0  0  0  0
 15 18  2  0  0  0  0
 16 20  2  0  0  0  0
 17 14  2  0  0  0  0
 18 12  1  0  0  0  0
 19 17  1  0  0  0  0
 20 19  1  0  0  0  0
 20 13  1  0  0  0  0
 21 22  2  0  0  0  0
 23 21  1  0  0  0  0
 24 36  1  0  0  0  0
 24 26  1  0  0  0  0
 25 27  1  0  0  0  0
 25 24  1  0  0  0  0
 26 32  1  1  0  0  0
 27 28  1  0  0  0  0
 28 26  1  0  0  0  0
 28 23  1  1  0  0  0
 30 31  1  0  0  0  0
 30 29  1  0  0  0  0
 32 35  2  0  0  0  0
 32 33  1  0  0  0  0
 33 34  1  0  0  0  0
 33 30  1  0  0  0  0
 34 30  1  0  0  0  0
 37 36  1  0  0  0  0
 38 39  1  0  0  0  0
 38 10  1  0  0  0  0
 40 41  1  0  0  0  0
 41 42  1  0  0  0  0
 43 40  1  0  0  0  0
 44 39  1  1  0  0  0
 44 45  1  0  0  0  0
 45 42  1  0  0  0  0
 45 46  1  1  0  0  0
 47 40  2  0  0  0  0
 47 44  1  0  0  0  0
M  END
>  <MODEL>
2

>  <REMARK>
 VINA RESULT:      -8.4      3.445     11.078
  Name = 
  9 active torsions:
  status: ('A' for Active; 'I' for Inactive)
    1  A    between atoms: C_2  and  S_16
    2  A    between atoms: C_7  and  C_17
    3  A    between atoms: C_10  and  C_21
    4  A    between atoms: S_16  and  C_46
    5  A    between atoms: C_19  and  N_29
    6  A    between atoms: C_19  and  C_37
    7  A    between atoms: N_20  and  C_30
    8  A    between atoms: C_22  and  C_31
    9  A    between atoms: C_26  and  N_29
                            x       y       z     vdW  Elec       q    Type
                         _______ _______ _______ _____ _____    ______ ____

>  <TORSDO>
F 9

$$$$
=
 OpenBabel10222421403D

 47 53  0  0  1  0  0  0  0  0999 V2000
  192.7050  175.7450  138.8430 F   0  0  0  0  0  0  0  0  0  0  0  0
  188.9180  177.3220  140.4250 C   0  0  1  0  0  3  0  0  0  0  0  0
  190.6770  176.9700  138.5000 C   0  0  0  0  0  0  0  0  0  0  0  0
  188.3950  178.1130  138.0830 C   0  0  1  0  0  3  0  0  0  0  0  0
  189.7940  177.1670  136.2440 C   0  0  0  0  0  3  0  0  0  0  0  0
  188.3170  178.4360  139.5770 C   0  0  0  0  0  2  0  0  0  0  0  0
  190.7130  177.4350  140.2390 S   0  0  0  0  0  0  0  0  0  0  0  0
  191.7360  176.1910  138.0010 C   0  0  0  0  0  0  0  0  0  0  0  0
  189.6690  177.4320  137.6160 C   0  0  0  0  0  0  0  0  0  0  0  0
  191.8240  175.9150  136.6290 C   0  0  0  0  0  0  0  0  0  0  0  0
  190.8660  176.4220  135.7540 C   0  0  0  0  0  3  0  0  0  0  0  0
  186.8210  177.8330  143.5140 N   0  0  0  0  0  0  0  0  0  0  0  0
  189.7510  177.1250  145.4970 C   0  0  0  0  0  2  0  0  0  0  0  0
  188.6190  177.3990  146.4650 C   0  0  0  0  0  3  0  0  0  0  0  0
  188.5470  177.4460  141.8720 C   0  0  0  0  0  0  0  0  0  0  0  0
  189.4770  177.1980  142.9030 C   0  0  0  0  0  3  0  0  0  0  0  0
  187.4870  177.6660  145.8830 N   0  0  0  0  0  0  0  0  0  0  0  0
  187.2090  177.7540  142.2070 C   0  0  0  0  0  3  0  0  0  0  0  0
  187.7320  177.6040  144.4920 C   0  0  0  0  0  0  0  0  0  0  0  0
  189.0280  177.2960  144.2160 C   0  0  0  0  0  0  0  0  0  0  0  0
  186.3870  177.7670  136.7120 C   0  0  0  0  0  3  0  0  0  0  0  0
  187.1910  177.3200  137.6740 C   0  0  0  0  0  3  0  0  0  0  0  0
  184.9590  176.8100  136.2150 S   0  0  0  0  0  0  0  0  0  0  0  0
  182.4450  176.5210  139.3620 N   0  0  0  0  0  0  0  0  0  0  0  0
  181.9180  177.6900  138.6580 C   0  0  0  0  0  2  0  0  0  0  0  0
  183.4830  175.9480  138.4870 C   0  0  2  0  0  3  0  0  0  0  0  0
  182.9370  178.1070  137.6070 C   0  0  0  0  0  2  0  0  0  0  0  0
  184.0930  177.1520  137.7870 C   0  0  2  0  0  3  0  0  0  0  0  0
  184.3890  172.5340  135.2390 C   0  0  0  0  0  1  0  0  0  0  0  0
  183.9580  172.3870  136.6840 C   0  0  0  0  0  0  0  0  0  0  0  0
  182.9290  171.3470  137.0700 C   0  0  0  0  0  1  0  0  0  0  0  0
  182.9710  174.9000  137.5180 C   0  0  0  0  0  0  0  0  0  0  0  0
  183.7100  173.6990  137.3360 N   0  0  0  0  0  0  0  0  0  0  0  0
  184.8530  172.7840  137.6530 C   0  0  0  0  0  2  0  0  0  0  0  0
  181.9140  175.0900  136.8570 O   0  0  0  0  0  0  0  0  0  0  0  0
  181.3400  175.6110  139.6590 C   0  0  0  0  0  2  0  0  0  0  0  0
  180.2510  176.3480  140.2730 N   0  0  0  0  0  1  0  0  0  0  0  0
  192.9780  175.1420  136.0750 C   0  0  0  0  0  2  0  0  0  0  0  0
  193.3080  174.0260  136.9530 N   0  0  0  0  0  2  0  0  0  0  0  0
  196.7030  175.1500  136.1990 C   0  0  0  0  0  0  0  0  0  0  0  0
  197.5110  174.3090  137.1430 C   0  0  0  0  0  2  0  0  0  0  0  0
  196.7860  174.2200  138.4880 C   0  0  0  0  0  2  0  0  0  0  0  0
  197.2880  176.1610  135.5070 F   0  0  0  0  0  0  0  0  0  0  0  0
  194.7510  173.8510  136.9200 C   0  0  2  0  0  3  0  0  0  0  0  0
  195.3110  173.7900  138.3540 C   0  0  1  0  0  3  0  0  0  0  0  0
  195.1490  172.5020  138.8650 O   0  0  0  0  0  1  0  0  0  0  0  0
  195.3850  174.9540  136.1140 C   0  0  0  0  0  3  0  0  0  0  0  0
  2 15  1  1  0  0  0
  3  7  1  0  0  0  0
  4 22  1  1  0  0  0
  4  6  1  0  0  0  0
  5  9  1  0  0  0  0
  6  2  1  0  0  0  0
  7  2  1  0  0  0  0
  8  3  1  0  0  0  0
  8  1  1  0  0  0  0
  9  4  1  0  0  0  0
  9  3  2  0  0  0  0
 10  8  2  0  0  0  0
 11  5  2  0  0  0  0
 11 10  1  0  0  0  0
 12 19  2  0  0  0  0
 13 14  1  0  0  0  0
 15 18  2  0  0  0  0
 15 16  1  0  0  0  0
 16 20  2  0  0  0  0
 17 14  2  0  0  0  0
 18 12  1  0  0  0  0
 19 17  1  0  0  0  0
 20 19  1  0  0  0  0
 20 13  1  0  0  0  0
 21 22  2  0  0  0  0
 23 21  1  0  0  0  0
 24 36  1  0  0  0  0
 25 24  1  0  0  0  0
 26 32  1  6  0  0  0
 26 24  1  0  0  0  0
 27 28  1  0  0  0  0
 27 25  1  0  0  0  0
 28 23  1  6  0  0  0
 28 26  1  0  0  0  0
 29 30  1  0  0  0  0
 30 31  1  0  0  0  0
 30 33  1  0  0  0  0
 30 34  1  0  0  0  0
 33 32  1  0  0  0  0
 33 34  1  0  0  0  0
 35 32  2  0  0  0  0
 36 37  1  0  0  0  0
 38 10  1  0  0  0  0
 38 39  1  0  0  0  0
 40 41  1  0  0  0  0
 41 42  1  0  0  0  0
 43 40  1  0  0  0  0
 44 39  1  1  0  0  0
 44 45  1  0  0  0  0
 45 42  1  0  0  0  0
 45 46  1  6  0  0  0
 47 40  2  0  0  0  0
 47 44  1  0  0  0  0
M  END
>  <MODEL>
3

>  <REMARK>
 VINA RESULT:      -8.4      3.735     10.592
  Name = 
  9 active torsions:
  status: ('A' for Active; 'I' for Inactive)
    1  A    between atoms: C_2  and  S_16
    2  A    between atoms: C_7  and  C_17
    3  A    between atoms: C_10  and  C_21
    4  A    between atoms: S_16  and  C_46
    5  A    between atoms: C_19  and  N_29
    6  A    between atoms: C_19  and  C_37
    7  A    between atoms: N_20  and  C_30
    8  A    between atoms: C_22  and  C_31
    9  A    between atoms: C_26  and  N_29
                            x       y       z     vdW  Elec       q    Type
                         _______ _______ _______ _____ _____    ______ ____

>  <TORSDO>
F 9

$$$$
=
 OpenBabel10222421403D

 47 53  0  0  1  0  0  0  0  0999 V2000
  186.8780  173.4310  136.3970 F   0  0  0  0  0  0  0  0  0  0  0  0
  190.1600  176.0340  137.7280 C   0  0  1  0  0  3  0  0  0  0  0  0
  187.6960  175.6220  136.9010 C   0  0  0  0  0  0  0  0  0  0  0  0
  188.5250  177.9580  137.6430 C   0  0  1  0  0  3  0  0  0  0  0  0
  186.1050  177.3620  137.4900 C   0  0  0  0  0  3  0  0  0  0  0  0
  189.9610  177.5010  137.3730 C   0  0  0  0  0  2  0  0  0  0  0  0
  189.3450  175.0680  136.4360 S   0  0  0  0  0  0  0  0  0  0  0  0
  186.6330  174.7110  136.7800 C   0  0  0  0  0  0  0  0  0  0  0  0
  187.4350  176.9580  137.3000 C   0  0  0  0  0  0  0  0  0  0  0  0
  185.3140  175.1320  137.0010 C   0  0  0  0  0  0  0  0  0  0  0  0
  185.0530  176.4610  137.3330 C   0  0  0  0  0  3  0  0  0  0  0  0
  193.8260  176.2160  138.5870 N   0  0  0  0  0  0  0  0  0  0  0  0
  194.2450  172.9840  137.0380 C   0  0  0  0  0  2  0  0  0  0  0  0
  195.6070  173.4120  137.5400 C   0  0  0  0  0  3  0  0  0  0  0  0
  191.6100  175.6600  137.8060 C   0  0  0  0  0  0  0  0  0  0  0  0
  192.0900  174.4300  137.3090 C   0  0  0  0  0  3  0  0  0  0  0  0
  195.6050  174.5690  138.1340 N   0  0  0  0  0  0  0  0  0  0  0  0
  192.5050  176.5390  138.4570 C   0  0  0  0  0  3  0  0  0  0  0  0
  194.2710  175.0350  138.0910 C   0  0  0  0  0  0  0  0  0  0  0  0
  193.4440  174.1540  137.4660 C   0  0  0  0  0  0  0  0  0  0  0  0
  188.4930  177.5360  140.0620 C   0  0  0  0  0  3  0  0  0  0  0  0
  188.3980  178.4130  139.0650 C   0  0  0  0  0  3  0  0  0  0  0  0
  188.3570  178.0850  141.7590 S   0  0  0  0  0  0  0  0  0  0  0  0
  191.1560  176.2630  144.0300 N   0  0  0  0  0  0  0  0  0  0  0  0
  191.9710  177.1280  143.1780 C   0  0  0  0  0  2  0  0  0  0  0  0
  189.7530  176.6250  143.7600 C   0  0  2  0  0  3  0  0  0  0  0  0
  191.0850  177.6650  142.0630 C   0  0  0  0  0  2  0  0  0  0  0  0
  189.7400  177.0160  142.2900 C   0  0  2  0  0  3  0  0  0  0  0  0
  185.9960  179.0640  145.4820 C   0  0  0  0  0  1  0  0  0  0  0  0
  186.8180  177.9790  146.1490 C   0  0  0  0  0  0  0  0  0  0  0  0
  187.2040  178.1040  147.6060 C   0  0  0  0  0  1  0  0  0  0  0  0
  189.2080  177.7130  144.6640 C   0  0  0  0  0  0  0  0  0  0  0  0
  187.9500  177.5260  145.3000 N   0  0  0  0  0  0  0  0  0  0  0  0
  186.7340  176.7100  145.6210 C   0  0  0  0  0  2  0  0  0  0  0  0
  189.8420  178.7890  144.8400 O   0  0  0  0  0  0  0  0  0  0  0  0
  191.5680  176.4450  145.4200 C   0  0  0  0  0  2  0  0  0  0  0  0
  192.2970  175.2740  145.8720 N   0  0  0  0  0  1  0  0  0  0  0  0
  184.1670  174.1920  136.8130 C   0  0  0  0  0  2  0  0  0  0  0  0
  183.7760  174.1440  135.4100 N   0  0  0  0  0  2  0  0  0  0  0  0
  183.1790  170.5600  135.8080 C   0  0  0  0  0  0  0  0  0  0  0  0
  181.6900  170.4860  135.6410 C   0  0  0  0  0  2  0  0  0  0  0  0
  181.0410  171.6730  136.3590 C   0  0  0  0  0  2  0  0  0  0  0  0
  183.8780  169.4730  136.2220 F   0  0  0  0  0  0  0  0  0  0  0  0
  182.9970  172.9320  135.2090 C   0  0  2  0  0  3  0  0  0  0  0  0
  181.6600  173.0300  135.9690 C   0  0  1  0  0  3  0  0  0  0  0  0
  180.7450  173.7630  135.2120 O   0  0  0  0  0  1  0  0  0  0  0  0
  183.7990  171.7300  135.6330 C   0  0  0  0  0  3  0  0  0  0  0  0
  1  8  1  0  0  0  0
  2 15  1  6  0  0  0
  3  9  1  0  0  0  0
  4 22  1  1  0  0  0
  6  4  1  0  0  0  0
  6  2  1  0  0  0  0
  7  3  1  0  0  0  0
  7  2  1  0  0  0  0
  8  3  2  0  0  0  0
  8 10  1  0  0  0  0
  9  5  2  0  0  0  0
  9  4  1  0  0  0  0
 10 11  2  0  0  0  0
 11  5  1  0  0  0  0
 13 20  1  0  0  0  0
 13 14  1  0  0  0  0
 14 17  2  0  0  0  0
 15 18  2  0  0  0  0
 16 20  2  0  0  0  0
 16 15  1  0  0  0  0
 18 12  1  0  0  0  0
 19 17  1  0  0  0  0
 19 12  2  0  0  0  0
 20 19  1  0  0  0  0
 21 23  1  0  0  0  0
 22 21  2  0  0  0  0
 24 36  1  0  0  0  0
 25 24  1  0  0  0  0
 26 24  1  0  0  0  0
 26 32  1  1  0  0  0
 27 28  1  0  0  0  0
 27 25  1  0  0  0  0
 28 23  1  1  0  0  0
 28 26  1  0  0  0  0
 29 30  1  0  0  0  0
 30 31  1  0  0  0  0
 32 35  2  0  0  0  0
 32 33  1  0  0  0  0
 33 34  1  0  0  0  0
 33 30  1  0  0  0  0
 34 30  1  0  0  0  0
 36 37  1  0  0  0  0
 38 10  1  0  0  0  0
 39 38  1  0  0  0  0
 40 43  1  0  0  0  0
 41 40  1  0  0  0  0
 41 42  1  0  0  0  0
 44 39  1  1  0  0  0
 44 47  1  0  0  0  0
 44 45  1  0  0  0  0
 45 46  1  6  0  0  0
 45 42  1  0  0  0  0
 47 40  2  0  0  0  0
M  END
>  <MODEL>
4

>  <REMARK>
 VINA RESULT:      -8.3      3.847     10.346
  Name = 
  9 active torsions:
  status: ('A' for Active; 'I' for Inactive)
    1  A    between atoms: C_2  and  S_16
    2  A    between atoms: C_7  and  C_17
    3  A    between atoms: C_10  and  C_21
    4  A    between atoms: S_16  and  C_46
    5  A    between atoms: C_19  and  N_29
    6  A    between atoms: C_19  and  C_37
    7  A    between atoms: N_20  and  C_30
    8  A    between atoms: C_22  and  C_31
    9  A    between atoms: C_26  and  N_29
                            x       y       z     vdW  Elec       q    Type
                         _______ _______ _______ _____ _____    ______ ____

>  <TORSDO>
F 9

$$$$
=
 OpenBabel10222421403D

 47 53  0  0  1  0  0  0  0  0999 V2000
  182.8940  176.1610  140.3560 F   0  0  0  0  0  0  0  0  0  0  0  0
  184.3290  174.4870  136.5520 C   0  0  1  0  0  3  0  0  0  0  0  0
  183.6800  176.4980  138.1200 C   0  0  0  0  0  0  0  0  0  0  0  0
  184.7220  176.8610  135.7810 C   0  0  1  0  0  3  0  0  0  0  0  0
  184.7000  178.6280  137.5450 C   0  0  0  0  0  3  0  0  0  0  0  0
  184.2450  175.4620  135.3840 C   0  0  0  0  0  2  0  0  0  0  0  0
  182.9750  174.9020  137.6760 S   0  0  0  0  0  0  0  0  0  0  0  0
  183.5070  176.9540  139.4390 C   0  0  0  0  0  0  0  0  0  0  0  0
  184.3210  177.3300  137.1680 C   0  0  0  0  0  0  0  0  0  0  0  0
  183.9200  178.2450  139.7990 C   0  0  0  0  0  0  0  0  0  0  0  0
  184.4940  179.0840  138.8460 C   0  0  0  0  0  3  0  0  0  0  0  0
  185.3150  171.0160  135.4640 N   0  0  0  0  0  0  0  0  0  0  0  0
  181.8180  170.1300  135.4690 C   0  0  0  0  0  2  0  0  0  0  0  0
  182.5860  168.8940  135.0510 C   0  0  0  0  0  3  0  0  0  0  0  0
  184.2050  173.0600  136.1110 C   0  0  0  0  0  0  0  0  0  0  0  0
  182.9560  172.4080  136.0380 C   0  0  0  0  0  3  0  0  0  0  0  0
  183.8730  169.0670  135.0120 N   0  0  0  0  0  0  0  0  0  0  0  0
  185.3820  172.3310  135.8260 C   0  0  0  0  0  3  0  0  0  0  0  0
  184.1050  170.4100  135.3870 C   0  0  0  0  0  0  0  0  0  0  0  0
  182.9470  171.0700  135.6610 C   0  0  0  0  0  0  0  0  0  0  0  0
  187.0220  176.1510  136.2700 C   0  0  0  0  0  3  0  0  0  0  0  0
  186.2060  176.9600  135.5980 C   0  0  0  0  0  3  0  0  0  0  0  0
  188.7920  176.2610  136.0360 S   0  0  0  0  0  0  0  0  0  0  0  0
  190.1350  177.7970  139.5210 N   0  0  0  0  0  0  0  0  0  0  0  0
  188.8180  177.2890  139.9000 C   0  0  0  0  0  2  0  0  0  0  0  0
  190.3720  177.3350  138.1420 C   0  0  2  0  0  3  0  0  0  0  0  0
  188.0600  176.9420  138.6270 C   0  0  0  0  0  2  0  0  0  0  0  0
  188.9920  177.3310  137.5040 C   0  0  2  0  0  3  0  0  0  0  0  0
  193.2410  174.3340  135.7360 C   0  0  0  0  0  1  0  0  0  0  0  0
  193.5460  175.1700  136.9620 C   0  0  0  0  0  0  0  0  0  0  0  0
  194.3630  174.5880  138.0950 C   0  0  0  0  0  1  0  0  0  0  0  0
  191.0690  175.9930  138.0470 C   0  0  0  0  0  0  0  0  0  0  0  0
  192.3570  175.9170  137.4480 N   0  0  0  0  0  0  0  0  0  0  0  0
  193.5600  176.5380  136.8070 C   0  0  0  0  0  2  0  0  0  0  0  0
  190.5140  174.9420  138.4700 O   0  0  0  0  0  0  0  0  0  0  0  0
  191.1210  177.3240  140.4910 C   0  0  0  0  0  2  0  0  0  0  0  0
  190.4520  176.6010  141.5560 N   0  0  0  0  0  1  0  0  0  0  0  0
  183.6850  178.7670  141.1810 C   0  0  0  0  0  2  0  0  0  0  0  0
  184.9390  179.2250  141.7670 N   0  0  0  0  0  2  0  0  0  0  0  0
  187.1330  177.4400  144.0820 C   0  0  0  0  0  0  0  0  0  0  0  0
  186.3050  177.4350  145.3330 C   0  0  0  0  0  2  0  0  0  0  0  0
  185.6150  178.7940  145.4880 C   0  0  0  0  0  2  0  0  0  0  0  0
  188.4260  177.0280  144.1130 F   0  0  0  0  0  0  0  0  0  0  0  0
  185.1890  178.4240  142.9550 C   0  0  2  0  0  3  0  0  0  0  0  0
  184.8550  179.2360  144.2220 C   0  0  1  0  0  3  0  0  0  0  0  0
  183.4810  179.1880  144.4580 O   0  0  0  0  0  1  0  0  0  0  0  0
  186.6140  177.9380  142.9570 C   0  0  0  0  0  3  0  0  0  0  0  0
  2 15  1  6  0  0  0
  2  7  1  0  0  0  0
  3  8  1  0  0  0  0
  4 22  1  1  0  0  0
  4  9  1  0  0  0  0
  5 11  2  0  0  0  0
  6  4  1  0  0  0  0
  6  2  1  0  0  0  0
  7  3  1  0  0  0  0
  8 10  2  0  0  0  0
  8  1  1  0  0  0  0
  9  5  1  0  0  0  0
  9  3  2  0  0  0  0
 10 38  1  0  0  0  0
 11 10  1  0  0  0  0
 12 18  1  0  0  0  0
 13 20  1  0  0  0  0
 14 13  1  0  0  0  0
 16 15  1  0  0  0  0
 17 14  2  0  0  0  0
 17 19  1  0  0  0  0
 18 15  2  0  0  0  0
 19 12  2  0  0  0  0
 19 20  1  0  0  0  0
 20 16  2  0  0  0  0
 22 21  2  0  0  0  0
 23 21  1  0  0  0  0
 24 25  1  0  0  0  0
 24 36  1  0  0  0  0
 26 32  1  1  0  0  0
 26 24  1  0  0  0  0
 27 25  1  0  0  0  0
 28 23  1  6  0  0  0
 28 26  1  0  0  0  0
 28 27  1  0  0  0  0
 29 30  1  0  0  0  0
 30 33  1  0  0  0  0
 30 31  1  0  0  0  0
 32 35  2  0  0  0  0
 33 32  1  0  0  0  0
 34 30  1  0  0  0  0
 34 33  1  0  0  0  0
 36 37  1  0  0  0  0
 38 39  1  0  0  0  0
 40 43  1  0  0  0  0
 40 41  1  0  0  0  0
 41 42  1  0  0  0  0
 44 39  1  6  0  0  0
 44 47  1  0  0  0  0
 44 45  1  0  0  0  0
 45 46  1  1  0  0  0
 45 42  1  0  0  0  0
 47 40  2  0  0  0  0
M  END
>  <MODEL>
5

>  <REMARK>
 VINA RESULT:      -8.1      3.763      6.321
  Name = 
  9 active torsions:
  status: ('A' for Active; 'I' for Inactive)
    1  A    between atoms: C_2  and  S_16
    2  A    between atoms: C_7  and  C_17
    3  A    between atoms: C_10  and  C_21
    4  A    between atoms: S_16  and  C_46
    5  A    between atoms: C_19  and  N_29
    6  A    between atoms: C_19  and  C_37
    7  A    between atoms: N_20  and  C_30
    8  A    between atoms: C_22  and  C_31
    9  A    between atoms: C_26  and  N_29
                            x       y       z     vdW  Elec       q    Type
                         _______ _______ _______ _____ _____    ______ ____

>  <TORSDO>
F 9

$$$$
=
 OpenBabel10222421403D

 47 53  0  0  1  0  0  0  0  0999 V2000
  189.9710  177.0250  139.5940 F   0  0  0  0  0  0  0  0  0  0  0  0
  186.6950  178.0990  142.3220 C   0  0  1  0  0  3  0  0  0  0  0  0
  187.8300  178.0350  139.9490 C   0  0  0  0  0  0  0  0  0  0  0  0
  185.4330  178.9390  140.3020 C   0  0  1  0  0  3  0  0  0  0  0  0
  186.3040  178.2420  138.0680 C   0  0  0  0  0  3  0  0  0  0  0  0
  185.7720  179.1790  141.7750 C   0  0  0  0  0  2  0  0  0  0  0  0
  188.3370  178.4170  141.6340 S   0  0  0  0  0  0  0  0  0  0  0  0
  188.7600  177.4020  139.1060 C   0  0  0  0  0  0  0  0  0  0  0  0
  186.5680  178.4260  139.4340 C   0  0  0  0  0  0  0  0  0  0  0  0
  188.4630  177.2030  137.7500 C   0  0  0  0  0  0  0  0  0  0  0  0
  187.2460  177.6440  137.2320 C   0  0  0  0  0  3  0  0  0  0  0  0
  185.6640  178.6230  145.9090 N   0  0  0  0  0  0  0  0  0  0  0  0
  188.7790  177.1090  146.9200 C   0  0  0  0  0  2  0  0  0  0  0  0
  188.0370  177.4780  148.1870 C   0  0  0  0  0  3  0  0  0  0  0  0
  186.7600  178.1120  143.8200 C   0  0  0  0  0  0  0  0  0  0  0  0
  187.8500  177.5580  144.5240 C   0  0  0  0  0  3  0  0  0  0  0  0
  186.8810  178.0330  147.9710 N   0  0  0  0  0  0  0  0  0  0  0  0
  185.6630  178.6330  144.5440 C   0  0  0  0  0  3  0  0  0  0  0  0
  186.7270  178.0990  146.5680 C   0  0  0  0  0  0  0  0  0  0  0  0
  187.7990  177.5780  145.9130 C   0  0  0  0  0  0  0  0  0  0  0  0
  183.0220  178.5040  140.4700 C   0  0  0  0  0  3  0  0  0  0  0  0
  184.2390  178.0400  140.1980 C   0  0  0  0  0  3  0  0  0  0  0  0
  181.5970  177.4320  140.3300 S   0  0  0  0  0  0  0  0  0  0  0  0
  180.0360  179.6900  137.3670 N   0  0  0  0  0  0  0  0  0  0  0  0
  180.9280  180.6370  138.0340 C   0  0  0  0  0  2  0  0  0  0  0  0
  180.2950  178.3770  137.9850 C   0  0  2  0  0  3  0  0  0  0  0  0
  181.3700  180.0220  139.3540 C   0  0  0  0  0  2  0  0  0  0  0  0
  180.6400  178.7020  139.4300 C   0  0  2  0  0  3  0  0  0  0  0  0
  182.5990  174.2060  137.4200 C   0  0  0  0  0  1  0  0  0  0  0  0
  181.5560  174.8490  136.5290 C   0  0  0  0  0  0  0  0  0  0  0  0
  181.7140  174.8140  135.0240 C   0  0  0  0  0  1  0  0  0  0  0  0
  181.3700  177.5650  137.2910 C   0  0  0  0  0  0  0  0  0  0  0  0
  181.1390  176.1880  137.0220 N   0  0  0  0  0  0  0  0  0  0  0  0
  180.2790  174.9610  137.0300 C   0  0  0  0  0  2  0  0  0  0  0  0
  182.4730  178.0870  136.9720 O   0  0  0  0  0  0  0  0  0  0  0  0
  180.2870  179.7360  135.9280 C   0  0  0  0  0  2  0  0  0  0  0  0
  180.7150  181.0700  135.5490 N   0  0  0  0  0  1  0  0  0  0  0  0
  189.4660  176.5890  136.8260 C   0  0  0  0  0  2  0  0  0  0  0  0
  189.3720  175.1350  136.8740 N   0  0  0  0  0  2  0  0  0  0  0  0
  192.7650  173.7850  136.6950 C   0  0  0  0  0  0  0  0  0  0  0  0
  192.7110  173.0150  135.4090 C   0  0  0  0  0  2  0  0  0  0  0  0
  191.3640  172.2940  135.3070 C   0  0  0  0  0  2  0  0  0  0  0  0
  193.8370  173.6710  137.5200 F   0  0  0  0  0  0  0  0  0  0  0  0
  190.5140  174.5960  136.1510 C   0  0  2  0  0  3  0  0  0  0  0  0
  190.1580  173.2260  135.5440 C   0  0  1  0  0  3  0  0  0  0  0  0
  189.4670  173.4110  134.3460 O   0  0  0  0  0  1  0  0  0  0  0  0
  191.7080  174.5140  137.0650 C   0  0  0  0  0  3  0  0  0  0  0  0
  2 15  1  1  0  0  0
  3  7  1  0  0  0  0
  4 22  1  1  0  0  0
  4  6  1  0  0  0  0
  5  9  2  0  0  0  0
  6  2  1  0  0  0  0
  7  2  1  0  0  0  0
  8  1  1  0  0  0  0
  8  3  2  0  0  0  0
  9  3  1  0  0  0  0
  9  4  1  0  0  0  0
 10  8  1  0  0  0  0
 11 10  2  0  0  0  0
 11  5  1  0  0  0  0
 12 19  2  0  0  0  0
 13 14  1  0  0  0  0
 15 16  1  0  0  0  0
 15 18  2  0  0  0  0
 16 20  2  0  0  0  0
 17 14  2  0  0  0  0
 18 12  1  0  0  0  0
 19 17  1  0  0  0  0
 20 19  1  0  0  0  0
 20 13  1  0  0  0  0
 22 21  2  0  0  0  0
 23 21  1  0  0  0  0
 24 26  1  0  0  0  0
 24 25  1  0  0  0  0
 25 27  1  0  0  0  0
 26 32  1  6  0  0  0
 26 28  1  0  0  0  0
 27 28  1  0  0  0  0
 28 23  1  6  0  0  0
 30 33  1  0  0  0  0
 30 34  1  0  0  0  0
 30 29  1  0  0  0  0
 31 30  1  0  0  0  0
 33 34  1  0  0  0  0
 33 32  1  0  0  0  0
 35 32  2  0  0  0  0
 36 24  1  0  0  0  0
 37 36  1  0  0  0  0
 38 39  1  0  0  0  0
 38 10  1  0  0  0  0
 40 47  2  0  0  0  0
 40 43  1  0  0  0  0
 41 40  1  0  0  0  0
 42 41  1  0  0  0  0
 42 45  1  0  0  0  0
 44 39  1  1  0  0  0
 44 47  1  0  0  0  0
 45 46  1  6  0  0  0
 45 44  1  0  0  0  0
M  END
>  <MODEL>
6

>  <REMARK>
 VINA RESULT:      -7.7      4.417     11.876
  Name = 
  9 active torsions:
  status: ('A' for Active; 'I' for Inactive)
    1  A    between atoms: C_2  and  S_16
    2  A    between atoms: C_7  and  C_17
    3  A    between atoms: C_10  and  C_21
    4  A    between atoms: S_16  and  C_46
    5  A    between atoms: C_19  and  N_29
    6  A    between atoms: C_19  and  C_37
    7  A    between atoms: N_20  and  C_30
    8  A    between atoms: C_22  and  C_31
    9  A    between atoms: C_26  and  N_29
                            x       y       z     vdW  Elec       q    Type
                         _______ _______ _______ _____ _____    ______ ____

>  <TORSDO>
F 9

$$$$
=
 OpenBabel10222421403D

 47 53  0  0  1  0  0  0  0  0999 V2000
  193.0950  175.5080  138.7030 F   0  0  0  0  0  0  0  0  0  0  0  0
  189.5790  177.2450  140.6900 C   0  0  1  0  0  3  0  0  0  0  0  0
  191.1020  176.8280  138.5850 C   0  0  0  0  0  0  0  0  0  0  0  0
  188.8440  178.0790  138.4210 C   0  0  1  0  0  3  0  0  0  0  0  0
  189.9910  177.0850  136.4390 C   0  0  0  0  0  3  0  0  0  0  0  0
  188.9430  178.3920  139.9160 C   0  0  0  0  0  2  0  0  0  0  0  0
  191.3470  177.2760  140.3120 S   0  0  0  0  0  0  0  0  0  0  0  0
  192.0630  176.0050  137.9720 C   0  0  0  0  0  0  0  0  0  0  0  0
  190.0280  177.3440  137.8170 C   0  0  0  0  0  0  0  0  0  0  0  0
  191.9910  175.7370  136.5980 C   0  0  0  0  0  0  0  0  0  0  0  0
  190.9680  176.2960  135.8330 C   0  0  0  0  0  3  0  0  0  0  0  0
  190.3200  177.8960  144.3270 N   0  0  0  0  0  0  0  0  0  0  0  0
  186.8350  177.2880  145.0410 C   0  0  0  0  0  2  0  0  0  0  0  0
  187.5070  177.6060  146.3610 C   0  0  0  0  0  3  0  0  0  0  0  0
  189.3720  177.3740  142.1690 C   0  0  0  0  0  0  0  0  0  0  0  0
  188.1010  177.2210  142.7610 C   0  0  0  0  0  3  0  0  0  0  0  0
  188.7780  177.8560  146.2520 N   0  0  0  0  0  0  0  0  0  0  0  0
  190.4740  177.7260  142.9810 C   0  0  0  0  0  3  0  0  0  0  0  0
  189.0920  177.7320  144.8790 C   0  0  0  0  0  0  0  0  0  0  0  0
  188.0020  177.4020  144.1350 C   0  0  0  0  0  0  0  0  0  0  0  0
  186.6170  177.9090  137.3990 C   0  0  0  0  0  3  0  0  0  0  0  0
  187.5670  177.3460  138.1420 C   0  0  0  0  0  3  0  0  0  0  0  0
  185.1010  177.0250  137.0540 S   0  0  0  0  0  0  0  0  0  0  0  0
  182.3950  177.9200  139.9150 N   0  0  0  0  0  0  0  0  0  0  0  0
  182.9120  179.2410  139.5610 C   0  0  0  0  0  2  0  0  0  0  0  0
  182.9760  176.9780  138.9420 C   0  0  2  0  0  3  0  0  0  0  0  0
  184.1540  179.0490  138.7020 C   0  0  0  0  0  2  0  0  0  0  0  0
  184.3490  177.5530  138.6340 C   0  0  2  0  0  3  0  0  0  0  0  0
  182.1940  174.6330  134.8290 C   0  0  0  0  0  1  0  0  0  0  0  0
  181.4860  174.4880  136.1610 C   0  0  0  0  0  0  0  0  0  0  0  0
  179.9820  174.3220  136.2100 C   0  0  0  0  0  1  0  0  0  0  0  0
  182.1320  176.7690  137.7010 C   0  0  0  0  0  0  0  0  0  0  0  0
  181.9820  175.4570  137.1730 N   0  0  0  0  0  0  0  0  0  0  0  0
  182.2150  173.9770  137.2110 C   0  0  0  0  0  2  0  0  0  0  0  0
  181.5820  177.7430  137.1180 O   0  0  0  0  0  0  0  0  0  0  0  0
  180.9350  177.9660  139.9100 C   0  0  0  0  0  2  0  0  0  0  0  0
  180.4440  178.0890  141.2700 N   0  0  0  0  0  1  0  0  0  0  0  0
  193.0410  174.9160  135.9200 C   0  0  0  0  0  2  0  0  0  0  0  0
  192.8130  173.4980  136.1690 N   0  0  0  0  0  2  0  0  0  0  0  0
  196.2610  172.9890  137.2710 C   0  0  0  0  0  0  0  0  0  0  0  0
  196.5000  171.5680  136.8520 C   0  0  0  0  0  2  0  0  0  0  0  0
  195.2460  170.7370  137.1420 C   0  0  0  0  0  2  0  0  0  0  0  0
  197.1650  173.6370  138.0480 F   0  0  0  0  0  0  0  0  0  0  0  0
  194.1030  172.8280  136.1140 C   0  0  2  0  0  3  0  0  0  0  0  0
  193.9580  171.3630  136.5690 C   0  0  1  0  0  3  0  0  0  0  0  0
  193.4920  170.5880  135.5070 O   0  0  0  0  0  1  0  0  0  0  0  0
  195.1070  173.5800  136.9470 C   0  0  0  0  0  3  0  0  0  0  0  0
  2 15  1  1  0  0  0
  3  7  1  0  0  0  0
  4 22  1  1  0  0  0
  4  6  1  0  0  0  0
  5  9  1  0  0  0  0
  6  2  1  0  0  0  0
  7  2  1  0  0  0  0
  8  3  1  0  0  0  0
  8  1  1  0  0  0  0
  9  4  1  0  0  0  0
  9  3  2  0  0  0  0
 10  8  2  0  0  0  0
 11  5  2  0  0  0  0
 11 10  1  0  0  0  0
 12 19  2  0  0  0  0
 13 14  1  0  0  0  0
 15 16  1  0  0  0  0
 15 18  2  0  0  0  0
 16 20  2  0  0  0  0
 17 14  2  0  0  0  0
 18 12  1  0  0  0  0
 19 17  1  0  0  0  0
 20 19  1  0  0  0  0
 20 13  1  0  0  0  0
 21 22  2  0  0  0  0
 23 21  1  0  0  0  0
 25 24  1  0  0  0  0
 26 32  1  6  0  0  0
 26 24  1  0  0  0  0
 27 25  1  0  0  0  0
 28 23  1  6  0  0  0
 28 27  1  0  0  0  0
 28 26  1  0  0  0  0
 29 30  1  0  0  0  0
 30 31  1  0  0  0  0
 30 33  1  0  0  0  0
 30 34  1  0  0  0  0
 33 34  1  0  0  0  0
 33 32  1  0  0  0  0
 35 32  2  0  0  0  0
 36 24  1  0  0  0  0
 36 37  1  0  0  0  0
 38 39  1  0  0  0  0
 38 10  1  0  0  0  0
 40 43  1  0  0  0  0
 41 42  1  0  0  0  0
 41 40  1  0  0  0  0
 44 39  1  1  0  0  0
 44 45  1  0  0  0  0
 44 47  1  0  0  0  0
 45 46  1  6  0  0  0
 45 42  1  0  0  0  0
 47 40  2  0  0  0  0
M  END
>  <MODEL>
7

>  <REMARK>
 VINA RESULT:      -7.6      3.714     11.268
  Name = 
  9 active torsions:
  status: ('A' for Active; 'I' for Inactive)
    1  A    between atoms: C_2  and  S_16
    2  A    between atoms: C_7  and  C_17
    3  A    between atoms: C_10  and  C_21
    4  A    between atoms: S_16  and  C_46
    5  A    between atoms: C_19  and  N_29
    6  A    between atoms: C_19  and  C_37
    7  A    between atoms: N_20  and  C_30
    8  A    between atoms: C_22  and  C_31
    9  A    between atoms: C_26  and  N_29
                            x       y       z     vdW  Elec       q    Type
                         _______ _______ _______ _____ _____    ______ ____

>  <TORSDO>
F 9

$$$$
=
 OpenBabel10222421403D

 47 53  0  0  1  0  0  0  0  0999 V2000
  188.1810  177.3460  142.3380 F   0  0  0  0  0  0  0  0  0  0  0  0
  188.8500  176.4140  138.0940 C   0  0  1  0  0  3  0  0  0  0  0  0
  189.6070  177.3930  140.4170 C   0  0  0  0  0  0  0  0  0  0  0  0
  191.2130  177.2540  138.3940 C   0  0  1  0  0  3  0  0  0  0  0  0
  192.0110  177.5350  140.7430 C   0  0  0  0  0  3  0  0  0  0  0  0
  189.9950  177.1980  137.4690 C   0  0  0  0  0  2  0  0  0  0  0  0
  188.1370  177.4670  139.3790 S   0  0  0  0  0  0  0  0  0  0  0  0
  189.4330  177.3820  141.8110 C   0  0  0  0  0  0  0  0  0  0  0  0
  190.9160  177.4300  139.8720 C   0  0  0  0  0  0  0  0  0  0  0  0
  190.5450  177.4600  142.6620 C   0  0  0  0  0  0  0  0  0  0  0  0
  191.8270  177.5580  142.1250 C   0  0  0  0  0  3  0  0  0  0  0  0
  187.2710  175.3150  134.8530 N   0  0  0  0  0  0  0  0  0  0  0  0
  184.0570  175.4590  136.4880 C   0  0  0  0  0  2  0  0  0  0  0  0
  183.8070  175.0200  135.0600 C   0  0  0  0  0  3  0  0  0  0  0  0
  187.7960  176.0500  137.0920 C   0  0  0  0  0  0  0  0  0  0  0  0
  186.4290  175.9860  137.4370 C   0  0  0  0  0  3  0  0  0  0  0  0
  184.8900  174.9170  134.3490 N   0  0  0  0  0  0  0  0  0  0  0  0
  188.1950  175.6950  135.7840 C   0  0  0  0  0  3  0  0  0  0  0  0
  185.9600  175.2730  135.2000 C   0  0  0  0  0  0  0  0  0  0  0  0
  185.5310  175.5960  136.4500 C   0  0  0  0  0  0  0  0  0  0  0  0
  193.0330  176.0740  137.2420 C   0  0  0  0  0  3  0  0  0  0  0  0
  192.0760  176.0500  138.1670 C   0  0  0  0  0  3  0  0  0  0  0  0
  194.0720  174.6400  136.9850 S   0  0  0  0  0  0  0  0  0  0  0  0
  191.8790  171.6730  135.3440 N   0  0  0  0  0  0  0  0  0  0  0  0
  191.6180  172.7850  134.4320 C   0  0  0  0  0  2  0  0  0  0  0  0
  192.9290  172.1380  136.2680 C   0  0  2  0  0  3  0  0  0  0  0  0
  192.1400  174.0610  135.0780 C   0  0  0  0  0  2  0  0  0  0  0  0
  192.6590  173.6260  136.4280 C   0  0  2  0  0  3  0  0  0  0  0  0
  197.4750  171.0210  137.3240 C   0  0  0  0  0  1  0  0  0  0  0  0
  196.3790  170.1370  136.7650 C   0  0  0  0  0  0  0  0  0  0  0  0
  196.6890  169.1420  135.6680 C   0  0  0  0  0  1  0  0  0  0  0  0
  194.3410  171.8420  135.8030 C   0  0  0  0  0  0  0  0  0  0  0  0
  195.1220  170.8870  136.5100 N   0  0  0  0  0  0  0  0  0  0  0  0
  195.3090  169.8620  137.5870 C   0  0  0  0  0  2  0  0  0  0  0  0
  194.8390  172.4470  134.8150 O   0  0  0  0  0  0  0  0  0  0  0  0
  192.2460  170.4950  134.5610 C   0  0  0  0  0  2  0  0  0  0  0  0
  191.0770  169.6580  134.3610 N   0  0  0  0  0  1  0  0  0  0  0  0
  190.3730  177.5130  144.1470 C   0  0  0  0  0  2  0  0  0  0  0  0
  189.1340  176.8510  144.5360 N   0  0  0  0  0  2  0  0  0  0  0  0
  186.2520  178.1040  146.4030 C   0  0  0  0  0  0  0  0  0  0  0  0
  186.8840  178.4720  147.7130 C   0  0  0  0  0  2  0  0  0  0  0  0
  187.9110  177.4040  148.0980 C   0  0  0  0  0  2  0  0  0  0  0  0
  184.9020  178.1100  146.2660 F   0  0  0  0  0  0  0  0  0  0  0  0
  188.5200  177.6470  145.5870 C   0  0  2  0  0  3  0  0  0  0  0  0
  188.9160  177.0940  146.9700 C   0  0  1  0  0  3  0  0  0  0  0  0
  190.1780  177.5730  147.3220 O   0  0  0  0  0  1  0  0  0  0  0  0
  187.0270  177.6810  145.4000 C   0  0  0  0  0  3  0  0  0  0  0  0
  2 15  1  6  0  0  0
  2  7  1  0  0  0  0
  3  8  1  0  0  0  0
  4 22  1  1  0  0  0
  4  9  1  0  0  0  0
  5 11  2  0  0  0  0
  6  2  1  0  0  0  0
  6  4  1  0  0  0  0
  7  3  1  0  0  0  0
  8  1  1  0  0  0  0
  8 10  2  0  0  0  0
  9  3  2  0  0  0  0
  9  5  1  0  0  0  0
 10 38  1  0  0  0  0
 11 10  1  0  0  0  0
 12 19  2  0  0  0  0
 12 18  1  0  0  0  0
 14 13  1  0  0  0  0
 15 16  1  0  0  0  0
 17 14  2  0  0  0  0
 17 19  1  0  0  0  0
 18 15  2  0  0  0  0
 19 20  1  0  0  0  0
 20 13  1  0  0  0  0
 20 16  2  0  0  0  0
 21 22  2  0  0  0  0
 23 21  1  0  0  0  0
 24 26  1  0  0  0  0
 25 27  1  0  0  0  0
 25 24  1  0  0  0  0
 26 32  1  6  0  0  0
 26 28  1  0  0  0  0
 27 28  1  0  0  0  0
 28 23  1  6  0  0  0
 30 29  1  0  0  0  0
 30 34  1  0  0  0  0
 31 30  1  0  0  0  0
 32 33  1  0  0  0  0
 33 30  1  0  0  0  0
 33 34  1  0  0  0  0
 35 32  2  0  0  0  0
 36 24  1  0  0  0  0
 37 36  1  0  0  0  0
 38 39  1  0  0  0  0
 40 41  1  0  0  0  0
 41 42  1  0  0  0  0
 43 40  1  0  0  0  0
 44 39  1  6  0  0  0
 44 45  1  0  0  0  0
 45 46  1  1  0  0  0
 45 42  1  0  0  0  0
 47 44  1  0  0  0  0
 47 40  2  0  0  0  0
M  END
>  <MODEL>
8

>  <REMARK>
 VINA RESULT:      -7.2      1.680      2.454
  Name = 
  9 active torsions:
  status: ('A' for Active; 'I' for Inactive)
    1  A    between atoms: C_2  and  S_16
    2  A    between atoms: C_7  and  C_17
    3  A    between atoms: C_10  and  C_21
    4  A    between atoms: S_16  and  C_46
    5  A    between atoms: C_19  and  N_29
    6  A    between atoms: C_19  and  C_37
    7  A    between atoms: N_20  and  C_30
    8  A    between atoms: C_22  and  C_31
    9  A    between atoms: C_26  and  N_29
                            x       y       z     vdW  Elec       q    Type
                         _______ _______ _______ _____ _____    ______ ____

>  <TORSDO>
F 9

$$$$
=
 OpenBabel10222421403D

 47 53  0  0  1  0  0  0  0  0999 V2000
  188.0980  177.8030  142.3960 F   0  0  0  0  0  0  0  0  0  0  0  0
  186.5680  177.7500  138.2750 C   0  0  1  0  0  3  0  0  0  0  0  0
  188.4950  178.0250  140.0460 C   0  0  0  0  0  0  0  0  0  0  0  0
  188.9530  178.0600  137.5010 C   0  0  1  0  0  3  0  0  0  0  0  0
  190.7410  177.6530  139.1950 C   0  0  0  0  0  3  0  0  0  0  0  0
  187.4870  178.4350  137.2720 C   0  0  0  0  0  2  0  0  0  0  0  0
  186.7980  178.5960  139.8560 S   0  0  0  0  0  0  0  0  0  0  0  0
  188.9530  177.7300  141.3420 C   0  0  0  0  0  0  0  0  0  0  0  0
  189.3910  177.9470  138.9500 C   0  0  0  0  0  0  0  0  0  0  0  0
  190.3010  177.4110  141.5590 C   0  0  0  0  0  0  0  0  0  0  0  0
  191.1940  177.3950  140.4890 C   0  0  0  0  0  3  0  0  0  0  0  0
  183.4370  177.2570  136.2370 N   0  0  0  0  0  0  0  0  0  0  0  0
  181.5820  178.8580  138.8860 C   0  0  0  0  0  2  0  0  0  0  0  0
  180.5840  178.4900  137.8080 C   0  0  0  0  0  3  0  0  0  0  0  0
  185.1280  177.8180  137.8650 C   0  0  0  0  0  0  0  0  0  0  0  0
  184.1380  178.3670  138.7080 C   0  0  0  0  0  3  0  0  0  0  0  0
  181.1180  177.8930  136.7840 N   0  0  0  0  0  0  0  0  0  0  0  0
  184.7450  177.2540  136.6270 C   0  0  0  0  0  3  0  0  0  0  0  0
  182.5020  177.8010  137.0550 C   0  0  0  0  0  0  0  0  0  0  0  0
  182.8230  178.3460  138.2590 C   0  0  0  0  0  0  0  0  0  0  0  0
  189.7920  176.8640  135.5260 C   0  0  0  0  0  3  0  0  0  0  0  0
  189.2760  176.8030  136.7510 C   0  0  0  0  0  3  0  0  0  0  0  0
  190.1910  175.3620  134.6400 S   0  0  0  0  0  0  0  0  0  0  0  0
  187.8910  172.3850  136.1080 N   0  0  0  0  0  0  0  0  0  0  0  0
  187.1340  172.8010  134.9280 C   0  0  0  0  0  2  0  0  0  0  0  0
  189.1670  173.1190  136.0570 C   0  0  2  0  0  3  0  0  0  0  0  0
  187.7200  174.1140  134.4290 C   0  0  0  0  0  2  0  0  0  0  0  0
  188.8100  174.4520  135.4170 C   0  0  2  0  0  3  0  0  0  0  0  0
  193.6510  173.0690  134.3470 C   0  0  0  0  0  1  0  0  0  0  0  0
  193.0890  172.3820  135.5760 C   0  0  0  0  0  0  0  0  0  0  0  0
  193.5070  170.9680  135.9150 C   0  0  0  0  0  1  0  0  0  0  0  0
  190.2740  172.3900  135.3210 C   0  0  0  0  0  0  0  0  0  0  0  0
  191.6250  172.5900  135.7190 N   0  0  0  0  0  0  0  0  0  0  0  0
  192.6700  173.1860  136.6120 C   0  0  0  0  0  2  0  0  0  0  0  0
  190.0160  171.6310  134.3480 O   0  0  0  0  0  0  0  0  0  0  0  0
  188.0330  170.9300  136.0900 C   0  0  0  0  0  2  0  0  0  0  0  0
  186.9850  170.3460  135.2730 N   0  0  0  0  0  1  0  0  0  0  0  0
  190.8170  177.1570  142.9390 C   0  0  0  0  0  2  0  0  0  0  0  0
  189.7710  176.5740  143.7710 N   0  0  0  0  0  2  0  0  0  0  0  0
  188.1220  177.8090  146.7910 C   0  0  0  0  0  0  0  0  0  0  0  0
  189.2930  178.0080  147.7080 C   0  0  0  0  0  2  0  0  0  0  0  0
  190.2760  176.8470  147.5340 C   0  0  0  0  0  2  0  0  0  0  0  0
  186.8540  177.9100  147.2640 F   0  0  0  0  0  0  0  0  0  0  0  0
  189.7550  177.2990  145.0320 C   0  0  2  0  0  3  0  0  0  0  0  0
  190.6550  176.5890  146.0620 C   0  0  1  0  0  3  0  0  0  0  0  0
  191.9850  176.9540  145.8500 O   0  0  0  0  0  1  0  0  0  0  0  0
  188.3400  177.4410  145.5250 C   0  0  0  0  0  3  0  0  0  0  0  0
  2 15  1  6  0  0  0
  2  7  1  0  0  0  0
  3  8  1  0  0  0  0
  4 22  1  6  0  0  0
  4  9  1  0  0  0  0
  5 11  2  0  0  0  0
  6  4  1  0  0  0  0
  6  2  1  0  0  0  0
  7  3  1  0  0  0  0
  8 10  2  0  0  0  0
  8  1  1  0  0  0  0
  9  5  1  0  0  0  0
  9  3  2  0  0  0  0
 10 38  1  0  0  0  0
 11 10  1  0  0  0  0
 12 18  1  0  0  0  0
 12 19  2  0  0  0  0
 14 13  1  0  0  0  0
 15 16  1  0  0  0  0
 17 19  1  0  0  0  0
 17 14  2  0  0  0  0
 18 15  2  0  0  0  0
 19 20  1  0  0  0  0
 20 16  2  0  0  0  0
 20 13  1  0  0  0  0
 21 22  2  0  0  0  0
 23 21  1  0  0  0  0
 25 24  1  0  0  0  0
 26 32  1  6  0  0  0
 26 24  1  0  0  0  0
 27 25  1  0  0  0  0
 27 28  1  0  0  0  0
 28 23  1  6  0  0  0
 28 26  1  0  0  0  0
 29 30  1  0  0  0  0
 30 33  1  0  0  0  0
 30 31  1  0  0  0  0
 30 34  1  0  0  0  0
 32 33  1  0  0  0  0
 33 34  1  0  0  0  0
 35 32  2  0  0  0  0
 36 24  1  0  0  0  0
 37 36  1  0  0  0  0
 38 39  1  0  0  0  0
 40 43  1  0  0  0  0
 40 41  1  0  0  0  0
 42 41  1  0  0  0  0
 44 39  1  6  0  0  0
 44 47  1  0  0  0  0
 44 45  1  0  0  0  0
 45 46  1  1  0  0  0
 45 42  1  0  0  0  0
 47 40  2  0  0  0  0
M  END
>  <MODEL>
9

>  <REMARK>
 VINA RESULT:      -7.1      2.733      4.476
  Name = 
  9 active torsions:
  status: ('A' for Active; 'I' for Inactive)
    1  A    between atoms: C_2  and  S_16
    2  A    between atoms: C_7  and  C_17
    3  A    between atoms: C_10  and  C_21
    4  A    between atoms: S_16  and  C_46
    5  A    between atoms: C_19  and  N_29
    6  A    between atoms: C_19  and  C_37
    7  A    between atoms: N_20  and  C_30
    8  A    between atoms: C_22  and  C_31
    9  A    between atoms: C_26  and  N_29
                            x       y       z     vdW  Elec       q    Type
                         _______ _______ _______ _____ _____    ______ ____

>  <TORSDO>
F 9

$$$$
