=
 OpenBabel10232411463D

 27 30  0  0  1  0  0  0  0  0999 V2000
  187.7300  177.0860  144.9210 C   0  0  2  0  0  3  0  0  0  0  0  0
  186.4110  177.2860  142.8520 C   0  0  0  0  0  2  0  0  0  0  0  0
  185.3400  178.0520  143.5730 C   0  0  0  0  0  0  0  0  0  0  0  0
  187.7510  177.5860  143.4780 C   0  0  0  0  0  2  0  0  0  0  0  0
  186.5820  177.6420  145.7910 C   0  0  2  0  0  3  0  0  0  0  0  0
  185.3530  178.0880  145.0910 C   0  0  1  0  0  3  0  0  0  0  0  0
  186.3530  179.0740  145.5410 N   0  0  0  0  0  2  0  0  0  0  0  0
  184.3680  178.7030  142.8830 C   0  0  0  0  0  0  0  0  0  0  0  0
  183.2900  179.4530  143.6460 C   0  0  1  0  0  3  0  0  0  0  0  0
  182.0340  179.1120  143.1560 C   0  0  0  0  0  0  0  0  0  0  0  0
  180.8760  179.1560  142.0080 S   0  0  0  0  0  0  0  0  0  0  0  0
  182.5640  178.6260  144.5090 N   0  0  0  0  0  2  0  0  0  0  0  0
  183.6910  177.6760  140.8370 O   0  0  0  0  0  0  0  0  0  0  0  0
  184.9370  179.6180  140.5930 N   0  0  0  0  0  1  0  0  0  0  0  0
  184.3060  178.6240  141.3980 C   0  0  0  0  0  0  0  0  0  0  0  0
  189.0860  177.2060  145.6340 C   0  0  2  0  0  3  0  0  0  0  0  0
  190.0260  177.4640  147.8830 N   0  0  0  0  0  2  0  0  0  0  0  0
  189.0280  177.9950  146.9420 C   0  0  2  0  0  3  0  0  0  0  0  0
  188.6030  177.1270  148.0370 C   0  0  2  0  0  3  0  0  0  0  0  0
  188.0530  177.9060  149.0530 O   0  0  0  0  0  1  0  0  0  0  0  0
  190.3270  178.9390  144.6350 O   0  0  0  0  0  0  0  0  0  0  0  0
  190.1680  177.7310  144.7320 C   0  0  0  0  0  0  0  0  0  0  0  0
  191.7780  177.6210  142.6150 C   0  0  0  0  0  2  0  0  0  0  0  0
  191.1920  176.6400  143.7550 S   0  0  0  0  0  0  0  0  0  0  0  0
  191.5430  177.3150  141.1760 C   0  0  0  0  0  2  0  0  0  0  0  0
  190.2400  176.6940  141.0180 N   0  0  0  0  0  2  0  0  0  0  0  0
  189.4610  177.5740  140.1650 C   0  0  0  0  0  1  0  0  0  0  0  0
  1 16  1  1  0  0  0
  1  5  1  0  0  0  0
  2  4  1  0  0  0  0
  2  3  1  0  0  0  0
  4  1  1  0  0  0  0
  5  7  1  6  0  0  0
  6  3  1  6  0  0  0
  6  7  1  0  0  0  0
  6  5  1  0  0  0  0
  8  3  2  0  0  0  0
  9  8  1  6  0  0  0
  9 12  1  0  0  0  0
 10  9  1  0  0  0  0
 10 12  1  0  0  0  0
 11 10  2  0  0  0  0
 13 15  2  0  0  0  0
 14 15  1  0  0  0  0
 15  8  1  0  0  0  0
 16 22  1  6  0  0  0
 17 19  1  0  0  0  0
 18 16  1  6  0  0  0
 18 17  1  0  0  0  0
 18 19  1  0  0  0  0
 19 20  1  1  0  0  0
 21 22  2  0  0  0  0
 23 24  1  0  0  0  0
 24 22  1  0  0  0  0
 25 23  1  0  0  0  0
 26 25  1  0  0  0  0
 27 26  1  0  0  0  0
M  END
>  <MODEL>
1

>  <REMARK>
 VINA RESULT:      -7.3      0.000      0.000
  Name = 
  8 active torsions:
  status: ('A' for Active; 'I' for Inactive)
    1  A    between atoms: C_1  and  C_24
    2  A    between atoms: C_2  and  C_17
    3  A    between atoms: C_3  and  C_10
    4  A    between atoms: C_10  and  CA_16
    5  A    between atoms: C_10  and  C_25
    6  A    between atoms: S_13  and  C_25
    7  A    between atoms: N_14  and  C_17
    8  A    between atoms: C_24  and  C_27
                            x       y       z     vdW  Elec       q    Type
                         _______ _______ _______ _____ _____    ______ ____

>  <TORSDO>
F 8

$$$$
=
 OpenBabel10232411463D

 27 30  0  0  1  0  0  0  0  0999 V2000
  189.3880  178.0830  142.7840 C   0  0  2  0  0  3  0  0  0  0  0  0
  188.8000  178.4670  140.4250 C   0  0  0  0  0  2  0  0  0  0  0  0
  189.8890  177.5390  139.9710 C   0  0  0  0  0  0  0  0  0  0  0  0
  188.2620  177.9990  141.7550 C   0  0  0  0  0  2  0  0  0  0  0  0
  190.6750  177.3160  142.4130 C   0  0  2  0  0  3  0  0  0  0  0  0
  190.9390  177.0880  140.9710 C   0  0  1  0  0  3  0  0  0  0  0  0
  190.3760  176.0090  141.8060 N   0  0  0  0  0  2  0  0  0  0  0  0
  189.9430  177.1090  138.6840 C   0  0  0  0  0  0  0  0  0  0  0  0
  191.0700  176.1850  138.2560 C   0  0  1  0  0  3  0  0  0  0  0  0
  190.5980  175.2480  137.3430 C   0  0  0  0  0  0  0  0  0  0  0  0
  189.7270  173.9230  136.9600 S   0  0  0  0  0  0  0  0  0  0  0  0
  191.4970  176.4230  136.9460 N   0  0  0  0  0  2  0  0  0  0  0  0
  187.8820  176.9650  137.4880 O   0  0  0  0  0  0  0  0  0  0  0  0
  189.2210  178.7730  136.9200 N   0  0  0  0  0  1  0  0  0  0  0  0
  188.9590  177.5930  137.6780 C   0  0  0  0  0  0  0  0  0  0  0  0
  188.9350  177.7630  144.2180 C   0  0  2  0  0  3  0  0  0  0  0  0
  189.6280  176.9820  146.4360 N   0  0  0  0  0  2  0  0  0  0  0  0
  189.9220  176.8940  144.9980 C   0  0  2  0  0  3  0  0  0  0  0  0
  190.7570  177.7270  145.8600 C   0  0  2  0  0  3  0  0  0  0  0  0
  191.9440  177.0520  146.1390 O   0  0  0  0  0  1  0  0  0  0  0  0
  187.3540  176.0630  143.8320 O   0  0  0  0  0  0  0  0  0  0  0  0
  187.5470  177.1880  144.2710 C   0  0  0  0  0  0  0  0  0  0  0  0
  185.1280  178.1170  143.6680 C   0  0  0  0  0  2  0  0  0  0  0  0
  186.1640  178.1220  144.9060 S   0  0  0  0  0  0  0  0  0  0  0  0
  184.6490  179.4060  143.0920 C   0  0  0  0  0  2  0  0  0  0  0  0
  185.3330  179.6590  141.8360 N   0  0  0  0  0  2  0  0  0  0  0  0
  184.6740  178.8440  140.8320 C   0  0  0  0  0  1  0  0  0  0  0  0
  1 16  1  1  0  0  0
  2  4  1  0  0  0  0
  3  2  1  0  0  0  0
  4  1  1  0  0  0  0
  5  7  1  1  0  0  0
  5  1  1  0  0  0  0
  6  3  1  6  0  0  0
  6  7  1  0  0  0  0
  6  5  1  0  0  0  0
  8  3  2  0  0  0  0
  9  8  1  6  0  0  0
 10  9  1  0  0  0  0
 11 10  2  0  0  0  0
 12 10  1  0  0  0  0
 12  9  1  0  0  0  0
 13 15  2  0  0  0  0
 14 15  1  0  0  0  0
 15  8  1  0  0  0  0
 16 22  1  6  0  0  0
 18 16  1  6  0  0  0
 18 19  1  0  0  0  0
 18 17  1  0  0  0  0
 19 20  1  1  0  0  0
 19 17  1  0  0  0  0
 21 22  2  0  0  0  0
 22 24  1  0  0  0  0
 23 24  1  0  0  0  0
 25 23  1  0  0  0  0
 26 25  1  0  0  0  0
 27 26  1  0  0  0  0
M  END
>  <MODEL>
2

>  <REMARK>
 VINA RESULT:      -7.3      2.941      6.322
  Name = 
  8 active torsions:
  status: ('A' for Active; 'I' for Inactive)
    1  A    between atoms: C_1  and  C_24
    2  A    between atoms: C_2  and  C_17
    3  A    between atoms: C_3  and  C_10
    4  A    between atoms: C_10  and  CA_16
    5  A    between atoms: C_10  and  C_25
    6  A    between atoms: S_13  and  C_25
    7  A    between atoms: N_14  and  C_17
    8  A    between atoms: C_24  and  C_27
                            x       y       z     vdW  Elec       q    Type
                         _______ _______ _______ _____ _____    ______ ____

>  <TORSDO>
F 8

$$$$
=
 OpenBabel10232411463D

 27 30  0  0  1  0  0  0  0  0999 V2000
  186.4710  178.7460  143.5670 C   0  0  2  0  0  3  0  0  0  0  0  0
  187.0400  178.9630  141.1820 C   0  0  0  0  0  2  0  0  0  0  0  0
  188.2200  178.0500  141.3490 C   0  0  0  0  0  0  0  0  0  0  0  0
  185.9500  178.5570  142.1430 C   0  0  0  0  0  2  0  0  0  0  0  0
  187.7870  178.0060  143.8880 C   0  0  2  0  0  3  0  0  0  0  0  0
  188.6890  177.7000  142.7510 C   0  0  1  0  0  3  0  0  0  0  0  0
  187.8090  176.6540  143.3060 N   0  0  0  0  0  2  0  0  0  0  0  0
  188.8650  177.5440  140.2670 C   0  0  0  0  0  0  0  0  0  0  0  0
  190.0660  176.6380  140.4750 C   0  0  1  0  0  3  0  0  0  0  0  0
  190.7140  176.4190  139.2640 C   0  0  0  0  0  0  0  0  0  0  0  0
  190.8020  175.7480  137.7790 S   0  0  0  0  0  0  0  0  0  0  0  0
  191.2830  177.3190  140.3640 N   0  0  0  0  0  2  0  0  0  0  0  0
  187.6120  177.2360  138.2580 O   0  0  0  0  0  0  0  0  0  0  0  0
  189.0120  179.0870  138.2670 N   0  0  0  0  0  1  0  0  0  0  0  0
  188.4570  177.9290  138.8890 C   0  0  0  0  0  0  0  0  0  0  0  0
  185.4070  178.4970  144.6490 C   0  0  2  0  0  3  0  0  0  0  0  0
  183.0990  178.8540  145.3930 N   0  0  0  0  0  2  0  0  0  0  0  0
  184.1410  179.3350  144.4730 C   0  0  2  0  0  3  0  0  0  0  0  0
  183.0520  178.5050  143.9650 C   0  0  2  0  0  3  0  0  0  0  0  0
  182.1170  179.3170  143.3240 O   0  0  0  0  0  1  0  0  0  0  0  0
  185.8010  179.6830  146.6440 O   0  0  0  0  0  0  0  0  0  0  0  0
  185.9570  178.6300  146.0420 C   0  0  0  0  0  0  0  0  0  0  0  0
  187.7190  178.0870  147.9610 C   0  0  0  0  0  2  0  0  0  0  0  0
  186.8800  177.3130  146.8200 S   0  0  0  0  0  0  0  0  0  0  0  0
  189.2070  178.0020  147.9790 C   0  0  0  0  0  2  0  0  0  0  0  0
  189.6290  176.7720  147.3330 N   0  0  0  0  0  2  0  0  0  0  0  0
  191.0800  176.8000  147.2930 C   0  0  0  0  0  1  0  0  0  0  0  0
  1  5  1  0  0  0  0
  1 16  1  1  0  0  0
  2  3  1  0  0  0  0
  2  4  1  0  0  0  0
  4  1  1  0  0  0  0
  5  7  1  6  0  0  0
  6  3  1  6  0  0  0
  6  7  1  0  0  0  0
  6  5  1  0  0  0  0
  8  3  2  0  0  0  0
  9  8  1  6  0  0  0
 10 12  1  0  0  0  0
 10  9  1  0  0  0  0
 11 10  2  0  0  0  0
 12  9  1  0  0  0  0
 13 15  2  0  0  0  0
 14 15  1  0  0  0  0
 15  8  1  0  0  0  0
 16 22  1  1  0  0  0
 18 16  1  1  0  0  0
 18 17  1  0  0  0  0
 19 20  1  6  0  0  0
 19 18  1  0  0  0  0
 19 17  1  0  0  0  0
 22 21  2  0  0  0  0
 22 24  1  0  0  0  0
 23 25  1  0  0  0  0
 24 23  1  0  0  0  0
 26 25  1  0  0  0  0
 27 26  1  0  0  0  0
M  END
>  <MODEL>
3

>  <REMARK>
 VINA RESULT:      -7.0      2.862      6.197
  Name = 
  8 active torsions:
  status: ('A' for Active; 'I' for Inactive)
    1  A    between atoms: C_1  and  C_24
    2  A    between atoms: C_2  and  C_17
    3  A    between atoms: C_3  and  C_10
    4  A    between atoms: C_10  and  CA_16
    5  A    between atoms: C_10  and  C_25
    6  A    between atoms: S_13  and  C_25
    7  A    between atoms: N_14  and  C_17
    8  A    between atoms: C_24  and  C_27
                            x       y       z     vdW  Elec       q    Type
                         _______ _______ _______ _____ _____    ______ ____

>  <TORSDO>
F 8

$$$$
=
 OpenBabel10232411463D

 27 30  0  0  1  0  0  0  0  0999 V2000
  185.2170  178.1130  143.6840 C   0  0  2  0  0  3  0  0  0  0  0  0
  186.2840  177.6910  145.8630 C   0  0  0  0  0  2  0  0  0  0  0  0
  187.5670  177.2950  145.1920 C   0  0  0  0  0  0  0  0  0  0  0  0
  185.5830  178.7370  145.0300 C   0  0  0  0  0  2  0  0  0  0  0  0
  186.3980  177.4930  142.9060 C   0  0  2  0  0  3  0  0  0  0  0  0
  187.5690  177.0390  143.6950 C   0  0  1  0  0  3  0  0  0  0  0  0
  187.6040  178.3320  142.9850 N   0  0  0  0  0  2  0  0  0  0  0  0
  188.7130  177.1620  145.9080 C   0  0  0  0  0  0  0  0  0  0  0  0
  189.9880  176.7420  145.1990 C   0  0  1  0  0  3  0  0  0  0  0  0
  190.7610  177.8600  144.9050 C   0  0  0  0  0  0  0  0  0  0  0  0
  191.0580  179.2230  144.0600 S   0  0  0  0  0  0  0  0  0  0  0  0
  191.1230  176.8600  146.0090 N   0  0  0  0  0  2  0  0  0  0  0  0
  188.4670  176.3710  148.1480 O   0  0  0  0  0  0  0  0  0  0  0  0
  188.9920  178.6230  147.9550 N   0  0  0  0  0  1  0  0  0  0  0  0
  188.7120  177.3460  147.3850 C   0  0  0  0  0  0  0  0  0  0  0  0
  184.3730  179.0340  142.7890 C   0  0  2  0  0  3  0  0  0  0  0  0
  182.1440  179.9690  143.1900 N   0  0  0  0  0  2  0  0  0  0  0  0
  182.8740  178.7420  142.8410 C   0  0  2  0  0  3  0  0  0  0  0  0
  182.3700  178.9250  144.2000 C   0  0  2  0  0  3  0  0  0  0  0  0
  181.2040  178.1790  144.3610 O   0  0  0  0  0  1  0  0  0  0  0  0
  185.8710  179.7260  141.1100 O   0  0  0  0  0  0  0  0  0  0  0  0
  184.8700  179.0740  141.3700 C   0  0  0  0  0  0  0  0  0  0  0  0
  183.7240  179.4310  138.9960 C   0  0  0  0  0  2  0  0  0  0  0  0
  184.0080  178.2390  140.0460 S   0  0  0  0  0  0  0  0  0  0  0  0
  182.3270  179.7380  138.5780 C   0  0  0  0  0  2  0  0  0  0  0  0
  181.3960  179.0980  139.4910 N   0  0  0  0  0  2  0  0  0  0  0  0
  180.4980  180.1360  139.9650 C   0  0  0  0  0  1  0  0  0  0  0  0
  1 16  1  6  0  0  0
  1  4  1  0  0  0  0
  3  2  1  0  0  0  0
  3  8  2  0  0  0  0
  4  2  1  0  0  0  0
  5  7  1  6  0  0  0
  5  1  1  0  0  0  0
  5  6  1  0  0  0  0
  6  7  1  6  0  0  0
  6  3  1  0  0  0  0
  8 15  1  0  0  0  0
  9  8  1  1  0  0  0
  9 12  1  0  0  0  0
 10  9  1  0  0  0  0
 10 12  1  0  0  0  0
 11 10  2  0  0  0  0
 15 14  1  0  0  0  0
 15 13  2  0  0  0  0
 16 22  1  6  0  0  0
 17 19  1  0  0  0  0
 18 16  1  1  0  0  0
 18 17  1  0  0  0  0
 18 19  1  0  0  0  0
 19 20  1  6  0  0  0
 21 22  2  0  0  0  0
 23 24  1  0  0  0  0
 24 22  1  0  0  0  0
 25 23  1  0  0  0  0
 25 26  1  0  0  0  0
 26 27  1  0  0  0  0
M  END
>  <MODEL>
4

>  <REMARK>
 VINA RESULT:      -7.0      2.291      7.246
  Name = 
  8 active torsions:
  status: ('A' for Active; 'I' for Inactive)
    1  A    between atoms: C_1  and  C_24
    2  A    between atoms: C_2  and  C_17
    3  A    between atoms: C_3  and  C_10
    4  A    between atoms: C_10  and  CA_16
    5  A    between atoms: C_10  and  C_25
    6  A    between atoms: S_13  and  C_25
    7  A    between atoms: N_14  and  C_17
    8  A    between atoms: C_24  and  C_27
                            x       y       z     vdW  Elec       q    Type
                         _______ _______ _______ _____ _____    ______ ____

>  <TORSDO>
F 8

$$$$
=
 OpenBabel10232411463D

 27 30  0  0  1  0  0  0  0  0999 V2000
  185.8090  178.4410  144.2410 C   0  0  2  0  0  3  0  0  0  0  0  0
  183.4370  179.1000  144.2880 C   0  0  0  0  0  2  0  0  0  0  0  0
  183.3700  179.0800  142.7880 C   0  0  0  0  0  0  0  0  0  0  0  0
  184.4230  178.0600  144.7610 C   0  0  0  0  0  2  0  0  0  0  0  0
  185.9050  178.6310  142.7120 C   0  0  2  0  0  3  0  0  0  0  0  0
  184.6620  179.0030  141.9930 C   0  0  1  0  0  3  0  0  0  0  0  0
  185.1400  177.6070  141.9840 N   0  0  0  0  0  2  0  0  0  0  0  0
  182.1750  179.1340  142.1460 C   0  0  0  0  0  0  0  0  0  0  0  0
  182.1480  179.1300  140.6270 C   0  0  1  0  0  3  0  0  0  0  0  0
  181.8430  177.8570  140.1590 C   0  0  0  0  0  0  0  0  0  0  0  0
  182.2230  176.2940  139.8890 S   0  0  0  0  0  0  0  0  0  0  0  0
  180.8530  179.0240  140.1090 N   0  0  0  0  0  2  0  0  0  0  0  0
  180.3870  180.4130  143.0760 O   0  0  0  0  0  0  0  0  0  0  0  0
  180.2610  178.1280  143.4590 N   0  0  0  0  0  1  0  0  0  0  0  0
  180.9060  179.2750  142.9100 C   0  0  0  0  0  0  0  0  0  0  0  0
  186.9330  177.5340  144.7680 C   0  0  2  0  0  3  0  0  0  0  0  0
  188.2530  177.0660  146.7790 N   0  0  0  0  0  2  0  0  0  0  0  0
  187.7210  178.1410  145.9280 C   0  0  2  0  0  3  0  0  0  0  0  0
  187.0700  177.8310  147.1980 C   0  0  2  0  0  3  0  0  0  0  0  0
  187.4480  178.7770  148.1500 O   0  0  0  0  0  1  0  0  0  0  0  0
  187.7100  175.9290  143.2320 O   0  0  0  0  0  0  0  0  0  0  0  0
  187.8510  177.0600  143.6760 C   0  0  0  0  0  0  0  0  0  0  0  0
  190.3620  177.0150  142.7960 C   0  0  0  0  0  2  0  0  0  0  0  0
  189.1760  178.0800  143.0490 S   0  0  0  0  0  0  0  0  0  0  0  0
  191.6790  177.1910  143.4710 C   0  0  0  0  0  2  0  0  0  0  0  0
  191.4710  177.7230  144.8060 N   0  0  0  0  0  2  0  0  0  0  0  0
  191.6390  176.6140  145.7280 C   0  0  0  0  0  1  0  0  0  0  0  0
  1  4  1  0  0  0  0
  1 16  1  6  0  0  0
  2  4  1  0  0  0  0
  3  2  1  0  0  0  0
  5  7  1  6  0  0  0
  5  1  1  0  0  0  0
  6  7  1  6  0  0  0
  6  5  1  0  0  0  0
  6  3  1  0  0  0  0
  8  3  2  0  0  0  0
  8 15  1  0  0  0  0
  9  8  1  1  0  0  0
 10  9  1  0  0  0  0
 11 10  2  0  0  0  0
 12 10  1  0  0  0  0
 12  9  1  0  0  0  0
 15 13  2  0  0  0  0
 15 14  1  0  0  0  0
 16 22  1  6  0  0  0
 17 19  1  0  0  0  0
 18 16  1  6  0  0  0
 18 17  1  0  0  0  0
 18 19  1  0  0  0  0
 19 20  1  1  0  0  0
 21 22  2  0  0  0  0
 23 24  1  0  0  0  0
 23 25  1  0  0  0  0
 24 22  1  0  0  0  0
 25 26  1  0  0  0  0
 26 27  1  0  0  0  0
M  END
>  <MODEL>
5

>  <REMARK>
 VINA RESULT:      -6.9      2.314      3.450
  Name = 
  8 active torsions:
  status: ('A' for Active; 'I' for Inactive)
    1  A    between atoms: C_1  and  C_24
    2  A    between atoms: C_2  and  C_17
    3  A    between atoms: C_3  and  C_10
    4  A    between atoms: C_10  and  CA_16
    5  A    between atoms: C_10  and  C_25
    6  A    between atoms: S_13  and  C_25
    7  A    between atoms: N_14  and  C_17
    8  A    between atoms: C_24  and  C_27
                            x       y       z     vdW  Elec       q    Type
                         _______ _______ _______ _____ _____    ______ ____

>  <TORSDO>
F 8

$$$$
=
 OpenBabel10232411463D

 27 30  0  0  1  0  0  0  0  0999 V2000
  185.3410  178.1150  143.5480 C   0  0  2  0  0  3  0  0  0  0  0  0
  186.4260  177.6010  145.6970 C   0  0  0  0  0  2  0  0  0  0  0  0
  187.7130  177.2630  145.0020 C   0  0  0  0  0  0  0  0  0  0  0  0
  185.7020  178.6750  144.9230 C   0  0  0  0  0  2  0  0  0  0  0  0
  186.5280  177.5580  142.7340 C   0  0  2  0  0  3  0  0  0  0  0  0
  187.7110  177.0850  143.4940 C   0  0  1  0  0  3  0  0  0  0  0  0
  187.7200  178.4140  142.8520 N   0  0  0  0  0  2  0  0  0  0  0  0
  188.8640  177.1140  145.7060 C   0  0  0  0  0  0  0  0  0  0  0  0
  190.1430  176.7540  144.9700 C   0  0  1  0  0  3  0  0  0  0  0  0
  190.9090  177.8960  144.7590 C   0  0  0  0  0  0  0  0  0  0  0  0
  191.1970  179.3180  144.0140 S   0  0  0  0  0  0  0  0  0  0  0  0
  191.2760  176.8220  145.7880 N   0  0  0  0  0  2  0  0  0  0  0  0
  188.7200  176.1900  147.9030 O   0  0  0  0  0  0  0  0  0  0  0  0
  189.0410  178.4870  147.8230 N   0  0  0  0  0  1  0  0  0  0  0  0
  188.8680  177.2210  147.1900 C   0  0  0  0  0  0  0  0  0  0  0  0
  184.4760  179.0660  142.7050 C   0  0  2  0  0  3  0  0  0  0  0  0
  182.5600  178.5290  144.1360 N   0  0  0  0  0  2  0  0  0  0  0  0
  183.2640  179.6230  143.4520 C   0  0  2  0  0  3  0  0  0  0  0  0
  182.0300  179.0870  142.8830 C   0  0  2  0  0  3  0  0  0  0  0  0
  180.9770  179.9530  143.1750 O   0  0  0  0  0  1  0  0  0  0  0  0
  183.6030  177.3360  141.3690 O   0  0  0  0  0  0  0  0  0  0  0  0
  184.0730  178.4650  141.3870 C   0  0  0  0  0  0  0  0  0  0  0  0
  184.7060  178.1460  138.8230 C   0  0  0  0  0  2  0  0  0  0  0  0
  184.3120  179.3320  139.8440 S   0  0  0  0  0  0  0  0  0  0  0  0
  185.9970  178.2000  138.0810 C   0  0  0  0  0  2  0  0  0  0  0  0
  187.0730  178.5190  139.0020 N   0  0  0  0  0  2  0  0  0  0  0  0
  188.1430  177.5740  138.7370 C   0  0  0  0  0  1  0  0  0  0  0  0
  1 16  1  6  0  0  0
  1  4  1  0  0  0  0
  3  2  1  0  0  0  0
  3  8  2  0  0  0  0
  4  2  1  0  0  0  0
  5  7  1  6  0  0  0
  5  6  1  0  0  0  0
  5  1  1  0  0  0  0
  6  7  1  6  0  0  0
  6  3  1  0  0  0  0
  8 15  1  0  0  0  0
  9  8  1  1  0  0  0
  9 12  1  0  0  0  0
 10  9  1  0  0  0  0
 10 12  1  0  0  0  0
 11 10  2  0  0  0  0
 15 14  1  0  0  0  0
 15 13  2  0  0  0  0
 16 22  1  6  0  0  0
 18 16  1  6  0  0  0
 18 17  1  0  0  0  0
 19 20  1  1  0  0  0
 19 18  1  0  0  0  0
 19 17  1  0  0  0  0
 21 22  2  0  0  0  0
 23 24  1  0  0  0  0
 24 22  1  0  0  0  0
 25 23  1  0  0  0  0
 25 26  1  0  0  0  0
 27 26  1  0  0  0  0
M  END
>  <MODEL>
6

>  <REMARK>
 VINA RESULT:      -6.8      2.005      6.789
  Name = 
  8 active torsions:
  status: ('A' for Active; 'I' for Inactive)
    1  A    between atoms: C_1  and  C_24
    2  A    between atoms: C_2  and  C_17
    3  A    between atoms: C_3  and  C_10
    4  A    between atoms: C_10  and  CA_16
    5  A    between atoms: C_10  and  C_25
    6  A    between atoms: S_13  and  C_25
    7  A    between atoms: N_14  and  C_17
    8  A    between atoms: C_24  and  C_27
                            x       y       z     vdW  Elec       q    Type
                         _______ _______ _______ _____ _____    ______ ____

>  <TORSDO>
F 8

$$$$
=
 OpenBabel10232411463D

 27 30  0  0  1  0  0  0  0  0999 V2000
  188.1610  178.0820  144.8610 C   0  0  2  0  0  3  0  0  0  0  0  0
  185.8720  178.9880  144.8870 C   0  0  0  0  0  2  0  0  0  0  0  0
  185.6660  178.5940  143.4530 C   0  0  0  0  0  0  0  0  0  0  0  0
  186.8000  178.0020  145.5520 C   0  0  0  0  0  2  0  0  0  0  0  0
  188.1340  177.8650  143.3330 C   0  0  2  0  0  3  0  0  0  0  0  0
  186.8680  178.1760  142.6240 C   0  0  1  0  0  3  0  0  0  0  0  0
  187.2160  176.7800  142.9510 N   0  0  0  0  0  2  0  0  0  0  0  0
  184.4270  178.6140  142.8990 C   0  0  0  0  0  0  0  0  0  0  0  0
  184.2600  178.2260  141.4400 C   0  0  1  0  0  3  0  0  0  0  0  0
  183.0820  178.7640  140.9350 C   0  0  0  0  0  0  0  0  0  0  0  0
  181.4550  178.8210  140.8280 S   0  0  0  0  0  0  0  0  0  0  0  0
  184.4690  179.2990  140.5670 N   0  0  0  0  0  2  0  0  0  0  0  0
  183.0520  180.3180  143.8500 O   0  0  0  0  0  0  0  0  0  0  0  0
  182.3350  178.1460  144.2420 N   0  0  0  0  0  1  0  0  0  0  0  0
  183.2510  179.0830  143.6800 C   0  0  0  0  0  0  0  0  0  0  0  0
  189.2430  177.2220  145.5330 C   0  0  2  0  0  3  0  0  0  0  0  0
  189.5430  176.2880  147.7780 N   0  0  0  0  0  2  0  0  0  0  0  0
  189.4530  177.5400  147.0130 C   0  0  2  0  0  3  0  0  0  0  0  0
  188.3070  177.0840  147.7950 C   0  0  2  0  0  3  0  0  0  0  0  0
  188.2430  177.8110  148.9830 O   0  0  0  0  0  1  0  0  0  0  0  0
  191.4060  178.0500  145.1110 O   0  0  0  0  0  0  0  0  0  0  0  0
  190.5460  177.2440  144.7830 C   0  0  0  0  0  0  0  0  0  0  0  0
  191.7790  177.0700  142.4310 C   0  0  0  0  0  2  0  0  0  0  0  0
  190.8520  176.1650  143.3930 S   0  0  0  0  0  0  0  0  0  0  0  0
  191.3470  177.3570  141.0340 C   0  0  0  0  0  2  0  0  0  0  0  0
  190.2720  176.4540  140.6640 N   0  0  0  0  0  2  0  0  0  0  0  0
  189.3640  177.2100  139.8200 C   0  0  0  0  0  1  0  0  0  0  0  0
  1 16  1  1  0  0  0
  1  4  1  0  0  0  0
  2  4  1  0  0  0  0
  3  2  1  0  0  0  0
  5  7  1  1  0  0  0
  5  1  1  0  0  0  0
  6  7  1  1  0  0  0
  6  5  1  0  0  0  0
  6  3  1  0  0  0  0
  8  3  2  0  0  0  0
  8 15  1  0  0  0  0
  9  8  1  1  0  0  0
 10  9  1  0  0  0  0
 11 10  2  0  0  0  0
 12 10  1  0  0  0  0
 12  9  1  0  0  0  0
 15 13  2  0  0  0  0
 15 14  1  0  0  0  0
 16 22  1  6  0  0  0
 17 19  1  0  0  0  0
 18 16  1  6  0  0  0
 18 17  1  0  0  0  0
 18 19  1  0  0  0  0
 19 20  1  1  0  0  0
 22 21  2  0  0  0  0
 23 24  1  0  0  0  0
 24 22  1  0  0  0  0
 25 23  1  0  0  0  0
 26 25  1  0  0  0  0
 27 26  1  0  0  0  0
M  END
>  <MODEL>
7

>  <REMARK>
 VINA RESULT:      -6.8      1.279      2.196
  Name = 
  8 active torsions:
  status: ('A' for Active; 'I' for Inactive)
    1  A    between atoms: C_1  and  C_24
    2  A    between atoms: C_2  and  C_17
    3  A    between atoms: C_3  and  C_10
    4  A    between atoms: C_10  and  CA_16
    5  A    between atoms: C_10  and  C_25
    6  A    between atoms: S_13  and  C_25
    7  A    between atoms: N_14  and  C_17
    8  A    between atoms: C_24  and  C_27
                            x       y       z     vdW  Elec       q    Type
                         _______ _______ _______ _____ _____    ______ ____

>  <TORSDO>
F 8

$$$$
=
 OpenBabel10232411463D

 27 30  0  0  1  0  0  0  0  0999 V2000
  186.0760  177.6140  143.4850 C   0  0  2  0  0  3  0  0  0  0  0  0
  186.9240  177.1760  145.7550 C   0  0  0  0  0  2  0  0  0  0  0  0
  188.3430  177.2550  145.2720 C   0  0  0  0  0  0  0  0  0  0  0  0
  186.0610  178.1020  144.9330 C   0  0  0  0  0  2  0  0  0  0  0  0
  187.4780  177.4700  142.8560 C   0  0  2  0  0  3  0  0  0  0  0  0
  188.6170  177.2410  143.7790 C   0  0  1  0  0  3  0  0  0  0  0  0
  188.3620  178.5860  143.2290 N   0  0  0  0  0  2  0  0  0  0  0  0
  189.3730  177.3340  146.1540 C   0  0  0  0  0  0  0  0  0  0  0  0
  190.7970  177.3950  145.6300 C   0  0  1  0  0  3  0  0  0  0  0  0
  191.5710  176.4120  146.2370 C   0  0  0  0  0  0  0  0  0  0  0  0
  192.3560  175.7880  147.5240 S   0  0  0  0  0  0  0  0  0  0  0  0
  191.1070  176.3280  144.7800 N   0  0  0  0  0  2  0  0  0  0  0  0
  188.6660  176.2350  148.1520 O   0  0  0  0  0  0  0  0  0  0  0  0
  189.4040  178.4160  148.4420 N   0  0  0  0  0  1  0  0  0  0  0  0
  189.1240  177.2840  147.6210 C   0  0  0  0  0  0  0  0  0  0  0  0
  185.1230  178.3940  142.5650 C   0  0  2  0  0  3  0  0  0  0  0  0
  184.8540  179.5380  140.4140 N   0  0  0  0  0  2  0  0  0  0  0  0
  185.8310  179.1520  141.4430 C   0  0  2  0  0  3  0  0  0  0  0  0
  185.7560  178.3970  140.1950 C   0  0  2  0  0  3  0  0  0  0  0  0
  186.7990  178.7890  139.3580 O   0  0  0  0  0  1  0  0  0  0  0  0
  184.6010  180.3820  143.7110 O   0  0  0  0  0  0  0  0  0  0  0  0
  184.1920  179.2950  143.3270 C   0  0  0  0  0  0  0  0  0  0  0  0
  181.7920  178.7880  142.2960 C   0  0  0  0  0  2  0  0  0  0  0  0
  182.5250  178.8010  143.7340 S   0  0  0  0  0  0  0  0  0  0  0  0
  180.5860  179.6330  142.0660 C   0  0  0  0  0  2  0  0  0  0  0  0
  180.1590  179.5020  140.6840 N   0  0  0  0  0  2  0  0  0  0  0  0
  181.3130  179.0400  139.9340 C   0  0  0  0  0  1  0  0  0  0  0  0
  1 16  1  6  0  0  0
  1  4  1  0  0  0  0
  3  2  1  0  0  0  0
  3  8  2  0  0  0  0
  4  2  1  0  0  0  0
  5  7  1  1  0  0  0
  5  1  1  0  0  0  0
  5  6  1  0  0  0  0
  6  7  1  1  0  0  0
  6  3  1  0  0  0  0
  8 15  1  0  0  0  0
  9  8  1  1  0  0  0
  9 10  1  0  0  0  0
 10 11  2  0  0  0  0
 12  9  1  0  0  0  0
 12 10  1  0  0  0  0
 15 13  2  0  0  0  0
 15 14  1  0  0  0  0
 16 22  1  1  0  0  0
 17 18  1  0  0  0  0
 18 16  1  1  0  0  0
 19 20  1  6  0  0  0
 19 17  1  0  0  0  0
 19 18  1  0  0  0  0
 22 21  2  0  0  0  0
 22 24  1  0  0  0  0
 23 24  1  0  0  0  0
 25 23  1  0  0  0  0
 26 25  1  0  0  0  0
 27 26  1  0  0  0  0
M  END
>  <MODEL>
8

>  <REMARK>
 VINA RESULT:      -6.8      2.385      7.785
  Name = 
  8 active torsions:
  status: ('A' for Active; 'I' for Inactive)
    1  A    between atoms: C_1  and  C_24
    2  A    between atoms: C_2  and  C_17
    3  A    between atoms: C_3  and  C_10
    4  A    between atoms: C_10  and  CA_16
    5  A    between atoms: C_10  and  C_25
    6  A    between atoms: S_13  and  C_25
    7  A    between atoms: N_14  and  C_17
    8  A    between atoms: C_24  and  C_27
                            x       y       z     vdW  Elec       q    Type
                         _______ _______ _______ _____ _____    ______ ____

>  <TORSDO>
F 8

$$$$
=
 OpenBabel10232411463D

 27 30  0  0  1  0  0  0  0  0999 V2000
  187.9920  178.0450  143.2360 C   0  0  2  0  0  3  0  0  0  0  0  0
  186.1430  178.6440  141.7260 C   0  0  0  0  0  2  0  0  0  0  0  0
  187.0210  178.4520  140.5240 C   0  0  0  0  0  0  0  0  0  0  0  0
  186.5660  177.6910  142.8160 C   0  0  0  0  0  2  0  0  0  0  0  0
  189.0280  178.0620  142.0910 C   0  0  2  0  0  3  0  0  0  0  0  0
  188.5210  178.3180  140.7200 C   0  0  1  0  0  3  0  0  0  0  0  0
  188.8290  176.9420  141.1580 N   0  0  0  0  0  2  0  0  0  0  0  0
  186.4890  178.4020  139.2760 C   0  0  0  0  0  0  0  0  0  0  0  0
  187.4110  178.2240  138.0820 C   0  0  1  0  0  3  0  0  0  0  0  0
  186.9840  177.1520  137.3050 C   0  0  0  0  0  0  0  0  0  0  0  0
  186.7790  175.5550  137.0450 S   0  0  0  0  0  0  0  0  0  0  0  0
  186.8170  178.6130  136.8760 N   0  0  0  0  0  2  0  0  0  0  0  0
  184.2700  177.6000  138.9090 O   0  0  0  0  0  0  0  0  0  0  0  0
  184.4710  179.9090  139.0320 N   0  0  0  0  0  1  0  0  0  0  0  0
  185.0290  178.5960  139.0620 C   0  0  0  0  0  0  0  0  0  0  0  0
  188.4980  177.2340  144.4400 C   0  0  2  0  0  3  0  0  0  0  0  0
  188.0550  176.9150  146.8290 N   0  0  0  0  0  2  0  0  0  0  0  0
  188.2790  177.9260  145.7860 C   0  0  2  0  0  3  0  0  0  0  0  0
  186.9250  177.6710  146.2710 C   0  0  2  0  0  3  0  0  0  0  0  0
  186.5600  178.6790  147.1620 O   0  0  0  0  0  1  0  0  0  0  0  0
  190.1910  175.9200  143.4680 O   0  0  0  0  0  0  0  0  0  0  0  0
  189.9260  176.7940  144.2810 C   0  0  0  0  0  0  0  0  0  0  0  0
  191.7040  176.2090  146.1730 C   0  0  0  0  0  2  0  0  0  0  0  0
  191.2390  177.4730  145.2840 S   0  0  0  0  0  0  0  0  0  0  0  0
  191.6680  176.2900  147.6610 C   0  0  0  0  0  2  0  0  0  0  0  0
  192.9130  175.7790  148.2050 N   0  0  0  0  0  2  0  0  0  0  0  0
  193.2600  176.6340  149.3260 C   0  0  0  0  0  1  0  0  0  0  0  0
  1 16  1  1  0  0  0
  2  4  1  0  0  0  0
  3  2  1  0  0  0  0
  4  1  1  0  0  0  0
  5  7  1  6  0  0  0
  5  1  1  0  0  0  0
  6  3  1  1  0  0  0
  6  7  1  0  0  0  0
  6  5  1  0  0  0  0
  8  3  2  0  0  0  0
  9  8  1  1  0  0  0
 10  9  1  0  0  0  0
 11 10  2  0  0  0  0
 12 10  1  0  0  0  0
 12  9  1  0  0  0  0
 13 15  2  0  0  0  0
 14 15  1  0  0  0  0
 15  8  1  0  0  0  0
 16 22  1  6  0  0  0
 18 16  1  6  0  0  0
 18 19  1  0  0  0  0
 18 17  1  0  0  0  0
 19 17  1  0  0  0  0
 19 20  1  1  0  0  0
 21 22  2  0  0  0  0
 22 24  1  0  0  0  0
 23 25  1  0  0  0  0
 24 23  1  0  0  0  0
 25 26  1  0  0  0  0
 26 27  1  0  0  0  0
M  END
>  <MODEL>
9

>  <REMARK>
 VINA RESULT:      -6.7      2.908      4.885
  Name = 
  8 active torsions:
  status: ('A' for Active; 'I' for Inactive)
    1  A    between atoms: C_1  and  C_24
    2  A    between atoms: C_2  and  C_17
    3  A    between atoms: C_3  and  C_10
    4  A    between atoms: C_10  and  CA_16
    5  A    between atoms: C_10  and  C_25
    6  A    between atoms: S_13  and  C_25
    7  A    between atoms: N_14  and  C_17
    8  A    between atoms: C_24  and  C_27
                            x       y       z     vdW  Elec       q    Type
                         _______ _______ _______ _____ _____    ______ ____

>  <TORSDO>
F 8

$$$$
