=
 OpenBabel10232412393D

 37 38  0  0  1  0  0  0  0  0999 V2000
  188.7370  178.0760  140.6430 N   0  0  0  0  0  0  0  0  0  0  0  0
  189.2440  178.1280  139.2980 C   0  0  0  0  0  0  0  0  0  0  0  0
  189.0760  179.1770  138.6170 O   0  0  0  0  0  0  0  0  0  0  0  0
  192.1070  175.7640  138.1110 C   0  0  0  0  0  3  0  0  0  0  0  0
  189.9390  176.9700  138.6840 C   0  0  0  0  0  0  0  0  0  0  0  0
  189.2550  176.0240  138.0080 C   0  0  0  0  0  0  0  0  0  0  0  0
  189.9620  174.8810  137.4050 C   0  0  0  0  0  0  0  0  0  0  0  0
  191.4260  176.8210  138.9390 C   0  0  0  0  0  2  0  0  0  0  0  0
  189.3150  173.9580  136.8440 O   0  0  0  0  0  0  0  0  0  0  0  0
  187.8770  176.1260  137.8350 O   0  0  0  0  0  1  0  0  0  0  0  0
  191.4300  174.8440  137.4290 C   0  0  0  0  0  0  0  0  0  0  0  0
  192.1180  173.8590  136.7290 O   0  0  0  0  0  1  0  0  0  0  0  0
  187.9290  179.1240  141.1200 N   0  0  0  0  0  2  0  0  0  0  0  0
  186.5810  178.6010  141.2950 C   0  0  1  0  0  3  0  0  0  0  0  0
  185.8310  179.4630  142.2990 C   0  0  0  0  0  2  0  0  0  0  0  0
  185.4170  178.6530  143.5180 C   0  0  0  0  0  3  0  0  0  0  0  0
  184.5170  179.4790  144.4370 C   0  0  0  0  0  2  0  0  0  0  0  0
  186.6690  178.2150  144.2730 C   0  0  0  0  0  2  0  0  0  0  0  0
  184.1330  178.6680  145.6720 C   0  0  0  0  0  2  0  0  0  0  0  0
  185.3860  178.2310  146.4230 C   0  0  0  0  0  2  0  0  0  0  0  0
  186.2860  177.4040  145.5080 C   0  0  0  0  0  2  0  0  0  0  0  0
  185.8470  178.6110  139.9620 C   0  0  0  0  0  2  0  0  0  0  0  0
  184.8670  179.6050  139.9580 O   0  0  0  0  0  0  0  0  0  0  0  0
  183.8490  179.1050  139.1460 C   0  0  0  0  0  2  0  0  0  0  0  0
  182.8410  178.4070  139.9880 C   0  0  0  0  0  0  0  0  0  0  0  0
  182.2090  177.2670  139.5110 O   0  0  0  0  0  0  0  0  0  0  0  0
  182.5860  178.8280  141.1480 O   0  0  0  0  0  1  0  0  0  0  0  0
  189.2000  177.0560  141.5780 C   0  0  0  0  0  2  0  0  0  0  0  0
  190.4800  177.5060  142.2580 C   0  0  0  0  0  2  0  0  0  0  0  0
  190.2850  177.5260  143.7690 C   0  0  2  0  0  3  0  0  0  0  0  0
  191.3000  179.5010  143.8490 C   0  0  0  0  0  1  0  0  0  0  0  0
  190.1160  178.8480  144.1980 O   0  0  0  0  0  0  0  0  0  0  0  0
  191.4950  176.8990  144.4590 C   0  0  2  0  0  3  0  0  0  0  0  0
  191.7130  175.6150  143.9540 O   0  0  0  0  0  1  0  0  0  0  0  0
  191.2570  176.8150  145.9630 C   0  0  0  0  0  2  0  0  0  0  0  0
  189.4630  177.6660  147.2960 O   0  0  0  0  0  1  0  0  0  0  0  0
  189.7720  176.7600  146.2810 C   0  0  0  0  0  2  0  0  0  0  0  0
  1 13  1  0  0  0  0
  1 28  1  0  0  0  0
  2  1  1  0  0  0  0
  3  2  2  0  0  0  0
  4  8  1  0  0  0  0
  5  8  1  0  0  0  0
  5  2  1  0  0  0  0
  6  5  2  0  0  0  0
  7 11  1  0  0  0  0
  7  6  1  0  0  0  0
  9  7  2  0  0  0  0
 10  6  1  0  0  0  0
 11  4  2  0  0  0  0
 12 11  1  0  0  0  0
 13 14  1  0  0  0  0
 14 22  1  6  0  0  0
 14 15  1  0  0  0  0
 15 16  1  0  0  0  0
 16 18  1  0  0  0  0
 16 17  1  0  0  0  0
 17 19  1  0  0  0  0
 18 21  1  0  0  0  0
 19 20  1  0  0  0  0
 21 20  1  0  0  0  0
 23 22  1  0  0  0  0
 24 23  1  0  0  0  0
 24 25  1  0  0  0  0
 25 27  1  0  0  0  0
 26 25  2  0  0  0  0
 28 29  1  0  0  0  0
 30 29  1  6  0  0  0
 30 32  1  0  0  0  0
 30 33  1  0  0  0  0
 31 32  1  0  0  0  0
 33 34  1  6  0  0  0
 33 35  1  0  0  0  0
 35 37  1  0  0  0  0
 37 36  1  0  0  0  0
M  END
>  <MODEL>
1

>  <REMARK>
 VINA RESULT:      -7.2      0.000      0.000
  Name = 
  16 active torsions:
  status: ('A' for Active; 'I' for Inactive)
    1  A    between atoms: C_1  and  C_22
    2  A    between atoms: C_1  and  C_25
    3  A    between atoms: C_2  and  C_37
    4  A    between atoms: N_3  and  C_4
    5  A    between atoms: N_3  and  N_31
    6  A    between atoms: C_4  and  C_28
    7  A    between atoms: C_5  and  C_19
    8  A    between atoms: C_9  and  C_20
    9  A    between atoms: C_11  and  C_22
   10  A    between atoms: C_11  and  C_28
   11  A    between atoms: C_11  and  O_35
   12  A    between atoms: O_15  and  C_19
   13  A    between atoms: O_15  and  C_21
   14  A    between atoms: C_21  and  C_32
   15  A    between atoms: N_31  and  C_32
   16  A    between atoms: C_32  and  C_37
                            x       y       z     vdW  Elec       q    Type
                         _______ _______ _______ _____ _____    ______ ____

>  <TORSDO>
F 16

$$$$
=
 OpenBabel10232412393D

 37 38  0  0  1  0  0  0  0  0999 V2000
  188.8820  177.8980  143.1860 N   0  0  0  0  0  0  0  0  0  0  0  0
  190.0800  178.2620  143.8970 C   0  0  0  0  0  0  0  0  0  0  0  0
  190.6840  179.3240  143.5810 O   0  0  0  0  0  0  0  0  0  0  0  0
  190.9520  176.9390  147.4580 C   0  0  0  0  0  3  0  0  0  0  0  0
  190.6330  177.4080  144.9760 C   0  0  0  0  0  0  0  0  0  0  0  0
  191.4260  176.3530  144.6930 C   0  0  0  0  0  0  0  0  0  0  0  0
  191.9660  175.5160  145.7780 C   0  0  0  0  0  0  0  0  0  0  0  0
  190.1880  177.6860  146.3970 C   0  0  0  0  0  2  0  0  0  0  0  0
  192.6390  174.4850  145.5090 O   0  0  0  0  0  0  0  0  0  0  0  0
  191.7770  176.0560  143.3790 O   0  0  0  0  0  1  0  0  0  0  0  0
  191.7480  175.9110  147.1740 C   0  0  0  0  0  0  0  0  0  0  0  0
  192.3820  175.2250  148.2040 O   0  0  0  0  0  1  0  0  0  0  0  0
  188.4950  178.6390  142.0550 N   0  0  0  0  0  2  0  0  0  0  0  0
  188.6530  177.7820  140.8880 C   0  0  1  0  0  3  0  0  0  0  0  0
  188.0200  178.4520  139.6790 C   0  0  0  0  0  2  0  0  0  0  0  0
  186.5870  177.9850  139.4790 C   0  0  0  0  0  3  0  0  0  0  0  0
  186.1990  178.0420  138.0010 C   0  0  0  0  0  2  0  0  0  0  0  0
  185.6530  178.8750  140.2960 C   0  0  0  0  0  2  0  0  0  0  0  0
  184.7510  177.5990  137.8150 C   0  0  0  0  0  2  0  0  0  0  0  0
  183.8210  178.4900  138.6330 C   0  0  0  0  0  2  0  0  0  0  0  0
  184.2040  178.4330  140.1100 C   0  0  0  0  0  2  0  0  0  0  0  0
  190.1330  177.5390  140.6230 C   0  0  0  0  0  2  0  0  0  0  0  0
  190.3400  176.2190  140.2200 O   0  0  0  0  0  0  0  0  0  0  0  0
  190.9710  176.3150  138.9790 C   0  0  0  0  0  2  0  0  0  0  0  0
  190.2300  175.4990  137.9820 C   0  0  0  0  0  0  0  0  0  0  0  0
  190.6970  174.2390  137.6320 O   0  0  0  0  0  1  0  0  0  0  0  0
  189.1580  175.9330  137.4800 O   0  0  0  0  0  0  0  0  0  0  0  0
  187.9660  176.9000  143.7280 C   0  0  0  0  0  2  0  0  0  0  0  0
  186.5720  177.4850  143.8690 C   0  0  0  0  0  2  0  0  0  0  0  0
  186.4530  178.2280  145.1940 C   0  0  2  0  0  3  0  0  0  0  0  0
  187.1000  177.8180  147.2790 C   0  0  0  0  0  1  0  0  0  0  0  0
  186.3300  177.3010  146.2360 O   0  0  0  0  0  0  0  0  0  0  0  0
  185.2370  179.1530  145.1660 C   0  0  2  0  0  3  0  0  0  0  0  0
  184.4010  178.8650  146.2480 O   0  0  0  0  0  1  0  0  0  0  0  0
  184.4620  178.9620  143.8670 C   0  0  0  0  0  2  0  0  0  0  0  0
  182.2460  179.0360  142.9700 O   0  0  0  0  0  1  0  0  0  0  0  0
  182.9750  178.7970  144.1340 C   0  0  0  0  0  2  0  0  0  0  0  0
  1 28  1  0  0  0  0
  1  2  1  0  0  0  0
  2  5  1  0  0  0  0
  3  2  2  0  0  0  0
  5  8  1  0  0  0  0
  6  5  2  0  0  0  0
  6  7  1  0  0  0  0
  7 11  1  0  0  0  0
  8  4  1  0  0  0  0
  9  7  2  0  0  0  0
 10  6  1  0  0  0  0
 11  4  2  0  0  0  0
 11 12  1  0  0  0  0
 13  1  1  0  0  0  0
 14 15  1  6  0  0  0
 14 13  1  0  0  0  0
 16 15  1  0  0  0  0
 16 18  1  0  0  0  0
 17 16  1  0  0  0  0
 19 17  1  0  0  0  0
 19 20  1  0  0  0  0
 20 21  1  0  0  0  0
 21 18  1  0  0  0  0
 22 14  1  0  0  0  0
 23 22  1  0  0  0  0
 24 23  1  0  0  0  0
 25 24  1  0  0  0  0
 26 25  1  0  0  0  0
 27 25  2  0  0  0  0
 28 29  1  0  0  0  0
 30 29  1  6  0  0  0
 30 32  1  0  0  0  0
 32 31  1  0  0  0  0
 33 30  1  0  0  0  0
 33 34  1  1  0  0  0
 35 37  1  0  0  0  0
 35 33  1  0  0  0  0
 36 37  1  0  0  0  0
M  END
>  <MODEL>
2

>  <REMARK>
 VINA RESULT:      -6.9      1.883      6.818
  Name = 
  16 active torsions:
  status: ('A' for Active; 'I' for Inactive)
    1  A    between atoms: C_1  and  C_22
    2  A    between atoms: C_1  and  C_25
    3  A    between atoms: C_2  and  C_37
    4  A    between atoms: N_3  and  C_4
    5  A    between atoms: N_3  and  N_31
    6  A    between atoms: C_4  and  C_28
    7  A    between atoms: C_5  and  C_19
    8  A    between atoms: C_9  and  C_20
    9  A    between atoms: C_11  and  C_22
   10  A    between atoms: C_11  and  C_28
   11  A    between atoms: C_11  and  O_35
   12  A    between atoms: O_15  and  C_19
   13  A    between atoms: O_15  and  C_21
   14  A    between atoms: C_21  and  C_32
   15  A    between atoms: N_31  and  C_32
   16  A    between atoms: C_32  and  C_37
                            x       y       z     vdW  Elec       q    Type
                         _______ _______ _______ _____ _____    ______ ____

>  <TORSDO>
F 16

$$$$
=
 OpenBabel10232412393D

 37 38  0  0  1  0  0  0  0  0999 V2000
  186.0640  178.6410  140.3840 N   0  0  0  0  0  0  0  0  0  0  0  0
  185.5850  178.9030  139.0520 C   0  0  0  0  0  0  0  0  0  0  0  0
  184.8190  179.8860  138.8560 O   0  0  0  0  0  0  0  0  0  0  0  0
  185.4960  175.9700  136.4860 C   0  0  0  0  0  3  0  0  0  0  0  0
  185.9530  178.0310  137.9090 C   0  0  0  0  0  0  0  0  0  0  0  0
  187.0760  178.2530  137.1960 C   0  0  0  0  0  0  0  0  0  0  0  0
  187.4250  177.3770  136.0640 C   0  0  0  0  0  0  0  0  0  0  0  0
  184.9690  176.9560  137.4950 C   0  0  0  0  0  2  0  0  0  0  0  0
  188.4300  177.6320  135.3500 O   0  0  0  0  0  0  0  0  0  0  0  0
  187.9450  179.2870  137.5350 O   0  0  0  0  0  1  0  0  0  0  0  0
  186.6140  176.1820  135.7970 C   0  0  0  0  0  0  0  0  0  0  0  0
  187.0180  175.2610  134.8380 O   0  0  0  0  0  1  0  0  0  0  0  0
  185.5480  179.3810  141.4640 N   0  0  0  0  0  2  0  0  0  0  0  0
  184.7980  178.4640  142.3120 C   0  0  1  0  0  3  0  0  0  0  0  0
  184.4910  179.1400  143.6380 C   0  0  0  0  0  2  0  0  0  0  0  0
  185.6380  178.9690  144.6210 C   0  0  0  0  0  3  0  0  0  0  0  0
  186.4430  177.7090  144.3030 C   0  0  0  0  0  2  0  0  0  0  0  0
  185.0720  178.8800  146.0370 C   0  0  0  0  0  2  0  0  0  0  0  0
  187.5720  177.5310  145.3140 C   0  0  0  0  0  2  0  0  0  0  0  0
  187.0030  177.4430  146.7260 C   0  0  0  0  0  2  0  0  0  0  0  0
  186.2010  178.7010  147.0480 C   0  0  0  0  0  2  0  0  0  0  0  0
  183.4990  178.0700  141.6240 C   0  0  0  0  0  2  0  0  0  0  0  0
  182.4490  178.8670  142.0830 O   0  0  0  0  0  0  0  0  0  0  0  0
  181.4890  178.8170  141.0710 C   0  0  0  0  0  2  0  0  0  0  0  0
  180.5160  179.9260  141.2570 C   0  0  0  0  0  0  0  0  0  0  0  0
  180.2240  180.3850  142.5350 O   0  0  0  0  0  1  0  0  0  0  0  0
  179.9830  180.4750  140.2560 O   0  0  0  0  0  0  0  0  0  0  0  0
  187.2060  177.7610  140.6090 C   0  0  0  0  0  2  0  0  0  0  0  0
  188.4100  178.5660  141.0630 C   0  0  0  0  0  2  0  0  0  0  0  0
  189.6900  177.9200  140.5490 C   0  0  2  0  0  3  0  0  0  0  0  0
  190.3160  177.0190  138.6180 C   0  0  0  0  0  1  0  0  0  0  0  0
  189.3660  176.9110  139.6340 O   0  0  0  0  0  0  0  0  0  0  0  0
  190.4850  177.3370  141.7160 C   0  0  2  0  0  3  0  0  0  0  0  0
  190.1080  176.0080  141.9270 O   0  0  0  0  0  1  0  0  0  0  0  0
  190.2230  178.1410  142.9840 C   0  0  0  0  0  2  0  0  0  0  0  0
  191.4720  177.7180  144.9800 O   0  0  0  0  0  1  0  0  0  0  0  0
  191.5090  178.3860  143.7550 C   0  0  0  0  0  2  0  0  0  0  0  0
  1 28  1  0  0  0  0
  1 13  1  0  0  0  0
  2  1  1  0  0  0  0
  3  2  2  0  0  0  0
  4  8  1  0  0  0  0
  5  2  1  0  0  0  0
  6 10  1  0  0  0  0
  6  5  2  0  0  0  0
  7  6  1  0  0  0  0
  8  5  1  0  0  0  0
  9  7  2  0  0  0  0
 11  7  1  0  0  0  0
 11  4  2  0  0  0  0
 12 11  1  0  0  0  0
 13 14  1  0  0  0  0
 14 22  1  6  0  0  0
 14 15  1  0  0  0  0
 15 16  1  0  0  0  0
 16 18  1  0  0  0  0
 17 16  1  0  0  0  0
 17 19  1  0  0  0  0
 18 21  1  0  0  0  0
 19 20  1  0  0  0  0
 20 21  1  0  0  0  0
 22 23  1  0  0  0  0
 24 25  1  0  0  0  0
 24 23  1  0  0  0  0
 25 26  1  0  0  0  0
 27 25  2  0  0  0  0
 28 29  1  0  0  0  0
 30 29  1  1  0  0  0
 30 33  1  0  0  0  0
 31 32  1  0  0  0  0
 32 30  1  0  0  0  0
 33 34  1  1  0  0  0
 33 35  1  0  0  0  0
 35 37  1  0  0  0  0
 37 36  1  0  0  0  0
M  END
>  <MODEL>
3

>  <REMARK>
 VINA RESULT:      -6.9      2.121      3.713
  Name = 
  16 active torsions:
  status: ('A' for Active; 'I' for Inactive)
    1  A    between atoms: C_1  and  C_22
    2  A    between atoms: C_1  and  C_25
    3  A    between atoms: C_2  and  C_37
    4  A    between atoms: N_3  and  C_4
    5  A    between atoms: N_3  and  N_31
    6  A    between atoms: C_4  and  C_28
    7  A    between atoms: C_5  and  C_19
    8  A    between atoms: C_9  and  C_20
    9  A    between atoms: C_11  and  C_22
   10  A    between atoms: C_11  and  C_28
   11  A    between atoms: C_11  and  O_35
   12  A    between atoms: O_15  and  C_19
   13  A    between atoms: O_15  and  C_21
   14  A    between atoms: C_21  and  C_32
   15  A    between atoms: N_31  and  C_32
   16  A    between atoms: C_32  and  C_37
                            x       y       z     vdW  Elec       q    Type
                         _______ _______ _______ _____ _____    ______ ____

>  <TORSDO>
F 16

$$$$
=
 OpenBabel10232412393D

 37 38  0  0  1  0  0  0  0  0999 V2000
  185.6490  178.7580  140.4830 N   0  0  0  0  0  0  0  0  0  0  0  0
  185.0220  179.0070  139.2110 C   0  0  0  0  0  0  0  0  0  0  0  0
  184.3220  180.0460  139.0630 O   0  0  0  0  0  0  0  0  0  0  0  0
  184.4330  175.9160  136.9110 C   0  0  0  0  0  3  0  0  0  0  0  0
  185.1590  178.0580  138.0780 C   0  0  0  0  0  0  0  0  0  0  0  0
  186.1210  178.2190  137.1460 C   0  0  0  0  0  0  0  0  0  0  0  0
  186.2410  177.2680  136.0290 C   0  0  0  0  0  0  0  0  0  0  0  0
  184.1130  176.9710  137.9360 C   0  0  0  0  0  2  0  0  0  0  0  0
  187.0870  177.4640  135.1160 O   0  0  0  0  0  0  0  0  0  0  0  0
  187.0390  179.2620  137.2410 O   0  0  0  0  0  1  0  0  0  0  0  0
  185.3950  176.0690  136.0040 C   0  0  0  0  0  0  0  0  0  0  0  0
  185.6040  175.0820  135.0470 O   0  0  0  0  0  1  0  0  0  0  0  0
  185.3460  179.5850  141.5790 N   0  0  0  0  0  2  0  0  0  0  0  0
  184.7380  178.7530  142.6090 C   0  0  1  0  0  3  0  0  0  0  0  0
  184.9300  179.4100  143.9660 C   0  0  0  0  0  2  0  0  0  0  0  0
  185.6180  178.4670  144.9410 C   0  0  0  0  0  3  0  0  0  0  0  0
  185.8150  179.1410  146.2990 C   0  0  0  0  0  2  0  0  0  0  0  0
  186.9700  178.0550  144.3650 C   0  0  0  0  0  2  0  0  0  0  0  0
  186.5330  178.1970  147.2600 C   0  0  0  0  0  2  0  0  0  0  0  0
  187.8830  177.7870  146.6800 C   0  0  0  0  0  2  0  0  0  0  0  0
  187.6890  177.1110  145.3250 C   0  0  0  0  0  2  0  0  0  0  0  0
  183.2520  178.5850  142.3250 C   0  0  0  0  0  2  0  0  0  0  0  0
  182.4990  179.2990  143.2580 O   0  0  0  0  0  0  0  0  0  0  0  0
  181.2060  178.7840  143.1490 C   0  0  0  0  0  2  0  0  0  0  0  0
  180.3750  179.7040  142.3290 C   0  0  0  0  0  0  0  0  0  0  0  0
  179.9880  179.3330  141.0480 O   0  0  0  0  0  0  0  0  0  0  0  0
  179.9890  180.8050  142.8070 O   0  0  0  0  0  1  0  0  0  0  0  0
  186.7320  177.7880  140.6050 C   0  0  0  0  0  2  0  0  0  0  0  0
  188.0610  178.5000  140.7750 C   0  0  0  0  0  2  0  0  0  0  0  0
  189.1960  177.4840  140.7990 C   0  0  2  0  0  3  0  0  0  0  0  0
  190.2980  176.4390  142.4200 C   0  0  0  0  0  1  0  0  0  0  0  0
  189.9970  177.7090  141.9250 O   0  0  0  0  0  0  0  0  0  0  0  0
  190.0310  177.6040  139.5260 C   0  0  2  0  0  3  0  0  0  0  0  0
  189.6120  178.7150  138.7900 O   0  0  0  0  0  1  0  0  0  0  0  0
  189.8740  176.3490  138.6740 C   0  0  0  0  0  2  0  0  0  0  0  0
  191.0470  174.4510  137.8110 O   0  0  0  0  0  1  0  0  0  0  0  0
  191.2220  175.7130  138.3790 C   0  0  0  0  0  2  0  0  0  0  0  0
  1 28  1  0  0  0  0
  1 13  1  0  0  0  0
  2  1  1  0  0  0  0
  3  2  2  0  0  0  0
  4  8  1  0  0  0  0
  5  2  1  0  0  0  0
  6 10  1  0  0  0  0
  6  5  2  0  0  0  0
  7  6  1  0  0  0  0
  8  5  1  0  0  0  0
  9  7  2  0  0  0  0
 11  7  1  0  0  0  0
 11  4  2  0  0  0  0
 12 11  1  0  0  0  0
 13 14  1  0  0  0  0
 14 22  1  6  0  0  0
 14 15  1  0  0  0  0
 15 16  1  0  0  0  0
 16 17  1  0  0  0  0
 17 19  1  0  0  0  0
 18 16  1  0  0  0  0
 18 21  1  0  0  0  0
 20 19  1  0  0  0  0
 21 20  1  0  0  0  0
 22 23  1  0  0  0  0
 24 23  1  0  0  0  0
 25 27  1  0  0  0  0
 25 24  1  0  0  0  0
 26 25  2  0  0  0  0
 28 29  1  0  0  0  0
 30 29  1  6  0  0  0
 30 32  1  0  0  0  0
 32 31  1  0  0  0  0
 33 34  1  6  0  0  0
 33 30  1  0  0  0  0
 35 33  1  0  0  0  0
 36 37  1  0  0  0  0
 37 35  1  0  0  0  0
M  END
>  <MODEL>
4

>  <REMARK>
 VINA RESULT:      -6.8      2.322      4.689
  Name = 
  16 active torsions:
  status: ('A' for Active; 'I' for Inactive)
    1  A    between atoms: C_1  and  C_22
    2  A    between atoms: C_1  and  C_25
    3  A    between atoms: C_2  and  C_37
    4  A    between atoms: N_3  and  C_4
    5  A    between atoms: N_3  and  N_31
    6  A    between atoms: C_4  and  C_28
    7  A    between atoms: C_5  and  C_19
    8  A    between atoms: C_9  and  C_20
    9  A    between atoms: C_11  and  C_22
   10  A    between atoms: C_11  and  C_28
   11  A    between atoms: C_11  and  O_35
   12  A    between atoms: O_15  and  C_19
   13  A    between atoms: O_15  and  C_21
   14  A    between atoms: C_21  and  C_32
   15  A    between atoms: N_31  and  C_32
   16  A    between atoms: C_32  and  C_37
                            x       y       z     vdW  Elec       q    Type
                         _______ _______ _______ _____ _____    ______ ____

>  <TORSDO>
F 16

$$$$
=
 OpenBabel10232412393D

 37 38  0  0  1  0  0  0  0  0999 V2000
  189.2090  177.8850  141.0410 N   0  0  0  0  0  0  0  0  0  0  0  0
  190.0850  176.7550  140.8700 C   0  0  0  0  0  0  0  0  0  0  0  0
  190.3250  176.0080  141.8580 O   0  0  0  0  0  0  0  0  0  0  0  0
  190.6580  175.3220  137.2910 C   0  0  0  0  0  3  0  0  0  0  0  0
  190.7290  176.4620  139.5660 C   0  0  0  0  0  0  0  0  0  0  0  0
  191.9880  176.8690  139.3030 C   0  0  0  0  0  0  0  0  0  0  0  0
  192.6120  176.5680  138.0030 C   0  0  0  0  0  0  0  0  0  0  0  0
  189.8900  175.7920  138.4970 C   0  0  0  0  0  2  0  0  0  0  0  0
  193.7560  177.0170  137.7290 O   0  0  0  0  0  0  0  0  0  0  0  0
  192.7350  177.5470  140.2640 O   0  0  0  0  0  1  0  0  0  0  0  0
  191.9070  175.7100  137.0430 C   0  0  0  0  0  0  0  0  0  0  0  0
  192.5430  175.2860  135.8830 O   0  0  0  0  0  1  0  0  0  0  0  0
  188.7660  178.2300  142.3300 N   0  0  0  0  0  2  0  0  0  0  0  0
  187.4870  177.5690  142.5520 C   0  0  1  0  0  3  0  0  0  0  0  0
  187.5850  176.6750  143.7770 C   0  0  0  0  0  2  0  0  0  0  0  0
  187.8960  177.4850  145.0250 C   0  0  0  0  0  3  0  0  0  0  0  0
  189.1960  177.0070  145.6720 C   0  0  0  0  0  2  0  0  0  0  0  0
  186.7410  177.3400  146.0140 C   0  0  0  0  0  2  0  0  0  0  0  0
  189.4830  177.8060  146.9400 C   0  0  0  0  0  2  0  0  0  0  0  0
  188.3270  177.6600  147.9240 C   0  0  0  0  0  2  0  0  0  0  0  0
  187.0270  178.1390  147.2830 C   0  0  0  0  0  2  0  0  0  0  0  0
  186.3980  178.6120  142.7630 C   0  0  0  0  0  2  0  0  0  0  0  0
  185.1700  177.9880  142.9900 O   0  0  0  0  0  0  0  0  0  0  0  0
  184.2350  179.0240  142.9920 C   0  0  0  0  0  2  0  0  0  0  0  0
  183.4370  178.9680  144.2460 C   0  0  0  0  0  0  0  0  0  0  0  0
  182.0980  178.6050  144.2000 O   0  0  0  0  0  0  0  0  0  0  0  0
  183.9830  179.2140  145.3550 O   0  0  0  0  0  1  0  0  0  0  0  0
  188.6240  178.5580  139.8860 C   0  0  0  0  0  2  0  0  0  0  0  0
  187.3090  177.9010  139.5040 C   0  0  0  0  0  2  0  0  0  0  0  0
  187.1170  177.9650  137.9940 C   0  0  2  0  0  3  0  0  0  0  0  0
  188.4150  178.3250  136.2280 C   0  0  0  0  0  1  0  0  0  0  0  0
  188.0260  178.8800  137.4490 O   0  0  0  0  0  0  0  0  0  0  0  0
  185.6850  178.3850  137.6680 C   0  0  2  0  0  3  0  0  0  0  0  0
  185.1760  179.1700  138.7060 O   0  0  0  0  0  1  0  0  0  0  0  0
  184.8040  177.1540  137.4890 C   0  0  0  0  0  2  0  0  0  0  0  0
  184.9860  174.7860  137.2110 O   0  0  0  0  0  1  0  0  0  0  0  0
  185.5870  176.0020  136.8840 C   0  0  0  0  0  2  0  0  0  0  0  0
  1 13  1  0  0  0  0
  2  1  1  0  0  0  0
  2  3  2  0  0  0  0
  4  8  1  0  0  0  0
  5  2  1  0  0  0  0
  6  5  2  0  0  0  0
  6 10  1  0  0  0  0
  7  6  1  0  0  0  0
  8  5  1  0  0  0  0
  9  7  2  0  0  0  0
 11  4  2  0  0  0  0
 11  7  1  0  0  0  0
 12 11  1  0  0  0  0
 13 14  1  0  0  0  0
 14 22  1  1  0  0  0
 14 15  1  0  0  0  0
 15 16  1  0  0  0  0
 16 17  1  0  0  0  0
 16 18  1  0  0  0  0
 17 19  1  0  0  0  0
 18 21  1  0  0  0  0
 19 20  1  0  0  0  0
 21 20  1  0  0  0  0
 22 23  1  0  0  0  0
 23 24  1  0  0  0  0
 24 25  1  0  0  0  0
 25 27  1  0  0  0  0
 26 25  2  0  0  0  0
 28  1  1  0  0  0  0
 29 28  1  0  0  0  0
 30 29  1  1  0  0  0
 31 32  1  0  0  0  0
 32 30  1  0  0  0  0
 33 30  1  0  0  0  0
 33 34  1  1  0  0  0
 35 33  1  0  0  0  0
 37 36  1  0  0  0  0
 37 35  1  0  0  0  0
M  END
>  <MODEL>
5

>  <REMARK>
 VINA RESULT:      -6.7      2.226      5.269
  Name = 
  16 active torsions:
  status: ('A' for Active; 'I' for Inactive)
    1  A    between atoms: C_1  and  C_22
    2  A    between atoms: C_1  and  C_25
    3  A    between atoms: C_2  and  C_37
    4  A    between atoms: N_3  and  C_4
    5  A    between atoms: N_3  and  N_31
    6  A    between atoms: C_4  and  C_28
    7  A    between atoms: C_5  and  C_19
    8  A    between atoms: C_9  and  C_20
    9  A    between atoms: C_11  and  C_22
   10  A    between atoms: C_11  and  C_28
   11  A    between atoms: C_11  and  O_35
   12  A    between atoms: O_15  and  C_19
   13  A    between atoms: O_15  and  C_21
   14  A    between atoms: C_21  and  C_32
   15  A    between atoms: N_31  and  C_32
   16  A    between atoms: C_32  and  C_37
                            x       y       z     vdW  Elec       q    Type
                         _______ _______ _______ _____ _____    ______ ____

>  <TORSDO>
F 16

$$$$
=
 OpenBabel10232412393D

 37 38  0  0  1  0  0  0  0  0999 V2000
  189.0290  177.7510  143.0460 N   0  0  0  0  0  0  0  0  0  0  0  0
  190.1380  178.2040  143.8440 C   0  0  0  0  0  0  0  0  0  0  0  0
  190.6850  179.3070  143.5670 O   0  0  0  0  0  0  0  0  0  0  0  0
  190.8910  177.0040  147.4750 C   0  0  0  0  0  3  0  0  0  0  0  0
  190.6670  177.3960  144.9690 C   0  0  0  0  0  0  0  0  0  0  0  0
  191.5000  176.3570  144.7510 C   0  0  0  0  0  0  0  0  0  0  0  0
  192.0160  175.5660  145.8810 C   0  0  0  0  0  0  0  0  0  0  0  0
  190.1530  177.7000  146.3620 C   0  0  0  0  0  2  0  0  0  0  0  0
  192.7270  174.5480  145.6710 O   0  0  0  0  0  0  0  0  0  0  0  0
  191.9160  176.0350  143.4620 O   0  0  0  0  0  1  0  0  0  0  0  0
  191.7260  175.9920  147.2550 C   0  0  0  0  0  0  0  0  0  0  0  0
  192.3330  175.3540  148.3310 O   0  0  0  0  0  1  0  0  0  0  0  0
  188.6780  178.4580  141.8820 N   0  0  0  0  0  2  0  0  0  0  0  0
  188.8040  177.5460  140.7530 C   0  0  1  0  0  3  0  0  0  0  0  0
  188.5760  178.3100  139.4590 C   0  0  0  0  0  2  0  0  0  0  0  0
  187.7570  177.4910  138.4740 C   0  0  0  0  0  3  0  0  0  0  0  0
  188.4670  177.3980  137.1230 C   0  0  0  0  0  2  0  0  0  0  0  0
  186.3890  178.1460  138.2980 C   0  0  0  0  0  2  0  0  0  0  0  0
  187.6220  176.6000  136.1340 C   0  0  0  0  0  2  0  0  0  0  0  0
  186.2570  177.2570  135.9610 C   0  0  0  0  0  2  0  0  0  0  0  0
  185.5440  177.3490  137.3080 C   0  0  0  0  0  2  0  0  0  0  0  0
  190.1950  176.9250  140.7450 C   0  0  0  0  0  2  0  0  0  0  0  0
  191.0100  177.5810  139.8200 O   0  0  0  0  0  0  0  0  0  0  0  0
  191.5690  176.5630  139.0470 C   0  0  0  0  0  2  0  0  0  0  0  0
  193.0030  176.8640  138.7950 C   0  0  0  0  0  0  0  0  0  0  0  0
  193.8410  177.1840  139.8550 O   0  0  0  0  0  1  0  0  0  0  0  0
  193.4690  176.7920  137.6260 O   0  0  0  0  0  0  0  0  0  0  0  0
  188.1500  176.6880  143.5230 C   0  0  0  0  0  2  0  0  0  0  0  0
  186.6960  177.0720  143.3090 C   0  0  0  0  0  2  0  0  0  0  0  0
  186.2880  178.1410  144.3140 C   0  0  2  0  0  3  0  0  0  0  0  0
  186.6040  178.1120  146.5120 C   0  0  0  0  0  1  0  0  0  0  0  0
  185.8500  177.5280  145.4930 O   0  0  0  0  0  0  0  0  0  0  0  0
  185.1770  179.0110  143.7280 C   0  0  2  0  0  3  0  0  0  0  0  0
  184.2230  179.2830  144.7120 O   0  0  0  0  0  1  0  0  0  0  0  0
  184.5060  178.2910  142.5630 C   0  0  0  0  0  2  0  0  0  0  0  0
  183.4430  179.0600  140.5620 O   0  0  0  0  0  1  0  0  0  0  0  0
  184.6420  179.0860  141.2750 C   0  0  0  0  0  2  0  0  0  0  0  0
  1 28  1  0  0  0  0
  1  2  1  0  0  0  0
  2  5  1  0  0  0  0
  3  2  2  0  0  0  0
  5  8  1  0  0  0  0
  6  5  2  0  0  0  0
  6  7  1  0  0  0  0
  7 11  1  0  0  0  0
  8  4  1  0  0  0  0
  9  7  2  0  0  0  0
 10  6  1  0  0  0  0
 11  4  2  0  0  0  0
 11 12  1  0  0  0  0
 13  1  1  0  0  0  0
 14 15  1  6  0  0  0
 14 13  1  0  0  0  0
 16 15  1  0  0  0  0
 17 16  1  0  0  0  0
 18 16  1  0  0  0  0
 19 17  1  0  0  0  0
 20 19  1  0  0  0  0
 20 21  1  0  0  0  0
 21 18  1  0  0  0  0
 22 14  1  0  0  0  0
 23 22  1  0  0  0  0
 24 23  1  0  0  0  0
 25 24  1  0  0  0  0
 25 26  1  0  0  0  0
 27 25  2  0  0  0  0
 29 28  1  0  0  0  0
 30 29  1  6  0  0  0
 30 32  1  0  0  0  0
 32 31  1  0  0  0  0
 33 30  1  0  0  0  0
 33 34  1  1  0  0  0
 35 33  1  0  0  0  0
 36 37  1  0  0  0  0
 37 35  1  0  0  0  0
M  END
>  <MODEL>
6

>  <REMARK>
 VINA RESULT:      -6.6      2.169      7.548
  Name = 
  16 active torsions:
  status: ('A' for Active; 'I' for Inactive)
    1  A    between atoms: C_1  and  C_22
    2  A    between atoms: C_1  and  C_25
    3  A    between atoms: C_2  and  C_37
    4  A    between atoms: N_3  and  C_4
    5  A    between atoms: N_3  and  N_31
    6  A    between atoms: C_4  and  C_28
    7  A    between atoms: C_5  and  C_19
    8  A    between atoms: C_9  and  C_20
    9  A    between atoms: C_11  and  C_22
   10  A    between atoms: C_11  and  C_28
   11  A    between atoms: C_11  and  O_35
   12  A    between atoms: O_15  and  C_19
   13  A    between atoms: O_15  and  C_21
   14  A    between atoms: C_21  and  C_32
   15  A    between atoms: N_31  and  C_32
   16  A    between atoms: C_32  and  C_37
                            x       y       z     vdW  Elec       q    Type
                         _______ _______ _______ _____ _____    ______ ____

>  <TORSDO>
F 16

$$$$
=
 OpenBabel10232412393D

 37 38  0  0  1  0  0  0  0  0999 V2000
  188.8610  177.3180  141.9350 N   0  0  0  0  0  0  0  0  0  0  0  0
  189.8440  176.3180  141.6130 C   0  0  0  0  0  0  0  0  0  0  0  0
  189.8570  175.2360  142.2620 O   0  0  0  0  0  0  0  0  0  0  0  0
  191.6500  176.1630  138.1610 C   0  0  0  0  0  3  0  0  0  0  0  0
  190.8580  176.5380  140.5520 C   0  0  0  0  0  0  0  0  0  0  0  0
  192.0150  177.1800  140.8150 C   0  0  0  0  0  0  0  0  0  0  0  0
  193.0100  177.3890  139.7500 C   0  0  0  0  0  0  0  0  0  0  0  0
  190.5050  176.1220  139.1380 C   0  0  0  0  0  2  0  0  0  0  0  0
  194.0520  178.0580  139.9770 O   0  0  0  0  0  0  0  0  0  0  0  0
  192.3080  177.6240  142.1020 O   0  0  0  0  0  1  0  0  0  0  0  0
  192.7970  176.7810  138.4310 C   0  0  0  0  0  0  0  0  0  0  0  0
  193.7950  176.8330  137.4650 O   0  0  0  0  0  1  0  0  0  0  0  0
  188.0390  177.1440  143.0630 N   0  0  0  0  0  2  0  0  0  0  0  0
  188.2820  178.2610  143.9660 C   0  0  1  0  0  3  0  0  0  0  0  0
  187.4710  178.0680  145.2370 C   0  0  0  0  0  2  0  0  0  0  0  0
  185.9830  177.9920  144.9340 C   0  0  0  0  0  3  0  0  0  0  0  0
  185.6910  178.4920  143.5190 C   0  0  0  0  0  2  0  0  0  0  0  0
  185.2230  178.8390  145.9520 C   0  0  0  0  0  2  0  0  0  0  0  0
  184.1920  178.4400  143.2370 C   0  0  0  0  0  2  0  0  0  0  0  0
  183.4360  179.2870  144.2560 C   0  0  0  0  0  2  0  0  0  0  0  0
  183.7240  178.7880  145.6700 C   0  0  0  0  0  2  0  0  0  0  0  0
  189.7630  178.3340  144.3080 C   0  0  0  0  0  2  0  0  0  0  0  0
  189.9880  177.8230  145.5870 O   0  0  0  0  0  0  0  0  0  0  0  0
  191.0810  176.9660  145.4460 C   0  0  0  0  0  2  0  0  0  0  0  0
  191.4590  176.4210  146.7770 C   0  0  0  0  0  0  0  0  0  0  0  0
  192.4050  175.4090  146.8680 O   0  0  0  0  0  0  0  0  0  0  0  0
  190.9510  176.9020  147.8250 O   0  0  0  0  0  1  0  0  0  0  0  0
  188.5740  178.4090  141.0090 C   0  0  0  0  0  2  0  0  0  0  0  0
  187.4160  178.0370  140.1000 C   0  0  0  0  0  2  0  0  0  0  0  0
  187.8700  178.0560  138.6470 C   0  0  2  0  0  3  0  0  0  0  0  0
  188.9800  179.1800  137.0840 C   0  0  0  0  0  1  0  0  0  0  0  0
  188.8050  179.0830  138.4660 O   0  0  0  0  0  0  0  0  0  0  0  0
  186.6690  178.2700  137.7270 C   0  0  2  0  0  3  0  0  0  0  0  0
  185.7320  179.0920  138.3590 O   0  0  0  0  0  1  0  0  0  0  0  0
  186.0190  176.9320  137.3920 C   0  0  0  0  0  2  0  0  0  0  0  0
  186.8370  177.5420  135.2280 O   0  0  0  0  0  1  0  0  0  0  0  0
  185.9090  176.7370  135.8890 C   0  0  0  0  0  2  0  0  0  0  0  0
  1 13  1  0  0  0  0
  2  1  1  0  0  0  0
  2  3  2  0  0  0  0
  4 11  2  0  0  0  0
  4  8  1  0  0  0  0
  5  6  2  0  0  0  0
  5  2  1  0  0  0  0
  6 10  1  0  0  0  0
  7  9  2  0  0  0  0
  7  6  1  0  0  0  0
  8  5  1  0  0  0  0
 11  7  1  0  0  0  0
 12 11  1  0  0  0  0
 13 14  1  0  0  0  0
 14 22  1  1  0  0  0
 14 15  1  0  0  0  0
 16 15  1  0  0  0  0
 16 18  1  0  0  0  0
 17 16  1  0  0  0  0
 19 17  1  0  0  0  0
 19 20  1  0  0  0  0
 20 21  1  0  0  0  0
 21 18  1  0  0  0  0
 22 23  1  0  0  0  0
 24 23  1  0  0  0  0
 24 25  1  0  0  0  0
 25 26  2  0  0  0  0
 25 27  1  0  0  0  0
 28  1  1  0  0  0  0
 29 28  1  0  0  0  0
 30 29  1  1  0  0  0
 31 32  1  0  0  0  0
 32 30  1  0  0  0  0
 33 34  1  1  0  0  0
 33 30  1  0  0  0  0
 35 33  1  0  0  0  0
 36 37  1  0  0  0  0
 37 35  1  0  0  0  0
M  END
>  <MODEL>
7

>  <REMARK>
 VINA RESULT:      -6.5      2.103      6.402
  Name = 
  16 active torsions:
  status: ('A' for Active; 'I' for Inactive)
    1  A    between atoms: C_1  and  C_22
    2  A    between atoms: C_1  and  C_25
    3  A    between atoms: C_2  and  C_37
    4  A    between atoms: N_3  and  C_4
    5  A    between atoms: N_3  and  N_31
    6  A    between atoms: C_4  and  C_28
    7  A    between atoms: C_5  and  C_19
    8  A    between atoms: C_9  and  C_20
    9  A    between atoms: C_11  and  C_22
   10  A    between atoms: C_11  and  C_28
   11  A    between atoms: C_11  and  O_35
   12  A    between atoms: O_15  and  C_19
   13  A    between atoms: O_15  and  C_21
   14  A    between atoms: C_21  and  C_32
   15  A    between atoms: N_31  and  C_32
   16  A    between atoms: C_32  and  C_37
                            x       y       z     vdW  Elec       q    Type
                         _______ _______ _______ _____ _____    ______ ____

>  <TORSDO>
F 16

$$$$
=
 OpenBabel10232412393D

 37 38  0  0  1  0  0  0  0  0999 V2000
  187.4940  178.4280  141.1500 N   0  0  0  0  0  0  0  0  0  0  0  0
  186.1690  178.9890  141.1630 C   0  0  0  0  0  0  0  0  0  0  0  0
  185.8960  179.9030  141.9900 O   0  0  0  0  0  0  0  0  0  0  0  0
  184.2570  178.1540  137.8700 C   0  0  0  0  0  3  0  0  0  0  0  0
  185.1110  178.5040  140.2430 C   0  0  0  0  0  0  0  0  0  0  0  0
  183.9350  178.0410  140.7160 C   0  0  0  0  0  0  0  0  0  0  0  0
  182.8960  177.5630  139.7880 C   0  0  0  0  0  0  0  0  0  0  0  0
  185.4350  178.4360  138.7650 C   0  0  0  0  0  2  0  0  0  0  0  0
  181.8320  177.0560  140.2330 O   0  0  0  0  0  0  0  0  0  0  0  0
  183.6660  178.0380  142.0820 O   0  0  0  0  0  1  0  0  0  0  0  0
  183.0920  177.7150  138.3410 C   0  0  0  0  0  0  0  0  0  0  0  0
  182.0600  177.4180  137.4590 O   0  0  0  0  0  1  0  0  0  0  0  0
  188.4100  178.7890  142.1550 N   0  0  0  0  0  2  0  0  0  0  0  0
  188.4980  177.6780  143.0940 C   0  0  1  0  0  3  0  0  0  0  0  0
  187.1070  177.1230  143.3520 C   0  0  0  0  0  2  0  0  0  0  0  0
  186.7290  177.2450  144.8190 C   0  0  0  0  0  3  0  0  0  0  0  0
  185.6180  178.2770  145.0100 C   0  0  0  0  0  2  0  0  0  0  0  0
  187.9630  177.6570  145.6190 C   0  0  0  0  0  2  0  0  0  0  0  0
  185.2680  178.4130  146.4890 C   0  0  0  0  0  2  0  0  0  0  0  0
  186.5030  178.8240  147.2840 C   0  0  0  0  0  2  0  0  0  0  0  0
  187.6140  177.7940  147.0990 C   0  0  0  0  0  2  0  0  0  0  0  0
  189.3890  176.5860  142.5180 C   0  0  0  0  0  2  0  0  0  0  0  0
  190.7330  176.9290  142.6720 O   0  0  0  0  0  0  0  0  0  0  0  0
  191.1370  176.2880  143.8450 C   0  0  0  0  0  2  0  0  0  0  0  0
  191.6070  177.3010  144.8260 C   0  0  0  0  0  0  0  0  0  0  0  0
  191.9350  176.9130  146.1190 O   0  0  0  0  0  1  0  0  0  0  0  0
  191.7440  178.5040  144.4780 O   0  0  0  0  0  0  0  0  0  0  0  0
  187.9630  177.6450  140.0110 C   0  0  0  0  0  2  0  0  0  0  0  0
  189.0580  178.3930  139.2720 C   0  0  0  0  0  2  0  0  0  0  0  0
  189.5290  177.5750  138.0770 C   0  0  2  0  0  3  0  0  0  0  0  0
  188.1520  177.5080  136.3350 C   0  0  0  0  0  1  0  0  0  0  0  0
  188.4450  176.8690  137.5410 O   0  0  0  0  0  0  0  0  0  0  0  0
  190.6280  176.6050  138.5090 C   0  0  2  0  0  3  0  0  0  0  0  0
  191.3840  177.1770  139.5350 O   0  0  0  0  0  1  0  0  0  0  0  0
  191.5400  176.2850  137.3300 C   0  0  0  0  0  2  0  0  0  0  0  0
  190.4810  174.1770  137.7210 O   0  0  0  0  0  1  0  0  0  0  0  0
  191.3630  174.8470  136.8730 C   0  0  0  0  0  2  0  0  0  0  0  0
  1  2  1  0  0  0  0
  1 13  1  0  0  0  0
  2  3  2  0  0  0  0
  4 11  2  0  0  0  0
  4  8  1  0  0  0  0
  5  6  2  0  0  0  0
  5  2  1  0  0  0  0
  6 10  1  0  0  0  0
  7  9  2  0  0  0  0
  7  6  1  0  0  0  0
  8  5  1  0  0  0  0
 11  7  1  0  0  0  0
 12 11  1  0  0  0  0
 13 14  1  0  0  0  0
 14 22  1  6  0  0  0
 14 15  1  0  0  0  0
 15 16  1  0  0  0  0
 16 17  1  0  0  0  0
 16 18  1  0  0  0  0
 17 19  1  0  0  0  0
 18 21  1  0  0  0  0
 19 20  1  0  0  0  0
 21 20  1  0  0  0  0
 22 23  1  0  0  0  0
 23 24  1  0  0  0  0
 24 25  1  0  0  0  0
 25 26  1  0  0  0  0
 27 25  2  0  0  0  0
 28  1  1  0  0  0  0
 29 28  1  0  0  0  0
 30 33  1  0  0  0  0
 30 29  1  1  0  0  0
 31 32  1  0  0  0  0
 32 30  1  0  0  0  0
 33 34  1  1  0  0  0
 35 33  1  0  0  0  0
 37 35  1  0  0  0  0
 37 36  1  0  0  0  0
M  END
>  <MODEL>
8

>  <REMARK>
 VINA RESULT:      -6.4      1.510      6.607
  Name = 
  16 active torsions:
  status: ('A' for Active; 'I' for Inactive)
    1  A    between atoms: C_1  and  C_22
    2  A    between atoms: C_1  and  C_25
    3  A    between atoms: C_2  and  C_37
    4  A    between atoms: N_3  and  C_4
    5  A    between atoms: N_3  and  N_31
    6  A    between atoms: C_4  and  C_28
    7  A    between atoms: C_5  and  C_19
    8  A    between atoms: C_9  and  C_20
    9  A    between atoms: C_11  and  C_22
   10  A    between atoms: C_11  and  C_28
   11  A    between atoms: C_11  and  O_35
   12  A    between atoms: O_15  and  C_19
   13  A    between atoms: O_15  and  C_21
   14  A    between atoms: C_21  and  C_32
   15  A    between atoms: N_31  and  C_32
   16  A    between atoms: C_32  and  C_37
                            x       y       z     vdW  Elec       q    Type
                         _______ _______ _______ _____ _____    ______ ____

>  <TORSDO>
F 16

$$$$
=
 OpenBabel10232412393D

 37 38  0  0  1  0  0  0  0  0999 V2000
  186.8850  178.4660  141.8450 N   0  0  0  0  0  0  0  0  0  0  0  0
  185.6530  178.9950  141.3210 C   0  0  0  0  0  0  0  0  0  0  0  0
  185.6570  179.5630  140.1950 O   0  0  0  0  0  0  0  0  0  0  0  0
  183.1450  179.0410  144.3050 C   0  0  0  0  0  3  0  0  0  0  0  0
  184.3830  178.9090  142.0840 C   0  0  0  0  0  0  0  0  0  0  0  0
  183.2330  178.5380  141.4860 C   0  0  0  0  0  0  0  0  0  0  0  0
  181.9830  178.4580  142.2590 C   0  0  0  0  0  0  0  0  0  0  0  0
  184.3950  179.3630  143.5300 C   0  0  0  0  0  2  0  0  0  0  0  0
  180.8950  178.1900  141.6830 O   0  0  0  0  0  0  0  0  0  0  0  0
  183.2100  178.1880  140.1380 O   0  0  0  0  0  1  0  0  0  0  0  0
  182.0170  178.6560  143.7130 C   0  0  0  0  0  0  0  0  0  0  0  0
  180.8800  178.4290  144.4800 O   0  0  0  0  0  1  0  0  0  0  0  0
  188.0930  178.7290  141.1740 N   0  0  0  0  0  2  0  0  0  0  0  0
  188.3820  177.5870  140.3170 C   0  0  1  0  0  3  0  0  0  0  0  0
  187.8660  177.8650  138.9140 C   0  0  0  0  0  2  0  0  0  0  0  0
  188.6420  177.0720  137.8750 C   0  0  0  0  0  3  0  0  0  0  0  0
  189.0210  177.9580  136.6880 C   0  0  0  0  0  2  0  0  0  0  0  0
  187.7840  175.9030  137.3980 C   0  0  0  0  0  2  0  0  0  0  0  0
  189.7730  177.1450  135.6380 C   0  0  0  0  0  2  0  0  0  0  0  0
  188.9130  175.9780  135.1640 C   0  0  0  0  0  2  0  0  0  0  0  0
  188.5350  175.0900  136.3470 C   0  0  0  0  0  2  0  0  0  0  0  0
  189.8840  177.3430  140.2720 C   0  0  0  0  0  2  0  0  0  0  0  0
  190.2960  176.6600  141.4180 O   0  0  0  0  0  0  0  0  0  0  0  0
  191.5470  177.1960  141.7260 C   0  0  0  0  0  2  0  0  0  0  0  0
  191.6170  177.4860  143.1830 C   0  0  0  0  0  0  0  0  0  0  0  0
  191.7100  178.7990  143.6240 O   0  0  0  0  0  0  0  0  0  0  0  0
  191.5550  176.5450  144.0190 O   0  0  0  0  0  1  0  0  0  0  0  0
  186.8790  177.5090  142.9460 C   0  0  0  0  0  2  0  0  0  0  0  0
  187.9620  177.8560  143.9520 C   0  0  0  0  0  2  0  0  0  0  0  0
  187.6970  177.1360  145.2680 C   0  0  2  0  0  3  0  0  0  0  0  0
  186.3570  178.3550  146.5530 C   0  0  0  0  0  1  0  0  0  0  0  0
  186.3560  177.3080  145.6300 O   0  0  0  0  0  0  0  0  0  0  0  0
  188.6120  177.6900  146.3590 C   0  0  2  0  0  3  0  0  0  0  0  0
  189.5800  178.5190  145.7860 O   0  0  0  0  0  1  0  0  0  0  0  0
  189.3020  176.5480  147.0970 C   0  0  0  0  0  2  0  0  0  0  0  0
  191.5760  175.8250  147.2620 O   0  0  0  0  0  1  0  0  0  0  0  0
  190.7300  176.9150  147.4650 C   0  0  0  0  0  2  0  0  0  0  0  0
  1 28  1  0  0  0  0
  2  1  1  0  0  0  0
  2  5  1  0  0  0  0
  3  2  2  0  0  0  0
  5  8  1  0  0  0  0
  6  5  2  0  0  0  0
  6  7  1  0  0  0  0
  7 11  1  0  0  0  0
  8  4  1  0  0  0  0
  9  7  2  0  0  0  0
 10  6  1  0  0  0  0
 11  4  2  0  0  0  0
 11 12  1  0  0  0  0
 13  1  1  0  0  0  0
 14 15  1  6  0  0  0
 14 13  1  0  0  0  0
 16 15  1  0  0  0  0
 17 16  1  0  0  0  0
 18 16  1  0  0  0  0
 19 17  1  0  0  0  0
 20 19  1  0  0  0  0
 20 21  1  0  0  0  0
 21 18  1  0  0  0  0
 22 14  1  0  0  0  0
 22 23  1  0  0  0  0
 23 24  1  0  0  0  0
 24 25  1  0  0  0  0
 25 26  2  0  0  0  0
 25 27  1  0  0  0  0
 28 29  1  0  0  0  0
 30 29  1  6  0  0  0
 30 32  1  0  0  0  0
 30 33  1  0  0  0  0
 32 31  1  0  0  0  0
 33 34  1  6  0  0  0
 33 35  1  0  0  0  0
 35 37  1  0  0  0  0
 36 37  1  0  0  0  0
M  END
>  <MODEL>
9

>  <REMARK>
 VINA RESULT:      -6.3      2.222      7.456
  Name = 
  16 active torsions:
  status: ('A' for Active; 'I' for Inactive)
    1  A    between atoms: C_1  and  C_22
    2  A    between atoms: C_1  and  C_25
    3  A    between atoms: C_2  and  C_37
    4  A    between atoms: N_3  and  C_4
    5  A    between atoms: N_3  and  N_31
    6  A    between atoms: C_4  and  C_28
    7  A    between atoms: C_5  and  C_19
    8  A    between atoms: C_9  and  C_20
    9  A    between atoms: C_11  and  C_22
   10  A    between atoms: C_11  and  C_28
   11  A    between atoms: C_11  and  O_35
   12  A    between atoms: O_15  and  C_19
   13  A    between atoms: O_15  and  C_21
   14  A    between atoms: C_21  and  C_32
   15  A    between atoms: N_31  and  C_32
   16  A    between atoms: C_32  and  C_37
                            x       y       z     vdW  Elec       q    Type
                         _______ _______ _______ _____ _____    ______ ____

>  <TORSDO>
F 16

$$$$
