=
 OpenBabel10232407543D

 26 29  0  0  1  0  0  0  0  0999 V2000
  187.4150  178.2500  142.5590 C   0  0  2  0  0  3  0  0  0  0  0  0
  184.5820  178.2310  144.7190 C   0  0  0  0  0  2  0  0  0  0  0  0
  186.6510  178.0400  143.8210 C   0  0  0  0  0  0  0  0  0  0  0  0
  185.4890  179.2230  146.7350 N   0  0  0  0  0  0  0  0  0  0  0  0
  186.2320  178.5210  141.6410 C   0  0  0  0  0  0  0  0  0  0  0  0
  188.4640  178.2600  147.0090 C   0  0  0  0  0  3  0  0  0  0  0  0
  188.2240  178.0160  145.7210 C   0  0  0  0  0  3  0  0  0  0  0  0
  186.3580  178.8040  140.4210 O   0  0  0  0  0  0  0  0  0  0  0  0
  185.2780  178.1420  143.6020 C   0  0  0  0  0  0  0  0  0  0  0  0
  186.9000  178.0750  145.1110 C   0  0  2  0  0  3  0  0  0  0  0  0
  186.3100  179.5100  147.7000 C   0  0  0  0  0  0  0  0  0  0  0  0
  185.9880  180.5920  148.5660 N   0  0  0  0  0  1  0  0  0  0  0  0
  185.5860  178.0760  145.8460 C   0  0  2  0  0  3  0  0  0  0  0  0
  187.5080  178.7620  147.9580 N   0  0  0  0  0  2  0  0  0  0  0  0
  184.9390  178.4620  142.2700 N   0  0  0  0  0  2  0  0  0  0  0  0
  189.8710  175.2960  142.9560 C   0  0  0  0  0  2  0  0  0  0  0  0
  189.4450  177.3970  141.2290 C   0  0  2  0  0  3  0  0  0  0  0  0
  191.0180  176.3180  142.8880 C   0  0  1  0  0  3  0  0  0  0  0  0
  188.5210  175.9850  143.1600 C   0  0  0  0  0  2  0  0  0  0  0  0
  188.1930  177.0110  142.0510 C   0  0  1  0  0  3  0  0  0  0  0  0
  190.6480  177.6070  142.1410 C   0  0  0  0  0  2  0  0  0  0  0  0
  191.6080  178.5160  144.2050 C   0  0  0  0  0  1  0  0  0  0  0  0
  191.5970  176.7360  144.5590 S   0  0  0  0  0  0  0  0  0  0  0  0
  189.2250  178.5710  140.4020 N   0  0  0  0  0  2  0  0  0  0  0  0
  189.3410  178.3840  137.8540 N   0  0  0  0  0  0  0  0  0  0  0  0
  189.2890  178.4690  139.0070 C   0  0  0  0  0  0  0  0  0  0  0  0
  1  5  1  6  0  0  0
  1  3  1  0  0  0  0
  3 10  1  0  0  0  0
  4 11  2  0  0  0  0
  5 15  1  0  0  0  0
  6 14  1  0  0  0  0
  7  6  2  0  0  0  0
  8  5  2  0  0  0  0
  9  3  2  0  0  0  0
  9  2  1  0  0  0  0
 10  7  1  1  0  0  0
 10 13  1  0  0  0  0
 11 14  1  0  0  0  0
 11 12  1  0  0  0  0
 13  2  1  6  0  0  0
 13  4  1  0  0  0  0
 15  9  1  0  0  0  0
 16 19  1  0  0  0  0
 17 24  1  1  0  0  0
 17 20  1  0  0  0  0
 17 21  1  0  0  0  0
 18 16  1  0  0  0  0
 18 23  1  1  0  0  0
 20  1  1  0  0  0  0
 20 19  1  1  0  0  0
 21 18  1  0  0  0  0
 22 23  1  0  0  0  0
 25 26  3  0  0  0  0
 26 24  1  0  0  0  0
M  END
>  <MODEL>
1

>  <REMARK>
 VINA RESULT:      -6.8      0.000      0.000
  Name = 
  4 active torsions:
  status: ('A' for Active; 'I' for Inactive)
    1  A    between atoms: C_2  and  C_15
    2  A    between atoms: C_4  and  N_12
    3  A    between atoms: S_6  and  C_8
    4  A    between atoms: C_10  and  N_12
                            x       y       z     vdW  Elec       q    Type
                         _______ _______ _______ _____ _____    ______ ____

>  <TORSDO>
F 4

$$$$
=
 OpenBabel10232407543D

 26 29  0  0  1  0  0  0  0  0999 V2000
  188.4690  177.4120  145.4460 C   0  0  2  0  0  3  0  0  0  0  0  0
  185.2560  178.9510  145.3880 C   0  0  0  0  0  2  0  0  0  0  0  0
  187.3340  178.2030  144.8920 C   0  0  0  0  0  0  0  0  0  0  0  0
  184.4470  178.3270  143.1900 N   0  0  0  0  0  0  0  0  0  0  0  0
  187.9600  177.2920  146.8760 C   0  0  0  0  0  0  0  0  0  0  0  0
  186.9090  178.3130  141.2440 C   0  0  0  0  0  3  0  0  0  0  0  0
  187.5100  178.2500  142.4310 C   0  0  0  0  0  3  0  0  0  0  0  0
  188.5710  176.6540  147.7720 O   0  0  0  0  0  0  0  0  0  0  0  0
  186.3910  178.4930  145.8780 C   0  0  0  0  0  0  0  0  0  0  0  0
  186.8280  178.4530  143.7040 C   0  0  2  0  0  3  0  0  0  0  0  0
  184.4260  178.0720  141.9170 C   0  0  0  0  0  0  0  0  0  0  0  0
  183.2740  177.4410  141.3690 N   0  0  0  0  0  1  0  0  0  0  0  0
  185.4730  179.0820  143.8910 C   0  0  2  0  0  3  0  0  0  0  0  0
  185.4940  178.4330  141.0270 N   0  0  0  0  0  2  0  0  0  0  0  0
  186.7020  177.9400  147.1380 N   0  0  0  0  0  2  0  0  0  0  0  0
  191.4420  179.1920  143.7420 C   0  0  0  0  0  2  0  0  0  0  0  0
  191.0260  177.1560  145.5480 C   0  0  2  0  0  3  0  0  0  0  0  0
  191.9270  177.8090  143.2780 C   0  0  1  0  0  3  0  0  0  0  0  0
  190.0090  179.1330  144.2690 C   0  0  0  0  0  2  0  0  0  0  0  0
  189.8360  178.1390  145.4410 C   0  0  1  0  0  3  0  0  0  0  0  0
  191.4420  176.6570  144.1690 C   0  0  0  0  0  2  0  0  0  0  0  0
  190.2710  176.1770  142.0490 C   0  0  0  0  0  1  0  0  0  0  0  0
  191.4160  177.4980  141.5620 S   0  0  0  0  0  0  0  0  0  0  0  0
  190.7430  176.0360  146.4290 N   0  0  0  0  0  2  0  0  0  0  0  0
  192.4630  175.3150  148.1790 N   0  0  0  0  0  0  0  0  0  0  0  0
  191.6840  175.6410  147.3870 C   0  0  0  0  0  0  0  0  0  0  0  0
  1  3  1  6  0  0  0
  1  5  1  0  0  0  0
  2  9  1  0  0  0  0
  3  9  2  0  0  0  0
  4 13  1  0  0  0  0
  5 15  1  0  0  0  0
  5  8  2  0  0  0  0
  6  7  2  0  0  0  0
  9 15  1  0  0  0  0
 10  7  1  1  0  0  0
 10 13  1  0  0  0  0
 10  3  1  0  0  0  0
 11  4  2  0  0  0  0
 12 11  1  0  0  0  0
 13  2  1  1  0  0  0
 14  6  1  0  0  0  0
 14 11  1  0  0  0  0
 16 19  1  0  0  0  0
 17 24  1  1  0  0  0
 18 23  1  6  0  0  0
 18 16  1  0  0  0  0
 18 21  1  0  0  0  0
 20 19  1  6  0  0  0
 20  1  1  0  0  0  0
 20 17  1  0  0  0  0
 21 17  1  0  0  0  0
 23 22  1  0  0  0  0
 24 26  1  0  0  0  0
 26 25  3  0  0  0  0
M  END
>  <MODEL>
2

>  <REMARK>
 VINA RESULT:      -6.6      2.640      5.279
  Name = 
  4 active torsions:
  status: ('A' for Active; 'I' for Inactive)
    1  A    between atoms: C_2  and  C_15
    2  A    between atoms: C_4  and  N_12
    3  A    between atoms: S_6  and  C_8
    4  A    between atoms: C_10  and  N_12
                            x       y       z     vdW  Elec       q    Type
                         _______ _______ _______ _____ _____    ______ ____

>  <TORSDO>
F 4

$$$$
=
 OpenBabel10232407543D

 26 29  0  0  1  0  0  0  0  0999 V2000
  190.4060  175.7680  137.7920 C   0  0  2  0  0  3  0  0  0  0  0  0
  192.9440  177.1840  139.8530 C   0  0  0  0  0  2  0  0  0  0  0  0
  190.9900  176.6430  138.8490 C   0  0  0  0  0  0  0  0  0  0  0  0
  191.9030  177.1140  142.0400 N   0  0  0  0  0  0  0  0  0  0  0  0
  191.7130  175.2780  137.1840 C   0  0  0  0  0  0  0  0  0  0  0  0
  188.8370  177.6600  141.6480 C   0  0  0  0  0  3  0  0  0  0  0  0
  189.2050  177.3140  140.4140 C   0  0  0  0  0  3  0  0  0  0  0  0
  191.7620  174.4500  136.2370 O   0  0  0  0  0  0  0  0  0  0  0  0
  192.3820  176.6490  138.7870 C   0  0  0  0  0  0  0  0  0  0  0  0
  190.5910  177.1710  139.9850 C   0  0  2  0  0  3  0  0  0  0  0  0
  191.0040  177.1900  142.9750 C   0  0  0  0  0  0  0  0  0  0  0  0
  191.3230  176.6860  144.2670 N   0  0  0  0  0  1  0  0  0  0  0  0
  191.8010  177.6960  140.7110 C   0  0  2  0  0  3  0  0  0  0  0  0
  189.7160  177.7930  142.7760 N   0  0  0  0  0  2  0  0  0  0  0  0
  192.9080  175.8040  137.7870 N   0  0  0  0  0  2  0  0  0  0  0  0
  187.9560  178.4890  136.5670 C   0  0  0  0  0  2  0  0  0  0  0  0
  188.2710  175.7630  136.3590 C   0  0  2  0  0  3  0  0  0  0  0  0
  186.8180  177.6600  137.1850 C   0  0  1  0  0  3  0  0  0  0  0  0
  189.3250  178.0000  137.0380 C   0  0  0  0  0  2  0  0  0  0  0  0
  189.5780  176.5100  136.7140 C   0  0  1  0  0  3  0  0  0  0  0  0
  187.1440  176.1650  137.3040 C   0  0  0  0  0  2  0  0  0  0  0  0
  184.5980  178.2730  138.4540 C   0  0  0  0  0  1  0  0  0  0  0  0
  186.3750  178.3110  138.8230 S   0  0  0  0  0  0  0  0  0  0  0  0
  188.4390  174.3190  136.3560 N   0  0  0  0  0  2  0  0  0  0  0  0
  186.5860  172.8120  137.2700 N   0  0  0  0  0  0  0  0  0  0  0  0
  187.4250  173.4940  136.8560 C   0  0  0  0  0  0  0  0  0  0  0  0
  1  5  1  6  0  0  0
  1  3  1  0  0  0  0
  3 10  1  0  0  0  0
  4 11  2  0  0  0  0
  5 15  1  0  0  0  0
  6 14  1  0  0  0  0
  7  6  2  0  0  0  0
  8  5  2  0  0  0  0
  9  3  2  0  0  0  0
  9  2  1  0  0  0  0
 10  7  1  6  0  0  0
 10 13  1  0  0  0  0
 11 12  1  0  0  0  0
 13  2  1  6  0  0  0
 13  4  1  0  0  0  0
 14 11  1  0  0  0  0
 15  9  1  0  0  0  0
 16 19  1  0  0  0  0
 16 18  1  0  0  0  0
 17 24  1  1  0  0  0
 17 20  1  0  0  0  0
 17 21  1  0  0  0  0
 18 21  1  0  0  0  0
 18 23  1  1  0  0  0
 20 19  1  1  0  0  0
 20  1  1  0  0  0  0
 22 23  1  0  0  0  0
 24 26  1  0  0  0  0
 26 25  3  0  0  0  0
M  END
>  <MODEL>
3

>  <REMARK>
 VINA RESULT:      -6.0      4.459      7.191
  Name = 
  4 active torsions:
  status: ('A' for Active; 'I' for Inactive)
    1  A    between atoms: C_2  and  C_15
    2  A    between atoms: C_4  and  N_12
    3  A    between atoms: S_6  and  C_8
    4  A    between atoms: C_10  and  N_12
                            x       y       z     vdW  Elec       q    Type
                         _______ _______ _______ _____ _____    ______ ____

>  <TORSDO>
F 4

$$$$
=
 OpenBabel10232407543D

 26 29  0  0  1  0  0  0  0  0999 V2000
  188.6430  177.3120  145.8660 C   0  0  2  0  0  3  0  0  0  0  0  0
  185.8020  179.1720  146.9460 C   0  0  0  0  0  2  0  0  0  0  0  0
  187.4800  178.2370  145.7480 C   0  0  0  0  0  0  0  0  0  0  0  0
  184.2120  178.7230  145.1740 N   0  0  0  0  0  0  0  0  0  0  0  0
  188.6570  177.1880  147.3830 C   0  0  0  0  0  0  0  0  0  0  0  0
  185.8190  178.5360  142.4840 C   0  0  0  0  0  3  0  0  0  0  0  0
  186.7870  178.3640  143.3840 C   0  0  0  0  0  3  0  0  0  0  0  0
  189.4690  176.4550  148.0050 O   0  0  0  0  0  0  0  0  0  0  0  0
  186.9800  178.5820  147.0030 C   0  0  0  0  0  0  0  0  0  0  0  0
  186.6210  178.5850  144.8160 C   0  0  2  0  0  3  0  0  0  0  0  0
  183.7180  178.5230  143.9890 C   0  0  0  0  0  0  0  0  0  0  0  0
  182.3860  178.0350  143.8810 N   0  0  0  0  0  1  0  0  0  0  0  0
  185.4950  179.3410  145.4690 C   0  0  2  0  0  3  0  0  0  0  0  0
  184.4400  178.8090  142.7810 N   0  0  0  0  0  2  0  0  0  0  0  0
  187.6500  177.9500  148.0720 N   0  0  0  0  0  2  0  0  0  0  0  0
  191.0530  178.7140  143.1930 C   0  0  0  0  0  2  0  0  0  0  0  0
  191.0660  176.8010  145.1740 C   0  0  2  0  0  3  0  0  0  0  0  0
  191.2450  177.2720  142.6960 C   0  0  1  0  0  3  0  0  0  0  0  0
  189.8640  178.8210  144.1490 C   0  0  0  0  0  2  0  0  0  0  0  0
  189.9930  177.8950  145.3800 C   0  0  1  0  0  3  0  0  0  0  0  0
  190.9750  176.2100  143.7710 C   0  0  0  0  0  2  0  0  0  0  0  0
  191.5270  177.2970  140.0810 C   0  0  0  0  0  1  0  0  0  0  0  0
  190.1860  176.9500  141.2540 S   0  0  0  0  0  0  0  0  0  0  0  0
  190.9870  175.7490  146.1730 N   0  0  0  0  0  2  0  0  0  0  0  0
  192.9140  175.3940  147.8160 N   0  0  0  0  0  0  0  0  0  0  0  0
  192.0410  175.5540  147.0720 C   0  0  0  0  0  0  0  0  0  0  0  0
  1  3  1  1  0  0  0
  1  5  1  0  0  0  0
  2  9  1  0  0  0  0
  3  9  2  0  0  0  0
  4 13  1  0  0  0  0
  5  8  2  0  0  0  0
  5 15  1  0  0  0  0
  6 14  1  0  0  0  0
  6  7  2  0  0  0  0
  9 15  1  0  0  0  0
 10  7  1  6  0  0  0
 10 13  1  0  0  0  0
 10  3  1  0  0  0  0
 11  4  2  0  0  0  0
 12 11  1  0  0  0  0
 13  2  1  1  0  0  0
 14 11  1  0  0  0  0
 16 19  1  0  0  0  0
 17 20  1  0  0  0  0
 17 24  1  1  0  0  0
 18 23  1  6  0  0  0
 18 16  1  0  0  0  0
 18 21  1  0  0  0  0
 20 19  1  6  0  0  0
 20  1  1  0  0  0  0
 21 17  1  0  0  0  0
 22 23  1  0  0  0  0
 24 26  1  0  0  0  0
 26 25  3  0  0  0  0
M  END
>  <MODEL>
4

>  <REMARK>
 VINA RESULT:      -5.9      2.905      5.101
  Name = 
  4 active torsions:
  status: ('A' for Active; 'I' for Inactive)
    1  A    between atoms: C_2  and  C_15
    2  A    between atoms: C_4  and  N_12
    3  A    between atoms: S_6  and  C_8
    4  A    between atoms: C_10  and  N_12
                            x       y       z     vdW  Elec       q    Type
                         _______ _______ _______ _____ _____    ______ ____

>  <TORSDO>
F 4

$$$$
=
 OpenBabel10232407543D

 26 29  0  0  1  0  0  0  0  0999 V2000
  185.8880  177.6670  138.2510 C   0  0  2  0  0  3  0  0  0  0  0  0
  183.0980  176.3410  136.4760 C   0  0  0  0  0  2  0  0  0  0  0  0
  185.1590  176.7760  137.3050 C   0  0  0  0  0  0  0  0  0  0  0  0
  183.4400  173.9550  136.7250 N   0  0  0  0  0  0  0  0  0  0  0  0
  184.7570  178.6470  138.5290 C   0  0  0  0  0  0  0  0  0  0  0  0
  186.5340  173.4300  136.6570 C   0  0  0  0  0  3  0  0  0  0  0  0
  186.4920  174.7340  136.9310 C   0  0  0  0  0  3  0  0  0  0  0  0
  184.8630  179.6110  139.3310 O   0  0  0  0  0  0  0  0  0  0  0  0
  183.8590  177.2300  137.0840 C   0  0  0  0  0  0  0  0  0  0  0  0
  185.2840  175.5470  136.8550 C   0  0  2  0  0  3  0  0  0  0  0  0
  184.0320  172.8010  136.7970 C   0  0  0  0  0  0  0  0  0  0  0  0
  183.2830  171.6820  137.2560 N   0  0  0  0  0  1  0  0  0  0  0  0
  184.0060  175.1680  136.1550 C   0  0  2  0  0  3  0  0  0  0  0  0
  185.3960  172.5930  136.3990 N   0  0  0  0  0  2  0  0  0  0  0  0
  183.5280  178.3820  137.8290 N   0  0  0  0  0  2  0  0  0  0  0  0
  188.9080  178.0310  135.8710 C   0  0  0  0  0  2  0  0  0  0  0  0
  188.3440  178.3720  138.5440 C   0  0  2  0  0  3  0  0  0  0  0  0
  189.6900  177.1060  136.8180 C   0  0  1  0  0  3  0  0  0  0  0  0
  187.4120  178.0130  136.1820 C   0  0  0  0  0  2  0  0  0  0  0  0
  187.0920  178.4250  137.6380 C   0  0  1  0  0  3  0  0  0  0  0  0
  189.1660  177.1190  138.2610 C   0  0  0  0  0  2  0  0  0  0  0  0
  190.8610  174.8390  137.4530 C   0  0  0  0  0  1  0  0  0  0  0  0
  189.6840  175.4010  136.1910 S   0  0  0  0  0  0  0  0  0  0  0  0
  188.0120  178.4510  139.9560 N   0  0  0  0  0  2  0  0  0  0  0  0
  189.3900  177.1490  141.6730 N   0  0  0  0  0  0  0  0  0  0  0  0
  188.7660  177.7380  140.8960 C   0  0  0  0  0  0  0  0  0  0  0  0
  1  3  1  6  0  0  0
  1  5  1  0  0  0  0
  2  9  1  0  0  0  0
  4 11  2  0  0  0  0
  5  8  2  0  0  0  0
  6  7  2  0  0  0  0
  9  3  2  0  0  0  0
  9 15  1  0  0  0  0
 10  7  1  6  0  0  0
 10  3  1  0  0  0  0
 11 12  1  0  0  0  0
 13  2  1  1  0  0  0
 13  4  1  0  0  0  0
 13 10  1  0  0  0  0
 14  6  1  0  0  0  0
 14 11  1  0  0  0  0
 15  5  1  0  0  0  0
 16 19  1  0  0  0  0
 16 18  1  0  0  0  0
 17 24  1  1  0  0  0
 18 23  1  6  0  0  0
 18 21  1  0  0  0  0
 20 19  1  6  0  0  0
 20  1  1  0  0  0  0
 20 17  1  0  0  0  0
 21 17  1  0  0  0  0
 23 22  1  0  0  0  0
 24 26  1  0  0  0  0
 26 25  3  0  0  0  0
M  END
>  <MODEL>
5

>  <REMARK>
 VINA RESULT:      -5.5      5.039      8.044
  Name = 
  4 active torsions:
  status: ('A' for Active; 'I' for Inactive)
    1  A    between atoms: C_2  and  C_15
    2  A    between atoms: C_4  and  N_12
    3  A    between atoms: S_6  and  C_8
    4  A    between atoms: C_10  and  N_12
                            x       y       z     vdW  Elec       q    Type
                         _______ _______ _______ _____ _____    ______ ____

>  <TORSDO>
F 4

$$$$
=
 OpenBabel10232407543D

 26 29  0  0  1  0  0  0  0  0999 V2000
  187.5090  177.6950  142.6570 C   0  0  2  0  0  3  0  0  0  0  0  0
  187.3270  178.4760  139.1850 C   0  0  0  0  0  2  0  0  0  0  0  0
  188.0090  177.9190  141.2700 C   0  0  0  0  0  0  0  0  0  0  0  0
  188.6950  176.7290  138.2120 N   0  0  0  0  0  0  0  0  0  0  0  0
  186.0950  178.2200  142.4560 C   0  0  0  0  0  0  0  0  0  0  0  0
  191.0450  176.1420  140.2080 C   0  0  0  0  0  3  0  0  0  0  0  0
  190.1750  176.7700  140.9990 C   0  0  0  0  0  3  0  0  0  0  0  0
  185.2230  178.2130  143.3640 O   0  0  0  0  0  0  0  0  0  0  0  0
  187.0290  178.5060  140.4700 C   0  0  0  0  0  0  0  0  0  0  0  0
  188.9870  177.4660  140.5190 C   0  0  2  0  0  3  0  0  0  0  0  0
  189.6620  175.8790  138.0410 C   0  0  0  0  0  0  0  0  0  0  0  0
  189.5240  174.8870  137.0300 N   0  0  0  0  0  1  0  0  0  0  0  0
  188.7210  177.8830  139.0960 C   0  0  2  0  0  3  0  0  0  0  0  0
  190.8810  175.9160  138.7990 N   0  0  0  0  0  2  0  0  0  0  0  0
  185.8000  178.7050  141.1340 N   0  0  0  0  0  2  0  0  0  0  0  0
  190.5830  178.8240  144.7040 C   0  0  0  0  0  2  0  0  0  0  0  0
  188.0170  177.9400  145.1660 C   0  0  2  0  0  3  0  0  0  0  0  0
  190.4870  177.4940  145.4700 C   0  0  1  0  0  3  0  0  0  0  0  0
  189.7110  178.8090  143.4490 C   0  0  0  0  0  2  0  0  0  0  0  0
  188.2220  178.5290  143.7510 C   0  0  1  0  0  3  0  0  0  0  0  0
  189.0760  176.8880  145.4740 C   0  0  0  0  0  2  0  0  0  0  0  0
  192.1530  175.7060  146.4410 C   0  0  0  0  0  1  0  0  0  0  0  0
  191.6600  176.2830  144.7920 S   0  0  0  0  0  0  0  0  0  0  0  0
  186.6860  177.3880  145.3510 N   0  0  0  0  0  2  0  0  0  0  0  0
  185.0650  178.4730  147.0060 N   0  0  0  0  0  0  0  0  0  0  0  0
  185.7990  177.9820  146.2570 C   0  0  0  0  0  0  0  0  0  0  0  0
  1  3  1  6  0  0  0
  1 20  1  0  0  0  0
  2  9  1  0  0  0  0
  4 13  1  0  0  0  0
  5  1  1  0  0  0  0
  5  8  2  0  0  0  0
  6  7  2  0  0  0  0
  9 15  1  0  0  0  0
  9  3  2  0  0  0  0
 10  7  1  1  0  0  0
 10  3  1  0  0  0  0
 11  4  2  0  0  0  0
 11 14  1  0  0  0  0
 12 11  1  0  0  0  0
 13  2  1  1  0  0  0
 13 10  1  0  0  0  0
 14  6  1  0  0  0  0
 15  5  1  0  0  0  0
 16 18  1  0  0  0  0
 17 24  1  6  0  0  0
 17 21  1  0  0  0  0
 18 23  1  6  0  0  0
 18 21  1  0  0  0  0
 19 16  1  0  0  0  0
 20 19  1  6  0  0  0
 20 17  1  0  0  0  0
 23 22  1  0  0  0  0
 24 26  1  0  0  0  0
 26 25  3  0  0  0  0
M  END
>  <MODEL>
6

>  <REMARK>
 VINA RESULT:      -5.5      1.930      6.237
  Name = 
  4 active torsions:
  status: ('A' for Active; 'I' for Inactive)
    1  A    between atoms: C_2  and  C_15
    2  A    between atoms: C_4  and  N_12
    3  A    between atoms: S_6  and  C_8
    4  A    between atoms: C_10  and  N_12
                            x       y       z     vdW  Elec       q    Type
                         _______ _______ _______ _____ _____    ______ ____

>  <TORSDO>
F 4

$$$$
=
 OpenBabel10232407543D

 26 29  0  0  1  0  0  0  0  0999 V2000
  184.0650  177.9170  138.8650 C   0  0  2  0  0  3  0  0  0  0  0  0
  186.9900  178.8880  140.6530 C   0  0  0  0  0  2  0  0  0  0  0  0
  184.8640  178.5370  139.9600 C   0  0  0  0  0  0  0  0  0  0  0  0
  186.4100  178.2700  142.9240 N   0  0  0  0  0  0  0  0  0  0  0  0
  185.2130  177.6260  137.9090 C   0  0  0  0  0  0  0  0  0  0  0  0
  183.3370  178.7940  143.2930 C   0  0  0  0  0  3  0  0  0  0  0  0
  183.4430  178.7610  141.9650 C   0  0  0  0  0  3  0  0  0  0  0  0
  185.0570  177.0480  136.8020 O   0  0  0  0  0  0  0  0  0  0  0  0
  186.2150  178.6010  139.6250 C   0  0  0  0  0  0  0  0  0  0  0  0
  184.7120  178.7680  141.2450 C   0  0  2  0  0  3  0  0  0  0  0  0
  185.7200  178.0940  144.0100 C   0  0  0  0  0  0  0  0  0  0  0  0
  186.2850  177.3100  145.0540 N   0  0  0  0  0  1  0  0  0  0  0  0
  186.0520  179.1460  141.8190 C   0  0  2  0  0  3  0  0  0  0  0  0
  184.4280  178.6850  144.2220 N   0  0  0  0  0  2  0  0  0  0  0  0
  186.5140  178.0340  138.3680 N   0  0  0  0  0  2  0  0  0  0  0  0
  181.4190  180.7300  138.8460 C   0  0  0  0  0  2  0  0  0  0  0  0
  181.7010  178.1660  137.8830 C   0  0  2  0  0  3  0  0  0  0  0  0
  180.4190  179.7120  139.4190 C   0  0  1  0  0  3  0  0  0  0  0  0
  182.8530  180.2080  138.9230 C   0  0  0  0  0  2  0  0  0  0  0  0
  183.0480  178.8650  138.1820 C   0  0  1  0  0  3  0  0  0  0  0  0
  180.7660  178.2550  139.0840 C   0  0  0  0  0  2  0  0  0  0  0  0
  179.9830  178.1270  141.4710 C   0  0  0  0  0  1  0  0  0  0  0  0
  180.2830  179.9000  141.2210 S   0  0  0  0  0  0  0  0  0  0  0  0
  181.8710  176.7820  137.4740 N   0  0  0  0  0  2  0  0  0  0  0  0
  180.8290  174.9000  138.8570 N   0  0  0  0  0  0  0  0  0  0  0  0
  181.3010  175.7520  138.2310 C   0  0  0  0  0  0  0  0  0  0  0  0
  1  5  1  6  0  0  0
  1  3  1  0  0  0  0
  3 10  1  0  0  0  0
  4 11  2  0  0  0  0
  5 15  1  0  0  0  0
  6 14  1  0  0  0  0
  7  6  2  0  0  0  0
  8  5  2  0  0  0  0
  9  3  2  0  0  0  0
  9  2  1  0  0  0  0
 10 13  1  0  0  0  0
 10  7  1  6  0  0  0
 11 14  1  0  0  0  0
 11 12  1  0  0  0  0
 13  2  1  6  0  0  0
 13  4  1  0  0  0  0
 15  9  1  0  0  0  0
 16 19  1  0  0  0  0
 16 18  1  0  0  0  0
 17 24  1  1  0  0  0
 17 20  1  0  0  0  0
 17 21  1  0  0  0  0
 18 23  1  1  0  0  0
 20  1  1  0  0  0  0
 20 19  1  1  0  0  0
 21 18  1  0  0  0  0
 23 22  1  0  0  0  0
 24 26  1  0  0  0  0
 26 25  3  0  0  0  0
M  END
>  <MODEL>
7

>  <REMARK>
 VINA RESULT:      -5.4      4.743      7.312
  Name = 
  4 active torsions:
  status: ('A' for Active; 'I' for Inactive)
    1  A    between atoms: C_2  and  C_15
    2  A    between atoms: C_4  and  N_12
    3  A    between atoms: S_6  and  C_8
    4  A    between atoms: C_10  and  N_12
                            x       y       z     vdW  Elec       q    Type
                         _______ _______ _______ _____ _____    ______ ____

>  <TORSDO>
F 4

$$$$
=
 OpenBabel10232407543D

 26 29  0  0  1  0  0  0  0  0999 V2000
  188.2980  176.6840  138.0300 C   0  0  2  0  0  3  0  0  0  0  0  0
  184.9730  176.8420  136.7590 C   0  0  0  0  0  2  0  0  0  0  0  0
  187.1290  176.3040  137.1870 C   0  0  0  0  0  0  0  0  0  0  0  0
  184.3330  174.5050  136.7550 N   0  0  0  0  0  0  0  0  0  0  0  0
  187.7290  177.9750  138.6020 C   0  0  0  0  0  0  0  0  0  0  0  0
  186.8830  172.8250  136.0270 C   0  0  0  0  0  3  0  0  0  0  0  0
  187.4260  173.9840  136.4000 C   0  0  0  0  0  3  0  0  0  0  0  0
  188.3460  178.6880  139.4360 O   0  0  0  0  0  0  0  0  0  0  0  0
  186.1170  177.2590  137.2660 C   0  0  0  0  0  0  0  0  0  0  0  0
  186.6650  175.2070  136.6300 C   0  0  2  0  0  3  0  0  0  0  0  0
  184.3980  173.2150  136.6200 C   0  0  0  0  0  0  0  0  0  0  0  0
  183.3330  172.4230  137.1350 N   0  0  0  0  0  1  0  0  0  0  0  0
  185.2540  175.4700  136.1750 C   0  0  2  0  0  3  0  0  0  0  0  0
  185.4750  172.5510  135.9410 N   0  0  0  0  0  2  0  0  0  0  0  0
  186.4100  178.3220  138.1460 N   0  0  0  0  0  2  0  0  0  0  0  0
  190.6810  176.3650  135.0090 C   0  0  0  0  0  2  0  0  0  0  0  0
  190.8010  176.1620  137.7510 C   0  0  2  0  0  3  0  0  0  0  0  0
  191.0680  174.9730  135.5360 C   0  0  1  0  0  3  0  0  0  0  0  0
  189.4350  176.9020  135.7110 C   0  0  0  0  0  2  0  0  0  0  0  0
  189.5970  176.9920  137.2460 C   0  0  1  0  0  3  0  0  0  0  0  0
  190.8600  174.8110  137.0480 C   0  0  0  0  0  2  0  0  0  0  0  0
  191.3000  172.3800  135.1660 C   0  0  0  0  0  1  0  0  0  0  0  0
  190.1400  173.6810  134.6590 S   0  0  0  0  0  0  0  0  0  0  0  0
  190.7850  175.9830  139.1930 N   0  0  0  0  0  2  0  0  0  0  0  0
  191.9350  177.6900  140.7110 N   0  0  0  0  0  0  0  0  0  0  0  0
  191.4150  176.9180  140.0240 C   0  0  0  0  0  0  0  0  0  0  0  0
  1  3  1  6  0  0  0
  1  5  1  0  0  0  0
  2  9  1  0  0  0  0
  3  9  2  0  0  0  0
  5  8  2  0  0  0  0
  6  7  2  0  0  0  0
  9 15  1  0  0  0  0
 10  7  1  6  0  0  0
 10  3  1  0  0  0  0
 11  4  2  0  0  0  0
 11 12  1  0  0  0  0
 13 10  1  0  0  0  0
 13  4  1  0  0  0  0
 13  2  1  1  0  0  0
 14  6  1  0  0  0  0
 14 11  1  0  0  0  0
 15  5  1  0  0  0  0
 16 18  1  0  0  0  0
 16 19  1  0  0  0  0
 17 24  1  1  0  0  0
 18 23  1  6  0  0  0
 18 21  1  0  0  0  0
 20 19  1  6  0  0  0
 20 17  1  0  0  0  0
 20  1  1  0  0  0  0
 21 17  1  0  0  0  0
 23 22  1  0  0  0  0
 24 26  1  0  0  0  0
 26 25  3  0  0  0  0
M  END
>  <MODEL>
8

>  <REMARK>
 VINA RESULT:      -5.4      5.942      8.428
  Name = 
  4 active torsions:
  status: ('A' for Active; 'I' for Inactive)
    1  A    between atoms: C_2  and  C_15
    2  A    between atoms: C_4  and  N_12
    3  A    between atoms: S_6  and  C_8
    4  A    between atoms: C_10  and  N_12
                            x       y       z     vdW  Elec       q    Type
                         _______ _______ _______ _____ _____    ______ ____

>  <TORSDO>
F 4

$$$$
=
 OpenBabel10232407543D

 26 29  0  0  1  0  0  0  0  0999 V2000
  187.0620  177.9490  139.7060 C   0  0  2  0  0  3  0  0  0  0  0  0
  183.7700  179.2640  139.3450 C   0  0  0  0  0  2  0  0  0  0  0  0
  185.7760  178.2670  139.0220 C   0  0  0  0  0  0  0  0  0  0  0  0
  182.6220  177.4330  138.2500 N   0  0  0  0  0  0  0  0  0  0  0  0
  186.8440  178.7860  140.9580 C   0  0  0  0  0  0  0  0  0  0  0  0
  184.6650  176.0660  136.2980 C   0  0  0  0  0  3  0  0  0  0  0  0
  185.4820  176.7380  137.1080 C   0  0  0  0  0  3  0  0  0  0  0  0
  187.6680  178.8290  141.9090 O   0  0  0  0  0  0  0  0  0  0  0  0
  185.0140  179.1620  139.7710 C   0  0  0  0  0  0  0  0  0  0  0  0
  185.0360  177.7350  138.0750 C   0  0  2  0  0  3  0  0  0  0  0  0
  182.3840  176.4320  137.4570 C   0  0  0  0  0  0  0  0  0  0  0  0
  181.2120  175.6560  137.6750 N   0  0  0  0  0  1  0  0  0  0  0  0
  183.6890  178.4080  138.0940 C   0  0  2  0  0  3  0  0  0  0  0  0
  183.2290  176.0940  136.3460 N   0  0  0  0  0  2  0  0  0  0  0  0
  185.6050  179.5160  141.0030 N   0  0  0  0  0  2  0  0  0  0  0  0
  189.2900  178.4380  136.5900 C   0  0  0  0  0  2  0  0  0  0  0  0
  189.5300  177.4770  139.1590 C   0  0  2  0  0  3  0  0  0  0  0  0
  189.6550  176.9470  136.6890 C   0  0  1  0  0  3  0  0  0  0  0  0
  188.0960  178.7820  137.4800 C   0  0  0  0  0  2  0  0  0  0  0  0
  188.3330  178.4380  138.9680 C   0  0  1  0  0  3  0  0  0  0  0  0
  189.5120  176.3740  138.1070 C   0  0  0  0  0  2  0  0  0  0  0  0
  188.4980  174.5850  136.7070 C   0  0  0  0  0  1  0  0  0  0  0  0
  188.6440  175.9680  135.5400 S   0  0  0  0  0  0  0  0  0  0  0  0
  189.5760  176.9040  140.4930 N   0  0  0  0  0  2  0  0  0  0  0  0
  191.6120  177.2990  141.9900 N   0  0  0  0  0  0  0  0  0  0  0  0
  190.6900  177.1200  141.3120 C   0  0  0  0  0  0  0  0  0  0  0  0
  1  3  1  6  0  0  0
  1  5  1  0  0  0  0
  2  9  1  0  0  0  0
  3  9  2  0  0  0  0
  5 15  1  0  0  0  0
  5  8  2  0  0  0  0
  6 14  1  0  0  0  0
  6  7  2  0  0  0  0
  9 15  1  0  0  0  0
 10  7  1  6  0  0  0
 10 13  1  0  0  0  0
 10  3  1  0  0  0  0
 11 12  1  0  0  0  0
 11  4  2  0  0  0  0
 13  4  1  0  0  0  0
 13  2  1  1  0  0  0
 14 11  1  0  0  0  0
 16 18  1  0  0  0  0
 16 19  1  0  0  0  0
 17 24  1  1  0  0  0
 18 23  1  6  0  0  0
 18 21  1  0  0  0  0
 20 19  1  6  0  0  0
 20 17  1  0  0  0  0
 20  1  1  0  0  0  0
 21 17  1  0  0  0  0
 23 22  1  0  0  0  0
 24 26  1  0  0  0  0
 26 25  3  0  0  0  0
M  END
>  <MODEL>
9

>  <REMARK>
 VINA RESULT:      -5.2      4.342      7.163
  Name = 
  4 active torsions:
  status: ('A' for Active; 'I' for Inactive)
    1  A    between atoms: C_2  and  C_15
    2  A    between atoms: C_4  and  N_12
    3  A    between atoms: S_6  and  C_8
    4  A    between atoms: C_10  and  N_12
                            x       y       z     vdW  Elec       q    Type
                         _______ _______ _______ _____ _____    ______ ____

>  <TORSDO>
F 4

$$$$
