=
 OpenBabel10232411023D

 26 28  0  0  1  0  0  0  0  0999 V2000
  185.1070  178.3440  146.7170 C   0  0  0  0  0  3  0  0  0  0  0  0
  188.4560  177.3150  145.9530 C   0  0  0  0  0  0  0  0  0  0  0  0
  184.9530  179.2800  144.5030 C   0  0  0  0  0  3  0  0  0  0  0  0
  186.3160  177.6540  146.2720 C   0  0  1  0  0  3  0  0  0  0  0  0
  186.5050  177.3840  144.7990 C   0  0  2  0  0  3  0  0  0  0  0  0
  190.0880  176.6810  144.5820 C   0  0  0  0  0  3  0  0  0  0  0  0
  188.8850  176.8590  143.8920 C   0  0  0  0  0  0  0  0  0  0  0  0
  189.7930  176.9790  145.9210 C   0  0  0  0  0  0  0  0  0  0  0  0
  187.4590  177.6030  146.9740 C   0  0  0  0  0  2  0  0  0  0  0  0
  187.9430  177.2850  144.7450 N   0  0  0  0  0  0  0  0  0  0  0  0
  184.4720  179.0840  145.8530 N   0  0  0  0  0  0  0  0  0  0  0  0
  185.9550  178.5350  144.0020 C   0  0  0  0  0  3  0  0  0  0  0  0
  191.7900  175.9460  147.0260 N   0  0  0  0  0  2  0  0  0  0  0  0
  190.5630  177.6400  148.0590 O   0  0  0  0  0  0  0  0  0  0  0  0
  192.7330  175.8140  148.1230 C   0  0  0  0  0  1  0  0  0  0  0  0
  190.7170  176.8870  147.0590 C   0  0  0  0  0  0  0  0  0  0  0  0
  188.6650  176.6100  142.4400 C   0  0  0  0  0  2  0  0  0  0  0  0
  189.1950  177.7240  141.6630 N   0  0  0  0  0  0  0  0  0  0  0  0
  190.3430  177.2490  140.9030 C   0  0  0  0  0  1  0  0  0  0  0  0
  188.1630  178.2380  140.7530 C   0  0  0  0  0  2  0  0  0  0  0  0
  188.5370  178.1550  139.2690 C   0  0  0  0  0  2  0  0  0  0  0  0
  187.2930  177.9930  138.4200 C   0  0  0  0  0  2  0  0  0  0  0  0
  186.2070  178.7640  139.0010 N   0  0  0  0  0  2  0  0  0  0  0  0
  183.7690  179.2980  139.3360 C   0  0  0  0  0  1  0  0  0  0  0  0
  184.8390  178.4760  138.7140 C   0  0  0  0  0  0  0  0  0  0  0  0
  184.5300  177.5320  137.9400 O   0  0  0  0  0  0  0  0  0  0  0  0
  2  9  1  0  0  0  0
  3 11  1  0  0  0  0
  4  1  1  6  0  0  0
  4  9  1  0  0  0  0
  5 12  1  6  0  0  0
  5  4  1  0  0  0  0
  6  8  1  0  0  0  0
  7  6  2  0  0  0  0
  7 10  1  0  0  0  0
  8  2  2  0  0  0  0
  8 16  1  0  0  0  0
 10  5  1  0  0  0  0
 10  2  1  0  0  0  0
 11  1  2  0  0  0  0
 12  3  2  0  0  0  0
 13 16  1  0  0  0  0
 13 15  1  0  0  0  0
 16 14  2  0  0  0  0
 17  7  1  0  0  0  0
 18 17  1  0  0  0  0
 19 18  1  0  0  0  0
 20 18  1  0  0  0  0
 21 20  1  0  0  0  0
 22 23  1  0  0  0  0
 22 21  1  0  0  0  0
 25 23  1  0  0  0  0
 25 24  1  0  0  0  0
 26 25  2  0  0  0  0
M  END
>  <MODEL>
1

>  <REMARK>
 VINA RESULT:      -8.0      0.000      0.000
  Name = 
  7 active torsions:
  status: ('A' for Active; 'I' for Inactive)
    1  A    between atoms: C_2  and  N_10
    2  A    between atoms: C_2  and  C_24
    3  A    between atoms: N_3  and  C_17
    4  A    between atoms: N_10  and  C_13
    5  A    between atoms: C_13  and  C_15
    6  A    between atoms: C_16  and  C_19
    7  A    between atoms: C_17  and  C_24
                            x       y       z     vdW  Elec       q    Type
                         _______ _______ _______ _____ _____    ______ ____

>  <TORSDO>
F 7

$$$$
=
 OpenBabel10232411023D

 26 28  0  0  1  0  0  0  0  0999 V2000
  190.4650  177.3700  141.2690 C   0  0  0  0  0  3  0  0  0  0  0  0
  187.0700  178.0760  142.1810 C   0  0  0  0  0  0  0  0  0  0  0  0
  191.1320  178.0050  143.4950 C   0  0  0  0  0  3  0  0  0  0  0  0
  189.0890  177.3390  141.7590 C   0  0  1  0  0  3  0  0  0  0  0  0
  188.8410  177.1260  143.2330 C   0  0  2  0  0  3  0  0  0  0  0  0
  185.3840  178.2560  143.6190 C   0  0  0  0  0  3  0  0  0  0  0  0
  186.5400  177.7900  144.2490 C   0  0  0  0  0  0  0  0  0  0  0  0
  185.7420  178.4350  142.2730 C   0  0  0  0  0  0  0  0  0  0  0  0
  188.0450  177.8870  141.1160 C   0  0  0  0  0  2  0  0  0  0  0  0
  187.5420  177.7410  143.3590 N   0  0  0  0  0  0  0  0  0  0  0  0
  191.4110  177.6630  142.1170 N   0  0  0  0  0  0  0  0  0  0  0  0
  189.9110  177.8220  144.0280 C   0  0  0  0  0  3  0  0  0  0  0  0
  183.4950  178.4240  141.1650 N   0  0  0  0  0  2  0  0  0  0  0  0
  185.2940  179.6110  140.2700 O   0  0  0  0  0  0  0  0  0  0  0  0
  182.5750  178.8170  140.1120 C   0  0  0  0  0  1  0  0  0  0  0  0
  184.8550  178.8610  141.1830 C   0  0  0  0  0  0  0  0  0  0  0  0
  186.6580  177.3980  145.6810 C   0  0  0  0  0  2  0  0  0  0  0  0
  186.2850  178.5200  146.5330 N   0  0  0  0  0  0  0  0  0  0  0  0
  184.8720  178.3940  146.8640 C   0  0  0  0  0  1  0  0  0  0  0  0
  187.0950  178.5130  147.7580 C   0  0  0  0  0  2  0  0  0  0  0  0
  187.9930  177.2800  147.9090 C   0  0  0  0  0  2  0  0  0  0  0  0
  189.4530  177.6860  147.8880 C   0  0  0  0  0  2  0  0  0  0  0  0
  190.2290  176.6600  147.2120 N   0  0  0  0  0  2  0  0  0  0  0  0
  192.3590  175.3910  146.7700 C   0  0  0  0  0  1  0  0  0  0  0  0
  191.6140  176.4540  147.4910 C   0  0  0  0  0  0  0  0  0  0  0  0
  192.2100  177.1650  148.3430 O   0  0  0  0  0  0  0  0  0  0  0  0
  1  4  1  0  0  0  0
  1 11  2  0  0  0  0
  2  8  2  0  0  0  0
  2 10  1  0  0  0  0
  3 12  2  0  0  0  0
  4  9  1  1  0  0  0
  4  5  1  0  0  0  0
  5 10  1  0  0  0  0
  5 12  1  1  0  0  0
  6  7  2  0  0  0  0
  7 17  1  0  0  0  0
  8  6  1  0  0  0  0
  9  2  1  0  0  0  0
 10  7  1  0  0  0  0
 11  3  1  0  0  0  0
 13 16  1  0  0  0  0
 14 16  2  0  0  0  0
 15 13  1  0  0  0  0
 16  8  1  0  0  0  0
 17 18  1  0  0  0  0
 18 19  1  0  0  0  0
 18 20  1  0  0  0  0
 20 21  1  0  0  0  0
 22 21  1  0  0  0  0
 23 25  1  0  0  0  0
 23 22  1  0  0  0  0
 24 25  1  0  0  0  0
 25 26  2  0  0  0  0
M  END
>  <MODEL>
2

>  <REMARK>
 VINA RESULT:      -7.9      1.747      7.959
  Name = 
  7 active torsions:
  status: ('A' for Active; 'I' for Inactive)
    1  A    between atoms: C_2  and  N_10
    2  A    between atoms: C_2  and  C_24
    3  A    between atoms: N_3  and  C_17
    4  A    between atoms: N_10  and  C_13
    5  A    between atoms: C_13  and  C_15
    6  A    between atoms: C_16  and  C_19
    7  A    between atoms: C_17  and  C_24
                            x       y       z     vdW  Elec       q    Type
                         _______ _______ _______ _____ _____    ______ ____

>  <TORSDO>
F 7

$$$$
=
 OpenBabel10232411023D

 26 28  0  0  1  0  0  0  0  0999 V2000
  185.0850  178.2690  146.7780 C   0  0  0  0  0  3  0  0  0  0  0  0
  188.4660  177.3360  146.0330 C   0  0  0  0  0  0  0  0  0  0  0  0
  184.9400  179.2650  144.5900 C   0  0  0  0  0  3  0  0  0  0  0  0
  186.3150  177.6190  146.3310 C   0  0  1  0  0  3  0  0  0  0  0  0
  186.5290  177.3960  144.8530 C   0  0  2  0  0  3  0  0  0  0  0  0
  190.1290  176.7780  144.6670 C   0  0  0  0  0  3  0  0  0  0  0  0
  188.9330  176.9490  143.9660 C   0  0  0  0  0  0  0  0  0  0  0  0
  189.8100  177.0310  146.0110 C   0  0  0  0  0  0  0  0  0  0  0  0
  187.4490  177.5720  147.0480 C   0  0  0  0  0  2  0  0  0  0  0  0
  187.9700  177.3290  144.8170 N   0  0  0  0  0  0  0  0  0  0  0  0
  184.4450  179.0200  145.9260 N   0  0  0  0  0  0  0  0  0  0  0  0
  185.9650  178.5570  144.0820 C   0  0  0  0  0  3  0  0  0  0  0  0
  191.7800  175.9690  147.1370 N   0  0  0  0  0  2  0  0  0  0  0  0
  190.5660  177.6820  148.1560 O   0  0  0  0  0  0  0  0  0  0  0  0
  192.7090  175.8250  148.2450 C   0  0  0  0  0  1  0  0  0  0  0  0
  190.7200  176.9260  147.1580 C   0  0  0  0  0  0  0  0  0  0  0  0
  188.7380  176.7380  142.5040 C   0  0  0  0  0  2  0  0  0  0  0  0
  189.4070  177.7980  141.7600 N   0  0  0  0  0  0  0  0  0  0  0  0
  190.7160  177.3110  141.3450 C   0  0  0  0  0  1  0  0  0  0  0  0
  188.6080  178.1670  140.5830 C   0  0  0  0  0  2  0  0  0  0  0  0
  189.1040  177.5510  139.2700 C   0  0  0  0  0  2  0  0  0  0  0  0
  189.0350  178.5710  138.1510 C   0  0  0  0  0  2  0  0  0  0  0  0
  188.2860  178.0160  137.0370 N   0  0  0  0  0  2  0  0  0  0  0  0
  186.1520  177.5670  135.7760 C   0  0  0  0  0  1  0  0  0  0  0  0
  186.8690  178.1550  136.9370 C   0  0  0  0  0  0  0  0  0  0  0  0
  186.2190  178.7720  137.8230 O   0  0  0  0  0  0  0  0  0  0  0  0
  2  9  1  0  0  0  0
  3 11  1  0  0  0  0
  4  1  1  6  0  0  0
  4  9  1  0  0  0  0
  5 12  1  6  0  0  0
  5  4  1  0  0  0  0
  6  8  1  0  0  0  0
  7  6  2  0  0  0  0
  7 10  1  0  0  0  0
  8  2  2  0  0  0  0
  8 16  1  0  0  0  0
 10  5  1  0  0  0  0
 10  2  1  0  0  0  0
 11  1  2  0  0  0  0
 12  3  2  0  0  0  0
 13 16  1  0  0  0  0
 13 15  1  0  0  0  0
 16 14  2  0  0  0  0
 17  7  1  0  0  0  0
 18 17  1  0  0  0  0
 19 18  1  0  0  0  0
 20 18  1  0  0  0  0
 21 20  1  0  0  0  0
 22 21  1  0  0  0  0
 23 22  1  0  0  0  0
 24 25  1  0  0  0  0
 25 23  1  0  0  0  0
 25 26  2  0  0  0  0
M  END
>  <MODEL>
3

>  <REMARK>
 VINA RESULT:      -7.9      1.257      1.342
  Name = 
  7 active torsions:
  status: ('A' for Active; 'I' for Inactive)
    1  A    between atoms: C_2  and  N_10
    2  A    between atoms: C_2  and  C_24
    3  A    between atoms: N_3  and  C_17
    4  A    between atoms: N_10  and  C_13
    5  A    between atoms: C_13  and  C_15
    6  A    between atoms: C_16  and  C_19
    7  A    between atoms: C_17  and  C_24
                            x       y       z     vdW  Elec       q    Type
                         _______ _______ _______ _____ _____    ______ ____

>  <TORSDO>
F 7

$$$$
=
 OpenBabel10232411023D

 26 28  0  0  1  0  0  0  0  0999 V2000
  191.3960  177.0970  147.6940 C   0  0  0  0  0  3  0  0  0  0  0  0
  188.7090  177.1710  145.3200 C   0  0  0  0  0  0  0  0  0  0  0  0
  192.3540  175.2630  146.4620 C   0  0  0  0  0  3  0  0  0  0  0  0
  190.5150  177.3220  146.5490 C   0  0  1  0  0  3  0  0  0  0  0  0
  190.9490  176.8400  145.1860 C   0  0  2  0  0  3  0  0  0  0  0  0
  187.8080  176.8540  143.3120 C   0  0  0  0  0  3  0  0  0  0  0  0
  189.1700  176.5420  143.3120 C   0  0  0  0  0  0  0  0  0  0  0  0
  187.5230  177.2650  144.6240 C   0  0  0  0  0  0  0  0  0  0  0  0
  189.1940  177.5390  146.6430 C   0  0  0  0  0  2  0  0  0  0  0  0
  189.6630  176.7010  144.5480 N   0  0  0  0  0  0  0  0  0  0  0  0
  192.2700  176.1340  147.6130 N   0  0  0  0  0  0  0  0  0  0  0  0
  191.6900  175.5380  145.3260 C   0  0  0  0  0  3  0  0  0  0  0  0
  185.2630  178.2610  144.2060 N   0  0  0  0  0  2  0  0  0  0  0  0
  185.9790  177.7150  146.3590 O   0  0  0  0  0  0  0  0  0  0  0  0
  183.9690  178.7540  144.6470 C   0  0  0  0  0  1  0  0  0  0  0  0
  186.2310  177.7510  145.1240 C   0  0  0  0  0  0  0  0  0  0  0  0
  189.9680  176.1070  142.1320 C   0  0  0  0  0  2  0  0  0  0  0  0
  190.3220  177.2650  141.3220 N   0  0  0  0  0  0  0  0  0  0  0  0
  191.7200  177.5900  141.5740 C   0  0  0  0  0  1  0  0  0  0  0  0
  190.1210  176.9650  139.8980 C   0  0  0  0  0  2  0  0  0  0  0  0
  189.2730  178.0000  139.1520 C   0  0  0  0  0  2  0  0  0  0  0  0
  188.1030  178.4400  140.0090 C   0  0  0  0  0  2  0  0  0  0  0  0
  186.8830  178.3950  139.2210 N   0  0  0  0  0  2  0  0  0  0  0  0
  184.4200  178.8000  138.8810 C   0  0  0  0  0  1  0  0  0  0  0  0
  185.6380  178.8710  139.7310 C   0  0  0  0  0  0  0  0  0  0  0  0
  185.5600  179.3510  140.8930 O   0  0  0  0  0  0  0  0  0  0  0  0
  2  9  1  0  0  0  0
  3 11  1  0  0  0  0
  4  9  1  1  0  0  0
  4  1  1  0  0  0  0
  5 12  1  1  0  0  0
  5  4  1  0  0  0  0
  6  8  1  0  0  0  0
  7  6  2  0  0  0  0
  7 10  1  0  0  0  0
  8 16  1  0  0  0  0
  8  2  2  0  0  0  0
 10  5  1  0  0  0  0
 10  2  1  0  0  0  0
 11  1  2  0  0  0  0
 12  3  2  0  0  0  0
 13 15  1  0  0  0  0
 13 16  1  0  0  0  0
 16 14  2  0  0  0  0
 17  7  1  0  0  0  0
 18 19  1  0  0  0  0
 18 17  1  0  0  0  0
 20 18  1  0  0  0  0
 21 20  1  0  0  0  0
 21 22  1  0  0  0  0
 23 25  1  0  0  0  0
 23 22  1  0  0  0  0
 24 25  1  0  0  0  0
 25 26  2  0  0  0  0
M  END
>  <MODEL>
4

>  <REMARK>
 VINA RESULT:      -7.7      1.688      4.502
  Name = 
  7 active torsions:
  status: ('A' for Active; 'I' for Inactive)
    1  A    between atoms: C_2  and  N_10
    2  A    between atoms: C_2  and  C_24
    3  A    between atoms: N_3  and  C_17
    4  A    between atoms: N_10  and  C_13
    5  A    between atoms: C_13  and  C_15
    6  A    between atoms: C_16  and  C_19
    7  A    between atoms: C_17  and  C_24
                            x       y       z     vdW  Elec       q    Type
                         _______ _______ _______ _____ _____    ______ ____

>  <TORSDO>
F 7

$$$$
=
 OpenBabel10232411023D

 26 28  0  0  1  0  0  0  0  0999 V2000
  184.8650  178.4060  146.4600 C   0  0  0  0  0  3  0  0  0  0  0  0
  188.2430  177.4010  145.7990 C   0  0  0  0  0  0  0  0  0  0  0  0
  184.7940  179.3970  144.2650 C   0  0  0  0  0  3  0  0  0  0  0  0
  186.0920  177.7290  146.0440 C   0  0  1  0  0  3  0  0  0  0  0  0
  186.3380  177.4960  144.5730 C   0  0  2  0  0  3  0  0  0  0  0  0
  189.9280  176.8040  144.4770 C   0  0  0  0  0  3  0  0  0  0  0  0
  188.7530  176.9970  143.7450 C   0  0  0  0  0  0  0  0  0  0  0  0
  189.5810  177.0680  145.8110 C   0  0  0  0  0  0  0  0  0  0  0  0
  187.2070  177.6610  146.7890 C   0  0  0  0  0  2  0  0  0  0  0  0
  187.7770  177.4000  144.5720 N   0  0  0  0  0  0  0  0  0  0  0  0
  184.2610  179.1660  145.5900 N   0  0  0  0  0  0  0  0  0  0  0  0
  185.8160  178.6660  143.7850 C   0  0  0  0  0  3  0  0  0  0  0  0
  191.6280  176.1290  146.9080 N   0  0  0  0  0  2  0  0  0  0  0  0
  190.1850  177.5700  148.0420 O   0  0  0  0  0  0  0  0  0  0  0  0
  192.5330  175.9770  148.0350 C   0  0  0  0  0  1  0  0  0  0  0  0
  190.4610  176.9480  146.9810 C   0  0  0  0  0  0  0  0  0  0  0  0
  188.5890  176.7860  142.2800 C   0  0  0  0  0  2  0  0  0  0  0  0
  189.2840  177.8380  141.5490 N   0  0  0  0  0  0  0  0  0  0  0  0
  190.5450  177.2990  141.0580 C   0  0  0  0  0  1  0  0  0  0  0  0
  188.4580  178.2990  140.4250 C   0  0  0  0  0  2  0  0  0  0  0  0
  189.2140  178.4120  139.0970 C   0  0  0  0  0  2  0  0  0  0  0  0
  188.7890  177.3050  138.1530 C   0  0  0  0  0  2  0  0  0  0  0  0
  189.8500  177.0580  137.1900 N   0  0  0  0  0  2  0  0  0  0  0  0
  191.8080  175.7450  136.3050 C   0  0  0  0  0  1  0  0  0  0  0  0
  190.7420  175.9510  137.3180 C   0  0  0  0  0  0  0  0  0  0  0  0
  190.6330  175.1460  138.2810 O   0  0  0  0  0  0  0  0  0  0  0  0
  2  8  2  0  0  0  0
  2  9  1  0  0  0  0
  3 11  1  0  0  0  0
  4  1  1  6  0  0  0
  4  9  1  0  0  0  0
  5 12  1  6  0  0  0
  5  4  1  0  0  0  0
  6  8  1  0  0  0  0
  7  6  2  0  0  0  0
  7 10  1  0  0  0  0
  8 16  1  0  0  0  0
 10  5  1  0  0  0  0
 10  2  1  0  0  0  0
 11  1  2  0  0  0  0
 12  3  2  0  0  0  0
 13 16  1  0  0  0  0
 13 15  1  0  0  0  0
 16 14  2  0  0  0  0
 17  7  1  0  0  0  0
 18 17  1  0  0  0  0
 19 18  1  0  0  0  0
 20 18  1  0  0  0  0
 21 20  1  0  0  0  0
 22 21  1  0  0  0  0
 23 25  1  0  0  0  0
 23 22  1  0  0  0  0
 24 25  1  0  0  0  0
 25 26  2  0  0  0  0
M  END
>  <MODEL>
5

>  <REMARK>
 VINA RESULT:      -7.7      2.016      2.754
  Name = 
  7 active torsions:
  status: ('A' for Active; 'I' for Inactive)
    1  A    between atoms: C_2  and  N_10
    2  A    between atoms: C_2  and  C_24
    3  A    between atoms: N_3  and  C_17
    4  A    between atoms: N_10  and  C_13
    5  A    between atoms: C_13  and  C_15
    6  A    between atoms: C_16  and  C_19
    7  A    between atoms: C_17  and  C_24
                            x       y       z     vdW  Elec       q    Type
                         _______ _______ _______ _____ _____    ______ ____

>  <TORSDO>
F 7

$$$$
=
 OpenBabel10232411023D

 26 28  0  0  1  0  0  0  0  0999 V2000
  191.2700  177.2780  147.8730 C   0  0  0  0  0  3  0  0  0  0  0  0
  188.6860  177.2490  145.3870 C   0  0  0  0  0  0  0  0  0  0  0  0
  192.3230  175.4480  146.7140 C   0  0  0  0  0  3  0  0  0  0  0  0
  190.4340  177.4640  146.6890 C   0  0  1  0  0  3  0  0  0  0  0  0
  190.9370  176.9700  145.3540 C   0  0  2  0  0  3  0  0  0  0  0  0
  187.8790  176.8790  143.3490 C   0  0  0  0  0  3  0  0  0  0  0  0
  189.2470  176.5990  143.4110 C   0  0  0  0  0  0  0  0  0  0  0  0
  187.5290  177.3020  144.6400 C   0  0  0  0  0  0  0  0  0  0  0  0
  189.1050  177.6490  146.7230 C   0  0  0  0  0  2  0  0  0  0  0  0
  189.6820  176.7910  144.6640 N   0  0  0  0  0  0  0  0  0  0  0  0
  192.1690  176.3350  147.8460 N   0  0  0  0  0  0  0  0  0  0  0  0
  191.7020  175.6890  145.5460 C   0  0  0  0  0  3  0  0  0  0  0  0
  185.3010  178.3260  144.1250 N   0  0  0  0  0  2  0  0  0  0  0  0
  185.8700  177.6630  146.2890 O   0  0  0  0  0  0  0  0  0  0  0  0
  183.9800  178.7980  144.5030 C   0  0  0  0  0  1  0  0  0  0  0  0
  186.2050  177.7650  145.0770 C   0  0  0  0  0  0  0  0  0  0  0  0
  190.1040  176.1650  142.2730 C   0  0  0  0  0  2  0  0  0  0  0  0
  190.4740  177.3210  141.4650 N   0  0  0  0  0  0  0  0  0  0  0  0
  191.9270  177.3660  141.3670 C   0  0  0  0  0  1  0  0  0  0  0  0
  189.8790  177.2100  140.1270 C   0  0  0  0  0  2  0  0  0  0  0  0
  188.7700  178.2300  139.8470 C   0  0  0  0  0  2  0  0  0  0  0  0
  188.7780  178.6300  138.3850 C   0  0  0  0  0  2  0  0  0  0  0  0
  187.4280  178.5450  137.8540 N   0  0  0  0  0  2  0  0  0  0  0  0
  185.5120  177.2980  136.7960 C   0  0  0  0  0  1  0  0  0  0  0  0
  186.8990  177.3280  137.3280 C   0  0  0  0  0  0  0  0  0  0  0  0
  187.5970  176.2790  137.3090 O   0  0  0  0  0  0  0  0  0  0  0  0
  2  9  1  0  0  0  0
  3 11  1  0  0  0  0
  4  9  1  1  0  0  0
  4  1  1  0  0  0  0
  5 12  1  1  0  0  0
  5  4  1  0  0  0  0
  6  7  2  0  0  0  0
  6  8  1  0  0  0  0
  7 10  1  0  0  0  0
  8 16  1  0  0  0  0
  8  2  2  0  0  0  0
 10  5  1  0  0  0  0
 10  2  1  0  0  0  0
 11  1  2  0  0  0  0
 12  3  2  0  0  0  0
 13 15  1  0  0  0  0
 13 16  1  0  0  0  0
 16 14  2  0  0  0  0
 17  7  1  0  0  0  0
 18 17  1  0  0  0  0
 19 18  1  0  0  0  0
 20 18  1  0  0  0  0
 21 20  1  0  0  0  0
 22 21  1  0  0  0  0
 23 22  1  0  0  0  0
 24 25  1  0  0  0  0
 25 23  1  0  0  0  0
 26 25  2  0  0  0  0
M  END
>  <MODEL>
6

>  <REMARK>
 VINA RESULT:      -7.6      1.884      4.560
  Name = 
  7 active torsions:
  status: ('A' for Active; 'I' for Inactive)
    1  A    between atoms: C_2  and  N_10
    2  A    between atoms: C_2  and  C_24
    3  A    between atoms: N_3  and  C_17
    4  A    between atoms: N_10  and  C_13
    5  A    between atoms: C_13  and  C_15
    6  A    between atoms: C_16  and  C_19
    7  A    between atoms: C_17  and  C_24
                            x       y       z     vdW  Elec       q    Type
                         _______ _______ _______ _____ _____    ______ ____

>  <TORSDO>
F 7

$$$$
=
 OpenBabel10232411023D

 26 28  0  0  1  0  0  0  0  0999 V2000
  191.2460  177.2870  147.8610 C   0  0  0  0  0  3  0  0  0  0  0  0
  188.7050  177.2400  145.3310 C   0  0  0  0  0  0  0  0  0  0  0  0
  192.3310  175.4640  146.7210 C   0  0  0  0  0  3  0  0  0  0  0  0
  190.4290  177.4670  146.6620 C   0  0  1  0  0  3  0  0  0  0  0  0
  190.9580  176.9760  145.3360 C   0  0  2  0  0  3  0  0  0  0  0  0
  187.9360  176.8630  143.2790 C   0  0  0  0  0  3  0  0  0  0  0  0
  189.3040  176.5930  143.3660 C   0  0  0  0  0  0  0  0  0  0  0  0
  187.5610  177.2850  144.5650 C   0  0  0  0  0  0  0  0  0  0  0  0
  189.0980  177.6430  146.6740 C   0  0  0  0  0  2  0  0  0  0  0  0
  189.7170  176.7880  144.6260 N   0  0  0  0  0  0  0  0  0  0  0  0
  192.1520  176.3510  147.8500 N   0  0  0  0  0  0  0  0  0  0  0  0
  191.7280  175.7000  145.5430 C   0  0  0  0  0  3  0  0  0  0  0  0
  185.3390  178.3030  144.0130 N   0  0  0  0  0  2  0  0  0  0  0  0
  185.8680  177.6280  146.1820 O   0  0  0  0  0  0  0  0  0  0  0  0
  184.0080  178.7670  144.3680 C   0  0  0  0  0  1  0  0  0  0  0  0
  186.2270  177.7390  144.9790 C   0  0  0  0  0  0  0  0  0  0  0  0
  190.1840  176.1640  142.2430 C   0  0  0  0  0  2  0  0  0  0  0  0
  190.3480  177.2620  141.2980 N   0  0  0  0  0  0  0  0  0  0  0  0
  191.7730  177.4750  141.0860 C   0  0  0  0  0  1  0  0  0  0  0  0
  189.6900  176.9340  140.0260 C   0  0  0  0  0  2  0  0  0  0  0  0
  190.0920  177.8420  138.8590 C   0  0  0  0  0  2  0  0  0  0  0  0
  190.2290  177.0330  137.5850 C   0  0  0  0  0  2  0  0  0  0  0  0
  191.5480  176.4270  137.5360 N   0  0  0  0  0  2  0  0  0  0  0  0
  193.1060  174.4480  137.5700 C   0  0  0  0  0  1  0  0  0  0  0  0
  191.7330  175.0150  137.6240 C   0  0  0  0  0  0  0  0  0  0  0  0
  190.7450  174.2430  137.7470 O   0  0  0  0  0  0  0  0  0  0  0  0
  2  9  1  0  0  0  0
  3 11  1  0  0  0  0
  4  9  1  1  0  0  0
  4  1  1  0  0  0  0
  5 12  1  1  0  0  0
  5  4  1  0  0  0  0
  6  7  2  0  0  0  0
  6  8  1  0  0  0  0
  7 10  1  0  0  0  0
  8 16  1  0  0  0  0
  8  2  2  0  0  0  0
 10  2  1  0  0  0  0
 10  5  1  0  0  0  0
 11  1  2  0  0  0  0
 12  3  2  0  0  0  0
 13 15  1  0  0  0  0
 13 16  1  0  0  0  0
 16 14  2  0  0  0  0
 17  7  1  0  0  0  0
 18 17  1  0  0  0  0
 19 18  1  0  0  0  0
 20 18  1  0  0  0  0
 21 20  1  0  0  0  0
 22 21  1  0  0  0  0
 23 22  1  0  0  0  0
 23 25  1  0  0  0  0
 24 25  1  0  0  0  0
 25 26  2  0  0  0  0
M  END
>  <MODEL>
7

>  <REMARK>
 VINA RESULT:      -7.4      2.775      5.463
  Name = 
  7 active torsions:
  status: ('A' for Active; 'I' for Inactive)
    1  A    between atoms: C_2  and  N_10
    2  A    between atoms: C_2  and  C_24
    3  A    between atoms: N_3  and  C_17
    4  A    between atoms: N_10  and  C_13
    5  A    between atoms: C_13  and  C_15
    6  A    between atoms: C_16  and  C_19
    7  A    between atoms: C_17  and  C_24
                            x       y       z     vdW  Elec       q    Type
                         _______ _______ _______ _____ _____    ______ ____

>  <TORSDO>
F 7

$$$$
=
 OpenBabel10232411023D

 26 28  0  0  1  0  0  0  0  0999 V2000
  191.6260  175.9880  143.4780 C   0  0  0  0  0  3  0  0  0  0  0  0
  189.2000  177.5010  141.3150 C   0  0  0  0  0  0  0  0  0  0  0  0
  190.5740  177.1010  145.3380 C   0  0  0  0  0  3  0  0  0  0  0  0
  190.4480  176.3370  142.6860 C   0  0  1  0  0  3  0  0  0  0  0  0
  189.1400  176.5960  143.3940 C   0  0  2  0  0  3  0  0  0  0  0  0
  187.2080  178.3720  140.8460 C   0  0  0  0  0  3  0  0  0  0  0  0
  187.2620  177.9100  142.1640 C   0  0  0  0  0  0  0  0  0  0  0  0
  188.4740  178.0970  140.3060 C   0  0  0  0  0  0  0  0  0  0  0  0
  190.4960  176.8520  141.4480 C   0  0  0  0  0  2  0  0  0  0  0  0
  188.4900  177.4370  142.4180 N   0  0  0  0  0  0  0  0  0  0  0  0
  191.6450  176.3400  144.7330 N   0  0  0  0  0  0  0  0  0  0  0  0
  189.4050  177.2920  144.7010 C   0  0  0  0  0  3  0  0  0  0  0  0
  189.2350  177.2430  138.0770 N   0  0  0  0  0  2  0  0  0  0  0  0
  188.9780  179.5260  138.4880 O   0  0  0  0  0  0  0  0  0  0  0  0
  189.6650  177.4310  136.7020 C   0  0  0  0  0  1  0  0  0  0  0  0
  188.9050  178.3440  138.9230 C   0  0  0  0  0  0  0  0  0  0  0  0
  186.1400  177.9240  143.1430 C   0  0  0  0  0  2  0  0  0  0  0  0
  185.2210  179.0100  142.8230 N   0  0  0  0  0  0  0  0  0  0  0  0
  184.0530  178.4430  142.1630 C   0  0  0  0  0  1  0  0  0  0  0  0
  184.8190  179.7070  144.0520 C   0  0  0  0  0  2  0  0  0  0  0  0
  184.6380  178.7870  145.2640 C   0  0  0  0  0  2  0  0  0  0  0  0
  185.6120  179.1650  146.3630 C   0  0  0  0  0  2  0  0  0  0  0  0
  186.4000  178.0000  146.7310 N   0  0  0  0  0  2  0  0  0  0  0  0
  188.2090  176.8470  148.0500 C   0  0  0  0  0  1  0  0  0  0  0  0
  187.4340  178.0690  147.7130 C   0  0  0  0  0  0  0  0  0  0  0  0
  187.6960  179.1550  148.2960 O   0  0  0  0  0  0  0  0  0  0  0  0
  1 11  2  0  0  0  0
  2  9  1  0  0  0  0
  2 10  1  0  0  0  0
  4  9  1  1  0  0  0
  4  5  1  0  0  0  0
  4  1  1  0  0  0  0
  5 12  1  1  0  0  0
  6  7  2  0  0  0  0
  7 10  1  0  0  0  0
  7 17  1  0  0  0  0
  8  6  1  0  0  0  0
  8  2  2  0  0  0  0
 10  5  1  0  0  0  0
 11  3  1  0  0  0  0
 12  3  2  0  0  0  0
 13 16  1  0  0  0  0
 14 16  2  0  0  0  0
 15 13  1  0  0  0  0
 16  8  1  0  0  0  0
 18 17  1  0  0  0  0
 18 20  1  0  0  0  0
 19 18  1  0  0  0  0
 20 21  1  0  0  0  0
 21 22  1  0  0  0  0
 22 23  1  0  0  0  0
 23 25  1  0  0  0  0
 25 24  1  0  0  0  0
 25 26  2  0  0  0  0
M  END
>  <MODEL>
8

>  <REMARK>
 VINA RESULT:      -7.4      2.150      7.148
  Name = 
  7 active torsions:
  status: ('A' for Active; 'I' for Inactive)
    1  A    between atoms: C_2  and  N_10
    2  A    between atoms: C_2  and  C_24
    3  A    between atoms: N_3  and  C_17
    4  A    between atoms: N_10  and  C_13
    5  A    between atoms: C_13  and  C_15
    6  A    between atoms: C_16  and  C_19
    7  A    between atoms: C_17  and  C_24
                            x       y       z     vdW  Elec       q    Type
                         _______ _______ _______ _____ _____    ______ ____

>  <TORSDO>
F 7

$$$$
=
 OpenBabel10232411023D

 26 28  0  0  1  0  0  0  0  0999 V2000
  184.3480  178.8700  145.4970 C   0  0  0  0  0  3  0  0  0  0  0  0
  185.4450  178.7930  142.0840 C   0  0  0  0  0  0  0  0  0  0  0  0
  186.0880  177.2920  146.0290 C   0  0  0  0  0  3  0  0  0  0  0  0
  185.0150  179.0750  144.2120 C   0  0  1  0  0  3  0  0  0  0  0  0
  186.4890  178.7740  144.0970 C   0  0  2  0  0  3  0  0  0  0  0  0
  186.9610  178.5350  140.4780 C   0  0  0  0  0  3  0  0  0  0  0  0
  187.5370  178.4060  141.7440 C   0  0  0  0  0  0  0  0  0  0  0  0
  185.6000  178.7880  140.7140 C   0  0  0  0  0  0  0  0  0  0  0  0
  184.3820  179.1060  143.0290 C   0  0  0  0  0  2  0  0  0  0  0  0
  186.5830  178.5220  142.6800 N   0  0  0  0  0  0  0  0  0  0  0  0
  184.8920  178.0420  146.3430 N   0  0  0  0  0  0  0  0  0  0  0  0
  186.8250  177.5740  144.9400 C   0  0  0  0  0  3  0  0  0  0  0  0
  183.7210  177.9970  139.2580 N   0  0  0  0  0  2  0  0  0  0  0  0
  184.4460  180.2150  139.2210 O   0  0  0  0  0  0  0  0  0  0  0  0
  182.6890  178.2060  138.2570 C   0  0  0  0  0  1  0  0  0  0  0  0
  184.5740  179.0550  139.6980 C   0  0  0  0  0  0  0  0  0  0  0  0
  188.9810  178.1840  142.0300 C   0  0  0  0  0  2  0  0  0  0  0  0
  189.3680  176.8440  141.6050 N   0  0  0  0  0  0  0  0  0  0  0  0
  190.2210  176.9630  140.4310 C   0  0  0  0  0  1  0  0  0  0  0  0
  190.0890  176.1620  142.6880 C   0  0  0  0  0  2  0  0  0  0  0  0
  191.3030  176.9330  143.2160 C   0  0  0  0  0  2  0  0  0  0  0  0
  191.5620  176.5800  144.6670 C   0  0  0  0  0  2  0  0  0  0  0  0
  190.5170  177.1540  145.4980 N   0  0  0  0  0  2  0  0  0  0  0  0
  189.3620  177.5260  147.7050 C   0  0  0  0  0  1  0  0  0  0  0  0
  190.4530  176.9140  146.9030 C   0  0  0  0  0  0  0  0  0  0  0  0
  191.3120  176.1880  147.4710 O   0  0  0  0  0  0  0  0  0  0  0  0
  1 11  2  0  0  0  0
  2 10  1  0  0  0  0
  2  9  1  0  0  0  0
  3 11  1  0  0  0  0
  4  9  1  6  0  0  0
  4  1  1  0  0  0  0
  5  4  1  0  0  0  0
  5 12  1  1  0  0  0
  6  8  1  0  0  0  0
  6  7  2  0  0  0  0
  7 17  1  0  0  0  0
  7 10  1  0  0  0  0
  8  2  2  0  0  0  0
 10  5  1  0  0  0  0
 12  3  2  0  0  0  0
 13 16  1  0  0  0  0
 14 16  2  0  0  0  0
 15 13  1  0  0  0  0
 16  8  1  0  0  0  0
 18 17  1  0  0  0  0
 18 20  1  0  0  0  0
 19 18  1  0  0  0  0
 20 21  1  0  0  0  0
 21 22  1  0  0  0  0
 22 23  1  0  0  0  0
 23 25  1  0  0  0  0
 25 26  2  0  0  0  0
 25 24  1  0  0  0  0
M  END
>  <MODEL>
9

>  <REMARK>
 VINA RESULT:      -7.3      1.680      6.883
  Name = 
  7 active torsions:
  status: ('A' for Active; 'I' for Inactive)
    1  A    between atoms: C_2  and  N_10
    2  A    between atoms: C_2  and  C_24
    3  A    between atoms: N_3  and  C_17
    4  A    between atoms: N_10  and  C_13
    5  A    between atoms: C_13  and  C_15
    6  A    between atoms: C_16  and  C_19
    7  A    between atoms: C_17  and  C_24
                            x       y       z     vdW  Elec       q    Type
                         _______ _______ _______ _____ _____    ______ ____

>  <TORSDO>
F 7

$$$$
