=
 OpenBabel10232412343D

 34 36  0  0  1  0  0  0  0  0999 V2000
  189.4670  177.8590  140.3070 C   0  0  1  0  0  3  0  0  0  0  0  0
  188.8390  176.9340  142.4730 C   0  0  0  0  0  0  0  0  0  0  0  0
  191.9060  177.1760  145.9580 O   0  0  0  0  0  0  0  0  0  0  0  0
  187.3320  177.9870  146.8220 C   0  0  0  0  0  3  0  0  0  0  0  0
  190.7100  177.1020  145.5710 C   0  0  0  0  0  0  0  0  0  0  0  0
  188.6440  176.9640  141.1830 C   0  0  0  0  0  3  0  0  0  0  0  0
  189.0580  176.9090  143.7560 C   0  0  0  0  0  0  0  0  0  0  0  0
  188.2870  177.5400  146.0130 C   0  0  0  0  0  0  0  0  0  0  0  0
  190.4020  176.4720  144.2490 C   0  0  0  0  0  2  0  0  0  0  0  0
  187.6410  178.5430  148.0960 N   0  0  0  0  0  1  0  0  0  0  0  0
  187.8950  176.9400  144.6960 C   0  0  0  0  0  2  0  0  0  0  0  0
  189.6620  177.5800  146.4170 N   0  0  0  0  0  2  0  0  0  0  0  0
  192.1770  175.4320  137.1780 C   0  0  0  0  0  2  0  0  0  0  0  0
  190.7250  175.1480  136.7310 C   0  0  0  0  0  3  0  0  0  0  0  0
  190.6990  177.1700  139.7980 C   0  0  0  0  0  0  0  0  0  0  0  0
  189.7870  175.7450  137.8080 C   0  0  0  0  0  3  0  0  0  0  0  0
  192.0310  177.5470  139.9960 C   0  0  0  0  0  3  0  0  0  0  0  0
  190.7570  176.2170  138.8120 C   0  0  0  0  0  0  0  0  0  0  0  0
  192.8120  176.8380  139.1420 N   0  0  0  0  0  0  0  0  0  0  0  0
  192.0100  176.0270  138.4780 N   0  0  0  0  0  0  0  0  0  0  0  0
  188.6490  178.4400  139.1850 C   0  0  0  0  0  0  0  0  0  0  0  0
  189.1700  179.3220  138.3950 N   0  0  0  0  0  2  0  0  0  0  0  0
  186.6780  178.0940  137.8730 C   0  0  0  0  0  3  0  0  0  0  0  0
  187.2690  178.0960  139.0250 N   0  0  0  0  0  0  0  0  0  0  0  0
  185.2360  177.7280  137.7600 C   0  0  0  0  0  2  0  0  0  0  0  0
  184.3690  178.6680  138.5830 C   0  0  0  0  0  2  0  0  0  0  0  0
  183.5540  177.9070  139.5190 N   0  0  0  0  0  2  0  0  0  0  0  0
  181.4190  179.2890  140.3330 S   0  0  0  0  0  0  0  0  0  0  0  0
  182.8350  178.4930  140.6070 C   0  0  0  0  0  0  0  0  0  0  0  0
  184.5600  178.9310  142.4770 C   0  0  0  0  0  0  0  0  0  0  0  0
  183.3710  178.3430  141.9300 N   0  0  0  0  0  2  0  0  0  0  0  0
  185.3310  179.6330  141.7720 O   0  0  0  0  0  0  0  0  0  0  0  0
  183.7390  179.0200  144.7920 C   0  0  0  0  0  1  0  0  0  0  0  0
  184.9120  178.6700  143.8990 C   0  0  0  0  0  2  0  0  0  0  0  0
  1  6  1  6  0  0  0
  2  7  2  0  0  0  0
  4 10  1  0  0  0  0
  5  3  2  0  0  0  0
  5 12  1  0  0  0  0
  6  2  2  0  0  0  0
  7  9  1  0  0  0  0
  7 11  1  0  0  0  0
  8 12  1  0  0  0  0
  8  4  2  0  0  0  0
  9  5  1  0  0  0  0
 11  8  1  0  0  0  0
 13 20  1  0  0  0  0
 14 13  1  0  0  0  0
 14 16  2  0  0  0  0
 15 17  1  0  0  0  0
 15  1  1  0  0  0  0
 16 18  1  0  0  0  0
 18 15  2  0  0  0  0
 19 17  2  0  0  0  0
 20 18  1  0  0  0  0
 20 19  1  0  0  0  0
 21  1  1  0  0  0  0
 22 21  2  0  0  0  0
 23 24  2  0  0  0  0
 24 21  1  0  0  0  0
 25 23  1  0  0  0  0
 25 26  1  0  0  0  0
 26 27  1  0  0  0  0
 27 29  1  0  0  0  0
 28 29  2  0  0  0  0
 29 31  1  0  0  0  0
 30 34  1  0  0  0  0
 31 30  1  0  0  0  0
 32 30  2  0  0  0  0
 34 33  1  0  0  0  0
M  END
>  <MODEL>
1

>  <REMARK>
 VINA RESULT:      -7.9      0.000      0.000
  Name = 
  10 active torsions:
  status: ('A' for Active; 'I' for Inactive)
    1  A    between atoms: C_4  and  C_11
    2  A    between atoms: C_4  and  C_18
    3  A    between atoms: C_6  and  C_23
    4  A    between atoms: C_13  and  C_23
    5  A    between atoms: C_13  and  N_27
    6  A    between atoms: C_14  and  C_23
    7  A    between atoms: C_17  and  C_30
    8  A    between atoms: C_18  and  N_28
    9  A    between atoms: N_20  and  C_25
   10  A    between atoms: C_25  and  N_28
                            x       y       z     vdW  Elec       q    Type
                         _______ _______ _______ _____ _____    ______ ____

>  <TORSDO>
F 10

$$$$
=
 OpenBabel10232412343D

 34 36  0  0  1  0  0  0  0  0999 V2000
  189.9610  177.3630  142.9930 C   0  0  1  0  0  3  0  0  0  0  0  0
  187.5900  177.0550  143.4630 C   0  0  0  0  0  0  0  0  0  0  0  0
  185.7280  179.3520  147.0500 O   0  0  0  0  0  0  0  0  0  0  0  0
  183.2940  178.9630  143.0190 C   0  0  0  0  0  3  0  0  0  0  0  0
  185.5850  178.7940  145.9310 C   0  0  0  0  0  0  0  0  0  0  0  0
  188.6760  176.5990  142.9010 C   0  0  0  0  0  3  0  0  0  0  0  0
  186.5210  177.5210  144.0430 C   0  0  0  0  0  0  0  0  0  0  0  0
  184.3120  178.5910  143.7870 C   0  0  0  0  0  0  0  0  0  0  0  0
  186.5270  177.7020  145.5280 C   0  0  0  0  0  2  0  0  0  0  0  0
  182.3810  179.9730  143.4380 N   0  0  0  0  0  1  0  0  0  0  0  0
  185.2220  177.5020  143.3020 C   0  0  0  0  0  2  0  0  0  0  0  0
  184.5030  179.1790  145.0810 N   0  0  0  0  0  2  0  0  0  0  0  0
  191.2890  176.2560  147.4690 C   0  0  0  0  0  2  0  0  0  0  0  0
  190.2020  177.3400  147.6480 C   0  0  0  0  0  3  0  0  0  0  0  0
  190.8590  176.8260  144.0690 C   0  0  0  0  0  0  0  0  0  0  0  0
  189.8590  177.8820  146.2390 C   0  0  0  0  0  3  0  0  0  0  0  0
  191.6840  175.6990  144.0090 C   0  0  0  0  0  3  0  0  0  0  0  0
  190.8310  177.1590  145.4010 C   0  0  0  0  0  0  0  0  0  0  0  0
  192.0970  175.3980  145.2670 N   0  0  0  0  0  0  0  0  0  0  0  0
  191.5910  176.3220  146.0630 N   0  0  0  0  0  0  0  0  0  0  0  0
  190.6630  177.4280  141.6630 C   0  0  0  0  0  0  0  0  0  0  0  0
  191.9250  177.7060  141.6100 N   0  0  0  0  0  2  0  0  0  0  0  0
  190.4530  177.5340  139.2810 C   0  0  0  0  0  3  0  0  0  0  0  0
  189.9370  177.2710  140.4400 N   0  0  0  0  0  0  0  0  0  0  0  0
  189.6520  177.3550  138.0350 C   0  0  0  0  0  2  0  0  0  0  0  0
  188.2630  176.8230  138.3510 C   0  0  0  0  0  2  0  0  0  0  0  0
  187.2710  177.8740  138.1700 N   0  0  0  0  0  2  0  0  0  0  0  0
  186.1990  177.5010  135.7530 S   0  0  0  0  0  0  0  0  0  0  0  0
  186.0880  177.7230  137.3810 C   0  0  0  0  0  0  0  0  0  0  0  0
  184.2370  178.8180  138.8100 C   0  0  0  0  0  0  0  0  0  0  0  0
  184.8200  177.7470  138.0550 N   0  0  0  0  0  2  0  0  0  0  0  0
  184.8610  179.8920  139.0180 O   0  0  0  0  0  0  0  0  0  0  0  0
  181.9820  179.7830  138.9680 C   0  0  0  0  0  1  0  0  0  0  0  0
  182.8820  178.6410  139.3960 C   0  0  0  0  0  2  0  0  0  0  0  0
  1  6  1  6  0  0  0
  1 15  1  0  0  0  0
  2  7  2  0  0  0  0
  4 10  1  0  0  0  0
  4  8  2  0  0  0  0
  5  3  2  0  0  0  0
  6  2  2  0  0  0  0
  7  9  1  0  0  0  0
  8 12  1  0  0  0  0
  9  5  1  0  0  0  0
 11  8  1  0  0  0  0
 11  7  1  0  0  0  0
 12  5  1  0  0  0  0
 13 14  1  0  0  0  0
 15 18  2  0  0  0  0
 16 14  2  0  0  0  0
 17 15  1  0  0  0  0
 17 19  2  0  0  0  0
 18 20  1  0  0  0  0
 18 16  1  0  0  0  0
 19 20  1  0  0  0  0
 20 13  1  0  0  0  0
 21  1  1  0  0  0  0
 22 21  2  0  0  0  0
 23 24  2  0  0  0  0
 24 21  1  0  0  0  0
 25 26  1  0  0  0  0
 25 23  1  0  0  0  0
 27 26  1  0  0  0  0
 28 29  2  0  0  0  0
 29 31  1  0  0  0  0
 29 27  1  0  0  0  0
 30 32  2  0  0  0  0
 30 34  1  0  0  0  0
 31 30  1  0  0  0  0
 33 34  1  0  0  0  0
M  END
>  <MODEL>
2

>  <REMARK>
 VINA RESULT:      -7.7      2.474      5.494
  Name = 
  10 active torsions:
  status: ('A' for Active; 'I' for Inactive)
    1  A    between atoms: C_4  and  C_11
    2  A    between atoms: C_4  and  C_18
    3  A    between atoms: C_6  and  C_23
    4  A    between atoms: C_13  and  C_23
    5  A    between atoms: C_13  and  N_27
    6  A    between atoms: C_14  and  C_23
    7  A    between atoms: C_17  and  C_30
    8  A    between atoms: C_18  and  N_28
    9  A    between atoms: N_20  and  C_25
   10  A    between atoms: C_25  and  N_28
                            x       y       z     vdW  Elec       q    Type
                         _______ _______ _______ _____ _____    ______ ____

>  <TORSDO>
F 10

$$$$
=
 OpenBabel10232412343D

 34 36  0  0  1  0  0  0  0  0999 V2000
  186.8880  178.6710  141.5800 C   0  0  1  0  0  3  0  0  0  0  0  0
  187.9110  177.9710  139.4820 C   0  0  0  0  0  0  0  0  0  0  0  0
  192.4360  176.9060  139.4700 O   0  0  0  0  0  0  0  0  0  0  0  0
  189.4160  174.2630  136.9760 C   0  0  0  0  0  3  0  0  0  0  0  0
  191.2910  176.7700  138.9660 C   0  0  0  0  0  0  0  0  0  0  0  0
  186.9350  178.5930  140.0850 C   0  0  0  0  0  3  0  0  0  0  0  0
  188.9010  177.3580  138.8990 C   0  0  0  0  0  0  0  0  0  0  0  0
  189.6800  175.3720  137.6580 C   0  0  0  0  0  0  0  0  0  0  0  0
  190.2900  177.8750  139.1040 C   0  0  0  0  0  2  0  0  0  0  0  0
  190.3960  173.2410  136.8160 N   0  0  0  0  0  1  0  0  0  0  0  0
  188.6160  176.4230  137.7670 C   0  0  0  0  0  2  0  0  0  0  0  0
  190.9770  175.5850  138.2310 N   0  0  0  0  0  2  0  0  0  0  0  0
  183.3050  178.8130  144.7680 C   0  0  0  0  0  2  0  0  0  0  0  0
  184.5790  179.0420  145.6120 C   0  0  0  0  0  3  0  0  0  0  0  0
  185.5100  178.4100  142.1140 C   0  0  0  0  0  0  0  0  0  0  0  0
  185.7940  178.8210  144.6780 C   0  0  0  0  0  3  0  0  0  0  0  0
  184.3030  178.4300  141.4080 C   0  0  0  0  0  3  0  0  0  0  0  0
  185.1330  178.3900  143.4340 C   0  0  0  0  0  0  0  0  0  0  0  0
  183.2800  178.4320  142.3000 N   0  0  0  0  0  0  0  0  0  0  0  0
  183.8240  178.3700  143.5010 N   0  0  0  0  0  0  0  0  0  0  0  0
  187.9120  177.7680  142.2140 C   0  0  0  0  0  0  0  0  0  0  0  0
  187.5930  176.5580  142.5410 N   0  0  0  0  0  2  0  0  0  0  0  0
  190.2290  177.4650  142.7290 C   0  0  0  0  0  3  0  0  0  0  0  0
  189.2180  178.2520  142.5420 N   0  0  0  0  0  0  0  0  0  0  0  0
  191.5710  178.0210  143.0710 C   0  0  0  0  0  2  0  0  0  0  0  0
  191.7580  178.1070  144.5770 C   0  0  0  0  0  2  0  0  0  0  0  0
  191.5210  176.8060  145.1860 N   0  0  0  0  0  2  0  0  0  0  0  0
  192.3240  175.6830  147.4720 S   0  0  0  0  0  0  0  0  0  0  0  0
  191.2930  176.6120  146.5850 C   0  0  0  0  0  0  0  0  0  0  0  0
  188.8080  177.2960  146.7180 C   0  0  0  0  0  0  0  0  0  0  0  0
  190.1640  177.2680  147.1820 N   0  0  0  0  0  2  0  0  0  0  0  0
  188.4740  176.7620  145.6280 O   0  0  0  0  0  0  0  0  0  0  0  0
  188.2180  178.0840  148.9700 C   0  0  0  0  0  1  0  0  0  0  0  0
  187.7800  178.0110  147.5210 C   0  0  0  0  0  2  0  0  0  0  0  0
  1  6  1  6  0  0  0
  1 15  1  0  0  0  0
  1 21  1  0  0  0  0
  2  6  2  0  0  0  0
  4  8  2  0  0  0  0
  5  9  1  0  0  0  0
  5  3  2  0  0  0  0
  7  9  1  0  0  0  0
  7  2  2  0  0  0  0
  8 11  1  0  0  0  0
  8 12  1  0  0  0  0
 10  4  1  0  0  0  0
 11  7  1  0  0  0  0
 12  5  1  0  0  0  0
 13 14  1  0  0  0  0
 15 18  2  0  0  0  0
 16 14  2  0  0  0  0
 17 15  1  0  0  0  0
 17 19  2  0  0  0  0
 18 20  1  0  0  0  0
 18 16  1  0  0  0  0
 19 20  1  0  0  0  0
 20 13  1  0  0  0  0
 21 22  2  0  0  0  0
 21 24  1  0  0  0  0
 23 25  1  0  0  0  0
 24 23  2  0  0  0  0
 25 26  1  0  0  0  0
 26 27  1  0  0  0  0
 27 29  1  0  0  0  0
 29 31  1  0  0  0  0
 29 28  2  0  0  0  0
 30 31  1  0  0  0  0
 30 34  1  0  0  0  0
 32 30  2  0  0  0  0
 34 33  1  0  0  0  0
M  END
>  <MODEL>
3

>  <REMARK>
 VINA RESULT:      -7.7      3.181      8.036
  Name = 
  10 active torsions:
  status: ('A' for Active; 'I' for Inactive)
    1  A    between atoms: C_4  and  C_11
    2  A    between atoms: C_4  and  C_18
    3  A    between atoms: C_6  and  C_23
    4  A    between atoms: C_13  and  C_23
    5  A    between atoms: C_13  and  N_27
    6  A    between atoms: C_14  and  C_23
    7  A    between atoms: C_17  and  C_30
    8  A    between atoms: C_18  and  N_28
    9  A    between atoms: N_20  and  C_25
   10  A    between atoms: C_25  and  N_28
                            x       y       z     vdW  Elec       q    Type
                         _______ _______ _______ _____ _____    ______ ____

>  <TORSDO>
F 10

$$$$
=
 OpenBabel10232412343D

 34 36  0  0  1  0  0  0  0  0999 V2000
  188.6190  177.3710  139.8330 C   0  0  1  0  0  3  0  0  0  0  0  0
  186.9340  178.7610  140.9140 C   0  0  0  0  0  0  0  0  0  0  0  0
  182.5320  178.4450  139.4540 O   0  0  0  0  0  0  0  0  0  0  0  0
  183.4310  178.8100  144.0790 C   0  0  0  0  0  3  0  0  0  0  0  0
  183.3520  178.7120  140.3710 C   0  0  0  0  0  0  0  0  0  0  0  0
  188.1940  178.5580  140.6420 C   0  0  0  0  0  3  0  0  0  0  0  0
  185.6710  178.9530  141.1630 C   0  0  0  0  0  0  0  0  0  0  0  0
  183.8420  178.8950  142.8180 C   0  0  0  0  0  0  0  0  0  0  0  0
  184.7340  179.1630  140.0150 C   0  0  0  0  0  2  0  0  0  0  0  0
  182.0980  178.4230  144.3990 N   0  0  0  0  0  1  0  0  0  0  0  0
  185.2490  179.3360  142.5460 C   0  0  0  0  0  2  0  0  0  0  0  0
  182.9390  178.6240  141.7370 N   0  0  0  0  0  2  0  0  0  0  0  0
  186.6710  177.9690  135.4890 C   0  0  0  0  0  2  0  0  0  0  0  0
  185.6310  177.1290  136.2640 C   0  0  0  0  0  3  0  0  0  0  0  0
  188.6020  177.6580  138.3600 C   0  0  0  0  0  0  0  0  0  0  0  0
  186.2740  176.7350  137.6150 C   0  0  0  0  0  3  0  0  0  0  0  0
  189.3770  178.5910  137.6640 C   0  0  0  0  0  3  0  0  0  0  0  0
  187.6350  177.2780  137.4620 C   0  0  0  0  0  0  0  0  0  0  0  0
  188.8570  178.7400  136.4180 N   0  0  0  0  0  0  0  0  0  0  0  0
  187.8370  177.9070  136.3300 N   0  0  0  0  0  0  0  0  0  0  0  0
  189.9540  176.8420  140.2830 C   0  0  0  0  0  0  0  0  0  0  0  0
  190.7460  176.2750  139.4310 N   0  0  0  0  0  2  0  0  0  0  0  0
  190.3920  175.8190  142.4010 C   0  0  0  0  0  3  0  0  0  0  0  0
  190.3340  176.8800  141.6620 N   0  0  0  0  0  0  0  0  0  0  0  0
  190.7920  175.9120  143.8350 C   0  0  0  0  0  2  0  0  0  0  0  0
  191.6120  177.1670  144.0920 C   0  0  0  0  0  2  0  0  0  0  0  0
  191.3690  177.6550  145.4430 N   0  0  0  0  0  2  0  0  0  0  0  0
  191.9890  175.8320  147.2910 S   0  0  0  0  0  0  0  0  0  0  0  0
  190.9270  176.8260  146.5210 C   0  0  0  0  0  0  0  0  0  0  0  0
  188.9630  177.7660  147.9080 C   0  0  0  0  0  0  0  0  0  0  0  0
  189.5500  176.9120  146.9160 N   0  0  0  0  0  2  0  0  0  0  0  0
  189.6670  178.5300  148.6180 O   0  0  0  0  0  0  0  0  0  0  0  0
  186.7670  178.1510  146.8730 C   0  0  0  0  0  1  0  0  0  0  0  0
  187.4930  177.7170  148.1310 C   0  0  0  0  0  2  0  0  0  0  0  0
  1 21  1  0  0  0  0
  1  6  1  1  0  0  0
  2  7  2  0  0  0  0
  3  5  2  0  0  0  0
  4 10  1  0  0  0  0
  5 12  1  0  0  0  0
  6  2  2  0  0  0  0
  7 11  1  0  0  0  0
  8  4  2  0  0  0  0
  9  5  1  0  0  0  0
  9  7  1  0  0  0  0
 11  8  1  0  0  0  0
 12  8  1  0  0  0  0
 13 14  1  0  0  0  0
 13 20  1  0  0  0  0
 14 16  2  0  0  0  0
 15  1  1  0  0  0  0
 17 15  1  0  0  0  0
 18 16  1  0  0  0  0
 18 15  2  0  0  0  0
 19 17  2  0  0  0  0
 20 19  1  0  0  0  0
 20 18  1  0  0  0  0
 21 24  1  0  0  0  0
 22 21  2  0  0  0  0
 23 25  1  0  0  0  0
 24 23  2  0  0  0  0
 25 26  1  0  0  0  0
 26 27  1  0  0  0  0
 27 29  1  0  0  0  0
 29 31  1  0  0  0  0
 29 28  2  0  0  0  0
 30 34  1  0  0  0  0
 30 32  2  0  0  0  0
 31 30  1  0  0  0  0
 33 34  1  0  0  0  0
M  END
>  <MODEL>
4

>  <REMARK>
 VINA RESULT:      -7.5      3.039      6.614
  Name = 
  10 active torsions:
  status: ('A' for Active; 'I' for Inactive)
    1  A    between atoms: C_4  and  C_11
    2  A    between atoms: C_4  and  C_18
    3  A    between atoms: C_6  and  C_23
    4  A    between atoms: C_13  and  C_23
    5  A    between atoms: C_13  and  N_27
    6  A    between atoms: C_14  and  C_23
    7  A    between atoms: C_17  and  C_30
    8  A    between atoms: C_18  and  N_28
    9  A    between atoms: N_20  and  C_25
   10  A    between atoms: C_25  and  N_28
                            x       y       z     vdW  Elec       q    Type
                         _______ _______ _______ _____ _____    ______ ____

>  <TORSDO>
F 10

$$$$
=
 OpenBabel10232412343D

 34 36  0  0  1  0  0  0  0  0999 V2000
  185.0330  178.2250  142.4830 C   0  0  1  0  0  3  0  0  0  0  0  0
  187.1810  178.6490  141.4120 C   0  0  0  0  0  0  0  0  0  0  0  0
  190.6960  175.7300  142.2640 O   0  0  0  0  0  0  0  0  0  0  0  0
  190.0450  177.3730  137.8820 C   0  0  0  0  0  3  0  0  0  0  0  0
  190.1430  176.5630  141.5010 C   0  0  0  0  0  0  0  0  0  0  0  0
  186.0270  179.1170  141.8040 C   0  0  0  0  0  3  0  0  0  0  0  0
  188.3320  178.1670  141.0400 C   0  0  0  0  0  0  0  0  0  0  0  0
  189.7800  177.4320  139.1830 C   0  0  0  0  0  0  0  0  0  0  0  0
  189.2530  177.6170  142.0830 C   0  0  0  0  0  2  0  0  0  0  0  0
  190.9290  176.3910  137.3500 N   0  0  0  0  0  1  0  0  0  0  0  0
  188.8630  178.5070  139.6840 C   0  0  0  0  0  2  0  0  0  0  0  0
  190.4040  176.5200  140.0960 N   0  0  0  0  0  2  0  0  0  0  0  0
  186.9330  178.2480  146.8900 C   0  0  0  0  0  2  0  0  0  0  0  0
  187.8800  177.3440  146.0680 C   0  0  0  0  0  3  0  0  0  0  0  0
  185.0500  178.3970  143.9740 C   0  0  0  0  0  0  0  0  0  0  0  0
  187.2260  177.1360  144.6800 C   0  0  0  0  0  3  0  0  0  0  0  0
  184.3800  179.3650  144.7290 C   0  0  0  0  0  3  0  0  0  0  0  0
  185.9390  177.8330  144.8540 C   0  0  0  0  0  0  0  0  0  0  0  0
  184.8830  179.3550  145.9900 N   0  0  0  0  0  0  0  0  0  0  0  0
  185.7890  178.3960  146.0290 N   0  0  0  0  0  0  0  0  0  0  0  0
  183.6510  178.4040  141.9170 C   0  0  0  0  0  0  0  0  0  0  0  0
  182.6790  178.7730  142.6860 N   0  0  0  0  0  2  0  0  0  0  0  0
  183.1760  179.0000  139.6480 C   0  0  0  0  0  3  0  0  0  0  0  0
  183.3700  178.0900  140.5490 N   0  0  0  0  0  0  0  0  0  0  0  0
  182.8850  178.6200  138.2350 C   0  0  0  0  0  2  0  0  0  0  0  0
  183.7010  177.4060  137.8170 C   0  0  0  0  0  2  0  0  0  0  0  0
  185.0390  177.8170  137.4160 N   0  0  0  0  0  2  0  0  0  0  0  0
  186.9890  177.8590  135.5920 S   0  0  0  0  0  0  0  0  0  0  0  0
  185.8560  177.0820  136.5000 C   0  0  0  0  0  0  0  0  0  0  0  0
  186.5430  174.6250  136.8940 C   0  0  0  0  0  0  0  0  0  0  0  0
  185.6710  175.6610  136.4220 N   0  0  0  0  0  2  0  0  0  0  0  0
  187.6650  174.8900  137.4000 O   0  0  0  0  0  0  0  0  0  0  0  0
  185.0660  172.8640  137.7650 C   0  0  0  0  0  1  0  0  0  0  0  0
  186.1320  173.2040  136.7430 C   0  0  0  0  0  2  0  0  0  0  0  0
  1  6  1  6  0  0  0
  1 15  1  0  0  0  0
  2  6  2  0  0  0  0
  4  8  2  0  0  0  0
  5  9  1  0  0  0  0
  5  3  2  0  0  0  0
  7  2  2  0  0  0  0
  7  9  1  0  0  0  0
  8 11  1  0  0  0  0
  8 12  1  0  0  0  0
 10  4  1  0  0  0  0
 11  7  1  0  0  0  0
 12  5  1  0  0  0  0
 14 13  1  0  0  0  0
 15 17  1  0  0  0  0
 15 18  2  0  0  0  0
 16 18  1  0  0  0  0
 16 14  2  0  0  0  0
 17 19  2  0  0  0  0
 18 20  1  0  0  0  0
 19 20  1  0  0  0  0
 20 13  1  0  0  0  0
 21  1  1  0  0  0  0
 21 22  2  0  0  0  0
 23 24  2  0  0  0  0
 24 21  1  0  0  0  0
 25 23  1  0  0  0  0
 26 25  1  0  0  0  0
 27 26  1  0  0  0  0
 28 29  2  0  0  0  0
 29 27  1  0  0  0  0
 30 32  2  0  0  0  0
 31 29  1  0  0  0  0
 31 30  1  0  0  0  0
 34 30  1  0  0  0  0
 34 33  1  0  0  0  0
M  END
>  <MODEL>
5

>  <REMARK>
 VINA RESULT:      -7.4      2.770      7.017
  Name = 
  10 active torsions:
  status: ('A' for Active; 'I' for Inactive)
    1  A    between atoms: C_4  and  C_11
    2  A    between atoms: C_4  and  C_18
    3  A    between atoms: C_6  and  C_23
    4  A    between atoms: C_13  and  C_23
    5  A    between atoms: C_13  and  N_27
    6  A    between atoms: C_14  and  C_23
    7  A    between atoms: C_17  and  C_30
    8  A    between atoms: C_18  and  N_28
    9  A    between atoms: N_20  and  C_25
   10  A    between atoms: C_25  and  N_28
                            x       y       z     vdW  Elec       q    Type
                         _______ _______ _______ _____ _____    ______ ____

>  <TORSDO>
F 10

$$$$
=
 OpenBabel10232412343D

 34 36  0  0  1  0  0  0  0  0999 V2000
  189.4980  176.9200  140.5220 C   0  0  1  0  0  3  0  0  0  0  0  0
  187.7730  178.0450  139.2200 C   0  0  0  0  0  0  0  0  0  0  0  0
  185.8090  175.7450  135.6900 O   0  0  0  0  0  0  0  0  0  0  0  0
  183.1220  178.4280  138.5010 C   0  0  0  0  0  3  0  0  0  0  0  0
  185.7370  176.6400  136.5720 C   0  0  0  0  0  0  0  0  0  0  0  0
  188.7930  178.1460  140.0270 C   0  0  0  0  0  3  0  0  0  0  0  0
  186.7660  177.9240  138.4030 C   0  0  0  0  0  0  0  0  0  0  0  0
  184.3240  178.0550  138.0750 C   0  0  0  0  0  0  0  0  0  0  0  0
  186.9930  177.2860  137.0690 C   0  0  0  0  0  2  0  0  0  0  0  0
  181.9350  177.8340  137.9840 N   0  0  0  0  0  1  0  0  0  0  0  0
  185.5340  178.7390  138.6370 C   0  0  0  0  0  2  0  0  0  0  0  0
  184.4580  177.0570  137.0540 N   0  0  0  0  0  2  0  0  0  0  0  0
  193.1200  176.5250  137.4000 C   0  0  0  0  0  2  0  0  0  0  0  0
  191.9210  175.8660  136.6820 C   0  0  0  0  0  3  0  0  0  0  0  0
  190.9300  176.8760  140.0730 C   0  0  0  0  0  0  0  0  0  0  0  0
  190.7620  175.7870  137.7040 C   0  0  0  0  0  3  0  0  0  0  0  0
  191.9980  177.6400  140.5520 C   0  0  0  0  0  3  0  0  0  0  0  0
  191.4110  176.2970  138.9250 C   0  0  0  0  0  0  0  0  0  0  0  0
  193.0440  177.5050  139.6960 N   0  0  0  0  0  0  0  0  0  0  0  0
  192.6580  176.6620  138.7560 N   0  0  0  0  0  0  0  0  0  0  0  0
  189.3770  176.7760  142.0150 C   0  0  0  0  0  0  0  0  0  0  0  0
  190.1400  175.9460  142.6490 N   0  0  0  0  0  2  0  0  0  0  0  0
  187.4610  176.8840  143.4440 C   0  0  0  0  0  3  0  0  0  0  0  0
  188.3690  177.4840  142.7430 N   0  0  0  0  0  0  0  0  0  0  0  0
  186.4300  177.6690  144.1840 C   0  0  0  0  0  2  0  0  0  0  0  0
  187.0040  178.2520  145.4660 C   0  0  0  0  0  2  0  0  0  0  0  0
  187.4390  177.1820  146.3520 N   0  0  0  0  0  2  0  0  0  0  0  0
  188.2170  178.2240  148.6840 S   0  0  0  0  0  0  0  0  0  0  0  0
  188.4760  177.3280  147.3270 C   0  0  0  0  0  0  0  0  0  0  0  0
  190.7410  176.9800  146.1370 C   0  0  0  0  0  0  0  0  0  0  0  0
  189.7220  176.6550  147.0930 N   0  0  0  0  0  2  0  0  0  0  0  0
  190.5930  177.9200  145.3120 O   0  0  0  0  0  0  0  0  0  0  0  0
  192.2510  175.5580  147.4560 C   0  0  0  0  0  1  0  0  0  0  0  0
  191.9820  176.1630  146.0920 C   0  0  0  0  0  2  0  0  0  0  0  0
  1  6  1  1  0  0  0
  1 21  1  0  0  0  0
  2  6  2  0  0  0  0
  3  5  2  0  0  0  0
  5 12  1  0  0  0  0
  5  9  1  0  0  0  0
  7 11  1  0  0  0  0
  7  2  2  0  0  0  0
  8  4  2  0  0  0  0
  8 11  1  0  0  0  0
  9  7  1  0  0  0  0
 10  4  1  0  0  0  0
 12  8  1  0  0  0  0
 13 20  1  0  0  0  0
 14 13  1  0  0  0  0
 14 16  2  0  0  0  0
 15  1  1  0  0  0  0
 15 17  1  0  0  0  0
 16 18  1  0  0  0  0
 18 15  2  0  0  0  0
 19 17  2  0  0  0  0
 20 18  1  0  0  0  0
 20 19  1  0  0  0  0
 21 22  2  0  0  0  0
 21 24  1  0  0  0  0
 23 25  1  0  0  0  0
 24 23  2  0  0  0  0
 25 26  1  0  0  0  0
 26 27  1  0  0  0  0
 27 29  1  0  0  0  0
 29 28  2  0  0  0  0
 30 31  1  0  0  0  0
 31 29  1  0  0  0  0
 32 30  2  0  0  0  0
 34 30  1  0  0  0  0
 34 33  1  0  0  0  0
M  END
>  <MODEL>
6

>  <REMARK>
 VINA RESULT:      -7.3      2.829      6.864
  Name = 
  10 active torsions:
  status: ('A' for Active; 'I' for Inactive)
    1  A    between atoms: C_4  and  C_11
    2  A    between atoms: C_4  and  C_18
    3  A    between atoms: C_6  and  C_23
    4  A    between atoms: C_13  and  C_23
    5  A    between atoms: C_13  and  N_27
    6  A    between atoms: C_14  and  C_23
    7  A    between atoms: C_17  and  C_30
    8  A    between atoms: C_18  and  N_28
    9  A    between atoms: N_20  and  C_25
   10  A    between atoms: C_25  and  N_28
                            x       y       z     vdW  Elec       q    Type
                         _______ _______ _______ _____ _____    ______ ____

>  <TORSDO>
F 10

$$$$
=
 OpenBabel10232412343D

 34 36  0  0  1  0  0  0  0  0999 V2000
  186.1350  178.6890  144.1640 C   0  0  1  0  0  3  0  0  0  0  0  0
  184.4190  178.5810  142.4370 C   0  0  0  0  0  0  0  0  0  0  0  0
  185.7400  178.7890  137.9850 O   0  0  0  0  0  0  0  0  0  0  0  0
  182.3200  175.7890  139.2600 C   0  0  0  0  0  3  0  0  0  0  0  0
  184.9040  178.4180  138.8490 C   0  0  0  0  0  0  0  0  0  0  0  0
  184.7230  178.8290  143.6810 C   0  0  0  0  0  3  0  0  0  0  0  0
  184.1380  178.3420  141.1880 C   0  0  0  0  0  0  0  0  0  0  0  0
  183.1020  176.8260  139.5400 C   0  0  0  0  0  0  0  0  0  0  0  0
  184.7820  179.1820  140.1310 C   0  0  0  0  0  2  0  0  0  0  0  0
  182.4180  175.1010  138.0170 N   0  0  0  0  0  1  0  0  0  0  0  0
  182.9300  177.5260  140.8550 C   0  0  0  0  0  2  0  0  0  0  0  0
  184.0530  177.3020  138.5790 N   0  0  0  0  0  2  0  0  0  0  0  0
  188.2310  177.9060  148.4090 C   0  0  0  0  0  2  0  0  0  0  0  0
  189.3550  177.6680  147.3750 C   0  0  0  0  0  3  0  0  0  0  0  0
  186.1990  178.3690  145.6290 C   0  0  0  0  0  0  0  0  0  0  0  0
  188.7060  177.7180  145.9710 C   0  0  0  0  0  3  0  0  0  0  0  0
  185.3120  178.7740  146.6310 C   0  0  0  0  0  3  0  0  0  0  0  0
  187.2800  177.8700  146.3120 C   0  0  0  0  0  0  0  0  0  0  0  0
  185.8790  178.5220  147.8380 N   0  0  0  0  0  0  0  0  0  0  0  0
  187.0420  177.9460  147.5980 N   0  0  0  0  0  0  0  0  0  0  0  0
  186.9060  177.6920  143.3410 C   0  0  0  0  0  0  0  0  0  0  0  0
  186.7530  176.4250  143.5500 N   0  0  0  0  0  2  0  0  0  0  0  0
  187.7250  177.9440  141.1070 C   0  0  0  0  0  3  0  0  0  0  0  0
  187.8750  178.1240  142.3810 N   0  0  0  0  0  0  0  0  0  0  0  0
  188.7670  178.4120  140.1470 C   0  0  0  0  0  2  0  0  0  0  0  0
  189.0990  177.3290  139.1320 C   0  0  0  0  0  2  0  0  0  0  0  0
  190.1530  176.4660  139.6460 N   0  0  0  0  0  2  0  0  0  0  0  0
  192.6800  176.8110  138.8560 S   0  0  0  0  0  0  0  0  0  0  0  0
  191.4690  176.9240  139.9670 C   0  0  0  0  0  0  0  0  0  0  0  0
  191.2330  177.0170  142.5360 C   0  0  0  0  0  0  0  0  0  0  0  0
  191.6860  177.5000  141.2640 N   0  0  0  0  0  2  0  0  0  0  0  0
  190.4930  176.0020  142.6290 O   0  0  0  0  0  0  0  0  0  0  0  0
  191.0440  179.1620  143.7210 C   0  0  0  0  0  1  0  0  0  0  0  0
  191.6090  177.7560  143.7700 C   0  0  0  0  0  2  0  0  0  0  0  0
  1  6  1  6  0  0  0
  1 15  1  0  0  0  0
  2  6  2  0  0  0  0
  3  5  2  0  0  0  0
  4  8  2  0  0  0  0
  5  9  1  0  0  0  0
  7  2  2  0  0  0  0
  8 11  1  0  0  0  0
  9  7  1  0  0  0  0
 10  4  1  0  0  0  0
 11  7  1  0  0  0  0
 12  5  1  0  0  0  0
 12  8  1  0  0  0  0
 14 13  1  0  0  0  0
 15 18  2  0  0  0  0
 15 17  1  0  0  0  0
 16 18  1  0  0  0  0
 16 14  2  0  0  0  0
 17 19  2  0  0  0  0
 18 20  1  0  0  0  0
 20 19  1  0  0  0  0
 20 13  1  0  0  0  0
 21 22  2  0  0  0  0
 21  1  1  0  0  0  0
 23 24  2  0  0  0  0
 24 21  1  0  0  0  0
 25 23  1  0  0  0  0
 26 27  1  0  0  0  0
 26 25  1  0  0  0  0
 27 29  1  0  0  0  0
 28 29  2  0  0  0  0
 29 31  1  0  0  0  0
 30 32  2  0  0  0  0
 30 34  1  0  0  0  0
 31 30  1  0  0  0  0
 33 34  1  0  0  0  0
M  END
>  <MODEL>
7

>  <REMARK>
 VINA RESULT:      -7.3      2.910      8.080
  Name = 
  10 active torsions:
  status: ('A' for Active; 'I' for Inactive)
    1  A    between atoms: C_4  and  C_11
    2  A    between atoms: C_4  and  C_18
    3  A    between atoms: C_6  and  C_23
    4  A    between atoms: C_13  and  C_23
    5  A    between atoms: C_13  and  N_27
    6  A    between atoms: C_14  and  C_23
    7  A    between atoms: C_17  and  C_30
    8  A    between atoms: C_18  and  N_28
    9  A    between atoms: N_20  and  C_25
   10  A    between atoms: C_25  and  N_28
                            x       y       z     vdW  Elec       q    Type
                         _______ _______ _______ _____ _____    ______ ____

>  <TORSDO>
F 10

$$$$
=
 OpenBabel10232412343D

 34 36  0  0  1  0  0  0  0  0999 V2000
  184.8870  178.0950  142.2460 C   0  0  1  0  0  3  0  0  0  0  0  0
  187.0960  178.5600  141.3280 C   0  0  0  0  0  0  0  0  0  0  0  0
  190.6150  175.7570  142.4980 O   0  0  0  0  0  0  0  0  0  0  0  0
  190.2480  177.2990  138.0470 C   0  0  0  0  0  3  0  0  0  0  0  0
  190.0980  176.5600  141.6790 C   0  0  0  0  0  0  0  0  0  0  0  0
  185.9040  179.0020  141.6240 C   0  0  0  0  0  3  0  0  0  0  0  0
  188.2840  178.1030  141.0530 C   0  0  0  0  0  0  0  0  0  0  0  0
  189.8860  177.3750  139.3230 C   0  0  0  0  0  0  0  0  0  0  0  0
  189.1400  177.5990  142.1720 C   0  0  0  0  0  2  0  0  0  0  0  0
  191.1960  176.3330  137.6030 N   0  0  0  0  0  1  0  0  0  0  0  0
  188.9050  178.4330  139.7330 C   0  0  0  0  0  2  0  0  0  0  0  0
  190.4650  176.4990  140.2990 N   0  0  0  0  0  2  0  0  0  0  0  0
  186.0860  178.6050  146.8650 C   0  0  0  0  0  2  0  0  0  0  0  0
  187.1700  177.6670  146.2870 C   0  0  0  0  0  3  0  0  0  0  0  0
  184.6700  178.4060  143.6990 C   0  0  0  0  0  0  0  0  0  0  0  0
  186.7430  177.3050  144.8450 C   0  0  0  0  0  3  0  0  0  0  0  0
  183.8670  179.4120  144.2450 C   0  0  0  0  0  3  0  0  0  0  0  0
  185.4270  177.9620  144.7540 C   0  0  0  0  0  0  0  0  0  0  0  0
  184.1700  179.5390  145.5620 N   0  0  0  0  0  0  0  0  0  0  0  0
  185.0840  178.6250  145.8310 N   0  0  0  0  0  0  0  0  0  0  0  0
  183.5940  178.1010  141.4750 C   0  0  0  0  0  0  0  0  0  0  0  0
  182.4910  178.4290  142.0650 N   0  0  0  0  0  2  0  0  0  0  0  0
  182.5860  176.9390  139.6420 C   0  0  0  0  0  3  0  0  0  0  0  0
  183.5490  177.6660  140.1130 N   0  0  0  0  0  0  0  0  0  0  0  0
  182.5860  176.5100  138.2130 C   0  0  0  0  0  2  0  0  0  0  0  0
  183.1010  175.0870  138.0710 C   0  0  0  0  0  2  0  0  0  0  0  0
  183.8350  174.9420  136.8210 N   0  0  0  0  0  2  0  0  0  0  0  0
  185.9900  173.4550  137.3420 S   0  0  0  0  0  0  0  0  0  0  0  0
  185.2560  174.8020  136.7450 C   0  0  0  0  0  0  0  0  0  0  0  0
  186.4230  177.1040  136.6780 C   0  0  0  0  0  0  0  0  0  0  0  0
  186.0040  175.8530  136.1150 N   0  0  0  0  0  2  0  0  0  0  0  0
  186.0920  177.4450  137.8440 O   0  0  0  0  0  0  0  0  0  0  0  0
  186.7240  178.0340  134.4220 C   0  0  0  0  0  1  0  0  0  0  0  0
  187.2320  178.0390  135.8510 C   0  0  0  0  0  2  0  0  0  0  0  0
  1  6  1  6  0  0  0
  1 15  1  0  0  0  0
  2  6  2  0  0  0  0
  4  8  2  0  0  0  0
  5  9  1  0  0  0  0
  5  3  2  0  0  0  0
  7  2  2  0  0  0  0
  7  9  1  0  0  0  0
  8 11  1  0  0  0  0
  8 12  1  0  0  0  0
 10  4  1  0  0  0  0
 11  7  1  0  0  0  0
 12  5  1  0  0  0  0
 14 13  1  0  0  0  0
 15 17  1  0  0  0  0
 15 18  2  0  0  0  0
 16 14  2  0  0  0  0
 17 19  2  0  0  0  0
 18 16  1  0  0  0  0
 18 20  1  0  0  0  0
 19 20  1  0  0  0  0
 20 13  1  0  0  0  0
 21 22  2  0  0  0  0
 21  1  1  0  0  0  0
 23 24  2  0  0  0  0
 24 21  1  0  0  0  0
 25 23  1  0  0  0  0
 26 25  1  0  0  0  0
 27 26  1  0  0  0  0
 29 27  1  0  0  0  0
 29 28  2  0  0  0  0
 30 32  2  0  0  0  0
 31 30  1  0  0  0  0
 31 29  1  0  0  0  0
 33 34  1  0  0  0  0
 34 30  1  0  0  0  0
M  END
>  <MODEL>
8

>  <REMARK>
 VINA RESULT:      -7.3      2.668      7.138
  Name = 
  10 active torsions:
  status: ('A' for Active; 'I' for Inactive)
    1  A    between atoms: C_4  and  C_11
    2  A    between atoms: C_4  and  C_18
    3  A    between atoms: C_6  and  C_23
    4  A    between atoms: C_13  and  C_23
    5  A    between atoms: C_13  and  N_27
    6  A    between atoms: C_14  and  C_23
    7  A    between atoms: C_17  and  C_30
    8  A    between atoms: C_18  and  N_28
    9  A    between atoms: N_20  and  C_25
   10  A    between atoms: C_25  and  N_28
                            x       y       z     vdW  Elec       q    Type
                         _______ _______ _______ _____ _____    ______ ____

>  <TORSDO>
F 10

$$$$
=
 OpenBabel10232412343D

 34 36  0  0  1  0  0  0  0  0999 V2000
  187.6320  177.9320  144.0810 C   0  0  1  0  0  3  0  0  0  0  0  0
  185.5220  178.3720  142.9450 C   0  0  0  0  0  0  0  0  0  0  0  0
  185.5930  179.1650  138.3650 O   0  0  0  0  0  0  0  0  0  0  0  0
  182.1520  176.5070  140.2140 C   0  0  0  0  0  3  0  0  0  0  0  0
  184.9710  178.7720  139.3860 C   0  0  0  0  0  0  0  0  0  0  0  0
  186.1950  178.3530  144.0630 C   0  0  0  0  0  3  0  0  0  0  0  0
  184.8710  178.3980  141.8180 C   0  0  0  0  0  0  0  0  0  0  0  0
  183.1610  177.3570  140.3760 C   0  0  0  0  0  0  0  0  0  0  0  0
  185.3480  179.3100  140.7310 C   0  0  0  0  0  2  0  0  0  0  0  0
  181.7780  176.0400  138.9220 N   0  0  0  0  0  1  0  0  0  0  0  0
  183.4870  177.8330  141.7600 C   0  0  0  0  0  2  0  0  0  0  0  0
  183.8850  177.8530  139.2430 N   0  0  0  0  0  2  0  0  0  0  0  0
  190.7250  176.9210  147.6080 C   0  0  0  0  0  2  0  0  0  0  0  0
  191.5880  176.9140  146.3260 C   0  0  0  0  0  3  0  0  0  0  0  0
  188.0650  177.4650  145.4400 C   0  0  0  0  0  0  0  0  0  0  0  0
  190.6240  177.0460  145.1230 C   0  0  0  0  0  3  0  0  0  0  0  0
  187.4110  177.6660  146.6590 C   0  0  0  0  0  3  0  0  0  0  0  0
  189.3120  177.0110  145.7920 C   0  0  0  0  0  0  0  0  0  0  0  0
  188.2640  177.3460  147.6660 N   0  0  0  0  0  0  0  0  0  0  0  0
  189.3790  176.9240  147.0980 N   0  0  0  0  0  0  0  0  0  0  0  0
  187.9220  176.9030  143.0200 C   0  0  0  0  0  0  0  0  0  0  0  0
  187.8530  175.6440  143.3050 N   0  0  0  0  0  2  0  0  0  0  0  0
  189.5980  177.2520  141.3490 C   0  0  0  0  0  3  0  0  0  0  0  0
  188.3570  177.2960  141.7140 N   0  0  0  0  0  0  0  0  0  0  0  0
  190.0000  177.6750  139.9750 C   0  0  0  0  0  2  0  0  0  0  0  0
  191.2330  176.9150  139.5100 C   0  0  0  0  0  2  0  0  0  0  0  0
  190.8390  175.6960  138.8190 N   0  0  0  0  0  2  0  0  0  0  0  0
  190.5160  175.5710  136.1710 S   0  0  0  0  0  0  0  0  0  0  0  0
  191.3680  175.2930  137.5520 C   0  0  0  0  0  0  0  0  0  0  0  0
  193.9450  175.2960  137.4040 C   0  0  0  0  0  0  0  0  0  0  0  0
  192.6610  174.6700  137.5290 N   0  0  0  0  0  2  0  0  0  0  0  0
  194.0570  176.5370  137.2260 O   0  0  0  0  0  0  0  0  0  0  0  0
  195.3820  173.9170  138.8450 C   0  0  0  0  0  1  0  0  0  0  0  0
  195.1710  174.4550  137.4440 C   0  0  0  0  0  2  0  0  0  0  0  0
  1  6  1  1  0  0  0
  1 15  1  0  0  0  0
  2  6  2  0  0  0  0
  3  5  2  0  0  0  0
  4  8  2  0  0  0  0
  5  9  1  0  0  0  0
  7  2  2  0  0  0  0
  8 11  1  0  0  0  0
  9  7  1  0  0  0  0
 10  4  1  0  0  0  0
 11  7  1  0  0  0  0
 12  5  1  0  0  0  0
 12  8  1  0  0  0  0
 14 13  1  0  0  0  0
 15 18  2  0  0  0  0
 15 17  1  0  0  0  0
 16 18  1  0  0  0  0
 16 14  2  0  0  0  0
 17 19  2  0  0  0  0
 18 20  1  0  0  0  0
 20 13  1  0  0  0  0
 20 19  1  0  0  0  0
 21 22  2  0  0  0  0
 21  1  1  0  0  0  0
 23 24  2  0  0  0  0
 24 21  1  0  0  0  0
 25 23  1  0  0  0  0
 26 25  1  0  0  0  0
 27 26  1  0  0  0  0
 28 29  2  0  0  0  0
 29 27  1  0  0  0  0
 30 34  1  0  0  0  0
 30 31  1  0  0  0  0
 31 29  1  0  0  0  0
 32 30  2  0  0  0  0
 34 33  1  0  0  0  0
M  END
>  <MODEL>
9

>  <REMARK>
 VINA RESULT:      -7.2      3.001      8.407
  Name = 
  10 active torsions:
  status: ('A' for Active; 'I' for Inactive)
    1  A    between atoms: C_4  and  C_11
    2  A    between atoms: C_4  and  C_18
    3  A    between atoms: C_6  and  C_23
    4  A    between atoms: C_13  and  C_23
    5  A    between atoms: C_13  and  N_27
    6  A    between atoms: C_14  and  C_23
    7  A    between atoms: C_17  and  C_30
    8  A    between atoms: C_18  and  N_28
    9  A    between atoms: N_20  and  C_25
   10  A    between atoms: C_25  and  N_28
                            x       y       z     vdW  Elec       q    Type
                         _______ _______ _______ _____ _____    ______ ____

>  <TORSDO>
F 10

$$$$
