=
 OpenBabel10232410193D

 52 56  0  0  1  0  0  0  0  0999 V2000
  188.9150  176.2150  137.0590 N   0  0  0  0  0  2  0  0  0  0  0  0
  190.0120  176.6630  139.0410 C   0  0  1  0  0  3  0  0  0  0  0  0
  187.9340  177.5510  138.9530 N   0  0  0  0  0  0  0  0  0  0  0  0
  186.6580  177.8980  138.3940 C   0  0  0  0  0  0  0  0  0  0  0  0
  186.0080  178.8630  138.8710 O   0  0  0  0  0  0  0  0  0  0  0  0
  191.4090  176.1610  138.0510 S   0  0  0  0  0  0  0  0  0  0  0  0
  189.9990  177.6820  140.1310 C   0  0  0  0  0  2  0  0  0  0  0  0
  188.8830  176.6500  138.4080 C   0  0  1  0  0  3  0  0  0  0  0  0
  188.5610  178.2410  140.0750 C   0  0  2  0  0  3  0  0  0  0  0  0
  190.2450  175.7620  136.6750 C   0  0  2  0  0  3  0  0  0  0  0  0
  190.6730  176.4640  135.3970 C   0  0  0  0  0  2  0  0  0  0  0  0
  190.7220  175.5470  134.3460 O   0  0  0  0  0  0  0  0  0  0  0  0
  190.8720  174.3070  134.9730 C   0  0  0  0  0  2  0  0  0  0  0  0
  192.0490  173.5750  134.3640 C   0  0  0  0  0  1  0  0  0  0  0  0
  187.8560  177.9130  141.3040 N   0  0  0  0  0  2  0  0  0  0  0  0
  188.8040  177.9260  142.3370 N   0  0  0  0  0  2  0  0  0  0  0  0
  191.1190  176.5300  146.6640 C   0  0  0  0  0  0  0  0  0  0  0  0
  192.0650  176.0670  147.7130 C   0  0  0  0  0  1  0  0  0  0  0  0
  187.6450  177.6570  146.3690 N   0  0  0  0  0  0  0  0  0  0  0  0
  190.6470  177.0440  144.3420 C   0  0  0  0  0  3  0  0  0  0  0  0
  189.3330  177.3990  144.6810 C   0  0  0  0  0  0  0  0  0  0  0  0
  188.4180  177.8370  143.7110 C   0  0  0  0  0  0  0  0  0  0  0  0
  191.5370  176.6110  145.3320 C   0  0  0  0  0  3  0  0  0  0  0  0
  188.9160  177.3160  146.0280 C   0  0  0  0  0  0  0  0  0  0  0  0
  187.1190  178.1810  144.1040 C   0  0  0  0  0  3  0  0  0  0  0  0
  189.8110  176.8810  147.0120 C   0  0  0  0  0  3  0  0  0  0  0  0
  186.7350  178.0820  145.4460 C   0  0  0  0  0  0  0  0  0  0  0  0
  185.3770  178.4630  145.9000 C   0  0  0  0  0  0  0  0  0  0  0  0
  184.2890  178.7560  145.0030 N   0  0  0  0  0  2  0  0  0  0  0  0
  185.1600  178.5360  147.1390 O   0  0  0  0  0  0  0  0  0  0  0  0
  184.2780  178.3260  142.4290 C   0  0  0  0  0  3  0  0  0  0  0  0
  184.2860  178.5220  143.6200 C   0  0  0  0  0  0  0  0  0  0  0  0
  186.0620  177.1100  137.2690 C   0  0  0  0  0  2  0  0  0  0  0  0
  184.5660  177.3690  137.1580 C   0  0  0  0  0  2  0  0  0  0  0  0
  183.3300  175.8810  135.5620 N   0  0  0  0  0  0  0  0  0  0  0  0
  182.7700  173.9870  136.6170 C   0  0  0  0  0  0  0  0  0  0  0  0
  183.8280  176.1240  136.7930 C   0  0  0  0  0  0  0  0  0  0  0  0
  182.7370  174.6900  135.4620 N   0  0  0  0  0  0  0  0  0  0  0  0
  182.2340  172.6710  136.7640 N   0  0  0  0  0  2  0  0  0  0  0  0
  183.5520  174.8320  137.8430 S   0  0  0  0  0  0  0  0  0  0  0  0
  181.6240  171.9550  135.6510 C   0  0  0  0  0  2  0  0  0  0  0  0
  182.2380  170.5640  135.4620 C   0  0  2  0  0  3  0  0  0  0  0  0
  184.6050  170.4360  135.4450 C   0  0  0  0  0  3  0  0  0  0  0  0
  183.5150  170.6300  134.7950 N   0  0  0  0  0  0  0  0  0  0  0  0
  185.9260  170.4890  134.7430 C   0  0  0  0  0  2  0  0  0  0  0  0
  186.9480  171.2880  135.5440 C   0  0  1  0  0  3  0  0  0  0  0  0
  188.1290  170.5520  135.6350 O   0  0  0  0  0  1  0  0  0  0  0  0
  187.2490  172.6190  134.8690 C   0  0  0  0  0  2  0  0  0  0  0  0
  186.2100  173.5220  135.0960 O   0  0  0  0  0  0  0  0  0  0  0  0
  186.6570  174.7210  134.5330 C   0  0  0  0  0  1  0  0  0  0  0  0
  181.3180  169.6190  134.7500 C   0  0  0  0  0  3  0  0  0  0  0  0
  181.1630  168.4740  135.1410 O   0  0  0  0  0  0  0  0  0  0  0  0
  2  7  1  6  0  0  0
  3  9  1  0  0  0  0
  4  5  2  0  0  0  0
  4  3  1  0  0  0  0
  6  2  1  0  0  0  0
  8  1  1  6  0  0  0
  8  3  1  0  0  0  0
  8  2  1  0  0  0  0
  9  7  1  0  0  0  0
  9 15  1  1  0  0  0
 10 11  1  6  0  0  0
 10  1  1  0  0  0  0
 10  6  1  0  0  0  0
 12 13  1  0  0  0  0
 12 11  1  0  0  0  0
 14 13  1  0  0  0  0
 15 16  1  0  0  0  0
 16 22  1  0  0  0  0
 17 26  1  0  0  0  0
 17 18  1  0  0  0  0
 20 21  2  0  0  0  0
 20 23  1  0  0  0  0
 21 24  1  0  0  0  0
 22 25  2  0  0  0  0
 22 21  1  0  0  0  0
 23 17  2  0  0  0  0
 24 19  1  0  0  0  0
 24 26  2  0  0  0  0
 25 27  1  0  0  0  0
 27 28  1  0  0  0  0
 27 19  2  0  0  0  0
 28 30  2  0  0  0  0
 29 28  1  0  0  0  0
 31 32  3  0  0  0  0
 32 29  1  0  0  0  0
 33  4  1  0  0  0  0
 34 33  1  0  0  0  0
 35 37  2  0  0  0  0
 36 39  1  0  0  0  0
 36 40  1  0  0  0  0
 37 34  1  0  0  0  0
 37 40  1  0  0  0  0
 38 35  1  0  0  0  0
 38 36  2  0  0  0  0
 41 39  1  0  0  0  0
 42 51  1  6  0  0  0
 42 41  1  0  0  0  0
 44 43  2  0  0  0  0
 44 42  1  0  0  0  0
 45 43  1  0  0  0  0
 45 46  1  0  0  0  0
 46 47  1  6  0  0  0
 48 49  1  0  0  0  0
 48 46  1  0  0  0  0
 50 49  1  0  0  0  0
 51 52  2  0  0  0  0
M  END
>  <MODEL>
1

>  <REMARK>
 VINA RESULT:      -7.3      0.000      0.000
  Name = 
  19 active torsions:
  status: ('A' for Active; 'I' for Inactive)
    1  A    between atoms: N_1  and  N_40
    2  A    between atoms: N_1  and  C_42
    3  A    between atoms: O_2  and  C_38
    4  A    between atoms: C_4  and  O_8
    5  A    between atoms: C_5  and  C_51
    6  A    between atoms: C_7  and  C_21
    7  A    between atoms: C_7  and  C_22
    8  A    between atoms: O_8  and  C_47
    9  A    between atoms: C_9  and  C_23
   10  A    between atoms: C_16  and  C_22
   11  A    between atoms: N_19  and  C_48
   12  A    between atoms: C_23  and  C_26
   13  A    between atoms: N_24  and  CA_34
   14  A    between atoms: C_26  and  C_38
   15  A    between atoms: C_28  and  N_40
   16  A    between atoms: C_29  and  CA_34
   17  A    between atoms: C_29  and  N_41
   18  A    between atoms: C_32  and  CA_34
   19  A    between atoms: C_47  and  C_50
                            x       y       z     vdW  Elec       q    Type
                         _______ _______ _______ _____ _____    ______ ____

>  <TORSDO>
F 19

$$$$
=
 OpenBabel10232410193D

 52 56  0  0  1  0  0  0  0  0999 V2000
  189.1670  178.3050  144.1680 N   0  0  0  0  0  2  0  0  0  0  0  0
  191.1750  177.4350  143.4330 C   0  0  1  0  0  3  0  0  0  0  0  0
  189.6710  177.7330  141.7700 N   0  0  0  0  0  0  0  0  0  0  0  0
  188.4190  178.0680  141.1530 C   0  0  0  0  0  0  0  0  0  0  0  0
  188.1310  177.5900  140.0260 O   0  0  0  0  0  0  0  0  0  0  0  0
  191.3490  177.1120  145.1790 S   0  0  0  0  0  0  0  0  0  0  0  0
  191.7010  176.6080  142.3070 C   0  0  0  0  0  2  0  0  0  0  0  0
  190.0560  178.0000  143.1080 C   0  0  1  0  0  3  0  0  0  0  0  0
  190.6800  176.8630  141.1760 C   0  0  2  0  0  3  0  0  0  0  0  0
  189.7550  177.9980  145.4650 C   0  0  2  0  0  3  0  0  0  0  0  0
  188.8000  177.1280  146.2640 C   0  0  0  0  0  2  0  0  0  0  0  0
  187.8820  177.9310  146.9420 O   0  0  0  0  0  0  0  0  0  0  0  0
  186.6470  177.6070  146.3720 C   0  0  0  0  0  2  0  0  0  0  0  0
  185.6860  178.7600  146.5660 C   0  0  0  0  0  1  0  0  0  0  0  0
  191.3300  177.5520  140.0720 N   0  0  0  0  0  2  0  0  0  0  0  0
  190.8760  176.9510  138.8890 N   0  0  0  0  0  2  0  0  0  0  0  0
  189.8100  173.0120  135.8260 C   0  0  0  0  0  0  0  0  0  0  0  0
  189.1690  171.9680  134.9850 C   0  0  0  0  0  1  0  0  0  0  0  0
  193.1590  174.0240  136.9150 N   0  0  0  0  0  0  0  0  0  0  0  0
  189.6230  174.9560  137.2620 C   0  0  0  0  0  3  0  0  0  0  0  0
  191.0160  174.9820  137.4200 C   0  0  0  0  0  0  0  0  0  0  0  0
  191.6480  175.9550  138.2110 C   0  0  0  0  0  0  0  0  0  0  0  0
  189.0220  173.9730  136.4680 C   0  0  0  0  0  3  0  0  0  0  0  0
  191.8070  174.0090  136.7700 C   0  0  0  0  0  0  0  0  0  0  0  0
  193.0420  175.9370  138.3320 C   0  0  0  0  0  3  0  0  0  0  0  0
  191.2000  173.0290  135.9780 C   0  0  0  0  0  3  0  0  0  0  0  0
  193.7970  174.9550  137.6800 C   0  0  0  0  0  0  0  0  0  0  0  0
  195.2760  174.9230  137.7660 C   0  0  0  0  0  0  0  0  0  0  0  0
  196.1470  175.2360  136.6630 N   0  0  0  0  0  2  0  0  0  0  0  0
  195.8030  174.6050  138.8650 O   0  0  0  0  0  0  0  0  0  0  0  0
  195.4020  176.2950  134.3970 C   0  0  0  0  0  3  0  0  0  0  0  0
  195.7480  175.8090  135.4450 C   0  0  0  0  0  0  0  0  0  0  0  0
  187.4550  179.0060  141.8090 C   0  0  0  0  0  2  0  0  0  0  0  0
  186.1350  178.3090  142.1050 C   0  0  0  0  0  2  0  0  0  0  0  0
  185.2910  179.5710  140.1080 N   0  0  0  0  0  0  0  0  0  0  0  0
  183.1050  179.1550  139.8550 C   0  0  0  0  0  0  0  0  0  0  0  0
  185.0690  178.7480  141.1560 C   0  0  0  0  0  0  0  0  0  0  0  0
  184.1960  179.8010  139.3820 N   0  0  0  0  0  0  0  0  0  0  0  0
  181.8170  179.2110  139.2390 N   0  0  0  0  0  2  0  0  0  0  0  0
  183.4580  178.2520  141.2290 S   0  0  0  0  0  0  0  0  0  0  0  0
  181.5790  179.9560  138.0090 C   0  0  0  0  0  2  0  0  0  0  0  0
  180.8470  179.1110  136.9620 C   0  0  2  0  0  3  0  0  0  0  0  0
  182.5850  177.6430  136.2950 C   0  0  0  0  0  3  0  0  0  0  0  0
  181.4300  177.7980  136.8320 N   0  0  0  0  0  0  0  0  0  0  0  0
  183.1910  176.2800  136.1790 C   0  0  0  0  0  2  0  0  0  0  0  0
  184.6780  176.3030  136.5160 C   0  0  1  0  0  3  0  0  0  0  0  0
  184.8620  177.0050  137.7060 O   0  0  0  0  0  1  0  0  0  0  0  0
  185.2190  174.8890  136.6900 C   0  0  0  0  0  2  0  0  0  0  0  0
  184.4970  174.2130  137.6740 O   0  0  0  0  0  0  0  0  0  0  0  0
  185.0880  172.9480  137.7370 C   0  0  0  0  0  1  0  0  0  0  0  0
  180.7680  179.7890  135.6270 C   0  0  0  0  0  3  0  0  0  0  0  0
  180.9320  180.9930  135.5200 O   0  0  0  0  0  0  0  0  0  0  0  0
  1 10  1  0  0  0  0
  2  7  1  6  0  0  0
  2  6  1  0  0  0  0
  3  8  1  0  0  0  0
  4  3  1  0  0  0  0
  4 33  1  0  0  0  0
  5  4  2  0  0  0  0
  6 10  1  0  0  0  0
  8  2  1  0  0  0  0
  8  1  1  1  0  0  0
  9 15  1  6  0  0  0
  9  3  1  0  0  0  0
  9  7  1  0  0  0  0
 10 11  1  1  0  0  0
 11 12  1  0  0  0  0
 13 14  1  0  0  0  0
 13 12  1  0  0  0  0
 16 15  1  0  0  0  0
 17 26  2  0  0  0  0
 17 23  1  0  0  0  0
 18 17  1  0  0  0  0
 19 27  1  0  0  0  0
 20 21  1  0  0  0  0
 21 22  2  0  0  0  0
 22 25  1  0  0  0  0
 22 16  1  0  0  0  0
 23 20  2  0  0  0  0
 24 19  2  0  0  0  0
 24 21  1  0  0  0  0
 26 24  1  0  0  0  0
 27 28  1  0  0  0  0
 27 25  2  0  0  0  0
 28 30  2  0  0  0  0
 29 28  1  0  0  0  0
 31 32  3  0  0  0  0
 32 29  1  0  0  0  0
 33 34  1  0  0  0  0
 35 37  2  0  0  0  0
 36 40  1  0  0  0  0
 37 40  1  0  0  0  0
 37 34  1  0  0  0  0
 38 36  2  0  0  0  0
 38 35  1  0  0  0  0
 39 36  1  0  0  0  0
 41 39  1  0  0  0  0
 42 51  1  6  0  0  0
 42 41  1  0  0  0  0
 43 44  2  0  0  0  0
 44 42  1  0  0  0  0
 45 43  1  0  0  0  0
 45 46  1  0  0  0  0
 46 48  1  0  0  0  0
 46 47  1  1  0  0  0
 48 49  1  0  0  0  0
 49 50  1  0  0  0  0
 52 51  2  0  0  0  0
M  END
>  <MODEL>
2

>  <REMARK>
 VINA RESULT:      -7.2      3.371      8.863
  Name = 
  19 active torsions:
  status: ('A' for Active; 'I' for Inactive)
    1  A    between atoms: N_1  and  N_40
    2  A    between atoms: N_1  and  C_42
    3  A    between atoms: O_2  and  C_38
    4  A    between atoms: C_4  and  O_8
    5  A    between atoms: C_5  and  C_51
    6  A    between atoms: C_7  and  C_21
    7  A    between atoms: C_7  and  C_22
    8  A    between atoms: O_8  and  C_47
    9  A    between atoms: C_9  and  C_23
   10  A    between atoms: C_16  and  C_22
   11  A    between atoms: N_19  and  C_48
   12  A    between atoms: C_23  and  C_26
   13  A    between atoms: N_24  and  CA_34
   14  A    between atoms: C_26  and  C_38
   15  A    between atoms: C_28  and  N_40
   16  A    between atoms: C_29  and  CA_34
   17  A    between atoms: C_29  and  N_41
   18  A    between atoms: C_32  and  CA_34
   19  A    between atoms: C_47  and  C_50
                            x       y       z     vdW  Elec       q    Type
                         _______ _______ _______ _____ _____    ______ ____

>  <TORSDO>
F 19

$$$$
=
 OpenBabel10232410193D

 52 56  0  0  1  0  0  0  0  0999 V2000
  182.9590  176.9280  135.8720 N   0  0  0  0  0  2  0  0  0  0  0  0
  182.3960  177.9980  137.8390 C   0  0  1  0  0  3  0  0  0  0  0  0
  184.6270  177.7430  137.5700 N   0  0  0  0  0  0  0  0  0  0  0  0
  185.8540  177.3180  136.9570 C   0  0  0  0  0  0  0  0  0  0  0  0
  186.8950  177.2080  137.6530 O   0  0  0  0  0  0  0  0  0  0  0  0
  180.8050  177.3010  137.4320 S   0  0  0  0  0  0  0  0  0  0  0  0
  182.9600  178.2200  139.2030 C   0  0  0  0  0  2  0  0  0  0  0  0
  183.3330  177.7100  136.9930 C   0  0  1  0  0  3  0  0  0  0  0  0
  184.4830  178.0820  138.9820 C   0  0  2  0  0  3  0  0  0  0  0  0
  181.5240  176.6810  135.8480 C   0  0  2  0  0  3  0  0  0  0  0  0
  181.2670  175.1910  135.6960 C   0  0  0  0  0  2  0  0  0  0  0  0
  182.3640  174.4700  136.1690 O   0  0  0  0  0  0  0  0  0  0  0  0
  181.8490  173.2040  136.4620 C   0  0  0  0  0  2  0  0  0  0  0  0
  180.3520  173.2060  136.2420 C   0  0  0  0  0  1  0  0  0  0  0  0
  185.1370  179.3530  139.2490 N   0  0  0  0  0  2  0  0  0  0  0  0
  185.1220  179.5390  140.6380 N   0  0  0  0  0  2  0  0  0  0  0  0
  185.3540  178.3720  145.6000 C   0  0  0  0  0  0  0  0  0  0  0  0
  185.1050  178.1790  147.0520 C   0  0  0  0  0  1  0  0  0  0  0  0
  187.9750  177.7110  143.1260 N   0  0  0  0  0  0  0  0  0  0  0  0
  184.6160  179.1660  143.4310 C   0  0  0  0  0  3  0  0  0  0  0  0
  185.8240  178.7410  142.8570 C   0  0  0  0  0  0  0  0  0  0  0  0
  186.0870  178.9130  141.4890 C   0  0  0  0  0  0  0  0  0  0  0  0
  184.3830  178.9810  144.7990 C   0  0  0  0  0  3  0  0  0  0  0  0
  186.8010  178.1270  143.6710 C   0  0  0  0  0  0  0  0  0  0  0  0
  187.3070  178.4690  140.9670 C   0  0  0  0  0  3  0  0  0  0  0  0
  186.5620  177.9460  145.0370 C   0  0  0  0  0  3  0  0  0  0  0  0
  188.2580  177.8690  141.8010 C   0  0  0  0  0  0  0  0  0  0  0  0
  189.5480  177.3630  141.2760 C   0  0  0  0  0  0  0  0  0  0  0  0
  190.8200  177.6210  141.9010 N   0  0  0  0  0  2  0  0  0  0  0  0
  189.5340  176.6690  140.2250 O   0  0  0  0  0  0  0  0  0  0  0  0
  191.1570  178.6710  144.2660 C   0  0  0  0  0  3  0  0  0  0  0  0
  191.0050  178.1850  143.1730 C   0  0  0  0  0  0  0  0  0  0  0  0
  185.9300  177.0320  135.4900 C   0  0  0  0  0  2  0  0  0  0  0  0
  186.5320  175.6570  135.2350 C   0  0  0  0  0  2  0  0  0  0  0  0
  188.7320  176.6970  134.6280 N   0  0  0  0  0  0  0  0  0  0  0  0
  190.3850  175.4610  135.4960 C   0  0  0  0  0  0  0  0  0  0  0  0
  188.0240  175.7150  135.2260 C   0  0  0  0  0  0  0  0  0  0  0  0
  190.0500  176.5550  134.7760 N   0  0  0  0  0  0  0  0  0  0  0  0
  191.7300  175.1040  135.8240 N   0  0  0  0  0  2  0  0  0  0  0  0
  189.0300  174.5970  135.9910 S   0  0  0  0  0  0  0  0  0  0  0  0
  192.8670  175.9230  135.4260 C   0  0  0  0  0  2  0  0  0  0  0  0
  193.8130  176.1960  136.6010 C   0  0  2  0  0  3  0  0  0  0  0  0
  195.9990  175.4510  136.0640 C   0  0  0  0  0  3  0  0  0  0  0  0
  194.8830  175.2310  136.6600 N   0  0  0  0  0  0  0  0  0  0  0  0
  197.1110  174.4530  136.1440 C   0  0  0  0  0  2  0  0  0  0  0  0
  197.1350  173.7560  137.5010 C   0  0  1  0  0  3  0  0  0  0  0  0
  197.9960  172.6620  137.4340 O   0  0  0  0  0  1  0  0  0  0  0  0
  197.6230  174.7020  138.5900 C   0  0  0  0  0  2  0  0  0  0  0  0
  196.8700  174.5310  139.7520 O   0  0  0  0  0  0  0  0  0  0  0  0
  197.4730  175.3760  140.6890 C   0  0  0  0  0  1  0  0  0  0  0  0
  193.0940  176.2700  137.9140 C   0  0  0  0  0  3  0  0  0  0  0  0
  193.5450  176.9190  138.8430 O   0  0  0  0  0  0  0  0  0  0  0  0
  2  7  1  1  0  0  0
  3  9  1  0  0  0  0
  4  3  1  0  0  0  0
  4  5  2  0  0  0  0
  6  2  1  0  0  0  0
  8  1  1  1  0  0  0
  8  3  1  0  0  0  0
  8  2  1  0  0  0  0
  9  7  1  0  0  0  0
  9 15  1  6  0  0  0
 10 11  1  1  0  0  0
 10  1  1  0  0  0  0
 10  6  1  0  0  0  0
 11 12  1  0  0  0  0
 12 13  1  0  0  0  0
 14 13  1  0  0  0  0
 15 16  1  0  0  0  0
 16 22  1  0  0  0  0
 17 18  1  0  0  0  0
 19 24  1  0  0  0  0
 20 23  1  0  0  0  0
 21 20  2  0  0  0  0
 21 24  1  0  0  0  0
 22 21  1  0  0  0  0
 23 17  2  0  0  0  0
 24 26  2  0  0  0  0
 25 22  2  0  0  0  0
 25 27  1  0  0  0  0
 26 17  1  0  0  0  0
 27 19  2  0  0  0  0
 28 27  1  0  0  0  0
 28 29  1  0  0  0  0
 29 32  1  0  0  0  0
 30 28  2  0  0  0  0
 32 31  3  0  0  0  0
 33  4  1  0  0  0  0
 34 33  1  0  0  0  0
 35 38  1  0  0  0  0
 35 37  2  0  0  0  0
 36 39  1  0  0  0  0
 36 40  1  0  0  0  0
 37 34  1  0  0  0  0
 37 40  1  0  0  0  0
 38 36  2  0  0  0  0
 41 39  1  0  0  0  0
 42 41  1  6  0  0  0
 42 44  1  0  0  0  0
 42 51  1  0  0  0  0
 43 45  1  0  0  0  0
 43 44  2  0  0  0  0
 45 46  1  0  0  0  0
 46 47  1  6  0  0  0
 46 48  1  0  0  0  0
 48 49  1  0  0  0  0
 49 50  1  0  0  0  0
 51 52  2  0  0  0  0
M  END
>  <MODEL>
3

>  <REMARK>
 VINA RESULT:      -7.2      3.466      8.228
  Name = 
  19 active torsions:
  status: ('A' for Active; 'I' for Inactive)
    1  A    between atoms: N_1  and  N_40
    2  A    between atoms: N_1  and  C_42
    3  A    between atoms: O_2  and  C_38
    4  A    between atoms: C_4  and  O_8
    5  A    between atoms: C_5  and  C_51
    6  A    between atoms: C_7  and  C_21
    7  A    between atoms: C_7  and  C_22
    8  A    between atoms: O_8  and  C_47
    9  A    between atoms: C_9  and  C_23
   10  A    between atoms: C_16  and  C_22
   11  A    between atoms: N_19  and  C_48
   12  A    between atoms: C_23  and  C_26
   13  A    between atoms: N_24  and  CA_34
   14  A    between atoms: C_26  and  C_38
   15  A    between atoms: C_28  and  N_40
   16  A    between atoms: C_29  and  CA_34
   17  A    between atoms: C_29  and  N_41
   18  A    between atoms: C_32  and  CA_34
   19  A    between atoms: C_47  and  C_50
                            x       y       z     vdW  Elec       q    Type
                         _______ _______ _______ _____ _____    ______ ____

>  <TORSDO>
F 19

$$$$
=
 OpenBabel10232410193D

 52 56  0  0  1  0  0  0  0  0999 V2000
  192.9960  175.4790  137.0310 N   0  0  0  0  0  2  0  0  0  0  0  0
  191.9960  176.1420  135.0590 C   0  0  1  0  0  3  0  0  0  0  0  0
  190.6490  176.3710  136.8610 N   0  0  0  0  0  0  0  0  0  0  0  0
  190.2360  176.2820  138.2330 C   0  0  0  0  0  0  0  0  0  0  0  0
  189.0120  176.2870  138.5190 O   0  0  0  0  0  0  0  0  0  0  0  0
  193.3570  175.2060  134.3840 S   0  0  0  0  0  0  0  0  0  0  0  0
  190.6260  176.2850  134.4810 C   0  0  0  0  0  2  0  0  0  0  0  0
  191.9550  176.1610  136.3520 C   0  0  1  0  0  3  0  0  0  0  0  0
  189.7370  176.4800  135.7280 C   0  0  2  0  0  3  0  0  0  0  0  0
  193.9890  174.9590  136.1010 C   0  0  2  0  0  3  0  0  0  0  0  0
  194.2190  173.4820  136.3740 C   0  0  0  0  0  2  0  0  0  0  0  0
  195.4360  173.3060  137.0340 O   0  0  0  0  0  0  0  0  0  0  0  0
  195.1550  172.3810  138.0430 C   0  0  0  0  0  2  0  0  0  0  0  0
  195.6580  171.0150  137.6290 C   0  0  0  0  0  1  0  0  0  0  0  0
  189.1420  177.8080  135.7070 N   0  0  0  0  0  2  0  0  0  0  0  0
  187.8210  177.6590  135.2630 N   0  0  0  0  0  2  0  0  0  0  0  0
  183.9700  174.3260  135.5810 C   0  0  0  0  0  0  0  0  0  0  0  0
  182.9850  173.2320  135.3760 C   0  0  0  0  0  1  0  0  0  0  0  0
  184.6530  177.0320  137.9550 N   0  0  0  0  0  0  0  0  0  0  0  0
  185.9420  175.5370  134.8570 C   0  0  0  0  0  3  0  0  0  0  0  0
  185.8290  176.3940  135.9620 C   0  0  0  0  0  0  0  0  0  0  0  0
  186.7430  177.4370  136.1780 C   0  0  0  0  0  0  0  0  0  0  0  0
  185.0140  174.5070  134.6680 C   0  0  0  0  0  3  0  0  0  0  0  0
  184.7730  176.2080  136.8800 C   0  0  0  0  0  0  0  0  0  0  0  0
  186.5860  178.2620  137.2980 C   0  0  0  0  0  3  0  0  0  0  0  0
  183.8490  175.1760  136.6850 C   0  0  0  0  0  3  0  0  0  0  0  0
  185.5250  178.0550  138.1870 C   0  0  0  0  0  0  0  0  0  0  0  0
  185.3450  178.8930  139.3960 C   0  0  0  0  0  0  0  0  0  0  0  0
  184.2330  179.7870  139.5890 N   0  0  0  0  0  2  0  0  0  0  0  0
  186.2130  178.8200  140.3060 O   0  0  0  0  0  0  0  0  0  0  0  0
  182.0850  179.8770  138.1100 C   0  0  0  0  0  3  0  0  0  0  0  0
  183.0790  179.8380  138.7920 C   0  0  0  0  0  0  0  0  0  0  0  0
  191.2380  176.2180  139.3430 C   0  0  0  0  0  2  0  0  0  0  0  0
  191.3160  177.5470  140.0810 C   0  0  0  0  0  2  0  0  0  0  0  0
  191.6960  177.6510  142.5580 N   0  0  0  0  0  0  0  0  0  0  0  0
  189.7980  177.0960  143.6090 C   0  0  0  0  0  0  0  0  0  0  0  0
  190.8900  177.4000  141.5040 C   0  0  0  0  0  0  0  0  0  0  0  0
  191.0890  177.4800  143.7340 N   0  0  0  0  0  0  0  0  0  0  0  0
  188.9210  176.8780  144.7160 N   0  0  0  0  0  2  0  0  0  0  0  0
  189.3420  176.9450  141.9970 S   0  0  0  0  0  0  0  0  0  0  0  0
  189.3470  177.0870  146.0940 C   0  0  0  0  0  2  0  0  0  0  0  0
  188.1690  177.4300  147.0110 C   0  0  2  0  0  3  0  0  0  0  0  0
  185.9180  177.8770  146.4150 C   0  0  0  0  0  3  0  0  0  0  0  0
  187.1590  178.1930  146.3210 N   0  0  0  0  0  0  0  0  0  0  0  0
  184.8740  178.6840  145.7090 C   0  0  0  0  0  2  0  0  0  0  0  0
  185.2560  178.9350  144.2540 C   0  0  1  0  0  3  0  0  0  0  0  0
  185.4580  177.7100  143.6200 O   0  0  0  0  0  1  0  0  0  0  0  0
  184.1530  179.6920  143.5240 C   0  0  0  0  0  2  0  0  0  0  0  0
  182.9150  179.4240  144.1090 O   0  0  0  0  0  0  0  0  0  0  0  0
  182.1350  178.9200  143.0640 C   0  0  0  0  0  1  0  0  0  0  0  0
  188.5980  178.1310  148.2640 C   0  0  0  0  0  3  0  0  0  0  0  0
  189.7440  178.0460  148.6740 O   0  0  0  0  0  0  0  0  0  0  0  0
  2  7  1  6  0  0  0
  2  8  1  0  0  0  0
  3  4  1  0  0  0  0
  4  5  2  0  0  0  0
  4 33  1  0  0  0  0
  6  2  1  0  0  0  0
  6 10  1  0  0  0  0
  7  9  1  0  0  0  0
  8  3  1  0  0  0  0
  8  1  1  1  0  0  0
  9 15  1  6  0  0  0
  9  3  1  0  0  0  0
 10 11  1  1  0  0  0
 10  1  1  0  0  0  0
 11 12  1  0  0  0  0
 12 13  1  0  0  0  0
 14 13  1  0  0  0  0
 16 15  1  0  0  0  0
 16 22  1  0  0  0  0
 17 26  1  0  0  0  0
 18 17  1  0  0  0  0
 19 27  2  0  0  0  0
 20 21  2  0  0  0  0
 21 22  1  0  0  0  0
 21 24  1  0  0  0  0
 22 25  2  0  0  0  0
 23 20  1  0  0  0  0
 23 17  2  0  0  0  0
 24 19  1  0  0  0  0
 25 27  1  0  0  0  0
 26 24  2  0  0  0  0
 27 28  1  0  0  0  0
 28 29  1  0  0  0  0
 28 30  2  0  0  0  0
 31 32  3  0  0  0  0
 32 29  1  0  0  0  0
 33 34  1  0  0  0  0
 34 37  1  0  0  0  0
 35 38  1  0  0  0  0
 36 38  2  0  0  0  0
 36 39  1  0  0  0  0
 37 40  1  0  0  0  0
 37 35  2  0  0  0  0
 39 41  1  0  0  0  0
 40 36  1  0  0  0  0
 42 41  1  6  0  0  0
 42 51  1  0  0  0  0
 44 43  2  0  0  0  0
 44 42  1  0  0  0  0
 45 43  1  0  0  0  0
 46 47  1  6  0  0  0
 46 45  1  0  0  0  0
 48 49  1  0  0  0  0
 48 46  1  0  0  0  0
 50 49  1  0  0  0  0
 51 52  2  0  0  0  0
M  END
>  <MODEL>
4

>  <REMARK>
 VINA RESULT:      -7.1      3.433      9.628
  Name = 
  19 active torsions:
  status: ('A' for Active; 'I' for Inactive)
    1  A    between atoms: N_1  and  N_40
    2  A    between atoms: N_1  and  C_42
    3  A    between atoms: O_2  and  C_38
    4  A    between atoms: C_4  and  O_8
    5  A    between atoms: C_5  and  C_51
    6  A    between atoms: C_7  and  C_21
    7  A    between atoms: C_7  and  C_22
    8  A    between atoms: O_8  and  C_47
    9  A    between atoms: C_9  and  C_23
   10  A    between atoms: C_16  and  C_22
   11  A    between atoms: N_19  and  C_48
   12  A    between atoms: C_23  and  C_26
   13  A    between atoms: N_24  and  CA_34
   14  A    between atoms: C_26  and  C_38
   15  A    between atoms: C_28  and  N_40
   16  A    between atoms: C_29  and  CA_34
   17  A    between atoms: C_29  and  N_41
   18  A    between atoms: C_32  and  CA_34
   19  A    between atoms: C_47  and  C_50
                            x       y       z     vdW  Elec       q    Type
                         _______ _______ _______ _____ _____    ______ ____

>  <TORSDO>
F 19

$$$$
=
 OpenBabel10232410193D

 52 56  0  0  1  0  0  0  0  0999 V2000
  186.6710  175.2680  137.2850 N   0  0  0  0  0  2  0  0  0  0  0  0
  188.1070  173.9470  136.0520 C   0  0  1  0  0  3  0  0  0  0  0  0
  188.9430  176.0020  136.4910 N   0  0  0  0  0  0  0  0  0  0  0  0
  188.9710  177.3490  136.9890 C   0  0  0  0  0  0  0  0  0  0  0  0
  189.7760  178.1800  136.4970 O   0  0  0  0  0  0  0  0  0  0  0  0
  186.5990  173.0240  135.8130 S   0  0  0  0  0  0  0  0  0  0  0  0
  189.2310  174.1040  135.0820 C   0  0  0  0  0  2  0  0  0  0  0  0
  187.9670  175.0130  136.7720 C   0  0  1  0  0  3  0  0  0  0  0  0
  189.8070  175.4940  135.4310 C   0  0  2  0  0  3  0  0  0  0  0  0
  185.7480  174.1880  136.9660 C   0  0  2  0  0  3  0  0  0  0  0  0
  184.4990  174.7600  136.3170 C   0  0  0  0  0  2  0  0  0  0  0  0
  184.6950  176.1090  136.0200 O   0  0  0  0  0  0  0  0  0  0  0  0
  183.4540  176.7040  136.2690 C   0  0  0  0  0  2  0  0  0  0  0  0
  183.3620  177.0830  137.7310 C   0  0  0  0  0  1  0  0  0  0  0  0
  191.1640  175.3520  135.9340 N   0  0  0  0  0  2  0  0  0  0  0  0
  191.4890  173.9900  135.8620 N   0  0  0  0  0  2  0  0  0  0  0  0
  194.0240  169.5810  135.4600 C   0  0  0  0  0  0  0  0  0  0  0  0
  194.4840  168.2010  135.1550 C   0  0  0  0  0  1  0  0  0  0  0  0
  195.1600  172.5350  137.3050 N   0  0  0  0  0  0  0  0  0  0  0  0
  192.3620  171.3330  135.2500 C   0  0  0  0  0  3  0  0  0  0  0  0
  193.1500  172.1840  136.0390 C   0  0  0  0  0  0  0  0  0  0  0  0
  192.7390  173.4910  136.3460 C   0  0  0  0  0  0  0  0  0  0  0  0
  192.7980  170.0350  134.9630 C   0  0  0  0  0  3  0  0  0  0  0  0
  194.3870  171.7200  136.5400 C   0  0  0  0  0  0  0  0  0  0  0  0
  193.5650  174.3000  137.1350 C   0  0  0  0  0  3  0  0  0  0  0  0
  194.8160  170.4210  136.2480 C   0  0  0  0  0  3  0  0  0  0  0  0
  194.7830  173.8080  137.6210 C   0  0  0  0  0  0  0  0  0  0  0  0
  195.6930  174.6450  138.4370 C   0  0  0  0  0  0  0  0  0  0  0  0
  197.0840  174.8480  138.1270 N   0  0  0  0  0  2  0  0  0  0  0  0
  195.2240  175.2120  139.4600 O   0  0  0  0  0  0  0  0  0  0  0  0
  198.2610  174.1500  135.9050 C   0  0  0  0  0  3  0  0  0  0  0  0
  197.7160  174.4760  136.9310 C   0  0  0  0  0  0  0  0  0  0  0  0
  188.0810  177.7800  138.1120 C   0  0  0  0  0  2  0  0  0  0  0  0
  188.8920  178.4140  139.2340 C   0  0  0  0  0  2  0  0  0  0  0  0
  188.9120  177.3700  141.5140 N   0  0  0  0  0  0  0  0  0  0  0  0
  187.0200  177.9140  142.5810 C   0  0  0  0  0  0  0  0  0  0  0  0
  188.2950  178.1110  140.5680 C   0  0  0  0  0  0  0  0  0  0  0  0
  188.2000  177.2570  142.6370 N   0  0  0  0  0  0  0  0  0  0  0  0
  186.0890  177.9760  143.6640 N   0  0  0  0  0  2  0  0  0  0  0  0
  186.7980  178.6800  141.1000 S   0  0  0  0  0  0  0  0  0  0  0  0
  186.3590  177.3490  144.9520 C   0  0  0  0  0  2  0  0  0  0  0  0
  186.8940  178.3560  145.9750 C   0  0  2  0  0  3  0  0  0  0  0  0
  188.9640  177.2970  146.4390 C   0  0  0  0  0  3  0  0  0  0  0  0
  187.8450  177.7500  146.8750 N   0  0  0  0  0  0  0  0  0  0  0  0
  189.9530  176.6840  147.3810 C   0  0  0  0  0  2  0  0  0  0  0  0
  191.3650  176.7230  146.8050 C   0  0  1  0  0  3  0  0  0  0  0  0
  192.0690  175.6080  147.2570 O   0  0  0  0  0  1  0  0  0  0  0  0
  191.3330  176.7010  145.2820 C   0  0  0  0  0  2  0  0  0  0  0  0
  191.7080  177.9450  144.7730 O   0  0  0  0  0  0  0  0  0  0  0  0
  191.7650  177.7550  143.3890 C   0  0  0  0  0  1  0  0  0  0  0  0
  185.8000  179.0360  146.7420 C   0  0  0  0  0  3  0  0  0  0  0  0
  184.8430  178.4090  147.1650 O   0  0  0  0  0  0  0  0  0  0  0  0
  2  7  1  6  0  0  0
  2  8  1  0  0  0  0
  3  8  1  0  0  0  0
  3  4  1  0  0  0  0
  4 33  1  0  0  0  0
  5  4  2  0  0  0  0
  6  2  1  0  0  0  0
  6 10  1  0  0  0  0
  7  9  1  0  0  0  0
  8  1  1  6  0  0  0
  9 15  1  1  0  0  0
  9  3  1  0  0  0  0
 10 11  1  6  0  0  0
 10  1  1  0  0  0  0
 12 13  1  0  0  0  0
 12 11  1  0  0  0  0
 13 14  1  0  0  0  0
 16 15  1  0  0  0  0
 16 22  1  0  0  0  0
 17 26  1  0  0  0  0
 18 17  1  0  0  0  0
 19 27  2  0  0  0  0
 20 21  2  0  0  0  0
 21 22  1  0  0  0  0
 21 24  1  0  0  0  0
 22 25  2  0  0  0  0
 23 20  1  0  0  0  0
 23 17  2  0  0  0  0
 24 19  1  0  0  0  0
 25 27  1  0  0  0  0
 26 24  2  0  0  0  0
 27 28  1  0  0  0  0
 28 30  2  0  0  0  0
 29 28  1  0  0  0  0
 31 32  3  0  0  0  0
 32 29  1  0  0  0  0
 33 34  1  0  0  0  0
 34 37  1  0  0  0  0
 35 38  1  0  0  0  0
 36 38  2  0  0  0  0
 36 39  1  0  0  0  0
 37 40  1  0  0  0  0
 37 35  2  0  0  0  0
 39 41  1  0  0  0  0
 40 36  1  0  0  0  0
 42 41  1  6  0  0  0
 42 51  1  0  0  0  0
 42 44  1  0  0  0  0
 43 44  2  0  0  0  0
 43 45  1  0  0  0  0
 46 47  1  1  0  0  0
 46 45  1  0  0  0  0
 48 46  1  0  0  0  0
 49 48  1  0  0  0  0
 50 49  1  0  0  0  0
 51 52  2  0  0  0  0
M  END
>  <MODEL>
5

>  <REMARK>
 VINA RESULT:      -6.8      3.629     10.640
  Name = 
  19 active torsions:
  status: ('A' for Active; 'I' for Inactive)
    1  A    between atoms: N_1  and  N_40
    2  A    between atoms: N_1  and  C_42
    3  A    between atoms: O_2  and  C_38
    4  A    between atoms: C_4  and  O_8
    5  A    between atoms: C_5  and  C_51
    6  A    between atoms: C_7  and  C_21
    7  A    between atoms: C_7  and  C_22
    8  A    between atoms: O_8  and  C_47
    9  A    between atoms: C_9  and  C_23
   10  A    between atoms: C_16  and  C_22
   11  A    between atoms: N_19  and  C_48
   12  A    between atoms: C_23  and  C_26
   13  A    between atoms: N_24  and  CA_34
   14  A    between atoms: C_26  and  C_38
   15  A    between atoms: C_28  and  N_40
   16  A    between atoms: C_29  and  CA_34
   17  A    between atoms: C_29  and  N_41
   18  A    between atoms: C_32  and  CA_34
   19  A    between atoms: C_47  and  C_50
                            x       y       z     vdW  Elec       q    Type
                         _______ _______ _______ _____ _____    ______ ____

>  <TORSDO>
F 19

$$$$
=
 OpenBabel10232410193D

 52 56  0  0  1  0  0  0  0  0999 V2000
  188.3850  176.9890  143.7610 N   0  0  0  0  0  2  0  0  0  0  0  0
  186.2760  177.9050  143.9690 C   0  0  1  0  0  3  0  0  0  0  0  0
  187.0970  178.0300  141.8660 N   0  0  0  0  0  0  0  0  0  0  0  0
  188.0450  177.8880  140.7970 C   0  0  0  0  0  0  0  0  0  0  0  0
  187.9390  178.6040  139.7680 O   0  0  0  0  0  0  0  0  0  0  0  0
  186.7300  177.8460  145.6940 S   0  0  0  0  0  0  0  0  0  0  0  0
  185.4190  178.9270  143.2980 C   0  0  0  0  0  2  0  0  0  0  0  0
  187.1930  177.4710  143.1650 C   0  0  1  0  0  3  0  0  0  0  0  0
  185.9730  178.9600  141.8570 C   0  0  2  0  0  3  0  0  0  0  0  0
  188.2940  176.9910  145.2140 C   0  0  2  0  0  3  0  0  0  0  0  0
  189.4960  177.7140  145.7990 C   0  0  0  0  0  2  0  0  0  0  0  0
  190.6670  177.2510  145.1970 O   0  0  0  0  0  0  0  0  0  0  0  0
  191.4880  176.8870  146.2680 C   0  0  0  0  0  2  0  0  0  0  0  0
  190.6460  176.7190  147.5140 C   0  0  0  0  0  1  0  0  0  0  0  0
  184.9580  178.4910  140.9270 N   0  0  0  0  0  2  0  0  0  0  0  0
  184.7830  179.4980  139.9680 N   0  0  0  0  0  2  0  0  0  0  0  0
  183.2450  176.4900  136.1450 C   0  0  0  0  0  0  0  0  0  0  0  0
  183.0880  175.4360  135.1080 C   0  0  0  0  0  1  0  0  0  0  0  0
  181.5190  179.5010  137.3190 N   0  0  0  0  0  0  0  0  0  0  0  0
  184.4930  177.4510  137.9880 C   0  0  0  0  0  3  0  0  0  0  0  0
  183.5480  178.4810  138.0990 C   0  0  0  0  0  0  0  0  0  0  0  0
  183.6720  179.4910  139.0670 C   0  0  0  0  0  0  0  0  0  0  0  0
  184.3420  176.4600  137.0120 C   0  0  0  0  0  3  0  0  0  0  0  0
  182.4420  178.5080  137.2200 C   0  0  0  0  0  0  0  0  0  0  0  0
  182.6980  180.4940  139.1370 C   0  0  0  0  0  3  0  0  0  0  0  0
  182.2980  177.5130  136.2480 C   0  0  0  0  0  3  0  0  0  0  0  0
  181.6180  180.4950  138.2470 C   0  0  0  0  0  0  0  0  0  0  0  0
  180.5560  181.5270  138.3110 C   0  0  0  0  0  0  0  0  0  0  0  0
  180.1390  182.3150  137.1800 N   0  0  0  0  0  2  0  0  0  0  0  0
  179.9850  181.7270  139.4160 O   0  0  0  0  0  0  0  0  0  0  0  0
  180.8200  181.8810  134.6990 C   0  0  0  0  0  3  0  0  0  0  0  0
  180.5070  182.0850  135.8450 C   0  0  0  0  0  0  0  0  0  0  0  0
  189.1450  176.8760  140.8630 C   0  0  0  0  0  2  0  0  0  0  0  0
  190.5090  177.5540  140.8460 C   0  0  0  0  0  2  0  0  0  0  0  0
  190.7090  176.8150  138.4570 N   0  0  0  0  0  0  0  0  0  0  0  0
  192.8770  176.7110  137.9070 C   0  0  0  0  0  0  0  0  0  0  0  0
  191.2820  177.1780  139.6260 C   0  0  0  0  0  0  0  0  0  0  0  0
  191.5980  176.5520  137.4980 N   0  0  0  0  0  0  0  0  0  0  0  0
  194.0140  176.5230  137.0610 N   0  0  0  0  0  2  0  0  0  0  0  0
  192.9650  177.1940  139.5160 S   0  0  0  0  0  0  0  0  0  0  0  0
  193.8810  176.1690  135.6540 C   0  0  0  0  0  2  0  0  0  0  0  0
  195.1790  175.5860  135.0870 C   0  0  2  0  0  3  0  0  0  0  0  0
  195.9210  173.3580  134.7600 C   0  0  0  0  0  3  0  0  0  0  0  0
  195.4010  174.2350  135.5400 N   0  0  0  0  0  0  0  0  0  0  0  0
  196.1640  171.9620  135.2430 C   0  0  0  0  0  2  0  0  0  0  0  0
  195.3480  171.6580  136.4950 C   0  0  1  0  0  3  0  0  0  0  0  0
  194.9650  170.3180  136.4720 O   0  0  0  0  0  1  0  0  0  0  0  0
  196.1650  171.9160  137.7540 C   0  0  0  0  0  2  0  0  0  0  0  0
  195.3530  172.4410  138.7590 O   0  0  0  0  0  0  0  0  0  0  0  0
  195.8060  173.7530  138.9280 C   0  0  0  0  0  1  0  0  0  0  0  0
  196.3720  176.4440  135.3780 C   0  0  0  0  0  3  0  0  0  0  0  0
  197.2270  176.0870  136.1710 O   0  0  0  0  0  0  0  0  0  0  0  0
  1 10  1  0  0  0  0
  2  7  1  6  0  0  0
  2  6  1  0  0  0  0
  3  8  1  0  0  0  0
  4 33  1  0  0  0  0
  4  3  1  0  0  0  0
  5  4  2  0  0  0  0
  8  1  1  1  0  0  0
  8  2  1  0  0  0  0
  9 15  1  6  0  0  0
  9  3  1  0  0  0  0
  9  7  1  0  0  0  0
 10  6  1  0  0  0  0
 10 11  1  1  0  0  0
 12 11  1  0  0  0  0
 12 13  1  0  0  0  0
 13 14  1  0  0  0  0
 16 15  1  0  0  0  0
 17 26  2  0  0  0  0
 17 23  1  0  0  0  0
 18 17  1  0  0  0  0
 19 27  1  0  0  0  0
 20 21  1  0  0  0  0
 21 22  2  0  0  0  0
 22 25  1  0  0  0  0
 22 16  1  0  0  0  0
 23 20  2  0  0  0  0
 24 19  2  0  0  0  0
 24 21  1  0  0  0  0
 26 24  1  0  0  0  0
 27 28  1  0  0  0  0
 27 25  2  0  0  0  0
 28 30  2  0  0  0  0
 29 28  1  0  0  0  0
 31 32  3  0  0  0  0
 32 29  1  0  0  0  0
 34 33  1  0  0  0  0
 35 37  2  0  0  0  0
 36 40  1  0  0  0  0
 37 34  1  0  0  0  0
 38 36  2  0  0  0  0
 38 35  1  0  0  0  0
 39 36  1  0  0  0  0
 40 37  1  0  0  0  0
 41 39  1  0  0  0  0
 42 51  1  1  0  0  0
 42 44  1  0  0  0  0
 42 41  1  0  0  0  0
 43 45  1  0  0  0  0
 43 44  2  0  0  0  0
 45 46  1  0  0  0  0
 46 47  1  6  0  0  0
 46 48  1  0  0  0  0
 48 49  1  0  0  0  0
 49 50  1  0  0  0  0
 51 52  2  0  0  0  0
M  END
>  <MODEL>
6

>  <REMARK>
 VINA RESULT:      -6.8      4.315      9.871
  Name = 
  19 active torsions:
  status: ('A' for Active; 'I' for Inactive)
    1  A    between atoms: N_1  and  N_40
    2  A    between atoms: N_1  and  C_42
    3  A    between atoms: O_2  and  C_38
    4  A    between atoms: C_4  and  O_8
    5  A    between atoms: C_5  and  C_51
    6  A    between atoms: C_7  and  C_21
    7  A    between atoms: C_7  and  C_22
    8  A    between atoms: O_8  and  C_47
    9  A    between atoms: C_9  and  C_23
   10  A    between atoms: C_16  and  C_22
   11  A    between atoms: N_19  and  C_48
   12  A    between atoms: C_23  and  C_26
   13  A    between atoms: N_24  and  CA_34
   14  A    between atoms: C_26  and  C_38
   15  A    between atoms: C_28  and  N_40
   16  A    between atoms: C_29  and  CA_34
   17  A    between atoms: C_29  and  N_41
   18  A    between atoms: C_32  and  CA_34
   19  A    between atoms: C_47  and  C_50
                            x       y       z     vdW  Elec       q    Type
                         _______ _______ _______ _____ _____    ______ ____

>  <TORSDO>
F 19

$$$$
=
 OpenBabel10232410193D

 52 56  0  0  1  0  0  0  0  0999 V2000
  186.0240  175.5370  137.2920 N   0  0  0  0  0  2  0  0  0  0  0  0
  187.3700  174.9350  135.5160 C   0  0  1  0  0  3  0  0  0  0  0  0
  187.6960  177.0660  136.1970 N   0  0  0  0  0  0  0  0  0  0  0  0
  187.4900  178.2660  136.9580 C   0  0  0  0  0  0  0  0  0  0  0  0
  187.8680  179.3720  136.4940 O   0  0  0  0  0  0  0  0  0  0  0  0
  186.1680  173.6190  135.4190 S   0  0  0  0  0  0  0  0  0  0  0  0
  188.0940  175.5790  134.3800 C   0  0  0  0  0  2  0  0  0  0  0  0
  187.1470  175.7870  136.4640 C   0  0  1  0  0  3  0  0  0  0  0  0
  188.3390  177.0160  134.8890 C   0  0  2  0  0  3  0  0  0  0  0  0
  185.3830  174.2740  136.9560 C   0  0  2  0  0  3  0  0  0  0  0  0
  183.8960  174.4990  136.7380 C   0  0  0  0  0  2  0  0  0  0  0  0
  183.6880  175.1350  135.5130 O   0  0  0  0  0  0  0  0  0  0  0  0
  182.9290  176.2650  135.8310 C   0  0  0  0  0  2  0  0  0  0  0  0
  183.0980  177.3060  134.7460 C   0  0  0  0  0  1  0  0  0  0  0  0
  189.7670  177.2490  135.0370 N   0  0  0  0  0  2  0  0  0  0  0  0
  190.3130  176.0970  135.6220 N   0  0  0  0  0  2  0  0  0  0  0  0
  192.1060  177.2760  140.2510 C   0  0  0  0  0  0  0  0  0  0  0  0
  192.2920  177.6900  141.6660 C   0  0  0  0  0  1  0  0  0  0  0  0
  194.1180  176.1370  137.4090 N   0  0  0  0  0  0  0  0  0  0  0  0
  190.6480  176.8850  138.3540 C   0  0  0  0  0  3  0  0  0  0  0  0
  191.7510  176.5010  137.5770 C   0  0  0  0  0  0  0  0  0  0  0  0
  191.6040  176.1080  136.2370 C   0  0  0  0  0  0  0  0  0  0  0  0
  190.8260  177.2720  139.6870 C   0  0  0  0  0  3  0  0  0  0  0  0
  193.0410  176.5070  138.1510 C   0  0  0  0  0  0  0  0  0  0  0  0
  192.7380  175.7320  135.5070 C   0  0  0  0  0  3  0  0  0  0  0  0
  193.2120  176.8960  139.4840 C   0  0  0  0  0  3  0  0  0  0  0  0
  194.0040  175.7550  136.1040 C   0  0  0  0  0  0  0  0  0  0  0  0
  195.2210  175.3370  135.3690 C   0  0  0  0  0  0  0  0  0  0  0  0
  196.1290  176.2600  134.7400 N   0  0  0  0  0  2  0  0  0  0  0  0
  195.4760  174.1060  135.2880 O   0  0  0  0  0  0  0  0  0  0  0  0
  196.1090  178.8510  135.0530 C   0  0  0  0  0  3  0  0  0  0  0  0
  196.1220  177.6540  134.9060 C   0  0  0  0  0  0  0  0  0  0  0  0
  186.8620  178.2270  138.3160 C   0  0  0  0  0  2  0  0  0  0  0  0
  187.8510  178.6740  139.3840 C   0  0  0  0  0  2  0  0  0  0  0  0
  188.0830  177.7830  141.7170 N   0  0  0  0  0  0  0  0  0  0  0  0
  186.1600  178.1080  142.8150 C   0  0  0  0  0  0  0  0  0  0  0  0
  187.3400  178.3670  140.7530 C   0  0  0  0  0  0  0  0  0  0  0  0
  187.4260  177.6360  142.8680 N   0  0  0  0  0  0  0  0  0  0  0  0
  185.2580  178.0970  143.9250 N   0  0  0  0  0  2  0  0  0  0  0  0
  185.7890  178.7410  141.3020 S   0  0  0  0  0  0  0  0  0  0  0  0
  185.6510  177.5970  145.2360 C   0  0  0  0  0  2  0  0  0  0  0  0
  186.4160  178.6500  146.0440 C   0  0  2  0  0  3  0  0  0  0  0  0
  188.5620  177.6440  146.0960 C   0  0  0  0  0  3  0  0  0  0  0  0
  187.5400  178.0760  146.7420 N   0  0  0  0  0  0  0  0  0  0  0  0
  189.7320  177.0650  146.8270 C   0  0  0  0  0  2  0  0  0  0  0  0
  190.7860  176.5380  145.8590 C   0  0  1  0  0  3  0  0  0  0  0  0
  191.1180  177.5460  144.9560 O   0  0  0  0  0  1  0  0  0  0  0  0
  192.0440  176.1100  146.6030 C   0  0  0  0  0  2  0  0  0  0  0  0
  191.9790  176.5170  147.9360 O   0  0  0  0  0  0  0  0  0  0  0  0
  192.9820  175.7830  148.5770 C   0  0  0  0  0  1  0  0  0  0  0  0
  185.5330  179.4020  146.9930 C   0  0  0  0  0  3  0  0  0  0  0  0
  185.9840  179.9120  148.0050 O   0  0  0  0  0  0  0  0  0  0  0  0
  2  7  1  6  0  0  0
  2  8  1  0  0  0  0
  3  8  1  0  0  0  0
  3  4  1  0  0  0  0
  4 33  1  0  0  0  0
  5  4  2  0  0  0  0
  6  2  1  0  0  0  0
  6 10  1  0  0  0  0
  7  9  1  0  0  0  0
  8  1  1  6  0  0  0
  9 15  1  1  0  0  0
  9  3  1  0  0  0  0
 10 11  1  6  0  0  0
 10  1  1  0  0  0  0
 12 13  1  0  0  0  0
 12 11  1  0  0  0  0
 14 13  1  0  0  0  0
 15 16  1  0  0  0  0
 16 22  1  0  0  0  0
 17 18  1  0  0  0  0
 19 24  1  0  0  0  0
 20 23  2  0  0  0  0
 21 24  2  0  0  0  0
 21 20  1  0  0  0  0
 22 21  1  0  0  0  0
 23 17  1  0  0  0  0
 24 26  1  0  0  0  0
 25 27  1  0  0  0  0
 25 22  2  0  0  0  0
 26 17  2  0  0  0  0
 27 19  2  0  0  0  0
 28 27  1  0  0  0  0
 29 32  1  0  0  0  0
 29 28  1  0  0  0  0
 30 28  2  0  0  0  0
 32 31  3  0  0  0  0
 33 34  1  0  0  0  0
 34 37  1  0  0  0  0
 35 38  1  0  0  0  0
 36 38  2  0  0  0  0
 36 39  1  0  0  0  0
 37 40  1  0  0  0  0
 37 35  2  0  0  0  0
 39 41  1  0  0  0  0
 40 36  1  0  0  0  0
 42 41  1  1  0  0  0
 42 44  1  0  0  0  0
 42 51  1  0  0  0  0
 43 44  2  0  0  0  0
 43 45  1  0  0  0  0
 46 47  1  6  0  0  0
 46 48  1  0  0  0  0
 46 45  1  0  0  0  0
 48 49  1  0  0  0  0
 49 50  1  0  0  0  0
 51 52  2  0  0  0  0
M  END
>  <MODEL>
7

>  <REMARK>
 VINA RESULT:      -6.6      3.042     10.122
  Name = 
  19 active torsions:
  status: ('A' for Active; 'I' for Inactive)
    1  A    between atoms: N_1  and  N_40
    2  A    between atoms: N_1  and  C_42
    3  A    between atoms: O_2  and  C_38
    4  A    between atoms: C_4  and  O_8
    5  A    between atoms: C_5  and  C_51
    6  A    between atoms: C_7  and  C_21
    7  A    between atoms: C_7  and  C_22
    8  A    between atoms: O_8  and  C_47
    9  A    between atoms: C_9  and  C_23
   10  A    between atoms: C_16  and  C_22
   11  A    between atoms: N_19  and  C_48
   12  A    between atoms: C_23  and  C_26
   13  A    between atoms: N_24  and  CA_34
   14  A    between atoms: C_26  and  C_38
   15  A    between atoms: C_28  and  N_40
   16  A    between atoms: C_29  and  CA_34
   17  A    between atoms: C_29  and  N_41
   18  A    between atoms: C_32  and  CA_34
   19  A    between atoms: C_47  and  C_50
                            x       y       z     vdW  Elec       q    Type
                         _______ _______ _______ _____ _____    ______ ____

>  <TORSDO>
F 19

$$$$
=
 OpenBabel10232410193D

 52 56  0  0  1  0  0  0  0  0999 V2000
  193.7120  175.6590  136.6860 N   0  0  0  0  0  2  0  0  0  0  0  0
  192.7930  174.7770  134.7600 C   0  0  1  0  0  3  0  0  0  0  0  0
  191.2770  175.0870  136.4090 N   0  0  0  0  0  0  0  0  0  0  0  0
  190.7790  175.4300  137.7120 C   0  0  0  0  0  0  0  0  0  0  0  0
  189.6830  174.9560  138.1060 O   0  0  0  0  0  0  0  0  0  0  0  0
  194.5150  174.4510  134.4260 S   0  0  0  0  0  0  0  0  0  0  0  0
  191.6220  173.9490  134.3460 C   0  0  0  0  0  2  0  0  0  0  0  0
  192.5730  175.3490  135.9000 C   0  0  1  0  0  3  0  0  0  0  0  0
  190.5910  174.2110  135.4650 C   0  0  2  0  0  3  0  0  0  0  0  0
  194.9480  175.3460  135.9810 C   0  0  2  0  0  3  0  0  0  0  0  0
  195.8320  174.4810  136.8640 C   0  0  0  0  0  2  0  0  0  0  0  0
  195.4390  173.1450  136.7640 O   0  0  0  0  0  0  0  0  0  0  0  0
  195.6010  172.6370  138.0560 C   0  0  0  0  0  2  0  0  0  0  0  0
  196.0910  173.7370  138.9720 C   0  0  0  0  0  1  0  0  0  0  0  0
  189.4320  174.8980  134.9170 N   0  0  0  0  0  2  0  0  0  0  0  0
  188.3140  174.0940  135.1830 N   0  0  0  0  0  2  0  0  0  0  0  0
  183.8530  172.1520  136.7190 C   0  0  0  0  0  0  0  0  0  0  0  0
  182.6680  171.3010  137.0010 C   0  0  0  0  0  1  0  0  0  0  0  0
  185.0330  175.5610  137.3620 N   0  0  0  0  0  0  0  0  0  0  0  0
  186.0470  172.4330  135.7250 C   0  0  0  0  0  3  0  0  0  0  0  0
  186.0910  173.7580  136.1820 C   0  0  0  0  0  0  0  0  0  0  0  0
  187.1970  174.5850  135.9280 C   0  0  0  0  0  0  0  0  0  0  0  0
  184.9300  171.6330  135.9930 C   0  0  0  0  0  3  0  0  0  0  0  0
  185.0010  174.2780  136.9140 C   0  0  0  0  0  0  0  0  0  0  0  0
  187.1910  175.9000  136.4090 C   0  0  0  0  0  3  0  0  0  0  0  0
  183.8880  173.4730  137.1780 C   0  0  0  0  0  3  0  0  0  0  0  0
  186.0930  176.3870  137.1270 C   0  0  0  0  0  0  0  0  0  0  0  0
  186.0650  177.7640  137.6730 C   0  0  0  0  0  0  0  0  0  0  0  0
  184.8670  178.4200  138.1270 N   0  0  0  0  0  2  0  0  0  0  0  0
  187.1520  178.3990  137.7440 O   0  0  0  0  0  0  0  0  0  0  0  0
  182.5550  177.2640  138.4870 C   0  0  0  0  0  3  0  0  0  0  0  0
  183.6220  177.8010  138.3190 C   0  0  0  0  0  0  0  0  0  0  0  0
  191.5220  176.3740  138.6040 C   0  0  0  0  0  2  0  0  0  0  0  0
  190.5840  177.4200  139.1900 C   0  0  0  0  0  2  0  0  0  0  0  0
  191.7860  177.3900  141.3920 N   0  0  0  0  0  0  0  0  0  0  0  0
  190.2780  177.4770  143.0450 C   0  0  0  0  0  0  0  0  0  0  0  0
  190.6370  177.4150  140.6820 C   0  0  0  0  0  0  0  0  0  0  0  0
  191.5870  177.4220  142.7100 N   0  0  0  0  0  0  0  0  0  0  0  0
  189.8020  177.5520  144.3900 N   0  0  0  0  0  2  0  0  0  0  0  0
  189.2840  177.4850  141.6880 S   0  0  0  0  0  0  0  0  0  0  0  0
  190.7090  177.6090  145.5300 C   0  0  0  0  0  2  0  0  0  0  0  0
  190.4180  176.5010  146.5470 C   0  0  2  0  0  3  0  0  0  0  0  0
  188.5180  177.7970  147.1220 C   0  0  0  0  0  3  0  0  0  0  0  0
  189.3360  176.8570  147.4320 N   0  0  0  0  0  0  0  0  0  0  0  0
  187.3880  178.1510  148.0370 C   0  0  0  0  0  2  0  0  0  0  0  0
  186.1020  178.4040  147.2580 C   0  0  1  0  0  3  0  0  0  0  0  0
  185.9430  179.7770  147.0780 O   0  0  0  0  0  1  0  0  0  0  0  0
  186.1520  177.7320  145.8920 C   0  0  0  0  0  2  0  0  0  0  0  0
  185.7380  178.6210  144.9000 O   0  0  0  0  0  0  0  0  0  0  0  0
  186.1640  178.0360  143.7030 C   0  0  0  0  0  1  0  0  0  0  0  0
  191.6320  176.1040  147.3310 C   0  0  0  0  0  3  0  0  0  0  0  0
  192.3550  176.9430  147.8420 O   0  0  0  0  0  0  0  0  0  0  0  0
  2  7  1  1  0  0  0
  2  8  1  0  0  0  0
  3  4  1  0  0  0  0
  4  5  2  0  0  0  0
  4 33  1  0  0  0  0
  6  2  1  0  0  0  0
  6 10  1  0  0  0  0
  7  9  1  0  0  0  0
  8  3  1  0  0  0  0
  8  1  1  1  0  0  0
  9 15  1  6  0  0  0
  9  3  1  0  0  0  0
 10  1  1  0  0  0  0
 10 11  1  1  0  0  0
 12 11  1  0  0  0  0
 12 13  1  0  0  0  0
 13 14  1  0  0  0  0
 15 16  1  0  0  0  0
 16 22  1  0  0  0  0
 17 18  1  0  0  0  0
 17 26  1  0  0  0  0
 20 23  1  0  0  0  0
 20 21  2  0  0  0  0
 21 24  1  0  0  0  0
 22 21  1  0  0  0  0
 22 25  2  0  0  0  0
 23 17  2  0  0  0  0
 24 26  2  0  0  0  0
 24 19  1  0  0  0  0
 25 27  1  0  0  0  0
 27 19  2  0  0  0  0
 27 28  1  0  0  0  0
 28 30  2  0  0  0  0
 28 29  1  0  0  0  0
 29 32  1  0  0  0  0
 32 31  3  0  0  0  0
 33 34  1  0  0  0  0
 34 37  1  0  0  0  0
 35 38  1  0  0  0  0
 36 39  1  0  0  0  0
 37 35  2  0  0  0  0
 37 40  1  0  0  0  0
 38 36  2  0  0  0  0
 39 41  1  0  0  0  0
 40 36  1  0  0  0  0
 42 41  1  6  0  0  0
 42 51  1  0  0  0  0
 42 44  1  0  0  0  0
 43 44  2  0  0  0  0
 43 45  1  0  0  0  0
 46 47  1  6  0  0  0
 46 45  1  0  0  0  0
 48 46  1  0  0  0  0
 49 48  1  0  0  0  0
 50 49  1  0  0  0  0
 51 52  2  0  0  0  0
M  END
>  <MODEL>
8

>  <REMARK>
 VINA RESULT:      -6.5      3.071     10.156
  Name = 
  19 active torsions:
  status: ('A' for Active; 'I' for Inactive)
    1  A    between atoms: N_1  and  N_40
    2  A    between atoms: N_1  and  C_42
    3  A    between atoms: O_2  and  C_38
    4  A    between atoms: C_4  and  O_8
    5  A    between atoms: C_5  and  C_51
    6  A    between atoms: C_7  and  C_21
    7  A    between atoms: C_7  and  C_22
    8  A    between atoms: O_8  and  C_47
    9  A    between atoms: C_9  and  C_23
   10  A    between atoms: C_16  and  C_22
   11  A    between atoms: N_19  and  C_48
   12  A    between atoms: C_23  and  C_26
   13  A    between atoms: N_24  and  CA_34
   14  A    between atoms: C_26  and  C_38
   15  A    between atoms: C_28  and  N_40
   16  A    between atoms: C_29  and  CA_34
   17  A    between atoms: C_29  and  N_41
   18  A    between atoms: C_32  and  CA_34
   19  A    between atoms: C_47  and  C_50
                            x       y       z     vdW  Elec       q    Type
                         _______ _______ _______ _____ _____    ______ ____

>  <TORSDO>
F 19

$$$$
=
 OpenBabel10232410193D

 52 56  0  0  1  0  0  0  0  0999 V2000
  192.0210  175.2580  135.8260 N   0  0  0  0  0  2  0  0  0  0  0  0
  191.0250  173.3870  134.9120 C   0  0  1  0  0  3  0  0  0  0  0  0
  189.6800  174.5000  136.3490 N   0  0  0  0  0  0  0  0  0  0  0  0
  189.2900  175.4980  137.3050 C   0  0  0  0  0  0  0  0  0  0  0  0
  188.3270  175.2750  138.0830 O   0  0  0  0  0  0  0  0  0  0  0  0
  192.7260  173.0220  134.5180 S   0  0  0  0  0  0  0  0  0  0  0  0
  189.9470  172.4080  135.2430 C   0  0  0  0  0  2  0  0  0  0  0  0
  190.8570  174.4940  135.5610 C   0  0  1  0  0  3  0  0  0  0  0  0
  189.0240  173.2070  136.1890 C   0  0  2  0  0  3  0  0  0  0  0  0
  193.2010  174.6670  135.2080 C   0  0  2  0  0  3  0  0  0  0  0  0
  194.2960  174.5090  136.2500 C   0  0  0  0  0  2  0  0  0  0  0  0
  193.7610  173.9790  137.4240 O   0  0  0  0  0  0  0  0  0  0  0  0
  194.8770  173.6070  138.1790 C   0  0  0  0  0  2  0  0  0  0  0  0
  195.4270  172.2990  137.6540 C   0  0  0  0  0  1  0  0  0  0  0  0
  187.7220  173.3930  135.5670 N   0  0  0  0  0  2  0  0  0  0  0  0
  186.8040  172.6290  136.3000 N   0  0  0  0  0  2  0  0  0  0  0  0
  182.0620  170.8290  135.7480 C   0  0  0  0  0  0  0  0  0  0  0  0
  180.8450  170.0300  135.4480 C   0  0  0  0  0  1  0  0  0  0  0  0
  182.9570  174.0840  137.1720 N   0  0  0  0  0  0  0  0  0  0  0  0
  184.4750  171.0660  135.7270 C   0  0  0  0  0  3  0  0  0  0  0  0
  184.3610  172.3380  136.3080 C   0  0  0  0  0  0  0  0  0  0  0  0
  185.4920  173.1160  136.5990 C   0  0  0  0  0  0  0  0  0  0  0  0
  183.3270  170.3150  135.4470 C   0  0  0  0  0  3  0  0  0  0  0  0
  183.0800  172.8530  136.6090 C   0  0  0  0  0  0  0  0  0  0  0  0
  185.3230  174.3780  137.1810 C   0  0  0  0  0  3  0  0  0  0  0  0
  181.9380  172.0960  136.3260 C   0  0  0  0  0  3  0  0  0  0  0  0
  184.0400  174.8620  137.4620 C   0  0  0  0  0  0  0  0  0  0  0  0
  183.8260  176.1810  138.1020 C   0  0  0  0  0  0  0  0  0  0  0  0
  184.6170  177.3480  137.8100 N   0  0  0  0  0  2  0  0  0  0  0  0
  182.9000  176.2890  138.9500 O   0  0  0  0  0  0  0  0  0  0  0  0
  186.3250  177.5780  135.8500 C   0  0  0  0  0  3  0  0  0  0  0  0
  185.5360  177.4670  136.7560 C   0  0  0  0  0  0  0  0  0  0  0  0
  189.9860  176.8200  137.3760 C   0  0  0  0  0  2  0  0  0  0  0  0
  189.2130  177.7960  138.2530 C   0  0  0  0  0  2  0  0  0  0  0  0
  190.8980  177.4450  140.0770 N   0  0  0  0  0  0  0  0  0  0  0  0
  189.8750  177.6330  142.0590 C   0  0  0  0  0  0  0  0  0  0  0  0
  189.6280  177.6820  139.6820 C   0  0  0  0  0  0  0  0  0  0  0  0
  191.0370  177.4150  141.4030 N   0  0  0  0  0  0  0  0  0  0  0  0
  189.7610  177.6830  143.4830 N   0  0  0  0  0  2  0  0  0  0  0  0
  188.5920  177.8750  140.9990 S   0  0  0  0  0  0  0  0  0  0  0  0
  190.9170  177.5330  144.3570 C   0  0  0  0  0  2  0  0  0  0  0  0
  190.5360  176.9150  145.7070 C   0  0  2  0  0  3  0  0  0  0  0  0
  188.3630  177.2670  146.5870 C   0  0  0  0  0  3  0  0  0  0  0  0
  189.5530  177.7100  146.4000 N   0  0  0  0  0  0  0  0  0  0  0  0
  187.3530  178.0910  147.3220 C   0  0  0  0  0  2  0  0  0  0  0  0
  185.9840  178.0190  146.6520 C   0  0  1  0  0  3  0  0  0  0  0  0
  185.2590  179.1640  146.9770 O   0  0  0  0  0  1  0  0  0  0  0  0
  186.1230  177.9370  145.1380 C   0  0  0  0  0  2  0  0  0  0  0  0
  185.4250  178.9820  144.5320 O   0  0  0  0  0  0  0  0  0  0  0  0
  185.1120  178.5030  143.2560 C   0  0  0  0  0  1  0  0  0  0  0  0
  191.7260  176.6640  146.5820 C   0  0  0  0  0  3  0  0  0  0  0  0
  192.0200  175.5340  146.9370 O   0  0  0  0  0  0  0  0  0  0  0  0
  2  7  1  1  0  0  0
  2  8  1  0  0  0  0
  3  4  1  0  0  0  0
  4 33  1  0  0  0  0
  4  5  2  0  0  0  0
  6  2  1  0  0  0  0
  6 10  1  0  0  0  0
  7  9  1  0  0  0  0
  8  1  1  1  0  0  0
  8  3  1  0  0  0  0
  9 15  1  6  0  0  0
  9  3  1  0  0  0  0
 10  1  1  0  0  0  0
 10 11  1  1  0  0  0
 11 12  1  0  0  0  0
 12 13  1  0  0  0  0
 14 13  1  0  0  0  0
 15 16  1  0  0  0  0
 16 22  1  0  0  0  0
 17 26  1  0  0  0  0
 18 17  1  0  0  0  0
 19 27  2  0  0  0  0
 20 21  2  0  0  0  0
 21 22  1  0  0  0  0
 21 24  1  0  0  0  0
 22 25  2  0  0  0  0
 23 20  1  0  0  0  0
 23 17  2  0  0  0  0
 24 19  1  0  0  0  0
 25 27  1  0  0  0  0
 26 24  2  0  0  0  0
 27 28  1  0  0  0  0
 28 30  2  0  0  0  0
 29 28  1  0  0  0  0
 31 32  3  0  0  0  0
 32 29  1  0  0  0  0
 33 34  1  0  0  0  0
 34 37  1  0  0  0  0
 35 38  1  0  0  0  0
 36 39  1  0  0  0  0
 37 35  2  0  0  0  0
 37 40  1  0  0  0  0
 38 36  2  0  0  0  0
 39 41  1  0  0  0  0
 40 36  1  0  0  0  0
 42 41  1  6  0  0  0
 42 44  1  0  0  0  0
 42 51  1  0  0  0  0
 43 45  1  0  0  0  0
 44 43  2  0  0  0  0
 46 47  1  6  0  0  0
 46 45  1  0  0  0  0
 48 46  1  0  0  0  0
 49 48  1  0  0  0  0
 50 49  1  0  0  0  0
 51 52  2  0  0  0  0
M  END
>  <MODEL>
9

>  <REMARK>
 VINA RESULT:      -6.5      2.698     10.152
  Name = 
  19 active torsions:
  status: ('A' for Active; 'I' for Inactive)
    1  A    between atoms: N_1  and  N_40
    2  A    between atoms: N_1  and  C_42
    3  A    between atoms: O_2  and  C_38
    4  A    between atoms: C_4  and  O_8
    5  A    between atoms: C_5  and  C_51
    6  A    between atoms: C_7  and  C_21
    7  A    between atoms: C_7  and  C_22
    8  A    between atoms: O_8  and  C_47
    9  A    between atoms: C_9  and  C_23
   10  A    between atoms: C_16  and  C_22
   11  A    between atoms: N_19  and  C_48
   12  A    between atoms: C_23  and  C_26
   13  A    between atoms: N_24  and  CA_34
   14  A    between atoms: C_26  and  C_38
   15  A    between atoms: C_28  and  N_40
   16  A    between atoms: C_29  and  CA_34
   17  A    between atoms: C_29  and  N_41
   18  A    between atoms: C_32  and  CA_34
   19  A    between atoms: C_47  and  C_50
                            x       y       z     vdW  Elec       q    Type
                         _______ _______ _______ _____ _____    ______ ____

>  <TORSDO>
F 19

$$$$
