=
 OpenBabel10232407443D

 36 41  0  0  1  0  0  0  0  0999 V2000
  185.4230  178.9180  140.7560 C   0  0  0  0  0  0  0  0  0  0  0  0
  182.4750  181.1480  138.6130 C   0  0  0  0  0  3  0  0  0  0  0  0
  188.6600  178.0440  139.0560 C   0  0  0  0  0  0  0  0  0  0  0  0
  181.1400  179.1740  138.1740 C   0  0  0  0  0  0  0  0  0  0  0  0
  180.8960  177.7960  138.0880 O   0  0  0  0  0  0  0  0  0  0  0  0
  182.3790  179.7460  138.5810 C   0  0  0  0  0  0  0  0  0  0  0  0
  184.0610  177.8090  138.2070 C   0  0  0  0  0  0  0  0  0  0  0  0
  188.0940  178.2160  140.7460 S   0  0  0  0  0  0  0  0  0  0  0  0
  181.8320  176.7600  138.3510 C   0  0  2  0  0  3  0  0  0  0  0  0
  183.5830  178.9750  139.0020 C   0  0  0  0  0  0  0  0  0  0  0  0
  183.0860  176.9260  137.5080 C   0  0  1  0  0  3  0  0  0  0  0  0
  180.2090  181.3520  137.8670 C   0  0  0  0  0  3  0  0  0  0  0  0
  186.4450  178.4090  140.0570 C   0  0  0  0  0  0  0  0  0  0  0  0
  186.3920  178.1840  138.6530 N   0  0  0  0  0  0  0  0  0  0  0  0
  185.3180  177.5350  138.0290 N   0  0  0  0  0  0  0  0  0  0  0  0
  181.1910  175.4200  138.0540 C   0  0  0  0  0  1  0  0  0  0  0  0
  187.7030  178.0120  138.1380 C   0  0  0  0  0  3  0  0  0  0  0  0
  180.1110  179.9990  137.8350 N   0  0  0  0  0  0  0  0  0  0  0  0
  182.7950  177.4200  136.2340 O   0  0  0  0  0  1  0  0  0  0  0  0
  181.3990  181.9530  138.2560 C   0  0  0  0  0  3  0  0  0  0  0  0
  184.1810  179.3890  140.1260 C   0  0  0  0  0  3  0  0  0  0  0  0
  190.1070  177.9450  138.7140 C   0  0  0  0  0  2  0  0  0  0  0  0
  190.7820  176.8770  139.5540 C   0  0  0  0  0  2  0  0  0  0  0  0
  191.6680  177.3480  141.8110 C   0  0  0  0  0  1  0  0  0  0  0  0
  191.9270  177.4930  140.3270 C   0  0  0  0  0  2  0  0  0  0  0  0
  185.5830  179.2460  142.2060 C   0  0  0  0  0  2  0  0  0  0  0  0
  184.9020  178.1920  143.0620 C   0  0  0  0  0  2  0  0  0  0  0  0
  183.6900  179.5740  144.5710 O   0  0  0  0  0  0  0  0  0  0  0  0
  184.6300  178.7520  144.4190 C   0  0  0  0  0  0  0  0  0  0  0  0
  185.4520  178.4060  145.5370 N   0  0  0  0  0  2  0  0  0  0  0  0
  186.5200  177.4230  145.4350 C   0  0  0  0  0  2  0  0  0  0  0  0
  188.3640  177.8400  147.0940 C   0  0  0  0  0  2  0  0  0  0  0  0
  188.8980  177.7060  144.6520 C   0  0  1  0  0  3  0  0  0  0  0  0
  188.8420  176.9560  145.9650 C   0  0  2  0  0  3  0  0  0  0  0  0
  187.8590  178.0830  145.6880 C   0  0  2  0  0  0  0  0  0  0  0  0
  189.9450  178.6270  144.6820 O   0  0  0  0  0  1  0  0  0  0  0  0
  1 26  1  0  0  0  0
  3  8  1  0  0  0  0
  4  6  1  0  0  0  0
  5  4  1  0  0  0  0
  5  9  1  0  0  0  0
  6  2  2  0  0  0  0
  6 10  1  0  0  0  0
  7 10  1  0  0  0  0
  9 16  1  6  0  0  0
 10 21  2  0  0  0  0
 11 19  1  6  0  0  0
 11  7  1  0  0  0  0
 11  9  1  0  0  0  0
 12 20  2  0  0  0  0
 13  8  1  0  0  0  0
 13  1  2  0  0  0  0
 14 13  1  0  0  0  0
 15  7  2  0  0  0  0
 15 14  1  0  0  0  0
 17 14  1  0  0  0  0
 17  3  2  0  0  0  0
 18 12  1  0  0  0  0
 18  4  2  0  0  0  0
 20  2  1  0  0  0  0
 21  1  1  0  0  0  0
 22  3  1  0  0  0  0
 22 23  1  0  0  0  0
 23 25  1  0  0  0  0
 25 24  1  0  0  0  0
 26 27  1  0  0  0  0
 27 29  1  0  0  0  0
 29 28  2  0  0  0  0
 29 30  1  0  0  0  0
 31 30  1  0  0  0  0
 33 36  1  1  0  0  0
 33 35  1  0  0  0  0
 33 34  1  0  0  0  0
 34 32  1  1  0  0  0
 35 31  1  6  0  0  0
 35 34  1  0  0  0  0
 35 32  1  0  0  0  0
M  END
>  <MODEL>
1

>  <REMARK>
 VINA RESULT:      -7.7      0.000      0.000
  Name = 
  8 active torsions:
  status: ('A' for Active; 'I' for Inactive)
    1  A    between atoms: C_1  and  C_33
    2  A    between atoms: C_3  and  C_12
    3  A    between atoms: C_12  and  C_22
    4  A    between atoms: C_16  and  C_26
    5  A    between atoms: C_16  and  N_31
    6  A    between atoms: C_22  and  C_23
    7  A    between atoms: C_24  and  C_34
    8  A    between atoms: C_33  and  C_34
                            x       y       z     vdW  Elec       q    Type
                         _______ _______ _______ _____ _____    ______ ____

>  <TORSDO>
F 8

$$$$
=
 OpenBabel10232407443D

 36 41  0  0  1  0  0  0  0  0999 V2000
  185.3740  178.6150  141.6440 C   0  0  0  0  0  0  0  0  0  0  0  0
  183.0760  175.9920  139.1760 C   0  0  0  0  0  3  0  0  0  0  0  0
  184.7850  178.6300  145.3570 C   0  0  0  0  0  0  0  0  0  0  0  0
  181.6190  177.7810  138.4390 C   0  0  0  0  0  0  0  0  0  0  0  0
  181.0440  179.0590  138.4930 O   0  0  0  0  0  0  0  0  0  0  0  0
  182.5970  177.3010  139.3550 C   0  0  0  0  0  0  0  0  0  0  0  0
  182.3000  178.8720  141.3950 C   0  0  0  0  0  0  0  0  0  0  0  0
  186.1240  179.0880  144.2600 S   0  0  0  0  0  0  0  0  0  0  0  0
  181.3080  180.0560  139.4700 C   0  0  2  0  0  3  0  0  0  0  0  0
  183.1760  178.0860  140.4820 C   0  0  0  0  0  0  0  0  0  0  0  0
  181.0670  179.5260  140.8750 C   0  0  1  0  0  3  0  0  0  0  0  0
  181.6580  175.6990  137.2690 C   0  0  0  0  0  3  0  0  0  0  0  0
  184.9760  178.7830  142.9110 C   0  0  0  0  0  0  0  0  0  0  0  0
  183.6490  178.5150  143.3510 N   0  0  0  0  0  0  0  0  0  0  0  0
  182.5160  178.9820  142.6720 N   0  0  0  0  0  0  0  0  0  0  0  0
  180.4160  181.2530  139.2170 C   0  0  0  0  0  1  0  0  0  0  0  0
  183.6180  178.4110  144.7660 C   0  0  0  0  0  3  0  0  0  0  0  0
  181.1920  176.9620  137.4380 N   0  0  0  0  0  0  0  0  0  0  0  0
  179.9820  178.6460  140.9190 O   0  0  0  0  0  1  0  0  0  0  0  0
  182.6110  175.1890  138.1410 C   0  0  0  0  0  3  0  0  0  0  0  0
  184.5090  178.0430  140.6040 C   0  0  0  0  0  3  0  0  0  0  0  0
  184.9770  178.5070  146.8290 C   0  0  0  0  0  2  0  0  0  0  0  0
  186.3810  178.9280  147.2210 C   0  0  0  0  0  2  0  0  0  0  0  0
  188.3050  178.0590  148.5050 C   0  0  0  0  0  1  0  0  0  0  0  0
  187.2090  177.6980  147.5240 C   0  0  0  0  0  2  0  0  0  0  0  0
  186.8110  178.7950  141.2700 C   0  0  0  0  0  2  0  0  0  0  0  0
  187.6310  177.6060  141.7420 C   0  0  0  0  0  2  0  0  0  0  0  0
  189.1730  178.2230  140.0410 O   0  0  0  0  0  0  0  0  0  0  0  0
  189.0060  177.6900  141.1690 C   0  0  0  0  0  0  0  0  0  0  0  0
  190.1270  177.1330  141.8580 N   0  0  0  0  0  2  0  0  0  0  0  0
  190.0050  176.5520  143.1870 C   0  0  0  0  0  2  0  0  0  0  0  0
  190.7060  178.7840  144.1100 C   0  0  0  0  0  2  0  0  0  0  0  0
  190.7930  176.7530  145.5720 C   0  0  1  0  0  3  0  0  0  0  0  0
  189.9870  177.9660  145.1600 C   0  0  2  0  0  3  0  0  0  0  0  0
  190.9070  177.2840  144.1580 C   0  0  2  0  0  0  0  0  0  0  0  0
  191.9010  177.1580  146.3160 O   0  0  0  0  0  1  0  0  0  0  0  0
  1 13  2  0  0  0  0
  2  6  2  0  0  0  0
  3 22  1  0  0  0  0
  4  5  1  0  0  0  0
  4  6  1  0  0  0  0
  5  9  1  0  0  0  0
  6 10  1  0  0  0  0
  7 15  2  0  0  0  0
  8  3  1  0  0  0  0
  9 16  1  6  0  0  0
  9 11  1  0  0  0  0
 10 21  2  0  0  0  0
 10  7  1  0  0  0  0
 11 19  1  6  0  0  0
 11  7  1  0  0  0  0
 12 18  1  0  0  0  0
 12 20  2  0  0  0  0
 13 14  1  0  0  0  0
 13  8  1  0  0  0  0
 14 17  1  0  0  0  0
 15 14  1  0  0  0  0
 17  3  2  0  0  0  0
 18  4  2  0  0  0  0
 20  2  1  0  0  0  0
 21  1  1  0  0  0  0
 22 23  1  0  0  0  0
 23 25  1  0  0  0  0
 25 24  1  0  0  0  0
 26  1  1  0  0  0  0
 26 27  1  0  0  0  0
 28 29  2  0  0  0  0
 29 27  1  0  0  0  0
 29 30  1  0  0  0  0
 30 31  1  0  0  0  0
 32 35  1  0  0  0  0
 33 36  1  1  0  0  0
 34 32  1  1  0  0  0
 34 33  1  0  0  0  0
 35 31  1  6  0  0  0
 35 34  1  0  0  0  0
 35 33  1  0  0  0  0
M  END
>  <MODEL>
2

>  <REMARK>
 VINA RESULT:      -7.4      2.458      5.157
  Name = 
  8 active torsions:
  status: ('A' for Active; 'I' for Inactive)
    1  A    between atoms: C_1  and  C_33
    2  A    between atoms: C_3  and  C_12
    3  A    between atoms: C_12  and  C_22
    4  A    between atoms: C_16  and  C_26
    5  A    between atoms: C_16  and  N_31
    6  A    between atoms: C_22  and  C_23
    7  A    between atoms: C_24  and  C_34
    8  A    between atoms: C_33  and  C_34
                            x       y       z     vdW  Elec       q    Type
                         _______ _______ _______ _____ _____    ______ ____

>  <TORSDO>
F 8

$$$$
=
 OpenBabel10232407443D

 36 41  0  0  1  0  0  0  0  0999 V2000
  185.4560  178.6880  140.7310 C   0  0  0  0  0  0  0  0  0  0  0  0
  183.4940  176.0680  137.9850 C   0  0  0  0  0  3  0  0  0  0  0  0
  184.3450  178.7490  144.3220 C   0  0  0  0  0  0  0  0  0  0  0  0
  182.1810  177.8670  137.0330 C   0  0  0  0  0  0  0  0  0  0  0  0
  181.6230  179.1530  136.9940 O   0  0  0  0  0  0  0  0  0  0  0  0
  183.0130  177.3850  138.0830 C   0  0  0  0  0  0  0  0  0  0  0  0
  182.4510  178.9810  140.0470 C   0  0  0  0  0  0  0  0  0  0  0  0
  185.8330  179.1780  143.4230 S   0  0  0  0  0  0  0  0  0  0  0  0
  181.7590  180.1570  137.9900 C   0  0  2  0  0  3  0  0  0  0  0  0
  183.4370  178.1740  139.2740 C   0  0  0  0  0  0  0  0  0  0  0  0
  181.3140  179.6450  139.3510 C   0  0  1  0  0  3  0  0  0  0  0  0
  182.3570  175.7730  135.8990 C   0  0  0  0  0  3  0  0  0  0  0  0
  184.8830  178.8730  141.9280 C   0  0  0  0  0  0  0  0  0  0  0  0
  183.5040  178.6270  142.1770 N   0  0  0  0  0  0  0  0  0  0  0  0
  182.4850  179.1010  141.3400 N   0  0  0  0  0  0  0  0  0  0  0  0
  180.9280  181.3620  137.6020 C   0  0  0  0  0  1  0  0  0  0  0  0
  183.2710  178.5380  143.5740 C   0  0  0  0  0  3  0  0  0  0  0  0
  181.8900  177.0440  135.9880 N   0  0  0  0  0  0  0  0  0  0  0  0
  180.2210  178.7780  139.2480 O   0  0  0  0  0  1  0  0  0  0  0  0
  183.1700  175.2600  136.9010 C   0  0  0  0  0  3  0  0  0  0  0  0
  184.7380  178.1150  139.5840 C   0  0  0  0  0  3  0  0  0  0  0  0
  184.3250  178.6390  145.8080 C   0  0  0  0  0  2  0  0  0  0  0  0
  185.7030  178.9120  146.3820 C   0  0  0  0  0  2  0  0  0  0  0  0
  187.8970  177.7780  146.3170 C   0  0  0  0  0  1  0  0  0  0  0  0
  186.4230  177.6000  146.6100 C   0  0  0  0  0  2  0  0  0  0  0  0
  186.9330  178.8450  140.5630 C   0  0  0  0  0  2  0  0  0  0  0  0
  187.4190  178.0260  139.3790 C   0  0  0  0  0  2  0  0  0  0  0  0
  188.9600  179.4000  138.2000 O   0  0  0  0  0  0  0  0  0  0  0  0
  188.8010  178.4530  139.0130 C   0  0  0  0  0  0  0  0  0  0  0  0
  189.9450  177.7720  139.5330 N   0  0  0  0  0  2  0  0  0  0  0  0
  189.8270  176.7050  140.5160 C   0  0  0  0  0  2  0  0  0  0  0  0
  188.9950  176.6880  142.8890 C   0  0  0  0  0  2  0  0  0  0  0  0
  191.4150  177.1270  142.4260 C   0  0  1  0  0  3  0  0  0  0  0  0
  190.3800  176.0880  142.7970 C   0  0  2  0  0  3  0  0  0  0  0  0
  189.9970  177.2650  141.9120 C   0  0  2  0  0  0  0  0  0  0  0  0
  191.6120  177.9980  143.4980 O   0  0  0  0  0  1  0  0  0  0  0  0
  1 13  2  0  0  0  0
  2  6  2  0  0  0  0
  3 22  1  0  0  0  0
  4  6  1  0  0  0  0
  5  4  1  0  0  0  0
  5  9  1  0  0  0  0
  6 10  1  0  0  0  0
  7 15  2  0  0  0  0
  8  3  1  0  0  0  0
  9 16  1  6  0  0  0
  9 11  1  0  0  0  0
 10 21  2  0  0  0  0
 10  7  1  0  0  0  0
 11 19  1  6  0  0  0
 11  7  1  0  0  0  0
 12 18  1  0  0  0  0
 12 20  2  0  0  0  0
 13 14  1  0  0  0  0
 13  8  1  0  0  0  0
 14 17  1  0  0  0  0
 15 14  1  0  0  0  0
 17  3  2  0  0  0  0
 18  4  2  0  0  0  0
 20  2  1  0  0  0  0
 21  1  1  0  0  0  0
 22 23  1  0  0  0  0
 23 25  1  0  0  0  0
 24 25  1  0  0  0  0
 26  1  1  0  0  0  0
 27 26  1  0  0  0  0
 28 29  2  0  0  0  0
 29 27  1  0  0  0  0
 29 30  1  0  0  0  0
 30 31  1  0  0  0  0
 33 34  1  0  0  0  0
 33 36  1  1  0  0  0
 34 32  1  1  0  0  0
 35 31  1  6  0  0  0
 35 33  1  0  0  0  0
 35 34  1  0  0  0  0
 35 32  1  0  0  0  0
M  END
>  <MODEL>
3

>  <REMARK>
 VINA RESULT:      -7.3      2.219      5.160
  Name = 
  8 active torsions:
  status: ('A' for Active; 'I' for Inactive)
    1  A    between atoms: C_1  and  C_33
    2  A    between atoms: C_3  and  C_12
    3  A    between atoms: C_12  and  C_22
    4  A    between atoms: C_16  and  C_26
    5  A    between atoms: C_16  and  N_31
    6  A    between atoms: C_22  and  C_23
    7  A    between atoms: C_24  and  C_34
    8  A    between atoms: C_33  and  C_34
                            x       y       z     vdW  Elec       q    Type
                         _______ _______ _______ _____ _____    ______ ____

>  <TORSDO>
F 8

$$$$
=
 OpenBabel10232407443D

 36 41  0  0  1  0  0  0  0  0999 V2000
  191.0690  176.1400  138.4580 C   0  0  0  0  0  0  0  0  0  0  0  0
  188.5830  173.0600  136.8500 C   0  0  0  0  0  3  0  0  0  0  0  0
  190.2330  177.6090  141.8160 C   0  0  0  0  0  0  0  0  0  0  0  0
  187.4610  174.5950  135.3490 C   0  0  0  0  0  0  0  0  0  0  0  0
  187.0800  175.8570  134.8690 O   0  0  0  0  0  0  0  0  0  0  0  0
  188.2920  174.3860  136.4860 C   0  0  0  0  0  0  0  0  0  0  0  0
  188.0910  176.6290  137.7700 C   0  0  0  0  0  0  0  0  0  0  0  0
  191.6980  177.4700  140.7960 S   0  0  0  0  0  0  0  0  0  0  0  0
  187.4210  177.1100  135.4440 C   0  0  2  0  0  3  0  0  0  0  0  0
  188.9010  175.4650  137.3140 C   0  0  0  0  0  0  0  0  0  0  0  0
  187.0070  177.1750  136.9060 C   0  0  1  0  0  3  0  0  0  0  0  0
  187.2710  172.2370  135.0240 C   0  0  0  0  0  3  0  0  0  0  0  0
  190.6130  176.8130  139.5230 C   0  0  0  0  0  0  0  0  0  0  0  0
  189.2340  176.8800  139.8680 N   0  0  0  0  0  0  0  0  0  0  0  0
  188.2320  177.1840  138.9360 N   0  0  0  0  0  0  0  0  0  0  0  0
  186.7350  178.2180  134.6710 C   0  0  0  0  0  1  0  0  0  0  0  0
  189.0900  177.3170  141.2100 C   0  0  0  0  0  3  0  0  0  0  0  0
  186.9880  173.5150  134.6680 N   0  0  0  0  0  0  0  0  0  0  0  0
  185.8030  176.5030  137.1360 O   0  0  0  0  0  1  0  0  0  0  0  0
  188.0760  171.9860  136.1280 C   0  0  0  0  0  3  0  0  0  0  0  0
  190.2010  175.3210  137.6000 C   0  0  0  0  0  3  0  0  0  0  0  0
  190.3040  178.0250  143.2460 C   0  0  0  0  0  2  0  0  0  0  0  0
  189.7060  176.9570  144.1420 C   0  0  0  0  0  2  0  0  0  0  0  0
  187.2970  177.2470  144.6080 C   0  0  0  0  0  1  0  0  0  0  0  0
  188.6960  177.5900  145.0750 C   0  0  0  0  0  2  0  0  0  0  0  0
  192.5380  176.0050  138.2180 C   0  0  0  0  0  2  0  0  0  0  0  0
  192.8170  174.8170  137.3120 C   0  0  0  0  0  2  0  0  0  0  0  0
  192.8990  176.1640  135.3540 O   0  0  0  0  0  0  0  0  0  0  0  0
  193.4700  175.2910  136.0570 C   0  0  0  0  0  0  0  0  0  0  0  0
  194.7110  174.7330  135.6170 N   0  0  0  0  0  2  0  0  0  0  0  0
  195.4450  173.7600  136.4120 C   0  0  0  0  0  2  0  0  0  0  0  0
  195.9070  173.8870  138.8810 C   0  0  0  0  0  2  0  0  0  0  0  0
  197.7010  174.5070  137.2500 C   0  0  1  0  0  3  0  0  0  0  0  0
  197.1290  173.4150  138.1260 C   0  0  2  0  0  3  0  0  0  0  0  0
  196.2100  174.4620  137.5140 C   0  0  2  0  0  0  0  0  0  0  0  0
  198.2890  175.4880  138.0470 O   0  0  0  0  0  1  0  0  0  0  0  0
  1 13  2  0  0  0  0
  3 22  1  0  0  0  0
  4  6  1  0  0  0  0
  5  4  1  0  0  0  0
  5  9  1  0  0  0  0
  6  2  2  0  0  0  0
  6 10  1  0  0  0  0
  7 15  2  0  0  0  0
  8  3  1  0  0  0  0
  9 16  1  6  0  0  0
  9 11  1  0  0  0  0
 10 21  2  0  0  0  0
 10  7  1  0  0  0  0
 11 19  1  6  0  0  0
 11  7  1  0  0  0  0
 12 20  2  0  0  0  0
 13 14  1  0  0  0  0
 13  8  1  0  0  0  0
 14 17  1  0  0  0  0
 15 14  1  0  0  0  0
 17  3  2  0  0  0  0
 18 12  1  0  0  0  0
 18  4  2  0  0  0  0
 20  2  1  0  0  0  0
 21  1  1  0  0  0  0
 22 23  1  0  0  0  0
 23 25  1  0  0  0  0
 24 25  1  0  0  0  0
 26  1  1  0  0  0  0
 27 26  1  0  0  0  0
 28 29  2  0  0  0  0
 29 27  1  0  0  0  0
 30 29  1  0  0  0  0
 30 31  1  0  0  0  0
 33 35  1  0  0  0  0
 33 36  1  1  0  0  0
 33 34  1  0  0  0  0
 34 32  1  1  0  0  0
 35 31  1  6  0  0  0
 35 34  1  0  0  0  0
 35 32  1  0  0  0  0
M  END
>  <MODEL>
4

>  <REMARK>
 VINA RESULT:      -6.8      4.891      8.722
  Name = 
  8 active torsions:
  status: ('A' for Active; 'I' for Inactive)
    1  A    between atoms: C_1  and  C_33
    2  A    between atoms: C_3  and  C_12
    3  A    between atoms: C_12  and  C_22
    4  A    between atoms: C_16  and  C_26
    5  A    between atoms: C_16  and  N_31
    6  A    between atoms: C_22  and  C_23
    7  A    between atoms: C_24  and  C_34
    8  A    between atoms: C_33  and  C_34
                            x       y       z     vdW  Elec       q    Type
                         _______ _______ _______ _____ _____    ______ ____

>  <TORSDO>
F 8

$$$$
=
 OpenBabel10232407443D

 36 41  0  0  1  0  0  0  0  0999 V2000
  186.9620  176.6010  137.4000 C   0  0  0  0  0  0  0  0  0  0  0  0
  190.0220  176.9340  140.3640 C   0  0  0  0  0  3  0  0  0  0  0  0
  185.2150  173.3060  136.9270 C   0  0  0  0  0  0  0  0  0  0  0  0
  191.7900  176.7950  138.7140 C   0  0  0  0  0  0  0  0  0  0  0  0
  192.3350  176.5180  137.4510 O   0  0  0  0  0  0  0  0  0  0  0  0
  190.4180  176.6180  139.0530 C   0  0  0  0  0  0  0  0  0  0  0  0
  189.5830  174.9620  137.2420 C   0  0  0  0  0  0  0  0  0  0  0  0
  184.8470  175.0240  136.5840 S   0  0  0  0  0  0  0  0  0  0  0  0
  191.6340  175.9920  136.3330 C   0  0  2  0  0  3  0  0  0  0  0  0
  189.3580  176.1450  138.1190 C   0  0  0  0  0  0  0  0  0  0  0  0
  190.9370  174.6870  136.6850 C   0  0  1  0  0  3  0  0  0  0  0  0
  192.2630  177.5610  140.9260 C   0  0  0  0  0  3  0  0  0  0  0  0
  186.5380  175.3710  137.0820 C   0  0  0  0  0  0  0  0  0  0  0  0
  187.3070  174.1970  137.3200 N   0  0  0  0  0  0  0  0  0  0  0  0
  188.6590  174.0920  136.9660 N   0  0  0  0  0  0  0  0  0  0  0  0
  192.6080  175.7600  135.1970 C   0  0  0  0  0  1  0  0  0  0  0  0
  186.4770  173.0490  137.2440 C   0  0  0  0  0  3  0  0  0  0  0  0
  192.6510  177.2580  139.6610 N   0  0  0  0  0  0  0  0  0  0  0  0
  191.6930  173.9190  137.5760 O   0  0  0  0  0  1  0  0  0  0  0  0
  190.9350  177.4020  141.3010 C   0  0  0  0  0  3  0  0  0  0  0  0
  188.2190  176.8500  138.1190 C   0  0  0  0  0  3  0  0  0  0  0  0
  184.1710  172.2450  136.8580 C   0  0  0  0  0  2  0  0  0  0  0  0
  184.5270  171.2130  135.8050 C   0  0  0  0  0  2  0  0  0  0  0  0
  183.7350  168.8730  135.8520 C   0  0  0  0  0  1  0  0  0  0  0  0
  183.3400  170.3060  135.5660 C   0  0  0  0  0  2  0  0  0  0  0  0
  186.0580  177.7810  137.2390 C   0  0  0  0  0  2  0  0  0  0  0  0
  185.8380  178.4620  138.5800 C   0  0  0  0  0  2  0  0  0  0  0  0
  183.5550  177.9980  138.1020 O   0  0  0  0  0  0  0  0  0  0  0  0
  184.4010  178.3470  138.9660 C   0  0  0  0  0  0  0  0  0  0  0  0
  183.9650  178.6730  140.2880 N   0  0  0  0  0  2  0  0  0  0  0  0
  184.9010  179.0320  141.3430 C   0  0  0  0  0  2  0  0  0  0  0  0
  185.6500  178.0410  143.5300 C   0  0  0  0  0  2  0  0  0  0  0  0
  183.4630  179.2520  143.4000 C   0  0  1  0  0  3  0  0  0  0  0  0
  184.9320  179.3540  143.7490 C   0  0  2  0  0  3  0  0  0  0  0  0
  184.4720  178.4040  142.6520 C   0  0  2  0  0  0  0  0  0  0  0  0
  182.8080  178.4700  144.3520 O   0  0  0  0  0  1  0  0  0  0  0  0
  1 21  1  0  0  0  0
  2 20  1  0  0  0  0
  3 17  2  0  0  0  0
  4  6  1  0  0  0  0
  4 18  2  0  0  0  0
  5  4  1  0  0  0  0
  6  2  2  0  0  0  0
  7 10  1  0  0  0  0
  8  3  1  0  0  0  0
  8 13  1  0  0  0  0
  9 16  1  6  0  0  0
  9 11  1  0  0  0  0
  9  5  1  0  0  0  0
 10  6  1  0  0  0  0
 11  7  1  0  0  0  0
 11 19  1  1  0  0  0
 12 20  2  0  0  0  0
 13 14  1  0  0  0  0
 13  1  2  0  0  0  0
 15  7  2  0  0  0  0
 15 14  1  0  0  0  0
 17 14  1  0  0  0  0
 18 12  1  0  0  0  0
 21 10  2  0  0  0  0
 22  3  1  0  0  0  0
 23 22  1  0  0  0  0
 25 23  1  0  0  0  0
 25 24  1  0  0  0  0
 26  1  1  0  0  0  0
 26 27  1  0  0  0  0
 27 29  1  0  0  0  0
 28 29  2  0  0  0  0
 29 30  1  0  0  0  0
 30 31  1  0  0  0  0
 33 34  1  0  0  0  0
 33 36  1  1  0  0  0
 34 32  1  1  0  0  0
 35 31  1  6  0  0  0
 35 33  1  0  0  0  0
 35 32  1  0  0  0  0
 35 34  1  0  0  0  0
M  END
>  <MODEL>
5

>  <REMARK>
 VINA RESULT:      -6.7      3.930      8.088
  Name = 
  8 active torsions:
  status: ('A' for Active; 'I' for Inactive)
    1  A    between atoms: C_1  and  C_33
    2  A    between atoms: C_3  and  C_12
    3  A    between atoms: C_12  and  C_22
    4  A    between atoms: C_16  and  C_26
    5  A    between atoms: C_16  and  N_31
    6  A    between atoms: C_22  and  C_23
    7  A    between atoms: C_24  and  C_34
    8  A    between atoms: C_33  and  C_34
                            x       y       z     vdW  Elec       q    Type
                         _______ _______ _______ _____ _____    ______ ____

>  <TORSDO>
F 8

$$$$
=
 OpenBabel10232407443D

 36 41  0  0  1  0  0  0  0  0999 V2000
  184.9680  177.5350  138.1500 C   0  0  0  0  0  0  0  0  0  0  0  0
  184.5590  173.4830  136.8590 C   0  0  0  0  0  3  0  0  0  0  0  0
  183.5820  178.5450  141.4950 C   0  0  0  0  0  0  0  0  0  0  0  0
  182.7190  174.0230  135.3800 C   0  0  0  0  0  0  0  0  0  0  0  0
  181.6820  174.8230  134.8760 O   0  0  0  0  0  0  0  0  0  0  0  0
  183.5660  174.3950  136.4610 C   0  0  0  0  0  0  0  0  0  0  0  0
  182.1990  176.2420  137.6600 C   0  0  0  0  0  0  0  0  0  0  0  0
  184.8370  179.1630  140.3770 S   0  0  0  0  0  0  0  0  0  0  0  0
  181.2890  176.0950  135.3710 C   0  0  2  0  0  3  0  0  0  0  0  0
  183.5020  175.6900  137.1960 C   0  0  0  0  0  0  0  0  0  0  0  0
  180.9640  176.0310  136.8550 C   0  0  1  0  0  3  0  0  0  0  0  0
  183.8610  171.9360  135.1700 C   0  0  0  0  0  3  0  0  0  0  0  0
  184.2550  177.9220  139.2150 C   0  0  0  0  0  0  0  0  0  0  0  0
  183.0860  177.2410  139.6570 N   0  0  0  0  0  0  0  0  0  0  0  0
  182.0510  176.8680  138.7890 N   0  0  0  0  0  0  0  0  0  0  0  0
  180.0750  176.5760  134.6040 C   0  0  0  0  0  1  0  0  0  0  0  0
  182.7730  177.6260  140.9870 C   0  0  0  0  0  3  0  0  0  0  0  0
  182.9010  172.8130  134.7810 N   0  0  0  0  0  0  0  0  0  0  0  0
  180.3470  174.8250  137.2000 O   0  0  0  0  0  1  0  0  0  0  0  0
  184.7100  172.2570  136.2210 C   0  0  0  0  0  3  0  0  0  0  0  0
  184.6720  176.3110  137.3930 C   0  0  0  0  0  3  0  0  0  0  0  0
  183.4620  179.0370  142.8970 C   0  0  0  0  0  2  0  0  0  0  0  0
  184.6280  178.5510  143.7350 C   0  0  0  0  0  2  0  0  0  0  0  0
  185.6280  178.8060  145.9800 C   0  0  0  0  0  1  0  0  0  0  0  0
  184.3310  178.7910  145.1990 C   0  0  0  0  0  2  0  0  0  0  0  0
  186.2550  178.2170  137.8100 C   0  0  0  0  0  2  0  0  0  0  0  0
  187.4280  177.4520  138.3990 C   0  0  0  0  0  2  0  0  0  0  0  0
  188.9930  179.2140  138.0830 O   0  0  0  0  0  0  0  0  0  0  0  0
  188.4530  178.4170  138.8940 C   0  0  0  0  0  0  0  0  0  0  0  0
  188.8660  178.4170  140.2620 N   0  0  0  0  0  2  0  0  0  0  0  0
  188.2420  177.5560  141.2570 C   0  0  0  0  0  2  0  0  0  0  0  0
  188.3530  177.5220  143.7690 C   0  0  0  0  0  2  0  0  0  0  0  0
  190.0150  176.2090  142.4350 C   0  0  1  0  0  3  0  0  0  0  0  0
  188.7070  176.1690  143.1940 C   0  0  2  0  0  3  0  0  0  0  0  0
  189.1340  177.4400  142.4750 C   0  0  2  0  0  0  0  0  0  0  0  0
  191.0730  176.3600  143.3320 O   0  0  0  0  0  1  0  0  0  0  0  0
  1 13  2  0  0  0  0
  3 22  1  0  0  0  0
  4  6  1  0  0  0  0
  5  9  1  0  0  0  0
  5  4  1  0  0  0  0
  6  2  2  0  0  0  0
  6 10  1  0  0  0  0
  7 15  2  0  0  0  0
  8  3  1  0  0  0  0
  9 16  1  6  0  0  0
  9 11  1  0  0  0  0
 10 21  2  0  0  0  0
 10  7  1  0  0  0  0
 11 19  1  6  0  0  0
 11  7  1  0  0  0  0
 12 20  2  0  0  0  0
 13 14  1  0  0  0  0
 13  8  1  0  0  0  0
 14 17  1  0  0  0  0
 15 14  1  0  0  0  0
 17  3  2  0  0  0  0
 18 12  1  0  0  0  0
 18  4  2  0  0  0  0
 20  2  1  0  0  0  0
 21  1  1  0  0  0  0
 22 23  1  0  0  0  0
 23 25  1  0  0  0  0
 25 24  1  0  0  0  0
 26  1  1  0  0  0  0
 26 27  1  0  0  0  0
 27 29  1  0  0  0  0
 28 29  2  0  0  0  0
 29 30  1  0  0  0  0
 30 31  1  0  0  0  0
 33 35  1  0  0  0  0
 33 34  1  0  0  0  0
 33 36  1  1  0  0  0
 34 32  1  1  0  0  0
 35 31  1  6  0  0  0
 35 34  1  0  0  0  0
 35 32  1  0  0  0  0
M  END
>  <MODEL>
6

>  <REMARK>
 VINA RESULT:      -6.6      3.052      5.712
  Name = 
  8 active torsions:
  status: ('A' for Active; 'I' for Inactive)
    1  A    between atoms: C_1  and  C_33
    2  A    between atoms: C_3  and  C_12
    3  A    between atoms: C_12  and  C_22
    4  A    between atoms: C_16  and  C_26
    5  A    between atoms: C_16  and  N_31
    6  A    between atoms: C_22  and  C_23
    7  A    between atoms: C_24  and  C_34
    8  A    between atoms: C_33  and  C_34
                            x       y       z     vdW  Elec       q    Type
                         _______ _______ _______ _____ _____    ______ ____

>  <TORSDO>
F 8

$$$$
=
 OpenBabel10232407443D

 36 41  0  0  1  0  0  0  0  0999 V2000
  185.3670  178.4200  139.3140 C   0  0  0  0  0  0  0  0  0  0  0  0
  182.6590  176.0400  137.0220 C   0  0  0  0  0  3  0  0  0  0  0  0
  184.9460  178.6000  143.0460 C   0  0  0  0  0  0  0  0  0  0  0  0
  181.4000  177.9770  136.2910 C   0  0  0  0  0  0  0  0  0  0  0  0
  180.9890  179.3170  136.3300 O   0  0  0  0  0  0  0  0  0  0  0  0
  182.3520  177.4030  137.1810 C   0  0  0  0  0  0  0  0  0  0  0  0
  182.3390  179.0490  139.1830 C   0  0  0  0  0  0  0  0  0  0  0  0
  186.2820  178.8620  141.8830 S   0  0  0  0  0  0  0  0  0  0  0  0
  181.4160  180.2980  137.2650 C   0  0  2  0  0  3  0  0  0  0  0  0
  183.0710  178.1380  138.2590 C   0  0  0  0  0  0  0  0  0  0  0  0
  181.1730  179.8370  138.6940 C   0  0  1  0  0  3  0  0  0  0  0  0
  181.1330  175.8780  135.1840 C   0  0  0  0  0  3  0  0  0  0  0  0
  185.0470  178.6670  140.5910 C   0  0  0  0  0  0  0  0  0  0  0  0
  183.7180  178.5760  141.0920 N   0  0  0  0  0  0  0  0  0  0  0  0
  182.6220  179.1630  140.4460 N   0  0  0  0  0  0  0  0  0  0  0  0
  180.6660  181.5900  137.0120 C   0  0  0  0  0  1  0  0  0  0  0  0
  183.7360  178.5120  142.5100 C   0  0  0  0  0  3  0  0  0  0  0  0
  180.8330  177.1930  135.3330 N   0  0  0  0  0  0  0  0  0  0  0  0
  179.9920  179.0990  138.8080 O   0  0  0  0  0  1  0  0  0  0  0  0
  182.0540  175.2750  136.0310 C   0  0  0  0  0  3  0  0  0  0  0  0
  184.3920  177.9330  138.3280 C   0  0  0  0  0  3  0  0  0  0  0  0
  185.1870  178.4910  144.5130 C   0  0  0  0  0  2  0  0  0  0  0  0
  186.3930  177.6150  144.7920 C   0  0  0  0  0  2  0  0  0  0  0  0
  185.9320  178.7880  146.9170 C   0  0  0  0  0  1  0  0  0  0  0  0
  186.7350  177.6830  146.2640 C   0  0  0  0  0  2  0  0  0  0  0  0
  186.7960  178.4120  138.8780 C   0  0  0  0  0  2  0  0  0  0  0  0
  186.8830  178.3970  137.3610 C   0  0  0  0  0  2  0  0  0  0  0  0
  188.9630  179.5500  137.3460 O   0  0  0  0  0  0  0  0  0  0  0  0
  188.3070  178.5540  136.9430 C   0  0  0  0  0  0  0  0  0  0  0  0
  188.9220  177.6200  136.0530 N   0  0  0  0  0  2  0  0  0  0  0  0
  188.2330  176.4220  135.5940 C   0  0  0  0  0  2  0  0  0  0  0  0
  187.0370  174.6890  136.9690 C   0  0  0  0  0  2  0  0  0  0  0  0
  189.3910  174.2750  136.2250 C   0  0  1  0  0  3  0  0  0  0  0  0
  187.9250  174.0390  135.9330 C   0  0  2  0  0  3  0  0  0  0  0  0
  188.3680  175.3200  136.6230 C   0  0  2  0  0  0  0  0  0  0  0  0
  189.7700  173.5390  137.3470 O   0  0  0  0  0  1  0  0  0  0  0  0
  1 13  2  0  0  0  0
  2  6  2  0  0  0  0
  3 22  1  0  0  0  0
  4  5  1  0  0  0  0
  4  6  1  0  0  0  0
  5  9  1  0  0  0  0
  6 10  1  0  0  0  0
  7 15  2  0  0  0  0
  8  3  1  0  0  0  0
  9 16  1  6  0  0  0
  9 11  1  0  0  0  0
 10 21  2  0  0  0  0
 10  7  1  0  0  0  0
 11 19  1  6  0  0  0
 11  7  1  0  0  0  0
 12 18  1  0  0  0  0
 12 20  2  0  0  0  0
 13 14  1  0  0  0  0
 13  8  1  0  0  0  0
 14 17  1  0  0  0  0
 15 14  1  0  0  0  0
 17  3  2  0  0  0  0
 18  4  2  0  0  0  0
 20  2  1  0  0  0  0
 21  1  1  0  0  0  0
 22 23  1  0  0  0  0
 23 25  1  0  0  0  0
 25 24  1  0  0  0  0
 26  1  1  0  0  0  0
 27 26  1  0  0  0  0
 29 28  2  0  0  0  0
 29 27  1  0  0  0  0
 30 29  1  0  0  0  0
 31 30  1  0  0  0  0
 33 35  1  0  0  0  0
 33 36  1  1  0  0  0
 34 33  1  0  0  0  0
 34 35  1  0  0  0  0
 34 32  1  1  0  0  0
 35 31  1  6  0  0  0
 35 32  1  0  0  0  0
M  END
>  <MODEL>
7

>  <REMARK>
 VINA RESULT:      -6.6      2.915      6.363
  Name = 
  8 active torsions:
  status: ('A' for Active; 'I' for Inactive)
    1  A    between atoms: C_1  and  C_33
    2  A    between atoms: C_3  and  C_12
    3  A    between atoms: C_12  and  C_22
    4  A    between atoms: C_16  and  C_26
    5  A    between atoms: C_16  and  N_31
    6  A    between atoms: C_22  and  C_23
    7  A    between atoms: C_24  and  C_34
    8  A    between atoms: C_33  and  C_34
                            x       y       z     vdW  Elec       q    Type
                         _______ _______ _______ _____ _____    ______ ____

>  <TORSDO>
F 8

$$$$
=
 OpenBabel10232407443D

 36 41  0  0  1  0  0  0  0  0999 V2000
  185.5540  178.4250  139.6410 C   0  0  0  0  0  0  0  0  0  0  0  0
  182.7740  176.1780  137.3010 C   0  0  0  0  0  3  0  0  0  0  0  0
  185.1960  178.4620  143.3830 C   0  0  0  0  0  0  0  0  0  0  0  0
  181.5340  178.1590  136.6680 C   0  0  0  0  0  0  0  0  0  0  0  0
  181.1430  179.5030  136.7660 O   0  0  0  0  0  0  0  0  0  0  0  0
  182.4900  177.5370  137.5190 C   0  0  0  0  0  0  0  0  0  0  0  0
  182.5340  179.1020  139.5840 C   0  0  0  0  0  0  0  0  0  0  0  0
  186.5160  178.7510  142.2090 S   0  0  0  0  0  0  0  0  0  0  0  0
  181.5990  180.4400  137.7320 C   0  0  2  0  0  3  0  0  0  0  0  0
  183.2370  178.2180  138.6130 C   0  0  0  0  0  0  0  0  0  0  0  0
  181.3730  179.9260  139.1460 C   0  0  1  0  0  3  0  0  0  0  0  0
  181.2170  176.1100  135.4830 C   0  0  0  0  0  3  0  0  0  0  0  0
  185.2580  178.6250  140.9320 C   0  0  0  0  0  0  0  0  0  0  0  0
  183.9360  178.5340  141.4500 N   0  0  0  0  0  0  0  0  0  0  0  0
  182.8390  179.1620  140.8460 N   0  0  0  0  0  0  0  0  0  0  0  0
  180.8650  181.7510  137.5430 C   0  0  0  0  0  1  0  0  0  0  0  0
  183.9760  178.4130  142.8630 C   0  0  0  0  0  3  0  0  0  0  0  0
  180.9390  177.4220  135.6890 N   0  0  0  0  0  0  0  0  0  0  0  0
  180.1820  179.2000  139.2510 O   0  0  0  0  0  1  0  0  0  0  0  0
  182.1420  175.4610  136.2900 C   0  0  0  0  0  3  0  0  0  0  0  0
  184.5570  177.9920  138.6520 C   0  0  0  0  0  3  0  0  0  0  0  0
  185.4580  178.2920  144.8400 C   0  0  0  0  0  2  0  0  0  0  0  0
  186.8040  177.6300  145.0660 C   0  0  0  0  0  2  0  0  0  0  0  0
  188.6360  177.2880  146.6880 C   0  0  0  0  0  1  0  0  0  0  0  0
  187.3080  177.9750  146.4500 C   0  0  0  0  0  2  0  0  0  0  0  0
  186.9760  178.4140  139.1800 C   0  0  0  0  0  2  0  0  0  0  0  0
  187.0900  177.7030  137.8420 C   0  0  0  0  0  2  0  0  0  0  0  0
  187.4810  179.6910  136.5960 O   0  0  0  0  0  0  0  0  0  0  0  0
  187.8910  178.5410  136.9010 C   0  0  0  0  0  0  0  0  0  0  0  0
  189.0890  178.0380  136.3050 N   0  0  0  0  0  2  0  0  0  0  0  0
  189.6410  176.7390  136.6580 C   0  0  0  0  0  2  0  0  0  0  0  0
  190.4940  176.5700  139.0180 C   0  0  0  0  0  2  0  0  0  0  0  0
  192.0540  176.1630  137.1020 C   0  0  1  0  0  3  0  0  0  0  0  0
  191.1440  175.5300  138.1320 C   0  0  2  0  0  3  0  0  0  0  0  0
  190.8280  176.9130  137.5820 C   0  0  2  0  0  0  0  0  0  0  0  0
  193.1900  176.6720  137.7300 O   0  0  0  0  0  1  0  0  0  0  0  0
  1 13  2  0  0  0  0
  2  6  2  0  0  0  0
  3 22  1  0  0  0  0
  4  5  1  0  0  0  0
  4  6  1  0  0  0  0
  5  9  1  0  0  0  0
  6 10  1  0  0  0  0
  7 15  2  0  0  0  0
  8  3  1  0  0  0  0
  9 16  1  1  0  0  0
  9 11  1  0  0  0  0
 10 21  2  0  0  0  0
 10  7  1  0  0  0  0
 11 19  1  6  0  0  0
 11  7  1  0  0  0  0
 12 18  1  0  0  0  0
 12 20  2  0  0  0  0
 13 14  1  0  0  0  0
 13  8  1  0  0  0  0
 14 17  1  0  0  0  0
 15 14  1  0  0  0  0
 17  3  2  0  0  0  0
 18  4  2  0  0  0  0
 20  2  1  0  0  0  0
 21  1  1  0  0  0  0
 22 23  1  0  0  0  0
 23 25  1  0  0  0  0
 25 24  1  0  0  0  0
 26  1  1  0  0  0  0
 27 26  1  0  0  0  0
 28 29  2  0  0  0  0
 29 27  1  0  0  0  0
 30 31  1  0  0  0  0
 30 29  1  0  0  0  0
 33 35  1  0  0  0  0
 33 36  1  1  0  0  0
 33 34  1  0  0  0  0
 34 32  1  1  0  0  0
 35 31  1  6  0  0  0
 35 34  1  0  0  0  0
 35 32  1  0  0  0  0
M  END
>  <MODEL>
8

>  <REMARK>
 VINA RESULT:      -6.6      2.506      5.917
  Name = 
  8 active torsions:
  status: ('A' for Active; 'I' for Inactive)
    1  A    between atoms: C_1  and  C_33
    2  A    between atoms: C_3  and  C_12
    3  A    between atoms: C_12  and  C_22
    4  A    between atoms: C_16  and  C_26
    5  A    between atoms: C_16  and  N_31
    6  A    between atoms: C_22  and  C_23
    7  A    between atoms: C_24  and  C_34
    8  A    between atoms: C_33  and  C_34
                            x       y       z     vdW  Elec       q    Type
                         _______ _______ _______ _____ _____    ______ ____

>  <TORSDO>
F 8

$$$$
=
 OpenBabel10232407443D

 36 41  0  0  1  0  0  0  0  0999 V2000
  186.5870  178.0340  138.1380 C   0  0  0  0  0  0  0  0  0  0  0  0
  182.8740  175.9410  137.8490 C   0  0  0  0  0  3  0  0  0  0  0  0
  188.2700  178.3340  141.4860 C   0  0  0  0  0  0  0  0  0  0  0  0
  181.5950  177.9950  137.7560 C   0  0  0  0  0  0  0  0  0  0  0  0
  181.3890  179.3750  137.9030 O   0  0  0  0  0  0  0  0  0  0  0  0
  182.8220  177.3320  138.0400 C   0  0  0  0  0  0  0  0  0  0  0  0
  184.0380  179.0070  139.6000 C   0  0  0  0  0  0  0  0  0  0  0  0
  188.7810  178.4160  139.7720 S   0  0  0  0  0  0  0  0  0  0  0  0
  182.3370  180.3180  138.3830 C   0  0  2  0  0  3  0  0  0  0  0  0
  184.0710  178.0000  138.5030 C   0  0  0  0  0  0  0  0  0  0  0  0
  182.8670  179.9160  139.7510 C   0  0  1  0  0  3  0  0  0  0  0  0
  180.5890  175.9200  137.1340 C   0  0  0  0  0  3  0  0  0  0  0  0
  187.0320  178.3410  139.3630 C   0  0  0  0  0  0  0  0  0  0  0  0
  186.1840  178.4150  140.5030 N   0  0  0  0  0  0  0  0  0  0  0  0
  184.9680  179.1120  140.5010 N   0  0  0  0  0  0  0  0  0  0  0  0
  181.6850  181.6820  138.4700 C   0  0  0  0  0  1  0  0  0  0  0  0
  186.9610  178.3770  141.6900 C   0  0  0  0  0  3  0  0  0  0  0  0
  180.5330  177.2640  137.3160 N   0  0  0  0  0  0  0  0  0  0  0  0
  181.8770  179.3220  140.5380 O   0  0  0  0  0  1  0  0  0  0  0  0
  181.7650  175.2320  137.4000 C   0  0  0  0  0  3  0  0  0  0  0  0
  185.1960  177.6450  137.8690 C   0  0  0  0  0  3  0  0  0  0  0  0
  189.2550  178.2260  142.5990 C   0  0  0  0  0  2  0  0  0  0  0  0
  188.8860  177.0870  143.5300 C   0  0  0  0  0  2  0  0  0  0  0  0
  189.6380  177.2960  145.8750 C   0  0  0  0  0  1  0  0  0  0  0  0
  188.5380  177.6430  144.8940 C   0  0  0  0  0  2  0  0  0  0  0  0
  187.5460  177.8520  137.0060 C   0  0  0  0  0  2  0  0  0  0  0  0
  187.2010  176.5970  136.2210 C   0  0  0  0  0  2  0  0  0  0  0  0
  189.0410  175.6590  137.4000 O   0  0  0  0  0  0  0  0  0  0  0  0
  187.9790  175.4430  136.7610 C   0  0  0  0  0  0  0  0  0  0  0  0
  187.5620  174.0970  136.5220 N   0  0  0  0  0  2  0  0  0  0  0  0
  186.3170  173.7850  135.8360 C   0  0  0  0  0  2  0  0  0  0  0  0
  184.9360  172.7950  137.6910 C   0  0  0  0  0  2  0  0  0  0  0  0
  184.8660  171.7690  135.4090 C   0  0  1  0  0  3  0  0  0  0  0  0
  184.1990  172.7260  136.3720 C   0  0  2  0  0  3  0  0  0  0  0  0
  185.7070  172.5260  136.4160 C   0  0  2  0  0  0  0  0  0  0  0  0
  184.6790  170.4580  135.8450 O   0  0  0  0  0  1  0  0  0  0  0  0
  1 13  2  0  0  0  0
  2  6  2  0  0  0  0
  3 17  2  0  0  0  0
  3 22  1  0  0  0  0
  4  5  1  0  0  0  0
  4  6  1  0  0  0  0
  5  9  1  0  0  0  0
  6 10  1  0  0  0  0
  7 11  1  0  0  0  0
  7 15  2  0  0  0  0
  8  3  1  0  0  0  0
  9 16  1  1  0  0  0
  9 11  1  0  0  0  0
 10  7  1  0  0  0  0
 11 19  1  1  0  0  0
 12 18  1  0  0  0  0
 12 20  2  0  0  0  0
 13  8  1  0  0  0  0
 13 14  1  0  0  0  0
 14 17  1  0  0  0  0
 15 14  1  0  0  0  0
 18  4  2  0  0  0  0
 20  2  1  0  0  0  0
 21  1  1  0  0  0  0
 21 10  2  0  0  0  0
 22 23  1  0  0  0  0
 23 25  1  0  0  0  0
 25 24  1  0  0  0  0
 26  1  1  0  0  0  0
 27 29  1  0  0  0  0
 27 26  1  0  0  0  0
 29 28  2  0  0  0  0
 30 29  1  0  0  0  0
 31 30  1  0  0  0  0
 33 36  1  1  0  0  0
 33 34  1  0  0  0  0
 33 35  1  0  0  0  0
 34 35  1  0  0  0  0
 34 32  1  1  0  0  0
 35 31  1  6  0  0  0
 35 32  1  0  0  0  0
M  END
>  <MODEL>
9

>  <REMARK>
 VINA RESULT:      -6.4      2.950      6.496
  Name = 
  8 active torsions:
  status: ('A' for Active; 'I' for Inactive)
    1  A    between atoms: C_1  and  C_33
    2  A    between atoms: C_3  and  C_12
    3  A    between atoms: C_12  and  C_22
    4  A    between atoms: C_16  and  C_26
    5  A    between atoms: C_16  and  N_31
    6  A    between atoms: C_22  and  C_23
    7  A    between atoms: C_24  and  C_34
    8  A    between atoms: C_33  and  C_34
                            x       y       z     vdW  Elec       q    Type
                         _______ _______ _______ _____ _____    ______ ____

>  <TORSDO>
F 8

$$$$
