=
 OpenBabel10232408223D

 30 34  0  0  1  0  0  0  0  0999 V2000
  184.6340  178.6950  141.9950 C   0  0  0  0  0  0  0  0  0  0  0  0
  188.9000  177.2780  146.1020 C   0  0  0  0  0  0  0  0  0  0  0  0
  189.9390  177.3740  141.2720 C   0  0  0  0  0  3  0  0  0  0  0  0
  185.6230  178.4070  143.9150 C   0  0  0  0  0  0  0  0  0  0  0  0
  190.1540  178.0530  142.5860 C   0  0  0  0  0  2  0  0  0  0  0  0
  187.7890  177.9510  143.4180 C   0  0  0  0  0  0  0  0  0  0  0  0
  187.5130  177.9710  140.9660 C   0  0  0  0  0  3  0  0  0  0  0  0
  188.8120  177.4010  140.5600 C   0  0  0  0  0  3  0  0  0  0  0  0
  183.6150  178.7320  143.0750 C   0  0  0  0  0  3  0  0  0  0  0  0
  185.7940  178.4920  142.5880 C   0  0  0  0  0  0  0  0  0  0  0  0
  189.6610  177.3980  144.9260 C   0  0  0  0  0  3  0  0  0  0  0  0
  184.2210  178.5510  144.2620 C   0  0  0  0  0  3  0  0  0  0  0  0
  187.1020  178.1930  142.2180 C   0  0  0  0  0  0  0  0  0  0  0  0
  189.1550  177.7100  143.6420 C   0  0  0  0  0  0  0  0  0  0  0  0
  186.8090  178.0460  144.4920 C   0  0  0  0  0  0  0  0  0  0  0  0
  187.2400  177.6550  146.0630 S   0  0  0  0  0  0  0  0  0  0  0  0
  184.8280  179.8660  139.9410 O   0  0  0  0  0  1  0  0  0  0  0  0
  184.3740  178.6820  140.5210 C   0  0  2  0  0  3  0  0  0  0  0  0
  180.8250  178.8890  139.9860 C   0  0  0  0  0  3  0  0  0  0  0  0
  182.3190  177.3550  139.7640 C   0  0  0  0  0  0  0  0  0  0  0  0
  182.9880  176.0590  139.4460 C   0  0  0  0  0  1  0  0  0  0  0  0
  179.9820  176.6980  139.1400 C   0  0  0  0  0  1  0  0  0  0  0  0
  181.9860  179.4690  140.3720 N   0  0  0  0  0  0  0  0  0  0  0  0
  181.0110  177.6070  139.6150 N   0  0  0  0  0  0  0  0  0  0  0  0
  182.9160  178.5000  140.2350 C   0  0  0  0  0  0  0  0  0  0  0  0
  189.5610  176.9410  147.3920 C   0  0  0  0  0  2  0  0  0  0  0  0
  190.6690  176.0310  147.1520 N   0  0  0  0  0  2  0  0  0  0  0  0
  191.9600  176.2480  147.7190 C   0  0  0  0  0  0  0  0  0  0  0  0
  192.9840  175.3480  147.4570 O   0  0  0  0  0  0  0  0  0  0  0  0
  192.1800  177.2480  148.4530 O   0  0  0  0  0  1  0  0  0  0  0  0
  1 10  2  0  0  0  0
  1  9  1  0  0  0  0
  2 26  1  0  0  0  0
  3  5  1  0  0  0  0
  4 12  1  0  0  0  0
  4 15  2  0  0  0  0
  5 14  1  0  0  0  0
  6 14  2  0  0  0  0
  6 15  1  0  0  0  0
  7 13  2  0  0  0  0
  8  7  1  0  0  0  0
  8  3  2  0  0  0  0
  9 12  2  0  0  0  0
 10  4  1  0  0  0  0
 11  2  2  0  0  0  0
 13 10  1  0  0  0  0
 13  6  1  0  0  0  0
 14 11  1  0  0  0  0
 15 16  1  0  0  0  0
 16  2  1  0  0  0  0
 18 17  1  1  0  0  0
 18  1  1  0  0  0  0
 19 23  2  0  0  0  0
 20 25  2  0  0  0  0
 21 20  1  0  0  0  0
 22 24  1  0  0  0  0
 24 20  1  0  0  0  0
 24 19  1  0  0  0  0
 25 23  1  0  0  0  0
 25 18  1  0  0  0  0
 27 26  1  0  0  0  0
 27 28  1  0  0  0  0
 28 30  1  0  0  0  0
 29 28  2  0  0  0  0
M  END
>  <MODEL>
1

>  <REMARK>
 VINA RESULT:      -9.3      0.000      0.000
  Name = 
  4 active torsions:
  status: ('A' for Active; 'I' for Inactive)
    1  A    between atoms: C_2  and  C_26
    2  A    between atoms: C_3  and  C_9
    3  A    between atoms: C_9  and  N_11
    4  A    between atoms: C_26  and  C_30
                            x       y       z     vdW  Elec       q    Type
                         _______ _______ _______ _____ _____    ______ ____

>  <TORSDO>
F 4

$$$$
=
 OpenBabel10232408223D

 30 34  0  0  1  0  0  0  0  0999 V2000
  185.0810  178.8790  140.9100 C   0  0  0  0  0  0  0  0  0  0  0  0
  190.3570  176.7180  143.0490 C   0  0  0  0  0  0  0  0  0  0  0  0
  189.5550  177.1450  138.1920 C   0  0  0  0  0  3  0  0  0  0  0  0
  186.6650  178.3320  142.3040 C   0  0  0  0  0  0  0  0  0  0  0  0
  190.3170  177.6830  139.3600 C   0  0  0  0  0  2  0  0  0  0  0  0
  188.4270  177.7250  141.0120 C   0  0  0  0  0  0  0  0  0  0  0  0
  187.2750  177.9870  138.8450 C   0  0  0  0  0  3  0  0  0  0  0  0
  188.2580  177.3390  137.9550 C   0  0  0  0  0  3  0  0  0  0  0  0
  184.5420  178.9140  142.2930 C   0  0  0  0  0  3  0  0  0  0  0  0
  186.3460  178.5180  141.0150 C   0  0  0  0  0  0  0  0  0  0  0  0
  190.6420  176.8710  141.6800 C   0  0  0  0  0  3  0  0  0  0  0  0
  185.5150  178.5740  143.1570 C   0  0  0  0  0  3  0  0  0  0  0  0
  187.3820  178.1350  140.1690 C   0  0  0  0  0  0  0  0  0  0  0  0
  189.7410  177.3410  140.6960 C   0  0  0  0  0  0  0  0  0  0  0  0
  187.9280  177.8140  142.3770 C   0  0  0  0  0  0  0  0  0  0  0  0
  188.8560  177.2470  143.6520 S   0  0  0  0  0  0  0  0  0  0  0  0
  184.3650  180.3350  139.1790 O   0  0  0  0  0  1  0  0  0  0  0  0
  184.2990  179.0210  139.6420 C   0  0  2  0  0  3  0  0  0  0  0  0
  180.7730  178.7050  140.2630 C   0  0  0  0  0  3  0  0  0  0  0  0
  182.3420  177.3710  139.6350 C   0  0  0  0  0  0  0  0  0  0  0  0
  183.0700  176.1530  139.1700 C   0  0  0  0  0  1  0  0  0  0  0  0
  180.0570  176.3560  139.8170 C   0  0  0  0  0  1  0  0  0  0  0  0
  181.8920  179.4660  140.2340 N   0  0  0  0  0  0  0  0  0  0  0  0
  181.0300  177.4320  139.9030 N   0  0  0  0  0  0  0  0  0  0  0  0
  182.8720  178.6220  139.8450 C   0  0  0  0  0  0  0  0  0  0  0  0
  191.4000  176.2080  143.9800 C   0  0  0  0  0  2  0  0  0  0  0  0
  191.3230  176.9240  145.2430 N   0  0  0  0  0  2  0  0  0  0  0  0
  191.8180  176.3660  146.4590 C   0  0  0  0  0  0  0  0  0  0  0  0
  191.7200  177.0920  147.6380 O   0  0  0  0  0  1  0  0  0  0  0  0
  192.3420  175.2200  146.4730 O   0  0  0  0  0  0  0  0  0  0  0  0
  1 10  2  0  0  0  0
  1  9  1  0  0  0  0
  2 16  1  0  0  0  0
  2 26  1  0  0  0  0
  3  5  1  0  0  0  0
  4 15  2  0  0  0  0
  4 12  1  0  0  0  0
  5 14  1  0  0  0  0
  6 15  1  0  0  0  0
  7 13  2  0  0  0  0
  8  3  2  0  0  0  0
  8  7  1  0  0  0  0
  9 12  2  0  0  0  0
 10  4  1  0  0  0  0
 11  2  2  0  0  0  0
 13  6  1  0  0  0  0
 13 10  1  0  0  0  0
 14  6  2  0  0  0  0
 14 11  1  0  0  0  0
 15 16  1  0  0  0  0
 18 17  1  1  0  0  0
 18 25  1  0  0  0  0
 18  1  1  0  0  0  0
 20 25  2  0  0  0  0
 20 24  1  0  0  0  0
 21 20  1  0  0  0  0
 22 24  1  0  0  0  0
 23 19  2  0  0  0  0
 24 19  1  0  0  0  0
 25 23  1  0  0  0  0
 26 27  1  0  0  0  0
 27 28  1  0  0  0  0
 28 30  2  0  0  0  0
 28 29  1  0  0  0  0
M  END
>  <MODEL>
2

>  <REMARK>
 VINA RESULT:      -8.8      1.383      2.157
  Name = 
  4 active torsions:
  status: ('A' for Active; 'I' for Inactive)
    1  A    between atoms: C_2  and  C_26
    2  A    between atoms: C_3  and  C_9
    3  A    between atoms: C_9  and  N_11
    4  A    between atoms: C_26  and  C_30
                            x       y       z     vdW  Elec       q    Type
                         _______ _______ _______ _____ _____    ______ ____

>  <TORSDO>
F 4

$$$$
=
 OpenBabel10232408223D

 30 34  0  0  1  0  0  0  0  0999 V2000
  185.7640  178.4180  143.7820 C   0  0  0  0  0  0  0  0  0  0  0  0
  190.8440  176.4070  146.4710 C   0  0  0  0  0  0  0  0  0  0  0  0
  190.5960  176.9510  141.5650 C   0  0  0  0  0  3  0  0  0  0  0  0
  187.1960  177.8930  145.3380 C   0  0  0  0  0  0  0  0  0  0  0  0
  191.1910  177.4830  142.8290 C   0  0  0  0  0  2  0  0  0  0  0  0
  189.1220  177.3980  144.2470 C   0  0  0  0  0  0  0  0  0  0  0  0
  188.2200  177.6800  141.9670 C   0  0  0  0  0  3  0  0  0  0  0  0
  189.3280  177.1000  141.1830 C   0  0  0  0  0  3  0  0  0  0  0  0
  185.0660  178.3890  145.0920 C   0  0  0  0  0  3  0  0  0  0  0  0
  187.0220  178.1060  144.0260 C   0  0  0  0  0  0  0  0  0  0  0  0
  191.2800  176.6130  145.1490 C   0  0  0  0  0  3  0  0  0  0  0  0
  185.9460  178.0610  146.0560 C   0  0  0  0  0  3  0  0  0  0  0  0
  188.1660  177.7900  143.2980 C   0  0  0  0  0  0  0  0  0  0  0  0
  190.4800  177.0770  144.0780 C   0  0  0  0  0  0  0  0  0  0  0  0
  188.4640  177.4240  145.5460 C   0  0  0  0  0  0  0  0  0  0  0  0
  189.2610  176.8560  146.9060 S   0  0  0  0  0  0  0  0  0  0  0  0
  185.6430  179.6870  141.7810 O   0  0  0  0  0  1  0  0  0  0  0  0
  185.1300  178.5670  142.4350 C   0  0  2  0  0  3  0  0  0  0  0  0
  181.6860  179.1200  143.3060 C   0  0  0  0  0  3  0  0  0  0  0  0
  182.7240  178.3500  141.5840 C   0  0  0  0  0  0  0  0  0  0  0  0
  183.0110  177.8020  140.2260 C   0  0  0  0  0  1  0  0  0  0  0  0
  180.2260  178.4400  141.3990 C   0  0  0  0  0  1  0  0  0  0  0  0
  182.9990  179.1720  143.6330 N   0  0  0  0  0  0  0  0  0  0  0  0
  181.5040  178.6240  142.0670 N   0  0  0  0  0  0  0  0  0  0  0  0
  183.6430  178.6820  142.5520 C   0  0  0  0  0  0  0  0  0  0  0  0
  191.7930  175.9110  147.5040 C   0  0  0  0  0  2  0  0  0  0  0  0
  192.2660  177.0250  148.3100 N   0  0  0  0  0  2  0  0  0  0  0  0
  193.1360  176.8340  149.4250 C   0  0  0  0  0  0  0  0  0  0  0  0
  193.5590  177.9320  150.1610 O   0  0  0  0  0  1  0  0  0  0  0  0
  193.5240  175.6790  149.7470 O   0  0  0  0  0  0  0  0  0  0  0  0
  1 10  2  0  0  0  0
  1  9  1  0  0  0  0
  2 16  1  0  0  0  0
  2 26  1  0  0  0  0
  3  5  1  0  0  0  0
  4 15  2  0  0  0  0
  4 12  1  0  0  0  0
  5 14  1  0  0  0  0
  6 15  1  0  0  0  0
  7 13  2  0  0  0  0
  8  3  2  0  0  0  0
  8  7  1  0  0  0  0
  9 12  2  0  0  0  0
 10  4  1  0  0  0  0
 11  2  2  0  0  0  0
 13 10  1  0  0  0  0
 13  6  1  0  0  0  0
 14  6  2  0  0  0  0
 14 11  1  0  0  0  0
 15 16  1  0  0  0  0
 18 17  1  1  0  0  0
 18 25  1  0  0  0  0
 18  1  1  0  0  0  0
 19 23  2  0  0  0  0
 20 24  1  0  0  0  0
 20 25  2  0  0  0  0
 21 20  1  0  0  0  0
 22 24  1  0  0  0  0
 24 19  1  0  0  0  0
 25 23  1  0  0  0  0
 26 27  1  0  0  0  0
 27 28  1  0  0  0  0
 28 30  2  0  0  0  0
 28 29  1  0  0  0  0
M  END
>  <MODEL>
3

>  <REMARK>
 VINA RESULT:      -8.7      1.571      2.256
  Name = 
  4 active torsions:
  status: ('A' for Active; 'I' for Inactive)
    1  A    between atoms: C_2  and  C_26
    2  A    between atoms: C_3  and  C_9
    3  A    between atoms: C_9  and  N_11
    4  A    between atoms: C_26  and  C_30
                            x       y       z     vdW  Elec       q    Type
                         _______ _______ _______ _____ _____    ______ ____

>  <TORSDO>
F 4

$$$$
=
 OpenBabel10232408223D

 30 34  0  0  1  0  0  0  0  0999 V2000
  185.0610  178.6130  141.2070 C   0  0  0  0  0  0  0  0  0  0  0  0
  190.0080  177.7740  144.6570 C   0  0  0  0  0  0  0  0  0  0  0  0
  185.5420  178.3460  146.6940 C   0  0  0  0  0  3  0  0  0  0  0  0
  187.1200  178.1840  141.7790 C   0  0  0  0  0  0  0  0  0  0  0  0
  186.6500  177.3810  146.4220 C   0  0  0  0  0  2  0  0  0  0  0  0
  187.1020  178.0380  144.0420 C   0  0  0  0  0  0  0  0  0  0  0  0
  184.7180  178.6040  144.3300 C   0  0  0  0  0  2  0  0  0  0  0  0
  184.6810  178.8130  145.7910 C   0  0  0  0  0  3  0  0  0  0  0  0
  185.9220  178.6740  139.9980 C   0  0  0  0  0  3  0  0  0  0  0  0
  185.8600  178.3220  142.2160 C   0  0  0  0  0  0  0  0  0  0  0  0
  188.9740  177.6660  145.6050 C   0  0  0  0  0  3  0  0  0  0  0  0
  187.1950  178.4130  140.3470 C   0  0  0  0  0  3  0  0  0  0  0  0
  185.7890  178.2700  143.6050 C   0  0  0  0  0  0  0  0  0  0  0  0
  187.5900  177.7940  145.3370 C   0  0  0  0  0  0  0  0  0  0  0  0
  187.9480  178.0350  142.8560 C   0  0  2  0  0  3  0  0  0  0  0  0
  189.6150  177.9450  143.0100 S   0  0  0  0  0  0  0  0  0  0  0  0
  182.9260  178.1070  142.1100 O   0  0  0  0  0  1  0  0  0  0  0  0
  183.6200  179.0050  141.2980 C   0  0  2  0  0  3  0  0  0  0  0  0
  182.2310  179.7800  138.0750 C   0  0  0  0  0  3  0  0  0  0  0  0
  182.5660  177.9770  139.2030 C   0  0  0  0  0  0  0  0  0  0  0  0
  182.6330  176.5390  139.5950 C   0  0  0  0  0  1  0  0  0  0  0  0
  181.5340  177.6690  136.9400 C   0  0  0  0  0  1  0  0  0  0  0  0
  182.7890  180.1910  139.2370 N   0  0  0  0  0  0  0  0  0  0  0  0
  182.0890  178.4400  138.0390 N   0  0  0  0  0  0  0  0  0  0  0  0
  182.9910  179.0560  139.9420 C   0  0  0  0  0  0  0  0  0  0  0  0
  191.4280  177.6210  145.0760 C   0  0  0  0  0  2  0  0  0  0  0  0
  191.6070  176.3420  145.7440 N   0  0  0  0  0  2  0  0  0  0  0  0
  191.8200  176.2500  147.1530 C   0  0  0  0  0  0  0  0  0  0  0  0
  191.9850  175.0040  147.7420 O   0  0  0  0  0  0  0  0  0  0  0  0
  191.8610  177.2880  147.8650 O   0  0  0  0  0  1  0  0  0  0  0  0
  1 18  1  0  0  0  0
  1 10  1  0  0  0  0
  2 26  1  0  0  0  0
  2 11  2  0  0  0  0
  4 10  1  0  0  0  0
  5  3  1  0  0  0  0
  6 14  2  0  0  0  0
  7  8  1  0  0  0  0
  8  3  2  0  0  0  0
  9 12  1  0  0  0  0
  9  1  2  0  0  0  0
 10 13  2  0  0  0  0
 12  4  2  0  0  0  0
 13  6  1  0  0  0  0
 13  7  1  0  0  0  0
 14 11  1  0  0  0  0
 14  5  1  0  0  0  0
 15  4  1  1  0  0  0
 15 16  1  0  0  0  0
 15  6  1  0  0  0  0
 16  2  1  0  0  0  0
 18 17  1  1  0  0  0
 19 23  2  0  0  0  0
 20 21  1  0  0  0  0
 20 25  2  0  0  0  0
 22 24  1  0  0  0  0
 23 25  1  0  0  0  0
 24 19  1  0  0  0  0
 24 20  1  0  0  0  0
 25 18  1  0  0  0  0
 26 27  1  0  0  0  0
 27 28  1  0  0  0  0
 28 29  2  0  0  0  0
 28 30  1  0  0  0  0
M  END
>  <MODEL>
4

>  <REMARK>
 VINA RESULT:      -8.5      1.632      3.018
  Name = 
  4 active torsions:
  status: ('A' for Active; 'I' for Inactive)
    1  A    between atoms: C_2  and  C_26
    2  A    between atoms: C_3  and  C_9
    3  A    between atoms: C_9  and  N_11
    4  A    between atoms: C_26  and  C_30
                            x       y       z     vdW  Elec       q    Type
                         _______ _______ _______ _____ _____    ______ ____

>  <TORSDO>
F 4

$$$$
=
 OpenBabel10232408223D

 30 34  0  0  1  0  0  0  0  0999 V2000
  190.0390  177.6470  139.4790 C   0  0  0  0  0  0  0  0  0  0  0  0
  189.4450  177.1290  145.5170 C   0  0  0  0  0  0  0  0  0  0  0  0
  185.6860  178.6730  142.7050 C   0  0  0  0  0  3  0  0  0  0  0  0
  190.4830  177.1440  141.5520 C   0  0  0  0  0  0  0  0  0  0  0  0
  186.2070  177.5540  143.5470 C   0  0  0  0  0  2  0  0  0  0  0  0
  188.5700  177.5580  142.6990 C   0  0  0  0  0  0  0  0  0  0  0  0
  187.2910  178.4380  140.7810 C   0  0  0  0  0  3  0  0  0  0  0  0
  186.1250  178.9990  141.4890 C   0  0  0  0  0  3  0  0  0  0  0  0
  191.4820  177.3150  139.5980 C   0  0  0  0  0  3  0  0  0  0  0  0
  189.5300  177.5240  140.6890 C   0  0  0  0  0  0  0  0  0  0  0  0
  188.1190  177.3720  145.1170 C   0  0  0  0  0  3  0  0  0  0  0  0
  191.7610  177.0080  140.8780 C   0  0  0  0  0  3  0  0  0  0  0  0
  188.3360  177.8200  141.3400 C   0  0  0  0  0  0  0  0  0  0  0  0
  187.6810  177.5830  143.7870 C   0  0  0  0  0  0  0  0  0  0  0  0
  189.9690  177.1720  142.8190 C   0  0  0  0  0  0  0  0  0  0  0  0
  190.6520  176.9370  144.3320 S   0  0  0  0  0  0  0  0  0  0  0  0
  188.8830  179.4940  138.5410 O   0  0  0  0  0  1  0  0  0  0  0  0
  189.3480  178.2060  138.2760 C   0  0  2  0  0  3  0  0  0  0  0  0
  186.2470  176.6480  137.3400 C   0  0  0  0  0  3  0  0  0  0  0  0
  188.3040  176.0210  137.4460 C   0  0  0  0  0  0  0  0  0  0  0  0
  189.5460  175.1990  137.3420 C   0  0  0  0  0  1  0  0  0  0  0  0
  186.6780  174.2890  136.6450 C   0  0  0  0  0  1  0  0  0  0  0  0
  186.9230  177.7320  137.7850 N   0  0  0  0  0  0  0  0  0  0  0  0
  187.0700  175.6020  137.1300 N   0  0  0  0  0  0  0  0  0  0  0  0
  188.2110  177.3300  137.8540 C   0  0  0  0  0  0  0  0  0  0  0  0
  189.7690  176.9260  146.9550 C   0  0  0  0  0  2  0  0  0  0  0  0
  190.9000  176.0220  147.0800 N   0  0  0  0  0  2  0  0  0  0  0  0
  192.0550  176.3590  147.8480 C   0  0  0  0  0  0  0  0  0  0  0  0
  193.1080  175.4590  147.9350 O   0  0  0  0  0  0  0  0  0  0  0  0
  192.1270  177.4650  148.4480 O   0  0  0  0  0  1  0  0  0  0  0  0
  1  9  1  0  0  0  0
  1 10  2  0  0  0  0
  2 26  1  0  0  0  0
  3  5  1  0  0  0  0
  4 15  2  0  0  0  0
  5 14  1  0  0  0  0
  6 15  1  0  0  0  0
  6 14  2  0  0  0  0
  7 13  2  0  0  0  0
  7  8  1  0  0  0  0
  8  3  2  0  0  0  0
  9 12  2  0  0  0  0
 10 13  1  0  0  0  0
 10  4  1  0  0  0  0
 11  2  2  0  0  0  0
 12  4  1  0  0  0  0
 13  6  1  0  0  0  0
 14 11  1  0  0  0  0
 15 16  1  0  0  0  0
 16  2  1  0  0  0  0
 18 17  1  1  0  0  0
 18  1  1  0  0  0  0
 19 23  2  0  0  0  0
 20 25  2  0  0  0  0
 21 20  1  0  0  0  0
 22 24  1  0  0  0  0
 23 25  1  0  0  0  0
 24 19  1  0  0  0  0
 24 20  1  0  0  0  0
 25 18  1  0  0  0  0
 26 27  1  0  0  0  0
 27 28  1  0  0  0  0
 28 29  2  0  0  0  0
 28 30  1  0  0  0  0
M  END
>  <MODEL>
5

>  <REMARK>
 VINA RESULT:      -8.4      2.897      4.742
  Name = 
  4 active torsions:
  status: ('A' for Active; 'I' for Inactive)
    1  A    between atoms: C_2  and  C_26
    2  A    between atoms: C_3  and  C_9
    3  A    between atoms: C_9  and  N_11
    4  A    between atoms: C_26  and  C_30
                            x       y       z     vdW  Elec       q    Type
                         _______ _______ _______ _____ _____    ______ ____

>  <TORSDO>
F 4

$$$$
=
 OpenBabel10232408223D

 30 34  0  0  1  0  0  0  0  0999 V2000
  184.4860  178.8340  141.1970 C   0  0  0  0  0  0  0  0  0  0  0  0
  188.8030  177.1690  145.1560 C   0  0  0  0  0  0  0  0  0  0  0  0
  189.7880  177.5910  140.3320 C   0  0  0  0  0  3  0  0  0  0  0  0
  185.4970  178.4240  143.0830 C   0  0  0  0  0  0  0  0  0  0  0  0
  190.0150  178.1830  141.6860 C   0  0  0  0  0  2  0  0  0  0  0  0
  187.6590  178.0130  142.5340 C   0  0  0  0  0  0  0  0  0  0  0  0
  187.3570  178.1950  140.0920 C   0  0  0  0  0  3  0  0  0  0  0  0
  188.6540  177.6610  139.6350 C   0  0  0  0  0  3  0  0  0  0  0  0
  183.4790  178.7950  142.2880 C   0  0  0  0  0  3  0  0  0  0  0  0
  185.6540  178.5980  141.7630 C   0  0  0  0  0  0  0  0  0  0  0  0
  189.5500  177.3700  143.9820 C   0  0  0  0  0  3  0  0  0  0  0  0
  184.0980  178.5380  143.4540 C   0  0  0  0  0  3  0  0  0  0  0  0
  186.9590  178.3310  141.3610 C   0  0  0  0  0  0  0  0  0  0  0  0
  189.0290  177.7650  142.7270 C   0  0  0  0  0  0  0  0  0  0  0  0
  186.6910  178.0310  143.6220 C   0  0  0  0  0  0  0  0  0  0  0  0
  187.1410  177.5380  145.1600 S   0  0  0  0  0  0  0  0  0  0  0  0
  184.5220  180.1920  139.2510 O   0  0  0  0  0  1  0  0  0  0  0  0
  184.2100  178.9190  139.7290 C   0  0  2  0  0  3  0  0  0  0  0  0
  180.6860  178.8110  139.0260 C   0  0  0  0  0  3  0  0  0  0  0  0
  182.2580  177.3490  139.1970 C   0  0  0  0  0  0  0  0  0  0  0  0
  183.0010  176.0550  139.1910 C   0  0  0  0  0  1  0  0  0  0  0  0
  179.9870  176.4460  138.6390 C   0  0  0  0  0  1  0  0  0  0  0  0
  181.7990  179.5230  139.3220 N   0  0  0  0  0  0  0  0  0  0  0  0
  180.9490  177.4910  138.9470 N   0  0  0  0  0  0  0  0  0  0  0  0
  182.7780  178.6000  139.4330 C   0  0  0  0  0  0  0  0  0  0  0  0
  189.4790  176.7490  146.4130 C   0  0  0  0  0  2  0  0  0  0  0  0
  188.5460  176.8370  147.5240 N   0  0  0  0  0  2  0  0  0  0  0  0
  188.6730  177.8310  148.5400 C   0  0  0  0  0  0  0  0  0  0  0  0
  187.7550  177.8710  149.5800 O   0  0  0  0  0  1  0  0  0  0  0  0
  189.6100  178.6720  148.5020 O   0  0  0  0  0  0  0  0  0  0  0  0
  1 10  2  0  0  0  0
  1  9  1  0  0  0  0
  2 16  1  0  0  0  0
  2 26  1  0  0  0  0
  3  5  1  0  0  0  0
  4 12  1  0  0  0  0
  4 15  2  0  0  0  0
  5 14  1  0  0  0  0
  6 14  2  0  0  0  0
  6 15  1  0  0  0  0
  7 13  2  0  0  0  0
  8  7  1  0  0  0  0
  8  3  2  0  0  0  0
  9 12  2  0  0  0  0
 10  4  1  0  0  0  0
 11  2  2  0  0  0  0
 13 10  1  0  0  0  0
 13  6  1  0  0  0  0
 14 11  1  0  0  0  0
 15 16  1  0  0  0  0
 18 17  1  1  0  0  0
 18  1  1  0  0  0  0
 19 23  2  0  0  0  0
 20 25  2  0  0  0  0
 21 20  1  0  0  0  0
 22 24  1  0  0  0  0
 23 25  1  0  0  0  0
 24 19  1  0  0  0  0
 24 20  1  0  0  0  0
 25 18  1  0  0  0  0
 26 27  1  0  0  0  0
 27 28  1  0  0  0  0
 28 29  1  0  0  0  0
 30 28  2  0  0  0  0
M  END
>  <MODEL>
6

>  <REMARK>
 VINA RESULT:      -8.3      1.443      1.686
  Name = 
  4 active torsions:
  status: ('A' for Active; 'I' for Inactive)
    1  A    between atoms: C_2  and  C_26
    2  A    between atoms: C_3  and  C_9
    3  A    between atoms: C_9  and  N_11
    4  A    between atoms: C_26  and  C_30
                            x       y       z     vdW  Elec       q    Type
                         _______ _______ _______ _____ _____    ______ ____

>  <TORSDO>
F 4

$$$$
=
 OpenBabel10232408223D

 30 34  0  0  1  0  0  0  0  0999 V2000
  186.8200  178.4660  139.0550 C   0  0  0  0  0  0  0  0  0  0  0  0
  186.7490  177.7960  145.1070 C   0  0  0  0  0  0  0  0  0  0  0  0
  190.8440  176.9070  142.4870 C   0  0  0  0  0  3  0  0  0  0  0  0
  186.1390  178.5420  141.1230 C   0  0  0  0  0  0  0  0  0  0  0  0
  190.1920  177.8280  143.4660 C   0  0  0  0  0  2  0  0  0  0  0  0
  187.9350  177.9480  142.3740 C   0  0  0  0  0  0  0  0  0  0  0  0
  189.4440  177.4860  140.4780 C   0  0  0  0  0  3  0  0  0  0  0  0
  190.5500  176.8180  141.1910 C   0  0  0  0  0  3  0  0  0  0  0  0
  185.3610  178.7410  139.0740 C   0  0  0  0  0  3  0  0  0  0  0  0
  187.1930  178.3580  140.3150 C   0  0  0  0  0  0  0  0  0  0  0  0
  188.1190  177.6620  144.8180 C   0  0  0  0  0  3  0  0  0  0  0  0
  184.9350  178.7850  140.3490 C   0  0  0  0  0  3  0  0  0  0  0  0
  188.3220  177.9620  141.0260 C   0  0  0  0  0  0  0  0  0  0  0  0
  188.7030  177.7250  143.5300 C   0  0  0  0  0  0  0  0  0  0  0  0
  186.5160  178.2760  142.4100 C   0  0  0  0  0  0  0  0  0  0  0  0
  185.6680  178.1950  143.8540 S   0  0  0  0  0  0  0  0  0  0  0  0
  187.2750  178.9800  136.7830 O   0  0  0  0  0  1  0  0  0  0  0  0
  187.6570  178.1670  137.8510 C   0  0  2  0  0  3  0  0  0  0  0  0
  186.7290  174.8210  136.9200 C   0  0  0  0  0  3  0  0  0  0  0  0
  188.5870  175.8750  137.1900 C   0  0  0  0  0  0  0  0  0  0  0  0
  190.0430  176.1980  137.2300 C   0  0  0  0  0  1  0  0  0  0  0  0
  188.7870  173.4780  136.4840 C   0  0  0  0  0  1  0  0  0  0  0  0
  186.3730  176.0740  137.2890 N   0  0  0  0  0  0  0  0  0  0  0  0
  188.0680  174.6850  136.8560 N   0  0  0  0  0  0  0  0  0  0  0  0
  187.5430  176.7270  137.4620 C   0  0  0  0  0  0  0  0  0  0  0  0
  186.2660  177.7060  146.5110 C   0  0  0  0  0  2  0  0  0  0  0  0
  187.1820  178.4150  147.3900 N   0  0  0  0  0  2  0  0  0  0  0  0
  188.1730  177.7310  148.1560 C   0  0  0  0  0  0  0  0  0  0  0  0
  189.0240  178.4550  148.9810 O   0  0  0  0  0  1  0  0  0  0  0  0
  188.2840  176.4780  148.0920 O   0  0  0  0  0  0  0  0  0  0  0  0
  1  9  1  0  0  0  0
  1 10  2  0  0  0  0
  2 26  1  0  0  0  0
  3  5  1  0  0  0  0
  4 15  2  0  0  0  0
  5 14  1  0  0  0  0
  6 15  1  0  0  0  0
  6 14  2  0  0  0  0
  7 13  2  0  0  0  0
  7  8  1  0  0  0  0
  8  3  2  0  0  0  0
  9 12  2  0  0  0  0
 10 13  1  0  0  0  0
 10  4  1  0  0  0  0
 11  2  2  0  0  0  0
 12  4  1  0  0  0  0
 13  6  1  0  0  0  0
 14 11  1  0  0  0  0
 15 16  1  0  0  0  0
 16  2  1  0  0  0  0
 18 17  1  6  0  0  0
 18  1  1  0  0  0  0
 19 23  2  0  0  0  0
 20 21  1  0  0  0  0
 20 25  2  0  0  0  0
 22 24  1  0  0  0  0
 23 25  1  0  0  0  0
 24 19  1  0  0  0  0
 24 20  1  0  0  0  0
 25 18  1  0  0  0  0
 26 27  1  0  0  0  0
 27 28  1  0  0  0  0
 28 29  1  0  0  0  0
 30 28  2  0  0  0  0
M  END
>  <MODEL>
7

>  <REMARK>
 VINA RESULT:      -8.2      3.170      4.554
  Name = 
  4 active torsions:
  status: ('A' for Active; 'I' for Inactive)
    1  A    between atoms: C_2  and  C_26
    2  A    between atoms: C_3  and  C_9
    3  A    between atoms: C_9  and  N_11
    4  A    between atoms: C_26  and  C_30
                            x       y       z     vdW  Elec       q    Type
                         _______ _______ _______ _____ _____    ______ ____

>  <TORSDO>
F 4

$$$$
=
 OpenBabel10232408223D

 30 34  0  0  1  0  0  0  0  0999 V2000
  188.6360  177.7710  139.8110 C   0  0  0  0  0  0  0  0  0  0  0  0
  189.1720  177.2950  145.8570 C   0  0  0  0  0  0  0  0  0  0  0  0
  185.0850  179.1570  143.7950 C   0  0  0  0  0  3  0  0  0  0  0  0
  189.4260  177.2280  141.7680 C   0  0  0  0  0  0  0  0  0  0  0  0
  185.6630  177.9960  144.5380 C   0  0  0  0  0  2  0  0  0  0  0  0
  187.8100  177.8010  143.2530 C   0  0  0  0  0  0  0  0  0  0  0  0
  186.2650  178.7890  141.6030 C   0  0  0  0  0  3  0  0  0  0  0  0
  185.3080  179.4460  142.5140 C   0  0  0  0  0  3  0  0  0  0  0  0
  190.0420  177.3170  139.6560 C   0  0  0  0  0  3  0  0  0  0  0  0
  188.3600  177.6890  141.0980 C   0  0  0  0  0  0  0  0  0  0  0  0
  187.8180  177.6500  145.7150 C   0  0  0  0  0  3  0  0  0  0  0  0
  190.5350  176.9850  140.8630 C   0  0  0  0  0  3  0  0  0  0  0  0
  187.3420  178.0840  141.9610 C   0  0  0  0  0  0  0  0  0  0  0  0
  187.1530  177.8990  144.4910 C   0  0  0  0  0  0  0  0  0  0  0  0
  189.1700  177.2970  143.1090 C   0  0  0  0  0  0  0  0  0  0  0  0
  190.1080  177.0030  144.4660 S   0  0  0  0  0  0  0  0  0  0  0  0
  186.4420  178.0270  138.9440 O   0  0  0  0  0  1  0  0  0  0  0  0
  187.7760  178.3890  138.7540 C   0  0  2  0  0  3  0  0  0  0  0  0
  189.1740  177.9860  135.4670 C   0  0  0  0  0  3  0  0  0  0  0  0
  187.9770  176.7700  136.7800 C   0  0  0  0  0  0  0  0  0  0  0  0
  187.2070  175.6230  137.3450 C   0  0  0  0  0  1  0  0  0  0  0  0
  188.5840  175.7280  134.5830 C   0  0  0  0  0  1  0  0  0  0  0  0
  188.9820  178.7450  136.5710 N   0  0  0  0  0  0  0  0  0  0  0  0
  188.5710  176.7870  135.5780 N   0  0  0  0  0  0  0  0  0  0  0  0
  188.2260  177.9790  137.3870 C   0  0  0  0  0  0  0  0  0  0  0  0
  189.7480  177.0630  147.2100 C   0  0  0  0  0  2  0  0  0  0  0  0
  190.8620  176.1340  147.1150 N   0  0  0  0  0  2  0  0  0  0  0  0
  192.0730  176.3300  147.8440 C   0  0  0  0  0  0  0  0  0  0  0  0
  193.1070  175.4130  147.7170 O   0  0  0  0  0  0  0  0  0  0  0  0
  192.2130  177.3280  148.6000 O   0  0  0  0  0  1  0  0  0  0  0  0
  1 10  2  0  0  0  0
  2 26  1  0  0  0  0
  3  5  1  0  0  0  0
  4 15  2  0  0  0  0
  6 14  2  0  0  0  0
  7 13  2  0  0  0  0
  7  8  1  0  0  0  0
  8  3  2  0  0  0  0
  9  1  1  0  0  0  0
  9 12  2  0  0  0  0
 10  4  1  0  0  0  0
 10 13  1  0  0  0  0
 11  2  2  0  0  0  0
 12  4  1  0  0  0  0
 13  6  1  0  0  0  0
 14  5  1  0  0  0  0
 14 11  1  0  0  0  0
 15  6  1  0  0  0  0
 15 16  1  0  0  0  0
 16  2  1  0  0  0  0
 18 17  1  1  0  0  0
 18  1  1  0  0  0  0
 19 24  1  0  0  0  0
 19 23  2  0  0  0  0
 20 21  1  0  0  0  0
 20 25  2  0  0  0  0
 22 24  1  0  0  0  0
 23 25  1  0  0  0  0
 24 20  1  0  0  0  0
 25 18  1  0  0  0  0
 27 26  1  0  0  0  0
 27 28  1  0  0  0  0
 28 30  1  0  0  0  0
 29 28  2  0  0  0  0
M  END
>  <MODEL>
8

>  <REMARK>
 VINA RESULT:      -8.2      3.180      4.885
  Name = 
  4 active torsions:
  status: ('A' for Active; 'I' for Inactive)
    1  A    between atoms: C_2  and  C_26
    2  A    between atoms: C_3  and  C_9
    3  A    between atoms: C_9  and  N_11
    4  A    between atoms: C_26  and  C_30
                            x       y       z     vdW  Elec       q    Type
                         _______ _______ _______ _____ _____    ______ ____

>  <TORSDO>
F 4

$$$$
=
 OpenBabel10232408223D

 30 34  0  0  1  0  0  0  0  0999 V2000
  186.5500  178.4130  139.4250 C   0  0  0  0  0  0  0  0  0  0  0  0
  190.1860  177.7760  144.2670 C   0  0  0  0  0  0  0  0  0  0  0  0
  185.3490  178.6360  144.8020 C   0  0  0  0  0  3  0  0  0  0  0  0
  188.3180  177.9900  140.6260 C   0  0  0  0  0  0  0  0  0  0  0  0
  186.4390  177.6240  144.9570 C   0  0  0  0  0  2  0  0  0  0  0  0
  187.6160  178.0520  142.7810 C   0  0  0  0  0  0  0  0  0  0  0  0
  185.2860  178.6970  142.2870 C   0  0  0  0  0  2  0  0  0  0  0  0
  184.8230  179.0390  143.6450 C   0  0  0  0  0  3  0  0  0  0  0  0
  187.7360  178.3430  138.5330 C   0  0  0  0  0  3  0  0  0  0  0  0
  186.9940  178.1960  140.6480 C   0  0  0  0  0  0  0  0  0  0  0  0
  188.9120  177.7800  144.8620 C   0  0  0  0  0  3  0  0  0  0  0  0
  188.8310  178.0860  139.2710 C   0  0  0  0  0  3  0  0  0  0  0  0
  186.5080  178.2730  141.9490 C   0  0  0  0  0  0  0  0  0  0  0  0
  187.6800  177.9150  144.1780 C   0  0  0  0  0  0  0  0  0  0  0  0
  188.7770  177.9210  141.9120 C   0  0  2  0  0  3  0  0  0  0  0  0
  190.3140  177.8060  142.5700 S   0  0  0  0  0  0  0  0  0  0  0  0
  184.7080  179.8240  139.9230 O   0  0  0  0  0  1  0  0  0  0  0  0
  185.1690  178.8450  139.0430 C   0  0  2  0  0  3  0  0  0  0  0  0
  182.6920  176.3010  139.5970 C   0  0  0  0  0  3  0  0  0  0  0  0
  184.0840  176.7630  138.0210 C   0  0  0  0  0  0  0  0  0  0  0  0
  184.8330  176.7230  136.7310 C   0  0  0  0  0  1  0  0  0  0  0  0
  182.6250  174.7620  137.6330 C   0  0  0  0  0  1  0  0  0  0  0  0
  183.3530  177.4020  140.0230 N   0  0  0  0  0  0  0  0  0  0  0  0
  183.1230  175.9010  138.3850 N   0  0  0  0  0  0  0  0  0  0  0  0
  184.2270  177.6830  139.0330 C   0  0  0  0  0  0  0  0  0  0  0  0
  191.4060  177.6290  145.1070 C   0  0  0  0  0  2  0  0  0  0  0  0
  191.3620  176.3610  145.8170 N   0  0  0  0  0  2  0  0  0  0  0  0
  191.6630  176.2640  147.2080 C   0  0  0  0  0  0  0  0  0  0  0  0
  191.6060  175.0280  147.8380 O   0  0  0  0  0  0  0  0  0  0  0  0
  191.9800  177.2880  147.8700 O   0  0  0  0  0  1  0  0  0  0  0  0
  1 10  1  0  0  0  0
  2 11  2  0  0  0  0
  2 26  1  0  0  0  0
  3  5  1  0  0  0  0
  4 10  1  0  0  0  0
  6 14  2  0  0  0  0
  7  8  1  0  0  0  0
  8  3  2  0  0  0  0
  9 12  1  0  0  0  0
  9  1  2  0  0  0  0
 10 13  2  0  0  0  0
 12  4  2  0  0  0  0
 13  7  1  0  0  0  0
 13  6  1  0  0  0  0
 14 11  1  0  0  0  0
 14  5  1  0  0  0  0
 15  4  1  6  0  0  0
 15 16  1  0  0  0  0
 15  6  1  0  0  0  0
 16  2  1  0  0  0  0
 18  1  1  0  0  0  0
 18 17  1  1  0  0  0
 19 23  2  0  0  0  0
 20 24  1  0  0  0  0
 20 25  2  0  0  0  0
 21 20  1  0  0  0  0
 22 24  1  0  0  0  0
 24 19  1  0  0  0  0
 25 18  1  0  0  0  0
 25 23  1  0  0  0  0
 26 27  1  0  0  0  0
 27 28  1  0  0  0  0
 28 29  2  0  0  0  0
 28 30  1  0  0  0  0
M  END
>  <MODEL>
9

>  <REMARK>
 VINA RESULT:      -8.1      1.747      3.301
  Name = 
  4 active torsions:
  status: ('A' for Active; 'I' for Inactive)
    1  A    between atoms: C_2  and  C_26
    2  A    between atoms: C_3  and  C_9
    3  A    between atoms: C_9  and  N_11
    4  A    between atoms: C_26  and  C_30
                            x       y       z     vdW  Elec       q    Type
                         _______ _______ _______ _____ _____    ______ ____

>  <TORSDO>
F 4

$$$$
