=
 OpenBabel10232408263D

 45 51  0  0  1  0  0  0  0  0999 V2000
  187.3040  177.0420  137.1730 N   0  0  0  0  0  0  0  0  0  0  0  0
  188.6780  178.1510  140.3420 C   0  0  0  0  0  3  0  0  0  0  0  0
  188.6010  176.5300  137.0040 N   0  0  0  0  0  0  0  0  0  0  0  0
  187.5810  178.7530  140.9810 C   0  0  0  0  0  3  0  0  0  0  0  0
  192.8900  176.6780  139.2260 C   0  0  0  0  0  2  0  0  0  0  0  0
  190.6540  176.5950  138.3270 C   0  0  1  0  0  3  0  0  0  0  0  0
  186.3100  178.8010  140.3600 C   0  0  0  0  0  0  0  0  0  0  0  0
  188.4740  177.6180  139.0710 C   0  0  0  0  0  0  0  0  0  0  0  0
  191.4440  177.0480  139.5030 C   0  0  0  0  0  2  0  0  0  0  0  0
  189.3630  176.8980  138.1570 C   0  0  0  0  0  0  0  0  0  0  0  0
  193.0670  176.5980  137.7190 C   0  0  2  0  0  3  0  0  0  0  0  0
  186.1440  178.2520  139.0750 C   0  0  0  0  0  3  0  0  0  0  0  0
  187.2470  177.6700  138.4530 C   0  0  0  0  0  0  0  0  0  0  0  0
  191.5950  175.7670  137.0570 S   0  0  0  0  0  0  0  0  0  0  0  0
  194.2610  175.8290  137.4070 N   0  0  0  0  0  2  0  0  0  0  0  0
  195.1030  176.1300  136.2920 C   0  0  0  0  0  0  0  0  0  0  0  0
  194.8430  177.1150  135.5490 O   0  0  0  0  0  0  0  0  0  0  0  0
  195.3640  172.8310  136.1860 C   0  0  0  0  0  2  0  0  0  0  0  0
  196.2740  175.2920  136.0050 C   0  0  0  0  0  0  0  0  0  0  0  0
  197.5420  173.5360  135.7090 N   0  0  0  0  0  0  0  0  0  0  0  0
  197.5500  175.7560  135.9640 N   0  0  0  0  0  0  0  0  0  0  0  0
  196.2980  173.9220  135.8490 C   0  0  0  0  0  0  0  0  0  0  0  0
  196.3090  171.6040  136.1900 C   0  0  1  0  0  3  0  0  0  0  0  0
  197.7470  172.1320  135.9610 C   0  0  0  0  0  2  0  0  0  0  0  0
  199.7890  174.6300  135.8500 C   0  0  0  0  0  1  0  0  0  0  0  0
  198.3010  174.6390  135.7990 C   0  0  0  0  0  0  0  0  0  0  0  0
  196.2130  170.8930  137.5280 C   0  0  0  0  0  2  0  0  0  0  0  0
  195.2270  171.5500  138.3690 N   0  0  0  0  0  1  0  0  0  0  0  0
  186.0510  177.3950  135.0660 C   0  0  0  0  0  1  0  0  0  0  0  0
  186.1520  176.6140  136.3720 C   0  0  1  0  0  3  0  0  0  0  0  0
  186.1610  175.1670  136.1330 N   0  0  0  0  0  2  0  0  0  0  0  0
  186.2630  173.0870  137.3740 C   0  0  0  0  0  2  0  0  0  0  0  0
  184.8770  173.2170  136.7860 C   0  0  0  0  0  2  0  0  0  0  0  0
  185.6080  174.4500  137.2780 C   0  0  0  0  0  3  0  0  0  0  0  0
  185.1800  179.4260  140.9870 N   0  0  0  0  0  2  0  0  0  0  0  0
  184.6370  178.3050  144.6330 C   0  0  1  0  0  3  0  0  0  0  0  0
  183.1820  178.9370  142.2620 C   0  0  0  0  0  3  0  0  0  0  0  0
  182.4430  178.5380  143.5080 C   0  0  0  0  0  2  0  0  0  0  0  0
  183.2330  178.8870  144.7630 C   0  0  0  0  0  2  0  0  0  0  0  0
  185.3600  178.9660  143.4540 C   0  0  0  0  0  2  0  0  0  0  0  0
  184.5180  179.0470  142.2040 C   0  0  0  0  0  0  0  0  0  0  0  0
  186.5290  177.6330  145.9360 F   0  0  0  0  0  0  0  0  0  0  0  0
  185.4300  178.4750  145.9280 C   0  0  0  0  0  0  0  0  0  0  0  0
  184.6230  178.1760  147.0120 F   0  0  0  0  0  0  0  0  0  0  0  0
  185.8600  179.7830  146.0440 F   0  0  0  0  0  0  0  0  0  0  0  0
  1 13  1  0  0  0  0
  2  4  1  0  0  0  0
  3  1  1  0  0  0  0
  3 10  2  0  0  0  0
  5  9  1  0  0  0  0
  6 10  1  6  0  0  0
  6  9  1  0  0  0  0
  7  4  2  0  0  0  0
  7 35  1  0  0  0  0
  8  2  2  0  0  0  0
 10  8  1  0  0  0  0
 11 15  1  1  0  0  0
 11  5  1  0  0  0  0
 12  7  1  0  0  0  0
 13  8  1  0  0  0  0
 13 12  2  0  0  0  0
 14 11  1  0  0  0  0
 14  6  1  0  0  0  0
 16 15  1  0  0  0  0
 17 16  2  0  0  0  0
 18 23  1  0  0  0  0
 19 16  1  0  0  0  0
 20 26  1  0  0  0  0
 20 22  1  0  0  0  0
 20 24  1  0  0  0  0
 21 19  1  0  0  0  0
 22 19  2  0  0  0  0
 22 18  1  0  0  0  0
 23 27  1  1  0  0  0
 24 23  1  0  0  0  0
 26 25  1  0  0  0  0
 26 21  2  0  0  0  0
 27 28  1  0  0  0  0
 30 29  1  6  0  0  0
 30  1  1  0  0  0  0
 31 30  1  0  0  0  0
 31 34  1  0  0  0  0
 33 34  1  0  0  0  0
 33 32  1  0  0  0  0
 34 32  1  0  0  0  0
 35 41  1  0  0  0  0
 36 39  1  0  0  0  0
 36 43  1  1  0  0  0
 37 38  1  0  0  0  0
 38 39  1  0  0  0  0
 40 36  1  0  0  0  0
 41 37  2  0  0  0  0
 41 40  1  0  0  0  0
 43 42  1  0  0  0  0
 43 45  1  0  0  0  0
 43 44  1  0  0  0  0
M  END
>  <MODEL>
1

>  <REMARK>
 VINA RESULT:      -8.7      0.000      0.000
  Name = 
  9 active torsions:
  status: ('A' for Active; 'I' for Inactive)
    1  A    between atoms: C_1  and  C_25
    2  A    between atoms: N_2  and  C_29
    3  A    between atoms: N_2  and  C_43
    4  A    between atoms: N_3  and  C_37
    5  A    between atoms: N_6  and  C_38
    6  A    between atoms: C_12  and  C_28
    7  A    between atoms: N_17  and  C_37
    8  A    between atoms: N_17  and  C_39
    9  A    between atoms: C_20  and  C_23
                            x       y       z     vdW  Elec       q    Type
                         _______ _______ _______ _____ _____    ______ ____

>  <TORSDO>
F 9

$$$$
=
 OpenBabel10232408263D

 45 51  0  0  1  0  0  0  0  0999 V2000
  190.9480  177.4070  142.3520 N   0  0  0  0  0  0  0  0  0  0  0  0
  188.7900  177.6010  139.4410 C   0  0  0  0  0  3  0  0  0  0  0  0
  191.9080  177.0700  141.3840 N   0  0  0  0  0  0  0  0  0  0  0  0
  187.5600  178.0230  139.9740 C   0  0  0  0  0  3  0  0  0  0  0  0
  192.1220  176.0750  136.6600 C   0  0  0  0  0  2  0  0  0  0  0  0
  191.8580  176.7320  138.9660 C   0  0  1  0  0  3  0  0  0  0  0  0
  187.4110  178.2710  141.3590 C   0  0  0  0  0  0  0  0  0  0  0  0
  189.8520  177.4220  140.3270 C   0  0  0  0  0  0  0  0  0  0  0  0
  191.1370  176.6410  137.6670 C   0  0  0  0  0  2  0  0  0  0  0  0
  191.2500  177.0410  140.1150 C   0  0  0  0  0  0  0  0  0  0  0  0
  193.1570  175.2710  137.4270 C   0  0  2  0  0  3  0  0  0  0  0  0
  188.5060  178.0780  142.2220 C   0  0  0  0  0  3  0  0  0  0  0  0
  189.7150  177.6480  141.6760 C   0  0  0  0  0  0  0  0  0  0  0  0
  193.5670  176.2200  138.9190 S   0  0  0  0  0  0  0  0  0  0  0  0
  194.3430  175.0910  136.6050 N   0  0  0  0  0  2  0  0  0  0  0  0
  195.3940  174.1870  136.9550 C   0  0  0  0  0  0  0  0  0  0  0  0
  195.3040  173.4810  137.9940 O   0  0  0  0  0  0  0  0  0  0  0  0
  196.5800  171.5730  135.3040 C   0  0  0  0  0  2  0  0  0  0  0  0
  196.5870  174.0790  136.1040 C   0  0  0  0  0  0  0  0  0  0  0  0
  198.1370  173.2460  134.8070 N   0  0  0  0  0  0  0  0  0  0  0  0
  197.5660  175.0180  136.0430 N   0  0  0  0  0  0  0  0  0  0  0  0
  196.9650  172.9970  135.3360 C   0  0  0  0  0  0  0  0  0  0  0  0
  197.7900  170.9430  134.5710 C   0  0  1  0  0  3  0  0  0  0  0  0
  198.8280  172.0690  134.3460 C   0  0  0  0  0  2  0  0  0  0  0  0
  199.8530  175.0570  135.0130 C   0  0  0  0  0  1  0  0  0  0  0  0
  198.5110  174.4570  135.2490 C   0  0  0  0  0  0  0  0  0  0  0  0
  198.3830  169.8380  135.4260 C   0  0  0  0  0  2  0  0  0  0  0  0
  197.8080  168.5570  135.0510 N   0  0  0  0  0  1  0  0  0  0  0  0
  190.7690  179.2540  143.9920 C   0  0  0  0  0  1  0  0  0  0  0  0
  191.2830  177.8460  143.7110 C   0  0  1  0  0  3  0  0  0  0  0  0
  190.8170  176.8920  144.7230 N   0  0  0  0  0  2  0  0  0  0  0  0
  192.0650  175.8670  146.5310 C   0  0  0  0  0  2  0  0  0  0  0  0
  190.7450  176.3500  147.0850 C   0  0  0  0  0  2  0  0  0  0  0  0
  191.4530  177.1520  146.0110 C   0  0  0  0  0  3  0  0  0  0  0  0
  186.1600  178.6860  141.9260 N   0  0  0  0  0  2  0  0  0  0  0  0
  186.1790  177.9100  145.7000 C   0  0  1  0  0  3  0  0  0  0  0  0
  184.4500  178.8440  143.6310 C   0  0  0  0  0  3  0  0  0  0  0  0
  183.9350  178.7230  145.0380 C   0  0  0  0  0  2  0  0  0  0  0  0
  185.0550  178.8760  146.0590 C   0  0  0  0  0  2  0  0  0  0  0  0
  186.7650  178.2880  144.3340 C   0  0  0  0  0  2  0  0  0  0  0  0
  185.7160  178.5610  143.2860 C   0  0  0  0  0  0  0  0  0  0  0  0
  187.5360  176.5920  147.1670 F   0  0  0  0  0  0  0  0  0  0  0  0
  187.2620  177.8920  146.7770 C   0  0  0  0  0  0  0  0  0  0  0  0
  186.8370  178.6150  147.8780 F   0  0  0  0  0  0  0  0  0  0  0  0
  188.4180  178.4720  146.2860 F   0  0  0  0  0  0  0  0  0  0  0  0
  1 30  1  0  0  0  0
  2  4  2  0  0  0  0
  2  8  1  0  0  0  0
  3  1  1  0  0  0  0
  4  7  1  0  0  0  0
  5 11  1  0  0  0  0
  5  9  1  0  0  0  0
  6 10  1  1  0  0  0
  7 35  1  0  0  0  0
  7 12  2  0  0  0  0
  8 13  2  0  0  0  0
  9  6  1  0  0  0  0
 10  8  1  0  0  0  0
 10  3  2  0  0  0  0
 11 15  1  6  0  0  0
 11 14  1  0  0  0  0
 13 12  1  0  0  0  0
 13  1  1  0  0  0  0
 14  6  1  0  0  0  0
 15 16  1  0  0  0  0
 16 17  2  0  0  0  0
 18 22  1  0  0  0  0
 19 16  1  0  0  0  0
 20 26  1  0  0  0  0
 20 22  1  0  0  0  0
 21 19  1  0  0  0  0
 22 19  2  0  0  0  0
 23 18  1  0  0  0  0
 23 27  1  1  0  0  0
 24 23  1  0  0  0  0
 24 20  1  0  0  0  0
 25 26  1  0  0  0  0
 26 21  2  0  0  0  0
 28 27  1  0  0  0  0
 30 29  1  1  0  0  0
 30 31  1  0  0  0  0
 31 34  1  0  0  0  0
 32 33  1  0  0  0  0
 34 32  1  0  0  0  0
 34 33  1  0  0  0  0
 35 41  1  0  0  0  0
 36 39  1  0  0  0  0
 36 43  1  1  0  0  0
 37 38  1  0  0  0  0
 38 39  1  0  0  0  0
 40 36  1  0  0  0  0
 41 37  2  0  0  0  0
 41 40  1  0  0  0  0
 43 42  1  0  0  0  0
 43 44  1  0  0  0  0
 45 43  1  0  0  0  0
M  END
>  <MODEL>
2

>  <REMARK>
 VINA RESULT:      -8.6      2.930      4.591
  Name = 
  9 active torsions:
  status: ('A' for Active; 'I' for Inactive)
    1  A    between atoms: C_1  and  C_25
    2  A    between atoms: N_2  and  C_29
    3  A    between atoms: N_2  and  C_43
    4  A    between atoms: N_3  and  C_37
    5  A    between atoms: N_6  and  C_38
    6  A    between atoms: C_12  and  C_28
    7  A    between atoms: N_17  and  C_37
    8  A    between atoms: N_17  and  C_39
    9  A    between atoms: C_20  and  C_23
                            x       y       z     vdW  Elec       q    Type
                         _______ _______ _______ _____ _____    ______ ____

>  <TORSDO>
F 9

$$$$
=
 OpenBabel10232408263D

 45 51  0  0  1  0  0  0  0  0999 V2000
  188.5840  177.1230  143.9020 N   0  0  0  0  0  0  0  0  0  0  0  0
  186.5330  178.5660  141.2810 C   0  0  0  0  0  3  0  0  0  0  0  0
  189.5270  177.0470  142.8640 N   0  0  0  0  0  0  0  0  0  0  0  0
  185.3430  178.9040  141.9460 C   0  0  0  0  0  3  0  0  0  0  0  0
  189.7490  177.7680  138.0910 C   0  0  0  0  0  2  0  0  0  0  0  0
  189.5000  177.5920  140.4830 C   0  0  1  0  0  3  0  0  0  0  0  0
  185.1870  178.6620  143.3320 C   0  0  0  0  0  0  0  0  0  0  0  0
  187.5470  177.9710  142.0300 C   0  0  0  0  0  0  0  0  0  0  0  0
  188.8070  178.0450  139.2470 C   0  0  0  0  0  2  0  0  0  0  0  0
  188.9010  177.5400  141.6770 C   0  0  0  0  0  0  0  0  0  0  0  0
  190.6730  176.6360  138.5080 C   0  0  2  0  0  3  0  0  0  0  0  0
  186.2330  178.0580  144.0540 C   0  0  0  0  0  3  0  0  0  0  0  0
  187.4020  177.7200  143.3740 C   0  0  0  0  0  0  0  0  0  0  0  0
  191.1450  176.9460  140.2330 S   0  0  0  0  0  0  0  0  0  0  0  0
  191.8530  176.6300  137.6580 N   0  0  0  0  0  2  0  0  0  0  0  0
  192.5480  175.4300  137.3110 C   0  0  0  0  0  0  0  0  0  0  0  0
  192.1260  174.3130  137.7160 O   0  0  0  0  0  0  0  0  0  0  0  0
  194.8260  173.1010  136.7210 C   0  0  0  0  0  2  0  0  0  0  0  0
  193.7580  175.4920  136.4810 C   0  0  0  0  0  0  0  0  0  0  0  0
  195.6250  174.9250  135.4950 N   0  0  0  0  0  0  0  0  0  0  0  0
  194.2820  176.6430  135.9850 N   0  0  0  0  0  0  0  0  0  0  0  0
  194.6060  174.4510  136.1680 C   0  0  0  0  0  0  0  0  0  0  0  0
  196.2500  172.7820  136.2000 C   0  0  1  0  0  3  0  0  0  0  0  0
  196.7680  174.0490  135.4770 C   0  0  0  0  0  2  0  0  0  0  0  0
  196.4480  177.1990  134.8490 C   0  0  0  0  0  1  0  0  0  0  0  0
  195.4420  176.2510  135.4020 C   0  0  0  0  0  0  0  0  0  0  0  0
  197.1520  172.4330  137.3690 C   0  0  0  0  0  2  0  0  0  0  0  0
  197.5180  171.0270  137.3110 N   0  0  0  0  0  1  0  0  0  0  0  0
  190.4200  176.7450  145.5220 C   0  0  0  0  0  1  0  0  0  0  0  0
  188.9320  177.0140  145.3240 C   0  0  1  0  0  3  0  0  0  0  0  0
  188.4930  178.1890  146.0840 N   0  0  0  0  0  2  0  0  0  0  0  0
  188.1150  177.0460  148.1880 C   0  0  0  0  0  2  0  0  0  0  0  0
  187.7910  178.5090  148.3820 C   0  0  0  0  0  2  0  0  0  0  0  0
  188.9330  178.1020  147.4730 C   0  0  0  0  0  3  0  0  0  0  0  0
  183.9730  178.9830  144.0270 N   0  0  0  0  0  2  0  0  0  0  0  0
  180.9670  178.9530  141.6170 C   0  0  1  0  0  3  0  0  0  0  0  0
  181.5920  178.7490  144.3930 C   0  0  0  0  0  3  0  0  0  0  0  0
  180.1620  178.6570  143.9400 C   0  0  0  0  0  2  0  0  0  0  0  0
  180.0590  178.1220  142.5180 C   0  0  0  0  0  2  0  0  0  0  0  0
  182.4260  178.7760  142.0550 C   0  0  0  0  0  2  0  0  0  0  0  0
  182.6230  178.8940  143.5460 C   0  0  0  0  0  0  0  0  0  0  0  0
  180.1060  177.3760  140.0350 F   0  0  0  0  0  0  0  0  0  0  0  0
  180.7850  178.5780  140.1480 C   0  0  0  0  0  0  0  0  0  0  0  0
  182.0230  178.4570  139.5400 F   0  0  0  0  0  0  0  0  0  0  0  0
  180.0680  179.5660  139.4990 F   0  0  0  0  0  0  0  0  0  0  0  0
  1 30  1  0  0  0  0
  2  4  2  0  0  0  0
  2  8  1  0  0  0  0
  3  1  1  0  0  0  0
  4  7  1  0  0  0  0
  5 11  1  0  0  0  0
  5  9  1  0  0  0  0
  6 10  1  6  0  0  0
  7 35  1  0  0  0  0
  7 12  2  0  0  0  0
  8 13  2  0  0  0  0
  9  6  1  0  0  0  0
 10  8  1  0  0  0  0
 10  3  2  0  0  0  0
 11 15  1  6  0  0  0
 11 14  1  0  0  0  0
 13  1  1  0  0  0  0
 13 12  1  0  0  0  0
 14  6  1  0  0  0  0
 16 15  1  0  0  0  0
 16 17  2  0  0  0  0
 19 16  1  0  0  0  0
 20 22  1  0  0  0  0
 21 19  1  0  0  0  0
 22 19  2  0  0  0  0
 22 18  1  0  0  0  0
 23 18  1  0  0  0  0
 23 27  1  1  0  0  0
 24 20  1  0  0  0  0
 24 23  1  0  0  0  0
 25 26  1  0  0  0  0
 26 20  1  0  0  0  0
 26 21  2  0  0  0  0
 28 27  1  0  0  0  0
 30 29  1  6  0  0  0
 30 31  1  0  0  0  0
 31 34  1  0  0  0  0
 32 33  1  0  0  0  0
 34 32  1  0  0  0  0
 34 33  1  0  0  0  0
 36 43  1  6  0  0  0
 36 40  1  0  0  0  0
 36 39  1  0  0  0  0
 38 37  1  0  0  0  0
 39 38  1  0  0  0  0
 40 41  1  0  0  0  0
 41 35  1  0  0  0  0
 41 37  2  0  0  0  0
 42 43  1  0  0  0  0
 44 43  1  0  0  0  0
 45 43  1  0  0  0  0
M  END
>  <MODEL>
3

>  <REMARK>
 VINA RESULT:      -8.4      3.383      5.664
  Name = 
  9 active torsions:
  status: ('A' for Active; 'I' for Inactive)
    1  A    between atoms: C_1  and  C_25
    2  A    between atoms: N_2  and  C_29
    3  A    between atoms: N_2  and  C_43
    4  A    between atoms: N_3  and  C_37
    5  A    between atoms: N_6  and  C_38
    6  A    between atoms: C_12  and  C_28
    7  A    between atoms: N_17  and  C_37
    8  A    between atoms: N_17  and  C_39
    9  A    between atoms: C_20  and  C_23
                            x       y       z     vdW  Elec       q    Type
                         _______ _______ _______ _____ _____    ______ ____

>  <TORSDO>
F 9

$$$$
=
 OpenBabel10232408263D

 45 51  0  0  1  0  0  0  0  0999 V2000
  187.2880  177.3450  137.2540 N   0  0  0  0  0  0  0  0  0  0  0  0
  188.8660  178.0270  140.4480 C   0  0  0  0  0  3  0  0  0  0  0  0
  188.5590  176.8320  136.9480 N   0  0  0  0  0  0  0  0  0  0  0  0
  187.8230  178.5670  141.2200 C   0  0  0  0  0  3  0  0  0  0  0  0
  192.9690  176.6220  138.9130 C   0  0  0  0  0  2  0  0  0  0  0  0
  190.6830  176.6940  138.1440 C   0  0  1  0  0  3  0  0  0  0  0  0
  186.5210  178.7150  140.6850 C   0  0  0  0  0  0  0  0  0  0  0  0
  188.5770  177.6590  139.1350 C   0  0  0  0  0  0  0  0  0  0  0  0
  191.5510  176.9820  139.3180 C   0  0  0  0  0  2  0  0  0  0  0  0
  189.3940  177.0400  138.0900 C   0  0  0  0  0  0  0  0  0  0  0  0
  193.0580  176.7250  137.4000 C   0  0  2  0  0  3  0  0  0  0  0  0
  186.2680  178.3330  139.3550 C   0  0  0  0  0  3  0  0  0  0  0  0
  187.3190  177.8100  138.6020 C   0  0  0  0  0  0  0  0  0  0  0  0
  191.5300  176.0100  136.7290 S   0  0  0  0  0  0  0  0  0  0  0  0
  194.2120  175.9780  136.9260 N   0  0  0  0  0  2  0  0  0  0  0  0
  194.4480  174.6140  137.2850 C   0  0  0  0  0  0  0  0  0  0  0  0
  193.6250  173.9980  138.0140 O   0  0  0  0  0  0  0  0  0  0  0  0
  194.8880  171.4260  136.5070 C   0  0  0  0  0  2  0  0  0  0  0  0
  195.6530  173.9250  136.8070 C   0  0  0  0  0  0  0  0  0  0  0  0
  197.0060  172.3450  136.1320 N   0  0  0  0  0  0  0  0  0  0  0  0
  196.8990  174.4650  136.8310 N   0  0  0  0  0  0  0  0  0  0  0  0
  195.7480  172.6180  136.3760 C   0  0  0  0  0  0  0  0  0  0  0  0
  195.9000  170.2840  136.2400 C   0  0  1  0  0  3  0  0  0  0  0  0
  197.2970  170.9350  136.0900 C   0  0  0  0  0  2  0  0  0  0  0  0
  199.1920  173.5250  136.4400 C   0  0  0  0  0  1  0  0  0  0  0  0
  197.7050  173.4520  136.4260 C   0  0  0  0  0  0  0  0  0  0  0  0
  195.8910  169.3140  137.4070 C   0  0  0  0  0  2  0  0  0  0  0  0
  195.2250  169.9180  138.5500 N   0  0  0  0  0  1  0  0  0  0  0  0
  186.3440  177.1110  134.9760 C   0  0  0  0  0  1  0  0  0  0  0  0
  186.0810  177.0410  136.4770 C   0  0  1  0  0  3  0  0  0  0  0  0
  185.4950  175.7520  136.8600 N   0  0  0  0  0  2  0  0  0  0  0  0
  183.4590  176.3730  138.0190 C   0  0  0  0  0  2  0  0  0  0  0  0
  183.4370  174.8780  137.7970 C   0  0  0  0  0  2  0  0  0  0  0  0
  184.0400  175.7900  136.7470 C   0  0  0  0  0  3  0  0  0  0  0  0
  185.4460  179.2790  141.4500 N   0  0  0  0  0  2  0  0  0  0  0  0
  185.6050  178.0790  145.1080 C   0  0  1  0  0  3  0  0  0  0  0  0
  183.7540  179.0450  143.1640 C   0  0  0  0  0  3  0  0  0  0  0  0
  183.2760  178.7060  144.5490 C   0  0  0  0  0  2  0  0  0  0  0  0
  184.3860  178.8650  145.5790 C   0  0  0  0  0  2  0  0  0  0  0  0
  186.1270  178.6770  143.7950 C   0  0  0  0  0  2  0  0  0  0  0  0
  185.0380  178.9490  142.7870 C   0  0  0  0  0  0  0  0  0  0  0  0
  186.7870  176.8040  146.7540 F   0  0  0  0  0  0  0  0  0  0  0  0
  186.6990  178.0590  146.1740 C   0  0  0  0  0  0  0  0  0  0  0  0
  186.4110  178.9920  147.1560 F   0  0  0  0  0  0  0  0  0  0  0  0
  187.9160  178.3810  145.6020 F   0  0  0  0  0  0  0  0  0  0  0  0
  1 13  1  0  0  0  0
  2  4  1  0  0  0  0
  3  1  1  0  0  0  0
  3 10  2  0  0  0  0
  5  9  1  0  0  0  0
  6 10  1  6  0  0  0
  6  9  1  0  0  0  0
  7  4  2  0  0  0  0
  7 35  1  0  0  0  0
  8  2  2  0  0  0  0
 10  8  1  0  0  0  0
 11 15  1  6  0  0  0
 11  5  1  0  0  0  0
 12  7  1  0  0  0  0
 13  8  1  0  0  0  0
 13 12  2  0  0  0  0
 14 11  1  0  0  0  0
 14  6  1  0  0  0  0
 15 16  1  0  0  0  0
 16 17  2  0  0  0  0
 19 21  1  0  0  0  0
 19 16  1  0  0  0  0
 20 22  1  0  0  0  0
 20 26  1  0  0  0  0
 22 18  1  0  0  0  0
 22 19  2  0  0  0  0
 23 18  1  0  0  0  0
 23 27  1  1  0  0  0
 24 20  1  0  0  0  0
 24 23  1  0  0  0  0
 26 25  1  0  0  0  0
 26 21  2  0  0  0  0
 27 28  1  0  0  0  0
 30 29  1  6  0  0  0
 30 31  1  0  0  0  0
 30  1  1  0  0  0  0
 33 32  1  0  0  0  0
 34 31  1  0  0  0  0
 34 33  1  0  0  0  0
 34 32  1  0  0  0  0
 35 41  1  0  0  0  0
 36 39  1  0  0  0  0
 36 43  1  1  0  0  0
 37 38  1  0  0  0  0
 38 39  1  0  0  0  0
 40 36  1  0  0  0  0
 41 37  2  0  0  0  0
 41 40  1  0  0  0  0
 43 42  1  0  0  0  0
 43 44  1  0  0  0  0
 45 43  1  0  0  0  0
M  END
>  <MODEL>
4

>  <REMARK>
 VINA RESULT:      -7.7      1.343      1.492
  Name = 
  9 active torsions:
  status: ('A' for Active; 'I' for Inactive)
    1  A    between atoms: C_1  and  C_25
    2  A    between atoms: N_2  and  C_29
    3  A    between atoms: N_2  and  C_43
    4  A    between atoms: N_3  and  C_37
    5  A    between atoms: N_6  and  C_38
    6  A    between atoms: C_12  and  C_28
    7  A    between atoms: N_17  and  C_37
    8  A    between atoms: N_17  and  C_39
    9  A    between atoms: C_20  and  C_23
                            x       y       z     vdW  Elec       q    Type
                         _______ _______ _______ _____ _____    ______ ____

>  <TORSDO>
F 9

$$$$
=
 OpenBabel10232408263D

 45 51  0  0  1  0  0  0  0  0999 V2000
  190.2420  175.5060  135.9590 N   0  0  0  0  0  0  0  0  0  0  0  0
  193.2930  176.4510  137.6780 C   0  0  0  0  0  3  0  0  0  0  0  0
  189.6470  176.0460  137.1120 N   0  0  0  0  0  0  0  0  0  0  0  0
  194.3030  176.1140  136.7610 C   0  0  0  0  0  3  0  0  0  0  0  0
  190.9770  177.7460  141.4360 C   0  0  0  0  0  2  0  0  0  0  0  0
  190.5010  177.0000  139.1920 C   0  0  1  0  0  3  0  0  0  0  0  0
  193.9870  175.5530  135.5010 C   0  0  0  0  0  0  0  0  0  0  0  0
  191.9730  176.1990  137.3090 C   0  0  0  0  0  0  0  0  0  0  0  0
  191.6130  177.3600  140.1130 C   0  0  0  0  0  2  0  0  0  0  0  0
  190.7010  176.4600  137.9860 C   0  0  0  0  0  0  0  0  0  0  0  0
  189.6300  177.0500  141.5220 C   0  0  2  0  0  3  0  0  0  0  0  0
  192.6420  175.3120  135.1650 C   0  0  0  0  0  3  0  0  0  0  0  0
  191.6550  175.6430  136.0930 C   0  0  0  0  0  0  0  0  0  0  0  0
  188.8640  177.1730  139.8800 S   0  0  0  0  0  0  0  0  0  0  0  0
  188.7990  177.7140  142.5140 N   0  0  0  0  0  2  0  0  0  0  0  0
  187.8540  177.0100  143.3240 C   0  0  0  0  0  0  0  0  0  0  0  0
  187.7360  175.7600  143.2200 O   0  0  0  0  0  0  0  0  0  0  0  0
  188.5300  177.9740  146.4190 C   0  0  0  0  0  2  0  0  0  0  0  0
  187.0150  177.7420  144.2820 C   0  0  0  0  0  0  0  0  0  0  0  0
  186.3390  178.7280  146.1120 N   0  0  0  0  0  0  0  0  0  0  0  0
  185.6820  177.9470  144.1240 N   0  0  0  0  0  0  0  0  0  0  0  0
  187.3930  178.2300  145.5160 C   0  0  0  0  0  0  0  0  0  0  0  0
  187.9700  178.4760  147.7730 C   0  0  1  0  0  3  0  0  0  0  0  0
  186.4930  178.8780  147.5360 C   0  0  0  0  0  2  0  0  0  0  0  0
  183.8820  178.8190  145.6390 C   0  0  0  0  0  1  0  0  0  0  0  0
  185.3010  178.5400  145.2820 C   0  0  0  0  0  0  0  0  0  0  0  0
  188.0580  177.3660  148.8030 C   0  0  0  0  0  2  0  0  0  0  0  0
  188.2330  176.0850  148.1390 N   0  0  0  0  0  1  0  0  0  0  0  0
  189.4690  173.7840  134.3550 C   0  0  0  0  0  1  0  0  0  0  0  0
  189.5150  175.2680  134.7070 C   0  0  1  0  0  3  0  0  0  0  0  0
  188.1710  175.8550  134.7360 N   0  0  0  0  0  2  0  0  0  0  0  0
  187.5500  178.0080  135.6600 C   0  0  0  0  0  2  0  0  0  0  0  0
  186.8220  177.8310  134.3480 C   0  0  0  0  0  2  0  0  0  0  0  0
  188.2310  177.2960  134.5090 C   0  0  0  0  0  3  0  0  0  0  0  0
  195.0030  175.1850  134.5560 N   0  0  0  0  0  2  0  0  0  0  0  0
  197.8770  172.9620  135.8370 C   0  0  1  0  0  3  0  0  0  0  0  0
  197.4100  175.4210  134.4680 C   0  0  0  0  0  3  0  0  0  0  0  0
  198.8190  174.9660  134.7290 C   0  0  0  0  0  2  0  0  0  0  0  0
  198.9090  173.4490  134.8250 C   0  0  0  0  0  2  0  0  0  0  0  0
  196.4670  173.2940  135.3350 C   0  0  0  0  0  2  0  0  0  0  0  0
  196.3310  174.7060  134.8210 C   0  0  0  0  0  0  0  0  0  0  0  0
  199.3020  171.0390  135.7770 F   0  0  0  0  0  0  0  0  0  0  0  0
  198.0260  171.4650  136.1050 C   0  0  0  0  0  0  0  0  0  0  0  0
  197.1050  170.7610  135.3500 F   0  0  0  0  0  0  0  0  0  0  0  0
  197.7920  171.2050  137.4430 F   0  0  0  0  0  0  0  0  0  0  0  0
  1 13  1  0  0  0  0
  1  3  1  0  0  0  0
  3 10  2  0  0  0  0
  4  2  2  0  0  0  0
  5 11  1  0  0  0  0
  6 10  1  1  0  0  0
  6 14  1  0  0  0  0
  6  9  1  0  0  0  0
  7  4  1  0  0  0  0
  8  2  1  0  0  0  0
  8 10  1  0  0  0  0
  9  5  1  0  0  0  0
 11 15  1  1  0  0  0
 12  7  2  0  0  0  0
 12 13  1  0  0  0  0
 13  8  2  0  0  0  0
 14 11  1  0  0  0  0
 15 16  1  0  0  0  0
 16 19  1  0  0  0  0
 17 16  2  0  0  0  0
 18 23  1  0  0  0  0
 19 22  2  0  0  0  0
 20 24  1  0  0  0  0
 21 19  1  0  0  0  0
 21 26  2  0  0  0  0
 22 20  1  0  0  0  0
 22 18  1  0  0  0  0
 23 27  1  1  0  0  0
 24 23  1  0  0  0  0
 26 25  1  0  0  0  0
 26 20  1  0  0  0  0
 28 27  1  0  0  0  0
 30 29  1  1  0  0  0
 30 31  1  0  0  0  0
 30  1  1  0  0  0  0
 33 34  1  0  0  0  0
 33 32  1  0  0  0  0
 34 31  1  0  0  0  0
 34 32  1  0  0  0  0
 35 41  1  0  0  0  0
 35  7  1  0  0  0  0
 36 43  1  6  0  0  0
 37 38  1  0  0  0  0
 37 41  2  0  0  0  0
 38 39  1  0  0  0  0
 39 36  1  0  0  0  0
 40 36  1  0  0  0  0
 41 40  1  0  0  0  0
 42 43  1  0  0  0  0
 43 45  1  0  0  0  0
 44 43  1  0  0  0  0
M  END
>  <MODEL>
5

>  <REMARK>
 VINA RESULT:      -6.8      5.256     12.029
  Name = 
  9 active torsions:
  status: ('A' for Active; 'I' for Inactive)
    1  A    between atoms: C_1  and  C_25
    2  A    between atoms: N_2  and  C_29
    3  A    between atoms: N_2  and  C_43
    4  A    between atoms: N_3  and  C_37
    5  A    between atoms: N_6  and  C_38
    6  A    between atoms: C_12  and  C_28
    7  A    between atoms: N_17  and  C_37
    8  A    between atoms: N_17  and  C_39
    9  A    between atoms: C_20  and  C_23
                            x       y       z     vdW  Elec       q    Type
                         _______ _______ _______ _____ _____    ______ ____

>  <TORSDO>
F 9

$$$$
=
 OpenBabel10232408263D

 45 51  0  0  1  0  0  0  0  0999 V2000
  189.9850  176.2360  136.4410 N   0  0  0  0  0  0  0  0  0  0  0  0
  193.1710  176.5400  138.1500 C   0  0  0  0  0  3  0  0  0  0  0  0
  189.4850  176.5600  137.7130 N   0  0  0  0  0  0  0  0  0  0  0  0
  194.1120  176.3300  137.1280 C   0  0  0  0  0  3  0  0  0  0  0  0
  191.1200  177.1730  142.2190 C   0  0  0  0  0  2  0  0  0  0  0  0
  190.4970  176.9710  139.8970 C   0  0  1  0  0  3  0  0  0  0  0  0
  193.7000  176.0820  135.7970 C   0  0  0  0  0  0  0  0  0  0  0  0
  191.8200  176.4810  137.8090 C   0  0  0  0  0  0  0  0  0  0  0  0
  191.6690  177.0320  140.8110 C   0  0  0  0  0  2  0  0  0  0  0  0
  190.6030  176.6890  138.5950 C   0  0  0  0  0  0  0  0  0  0  0  0
  189.7190  176.5840  142.2290 C   0  0  2  0  0  3  0  0  0  0  0  0
  192.3270  176.0280  135.4920 C   0  0  0  0  0  3  0  0  0  0  0  0
  191.4090  176.2280  136.5220 C   0  0  0  0  0  0  0  0  0  0  0  0
  188.9080  177.1200  140.6960 S   0  0  0  0  0  0  0  0  0  0  0  0
  188.9890  177.0820  143.3840 N   0  0  0  0  0  2  0  0  0  0  0  0
  189.3610  176.7650  144.7270 C   0  0  0  0  0  0  0  0  0  0  0  0
  190.3770  176.0540  144.9530 O   0  0  0  0  0  0  0  0  0  0  0  0
  186.1950  177.7310  144.8000 C   0  0  0  0  0  2  0  0  0  0  0  0
  188.5600  177.2650  145.8520 C   0  0  0  0  0  0  0  0  0  0  0  0
  186.8850  178.0620  147.0090 N   0  0  0  0  0  0  0  0  0  0  0  0
  189.0810  177.6490  147.0470 N   0  0  0  0  0  0  0  0  0  0  0  0
  187.2070  177.5340  145.8550 C   0  0  0  0  0  0  0  0  0  0  0  0
  185.0890  178.4940  145.5710 C   0  0  1  0  0  3  0  0  0  0  0  0
  185.6290  178.7680  146.9960 C   0  0  0  0  0  2  0  0  0  0  0  0
  188.1290  178.8400  149.0380 C   0  0  0  0  0  1  0  0  0  0  0  0
  188.0180  178.1510  147.7230 C   0  0  0  0  0  0  0  0  0  0  0  0
  184.7830  179.8000  144.8610 C   0  0  0  0  0  2  0  0  0  0  0  0
  184.5960  179.5590  143.4390 N   0  0  0  0  0  1  0  0  0  0  0  0
  189.0480  174.9780  134.5240 C   0  0  0  0  0  1  0  0  0  0  0  0
  189.1950  176.3330  135.2080 C   0  0  1  0  0  3  0  0  0  0  0  0
  187.8890  176.9590  135.4450 N   0  0  0  0  0  2  0  0  0  0  0  0
  185.4850  176.6510  135.4190 C   0  0  0  0  0  2  0  0  0  0  0  0
  186.0130  176.1220  136.7320 C   0  0  0  0  0  2  0  0  0  0  0  0
  186.8300  175.9550  135.4660 C   0  0  0  0  0  3  0  0  0  0  0  0
  194.6440  175.8470  134.7410 N   0  0  0  0  0  2  0  0  0  0  0  0
  198.1070  174.1600  134.6550 C   0  0  1  0  0  3  0  0  0  0  0  0
  195.3290  173.5450  134.4460 C   0  0  0  0  0  3  0  0  0  0  0  0
  196.3480  172.4440  134.3490 C   0  0  0  0  0  2  0  0  0  0  0  0
  197.6200  172.7890  135.1130 C   0  0  0  0  0  2  0  0  0  0  0  0
  197.0650  175.2250  135.0190 C   0  0  0  0  0  2  0  0  0  0  0  0
  195.6540  174.8290  134.6620 C   0  0  0  0  0  0  0  0  0  0  0  0
  199.3160  175.0710  136.5090 F   0  0  0  0  0  0  0  0  0  0  0  0
  199.4690  174.4950  135.2590 C   0  0  0  0  0  0  0  0  0  0  0  0
  200.1410  175.3790  134.4330 F   0  0  0  0  0  0  0  0  0  0  0  0
  200.2230  173.3420  135.3800 F   0  0  0  0  0  0  0  0  0  0  0  0
  1 13  1  0  0  0  0
  1  3  1  0  0  0  0
  3 10  2  0  0  0  0
  4  2  2  0  0  0  0
  5 11  1  0  0  0  0
  6 10  1  1  0  0  0
  6 14  1  0  0  0  0
  6  9  1  0  0  0  0
  7  4  1  0  0  0  0
  8  2  1  0  0  0  0
  8 10  1  0  0  0  0
  9  5  1  0  0  0  0
 11 15  1  1  0  0  0
 12  7  2  0  0  0  0
 12 13  1  0  0  0  0
 13  8  2  0  0  0  0
 14 11  1  0  0  0  0
 15 16  1  0  0  0  0
 16 17  2  0  0  0  0
 16 19  1  0  0  0  0
 18 23  1  0  0  0  0
 18 22  1  0  0  0  0
 19 22  2  0  0  0  0
 19 21  1  0  0  0  0
 20 26  1  0  0  0  0
 21 26  2  0  0  0  0
 22 20  1  0  0  0  0
 23 27  1  6  0  0  0
 23 24  1  0  0  0  0
 24 20  1  0  0  0  0
 26 25  1  0  0  0  0
 28 27  1  0  0  0  0
 30 29  1  1  0  0  0
 30 31  1  0  0  0  0
 30  1  1  0  0  0  0
 31 34  1  0  0  0  0
 32 34  1  0  0  0  0
 32 33  1  0  0  0  0
 34 33  1  0  0  0  0
 35  7  1  0  0  0  0
 36 40  1  0  0  0  0
 36 39  1  0  0  0  0
 36 43  1  1  0  0  0
 37 41  2  0  0  0  0
 38 37  1  0  0  0  0
 38 39  1  0  0  0  0
 41 35  1  0  0  0  0
 41 40  1  0  0  0  0
 43 45  1  0  0  0  0
 43 42  1  0  0  0  0
 44 43  1  0  0  0  0
M  END
>  <MODEL>
6

>  <REMARK>
 VINA RESULT:      -6.6      5.406     11.949
  Name = 
  9 active torsions:
  status: ('A' for Active; 'I' for Inactive)
    1  A    between atoms: C_1  and  C_25
    2  A    between atoms: N_2  and  C_29
    3  A    between atoms: N_2  and  C_43
    4  A    between atoms: N_3  and  C_37
    5  A    between atoms: N_6  and  C_38
    6  A    between atoms: C_12  and  C_28
    7  A    between atoms: N_17  and  C_37
    8  A    between atoms: N_17  and  C_39
    9  A    between atoms: C_20  and  C_23
                            x       y       z     vdW  Elec       q    Type
                         _______ _______ _______ _____ _____    ______ ____

>  <TORSDO>
F 9

$$$$
=
 OpenBabel10232408263D

 45 51  0  0  1  0  0  0  0  0999 V2000
  187.6580  176.8710  136.6140 N   0  0  0  0  0  0  0  0  0  0  0  0
  189.0020  177.8710  139.8320 C   0  0  0  0  0  3  0  0  0  0  0  0
  188.9650  176.3920  136.4280 N   0  0  0  0  0  0  0  0  0  0  0  0
  187.8920  178.4220  140.4930 C   0  0  0  0  0  3  0  0  0  0  0  0
  193.2460  176.5320  138.6660 C   0  0  0  0  0  2  0  0  0  0  0  0
  191.0130  176.4420  137.7570 C   0  0  1  0  0  3  0  0  0  0  0  0
  186.6220  178.4710  139.8710 C   0  0  0  0  0  0  0  0  0  0  0  0
  188.8120  177.3880  138.5380 C   0  0  0  0  0  0  0  0  0  0  0  0
  191.7920  176.8600  138.9540 C   0  0  0  0  0  2  0  0  0  0  0  0
  189.7170  176.7260  137.5970 C   0  0  0  0  0  0  0  0  0  0  0  0
  193.4270  176.5190  137.1570 C   0  0  2  0  0  3  0  0  0  0  0  0
  186.4690  177.9750  138.5630 C   0  0  0  0  0  3  0  0  0  0  0  0
  187.5850  177.4410  137.9200 C   0  0  0  0  0  0  0  0  0  0  0  0
  191.9740  175.6870  136.4560 S   0  0  0  0  0  0  0  0  0  0  0  0
  194.6370  175.7890  136.8160 N   0  0  0  0  0  2  0  0  0  0  0  0
  194.9240  174.4880  137.3340 C   0  0  0  0  0  0  0  0  0  0  0  0
  194.1010  173.9110  138.0940 O   0  0  0  0  0  0  0  0  0  0  0  0
  195.4230  171.5130  135.9690 C   0  0  0  0  0  2  0  0  0  0  0  0
  196.1830  173.8170  136.9840 C   0  0  0  0  0  0  0  0  0  0  0  0
  197.6000  172.3090  136.2780 N   0  0  0  0  0  0  0  0  0  0  0  0
  197.4080  174.2330  137.3980 N   0  0  0  0  0  0  0  0  0  0  0  0
  196.3300  172.6280  136.3000 C   0  0  0  0  0  0  0  0  0  0  0  0
  196.4300  170.3730  135.6760 C   0  0  1  0  0  3  0  0  0  0  0  0
  197.8450  170.9210  135.9820 C   0  0  0  0  0  2  0  0  0  0  0  0
  199.6960  173.2080  137.3080 C   0  0  0  0  0  1  0  0  0  0  0  0
  198.2500  173.2650  136.9580 C   0  0  0  0  0  0  0  0  0  0  0  0
  196.1200  169.1810  136.5630 C   0  0  0  0  0  2  0  0  0  0  0  0
  195.4760  169.6270  137.7870 N   0  0  0  0  0  1  0  0  0  0  0  0
  186.3400  177.3520  134.5730 C   0  0  0  0  0  1  0  0  0  0  0  0
  186.5160  176.4540  135.7930 C   0  0  1  0  0  3  0  0  0  0  0  0
  186.6050  175.0400  135.4110 N   0  0  0  0  0  2  0  0  0  0  0  0
  185.9360  173.7280  137.3370 C   0  0  0  0  0  2  0  0  0  0  0  0
  185.9240  172.8260  136.1250 C   0  0  0  0  0  2  0  0  0  0  0  0
  185.5050  174.2760  135.9910 C   0  0  0  0  0  3  0  0  0  0  0  0
  185.4790  179.0460  140.5210 N   0  0  0  0  0  2  0  0  0  0  0  0
  181.9450  179.8060  139.1870 C   0  0  1  0  0  3  0  0  0  0  0  0
  183.4210  177.7730  140.5400 C   0  0  0  0  0  3  0  0  0  0  0  0
  181.9680  177.5560  140.2210 C   0  0  0  0  0  2  0  0  0  0  0  0
  181.5390  178.3480  138.9930 C   0  0  0  0  0  2  0  0  0  0  0  0
  183.4730  179.9070  139.2720 C   0  0  0  0  0  2  0  0  0  0  0  0
  184.0910  178.8810  140.1890 C   0  0  0  0  0  0  0  0  0  0  0  0
  180.0210  180.7970  138.1640 F   0  0  0  0  0  0  0  0  0  0  0  0
  181.3980  180.6880  138.0660 C   0  0  0  0  0  0  0  0  0  0  0  0
  181.7220  180.1380  136.8380 F   0  0  0  0  0  0  0  0  0  0  0  0
  181.9600  181.9490  138.1480 F   0  0  0  0  0  0  0  0  0  0  0  0
  1 13  1  0  0  0  0
  2  4  1  0  0  0  0
  3  1  1  0  0  0  0
  3 10  2  0  0  0  0
  5  9  1  0  0  0  0
  6 10  1  6  0  0  0
  6  9  1  0  0  0  0
  7  4  2  0  0  0  0
  7 35  1  0  0  0  0
  8  2  2  0  0  0  0
 10  8  1  0  0  0  0
 11 15  1  1  0  0  0
 11  5  1  0  0  0  0
 12  7  1  0  0  0  0
 13  8  1  0  0  0  0
 13 12  2  0  0  0  0
 14 11  1  0  0  0  0
 14  6  1  0  0  0  0
 15 16  1  0  0  0  0
 16 17  2  0  0  0  0
 18 22  1  0  0  0  0
 19 16  1  0  0  0  0
 19 21  1  0  0  0  0
 20 22  1  0  0  0  0
 20 26  1  0  0  0  0
 22 19  2  0  0  0  0
 23 18  1  0  0  0  0
 23 24  1  0  0  0  0
 23 27  1  1  0  0  0
 24 20  1  0  0  0  0
 26 25  1  0  0  0  0
 26 21  2  0  0  0  0
 27 28  1  0  0  0  0
 30 29  1  6  0  0  0
 30  1  1  0  0  0  0
 31 30  1  0  0  0  0
 31 34  1  0  0  0  0
 33 32  1  0  0  0  0
 34 33  1  0  0  0  0
 34 32  1  0  0  0  0
 36 43  1  6  0  0  0
 36 40  1  0  0  0  0
 38 37  1  0  0  0  0
 39 36  1  0  0  0  0
 39 38  1  0  0  0  0
 40 41  1  0  0  0  0
 41 35  1  0  0  0  0
 41 37  2  0  0  0  0
 43 45  1  0  0  0  0
 43 42  1  0  0  0  0
 44 43  1  0  0  0  0
M  END
>  <MODEL>
7

>  <REMARK>
 VINA RESULT:      -6.3      3.150      3.583
  Name = 
  9 active torsions:
  status: ('A' for Active; 'I' for Inactive)
    1  A    between atoms: C_1  and  C_25
    2  A    between atoms: N_2  and  C_29
    3  A    between atoms: N_2  and  C_43
    4  A    between atoms: N_3  and  C_37
    5  A    between atoms: N_6  and  C_38
    6  A    between atoms: C_12  and  C_28
    7  A    between atoms: N_17  and  C_37
    8  A    between atoms: N_17  and  C_39
    9  A    between atoms: C_20  and  C_23
                            x       y       z     vdW  Elec       q    Type
                         _______ _______ _______ _____ _____    ______ ____

>  <TORSDO>
F 9

$$$$
