=
 OpenBabel10222421503D

 54 59  0  0  1  0  0  0  0  0999 V2000
  188.8030  177.7180  144.4560 C   0  0  1  0  0  3  0  0  0  0  0  0
  188.9200  177.1720  143.0420 C   0  0  1  0  0  3  0  0  0  0  0  0
  187.3070  177.4360  144.4410 C   0  0  2  0  0  3  0  0  0  0  0  0
  187.4300  176.8800  143.0330 C   0  0  0  0  0  2  0  0  0  0  0  0
  189.1920  178.1150  140.6780 N   0  0  0  0  0  0  0  0  0  0  0  0
  189.3770  178.6070  139.2820 C   0  0  0  0  0  2  0  0  0  0  0  0
  188.8450  177.3440  139.4440 C   0  0  1  0  0  3  0  0  0  0  0  0
  189.3140  178.2670  142.0920 C   0  0  0  0  0  0  0  0  0  0  0  0
  189.7550  179.3490  142.5580 O   0  0  0  0  0  0  0  0  0  0  0  0
  190.7100  175.9810  140.0200 O   0  0  0  0  0  0  0  0  0  0  0  0
  189.8770  176.2850  139.1760 C   0  0  0  0  0  0  0  0  0  0  0  0
  189.8460  175.5540  137.8760 C   0  0  0  0  0  2  0  0  0  0  0  0
  191.1700  175.5540  137.2800 N   0  0  0  0  0  2  0  0  0  0  0  0
  191.7600  174.3220  137.6100 N   0  0  0  0  0  2  0  0  0  0  0  0
  192.4990  172.8670  134.9340 O   0  0  0  0  0  1  0  0  0  0  0  0
  195.2980  173.9940  134.5580 O   0  0  0  0  0  1  0  0  0  0  0  0
  193.1050  172.8080  136.1880 C   0  0  1  0  0  3  0  0  0  0  0  0
  194.5400  172.2800  136.0510 C   0  0  0  0  0  2  0  0  0  0  0  0
  194.2370  174.4910  137.7450 C   0  0  2  0  0  3  0  0  0  0  0  0
  195.5490  173.4010  135.7990 C   0  0  2  0  0  3  0  0  0  0  0  0
  194.0900  175.7210  138.3920 O   0  0  0  0  0  1  0  0  0  0  0  0
  195.8900  175.7130  136.4470 O   0  0  0  0  0  1  0  0  0  0  0  0
  195.5480  174.4470  136.9350 C   0  0  1  0  0  3  0  0  0  0  0  0
  193.0150  174.1870  136.8690 C   0  0  2  0  0  3  0  0  0  0  0  0
  186.6030  178.6540  144.4050 O   0  0  0  0  0  0  0  0  0  0  0  0
  185.3200  178.4840  144.9820 C   0  0  1  0  0  3  0  0  0  0  0  0
  185.8650  179.4480  147.2370 C   0  0  0  0  0  1  0  0  0  0  0  0
  184.0570  177.9260  146.9660 F   0  0  0  0  0  0  0  0  0  0  0  0
  185.3180  178.2450  146.4950 C   0  0  1  0  0  3  0  0  0  0  0  0
  184.2940  179.5280  144.5390 C   0  0  0  0  0  2  0  0  0  0  0  0
  182.6760  178.0730  141.5140 C   0  0  0  0  0  0  0  0  0  0  0  0
  181.6560  178.5670  142.1310 N   0  0  0  0  0  0  0  0  0  0  0  0
  184.8900  179.0230  141.4200 N   0  0  0  0  0  0  0  0  0  0  0  0
  183.7420  178.2600  139.4260 C   0  0  0  0  0  0  0  0  0  0  0  0
  184.8400  178.9840  140.1180 C   0  0  0  0  0  3  0  0  0  0  0  0
  182.1340  179.1240  143.3470 C   0  0  0  0  0  3  0  0  0  0  0  0
  182.6870  177.8870  140.0990 N   0  0  0  0  0  0  0  0  0  0  0  0
  183.4540  179.0070  143.4210 C   0  0  0  0  0  0  0  0  0  0  0  0
  183.9580  178.2510  142.2470 C   0  0  1  0  0  3  0  0  0  0  0  0
  183.7860  178.1180  137.9310 C   0  0  1  0  0  3  0  0  0  0  0  0
  184.5940  176.9670  137.5430 N   0  0  0  0  0  2  0  0  0  0  0  0
  185.9390  177.0740  137.0690 C   0  0  0  0  0  0  0  0  0  0  0  0
  186.6340  175.9000  136.6760 N   0  0  0  0  0  1  0  0  0  0  0  0
  186.5170  178.1920  137.0190 O   0  0  0  0  0  0  0  0  0  0  0  0
  182.4310  177.7540  135.8580 C   0  0  0  0  0  1  0  0  0  0  0  0
  182.3850  177.9610  137.3620 C   0  0  0  0  0  2  0  0  0  0  0  0
  189.5290  176.7840  145.4240 C   0  0  2  0  0  3  0  0  0  0  0  0
  188.5890  178.1410  147.1450 O   0  0  0  0  0  0  0  0  0  0  0  0
  188.8920  176.9380  147.8050 C   0  0  0  0  0  2  0  0  0  0  0  0
  189.7720  177.4870  146.7530 C   0  0  1  0  0  3  0  0  0  0  0  0
  190.7570  176.4030  144.8720 O   0  0  0  0  0  0  0  0  0  0  0  0
  191.7040  176.7130  145.8490 C   0  0  0  0  0  2  0  0  0  0  0  0
  192.6380  175.6930  147.9160 C   0  0  0  0  0  1  0  0  0  0  0  0
  192.2360  175.4380  146.4780 C   0  0  0  0  0  2  0  0  0  0  0  0
  1 47  1  1  0  0  0
  2  8  1  6  0  0  0
  2  1  1  0  0  0  0
  3 25  1  6  0  0  0
  3  1  1  0  0  0  0
  4  2  1  0  0  0  0
  4  3  1  0  0  0  0
  5  8  1  0  0  0  0
  6  7  1  0  0  0  0
  6  5  1  0  0  0  0
  7 11  1  6  0  0  0
  7  5  1  0  0  0  0
  8  9  2  0  0  0  0
 11 10  2  0  0  0  0
 12 11  1  0  0  0  0
 13 14  1  0  0  0  0
 13 12  1  0  0  0  0
 17 15  1  6  0  0  0
 17 24  1  0  0  0  0
 18 17  1  0  0  0  0
 19 21  1  6  0  0  0
 20 16  1  6  0  0  0
 20 18  1  0  0  0  0
 20 23  1  0  0  0  0
 23 22  1  6  0  0  0
 23 19  1  0  0  0  0
 24 14  1  1  0  0  0
 24 19  1  0  0  0  0
 25 26  1  0  0  0  0
 26 30  1  1  0  0  0
 26 29  1  0  0  0  0
 29 28  1  0  0  0  0
 29 27  1  1  0  0  0
 31 32  2  0  0  0  0
 31 39  1  0  0  0  0
 32 36  1  0  0  0  0
 34 37  2  0  0  0  0
 34 35  1  0  0  0  0
 35 33  2  0  0  0  0
 36 38  2  0  0  0  0
 37 31  1  0  0  0  0
 38 30  1  0  0  0  0
 39 33  1  6  0  0  0
 39 38  1  0  0  0  0
 40 46  1  1  0  0  0
 40 34  1  0  0  0  0
 41 40  1  0  0  0  0
 42 41  1  0  0  0  0
 43 42  1  0  0  0  0
 44 42  2  0  0  0  0
 45 46  1  0  0  0  0
 47 51  1  6  0  0  0
 48 49  1  0  0  0  0
 50 47  1  6  0  0  0
 50 48  1  0  0  0  0
 50 49  1  0  0  0  0
 51 52  1  0  0  0  0
 52 54  1  0  0  0  0
 54 53  1  0  0  0  0
M  END
>  <MODEL>
1

>  <REMARK>
 VINA RESULT:      -7.5      0.000      0.000
  Name = 
  19 active torsions:
  status: ('A' for Active; 'I' for Inactive)
    1  A    between atoms: C_2  and  C_7
    2  A    between atoms: C_2  and  C_39
    3  A    between atoms: C_3  and  C_24
    4  A    between atoms: C_3  and  O_26
    5  A    between atoms: N_4  and  C_21
    6  A    between atoms: C_5  and  C_15
    7  A    between atoms: C_5  and  O_26
    8  A    between atoms: C_5  and  C_45
    9  A    between atoms: C_7  and  N_16
   10  A    between atoms: N_8  and  N_16
   11  A    between atoms: N_8  and  C_46
   12  A    between atoms: C_21  and  C_25
   13  A    between atoms: C_21  and  C_36
   14  A    between atoms: C_22  and  C_41
   15  A    between atoms: O_23  and  C_42
   16  A    between atoms: O_23  and  C_47
   17  A    between atoms: C_33  and  C_42
   18  A    between atoms: C_33  and  C_51
   19  A    between atoms: C_42  and  C_53
                            x       y       z     vdW  Elec       q    Type
                         _______ _______ _______ _____ _____    ______ ____

>  <TORSDO>
F 19

$$$$
=
 OpenBabel10222421503D

 54 59  0  0  1  0  0  0  0  0999 V2000
  188.9600  177.9590  143.6250 C   0  0  1  0  0  3  0  0  0  0  0  0
  188.6290  177.2700  142.3110 C   0  0  1  0  0  3  0  0  0  0  0  0
  187.5940  177.5710  144.1730 C   0  0  2  0  0  3  0  0  0  0  0  0
  187.2720  176.8720  142.8630 C   0  0  0  0  0  2  0  0  0  0  0  0
  188.9580  177.9690  139.8700 N   0  0  0  0  0  0  0  0  0  0  0  0
  189.2090  178.3470  138.4490 C   0  0  0  0  0  2  0  0  0  0  0  0
  189.5240  177.0580  138.8270 C   0  0  1  0  0  3  0  0  0  0  0  0
  188.5430  178.2780  141.2000 C   0  0  0  0  0  0  0  0  0  0  0  0
  188.0840  179.4230  141.4500 O   0  0  0  0  0  0  0  0  0  0  0  0
  191.5300  177.0610  140.1100 O   0  0  0  0  0  0  0  0  0  0  0  0
  191.0070  176.8980  139.0150 C   0  0  0  0  0  0  0  0  0  0  0  0
  191.8440  176.4770  137.8550 C   0  0  0  0  0  2  0  0  0  0  0  0
  193.0350  175.7950  138.3290 N   0  0  0  0  0  2  0  0  0  0  0  0
  194.0470  176.0510  137.3890 N   0  0  0  0  0  2  0  0  0  0  0  0
  193.9330  174.1460  134.9030 O   0  0  0  0  0  1  0  0  0  0  0  0
  196.2800  172.3430  135.5990 O   0  0  0  0  0  1  0  0  0  0  0  0
  193.8050  173.8610  136.2610 C   0  0  1  0  0  3  0  0  0  0  0  0
  194.0650  172.3690  136.5090 C   0  0  0  0  0  2  0  0  0  0  0  0
  195.2950  174.1140  138.3240 C   0  0  2  0  0  3  0  0  0  0  0  0
  195.5440  172.0700  136.7560 C   0  0  2  0  0  3  0  0  0  0  0  0
  196.0750  175.0090  139.0630 O   0  0  0  0  0  1  0  0  0  0  0  0
  197.4560  173.1280  137.8070 O   0  0  0  0  0  1  0  0  0  0  0  0
  196.0960  172.8450  137.9720 C   0  0  1  0  0  3  0  0  0  0  0  0
  194.7250  174.7930  137.0720 C   0  0  2  0  0  3  0  0  0  0  0  0
  186.7960  178.7220  144.2980 O   0  0  0  0  0  0  0  0  0  0  0  0
  185.5720  178.3920  144.9310 C   0  0  1  0  0  3  0  0  0  0  0  0
  186.6410  178.8360  147.1620 C   0  0  0  0  0  1  0  0  0  0  0  0
  184.4720  177.8700  147.0190 F   0  0  0  0  0  0  0  0  0  0  0  0
  185.7010  177.9340  146.3880 C   0  0  1  0  0  3  0  0  0  0  0  0
  184.4640  179.4250  144.7240 C   0  0  0  0  0  2  0  0  0  0  0  0
  182.6450  178.2360  141.6970 C   0  0  0  0  0  0  0  0  0  0  0  0
  181.6770  178.7240  142.3960 N   0  0  0  0  0  0  0  0  0  0  0  0
  184.8890  179.1090  141.5530 N   0  0  0  0  0  0  0  0  0  0  0  0
  183.6160  178.5220  139.5740 C   0  0  0  0  0  0  0  0  0  0  0  0
  184.7750  179.1590  140.2560 C   0  0  0  0  0  3  0  0  0  0  0  0
  182.2350  179.1810  143.6200 C   0  0  0  0  0  3  0  0  0  0  0  0
  182.5810  178.1450  140.2740 N   0  0  0  0  0  0  0  0  0  0  0  0
  183.5510  179.0110  143.6190 C   0  0  0  0  0  0  0  0  0  0  0  0
  183.9680  178.3170  142.3740 C   0  0  1  0  0  3  0  0  0  0  0  0
  183.5830  178.4790  138.0730 C   0  0  1  0  0  3  0  0  0  0  0  0
  184.4200  177.3980  137.5660 N   0  0  0  0  0  2  0  0  0  0  0  0
  185.7760  177.5820  137.1510 C   0  0  0  0  0  0  0  0  0  0  0  0
  186.5010  176.4770  136.6320 N   0  0  0  0  0  1  0  0  0  0  0  0
  186.3370  178.7040  137.2600 O   0  0  0  0  0  0  0  0  0  0  0  0
  182.1560  177.7340  136.1560 C   0  0  0  0  0  1  0  0  0  0  0  0
  182.1600  178.2900  137.5700 C   0  0  0  0  0  2  0  0  0  0  0  0
  190.0760  177.1940  144.3340 C   0  0  2  0  0  3  0  0  0  0  0  0
  191.9090  176.4440  143.0060 O   0  0  0  0  0  0  0  0  0  0  0  0
  191.8240  175.4770  144.0220 C   0  0  0  0  0  2  0  0  0  0  0  0
  190.6150  176.0910  143.4330 C   0  0  1  0  0  3  0  0  0  0  0  0
  189.5780  176.6270  145.5110 O   0  0  0  0  0  0  0  0  0  0  0  0
  190.0450  177.4520  146.5360 C   0  0  0  0  0  2  0  0  0  0  0  0
  191.9220  176.0920  147.4370 C   0  0  0  0  0  1  0  0  0  0  0  0
  190.5220  176.6070  147.7040 C   0  0  0  0  0  2  0  0  0  0  0  0
  1  3  1  0  0  0  0
  1 47  1  1  0  0  0
  2  8  1  6  0  0  0
  2  4  1  0  0  0  0
  2  1  1  0  0  0  0
  3 25  1  6  0  0  0
  4  3  1  0  0  0  0
  5  8  1  0  0  0  0
  6  7  1  0  0  0  0
  6  5  1  0  0  0  0
  7 11  1  1  0  0  0
  7  5  1  0  0  0  0
  8  9  2  0  0  0  0
 11 10  2  0  0  0  0
 12 13  1  0  0  0  0
 12 11  1  0  0  0  0
 14 13  1  0  0  0  0
 17 15  1  6  0  0  0
 17 18  1  0  0  0  0
 17 24  1  0  0  0  0
 18 20  1  0  0  0  0
 19 21  1  6  0  0  0
 20 16  1  6  0  0  0
 20 23  1  0  0  0  0
 23 22  1  6  0  0  0
 23 19  1  0  0  0  0
 24 14  1  1  0  0  0
 24 19  1  0  0  0  0
 25 26  1  0  0  0  0
 26 30  1  1  0  0  0
 26 29  1  0  0  0  0
 29 28  1  0  0  0  0
 29 27  1  1  0  0  0
 31 39  1  0  0  0  0
 31 32  2  0  0  0  0
 32 36  1  0  0  0  0
 34 35  1  0  0  0  0
 34 37  2  0  0  0  0
 35 33  2  0  0  0  0
 37 31  1  0  0  0  0
 38 36  2  0  0  0  0
 38 30  1  0  0  0  0
 39 33  1  6  0  0  0
 39 38  1  0  0  0  0
 40 46  1  1  0  0  0
 40 34  1  0  0  0  0
 41 40  1  0  0  0  0
 42 44  2  0  0  0  0
 42 41  1  0  0  0  0
 43 42  1  0  0  0  0
 45 46  1  0  0  0  0
 47 51  1  1  0  0  0
 48 50  1  0  0  0  0
 48 49  1  0  0  0  0
 50 49  1  0  0  0  0
 50 47  1  1  0  0  0
 51 52  1  0  0  0  0
 52 54  1  0  0  0  0
 53 54  1  0  0  0  0
M  END
>  <MODEL>
2

>  <REMARK>
 VINA RESULT:      -7.5      1.270      1.702
  Name = 
  19 active torsions:
  status: ('A' for Active; 'I' for Inactive)
    1  A    between atoms: C_2  and  C_7
    2  A    between atoms: C_2  and  C_39
    3  A    between atoms: C_3  and  C_24
    4  A    between atoms: C_3  and  O_26
    5  A    between atoms: N_4  and  C_21
    6  A    between atoms: C_5  and  C_15
    7  A    between atoms: C_5  and  O_26
    8  A    between atoms: C_5  and  C_45
    9  A    between atoms: C_7  and  N_16
   10  A    between atoms: N_8  and  N_16
   11  A    between atoms: N_8  and  C_46
   12  A    between atoms: C_21  and  C_25
   13  A    between atoms: C_21  and  C_36
   14  A    between atoms: C_22  and  C_41
   15  A    between atoms: O_23  and  C_42
   16  A    between atoms: O_23  and  C_47
   17  A    between atoms: C_33  and  C_42
   18  A    between atoms: C_33  and  C_51
   19  A    between atoms: C_42  and  C_53
                            x       y       z     vdW  Elec       q    Type
                         _______ _______ _______ _____ _____    ______ ____

>  <TORSDO>
F 19

$$$$
=
 OpenBabel10222421503D

 54 59  0  0  1  0  0  0  0  0999 V2000
  186.1130  176.9190  138.1800 C   0  0  1  0  0  3  0  0  0  0  0  0
  187.3650  177.3690  137.4440 C   0  0  1  0  0  3  0  0  0  0  0  0
  185.6120  178.3570  138.2080 C   0  0  2  0  0  3  0  0  0  0  0  0
  186.8580  178.8000  137.4610 C   0  0  0  0  0  2  0  0  0  0  0  0
  189.8500  176.8360  137.7440 N   0  0  0  0  0  0  0  0  0  0  0  0
  191.2920  176.4770  137.8760 C   0  0  0  0  0  2  0  0  0  0  0  0
  190.7670  176.5380  136.6010 C   0  0  1  0  0  3  0  0  0  0  0  0
  188.5780  177.1600  138.3050 C   0  0  0  0  0  0  0  0  0  0  0  0
  188.4690  177.2820  139.5520 O   0  0  0  0  0  0  0  0  0  0  0  0
  189.7090  174.9780  135.1470 O   0  0  0  0  0  0  0  0  0  0  0  0
  190.5050  175.1610  136.0590 C   0  0  0  0  0  0  0  0  0  0  0  0
  191.2720  174.0060  136.6080 C   0  0  0  0  0  2  0  0  0  0  0  0
  192.5750  173.9330  135.9710 N   0  0  0  0  0  2  0  0  0  0  0  0
  193.5200  173.8060  137.0020 N   0  0  0  0  0  2  0  0  0  0  0  0
  194.3970  176.7770  136.5250 O   0  0  0  0  0  1  0  0  0  0  0  0
  197.3830  176.3240  136.1790 O   0  0  0  0  0  1  0  0  0  0  0  0
  194.5200  175.6590  135.7010 C   0  0  1  0  0  3  0  0  0  0  0  0
  195.5970  175.9100  134.6380 C   0  0  0  0  0  2  0  0  0  0  0  0
  195.6950  173.3950  135.8690 C   0  0  2  0  0  3  0  0  0  0  0  0
  196.9920  175.5040  135.1170 C   0  0  2  0  0  3  0  0  0  0  0  0
  195.8570  172.2520  136.6560 O   0  0  0  0  0  1  0  0  0  0  0  0
  198.0040  173.7990  136.5120 O   0  0  0  0  0  1  0  0  0  0  0  0
  197.0590  174.0100  135.5020 C   0  0  1  0  0  3  0  0  0  0  0  0
  194.7800  174.4100  136.5640 C   0  0  2  0  0  3  0  0  0  0  0  0
  185.6580  178.8410  139.5280 O   0  0  0  0  0  0  0  0  0  0  0  0
  184.3590  179.2290  139.9420 C   0  0  1  0  0  3  0  0  0  0  0  0
  182.0300  179.1840  139.0000 C   0  0  0  0  0  1  0  0  0  0  0  0
  183.4250  181.0890  138.7140 F   0  0  0  0  0  0  0  0  0  0  0  0
  183.4390  179.7100  138.8150 C   0  0  1  0  0  3  0  0  0  0  0  0
  183.6820  178.2320  140.8840 C   0  0  0  0  0  2  0  0  0  0  0  0
  185.1220  178.9090  144.2540 C   0  0  0  0  0  0  0  0  0  0  0  0
  183.8640  178.8310  144.5290 N   0  0  0  0  0  0  0  0  0  0  0  0
  186.3130  177.5960  142.6180 N   0  0  0  0  0  0  0  0  0  0  0  0
  187.1390  177.8750  144.8810 C   0  0  0  0  0  0  0  0  0  0  0  0
  187.1530  177.2250  143.5440 C   0  0  0  0  0  3  0  0  0  0  0  0
  183.1810  178.6160  143.3030 C   0  0  0  0  0  3  0  0  0  0  0  0
  186.1290  178.6270  145.2250 N   0  0  0  0  0  0  0  0  0  0  0  0
  184.0480  178.5110  142.3040 C   0  0  0  0  0  0  0  0  0  0  0  0
  185.4250  178.7470  142.8060 C   0  0  1  0  0  3  0  0  0  0  0  0
  188.2050  177.5200  145.8780 C   0  0  1  0  0  3  0  0  0  0  0  0
  189.4590  178.1940  145.5590 N   0  0  0  0  0  2  0  0  0  0  0  0
  190.5150  177.5780  144.8170 C   0  0  0  0  0  0  0  0  0  0  0  0
  191.7170  178.2980  144.5890 N   0  0  0  0  0  1  0  0  0  0  0  0
  190.3800  176.4170  144.3470 O   0  0  0  0  0  0  0  0  0  0  0  0
  188.9640  177.9090  148.2320 C   0  0  0  0  0  1  0  0  0  0  0  0
  187.7750  177.9020  147.2860 C   0  0  0  0  0  2  0  0  0  0  0  0
  185.2590  176.0570  137.2510 C   0  0  2  0  0  3  0  0  0  0  0  0
  186.6880  174.5010  136.1450 O   0  0  0  0  0  0  0  0  0  0  0  0
  185.5210  174.4880  135.3610 C   0  0  0  0  0  2  0  0  0  0  0  0
  186.0270  175.7320  135.9770 C   0  0  1  0  0  3  0  0  0  0  0  0
  184.0870  176.7450  136.9200 O   0  0  0  0  0  0  0  0  0  0  0  0
  183.0580  175.8230  137.1180 C   0  0  0  0  0  2  0  0  0  0  0  0
  181.4050  175.5950  138.9630 C   0  0  0  0  0  1  0  0  0  0  0  0
  182.8770  175.5610  138.6020 C   0  0  0  0  0  2  0  0  0  0  0  0
  1 47  1  6  0  0  0
  1  3  1  0  0  0  0
  2  4  1  0  0  0  0
  2  1  1  0  0  0  0
  2  8  1  1  0  0  0
  3 25  1  1  0  0  0
  4  3  1  0  0  0  0
  5  6  1  0  0  0  0
  5  8  1  0  0  0  0
  7 11  1  1  0  0  0
  7  5  1  0  0  0  0
  7  6  1  0  0  0  0
  8  9  2  0  0  0  0
 10 11  2  0  0  0  0
 11 12  1  0  0  0  0
 13 12  1  0  0  0  0
 13 14  1  0  0  0  0
 17 15  1  1  0  0  0
 17 24  1  0  0  0  0
 18 20  1  0  0  0  0
 18 17  1  0  0  0  0
 19 24  1  0  0  0  0
 19 21  1  1  0  0  0
 20 23  1  0  0  0  0
 20 16  1  1  0  0  0
 23 19  1  0  0  0  0
 23 22  1  1  0  0  0
 24 14  1  6  0  0  0
 25 26  1  0  0  0  0
 26 30  1  6  0  0  0
 28 29  1  0  0  0  0
 29 27  1  1  0  0  0
 29 26  1  0  0  0  0
 30 38  1  0  0  0  0
 31 32  2  0  0  0  0
 31 37  1  0  0  0  0
 33 39  1  0  0  0  0
 33 35  2  0  0  0  0
 34 37  2  0  0  0  0
 34 40  1  0  0  0  0
 35 34  1  0  0  0  0
 36 32  1  0  0  0  0
 38 36  2  0  0  0  0
 39 38  1  6  0  0  0
 39 31  1  0  0  0  0
 40 46  1  1  0  0  0
 41 40  1  0  0  0  0
 42 41  1  0  0  0  0
 43 42  1  0  0  0  0
 44 42  2  0  0  0  0
 46 45  1  0  0  0  0
 47 51  1  6  0  0  0
 49 50  1  0  0  0  0
 49 48  1  0  0  0  0
 50 48  1  0  0  0  0
 50 47  1  1  0  0  0
 51 52  1  0  0  0  0
 52 54  1  0  0  0  0
 54 53  1  0  0  0  0
M  END
>  <MODEL>
3

>  <REMARK>
 VINA RESULT:      -7.5      2.615      7.073
  Name = 
  19 active torsions:
  status: ('A' for Active; 'I' for Inactive)
    1  A    between atoms: C_2  and  C_7
    2  A    between atoms: C_2  and  C_39
    3  A    between atoms: C_3  and  C_24
    4  A    between atoms: C_3  and  O_26
    5  A    between atoms: N_4  and  C_21
    6  A    between atoms: C_5  and  C_15
    7  A    between atoms: C_5  and  O_26
    8  A    between atoms: C_5  and  C_45
    9  A    between atoms: C_7  and  N_16
   10  A    between atoms: N_8  and  N_16
   11  A    between atoms: N_8  and  C_46
   12  A    between atoms: C_21  and  C_25
   13  A    between atoms: C_21  and  C_36
   14  A    between atoms: C_22  and  C_41
   15  A    between atoms: O_23  and  C_42
   16  A    between atoms: O_23  and  C_47
   17  A    between atoms: C_33  and  C_42
   18  A    between atoms: C_33  and  C_51
   19  A    between atoms: C_42  and  C_53
                            x       y       z     vdW  Elec       q    Type
                         _______ _______ _______ _____ _____    ______ ____

>  <TORSDO>
F 19

$$$$
=
 OpenBabel10222421503D

 54 59  0  0  1  0  0  0  0  0999 V2000
  186.4680  176.0830  136.6770 C   0  0  1  0  0  3  0  0  0  0  0  0
  187.7770  176.8350  136.5030 C   0  0  1  0  0  3  0  0  0  0  0  0
  185.7290  177.4040  136.8340 C   0  0  2  0  0  3  0  0  0  0  0  0
  187.0370  178.1530  136.6460 C   0  0  0  0  0  2  0  0  0  0  0  0
  190.1200  176.5470  137.4930 N   0  0  0  0  0  0  0  0  0  0  0  0
  191.5020  176.3440  138.0180 C   0  0  0  0  0  2  0  0  0  0  0  0
  191.3720  176.6880  136.6870 C   0  0  1  0  0  3  0  0  0  0  0  0
  188.7020  176.5480  137.6510 C   0  0  0  0  0  0  0  0  0  0  0  0
  188.2090  176.3090  138.7840 O   0  0  0  0  0  0  0  0  0  0  0  0
  191.0340  175.4250  134.6980 O   0  0  0  0  0  0  0  0  0  0  0  0
  191.5650  175.4920  135.7990 C   0  0  0  0  0  0  0  0  0  0  0  0
  192.4680  174.3920  136.2480 C   0  0  0  0  0  2  0  0  0  0  0  0
  193.7940  174.9210  136.5110 N   0  0  0  0  0  2  0  0  0  0  0  0
  194.3800  174.0780  137.4710 N   0  0  0  0  0  2  0  0  0  0  0  0
  196.4950  173.7860  135.1770 O   0  0  0  0  0  1  0  0  0  0  0  0
  198.8870  175.0080  136.6020 O   0  0  0  0  0  1  0  0  0  0  0  0
  196.4850  173.2530  136.4650 C   0  0  1  0  0  3  0  0  0  0  0  0
  197.9060  172.8390  136.8710 C   0  0  0  0  0  2  0  0  0  0  0  0
  196.4540  174.2140  138.8340 C   0  0  2  0  0  3  0  0  0  0  0  0
  198.6780  173.9840  137.5300 C   0  0  2  0  0  3  0  0  0  0  0  0
  195.7960  175.0950  139.6970 O   0  0  0  0  0  1  0  0  0  0  0  0
  198.2310  175.8670  138.9900 O   0  0  0  0  0  1  0  0  0  0  0  0
  197.9680  174.5060  138.7970 C   0  0  1  0  0  3  0  0  0  0  0  0
  195.8320  174.2570  137.4330 C   0  0  2  0  0  3  0  0  0  0  0  0
  185.2960  177.5420  138.1660 O   0  0  0  0  0  0  0  0  0  0  0  0
  184.1310  178.3470  138.2110 C   0  0  1  0  0  3  0  0  0  0  0  0
  182.0060  177.6370  137.0720 C   0  0  0  0  0  1  0  0  0  0  0  0
  183.0290  176.2570  138.7170 F   0  0  0  0  0  0  0  0  0  0  0  0
  182.8160  177.5740  138.3510 C   0  0  1  0  0  3  0  0  0  0  0  0
  184.2320  179.5360  139.1680 C   0  0  0  0  0  2  0  0  0  0  0  0
  185.1120  178.5630  142.6560 C   0  0  0  0  0  0  0  0  0  0  0  0
  183.9130  178.0960  142.5590 N   0  0  0  0  0  0  0  0  0  0  0  0
  186.7730  178.6120  140.9080 N   0  0  0  0  0  0  0  0  0  0  0  0
  187.2810  177.7870  143.1310 C   0  0  0  0  0  0  0  0  0  0  0  0
  187.6000  177.9790  141.6910 C   0  0  0  0  0  3  0  0  0  0  0  0
  183.4320  178.4430  141.2690 C   0  0  0  0  0  3  0  0  0  0  0  0
  186.0690  178.0120  143.5600 N   0  0  0  0  0  0  0  0  0  0  0  0
  184.3750  179.0710  140.5790 C   0  0  0  0  0  0  0  0  0  0  0  0
  185.5730  179.2730  141.4320 C   0  0  1  0  0  3  0  0  0  0  0  0
  188.3120  177.1750  144.0340 C   0  0  1  0  0  3  0  0  0  0  0  0
  189.6580  177.5480  143.6130 N   0  0  0  0  0  2  0  0  0  0  0  0
  190.5750  176.6310  143.0100 C   0  0  0  0  0  0  0  0  0  0  0  0
  191.8800  177.0750  142.6690 N   0  0  0  0  0  1  0  0  0  0  0  0
  190.2310  175.4460  142.7590 O   0  0  0  0  0  0  0  0  0  0  0  0
  189.2800  177.2210  146.3430 C   0  0  0  0  0  1  0  0  0  0  0  0
  188.0980  177.6150  145.4740 C   0  0  0  0  0  2  0  0  0  0  0  0
  186.0960  175.3960  135.3640 C   0  0  2  0  0  3  0  0  0  0  0  0
  184.1470  174.6380  136.5110 O   0  0  0  0  0  0  0  0  0  0  0  0
  183.7940  174.5240  135.1550 C   0  0  0  0  0  2  0  0  0  0  0  0
  185.1620  174.2220  135.6280 C   0  0  1  0  0  3  0  0  0  0  0  0
  187.2560  174.9300  134.7360 O   0  0  0  0  0  0  0  0  0  0  0  0
  187.2650  173.5540  134.9680 C   0  0  0  0  0  2  0  0  0  0  0  0
  188.5000  172.9290  137.0350 C   0  0  0  0  0  1  0  0  0  0  0  0
  188.6080  173.1340  135.5370 C   0  0  0  0  0  2  0  0  0  0  0  0
  1 47  1  6  0  0  0
  1  3  1  0  0  0  0
  2  4  1  0  0  0  0
  2  1  1  0  0  0  0
  2  8  1  1  0  0  0
  3 25  1  1  0  0  0
  4  3  1  0  0  0  0
  5  8  1  0  0  0  0
  5  6  1  0  0  0  0
  7 11  1  6  0  0  0
  7  5  1  0  0  0  0
  7  6  1  0  0  0  0
  8  9  2  0  0  0  0
 10 11  2  0  0  0  0
 11 12  1  0  0  0  0
 12 13  1  0  0  0  0
 13 14  1  0  0  0  0
 17 15  1  6  0  0  0
 17 18  1  0  0  0  0
 17 24  1  0  0  0  0
 18 20  1  0  0  0  0
 19 21  1  1  0  0  0
 20 16  1  6  0  0  0
 20 23  1  0  0  0  0
 23 19  1  0  0  0  0
 23 22  1  6  0  0  0
 24 14  1  1  0  0  0
 24 19  1  0  0  0  0
 25 26  1  0  0  0  0
 26 29  1  0  0  0  0
 26 30  1  1  0  0  0
 29 27  1  6  0  0  0
 29 28  1  0  0  0  0
 30 38  1  0  0  0  0
 31 37  1  0  0  0  0
 32 31  2  0  0  0  0
 33 39  1  0  0  0  0
 33 35  2  0  0  0  0
 34 37  2  0  0  0  0
 34 40  1  0  0  0  0
 35 34  1  0  0  0  0
 36 32  1  0  0  0  0
 38 36  2  0  0  0  0
 39 38  1  6  0  0  0
 39 31  1  0  0  0  0
 40 46  1  1  0  0  0
 41 40  1  0  0  0  0
 42 41  1  0  0  0  0
 43 42  1  0  0  0  0
 44 42  2  0  0  0  0
 46 45  1  0  0  0  0
 47 51  1  1  0  0  0
 49 50  1  0  0  0  0
 49 48  1  0  0  0  0
 50 47  1  6  0  0  0
 50 48  1  0  0  0  0
 51 52  1  0  0  0  0
 52 54  1  0  0  0  0
 54 53  1  0  0  0  0
M  END
>  <MODEL>
4

>  <REMARK>
 VINA RESULT:      -7.1      2.606      7.039
  Name = 
  19 active torsions:
  status: ('A' for Active; 'I' for Inactive)
    1  A    between atoms: C_2  and  C_7
    2  A    between atoms: C_2  and  C_39
    3  A    between atoms: C_3  and  C_24
    4  A    between atoms: C_3  and  O_26
    5  A    between atoms: N_4  and  C_21
    6  A    between atoms: C_5  and  C_15
    7  A    between atoms: C_5  and  O_26
    8  A    between atoms: C_5  and  C_45
    9  A    between atoms: C_7  and  N_16
   10  A    between atoms: N_8  and  N_16
   11  A    between atoms: N_8  and  C_46
   12  A    between atoms: C_21  and  C_25
   13  A    between atoms: C_21  and  C_36
   14  A    between atoms: C_22  and  C_41
   15  A    between atoms: O_23  and  C_42
   16  A    between atoms: O_23  and  C_47
   17  A    between atoms: C_33  and  C_42
   18  A    between atoms: C_33  and  C_51
   19  A    between atoms: C_42  and  C_53
                            x       y       z     vdW  Elec       q    Type
                         _______ _______ _______ _____ _____    ______ ____

>  <TORSDO>
F 19

$$$$
=
 OpenBabel10222421503D

 54 59  0  0  1  0  0  0  0  0999 V2000
  184.2450  177.4630  138.8700 C   0  0  1  0  0  3  0  0  0  0  0  0
  185.1570  178.5340  138.2960 C   0  0  1  0  0  3  0  0  0  0  0  0
  183.4350  178.5350  139.5860 C   0  0  2  0  0  3  0  0  0  0  0  0
  184.3410  179.6040  139.0000 C   0  0  0  0  0  2  0  0  0  0  0  0
  187.6630  178.0960  138.0110 N   0  0  0  0  0  0  0  0  0  0  0  0
  189.1090  177.7920  137.8050 C   0  0  0  0  0  2  0  0  0  0  0  0
  188.2970  177.8030  136.6880 C   0  0  1  0  0  3  0  0  0  0  0  0
  186.5460  178.3890  138.8500 C   0  0  0  0  0  0  0  0  0  0  0  0
  186.7270  178.5370  140.0860 O   0  0  0  0  0  0  0  0  0  0  0  0
  187.2870  176.1980  135.2490 O   0  0  0  0  0  0  0  0  0  0  0  0
  187.9700  176.4050  136.2440 C   0  0  0  0  0  0  0  0  0  0  0  0
  188.5360  175.2510  137.0010 C   0  0  0  0  0  2  0  0  0  0  0  0
  189.8670  174.9450  136.5090 N   0  0  0  0  0  2  0  0  0  0  0  0
  190.5540  174.3260  137.5670 N   0  0  0  0  0  2  0  0  0  0  0  0
  192.5450  176.4640  138.7010 O   0  0  0  0  0  1  0  0  0  0  0  0
  195.1530  175.1850  137.8020 O   0  0  0  0  0  1  0  0  0  0  0  0
  192.3300  176.0410  137.3910 C   0  0  1  0  0  3  0  0  0  0  0  0
  193.5390  176.4050  136.5190 C   0  0  0  0  0  2  0  0  0  0  0  0
  192.5250  173.8210  136.1380 C   0  0  2  0  0  3  0  0  0  0  0  0
  194.6070  175.3100  136.5200 C   0  0  2  0  0  3  0  0  0  0  0  0
  192.1460  172.4750  136.1390 O   0  0  0  0  0  1  0  0  0  0  0  0
  194.7210  172.8900  136.6100 O   0  0  0  0  0  1  0  0  0  0  0  0
  194.0550  173.9630  136.0070 C   0  0  1  0  0  3  0  0  0  0  0  0
  191.9910  174.5390  137.3840 C   0  0  2  0  0  3  0  0  0  0  0  0
  183.6580  178.4400  140.9720 O   0  0  0  0  0  0  0  0  0  0  0  0
  182.5390  178.9540  141.6740 C   0  0  1  0  0  3  0  0  0  0  0  0
  180.1880  178.1400  141.3200 C   0  0  0  0  0  1  0  0  0  0  0  0
  180.7830  180.3930  140.8430 F   0  0  0  0  0  0  0  0  0  0  0  0
  181.2620  179.0950  140.8390 C   0  0  1  0  0  3  0  0  0  0  0  0
  182.2980  178.2940  143.0320 C   0  0  0  0  0  2  0  0  0  0  0  0
  185.3980  179.0020  144.9740 C   0  0  0  0  0  0  0  0  0  0  0  0
  184.4990  179.0850  145.8960 N   0  0  0  0  0  0  0  0  0  0  0  0
  185.4030  177.4670  143.1140 N   0  0  0  0  0  0  0  0  0  0  0  0
  187.3570  177.7850  144.5140 C   0  0  0  0  0  0  0  0  0  0  0  0
  186.5890  177.0590  143.4680 C   0  0  0  0  0  3  0  0  0  0  0  0
  183.2410  178.8760  145.2730 C   0  0  0  0  0  3  0  0  0  0  0  0
  186.7540  178.6660  145.2660 N   0  0  0  0  0  0  0  0  0  0  0  0
  183.4030  178.6130  143.9820 C   0  0  0  0  0  0  0  0  0  0  0  0
  184.8400  178.7210  143.6240 C   0  0  1  0  0  3  0  0  0  0  0  0
  188.7720  177.3720  144.8030 C   0  0  1  0  0  3  0  0  0  0  0  0
  189.6620  177.7740  143.7200 N   0  0  0  0  0  2  0  0  0  0  0  0
  190.3330  176.8410  142.8680 C   0  0  0  0  0  0  0  0  0  0  0  0
  191.2120  177.3250  141.8630 N   0  0  0  0  0  1  0  0  0  0  0  0
  190.1350  175.6030  142.9850 O   0  0  0  0  0  0  0  0  0  0  0  0
  189.2470  176.9650  147.2270 C   0  0  0  0  0  1  0  0  0  0  0  0
  189.2590  177.9890  146.1060 C   0  0  0  0  0  2  0  0  0  0  0  0
  183.4360  176.8240  137.7420 C   0  0  2  0  0  3  0  0  0  0  0  0
  183.9560  174.5400  138.1880 O   0  0  0  0  0  0  0  0  0  0  0  0
  183.1580  174.4740  137.0330 C   0  0  0  0  0  2  0  0  0  0  0  0
  184.1320  175.5660  137.2400 C   0  0  1  0  0  3  0  0  0  0  0  0
  183.3090  177.7330  136.6860 O   0  0  0  0  0  0  0  0  0  0  0  0
  181.9360  177.8220  136.4490 C   0  0  0  0  0  2  0  0  0  0  0  0
  181.1810  176.7000  134.3620 C   0  0  0  0  0  1  0  0  0  0  0  0
  181.6770  177.9990  134.9640 C   0  0  0  0  0  2  0  0  0  0  0  0
  1 47  1  6  0  0  0
  1  3  1  0  0  0  0
  2  8  1  1  0  0  0
  2  1  1  0  0  0  0
  2  4  1  0  0  0  0
  3 25  1  1  0  0  0
  4  3  1  0  0  0  0
  5  8  1  0  0  0  0
  6  5  1  0  0  0  0
  7 11  1  1  0  0  0
  7  6  1  0  0  0  0
  7  5  1  0  0  0  0
  8  9  2  0  0  0  0
 10 11  2  0  0  0  0
 11 12  1  0  0  0  0
 13 12  1  0  0  0  0
 13 14  1  0  0  0  0
 17 15  1  1  0  0  0
 18 20  1  0  0  0  0
 18 17  1  0  0  0  0
 19 21  1  1  0  0  0
 19 24  1  0  0  0  0
 20 16  1  1  0  0  0
 23 19  1  0  0  0  0
 23 20  1  0  0  0  0
 23 22  1  1  0  0  0
 24 17  1  0  0  0  0
 24 14  1  6  0  0  0
 25 26  1  0  0  0  0
 26 30  1  1  0  0  0
 29 28  1  0  0  0  0
 29 27  1  1  0  0  0
 29 26  1  0  0  0  0
 30 38  1  0  0  0  0
 31 37  1  0  0  0  0
 31 32  2  0  0  0  0
 33 35  2  0  0  0  0
 34 40  1  0  0  0  0
 34 37  2  0  0  0  0
 35 34  1  0  0  0  0
 36 32  1  0  0  0  0
 38 36  2  0  0  0  0
 39 33  1  1  0  0  0
 39 38  1  0  0  0  0
 39 31  1  0  0  0  0
 40 46  1  1  0  0  0
 41 40  1  0  0  0  0
 42 44  2  0  0  0  0
 42 41  1  0  0  0  0
 43 42  1  0  0  0  0
 46 45  1  0  0  0  0
 47 51  1  6  0  0  0
 49 50  1  0  0  0  0
 49 48  1  0  0  0  0
 50 47  1  1  0  0  0
 50 48  1  0  0  0  0
 52 51  1  0  0  0  0
 53 54  1  0  0  0  0
 54 52  1  0  0  0  0
M  END
>  <MODEL>
5

>  <REMARK>
 VINA RESULT:      -6.6      2.369      7.106
  Name = 
  19 active torsions:
  status: ('A' for Active; 'I' for Inactive)
    1  A    between atoms: C_2  and  C_7
    2  A    between atoms: C_2  and  C_39
    3  A    between atoms: C_3  and  C_24
    4  A    between atoms: C_3  and  O_26
    5  A    between atoms: N_4  and  C_21
    6  A    between atoms: C_5  and  C_15
    7  A    between atoms: C_5  and  O_26
    8  A    between atoms: C_5  and  C_45
    9  A    between atoms: C_7  and  N_16
   10  A    between atoms: N_8  and  N_16
   11  A    between atoms: N_8  and  C_46
   12  A    between atoms: C_21  and  C_25
   13  A    between atoms: C_21  and  C_36
   14  A    between atoms: C_22  and  C_41
   15  A    between atoms: O_23  and  C_42
   16  A    between atoms: O_23  and  C_47
   17  A    between atoms: C_33  and  C_42
   18  A    between atoms: C_33  and  C_51
   19  A    between atoms: C_42  and  C_53
                            x       y       z     vdW  Elec       q    Type
                         _______ _______ _______ _____ _____    ______ ____

>  <TORSDO>
F 19

$$$$
=
 OpenBabel10222421503D

 54 59  0  0  1  0  0  0  0  0999 V2000
  186.9850  176.3230  137.3550 C   0  0  1  0  0  3  0  0  0  0  0  0
  185.6300  176.8640  136.9300 C   0  0  1  0  0  3  0  0  0  0  0  0
  187.3550  176.1030  135.8950 C   0  0  2  0  0  3  0  0  0  0  0  0
  186.0040  176.6560  135.4740 C   0  0  0  0  0  2  0  0  0  0  0  0
  183.3170  176.4520  137.9490 N   0  0  0  0  0  0  0  0  0  0  0  0
  181.9830  176.2570  138.5870 C   0  0  0  0  0  2  0  0  0  0  0  0
  182.4090  177.5550  138.3910 C   0  0  1  0  0  3  0  0  0  0  0  0
  184.5330  175.9490  137.3960 C   0  0  0  0  0  0  0  0  0  0  0  0
  184.6910  174.7050  137.2880 O   0  0  0  0  0  0  0  0  0  0  0  0
  182.2290  178.1210  140.6960 O   0  0  0  0  0  0  0  0  0  0  0  0
  182.9020  178.1620  139.6740 C   0  0  0  0  0  0  0  0  0  0  0  0
  184.2620  178.7740  139.7140 C   0  0  0  0  0  2  0  0  0  0  0  0
  184.6340  179.0590  141.0880 N   0  0  0  0  0  2  0  0  0  0  0  0
  184.6390  177.8280  141.7660 N   0  0  0  0  0  2  0  0  0  0  0  0
  182.6950  178.8000  144.0240 O   0  0  0  0  0  1  0  0  0  0  0  0
  184.4840  178.2740  146.4260 O   0  0  0  0  0  1  0  0  0  0  0  0
  183.9610  179.2620  143.6650 C   0  0  1  0  0  3  0  0  0  0  0  0
  184.5760  180.0550  144.8260 C   0  0  0  0  0  2  0  0  0  0  0  0
  186.3070  178.2510  143.5610 C   0  0  2  0  0  3  0  0  0  0  0  0
  185.3580  179.1610  145.7900 C   0  0  2  0  0  3  0  0  0  0  0  0
  187.0680  177.1880  143.0660 O   0  0  0  0  0  1  0  0  0  0  0  0
  186.7520  177.1790  145.6970 O   0  0  0  0  0  1  0  0  0  0  0  0
  186.5070  178.4110  145.0810 C   0  0  1  0  0  3  0  0  0  0  0  0
  184.8270  178.0780  143.1960 C   0  0  2  0  0  3  0  0  0  0  0  0
  187.4000  174.7220  135.6280 O   0  0  0  0  0  0  0  0  0  0  0  0
  188.7010  174.2250  135.8920 C   0  0  1  0  0  3  0  0  0  0  0  0
  187.4780  172.3680  137.0630 C   0  0  0  0  0  1  0  0  0  0  0  0
  188.9920  171.9030  135.2890 F   0  0  0  0  0  0  0  0  0  0  0  0
  188.7530  172.7620  136.3460 C   0  0  1  0  0  3  0  0  0  0  0  0
  189.7250  174.5530  134.8060 C   0  0  0  0  0  2  0  0  0  0  0  0
  193.0870  175.5600  136.0580 C   0  0  0  0  0  0  0  0  0  0  0  0
  192.3350  176.4450  136.6190 N   0  0  0  0  0  0  0  0  0  0  0  0
  192.5310  173.2450  135.6730 N   0  0  0  0  0  0  0  0  0  0  0  0
  194.6370  173.9030  136.6790 C   0  0  0  0  0  0  0  0  0  0  0  0
  193.6140  172.8910  136.3070 C   0  0  0  0  0  3  0  0  0  0  0  0
  191.0060  176.2000  136.1830 C   0  0  0  0  0  3  0  0  0  0  0  0
  194.3450  175.1740  136.6120 N   0  0  0  0  0  0  0  0  0  0  0  0
  190.9670  175.1280  135.4020 C   0  0  0  0  0  0  0  0  0  0  0  0
  192.3430  174.6140  135.1840 C   0  0  1  0  0  3  0  0  0  0  0  0
  195.9320  173.4460  137.2860 C   0  0  1  0  0  3  0  0  0  0  0  0
  196.4960  174.4800  138.1470 N   0  0  0  0  0  2  0  0  0  0  0  0
  197.9010  174.6670  138.3330 C   0  0  0  0  0  0  0  0  0  0  0  0
  198.3570  175.6760  139.2230 N   0  0  0  0  0  1  0  0  0  0  0  0
  198.7340  173.9630  137.7030 O   0  0  0  0  0  0  0  0  0  0  0  0
  196.5550  171.0330  137.5320 C   0  0  0  0  0  1  0  0  0  0  0  0
  195.7290  172.1760  138.0980 C   0  0  0  0  0  2  0  0  0  0  0  0
  187.8140  177.4510  137.9690 C   0  0  2  0  0  3  0  0  0  0  0  0
  187.7140  179.5440  136.8310 O   0  0  0  0  0  0  0  0  0  0  0  0
  188.9800  179.5630  137.4410 C   0  0  0  0  0  2  0  0  0  0  0  0
  188.4130  178.3230  136.8730 C   0  0  1  0  0  3  0  0  0  0  0  0
  188.8460  176.9050  138.7390 O   0  0  0  0  0  0  0  0  0  0  0  0
  188.6050  177.3570  140.0380 C   0  0  0  0  0  2  0  0  0  0  0  0
  191.0610  176.9760  139.9380 C   0  0  0  0  0  1  0  0  0  0  0  0
  189.9020  177.3780  140.8270 C   0  0  0  0  0  2  0  0  0  0  0  0
  1 47  1  6  0  0  0
  2  1  1  0  0  0  0
  2  8  1  1  0  0  0
  3 25  1  1  0  0  0
  3  1  1  0  0  0  0
  4  3  1  0  0  0  0
  4  2  1  0  0  0  0
  5  7  1  0  0  0  0
  5  6  1  0  0  0  0
  7  6  1  0  0  0  0
  7 11  1  1  0  0  0
  8  5  1  0  0  0  0
  9  8  2  0  0  0  0
 11 12  1  0  0  0  0
 11 10  2  0  0  0  0
 12 13  1  0  0  0  0
 13 14  1  0  0  0  0
 17 15  1  1  0  0  0
 17 18  1  0  0  0  0
 18 20  1  0  0  0  0
 19 21  1  1  0  0  0
 19 23  1  0  0  0  0
 20 16  1  6  0  0  0
 23 22  1  1  0  0  0
 23 20  1  0  0  0  0
 24 14  1  6  0  0  0
 24 19  1  0  0  0  0
 24 17  1  0  0  0  0
 25 26  1  0  0  0  0
 26 30  1  6  0  0  0
 26 29  1  0  0  0  0
 28 29  1  0  0  0  0
 29 27  1  6  0  0  0
 30 38  1  0  0  0  0
 31 37  1  0  0  0  0
 31 32  2  0  0  0  0
 33 35  2  0  0  0  0
 34 40  1  0  0  0  0
 35 34  1  0  0  0  0
 36 32  1  0  0  0  0
 37 34  2  0  0  0  0
 38 36  2  0  0  0  0
 39 38  1  1  0  0  0
 39 33  1  0  0  0  0
 39 31  1  0  0  0  0
 40 46  1  1  0  0  0
 40 41  1  0  0  0  0
 41 42  1  0  0  0  0
 42 43  1  0  0  0  0
 44 42  2  0  0  0  0
 45 46  1  0  0  0  0
 47 51  1  6  0  0  0
 48 50  1  0  0  0  0
 48 49  1  0  0  0  0
 50 49  1  0  0  0  0
 50 47  1  1  0  0  0
 51 52  1  0  0  0  0
 52 54  1  0  0  0  0
 53 54  1  0  0  0  0
M  END
>  <MODEL>
6

>  <REMARK>
 VINA RESULT:      -6.2      3.404     11.010
  Name = 
  19 active torsions:
  status: ('A' for Active; 'I' for Inactive)
    1  A    between atoms: C_2  and  C_7
    2  A    between atoms: C_2  and  C_39
    3  A    between atoms: C_3  and  C_24
    4  A    between atoms: C_3  and  O_26
    5  A    between atoms: N_4  and  C_21
    6  A    between atoms: C_5  and  C_15
    7  A    between atoms: C_5  and  O_26
    8  A    between atoms: C_5  and  C_45
    9  A    between atoms: C_7  and  N_16
   10  A    between atoms: N_8  and  N_16
   11  A    between atoms: N_8  and  C_46
   12  A    between atoms: C_21  and  C_25
   13  A    between atoms: C_21  and  C_36
   14  A    between atoms: C_22  and  C_41
   15  A    between atoms: O_23  and  C_42
   16  A    between atoms: O_23  and  C_47
   17  A    between atoms: C_33  and  C_42
   18  A    between atoms: C_33  and  C_51
   19  A    between atoms: C_42  and  C_53
                            x       y       z     vdW  Elec       q    Type
                         _______ _______ _______ _____ _____    ______ ____

>  <TORSDO>
F 19

$$$$
=
 OpenBabel10222421503D

 54 59  0  0  1  0  0  0  0  0999 V2000
  189.3850  178.1730  142.6960 C   0  0  1  0  0  3  0  0  0  0  0  0
  188.7060  177.3940  141.5810 C   0  0  1  0  0  3  0  0  0  0  0  0
  188.3460  177.6630  143.6850 C   0  0  2  0  0  3  0  0  0  0  0  0
  187.6780  176.8760  142.5710 C   0  0  0  0  0  2  0  0  0  0  0  0
  187.7310  177.8930  139.2670 N   0  0  0  0  0  0  0  0  0  0  0  0
  187.2110  178.1480  137.8920 C   0  0  0  0  0  2  0  0  0  0  0  0
  187.5640  176.8510  138.2070 C   0  0  1  0  0  3  0  0  0  0  0  0
  188.1260  178.3370  140.5650 C   0  0  0  0  0  0  0  0  0  0  0  0
  187.9770  179.5480  140.8720 O   0  0  0  0  0  0  0  0  0  0  0  0
  189.8060  176.0550  138.2950 O   0  0  0  0  0  0  0  0  0  0  0  0
  188.8940  176.4930  137.6050 C   0  0  0  0  0  0  0  0  0  0  0  0
  189.0830  176.6230  136.1320 C   0  0  0  0  0  2  0  0  0  0  0  0
  188.4220  175.5240  135.4520 N   0  0  0  0  0  2  0  0  0  0  0  0
  188.4530  174.4300  136.3320 N   0  0  0  0  0  2  0  0  0  0  0  0
  185.3650  174.9520  136.4640 O   0  0  0  0  0  1  0  0  0  0  0  0
  184.4100  172.3930  135.1270 O   0  0  0  0  0  1  0  0  0  0  0  0
  186.1290  173.9250  137.0170 C   0  0  1  0  0  3  0  0  0  0  0  0
  185.2300  172.7280  137.3540 C   0  0  0  0  0  2  0  0  0  0  0  0
  187.6510  172.0880  136.0960 C   0  0  2  0  0  3  0  0  0  0  0  0
  185.0850  171.7620  136.1770 C   0  0  2  0  0  3  0  0  0  0  0  0
  188.7460  171.8250  135.2690 O   0  0  0  0  0  1  0  0  0  0  0  0
  186.4330  170.9200  134.3460 O   0  0  0  0  0  1  0  0  0  0  0  0
  186.4480  171.2020  135.7170 C   0  0  1  0  0  3  0  0  0  0  0  0
  187.2910  173.5790  136.0680 C   0  0  2  0  0  3  0  0  0  0  0  0
  187.5110  178.7260  144.0750 O   0  0  0  0  0  0  0  0  0  0  0  0
  186.4240  178.2280  144.8360 C   0  0  1  0  0  3  0  0  0  0  0  0
  187.5090  178.3680  147.0990 C   0  0  0  0  0  1  0  0  0  0  0  0
  185.7330  176.8400  146.6900 F   0  0  0  0  0  0  0  0  0  0  0  0
  186.8200  177.4590  146.1010 C   0  0  1  0  0  3  0  0  0  0  0  0
  185.3140  179.2510  145.0800 C   0  0  0  0  0  2  0  0  0  0  0  0
  182.6710  178.2930  142.6350 C   0  0  0  0  0  0  0  0  0  0  0  0
  181.9620  178.8130  143.5800 N   0  0  0  0  0  0  0  0  0  0  0  0
  184.8480  179.0320  141.9070 N   0  0  0  0  0  0  0  0  0  0  0  0
  183.0530  178.6010  140.3350 C   0  0  0  0  0  0  0  0  0  0  0  0
  184.3940  179.1380  140.6900 C   0  0  0  0  0  3  0  0  0  0  0  0
  182.8580  179.1870  144.6160 C   0  0  0  0  0  3  0  0  0  0  0  0
  182.2200  178.2610  141.2810 N   0  0  0  0  0  0  0  0  0  0  0  0
  184.1110  178.9360  144.2550 C   0  0  0  0  0  0  0  0  0  0  0  0
  184.1290  178.2670  142.9300 C   0  0  1  0  0  3  0  0  0  0  0  0
  182.6150  178.6180  138.8980 C   0  0  1  0  0  3  0  0  0  0  0  0
  182.6040  179.9800  138.3750 N   0  0  0  0  0  2  0  0  0  0  0  0
  181.6110  180.9470  138.7230 C   0  0  0  0  0  0  0  0  0  0  0  0
  181.6580  182.2370  138.1320 N   0  0  0  0  0  1  0  0  0  0  0  0
  180.7120  180.6750  139.5620 O   0  0  0  0  0  0  0  0  0  0  0  0
  183.0380  177.6960  136.6090 C   0  0  0  0  0  1  0  0  0  0  0  0
  183.5350  177.7600  138.0430 C   0  0  0  0  0  2  0  0  0  0  0  0
  190.7580  177.5650  142.9780 C   0  0  2  0  0  3  0  0  0  0  0  0
  191.4960  177.7400  140.7170 O   0  0  0  0  0  0  0  0  0  0  0  0
  192.6290  177.2580  141.3950 C   0  0  0  0  0  2  0  0  0  0  0  0
  191.2650  176.8160  141.7530 C   0  0  1  0  0  3  0  0  0  0  0  0
  190.6650  176.6790  144.0560 O   0  0  0  0  0  0  0  0  0  0  0  0
  191.6150  177.1270  144.9760 C   0  0  0  0  0  2  0  0  0  0  0  0
  191.2160  176.7810  147.4060 C   0  0  0  0  0  1  0  0  0  0  0  0
  191.7220  176.1440  146.1280 C   0  0  0  0  0  2  0  0  0  0  0  0
  1 47  1  1  0  0  0
  1  3  1  0  0  0  0
  2  8  1  6  0  0  0
  2  4  1  0  0  0  0
  2  1  1  0  0  0  0
  3 25  1  6  0  0  0
  4  3  1  0  0  0  0
  5  8  1  0  0  0  0
  6  7  1  0  0  0  0
  6  5  1  0  0  0  0
  7 11  1  6  0  0  0
  7  5  1  0  0  0  0
  8  9  2  0  0  0  0
 11 10  2  0  0  0  0
 12 11  1  0  0  0  0
 13 12  1  0  0  0  0
 13 14  1  0  0  0  0
 17 15  1  6  0  0  0
 17 18  1  0  0  0  0
 19 21  1  6  0  0  0
 20 16  1  6  0  0  0
 20 18  1  0  0  0  0
 23 22  1  6  0  0  0
 23 19  1  0  0  0  0
 23 20  1  0  0  0  0
 24 19  1  0  0  0  0
 24 14  1  1  0  0  0
 24 17  1  0  0  0  0
 25 26  1  0  0  0  0
 26 30  1  1  0  0  0
 26 29  1  0  0  0  0
 29 28  1  0  0  0  0
 29 27  1  1  0  0  0
 31 39  1  0  0  0  0
 31 32  2  0  0  0  0
 32 36  1  0  0  0  0
 34 35  1  0  0  0  0
 34 37  2  0  0  0  0
 35 33  2  0  0  0  0
 37 31  1  0  0  0  0
 38 36  2  0  0  0  0
 38 30  1  0  0  0  0
 39 33  1  6  0  0  0
 39 38  1  0  0  0  0
 40 46  1  6  0  0  0
 40 34  1  0  0  0  0
 41 42  1  0  0  0  0
 41 40  1  0  0  0  0
 42 44  2  0  0  0  0
 43 42  1  0  0  0  0
 45 46  1  0  0  0  0
 47 51  1  1  0  0  0
 48 49  1  0  0  0  0
 48 50  1  0  0  0  0
 49 50  1  0  0  0  0
 50 47  1  1  0  0  0
 51 52  1  0  0  0  0
 52 54  1  0  0  0  0
 54 53  1  0  0  0  0
M  END
>  <MODEL>
7

>  <REMARK>
 VINA RESULT:      -6.2      2.953      4.696
  Name = 
  19 active torsions:
  status: ('A' for Active; 'I' for Inactive)
    1  A    between atoms: C_2  and  C_7
    2  A    between atoms: C_2  and  C_39
    3  A    between atoms: C_3  and  C_24
    4  A    between atoms: C_3  and  O_26
    5  A    between atoms: N_4  and  C_21
    6  A    between atoms: C_5  and  C_15
    7  A    between atoms: C_5  and  O_26
    8  A    between atoms: C_5  and  C_45
    9  A    between atoms: C_7  and  N_16
   10  A    between atoms: N_8  and  N_16
   11  A    between atoms: N_8  and  C_46
   12  A    between atoms: C_21  and  C_25
   13  A    between atoms: C_21  and  C_36
   14  A    between atoms: C_22  and  C_41
   15  A    between atoms: O_23  and  C_42
   16  A    between atoms: O_23  and  C_47
   17  A    between atoms: C_33  and  C_42
   18  A    between atoms: C_33  and  C_51
   19  A    between atoms: C_42  and  C_53
                            x       y       z     vdW  Elec       q    Type
                         _______ _______ _______ _____ _____    ______ ____

>  <TORSDO>
F 19

$$$$
=
 OpenBabel10222421503D

 54 59  0  0  1  0  0  0  0  0999 V2000
  187.2610  174.9370  136.2430 C   0  0  1  0  0  3  0  0  0  0  0  0
  187.4370  176.4430  136.1320 C   0  0  1  0  0  3  0  0  0  0  0  0
  186.1030  175.0000  135.2570 C   0  0  2  0  0  3  0  0  0  0  0  0
  186.2910  176.5030  135.1390 C   0  0  0  0  0  2  0  0  0  0  0  0
  188.1360  177.6920  138.2550 N   0  0  0  0  0  0  0  0  0  0  0  0
  188.5920  178.3780  139.4980 C   0  0  0  0  0  2  0  0  0  0  0  0
  189.5540  178.0550  138.5610 C   0  0  1  0  0  3  0  0  0  0  0  0
  187.1190  177.1030  137.4440 C   0  0  0  0  0  0  0  0  0  0  0  0
  185.9230  177.1440  137.8310 O   0  0  0  0  0  0  0  0  0  0  0  0
  189.9480  175.7120  138.6990 O   0  0  0  0  0  0  0  0  0  0  0  0
  190.3300  176.8400  138.9830 C   0  0  0  0  0  0  0  0  0  0  0  0
  191.6200  177.0180  139.7110 C   0  0  0  0  0  2  0  0  0  0  0  0
  191.3890  177.7320  140.9540 N   0  0  0  0  0  2  0  0  0  0  0  0
  191.6350  176.8190  141.9930 N   0  0  0  0  0  2  0  0  0  0  0  0
  192.0810  178.6040  144.5310 O   0  0  0  0  0  1  0  0  0  0  0  0
  189.2180  178.6700  145.5530 O   0  0  0  0  0  1  0  0  0  0  0  0
  191.6070  177.2970  144.4210 C   0  0  1  0  0  3  0  0  0  0  0  0
  190.8390  176.9110  145.6920 C   0  0  0  0  0  2  0  0  0  0  0  0
  189.6110  176.1730  143.2840 C   0  0  2  0  0  3  0  0  0  0  0  0
  189.3570  177.2800  145.6100 C   0  0  2  0  0  3  0  0  0  0  0  0
  188.9210  176.0280  142.0770 O   0  0  0  0  0  1  0  0  0  0  0  0
  187.6050  177.3810  143.9370 O   0  0  0  0  0  1  0  0  0  0  0  0
  188.6550  176.5920  144.4190 C   0  0  1  0  0  3  0  0  0  0  0  0
  190.7780  177.1570  143.1310 C   0  0  2  0  0  3  0  0  0  0  0  0
  184.8990  174.7290  135.9330 O   0  0  0  0  0  0  0  0  0  0  0  0
  184.0950  173.8620  135.1510 C   0  0  1  0  0  3  0  0  0  0  0  0
  184.5590  172.2220  136.9980 C   0  0  0  0  0  1  0  0  0  0  0  0
  182.9880  171.7180  135.2850 F   0  0  0  0  0  0  0  0  0  0  0  0
  184.1740  172.3820  135.5410 C   0  0  1  0  0  3  0  0  0  0  0  0
  182.6610  174.3540  134.9520 C   0  0  0  0  0  2  0  0  0  0  0  0
  181.3140  176.2410  137.8690 C   0  0  0  0  0  0  0  0  0  0  0  0
  181.3860  175.0480  138.3540 N   0  0  0  0  0  0  0  0  0  0  0  0
  182.8640  177.2540  136.3230 N   0  0  0  0  0  0  0  0  0  0  0  0
  182.1360  178.3950  138.3360 C   0  0  0  0  0  0  0  0  0  0  0  0
  183.0240  178.2470  137.1520 C   0  0  0  0  0  3  0  0  0  0  0  0
  181.8510  174.2010  137.3120 C   0  0  0  0  0  3  0  0  0  0  0  0
  181.3720  177.4010  138.6990 N   0  0  0  0  0  0  0  0  0  0  0  0
  182.1090  174.9120  136.2210 C   0  0  0  0  0  0  0  0  0  0  0  0
  181.7310  176.3310  136.4440 C   0  0  1  0  0  3  0  0  0  0  0  0
  182.2580  179.6210  139.1940 C   0  0  1  0  0  3  0  0  0  0  0  0
  183.6470  179.8500  139.5780 N   0  0  0  0  0  2  0  0  0  0  0  0
  184.2890  179.1610  140.6540 C   0  0  0  0  0  0  0  0  0  0  0  0
  185.6340  179.4800  140.9810 N   0  0  0  0  0  1  0  0  0  0  0  0
  183.6830  178.2630  141.2980 O   0  0  0  0  0  0  0  0  0  0  0  0
  180.4440  180.5260  137.7260 C   0  0  0  0  0  1  0  0  0  0  0  0
  181.7320  180.8460  138.4640 C   0  0  0  0  0  2  0  0  0  0  0  0
  188.4710  174.2360  135.6270 C   0  0  2  0  0  3  0  0  0  0  0  0
  187.7770  172.5540  137.1680 O   0  0  0  0  0  0  0  0  0  0  0  0
  188.2490  171.8160  136.0690 C   0  0  0  0  0  2  0  0  0  0  0  0
  188.9050  173.0670  136.5020 C   0  0  1  0  0  3  0  0  0  0  0  0
  189.5290  175.1440  135.5120 O   0  0  0  0  0  0  0  0  0  0  0  0
  190.5150  174.4610  134.7980 C   0  0  0  0  0  2  0  0  0  0  0  0
  192.3300  174.3990  136.4970 C   0  0  0  0  0  1  0  0  0  0  0  0
  191.8870  174.9920  135.1750 C   0  0  0  0  0  2  0  0  0  0  0  0
  1 47  1  6  0  0  0
  2  1  1  0  0  0  0
  2  8  1  1  0  0  0
  3 25  1  1  0  0  0
  3  1  1  0  0  0  0
  4  3  1  0  0  0  0
  4  2  1  0  0  0  0
  5  7  1  0  0  0  0
  5  6  1  0  0  0  0
  7 11  1  1  0  0  0
  7  6  1  0  0  0  0
  8  9  2  0  0  0  0
  8  5  1  0  0  0  0
 10 11  2  0  0  0  0
 11 12  1  0  0  0  0
 12 13  1  0  0  0  0
 13 14  1  0  0  0  0
 17 15  1  1  0  0  0
 17 18  1  0  0  0  0
 19 21  1  6  0  0  0
 19 23  1  0  0  0  0
 20 16  1  6  0  0  0
 20 18  1  0  0  0  0
 23 22  1  6  0  0  0
 23 20  1  0  0  0  0
 24 14  1  6  0  0  0
 24 19  1  0  0  0  0
 24 17  1  0  0  0  0
 26 30  1  1  0  0  0
 26 29  1  0  0  0  0
 26 25  1  0  0  0  0
 28 29  1  0  0  0  0
 29 27  1  1  0  0  0
 30 38  1  0  0  0  0
 31 32  2  0  0  0  0
 31 37  1  0  0  0  0
 33 39  1  0  0  0  0
 33 35  2  0  0  0  0
 34 37  2  0  0  0  0
 34 40  1  0  0  0  0
 35 34  1  0  0  0  0
 36 32  1  0  0  0  0
 38 36  2  0  0  0  0
 39 38  1  1  0  0  0
 39 31  1  0  0  0  0
 40 46  1  6  0  0  0
 40 41  1  0  0  0  0
 41 42  1  0  0  0  0
 42 43  1  0  0  0  0
 42 44  2  0  0  0  0
 45 46  1  0  0  0  0
 47 51  1  1  0  0  0
 49 50  1  0  0  0  0
 49 48  1  0  0  0  0
 50 47  1  6  0  0  0
 50 48  1  0  0  0  0
 52 54  1  0  0  0  0
 52 51  1  0  0  0  0
 54 53  1  0  0  0  0
M  END
>  <MODEL>
8

>  <REMARK>
 VINA RESULT:      -6.1      3.248      8.273
  Name = 
  19 active torsions:
  status: ('A' for Active; 'I' for Inactive)
    1  A    between atoms: C_2  and  C_7
    2  A    between atoms: C_2  and  C_39
    3  A    between atoms: C_3  and  C_24
    4  A    between atoms: C_3  and  O_26
    5  A    between atoms: N_4  and  C_21
    6  A    between atoms: C_5  and  C_15
    7  A    between atoms: C_5  and  O_26
    8  A    between atoms: C_5  and  C_45
    9  A    between atoms: C_7  and  N_16
   10  A    between atoms: N_8  and  N_16
   11  A    between atoms: N_8  and  C_46
   12  A    between atoms: C_21  and  C_25
   13  A    between atoms: C_21  and  C_36
   14  A    between atoms: C_22  and  C_41
   15  A    between atoms: O_23  and  C_42
   16  A    between atoms: O_23  and  C_47
   17  A    between atoms: C_33  and  C_42
   18  A    between atoms: C_33  and  C_51
   19  A    between atoms: C_42  and  C_53
                            x       y       z     vdW  Elec       q    Type
                         _______ _______ _______ _____ _____    ______ ____

>  <TORSDO>
F 19

$$$$
=
 OpenBabel10222421503D

 54 59  0  0  1  0  0  0  0  0999 V2000
  181.2460  177.6500  138.8160 C   0  0  1  0  0  3  0  0  0  0  0  0
  182.3800  177.0880  137.9740 C   0  0  1  0  0  3  0  0  0  0  0  0
  182.2470  178.4740  139.6140 C   0  0  2  0  0  3  0  0  0  0  0  0
  183.3760  177.9200  138.7620 C   0  0  0  0  0  2  0  0  0  0  0  0
  183.7100  174.9040  137.8530 N   0  0  0  0  0  0  0  0  0  0  0  0
  184.5020  173.6460  137.7220 C   0  0  0  0  0  2  0  0  0  0  0  0
  185.0870  174.8150  137.2760 C   0  0  1  0  0  3  0  0  0  0  0  0
  182.5230  175.6110  138.2120 C   0  0  0  0  0  0  0  0  0  0  0  0
  181.5730  174.9860  138.7490 O   0  0  0  0  0  0  0  0  0  0  0  0
  184.0000  175.1860  135.1910 O   0  0  0  0  0  0  0  0  0  0  0  0
  185.0380  174.9050  135.7770 C   0  0  0  0  0  0  0  0  0  0  0  0
  186.2920  174.7040  134.9950 C   0  0  0  0  0  2  0  0  0  0  0  0
  187.3130  175.6270  135.4580 N   0  0  0  0  0  2  0  0  0  0  0  0
  188.0730  174.9380  136.4180 N   0  0  0  0  0  2  0  0  0  0  0  0
  186.9050  177.5680  137.6580 O   0  0  0  0  0  1  0  0  0  0  0  0
  189.0080  178.0360  139.8030 O   0  0  0  0  0  1  0  0  0  0  0  0
  188.1340  177.3310  137.0450 C   0  0  1  0  0  3  0  0  0  0  0  0
  189.1370  178.4230  137.4430 C   0  0  0  0  0  2  0  0  0  0  0  0
  190.1340  175.8050  137.5040 C   0  0  2  0  0  3  0  0  0  0  0  0
  189.8960  178.0760  138.7240 C   0  0  2  0  0  3  0  0  0  0  0  0
  190.5290  174.4870  137.7460 O   0  0  0  0  0  1  0  0  0  0  0  0
  190.7840  176.1070  139.8270 O   0  0  0  0  0  1  0  0  0  0  0  0
  190.6810  176.7530  138.5900 C   0  0  1  0  0  3  0  0  0  0  0  0
  188.6090  175.9040  137.3780 C   0  0  2  0  0  3  0  0  0  0  0  0
  182.3440  177.9550  140.9180 O   0  0  0  0  0  0  0  0  0  0  0  0
  182.0600  178.9730  141.8620 C   0  0  1  0  0  3  0  0  0  0  0  0
  180.3530  178.8160  143.6990 C   0  0  0  0  0  1  0  0  0  0  0  0
  180.0900  180.3730  141.9190 F   0  0  0  0  0  0  0  0  0  0  0  0
  180.5800  179.1170  142.2310 C   0  0  1  0  0  3  0  0  0  0  0  0
  182.9840  178.9680  143.0800 C   0  0  0  0  0  2  0  0  0  0  0  0
  186.5270  178.0020  142.4480 C   0  0  0  0  0  0  0  0  0  0  0  0
  186.3970  179.0130  141.6560 N   0  0  0  0  0  0  0  0  0  0  0  0
  185.5270  177.7550  144.6290 N   0  0  0  0  0  0  0  0  0  0  0  0
  187.8820  177.3250  144.2470 C   0  0  0  0  0  0  0  0  0  0  0  0
  186.7080  177.5390  145.1340 C   0  0  0  0  0  3  0  0  0  0  0  0
  185.0540  179.4590  141.7660 C   0  0  0  0  0  3  0  0  0  0  0  0
  187.7940  177.6120  142.9770 N   0  0  0  0  0  0  0  0  0  0  0  0
  184.4020  178.7410  142.6720 C   0  0  0  0  0  0  0  0  0  0  0  0
  185.2810  177.6610  143.1860 C   0  0  1  0  0  3  0  0  0  0  0  0
  189.2010  176.9450  144.8570 C   0  0  1  0  0  3  0  0  0  0  0  0
  190.2460  176.8890  143.8410 N   0  0  0  0  0  2  0  0  0  0  0  0
  191.0050  178.0300  143.4310 C   0  0  0  0  0  0  0  0  0  0  0  0
  191.9760  177.8870  142.4040 N   0  0  0  0  0  1  0  0  0  0  0  0
  190.8360  179.1490  143.9830 O   0  0  0  0  0  0  0  0  0  0  0  0
  189.6260  177.2760  147.3020 C   0  0  0  0  0  1  0  0  0  0  0  0
  189.6040  177.9390  145.9360 C   0  0  0  0  0  2  0  0  0  0  0  0
  180.3630  178.5460  137.9480 C   0  0  2  0  0  3  0  0  0  0  0  0
  181.1150  177.9270  135.7710 O   0  0  0  0  0  0  0  0  0  0  0  0
  180.2290  178.9890  135.5220 C   0  0  0  0  0  2  0  0  0  0  0  0
  181.1200  178.9840  136.7010 C   0  0  1  0  0  3  0  0  0  0  0  0
  179.9840  179.6770  138.6780 O   0  0  0  0  0  0  0  0  0  0  0  0
  180.2870  180.7600  137.8500 C   0  0  0  0  0  2  0  0  0  0  0  0
  181.8550  182.6740  138.0970 C   0  0  0  0  0  1  0  0  0  0  0  0
  180.6530  181.9680  138.6930 C   0  0  0  0  0  2  0  0  0  0  0  0
  1 47  1  6  0  0  0
  1  3  1  0  0  0  0
  2  8  1  1  0  0  0
  2  4  1  0  0  0  0
  2  1  1  0  0  0  0
  3 25  1  1  0  0  0
  4  3  1  0  0  0  0
  5  8  1  0  0  0  0
  6  5  1  0  0  0  0
  7 11  1  6  0  0  0
  7  6  1  0  0  0  0
  7  5  1  0  0  0  0
  8  9  2  0  0  0  0
 10 11  2  0  0  0  0
 12 13  1  0  0  0  0
 12 11  1  0  0  0  0
 13 14  1  0  0  0  0
 17 24  1  0  0  0  0
 17 18  1  0  0  0  0
 17 15  1  1  0  0  0
 18 20  1  0  0  0  0
 19 21  1  1  0  0  0
 19 23  1  0  0  0  0
 20 16  1  1  0  0  0
 23 20  1  0  0  0  0
 23 22  1  1  0  0  0
 24 14  1  6  0  0  0
 24 19  1  0  0  0  0
 25 26  1  0  0  0  0
 26 29  1  0  0  0  0
 26 30  1  1  0  0  0
 28 29  1  0  0  0  0
 29 27  1  1  0  0  0
 31 37  1  0  0  0  0
 32 36  1  0  0  0  0
 32 31  2  0  0  0  0
 33 35  2  0  0  0  0
 34 40  1  0  0  0  0
 34 35  1  0  0  0  0
 36 38  2  0  0  0  0
 37 34  2  0  0  0  0
 38 30  1  0  0  0  0
 38 39  1  0  0  0  0
 39 31  1  6  0  0  0
 39 33  1  0  0  0  0
 40 46  1  1  0  0  0
 41 40  1  0  0  0  0
 42 41  1  0  0  0  0
 42 44  2  0  0  0  0
 43 42  1  0  0  0  0
 46 45  1  0  0  0  0
 47 51  1  1  0  0  0
 48 50  1  0  0  0  0
 49 48  1  0  0  0  0
 49 50  1  0  0  0  0
 50 47  1  1  0  0  0
 52 51  1  0  0  0  0
 52 54  1  0  0  0  0
 53 54  1  0  0  0  0
M  END
>  <MODEL>
9

>  <REMARK>
 VINA RESULT:      -6.1      3.051      8.361
  Name = 
  19 active torsions:
  status: ('A' for Active; 'I' for Inactive)
    1  A    between atoms: C_2  and  C_7
    2  A    between atoms: C_2  and  C_39
    3  A    between atoms: C_3  and  C_24
    4  A    between atoms: C_3  and  O_26
    5  A    between atoms: N_4  and  C_21
    6  A    between atoms: C_5  and  C_15
    7  A    between atoms: C_5  and  O_26
    8  A    between atoms: C_5  and  C_45
    9  A    between atoms: C_7  and  N_16
   10  A    between atoms: N_8  and  N_16
   11  A    between atoms: N_8  and  C_46
   12  A    between atoms: C_21  and  C_25
   13  A    between atoms: C_21  and  C_36
   14  A    between atoms: C_22  and  C_41
   15  A    between atoms: O_23  and  C_42
   16  A    between atoms: O_23  and  C_47
   17  A    between atoms: C_33  and  C_42
   18  A    between atoms: C_33  and  C_51
   19  A    between atoms: C_42  and  C_53
                            x       y       z     vdW  Elec       q    Type
                         _______ _______ _______ _____ _____    ______ ____

>  <TORSDO>
F 19

$$$$
