=
 OpenBabel10232408543D

 51 58  0  0  1  0  0  0  0  0999 V2000
  188.1870  178.6140  141.2500 C   0  0  0  0  0  3  0  0  0  0  0  0
  188.5910  177.7940  142.3150 C   0  0  0  0  0  0  0  0  0  0  0  0
  187.7850  177.8120  143.5790 C   0  0  0  0  0  0  0  0  0  0  0  0
  189.8530  177.6580  139.7940 C   0  0  0  0  0  0  0  0  0  0  0  0
  189.6950  176.9280  142.1090 C   0  0  0  0  0  0  0  0  0  0  0  0
  186.2580  177.6050  143.5320 C   0  0  1  0  0  3  0  0  0  0  0  0
  190.7860  175.0150  142.9650 O   0  0  0  0  0  0  0  0  0  0  0  0
  190.2960  176.8570  140.8440 C   0  0  0  0  0  3  0  0  0  0  0  0
  189.7800  177.7800  144.9980 N   0  0  0  0  0  2  0  0  0  0  0  0
  185.6020  178.0620  144.6930 O   0  0  0  0  0  0  0  0  0  0  0  0
  188.3650  177.8080  144.8050 C   0  0  0  0  0  0  0  0  0  0  0  0
  186.1320  177.3460  145.7710 C   0  0  0  0  0  2  0  0  0  0  0  0
  187.5300  177.8690  146.0510 C   0  0  0  0  0  2  0  0  0  0  0  0
  190.3240  176.1650  143.1920 C   0  0  0  0  0  0  0  0  0  0  0  0
  188.8070  178.5530  140.0030 C   0  0  0  0  0  3  0  0  0  0  0  0
  190.5980  176.7880  144.4420 N   0  0  0  0  0  2  0  0  0  0  0  0
  185.5340  178.1380  142.2910 C   0  0  0  0  0  2  0  0  0  0  0  0
  184.2570  178.9050  142.6350 C   0  0  0  0  0  2  0  0  0  0  0  0
  183.5080  178.9880  140.2140 C   0  0  0  0  0  0  0  0  0  0  0  0
  183.2620  178.8120  141.5230 C   0  0  0  0  0  3  0  0  0  0  0  0
  180.1480  176.0080  137.9810 C   0  0  0  0  0  2  0  0  0  0  0  0
  180.9020  175.0130  138.7620 N   0  0  0  0  0  2  0  0  0  0  0  0
  180.0140  178.4840  137.7400 N   0  0  0  0  0  2  0  0  0  0  0  0
  180.2590  180.9310  137.3570 C   0  0  2  0  0  3  0  0  0  0  0  0
  182.2390  175.1810  138.5310 O   0  0  0  0  0  0  0  0  0  0  0  0
  180.9020  177.3370  137.9490 C   0  0  1  0  0  3  0  0  0  0  0  0
  180.2050  181.1800  135.9860 O   0  0  0  0  0  1  0  0  0  0  0  0
  181.7360  177.4780  139.2380 C   0  0  1  0  0  3  0  0  0  0  0  0
  182.1710  181.1400  138.7970 O   0  0  0  0  0  0  0  0  0  0  0  0
  182.6770  176.2610  139.3390 C   0  0  0  0  0  2  0  0  0  0  0  0
  181.2540  181.8870  138.0190 C   0  0  0  0  0  2  0  0  0  0  0  0
  182.4290  178.7800  139.2850 N   0  0  0  0  0  0  0  0  0  0  0  0
  181.5470  179.8980  138.9280 C   0  0  2  0  0  3  0  0  0  0  0  0
  180.9140  179.6210  137.6060 C   0  0  1  0  0  3  0  0  0  0  0  0
  184.7620  179.3650  139.6990 O   0  0  0  0  0  0  0  0  0  0  0  0
  185.3970  178.7770  138.5710 C   0  0  0  0  0  1  0  0  0  0  0  0
  190.4910  177.5490  138.4500 C   0  0  0  0  0  2  0  0  0  0  0  0
  190.4970  175.1150  137.8590 C   0  0  1  0  0  3  0  0  0  0  0  0
  192.0790  175.9690  136.1620 F   0  0  0  0  0  0  0  0  0  0  0  0
  191.6970  174.8900  136.9510 C   0  0  2  0  0  0  0  0  0  0  0  0
  187.4370  176.0240  134.8260 O   0  0  0  0  0  0  0  0  0  0  0  0
  187.5890  175.1890  137.3800 C   0  0  0  0  0  2  0  0  0  0  0  0
  189.8130  176.4670  137.6210 C   0  0  1  0  0  3  0  0  0  0  0  0
  189.7160  174.7280  135.4080 C   0  0  0  0  0  2  0  0  0  0  0  0
  188.3100  176.4240  137.9260 C   0  0  0  0  0  2  0  0  0  0  0  0
  187.9550  174.8840  135.6570 S   0  0  0  0  0  0  0  0  0  0  0  0
  190.4010  174.1490  136.6520 C   0  0  2  0  0  3  0  0  0  0  0  0
  187.2820  173.6130  135.2290 O   0  0  0  0  0  0  0  0  0  0  0  0
  192.7040  174.1380  137.5690 O   0  0  0  0  0  0  0  0  0  0  0  0
  193.9630  175.8400  138.4210 O   0  0  0  0  0  1  0  0  0  0  0  0
  193.8860  174.8720  137.4200 C   0  0  0  0  0  2  0  0  0  0  0  0
  1  2  1  0  0  0  0
  2  3  1  0  0  0  0
  3 11  2  0  0  0  0
  4 15  1  0  0  0  0
  4  8  2  0  0  0  0
  5  2  2  0  0  0  0
  5 14  1  0  0  0  0
  6 17  1  6  0  0  0
  6  3  1  0  0  0  0
  6 10  1  0  0  0  0
  7 14  2  0  0  0  0
  8  5  1  0  0  0  0
 10 12  1  0  0  0  0
 11  9  1  0  0  0  0
 11 13  1  0  0  0  0
 12 13  1  0  0  0  0
 14 16  1  0  0  0  0
 15  1  2  0  0  0  0
 16  9  1  0  0  0  0
 17 18  1  0  0  0  0
 19 20  2  0  0  0  0
 20 18  1  0  0  0  0
 21 22  1  0  0  0  0
 23 26  1  0  0  0  0
 24 27  1  6  0  0  0
 24 34  1  0  0  0  0
 24 31  1  0  0  0  0
 25 22  1  0  0  0  0
 25 30  1  0  0  0  0
 26 21  1  1  0  0  0
 26 28  1  0  0  0  0
 28 32  1  0  0  0  0
 28 30  1  6  0  0  0
 31 29  1  0  0  0  0
 32 19  1  0  0  0  0
 33 29  1  6  0  0  0
 33 32  1  0  0  0  0
 34 23  1  1  0  0  0
 34 33  1  0  0  0  0
 35 19  1  0  0  0  0
 36 35  1  0  0  0  0
 37  4  1  0  0  0  0
 39 40  1  0  0  0  0
 40 49  1  0  0  0  0
 40 38  1  0  0  0  0
 41 46  2  0  0  0  0
 42 45  1  0  0  0  0
 43 38  1  0  0  0  0
 43 45  1  0  0  0  0
 43 37  1  0  0  0  0
 44 46  1  0  0  0  0
 44 47  1  0  0  0  0
 46 42  1  0  0  0  0
 47 40  1  0  0  0  0
 47 38  1  0  0  0  0
 48 46  2  0  0  0  0
 51 49  1  0  0  0  0
 51 50  1  0  0  0  0
M  END
>  <MODEL>
1

>  <REMARK>
 VINA RESULT:      -9.2      0.000      0.000
  Name = 
  9 active torsions:
  status: ('A' for Active; 'I' for Inactive)
    1  A    between atoms: O_1  and  C_18
    2  A    between atoms: C_2  and  C_15
    3  A    between atoms: C_2  and  C_35
    4  A    between atoms: O_8  and  C_12
    5  A    between atoms: O_8  and  C_41
    6  A    between atoms: C_14  and  C_25
    7  A    between atoms: C_15  and  C_17
    8  A    between atoms: C_18  and  N_44
    9  A    between atoms: C_25  and  C_34
                            x       y       z     vdW  Elec       q    Type
                         _______ _______ _______ _____ _____    ______ ____

>  <TORSDO>
F 9

$$$$
=
 OpenBabel10232408543D

 51 58  0  0  1  0  0  0  0  0999 V2000
  187.8800  178.0170  138.1650 C   0  0  0  0  0  3  0  0  0  0  0  0
  188.2110  176.9010  137.3790 C   0  0  0  0  0  0  0  0  0  0  0  0
  189.6420  176.4600  137.3290 C   0  0  0  0  0  0  0  0  0  0  0  0
  185.5250  177.6740  137.7780 C   0  0  0  0  0  0  0  0  0  0  0  0
  187.1580  176.2000  136.7400 C   0  0  0  0  0  0  0  0  0  0  0  0
  190.4300  176.2220  138.6330 C   0  0  1  0  0  3  0  0  0  0  0  0
  186.6070  174.1540  135.6920 O   0  0  0  0  0  0  0  0  0  0  0  0
  185.8280  176.5830  136.9660 C   0  0  0  0  0  3  0  0  0  0  0  0
  189.5540  176.0290  134.9200 N   0  0  0  0  0  2  0  0  0  0  0  0
  191.8270  176.2340  138.4440 O   0  0  0  0  0  0  0  0  0  0  0  0
  190.2360  176.0650  136.1750 C   0  0  0  0  0  0  0  0  0  0  0  0
  192.1270  175.2180  137.5320 C   0  0  0  0  0  2  0  0  0  0  0  0
  191.6840  175.6700  136.1510 C   0  0  0  0  0  2  0  0  0  0  0  0
  187.3890  175.1410  135.7510 C   0  0  0  0  0  0  0  0  0  0  0  0
  186.5550  178.4040  138.3640 C   0  0  0  0  0  3  0  0  0  0  0  0
  188.3630  175.3160  134.7290 N   0  0  0  0  0  2  0  0  0  0  0  0
  190.0660  177.1140  139.8240 C   0  0  0  0  0  2  0  0  0  0  0  0
  190.4910  176.5150  141.1640 C   0  0  0  0  0  2  0  0  0  0  0  0
  189.3760  177.8200  143.0300 C   0  0  0  0  0  0  0  0  0  0  0  0
  189.4530  176.7570  142.2120 C   0  0  0  0  0  3  0  0  0  0  0  0
  184.4580  178.3440  143.8660 C   0  0  0  0  0  2  0  0  0  0  0  0
  184.4980  178.5380  142.4060 N   0  0  0  0  0  2  0  0  0  0  0  0
  185.9980  177.6690  145.7040 N   0  0  0  0  0  2  0  0  0  0  0  0
  187.7370  177.3370  147.4540 C   0  0  2  0  0  3  0  0  0  0  0  0
  185.4550  179.4660  142.1040 O   0  0  0  0  0  0  0  0  0  0  0  0
  185.8700  178.4110  144.4470 C   0  0  1  0  0  3  0  0  0  0  0  0
  187.5000  178.2300  148.4980 O   0  0  0  0  0  1  0  0  0  0  0  0
  186.8790  177.9290  143.3850 C   0  0  1  0  0  3  0  0  0  0  0  0
  189.5630  177.3780  145.8920 O   0  0  0  0  0  0  0  0  0  0  0  0
  186.7100  178.8040  142.1270 C   0  0  0  0  0  2  0  0  0  0  0  0
  189.2440  177.1590  147.2540 C   0  0  0  0  0  2  0  0  0  0  0  0
  188.2530  177.9100  143.9240 N   0  0  0  0  0  0  0  0  0  0  0  0
  188.3250  177.2890  145.2520 C   0  0  2  0  0  3  0  0  0  0  0  0
  187.3500  177.9590  146.1610 C   0  0  1  0  0  3  0  0  0  0  0  0
  190.3320  178.8520  143.0620 O   0  0  0  0  0  0  0  0  0  0  0  0
  191.5610  178.8110  143.7750 C   0  0  0  0  0  1  0  0  0  0  0  0
  184.1030  178.0500  138.0250 C   0  0  0  0  0  2  0  0  0  0  0  0
  181.7860  177.1020  138.0990 C   0  0  1  0  0  3  0  0  0  0  0  0
  182.8760  175.6960  139.8160 F   0  0  0  0  0  0  0  0  0  0  0  0
  181.6920  176.2770  139.3740 C   0  0  2  0  0  0  0  0  0  0  0  0
  183.1610  173.9860  135.3070 O   0  0  0  0  0  0  0  0  0  0  0  0
  181.9500  176.3890  135.2430 C   0  0  0  0  0  2  0  0  0  0  0  0
  183.1630  177.0120  137.4290 C   0  0  1  0  0  3  0  0  0  0  0  0
  181.7780  174.5620  137.5360 C   0  0  0  0  0  2  0  0  0  0  0  0
  183.0850  177.1760  135.9060 C   0  0  0  0  0  2  0  0  0  0  0  0
  181.9070  174.6780  135.7580 S   0  0  0  0  0  0  0  0  0  0  0  0
  181.0140  175.7590  138.1140 C   0  0  2  0  0  3  0  0  0  0  0  0
  180.7180  174.0070  135.1330 O   0  0  0  0  0  0  0  0  0  0  0  0
  180.8490  176.8600  140.3290 O   0  0  0  0  0  0  0  0  0  0  0  0
  180.9430  178.4770  141.9360 O   0  0  0  0  0  1  0  0  0  0  0  0
  181.4640  178.0570  140.7130 C   0  0  0  0  0  2  0  0  0  0  0  0
  1 15  1  0  0  0  0
  2  1  2  0  0  0  0
  3  2  1  0  0  0  0
  3  6  1  0  0  0  0
  4 37  1  0  0  0  0
  4 15  2  0  0  0  0
  5  8  2  0  0  0  0
  5  2  1  0  0  0  0
  6 17  1  1  0  0  0
  7 14  2  0  0  0  0
  8  4  1  0  0  0  0
  9 11  1  0  0  0  0
 10  6  1  0  0  0  0
 11  3  2  0  0  0  0
 12 10  1  0  0  0  0
 13 11  1  0  0  0  0
 13 12  1  0  0  0  0
 14  5  1  0  0  0  0
 16  9  1  0  0  0  0
 16 14  1  0  0  0  0
 17 18  1  0  0  0  0
 18 20  1  0  0  0  0
 19 35  1  0  0  0  0
 19 32  1  0  0  0  0
 20 19  2  0  0  0  0
 22 21  1  0  0  0  0
 24 27  1  1  0  0  0
 25 30  1  0  0  0  0
 25 22  1  0  0  0  0
 26 21  1  6  0  0  0
 26 23  1  0  0  0  0
 28 30  1  6  0  0  0
 28 32  1  0  0  0  0
 28 26  1  0  0  0  0
 29 31  1  0  0  0  0
 31 24  1  0  0  0  0
 32 33  1  0  0  0  0
 33 29  1  1  0  0  0
 33 34  1  0  0  0  0
 34 23  1  6  0  0  0
 34 24  1  0  0  0  0
 35 36  1  0  0  0  0
 38 47  1  0  0  0  0
 38 40  1  0  0  0  0
 40 39  1  0  0  0  0
 40 49  1  0  0  0  0
 41 46  2  0  0  0  0
 42 46  1  0  0  0  0
 42 45  1  0  0  0  0
 43 37  1  0  0  0  0
 43 38  1  0  0  0  0
 44 47  1  0  0  0  0
 45 43  1  0  0  0  0
 46 44  1  0  0  0  0
 47 40  1  0  0  0  0
 48 46  2  0  0  0  0
 49 51  1  0  0  0  0
 51 50  1  0  0  0  0
M  END
>  <MODEL>
2

>  <REMARK>
 VINA RESULT:      -9.1      3.160      8.606
  Name = 
  9 active torsions:
  status: ('A' for Active; 'I' for Inactive)
    1  A    between atoms: O_1  and  C_18
    2  A    between atoms: C_2  and  C_15
    3  A    between atoms: C_2  and  C_35
    4  A    between atoms: O_8  and  C_12
    5  A    between atoms: O_8  and  C_41
    6  A    between atoms: C_14  and  C_25
    7  A    between atoms: C_15  and  C_17
    8  A    between atoms: C_18  and  N_44
    9  A    between atoms: C_25  and  C_34
                            x       y       z     vdW  Elec       q    Type
                         _______ _______ _______ _____ _____    ______ ____

>  <TORSDO>
F 9

$$$$
=
 OpenBabel10232408543D

 51 58  0  0  1  0  0  0  0  0999 V2000
  186.9280  178.0600  137.6590 C   0  0  0  0  0  3  0  0  0  0  0  0
  187.5920  176.9420  137.1300 C   0  0  0  0  0  0  0  0  0  0  0  0
  189.0320  176.7290  137.4890 C   0  0  0  0  0  0  0  0  0  0  0  0
  184.8190  177.3160  136.7590 C   0  0  0  0  0  0  0  0  0  0  0  0
  186.8410  176.0260  136.3520 C   0  0  0  0  0  0  0  0  0  0  0  0
  189.4780  176.7420  138.9650 C   0  0  1  0  0  3  0  0  0  0  0  0
  186.8490  173.8300  135.4800 O   0  0  0  0  0  0  0  0  0  0  0  0
  185.4610  176.2160  136.1950 C   0  0  0  0  0  3  0  0  0  0  0  0
  189.6290  176.0640  135.2100 N   0  0  0  0  0  2  0  0  0  0  0  0
  190.8620  176.9560  139.1230 O   0  0  0  0  0  0  0  0  0  0  0  0
  189.9510  176.3250  136.5760 C   0  0  0  0  0  0  0  0  0  0  0  0
  191.5160  175.9180  138.4520 C   0  0  0  0  0  2  0  0  0  0  0  0
  191.3940  176.1620  136.9580 C   0  0  0  0  0  2  0  0  0  0  0  0
  187.4550  174.9280  135.5970 C   0  0  0  0  0  0  0  0  0  0  0  0
  185.5590  178.2520  137.4770 C   0  0  0  0  0  3  0  0  0  0  0  0
  188.6310  175.1570  134.8290 N   0  0  0  0  0  2  0  0  0  0  0  0
  188.7050  177.6740  139.9040 C   0  0  0  0  0  2  0  0  0  0  0  0
  189.5360  178.1280  141.1030 C   0  0  0  0  0  2  0  0  0  0  0  0
  188.3700  177.3030  143.1980 C   0  0  0  0  0  0  0  0  0  0  0  0
  188.6830  178.2730  142.3220 C   0  0  0  0  0  3  0  0  0  0  0  0
  184.0640  178.7370  145.3330 C   0  0  0  0  0  2  0  0  0  0  0  0
  183.6860  178.8050  143.9110 N   0  0  0  0  0  2  0  0  0  0  0  0
  185.9770  177.9540  146.7230 N   0  0  0  0  0  2  0  0  0  0  0  0
  188.0980  177.4650  147.9300 C   0  0  2  0  0  3  0  0  0  0  0  0
  184.6290  179.5250  143.2310 O   0  0  0  0  0  0  0  0  0  0  0  0
  185.5800  178.6050  145.4720 C   0  0  1  0  0  3  0  0  0  0  0  0
  188.3190  178.4660  148.8750 O   0  0  0  0  0  1  0  0  0  0  0  0
  186.1410  177.8710  144.2360 C   0  0  1  0  0  3  0  0  0  0  0  0
  189.3510  177.0640  145.9190 O   0  0  0  0  0  0  0  0  0  0  0  0
  185.7240  178.6600  142.9790 C   0  0  0  0  0  2  0  0  0  0  0  0
  189.4320  177.0130  147.3320 C   0  0  0  0  0  2  0  0  0  0  0  0
  187.5960  177.6570  144.3570 N   0  0  0  0  0  0  0  0  0  0  0  0
  187.9780  177.1410  145.6770 C   0  0  2  0  0  3  0  0  0  0  0  0
  187.4310  178.0400  146.7330 C   0  0  1  0  0  3  0  0  0  0  0  0
  188.7570  175.9590  143.0460 O   0  0  0  0  0  0  0  0  0  0  0  0
  190.0980  175.4920  142.9800 C   0  0  0  0  0  1  0  0  0  0  0  0
  183.3460  177.4860  136.6000 C   0  0  0  0  0  2  0  0  0  0  0  0
  182.6010  176.0660  138.5250 C   0  0  1  0  0  3  0  0  0  0  0  0
  180.6020  175.9060  137.0780 F   0  0  0  0  0  0  0  0  0  0  0  0
  181.3850  175.2870  138.0470 C   0  0  2  0  0  0  0  0  0  0  0  0
  180.5950  179.6340  140.1500 O   0  0  0  0  0  0  0  0  0  0  0  0
  182.9430  178.3360  140.3740 C   0  0  0  0  0  2  0  0  0  0  0  0
  182.6580  177.4910  137.9570 C   0  0  1  0  0  3  0  0  0  0  0  0
  180.4350  177.0060  139.6180 C   0  0  0  0  0  2  0  0  0  0  0  0
  183.3590  178.4710  138.9070 C   0  0  0  0  0  2  0  0  0  0  0  0
  181.1680  178.3160  140.5870 S   0  0  0  0  0  0  0  0  0  0  0  0
  181.3990  175.8220  139.4710 C   0  0  2  0  0  3  0  0  0  0  0  0
  180.8490  178.0930  142.0370 O   0  0  0  0  0  0  0  0  0  0  0  0
  181.6480  173.9180  137.9040 O   0  0  0  0  0  0  0  0  0  0  0  0
  183.2220  172.5000  137.0570 O   0  0  0  0  0  1  0  0  0  0  0  0
  182.7780  173.8220  137.0850 C   0  0  0  0  0  2  0  0  0  0  0  0
  2  3  1  0  0  0  0
  2  1  2  0  0  0  0
  3  6  1  0  0  0  0
  4 15  2  0  0  0  0
  5  2  1  0  0  0  0
  6 10  1  0  0  0  0
  6 17  1  1  0  0  0
  7 14  2  0  0  0  0
  8  5  2  0  0  0  0
  8  4  1  0  0  0  0
  9 11  1  0  0  0  0
 11 13  1  0  0  0  0
 11  3  2  0  0  0  0
 12 10  1  0  0  0  0
 13 12  1  0  0  0  0
 14  5  1  0  0  0  0
 15  1  1  0  0  0  0
 16  9  1  0  0  0  0
 16 14  1  0  0  0  0
 17 18  1  0  0  0  0
 18 20  1  0  0  0  0
 19 32  1  0  0  0  0
 20 19  2  0  0  0  0
 22 21  1  0  0  0  0
 24 27  1  1  0  0  0
 25 22  1  0  0  0  0
 26 21  1  6  0  0  0
 26 23  1  0  0  0  0
 28 30  1  6  0  0  0
 28 32  1  0  0  0  0
 28 26  1  0  0  0  0
 29 31  1  0  0  0  0
 30 25  1  0  0  0  0
 31 24  1  0  0  0  0
 32 33  1  0  0  0  0
 33 29  1  6  0  0  0
 33 34  1  0  0  0  0
 34 23  1  1  0  0  0
 34 24  1  0  0  0  0
 35 19  1  0  0  0  0
 36 35  1  0  0  0  0
 37  4  1  0  0  0  0
 37 43  1  0  0  0  0
 38 47  1  0  0  0  0
 39 40  1  0  0  0  0
 40 38  1  0  0  0  0
 40 47  1  0  0  0  0
 41 46  2  0  0  0  0
 42 46  1  0  0  0  0
 43 38  1  0  0  0  0
 43 45  1  0  0  0  0
 44 46  1  0  0  0  0
 45 42  1  0  0  0  0
 46 48  2  0  0  0  0
 47 44  1  0  0  0  0
 49 40  1  0  0  0  0
 50 51  1  0  0  0  0
 51 49  1  0  0  0  0
M  END
>  <MODEL>
3

>  <REMARK>
 VINA RESULT:      -8.7      3.426      8.731
  Name = 
  9 active torsions:
  status: ('A' for Active; 'I' for Inactive)
    1  A    between atoms: O_1  and  C_18
    2  A    between atoms: C_2  and  C_15
    3  A    between atoms: C_2  and  C_35
    4  A    between atoms: O_8  and  C_12
    5  A    between atoms: O_8  and  C_41
    6  A    between atoms: C_14  and  C_25
    7  A    between atoms: C_15  and  C_17
    8  A    between atoms: C_18  and  N_44
    9  A    between atoms: C_25  and  C_34
                            x       y       z     vdW  Elec       q    Type
                         _______ _______ _______ _____ _____    ______ ____

>  <TORSDO>
F 9

$$$$
=
 OpenBabel10232408543D

 51 58  0  0  1  0  0  0  0  0999 V2000
  188.0420  177.9880  137.2140 C   0  0  0  0  0  3  0  0  0  0  0  0
  188.8550  176.9480  136.7350 C   0  0  0  0  0  0  0  0  0  0  0  0
  190.1730  176.7030  137.4070 C   0  0  0  0  0  0  0  0  0  0  0  0
  186.2420  177.3460  135.7440 C   0  0  0  0  0  0  0  0  0  0  0  0
  188.3490  176.1310  135.6940 C   0  0  0  0  0  0  0  0  0  0  0  0
  190.2470  176.5350  138.9380 C   0  0  1  0  0  3  0  0  0  0  0  0
  188.6490  174.0600  134.5950 O   0  0  0  0  0  0  0  0  0  0  0  0
  187.0410  176.3290  135.2280 C   0  0  0  0  0  3  0  0  0  0  0  0
  191.3270  176.3300  135.2800 N   0  0  0  0  0  2  0  0  0  0  0  0
  191.5430  176.7380  139.4540 O   0  0  0  0  0  0  0  0  0  0  0  0
  191.2990  176.4220  136.7050 C   0  0  0  0  0  0  0  0  0  0  0  0
  192.3780  175.7950  138.8450 C   0  0  0  0  0  2  0  0  0  0  0  0
  192.6120  176.2230  137.4060 C   0  0  0  0  0  2  0  0  0  0  0  0
  189.1670  175.1400  134.9870 C   0  0  0  0  0  0  0  0  0  0  0  0
  186.7510  178.1900  136.7270 C   0  0  0  0  0  3  0  0  0  0  0  0
  190.4850  175.4710  134.5620 N   0  0  0  0  0  2  0  0  0  0  0  0
  189.2360  177.3380  139.7630 C   0  0  0  0  0  2  0  0  0  0  0  0
  189.8730  178.0310  140.9680 C   0  0  0  0  0  2  0  0  0  0  0  0
  188.4420  177.2840  142.9230 C   0  0  0  0  0  0  0  0  0  0  0  0
  188.8750  178.2220  142.0640 C   0  0  0  0  0  3  0  0  0  0  0  0
  187.4620  178.3640  147.7220 C   0  0  0  0  0  2  0  0  0  0  0  0
  188.8590  177.9110  147.8360 N   0  0  0  0  0  2  0  0  0  0  0  0
  185.8030  178.8780  145.9360 N   0  0  0  0  0  2  0  0  0  0  0  0
  184.1680  178.9970  144.0620 C   0  0  2  0  0  3  0  0  0  0  0  0
  188.9920  176.7070  147.2020 O   0  0  0  0  0  0  0  0  0  0  0  0
  186.8960  177.9940  146.3510 C   0  0  1  0  0  3  0  0  0  0  0  0
  182.9720  178.4090  144.4710 O   0  0  0  0  0  1  0  0  0  0  0  0
  188.0420  177.9670  145.3200 C   0  0  1  0  0  3  0  0  0  0  0  0
  185.7170  178.1530  142.4300 O   0  0  0  0  0  0  0  0  0  0  0  0
  189.1100  176.9700  145.8130 C   0  0  0  0  0  2  0  0  0  0  0  0
  184.4170  178.6920  142.5830 C   0  0  0  0  0  2  0  0  0  0  0  0
  187.5330  177.6830  143.9640 N   0  0  0  0  0  0  0  0  0  0  0  0
  186.3470  178.4810  143.6320 C   0  0  2  0  0  3  0  0  0  0  0  0
  185.3160  178.2940  144.6940 C   0  0  1  0  0  3  0  0  0  0  0  0
  188.8270  175.9320  142.8620 O   0  0  0  0  0  0  0  0  0  0  0  0
  190.1600  175.4520  142.9690 C   0  0  0  0  0  1  0  0  0  0  0  0
  184.8450  177.5240  135.2520 C   0  0  0  0  0  2  0  0  0  0  0  0
  182.7380  177.3250  136.5910 C   0  0  1  0  0  3  0  0  0  0  0  0
  184.3720  177.6660  138.4150 F   0  0  0  0  0  0  0  0  0  0  0  0
  183.0590  177.8360  137.9880 C   0  0  2  0  0  0  0  0  0  0  0  0
  183.6900  173.0600  137.1290 O   0  0  0  0  0  0  0  0  0  0  0  0
  182.2510  174.6350  135.4890 C   0  0  0  0  0  2  0  0  0  0  0  0
  183.9030  176.5570  135.9530 C   0  0  1  0  0  3  0  0  0  0  0  0
  182.8620  175.3450  138.2730 C   0  0  0  0  0  2  0  0  0  0  0  0
  183.4240  175.4750  134.9770 C   0  0  0  0  0  2  0  0  0  0  0  0
  182.5230  174.0060  137.1400 S   0  0  0  0  0  0  0  0  0  0  0  0
  182.1440  176.6290  137.8410 C   0  0  2  0  0  3  0  0  0  0  0  0
  181.2950  173.2730  137.5950 O   0  0  0  0  0  0  0  0  0  0  0  0
  182.4280  179.0540  138.2720 O   0  0  0  0  0  0  0  0  0  0  0  0
  184.1470  180.2970  139.1100 O   0  0  0  0  0  1  0  0  0  0  0  0
  183.0250  179.5390  139.4410 C   0  0  0  0  0  2  0  0  0  0  0  0
  2  1  1  0  0  0  0
  2  3  1  0  0  0  0
  3  6  1  0  0  0  0
  4 15  1  0  0  0  0
  5  2  2  0  0  0  0
  6 10  1  0  0  0  0
  6 17  1  1  0  0  0
  7 14  2  0  0  0  0
  8  5  1  0  0  0  0
  8  4  2  0  0  0  0
  9 11  1  0  0  0  0
 11 13  1  0  0  0  0
 11  3  2  0  0  0  0
 12 10  1  0  0  0  0
 13 12  1  0  0  0  0
 14  5  1  0  0  0  0
 15  1  2  0  0  0  0
 16 14  1  0  0  0  0
 16  9  1  0  0  0  0
 17 18  1  0  0  0  0
 18 20  1  0  0  0  0
 19 32  1  0  0  0  0
 20 19  2  0  0  0  0
 21 22  1  0  0  0  0
 23 26  1  0  0  0  0
 24 27  1  1  0  0  0
 24 34  1  0  0  0  0
 25 22  1  0  0  0  0
 26 21  1  1  0  0  0
 28 30  1  1  0  0  0
 28 26  1  0  0  0  0
 29 31  1  0  0  0  0
 30 25  1  0  0  0  0
 31 24  1  0  0  0  0
 32 28  1  0  0  0  0
 33 29  1  6  0  0  0
 33 32  1  0  0  0  0
 33 34  1  0  0  0  0
 34 23  1  1  0  0  0
 35 19  1  0  0  0  0
 35 36  1  0  0  0  0
 37  4  1  0  0  0  0
 37 43  1  0  0  0  0
 38 47  1  0  0  0  0
 38 40  1  0  0  0  0
 40 49  1  0  0  0  0
 40 39  1  0  0  0  0
 41 46  2  0  0  0  0
 42 46  1  0  0  0  0
 43 38  1  0  0  0  0
 45 42  1  0  0  0  0
 45 43  1  0  0  0  0
 46 48  2  0  0  0  0
 46 44  1  0  0  0  0
 47 40  1  0  0  0  0
 47 44  1  0  0  0  0
 49 51  1  0  0  0  0
 50 51  1  0  0  0  0
M  END
>  <MODEL>
4

>  <REMARK>
 VINA RESULT:      -8.6      3.166      8.088
  Name = 
  9 active torsions:
  status: ('A' for Active; 'I' for Inactive)
    1  A    between atoms: O_1  and  C_18
    2  A    between atoms: C_2  and  C_15
    3  A    between atoms: C_2  and  C_35
    4  A    between atoms: O_8  and  C_12
    5  A    between atoms: O_8  and  C_41
    6  A    between atoms: C_14  and  C_25
    7  A    between atoms: C_15  and  C_17
    8  A    between atoms: C_18  and  N_44
    9  A    between atoms: C_25  and  C_34
                            x       y       z     vdW  Elec       q    Type
                         _______ _______ _______ _____ _____    ______ ____

>  <TORSDO>
F 9

$$$$
=
 OpenBabel10232408543D

 51 58  0  0  1  0  0  0  0  0999 V2000
  184.1240  178.9400  141.6230 C   0  0  0  0  0  3  0  0  0  0  0  0
  182.7260  178.9340  141.7490 C   0  0  0  0  0  0  0  0  0  0  0  0
  181.8940  178.9360  140.5020 C   0  0  0  0  0  0  0  0  0  0  0  0
  184.4070  178.6590  144.0010 C   0  0  0  0  0  0  0  0  0  0  0  0
  182.1740  178.8420  143.0520 C   0  0  0  0  0  0  0  0  0  0  0  0
  182.1540  177.8990  139.3910 C   0  0  1  0  0  3  0  0  0  0  0  0
  180.1930  178.3390  144.2390 O   0  0  0  0  0  0  0  0  0  0  0  0
  183.0220  178.6840  144.1570 C   0  0  0  0  0  3  0  0  0  0  0  0
  180.2940  180.5440  141.4240 N   0  0  0  0  0  2  0  0  0  0  0  0
  181.6130  178.2770  138.1450 O   0  0  0  0  0  0  0  0  0  0  0  0
  180.7760  179.6940  140.3820 C   0  0  0  0  0  0  0  0  0  0  0  0
  180.2340  178.4250  138.3250 C   0  0  0  0  0  2  0  0  0  0  0  0
  179.9880  179.7060  139.1030 C   0  0  0  0  0  2  0  0  0  0  0  0
  180.7430  179.0120  143.3270 C   0  0  0  0  0  0  0  0  0  0  0  0
  184.9590  178.8060  142.7310 C   0  0  0  0  0  3  0  0  0  0  0  0
  180.0180  180.0730  142.7140 N   0  0  0  0  0  2  0  0  0  0  0  0
  183.6060  177.4490  139.2030 C   0  0  0  0  0  2  0  0  0  0  0  0
  183.9040  176.9900  137.7760 C   0  0  0  0  0  2  0  0  0  0  0  0
  186.1720  176.5880  136.7170 C   0  0  0  0  0  0  0  0  0  0  0  0
  185.2640  176.3750  137.6840 C   0  0  0  0  0  3  0  0  0  0  0  0
  190.7050  176.2580  138.8390 C   0  0  0  0  0  2  0  0  0  0  0  0
  190.2070  177.4900  139.4750 N   0  0  0  0  0  2  0  0  0  0  0  0
  189.8520  174.4380  137.3680 N   0  0  0  0  0  2  0  0  0  0  0  0
  188.9580  172.9100  135.6180 C   0  0  2  0  0  3  0  0  0  0  0  0
  189.7340  178.3330  138.5080 O   0  0  0  0  0  0  0  0  0  0  0  0
  189.8120  175.8740  137.6600 C   0  0  1  0  0  3  0  0  0  0  0  0
  189.9460  172.7020  134.6560 O   0  0  0  0  0  1  0  0  0  0  0  0
  188.3770  176.3700  137.9270 C   0  0  1  0  0  3  0  0  0  0  0  0
  186.9070  174.1340  135.3530 O   0  0  0  0  0  0  0  0  0  0  0  0
  188.4300  177.8930  138.1620 C   0  0  0  0  0  2  0  0  0  0  0  0
  187.5830  172.9570  134.9480 C   0  0  0  0  0  2  0  0  0  0  0  0
  187.4610  175.9610  136.8450 N   0  0  0  0  0  0  0  0  0  0  0  0
  187.6270  174.5500  136.4740 C   0  0  2  0  0  3  0  0  0  0  0  0
  189.0600  174.2920  136.1540 C   0  0  1  0  0  3  0  0  0  0  0  0
  185.9350  177.3890  135.5850 O   0  0  0  0  0  0  0  0  0  0  0  0
  186.9390  178.0100  134.7930 C   0  0  0  0  0  1  0  0  0  0  0  0
  185.2900  178.4650  145.1870 C   0  0  0  0  0  2  0  0  0  0  0  0
  187.2600  177.0540  145.8190 C   0  0  1  0  0  3  0  0  0  0  0  0
  187.9050  179.1890  146.8870 F   0  0  0  0  0  0  0  0  0  0  0  0
  187.9960  177.8010  146.9210 C   0  0  2  0  0  0  0  0  0  0  0  0
  189.3410  178.6930  142.3020 O   0  0  0  0  0  0  0  0  0  0  0  0
  187.8560  176.5520  142.9760 C   0  0  0  0  0  2  0  0  0  0  0  0
  186.6690  177.9880  144.7560 C   0  0  1  0  0  3  0  0  0  0  0  0
  189.4810  178.0550  144.9070 C   0  0  0  0  0  2  0  0  0  0  0  0
  186.5970  177.3290  143.3730 C   0  0  0  0  0  2  0  0  0  0  0  0
  189.3530  177.5000  143.2140 S   0  0  0  0  0  0  0  0  0  0  0  0
  188.8080  177.0650  145.8650 C   0  0  2  0  0  3  0  0  0  0  0  0
  190.5370  176.6380  142.8870 O   0  0  0  0  0  0  0  0  0  0  0  0
  187.8880  177.1660  148.1650 O   0  0  0  0  0  0  0  0  0  0  0  0
  189.7500  178.3780  148.6830 O   0  0  0  0  0  1  0  0  0  0  0  0
  188.4640  178.0340  149.0980 C   0  0  0  0  0  2  0  0  0  0  0  0
  1  2  2  0  0  0  0
  1 15  1  0  0  0  0
  2  5  1  0  0  0  0
  3  2  1  0  0  0  0
  4  8  1  0  0  0  0
  4 37  1  0  0  0  0
  5 14  1  0  0  0  0
  5  8  2  0  0  0  0
  6 17  1  6  0  0  0
  6  3  1  0  0  0  0
  9 16  1  0  0  0  0
 10 12  1  0  0  0  0
 10  6  1  0  0  0  0
 11  3  2  0  0  0  0
 11  9  1  0  0  0  0
 12 13  1  0  0  0  0
 13 11  1  0  0  0  0
 14  7  2  0  0  0  0
 15  4  2  0  0  0  0
 16 14  1  0  0  0  0
 18 17  1  0  0  0  0
 19 32  1  0  0  0  0
 19 20  2  0  0  0  0
 20 18  1  0  0  0  0
 21 22  1  0  0  0  0
 23 26  1  0  0  0  0
 24 27  1  6  0  0  0
 24 34  1  0  0  0  0
 25 22  1  0  0  0  0
 26 28  1  0  0  0  0
 26 21  1  1  0  0  0
 28 30  1  6  0  0  0
 30 25  1  0  0  0  0
 31 29  1  0  0  0  0
 31 24  1  0  0  0  0
 32 28  1  0  0  0  0
 33 29  1  6  0  0  0
 33 32  1  0  0  0  0
 34 33  1  0  0  0  0
 34 23  1  1  0  0  0
 35 19  1  0  0  0  0
 36 35  1  0  0  0  0
 38 47  1  0  0  0  0
 38 40  1  0  0  0  0
 39 40  1  0  0  0  0
 40 49  1  0  0  0  0
 41 46  2  0  0  0  0
 42 46  1  0  0  0  0
 42 45  1  0  0  0  0
 43 37  1  0  0  0  0
 43 38  1  0  0  0  0
 44 47  1  0  0  0  0
 45 43  1  0  0  0  0
 46 44  1  0  0  0  0
 47 40  1  0  0  0  0
 48 46  2  0  0  0  0
 49 51  1  0  0  0  0
 50 51  1  0  0  0  0
M  END
>  <MODEL>
5

>  <REMARK>
 VINA RESULT:      -8.5      3.457      8.798
  Name = 
  9 active torsions:
  status: ('A' for Active; 'I' for Inactive)
    1  A    between atoms: O_1  and  C_18
    2  A    between atoms: C_2  and  C_15
    3  A    between atoms: C_2  and  C_35
    4  A    between atoms: O_8  and  C_12
    5  A    between atoms: O_8  and  C_41
    6  A    between atoms: C_14  and  C_25
    7  A    between atoms: C_15  and  C_17
    8  A    between atoms: C_18  and  N_44
    9  A    between atoms: C_25  and  C_34
                            x       y       z     vdW  Elec       q    Type
                         _______ _______ _______ _____ _____    ______ ____

>  <TORSDO>
F 9

$$$$
=
 OpenBabel10232408543D

 51 58  0  0  1  0  0  0  0  0999 V2000
  187.6540  178.1950  136.9610 C   0  0  0  0  0  3  0  0  0  0  0  0
  188.3990  177.0180  137.1330 C   0  0  0  0  0  0  0  0  0  0  0  0
  189.6030  177.0570  138.0250 C   0  0  0  0  0  0  0  0  0  0  0  0
  185.9660  177.0210  135.7020 C   0  0  0  0  0  0  0  0  0  0  0  0
  187.9250  175.8320  136.5180 C   0  0  0  0  0  0  0  0  0  0  0  0
  189.4930  177.6200  139.4570 C   0  0  1  0  0  3  0  0  0  0  0  0
  188.1220  173.4770  136.5430 O   0  0  0  0  0  0  0  0  0  0  0  0
  186.7040  175.8460  135.8290 C   0  0  0  0  0  3  0  0  0  0  0  0
  190.9350  175.6850  136.4960 N   0  0  0  0  0  2  0  0  0  0  0  0
  190.7400  177.9830  140.0040 O   0  0  0  0  0  0  0  0  0  0  0  0
  190.7630  176.4330  137.7010 C   0  0  0  0  0  0  0  0  0  0  0  0
  191.5320  176.8310  140.0210 C   0  0  0  0  0  2  0  0  0  0  0  0
  191.9640  176.5270  138.5980 C   0  0  0  0  0  2  0  0  0  0  0  0
  188.7060  174.5910  136.4690 C   0  0  0  0  0  0  0  0  0  0  0  0
  186.4520  178.2030  136.2530 C   0  0  0  0  0  3  0  0  0  0  0  0
  190.0890  174.6280  136.1360 N   0  0  0  0  0  2  0  0  0  0  0  0
  188.4900  178.7590  139.6680 C   0  0  0  0  0  2  0  0  0  0  0  0
  187.4140  178.4160  140.6980 C   0  0  0  0  0  2  0  0  0  0  0  0
  187.3840  177.7010  143.1300 C   0  0  0  0  0  0  0  0  0  0  0  0
  188.0190  178.1690  142.0420 C   0  0  0  0  0  3  0  0  0  0  0  0
  191.6390  176.2970  145.3850 C   0  0  0  0  0  2  0  0  0  0  0  0
  191.9830  176.0170  143.9810 N   0  0  0  0  0  2  0  0  0  0  0  0
  189.8060  177.3770  146.6810 N   0  0  0  0  0  2  0  0  0  0  0  0
  187.7430  178.1540  147.8380 C   0  0  2  0  0  3  0  0  0  0  0  0
  190.9850  175.2720  143.4150 O   0  0  0  0  0  0  0  0  0  0  0  0
  190.1370  176.5410  145.5240 C   0  0  1  0  0  3  0  0  0  0  0  0
  187.4820  177.3040  148.9110 O   0  0  0  0  0  1  0  0  0  0  0  0
  189.5960  177.1370  144.2080 C   0  0  1  0  0  3  0  0  0  0  0  0
  186.4760  178.3610  145.8060 O   0  0  0  0  0  0  0  0  0  0  0  0
  189.9390  176.1630  143.0630 C   0  0  0  0  0  2  0  0  0  0  0  0
  186.4270  178.6050  147.2000 C   0  0  0  0  0  2  0  0  0  0  0  0
  188.1600  177.4560  144.3170 N   0  0  0  0  0  0  0  0  0  0  0  0
  187.8370  178.1670  145.5600 C   0  0  2  0  0  3  0  0  0  0  0  0
  188.3500  177.3840  146.7210 C   0  0  1  0  0  3  0  0  0  0  0  0
  186.0030  177.4360  143.1750 O   0  0  0  0  0  0  0  0  0  0  0  0
  184.9760  178.4110  143.0590 C   0  0  0  0  0  1  0  0  0  0  0  0
  184.6570  177.0080  134.9860 C   0  0  0  0  0  2  0  0  0  0  0  0
  182.6550  177.1390  136.4850 C   0  0  1  0  0  3  0  0  0  0  0  0
  184.4570  177.2010  138.1760 F   0  0  0  0  0  0  0  0  0  0  0  0
  183.1600  177.5820  137.8500 C   0  0  2  0  0  0  0  0  0  0  0  0
  182.9510  172.7730  136.9700 O   0  0  0  0  0  0  0  0  0  0  0  0
  181.6600  174.5700  135.4370 C   0  0  0  0  0  2  0  0  0  0  0  0
  183.6290  176.1990  135.7640 C   0  0  1  0  0  3  0  0  0  0  0  0
  182.5890  175.1520  138.1620 C   0  0  0  0  0  2  0  0  0  0  0  0
  182.9100  175.2150  134.8320 C   0  0  0  0  0  2  0  0  0  0  0  0
  181.9550  173.8930  137.0650 S   0  0  0  0  0  0  0  0  0  0  0  0
  182.0550  176.5380  137.7800 C   0  0  2  0  0  3  0  0  0  0  0  0
  180.6630  173.3630  137.6180 O   0  0  0  0  0  0  0  0  0  0  0  0
  182.7550  178.8830  138.1760 O   0  0  0  0  0  0  0  0  0  0  0  0
  184.4910  179.9120  139.2400 O   0  0  0  0  0  1  0  0  0  0  0  0
  183.3260  179.1680  139.4210 C   0  0  0  0  0  2  0  0  0  0  0  0
  1  2  1  0  0  0  0
  2  3  1  0  0  0  0
  3  6  1  0  0  0  0
  4  8  2  0  0  0  0
  4 15  1  0  0  0  0
  5  2  2  0  0  0  0
  6 17  1  6  0  0  0
  6 10  1  0  0  0  0
  8  5  1  0  0  0  0
  9 11  1  0  0  0  0
 10 12  1  0  0  0  0
 11  3  2  0  0  0  0
 11 13  1  0  0  0  0
 13 12  1  0  0  0  0
 14  5  1  0  0  0  0
 14  7  2  0  0  0  0
 15  1  2  0  0  0  0
 16 14  1  0  0  0  0
 16  9  1  0  0  0  0
 17 18  1  0  0  0  0
 18 20  1  0  0  0  0
 19 35  1  0  0  0  0
 19 32  1  0  0  0  0
 20 19  2  0  0  0  0
 22 21  1  0  0  0  0
 24 27  1  1  0  0  0
 25 22  1  0  0  0  0
 26 21  1  6  0  0  0
 26 23  1  0  0  0  0
 28 30  1  6  0  0  0
 28 32  1  0  0  0  0
 28 26  1  0  0  0  0
 29 31  1  0  0  0  0
 30 25  1  0  0  0  0
 31 24  1  0  0  0  0
 32 33  1  0  0  0  0
 33 29  1  1  0  0  0
 33 34  1  0  0  0  0
 34 23  1  1  0  0  0
 34 24  1  0  0  0  0
 36 35  1  0  0  0  0
 37  4  1  0  0  0  0
 37 43  1  0  0  0  0
 38 47  1  0  0  0  0
 38 40  1  0  0  0  0
 40 49  1  0  0  0  0
 40 39  1  0  0  0  0
 41 46  2  0  0  0  0
 42 46  1  0  0  0  0
 43 38  1  0  0  0  0
 45 42  1  0  0  0  0
 45 43  1  0  0  0  0
 46 48  2  0  0  0  0
 46 44  1  0  0  0  0
 47 40  1  0  0  0  0
 47 44  1  0  0  0  0
 49 51  1  0  0  0  0
 50 51  1  0  0  0  0
M  END
>  <MODEL>
6

>  <REMARK>
 VINA RESULT:      -8.5      3.301      8.470
  Name = 
  9 active torsions:
  status: ('A' for Active; 'I' for Inactive)
    1  A    between atoms: O_1  and  C_18
    2  A    between atoms: C_2  and  C_15
    3  A    between atoms: C_2  and  C_35
    4  A    between atoms: O_8  and  C_12
    5  A    between atoms: O_8  and  C_41
    6  A    between atoms: C_14  and  C_25
    7  A    between atoms: C_15  and  C_17
    8  A    between atoms: C_18  and  N_44
    9  A    between atoms: C_25  and  C_34
                            x       y       z     vdW  Elec       q    Type
                         _______ _______ _______ _____ _____    ______ ____

>  <TORSDO>
F 9

$$$$
=
 OpenBabel10232408543D

 51 58  0  0  1  0  0  0  0  0999 V2000
  187.9720  178.1610  136.8210 C   0  0  0  0  0  3  0  0  0  0  0  0
  188.6900  176.9700  137.0160 C   0  0  0  0  0  0  0  0  0  0  0  0
  189.9100  177.0040  137.8860 C   0  0  0  0  0  0  0  0  0  0  0  0
  186.2310  176.9950  135.6280 C   0  0  0  0  0  0  0  0  0  0  0  0
  188.1730  175.7790  136.4470 C   0  0  0  0  0  0  0  0  0  0  0  0
  189.8400  177.6140  139.3010 C   0  0  1  0  0  3  0  0  0  0  0  0
  188.3090  173.4220  136.5410 O   0  0  0  0  0  0  0  0  0  0  0  0
  186.9410  175.8050  135.7790 C   0  0  0  0  0  3  0  0  0  0  0  0
  191.1780  175.5520  136.3780 N   0  0  0  0  0  2  0  0  0  0  0  0
  191.1060  177.9600  139.8160 O   0  0  0  0  0  0  0  0  0  0  0  0
  191.0470  176.3400  137.5610 C   0  0  0  0  0  0  0  0  0  0  0  0
  191.8680  176.7870  139.8550 C   0  0  0  0  0  2  0  0  0  0  0  0
  192.2660  176.4290  138.4340 C   0  0  0  0  0  2  0  0  0  0  0  0
  188.9210  174.5170  136.4220 C   0  0  0  0  0  0  0  0  0  0  0  0
  186.7580  178.1800  136.1350 C   0  0  0  0  0  3  0  0  0  0  0  0
  190.2980  174.5070  136.0650 N   0  0  0  0  0  2  0  0  0  0  0  0
  188.8710  178.7840  139.4950 C   0  0  0  0  0  2  0  0  0  0  0  0
  187.6570  178.4130  140.3440 C   0  0  0  0  0  2  0  0  0  0  0  0
  187.2210  177.9130  142.7920 C   0  0  0  0  0  0  0  0  0  0  0  0
  188.0290  178.2920  141.7870 C   0  0  0  0  0  3  0  0  0  0  0  0
  186.8010  178.0580  147.7870 C   0  0  0  0  0  2  0  0  0  0  0  0
  185.4610  178.5290  147.3990 N   0  0  0  0  0  2  0  0  0  0  0  0
  188.8360  177.1100  146.7070 N   0  0  0  0  0  2  0  0  0  0  0  0
  190.8990  176.5230  145.4440 C   0  0  2  0  0  3  0  0  0  0  0  0
  185.5890  179.5380  146.4850 O   0  0  0  0  0  0  0  0  0  0  0  0
  187.7380  178.0730  146.5810 C   0  0  1  0  0  3  0  0  0  0  0  0
  191.9820  177.1900  146.0160 O   0  0  0  0  0  1  0  0  0  0  0  0
  186.9150  177.8460  145.2960 C   0  0  1  0  0  3  0  0  0  0  0  0
  189.9080  176.9400  143.2940 O   0  0  0  0  0  0  0  0  0  0  0  0
  185.8290  178.9370  145.2220 C   0  0  0  0  0  2  0  0  0  0  0  0
  191.0780  176.4510  143.9260 C   0  0  0  0  0  2  0  0  0  0  0  0
  187.7870  177.7820  144.1080 N   0  0  0  0  0  0  0  0  0  0  0  0
  188.9580  176.9230  144.3170 C   0  0  2  0  0  3  0  0  0  0  0  0
  189.6780  177.3650  145.5460 C   0  0  1  0  0  3  0  0  0  0  0  0
  185.8510  177.6360  142.6300 O   0  0  0  0  0  0  0  0  0  0  0  0
  184.8590  178.5850  142.2630 C   0  0  0  0  0  1  0  0  0  0  0  0
  184.9110  176.9950  134.9360 C   0  0  0  0  0  2  0  0  0  0  0  0
  182.8360  176.9950  136.3390 C   0  0  1  0  0  3  0  0  0  0  0  0
  184.5470  177.2290  138.1090 F   0  0  0  0  0  0  0  0  0  0  0  0
  183.2410  177.5000  137.7160 C   0  0  2  0  0  0  0  0  0  0  0  0
  183.4490  172.6750  136.9320 O   0  0  0  0  0  0  0  0  0  0  0  0
  182.0950  174.3360  135.3040 C   0  0  0  0  0  2  0  0  0  0  0  0
  183.9130  176.1220  135.6830 C   0  0  1  0  0  3  0  0  0  0  0  0
  182.8470  175.0390  138.0550 C   0  0  0  0  0  2  0  0  0  0  0  0
  183.3180  175.0670  134.7420 C   0  0  0  0  0  2  0  0  0  0  0  0
  182.3650  173.7150  136.9580 S   0  0  0  0  0  0  0  0  0  0  0  0
  182.2250  176.3710  137.6190 C   0  0  2  0  0  3  0  0  0  0  0  0
  181.0950  173.0940  137.4630 O   0  0  0  0  0  0  0  0  0  0  0  0
  182.7200  178.7710  137.9950 O   0  0  0  0  0  0  0  0  0  0  0  0
  183.6390  180.6790  138.8460 O   0  0  0  0  0  1  0  0  0  0  0  0
  183.5140  179.3010  139.0190 C   0  0  0  0  0  2  0  0  0  0  0  0
  1  2  1  0  0  0  0
  2  3  1  0  0  0  0
  3  6  1  0  0  0  0
  4  8  2  0  0  0  0
  4 15  1  0  0  0  0
  5  2  2  0  0  0  0
  6 17  1  6  0  0  0
  6 10  1  0  0  0  0
  8  5  1  0  0  0  0
  9 11  1  0  0  0  0
 10 12  1  0  0  0  0
 11  3  2  0  0  0  0
 11 13  1  0  0  0  0
 13 12  1  0  0  0  0
 14  5  1  0  0  0  0
 14  7  2  0  0  0  0
 15  1  2  0  0  0  0
 16  9  1  0  0  0  0
 16 14  1  0  0  0  0
 17 18  1  0  0  0  0
 18 20  1  0  0  0  0
 19 32  1  0  0  0  0
 20 19  2  0  0  0  0
 22 21  1  0  0  0  0
 24 34  1  0  0  0  0
 24 27  1  1  0  0  0
 25 22  1  0  0  0  0
 26 23  1  0  0  0  0
 26 21  1  1  0  0  0
 28 30  1  6  0  0  0
 28 26  1  0  0  0  0
 29 31  1  0  0  0  0
 30 25  1  0  0  0  0
 31 24  1  0  0  0  0
 32 33  1  0  0  0  0
 32 28  1  0  0  0  0
 33 29  1  6  0  0  0
 33 34  1  0  0  0  0
 34 23  1  1  0  0  0
 35 19  1  0  0  0  0
 36 35  1  0  0  0  0
 37  4  1  0  0  0  0
 37 43  1  0  0  0  0
 38 47  1  0  0  0  0
 38 40  1  0  0  0  0
 40 49  1  0  0  0  0
 40 39  1  0  0  0  0
 41 46  2  0  0  0  0
 42 46  1  0  0  0  0
 43 38  1  0  0  0  0
 45 42  1  0  0  0  0
 45 43  1  0  0  0  0
 46 48  2  0  0  0  0
 46 44  1  0  0  0  0
 47 40  1  0  0  0  0
 47 44  1  0  0  0  0
 49 51  1  0  0  0  0
 50 51  1  0  0  0  0
M  END
>  <MODEL>
7

>  <REMARK>
 VINA RESULT:      -8.5      3.241      8.397
  Name = 
  9 active torsions:
  status: ('A' for Active; 'I' for Inactive)
    1  A    between atoms: O_1  and  C_18
    2  A    between atoms: C_2  and  C_15
    3  A    between atoms: C_2  and  C_35
    4  A    between atoms: O_8  and  C_12
    5  A    between atoms: O_8  and  C_41
    6  A    between atoms: C_14  and  C_25
    7  A    between atoms: C_15  and  C_17
    8  A    between atoms: C_18  and  N_44
    9  A    between atoms: C_25  and  C_34
                            x       y       z     vdW  Elec       q    Type
                         _______ _______ _______ _____ _____    ______ ____

>  <TORSDO>
F 9

$$$$
=
 OpenBabel10232408543D

 51 58  0  0  1  0  0  0  0  0999 V2000
  188.3260  178.5340  141.2230 C   0  0  0  0  0  3  0  0  0  0  0  0
  188.6810  177.7780  142.3510 C   0  0  0  0  0  0  0  0  0  0  0  0
  187.8060  177.8520  143.5670 C   0  0  0  0  0  0  0  0  0  0  0  0
  190.0800  177.5250  139.9120 C   0  0  0  0  0  0  0  0  0  0  0  0
  189.8030  176.9180  142.2520 C   0  0  0  0  0  0  0  0  0  0  0  0
  186.2860  177.6220  143.4480 C   0  0  1  0  0  3  0  0  0  0  0  0
  190.8680  175.0690  143.2680 O   0  0  0  0  0  0  0  0  0  0  0  0
  190.4730  176.7880  141.0270 C   0  0  0  0  0  3  0  0  0  0  0  0
  189.7210  177.9240  145.0910 N   0  0  0  0  0  2  0  0  0  0  0  0
  185.5630  178.1310  144.5450 O   0  0  0  0  0  0  0  0  0  0  0  0
  188.3190  177.9220  144.8200 C   0  0  0  0  0  0  0  0  0  0  0  0
  186.0410  177.4810  145.6880 C   0  0  0  0  0  2  0  0  0  0  0  0
  187.4150  178.0380  146.0150 C   0  0  0  0  0  2  0  0  0  0  0  0
  190.3810  176.2220  143.4070 C   0  0  0  0  0  0  0  0  0  0  0  0
  189.0140  178.4150  140.0160 C   0  0  0  0  0  3  0  0  0  0  0  0
  190.5790  176.9150  144.6340 N   0  0  0  0  0  2  0  0  0  0  0  0
  185.6260  178.0780  142.1430 C   0  0  0  0  0  2  0  0  0  0  0  0
  184.3880  178.9440  142.3770 C   0  0  0  0  0  2  0  0  0  0  0  0
  183.6400  178.9940  139.9550 C   0  0  0  0  0  0  0  0  0  0  0  0
  183.4060  178.7860  141.2620 C   0  0  0  0  0  3  0  0  0  0  0  0
  180.2380  180.4970  136.5910 C   0  0  0  0  0  2  0  0  0  0  0  0
  180.7450  181.8020  137.0500 N   0  0  0  0  0  2  0  0  0  0  0  0
  180.7720  178.0800  136.8700 N   0  0  0  0  0  2  0  0  0  0  0  0
  181.2030  175.7210  137.5370 C   0  0  2  0  0  3  0  0  0  0  0  0
  180.7230  181.8340  138.4170 O   0  0  0  0  0  0  0  0  0  0  0  0
  180.7050  179.3870  137.5310 C   0  0  1  0  0  3  0  0  0  0  0  0
  179.9820  175.0810  137.7430 O   0  0  0  0  0  1  0  0  0  0  0  0
  182.0560  179.7870  138.1570 C   0  0  1  0  0  3  0  0  0  0  0  0
  182.8340  176.3100  139.2020 O   0  0  0  0  0  0  0  0  0  0  0  0
  181.8710  181.1390  138.8760 C   0  0  0  0  0  2  0  0  0  0  0  0
  182.2350  175.2080  138.5450 C   0  0  0  0  0  2  0  0  0  0  0  0
  182.5830  178.7130  139.0210 N   0  0  0  0  0  0  0  0  0  0  0  0
  182.5010  177.3930  138.3860 C   0  0  2  0  0  3  0  0  0  0  0  0
  181.0990  177.1480  137.9400 C   0  0  1  0  0  3  0  0  0  0  0  0
  184.8630  179.4720  139.4480 O   0  0  0  0  0  0  0  0  0  0  0  0
  185.6900  178.7860  138.5180 C   0  0  0  0  0  1  0  0  0  0  0  0
  190.7910  177.3530  138.6130 C   0  0  0  0  0  2  0  0  0  0  0  0
  190.5310  175.0250  137.7260 C   0  0  1  0  0  3  0  0  0  0  0  0
  192.1670  175.9190  136.1020 F   0  0  0  0  0  0  0  0  0  0  0  0
  191.6850  174.7940  136.7620 C   0  0  2  0  0  0  0  0  0  0  0  0
  187.5360  176.6190  134.9190 O   0  0  0  0  0  0  0  0  0  0  0  0
  187.6400  175.4580  137.3450 C   0  0  0  0  0  2  0  0  0  0  0  0
  189.9900  176.4600  137.6770 C   0  0  1  0  0  3  0  0  0  0  0  0
  189.6750  175.0330  135.2700 C   0  0  0  0  0  2  0  0  0  0  0  0
  188.4960  176.5340  138.0180 C   0  0  0  0  0  2  0  0  0  0  0  0
  187.9440  175.3370  135.5870 S   0  0  0  0  0  0  0  0  0  0  0  0
  190.3140  174.2340  136.4120 C   0  0  2  0  0  3  0  0  0  0  0  0
  187.1330  174.2050  135.0250 O   0  0  0  0  0  0  0  0  0  0  0  0
  192.6180  173.8710  137.2530 O   0  0  0  0  0  0  0  0  0  0  0  0
  194.8000  173.7330  137.9040 O   0  0  0  0  0  1  0  0  0  0  0  0
  193.8500  174.5320  137.2690 C   0  0  0  0  0  2  0  0  0  0  0  0
  1  2  1  0  0  0  0
  2  3  1  0  0  0  0
  3 11  2  0  0  0  0
  4 15  1  0  0  0  0
  4  8  2  0  0  0  0
  5  2  2  0  0  0  0
  5 14  1  0  0  0  0
  6 17  1  6  0  0  0
  6  3  1  0  0  0  0
  6 10  1  0  0  0  0
  7 14  2  0  0  0  0
  8  5  1  0  0  0  0
 10 12  1  0  0  0  0
 11  9  1  0  0  0  0
 11 13  1  0  0  0  0
 12 13  1  0  0  0  0
 14 16  1  0  0  0  0
 15  1  2  0  0  0  0
 16  9  1  0  0  0  0
 17 18  1  0  0  0  0
 19 20  2  0  0  0  0
 20 18  1  0  0  0  0
 21 22  1  0  0  0  0
 22 25  1  0  0  0  0
 23 26  1  0  0  0  0
 24 27  1  1  0  0  0
 24 34  1  0  0  0  0
 24 31  1  0  0  0  0
 25 30  1  0  0  0  0
 26 21  1  6  0  0  0
 26 28  1  0  0  0  0
 28 30  1  1  0  0  0
 28 32  1  0  0  0  0
 31 29  1  0  0  0  0
 32 19  1  0  0  0  0
 33 32  1  0  0  0  0
 33 29  1  1  0  0  0
 34 23  1  6  0  0  0
 34 33  1  0  0  0  0
 35 19  1  0  0  0  0
 36 35  1  0  0  0  0
 37  4  1  0  0  0  0
 39 40  1  0  0  0  0
 40 49  1  0  0  0  0
 40 38  1  0  0  0  0
 41 46  2  0  0  0  0
 42 45  1  0  0  0  0
 43 38  1  0  0  0  0
 43 45  1  0  0  0  0
 43 37  1  0  0  0  0
 44 46  1  0  0  0  0
 44 47  1  0  0  0  0
 46 42  1  0  0  0  0
 47 40  1  0  0  0  0
 47 38  1  0  0  0  0
 48 46  2  0  0  0  0
 49 51  1  0  0  0  0
 51 50  1  0  0  0  0
M  END
>  <MODEL>
8

>  <REMARK>
 VINA RESULT:      -8.5      0.914      2.487
  Name = 
  9 active torsions:
  status: ('A' for Active; 'I' for Inactive)
    1  A    between atoms: O_1  and  C_18
    2  A    between atoms: C_2  and  C_15
    3  A    between atoms: C_2  and  C_35
    4  A    between atoms: O_8  and  C_12
    5  A    between atoms: O_8  and  C_41
    6  A    between atoms: C_14  and  C_25
    7  A    between atoms: C_15  and  C_17
    8  A    between atoms: C_18  and  N_44
    9  A    between atoms: C_25  and  C_34
                            x       y       z     vdW  Elec       q    Type
                         _______ _______ _______ _____ _____    ______ ____

>  <TORSDO>
F 9

$$$$
=
 OpenBabel10232408543D

 51 58  0  0  1  0  0  0  0  0999 V2000
  187.2610  178.3460  138.4630 C   0  0  0  0  0  3  0  0  0  0  0  0
  187.6150  177.3280  137.5640 C   0  0  0  0  0  0  0  0  0  0  0  0
  189.0510  176.9010  137.4960 C   0  0  0  0  0  0  0  0  0  0  0  0
  184.9170  178.0420  137.9870 C   0  0  0  0  0  0  0  0  0  0  0  0
  186.5810  176.7000  136.8250 C   0  0  0  0  0  0  0  0  0  0  0  0
  189.8110  176.5190  138.7820 C   0  0  1  0  0  3  0  0  0  0  0  0
  186.0660  174.7850  135.5410 O   0  0  0  0  0  0  0  0  0  0  0  0
  185.2450  177.0510  137.0630 C   0  0  0  0  0  3  0  0  0  0  0  0
  189.0180  176.7450  135.0530 N   0  0  0  0  0  2  0  0  0  0  0  0
  191.2120  176.5570  138.6280 O   0  0  0  0  0  0  0  0  0  0  0  0
  189.6710  176.6410  136.3180 C   0  0  0  0  0  0  0  0  0  0  0  0
  191.5370  175.6510  137.6130 C   0  0  0  0  0  2  0  0  0  0  0  0
  191.1230  176.2550  136.2830 C   0  0  0  0  0  2  0  0  0  0  0  0
  186.8400  175.7610  135.7290 C   0  0  0  0  0  0  0  0  0  0  0  0
  185.9300  178.7040  138.6750 C   0  0  0  0  0  3  0  0  0  0  0  0
  187.8360  176.0540  134.7550 N   0  0  0  0  0  2  0  0  0  0  0  0
  189.4150  177.2690  140.0580 C   0  0  0  0  0  2  0  0  0  0  0  0
  189.8480  176.5410  141.3300 C   0  0  0  0  0  2  0  0  0  0  0  0
  189.0240  177.8320  143.3520 C   0  0  0  0  0  0  0  0  0  0  0  0
  188.9120  176.8340  142.4590 C   0  0  0  0  0  3  0  0  0  0  0  0
  187.4230  178.0090  148.1020 C   0  0  0  0  0  2  0  0  0  0  0  0
  188.8260  177.6150  148.3130 N   0  0  0  0  0  2  0  0  0  0  0  0
  185.9490  178.7410  146.2320 N   0  0  0  0  0  2  0  0  0  0  0  0
  184.5360  179.1010  144.2140 C   0  0  2  0  0  3  0  0  0  0  0  0
  189.1180  176.5480  147.5090 O   0  0  0  0  0  0  0  0  0  0  0  0
  187.0460  177.8550  146.6290 C   0  0  1  0  0  3  0  0  0  0  0  0
  183.3450  178.3920  144.3660 O   0  0  0  0  0  1  0  0  0  0  0  0
  188.3020  178.0670  145.7590 C   0  0  1  0  0  3  0  0  0  0  0  0
  186.3190  178.6340  142.6720 O   0  0  0  0  0  0  0  0  0  0  0  0
  189.3750  177.0550  146.2090 C   0  0  0  0  0  2  0  0  0  0  0  0
  184.9740  179.0720  142.7480 C   0  0  0  0  0  2  0  0  0  0  0  0
  187.9750  177.9970  144.3220 N   0  0  0  0  0  0  0  0  0  0  0  0
  186.7810  178.7800  143.9820 C   0  0  2  0  0  3  0  0  0  0  0  0
  185.6510  178.3590  144.8590 C   0  0  1  0  0  3  0  0  0  0  0  0
  190.1100  178.7250  143.3920 O   0  0  0  0  0  0  0  0  0  0  0  0
  191.4400  178.3850  143.7600 C   0  0  0  0  0  1  0  0  0  0  0  0
  183.4880  178.3830  138.2430 C   0  0  0  0  0  2  0  0  0  0  0  0
  181.2700  177.2330  138.4360 C   0  0  1  0  0  3  0  0  0  0  0  0
  182.6450  175.7480  139.8570 F   0  0  0  0  0  0  0  0  0  0  0  0
  181.3800  176.2690  139.6070 C   0  0  2  0  0  0  0  0  0  0  0  0
  182.5630  174.5750  135.1720 O   0  0  0  0  0  0  0  0  0  0  0  0
  181.1740  176.8550  135.5140 C   0  0  0  0  0  2  0  0  0  0  0  0
  182.5690  177.3380  137.6260 C   0  0  1  0  0  3  0  0  0  0  0  0
  181.3930  174.7790  137.5800 C   0  0  0  0  0  2  0  0  0  0  0  0
  182.3120  177.6600  136.1480 C   0  0  0  0  0  2  0  0  0  0  0  0
  181.3170  175.1010  135.8250 S   0  0  0  0  0  0  0  0  0  0  0  0
  180.6080  175.8350  138.3700 C   0  0  2  0  0  3  0  0  0  0  0  0
  180.1210  174.4000  135.2470 O   0  0  0  0  0  0  0  0  0  0  0  0
  180.6050  176.6680  140.7040 O   0  0  0  0  0  0  0  0  0  0  0  0
  181.0490  178.5120  141.9730 O   0  0  0  0  0  1  0  0  0  0  0  0
  180.6380  178.0670  140.7170 C   0  0  0  0  0  2  0  0  0  0  0  0
  1 15  1  0  0  0  0
  2  1  2  0  0  0  0
  3  2  1  0  0  0  0
  3  6  1  0  0  0  0
  4 37  1  0  0  0  0
  4 15  2  0  0  0  0
  5  8  2  0  0  0  0
  5  2  1  0  0  0  0
  6 17  1  1  0  0  0
  7 14  2  0  0  0  0
  8  4  1  0  0  0  0
  9 11  1  0  0  0  0
 10  6  1  0  0  0  0
 11  3  2  0  0  0  0
 12 10  1  0  0  0  0
 13 11  1  0  0  0  0
 13 12  1  0  0  0  0
 14  5  1  0  0  0  0
 16  9  1  0  0  0  0
 16 14  1  0  0  0  0
 17 18  1  0  0  0  0
 18 20  1  0  0  0  0
 19 35  1  0  0  0  0
 19 32  1  0  0  0  0
 20 19  2  0  0  0  0
 21 22  1  0  0  0  0
 23 26  1  0  0  0  0
 24 27  1  6  0  0  0
 24 34  1  0  0  0  0
 25 22  1  0  0  0  0
 26 21  1  1  0  0  0
 28 30  1  1  0  0  0
 28 26  1  0  0  0  0
 29 31  1  0  0  0  0
 30 25  1  0  0  0  0
 31 24  1  0  0  0  0
 32 28  1  0  0  0  0
 33 29  1  6  0  0  0
 33 32  1  0  0  0  0
 33 34  1  0  0  0  0
 34 23  1  1  0  0  0
 35 36  1  0  0  0  0
 38 40  1  0  0  0  0
 40 39  1  0  0  0  0
 40 49  1  0  0  0  0
 41 46  2  0  0  0  0
 42 46  1  0  0  0  0
 42 45  1  0  0  0  0
 43 37  1  0  0  0  0
 43 38  1  0  0  0  0
 44 47  1  0  0  0  0
 45 43  1  0  0  0  0
 46 44  1  0  0  0  0
 47 38  1  0  0  0  0
 47 40  1  0  0  0  0
 48 46  2  0  0  0  0
 49 51  1  0  0  0  0
 51 50  1  0  0  0  0
M  END
>  <MODEL>
9

>  <REMARK>
 VINA RESULT:      -8.4      3.394      8.620
  Name = 
  9 active torsions:
  status: ('A' for Active; 'I' for Inactive)
    1  A    between atoms: O_1  and  C_18
    2  A    between atoms: C_2  and  C_15
    3  A    between atoms: C_2  and  C_35
    4  A    between atoms: O_8  and  C_12
    5  A    between atoms: O_8  and  C_41
    6  A    between atoms: C_14  and  C_25
    7  A    between atoms: C_15  and  C_17
    8  A    between atoms: C_18  and  N_44
    9  A    between atoms: C_25  and  C_34
                            x       y       z     vdW  Elec       q    Type
                         _______ _______ _______ _____ _____    ______ ____

>  <TORSDO>
F 9

$$$$
