=
 OpenBabel10232408393D

 28 32  0  0  1  0  0  0  0  0999 V2000
  187.0060  178.1040  139.1090 C   0  0  0  0  0  2  0  0  0  0  0  0
  188.2340  178.3950  139.9160 C   0  0  1  0  0  3  0  0  0  0  0  0
  189.7620  177.0550  140.8870 C   0  0  2  0  0  3  0  0  0  0  0  0
  191.3440  176.5460  139.0210 C   0  0  0  0  0  2  0  0  0  0  0  0
  188.4900  177.6710  141.0060 C   0  0  1  0  0  3  0  0  0  0  0  0
  189.5060  177.4060  143.1540 C   0  0  2  0  0  3  0  0  0  0  0  0
  190.4160  176.9000  142.1240 N   0  0  0  0  0  2  0  0  0  0  0  0
  188.7790  177.3420  137.9400 C   0  0  0  0  0  0  0  0  0  0  0  0
  190.7290  175.9630  137.7570 C   0  0  0  0  0  3  0  0  0  0  0  0
  188.2990  178.0720  142.4320 C   0  0  2  0  0  3  0  0  0  0  0  0
  189.3790  178.2140  138.9710 C   0  0  2  0  0  3  0  0  0  0  0  0
  187.4940  177.2590  138.0230 N   0  0  0  0  0  0  0  0  0  0  0  0
  189.5650  176.3340  137.2880 N   0  0  0  0  0  0  0  0  0  0  0  0
  190.3350  177.3840  139.7450 C   0  0  1  0  0  3  0  0  0  0  0  0
  185.1690  178.7810  143.8750 C   0  0  0  0  0  0  0  0  0  0  0  0
  186.9940  177.4620  144.5190 C   0  0  0  0  0  2  0  0  0  0  0  0
  185.4930  178.4060  146.3670 C   0  0  0  0  0  1  0  0  0  0  0  0
  185.8030  178.4580  142.5840 C   0  0  0  0  0  2  0  0  0  0  0  0
  186.9710  177.5380  142.9790 C   0  0  1  0  0  3  0  0  0  0  0  0
  184.1440  179.5020  143.9930 O   0  0  0  0  0  0  0  0  0  0  0  0
  185.8380  178.2030  144.9710 N   0  0  0  0  0  0  0  0  0  0  0  0
  190.5330  178.1920  145.2830 C   0  0  0  0  0  3  0  0  0  0  0  0
  190.2180  178.4150  144.0020 C   0  0  0  0  0  3  0  0  0  0  0  0
  190.2060  176.9180  145.9990 C   0  0  0  0  0  2  0  0  0  0  0  0
  192.1080  175.8640  147.2590 C   0  0  0  0  0  0  0  0  0  0  0  0
  192.4070  175.0490  146.1740 O   0  0  0  0  0  0  0  0  0  0  0  0
  191.0270  176.7930  147.1930 N   0  0  0  0  0  2  0  0  0  0  0  0
  192.7980  175.7850  148.3080 O   0  0  0  0  0  1  0  0  0  0  0  0
  2  1  1  6  0  0  0
  2  5  1  0  0  0  0
  3  5  1  0  0  0  0
  3  7  1  1  0  0  0
  4 14  1  0  0  0  0
  5 10  1  0  0  0  0
  6 23  1  0  0  0  0
  7  6  1  0  0  0  0
  8 12  2  0  0  0  0
  8 11  1  0  0  0  0
  9  4  1  0  0  0  0
 10 19  1  0  0  0  0
 10  6  1  0  0  0  0
 11 14  1  0  0  0  0
 11  2  1  0  0  0  0
 12  1  1  0  0  0  0
 13  9  2  0  0  0  0
 13  8  1  0  0  0  0
 14  3  1  0  0  0  0
 15 20  2  0  0  0  0
 15 21  1  0  0  0  0
 16 21  1  0  0  0  0
 18 19  1  0  0  0  0
 18 15  1  0  0  0  0
 19 16  1  0  0  0  0
 21 17  1  0  0  0  0
 22 24  1  0  0  0  0
 23 22  2  0  0  0  0
 24 27  1  0  0  0  0
 25 28  1  0  0  0  0
 26 25  2  0  0  0  0
 27 25  1  0  0  0  0
M  END
>  <MODEL>
1

>  <REMARK>
 VINA RESULT:      -8.8      0.000      0.000
  Name = 
  4 active torsions:
  status: ('A' for Active; 'I' for Inactive)
    1  A    between atoms: C_9  and  C_25
    2  A    between atoms: N_12  and  C_25
    3  A    between atoms: C_13  and  C_26
    4  A    between atoms: C_17  and  C_20
                            x       y       z     vdW  Elec       q    Type
                         _______ _______ _______ _____ _____    ______ ____

>  <TORSDO>
F 4

$$$$
=
 OpenBabel10232408393D

 28 32  0  0  1  0  0  0  0  0999 V2000
  185.2160  178.5370  145.1790 C   0  0  0  0  0  2  0  0  0  0  0  0
  186.3510  177.5890  144.9400 C   0  0  1  0  0  3  0  0  0  0  0  0
  188.5860  177.8560  144.9990 C   0  0  2  0  0  3  0  0  0  0  0  0
  189.1300  177.5900  147.4230 C   0  0  0  0  0  2  0  0  0  0  0  0
  187.4040  177.9910  144.2280 C   0  0  1  0  0  3  0  0  0  0  0  0
  189.2820  177.5320  142.8220 C   0  0  2  0  0  3  0  0  0  0  0  0
  189.7200  177.5570  144.2190 N   0  0  0  0  0  2  0  0  0  0  0  0
  186.3490  178.3370  147.1190 C   0  0  0  0  0  0  0  0  0  0  0  0
  188.3760  178.4970  148.3860 C   0  0  0  0  0  3  0  0  0  0  0  0
  187.7300  177.6510  142.8110 C   0  0  2  0  0  3  0  0  0  0  0  0
  186.8410  177.2090  146.3010 C   0  0  2  0  0  3  0  0  0  0  0  0
  185.4840  179.0750  146.5090 N   0  0  0  0  0  0  0  0  0  0  0  0
  187.1200  178.8260  148.2270 N   0  0  0  0  0  0  0  0  0  0  0  0
  188.3120  177.3570  146.1890 C   0  0  1  0  0  3  0  0  0  0  0  0
  185.2930  178.8380  140.5680 C   0  0  0  0  0  0  0  0  0  0  0  0
  187.5880  178.4030  140.3930 C   0  0  0  0  0  2  0  0  0  0  0  0
  186.1790  178.2480  138.2600 C   0  0  0  0  0  1  0  0  0  0  0  0
  185.7540  178.9820  141.9610 C   0  0  0  0  0  2  0  0  0  0  0  0
  187.2730  178.7610  141.8600 C   0  0  1  0  0  3  0  0  0  0  0  0
  184.0950  178.9720  140.2060 O   0  0  0  0  0  0  0  0  0  0  0  0
  186.3380  178.5240  139.6770 N   0  0  0  0  0  0  0  0  0  0  0  0
  190.5820  176.1840  141.1790 C   0  0  0  0  0  3  0  0  0  0  0  0
  189.7040  176.2430  142.1870 C   0  0  0  0  0  3  0  0  0  0  0  0
  191.2310  177.3950  140.5840 C   0  0  0  0  0  2  0  0  0  0  0  0
  193.0980  176.9600  138.9590 C   0  0  0  0  0  0  0  0  0  0  0  0
  194.0430  177.1070  139.9680 O   0  0  0  0  0  1  0  0  0  0  0  0
  191.7070  177.0970  139.2430 N   0  0  0  0  0  2  0  0  0  0  0  0
  193.4720  176.7000  137.7870 O   0  0  0  0  0  0  0  0  0  0  0  0
  1 12  1  0  0  0  0
  2  1  1  1  0  0  0
  2 11  1  0  0  0  0
  3  7  1  6  0  0  0
  3 14  1  0  0  0  0
  4  9  1  0  0  0  0
  5  2  1  0  0  0  0
  5  3  1  0  0  0  0
  6  7  1  0  0  0  0
  8 13  1  0  0  0  0
 10  6  1  0  0  0  0
 10  5  1  0  0  0  0
 11  8  1  0  0  0  0
 12  8  2  0  0  0  0
 13  9  2  0  0  0  0
 14 11  1  0  0  0  0
 14  4  1  0  0  0  0
 15 18  1  0  0  0  0
 16 19  1  0  0  0  0
 17 21  1  0  0  0  0
 19 18  1  0  0  0  0
 19 10  1  0  0  0  0
 20 15  2  0  0  0  0
 21 16  1  0  0  0  0
 21 15  1  0  0  0  0
 22 23  2  0  0  0  0
 23  6  1  0  0  0  0
 24 22  1  0  0  0  0
 25 27  1  0  0  0  0
 25 26  1  0  0  0  0
 27 24  1  0  0  0  0
 28 25  2  0  0  0  0
M  END
>  <MODEL>
2

>  <REMARK>
 VINA RESULT:      -8.5      2.844      6.576
  Name = 
  4 active torsions:
  status: ('A' for Active; 'I' for Inactive)
    1  A    between atoms: C_9  and  C_25
    2  A    between atoms: N_12  and  C_25
    3  A    between atoms: C_13  and  C_26
    4  A    between atoms: C_17  and  C_20
                            x       y       z     vdW  Elec       q    Type
                         _______ _______ _______ _____ _____    ______ ____

>  <TORSDO>
F 4

$$$$
=
 OpenBabel10232408393D

 28 32  0  0  1  0  0  0  0  0999 V2000
  185.5060  178.0970  146.3510 C   0  0  0  0  0  2  0  0  0  0  0  0
  186.5480  177.3460  145.5810 C   0  0  1  0  0  3  0  0  0  0  0  0
  188.5890  177.9280  144.8280 C   0  0  2  0  0  3  0  0  0  0  0  0
  190.0600  177.5520  146.8130 C   0  0  0  0  0  2  0  0  0  0  0  0
  187.1930  177.9520  144.5840 C   0  0  1  0  0  3  0  0  0  0  0  0
  188.4100  177.8840  142.5280 C   0  0  2  0  0  3  0  0  0  0  0  0
  189.3530  177.8610  143.6470 N   0  0  0  0  0  2  0  0  0  0  0  0
  187.3200  177.9080  147.6780 C   0  0  0  0  0  0  0  0  0  0  0  0
  189.6530  178.2600  148.0970 C   0  0  0  0  0  3  0  0  0  0  0  0
  186.9730  177.7770  143.1170 C   0  0  2  0  0  3  0  0  0  0  0  0
  187.5670  176.9330  146.5950 C   0  0  2  0  0  3  0  0  0  0  0  0
  186.2150  178.5600  147.5400 N   0  0  0  0  0  0  0  0  0  0  0  0
  188.4070  178.4150  148.4670 N   0  0  0  0  0  0  0  0  0  0  0  0
  188.8550  177.3020  145.9590 C   0  0  1  0  0  3  0  0  0  0  0  0
  183.9180  178.6500  141.6060 C   0  0  0  0  0  0  0  0  0  0  0  0
  186.1650  178.9590  141.0240 C   0  0  0  0  0  2  0  0  0  0  0  0
  184.4450  178.8600  139.1290 C   0  0  0  0  0  1  0  0  0  0  0  0
  184.5950  178.6180  142.9150 C   0  0  0  0  0  2  0  0  0  0  0  0
  186.0700  178.8820  142.5610 C   0  0  1  0  0  3  0  0  0  0  0  0
  182.6770  178.5000  141.4530 O   0  0  0  0  0  0  0  0  0  0  0  0
  184.8090  178.8580  140.5350 N   0  0  0  0  0  0  0  0  0  0  0  0
  189.3200  176.8530  140.4510 C   0  0  0  0  0  3  0  0  0  0  0  0
  188.6800  176.7250  141.6190 C   0  0  0  0  0  3  0  0  0  0  0  0
  189.8290  178.1620  139.9320 C   0  0  0  0  0  2  0  0  0  0  0  0
  188.8110  178.6210  137.6810 C   0  0  0  0  0  0  0  0  0  0  0  0
  189.7750  177.8360  137.0580 O   0  0  0  0  0  1  0  0  0  0  0  0
  188.8200  178.7940  139.0970 N   0  0  0  0  0  2  0  0  0  0  0  0
  187.9210  179.1810  136.9910 O   0  0  0  0  0  0  0  0  0  0  0  0
  1 12  1  0  0  0  0
  2  1  1  1  0  0  0
  2 11  1  0  0  0  0
  3  7  1  6  0  0  0
  3 14  1  0  0  0  0
  4  9  1  0  0  0  0
  5  3  1  0  0  0  0
  5  2  1  0  0  0  0
  6 10  1  0  0  0  0
  6  7  1  0  0  0  0
  8 13  1  0  0  0  0
  9 13  2  0  0  0  0
 10  5  1  0  0  0  0
 11  8  1  0  0  0  0
 12  8  2  0  0  0  0
 14 11  1  0  0  0  0
 14  4  1  0  0  0  0
 15 18  1  0  0  0  0
 16 19  1  0  0  0  0
 17 21  1  0  0  0  0
 19 18  1  0  0  0  0
 19 10  1  0  0  0  0
 20 15  2  0  0  0  0
 21 16  1  0  0  0  0
 21 15  1  0  0  0  0
 22 23  2  0  0  0  0
 23  6  1  0  0  0  0
 24 22  1  0  0  0  0
 25 27  1  0  0  0  0
 26 25  1  0  0  0  0
 27 24  1  0  0  0  0
 28 25  2  0  0  0  0
M  END
>  <MODEL>
3

>  <REMARK>
 VINA RESULT:      -8.5      3.446      6.986
  Name = 
  4 active torsions:
  status: ('A' for Active; 'I' for Inactive)
    1  A    between atoms: C_9  and  C_25
    2  A    between atoms: N_12  and  C_25
    3  A    between atoms: C_13  and  C_26
    4  A    between atoms: C_17  and  C_20
                            x       y       z     vdW  Elec       q    Type
                         _______ _______ _______ _____ _____    ______ ____

>  <TORSDO>
F 4

$$$$
=
 OpenBabel10232408393D

 28 32  0  0  1  0  0  0  0  0999 V2000
  191.3960  177.2030  144.2380 C   0  0  0  0  0  2  0  0  0  0  0  0
  190.1470  178.0230  144.1480 C   0  0  1  0  0  3  0  0  0  0  0  0
  187.9690  177.4990  144.3830 C   0  0  2  0  0  3  0  0  0  0  0  0
  187.6220  177.5940  146.8550 C   0  0  0  0  0  2  0  0  0  0  0  0
  189.0840  177.5340  143.5080 C   0  0  1  0  0  3  0  0  0  0  0  0
  187.0470  177.8360  142.2940 C   0  0  2  0  0  3  0  0  0  0  0  0
  186.7430  177.6990  143.7190 N   0  0  0  0  0  2  0  0  0  0  0  0
  190.4290  177.1860  146.2760 C   0  0  0  0  0  0  0  0  0  0  0  0
  188.5550  176.7380  147.7000 C   0  0  0  0  0  3  0  0  0  0  0  0
  188.5950  177.8970  142.1440 C   0  0  2  0  0  3  0  0  0  0  0  0
  189.7430  178.2850  145.5640 C   0  0  2  0  0  3  0  0  0  0  0  0
  191.3110  176.5800  145.5550 N   0  0  0  0  0  0  0  0  0  0  0  0
  189.8210  176.5630  147.4170 N   0  0  0  0  0  0  0  0  0  0  0  0
  188.2930  177.9730  145.5710 C   0  0  1  0  0  3  0  0  0  0  0  0
  190.9570  177.0810  139.6660 C   0  0  0  0  0  0  0  0  0  0  0  0
  188.6240  177.2880  139.6820 C   0  0  0  0  0  2  0  0  0  0  0  0
  189.8420  177.6960  137.4670 C   0  0  0  0  0  1  0  0  0  0  0  0
  190.6210  176.8200  141.0780 C   0  0  0  0  0  2  0  0  0  0  0  0
  189.0840  176.8890  141.0990 C   0  0  1  0  0  3  0  0  0  0  0  0
  192.1310  177.0890  139.2130 O   0  0  0  0  0  0  0  0  0  0  0  0
  189.8200  177.3320  138.8730 N   0  0  0  0  0  0  0  0  0  0  0  0
  185.1240  179.2040  141.4970 C   0  0  0  0  0  3  0  0  0  0  0  0
  186.4300  179.0950  141.7670 C   0  0  0  0  0  3  0  0  0  0  0  0
  184.1490  178.0840  141.6910 C   0  0  0  0  0  2  0  0  0  0  0  0
  182.3190  178.9570  143.1750 C   0  0  0  0  0  0  0  0  0  0  0  0
  183.1170  178.7880  144.3000 O   0  0  0  0  0  1  0  0  0  0  0  0
  182.8090  178.6160  141.8800 N   0  0  0  0  0  2  0  0  0  0  0  0
  181.1540  179.4170  143.2990 O   0  0  0  0  0  0  0  0  0  0  0  0
  1 12  1  0  0  0  0
  2  1  1  1  0  0  0
  2 11  1  0  0  0  0
  3  7  1  6  0  0  0
  3 14  1  0  0  0  0
  4  9  1  0  0  0  0
  5  2  1  0  0  0  0
  5  3  1  0  0  0  0
  6  7  1  0  0  0  0
  8 13  1  0  0  0  0
 10  6  1  0  0  0  0
 10  5  1  0  0  0  0
 11 14  1  0  0  0  0
 11  8  1  0  0  0  0
 12  8  2  0  0  0  0
 13  9  2  0  0  0  0
 14  4  1  0  0  0  0
 15 18  1  0  0  0  0
 16 19  1  0  0  0  0
 17 21  1  0  0  0  0
 18 19  1  0  0  0  0
 19 10  1  0  0  0  0
 20 15  2  0  0  0  0
 21 15  1  0  0  0  0
 21 16  1  0  0  0  0
 22 24  1  0  0  0  0
 22 23  2  0  0  0  0
 23  6  1  0  0  0  0
 24 27  1  0  0  0  0
 25 28  2  0  0  0  0
 25 26  1  0  0  0  0
 27 25  1  0  0  0  0
M  END
>  <MODEL>
4

>  <REMARK>
 VINA RESULT:      -8.4      2.678      7.571
  Name = 
  4 active torsions:
  status: ('A' for Active; 'I' for Inactive)
    1  A    between atoms: C_9  and  C_25
    2  A    between atoms: N_12  and  C_25
    3  A    between atoms: C_13  and  C_26
    4  A    between atoms: C_17  and  C_20
                            x       y       z     vdW  Elec       q    Type
                         _______ _______ _______ _____ _____    ______ ____

>  <TORSDO>
F 4

$$$$
=
 OpenBabel10232408393D

 28 32  0  0  1  0  0  0  0  0999 V2000
  191.3250  177.8820  143.0960 C   0  0  0  0  0  2  0  0  0  0  0  0
  190.0560  178.3980  143.7020 C   0  0  1  0  0  3  0  0  0  0  0  0
  188.3220  177.3640  144.7000 C   0  0  2  0  0  3  0  0  0  0  0  0
  189.1040  177.0810  147.0560 C   0  0  0  0  0  2  0  0  0  0  0  0
  188.9090  177.7580  143.4710 C   0  0  1  0  0  3  0  0  0  0  0  0
  186.5260  177.7270  143.2970 C   0  0  2  0  0  3  0  0  0  0  0  0
  186.9140  177.3550  144.6590 N   0  0  0  0  0  2  0  0  0  0  0  0
  191.3830  177.4000  145.2990 C   0  0  0  0  0  0  0  0  0  0  0  0
  190.4360  176.3680  147.2420 C   0  0  0  0  0  3  0  0  0  0  0  0
  187.8140  178.1590  142.5390 C   0  0  2  0  0  3  0  0  0  0  0  0
  190.2910  178.3890  145.1790 C   0  0  2  0  0  3  0  0  0  0  0  0
  191.9330  177.1030  144.1710 N   0  0  0  0  0  0  0  0  0  0  0  0
  191.4530  176.5230  146.4330 N   0  0  0  0  0  0  0  0  0  0  0  0
  189.0640  177.7550  145.7180 C   0  0  1  0  0  3  0  0  0  0  0  0
  189.8100  177.3280  139.7630 C   0  0  0  0  0  0  0  0  0  0  0  0
  187.7360  178.3880  140.0140 C   0  0  0  0  0  2  0  0  0  0  0  0
  189.1320  178.9740  137.9480 C   0  0  0  0  0  1  0  0  0  0  0  0
  189.3270  176.7870  141.0450 C   0  0  0  0  0  2  0  0  0  0  0  0
  187.9340  177.4230  141.2010 C   0  0  1  0  0  3  0  0  0  0  0  0
  190.9200  177.0320  139.2480 O   0  0  0  0  0  0  0  0  0  0  0  0
  188.8990  178.2260  139.1710 N   0  0  0  0  0  0  0  0  0  0  0  0
  184.5450  178.9950  142.4750 C   0  0  0  0  0  3  0  0  0  0  0  0
  185.5520  178.8640  143.3460 C   0  0  0  0  0  3  0  0  0  0  0  0
  184.2890  178.0230  141.3640 C   0  0  0  0  0  2  0  0  0  0  0  0
  183.3350  179.4120  139.5000 C   0  0  0  0  0  0  0  0  0  0  0  0
  184.5920  179.9290  139.2080 O   0  0  0  0  0  1  0  0  0  0  0  0
  183.1640  178.4720  140.5590 N   0  0  0  0  0  2  0  0  0  0  0  0
  182.3390  179.7750  138.8230 O   0  0  0  0  0  0  0  0  0  0  0  0
  1 12  1  0  0  0  0
  2  1  1  6  0  0  0
  2 11  1  0  0  0  0
  3  7  1  1  0  0  0
  3 14  1  0  0  0  0
  4  9  1  0  0  0  0
  5  2  1  0  0  0  0
  5  3  1  0  0  0  0
  6 23  1  0  0  0  0
  6  7  1  0  0  0  0
  8 13  1  0  0  0  0
 10  6  1  0  0  0  0
 10  5  1  0  0  0  0
 11  8  1  0  0  0  0
 11 14  1  0  0  0  0
 12  8  2  0  0  0  0
 13  9  2  0  0  0  0
 14  4  1  0  0  0  0
 15 18  1  0  0  0  0
 16 19  1  0  0  0  0
 17 21  1  0  0  0  0
 18 19  1  0  0  0  0
 19 10  1  0  0  0  0
 20 15  2  0  0  0  0
 21 15  1  0  0  0  0
 21 16  1  0  0  0  0
 22 23  2  0  0  0  0
 24 22  1  0  0  0  0
 25 27  1  0  0  0  0
 26 25  1  0  0  0  0
 27 24  1  0  0  0  0
 28 25  2  0  0  0  0
M  END
>  <MODEL>
5

>  <REMARK>
 VINA RESULT:      -8.4      2.814      7.473
  Name = 
  4 active torsions:
  status: ('A' for Active; 'I' for Inactive)
    1  A    between atoms: C_9  and  C_25
    2  A    between atoms: N_12  and  C_25
    3  A    between atoms: C_13  and  C_26
    4  A    between atoms: C_17  and  C_20
                            x       y       z     vdW  Elec       q    Type
                         _______ _______ _______ _____ _____    ______ ____

>  <TORSDO>
F 4

$$$$
=
 OpenBabel10232408393D

 28 32  0  0  1  0  0  0  0  0999 V2000
  185.0030  178.7180  143.1640 C   0  0  0  0  0  2  0  0  0  0  0  0
  186.0010  177.6910  143.6020 C   0  0  1  0  0  3  0  0  0  0  0  0
  187.9600  177.8540  144.7010 C   0  0  2  0  0  3  0  0  0  0  0  0
  187.2660  177.9210  147.1000 C   0  0  0  0  0  2  0  0  0  0  0  0
  187.3030  177.9320  143.4470 C   0  0  1  0  0  3  0  0  0  0  0  0
  189.5550  177.1790  143.1760 C   0  0  2  0  0  3  0  0  0  0  0  0
  189.2850  177.3890  144.6000 N   0  0  0  0  0  2  0  0  0  0  0  0
  185.0600  178.7500  145.4190 C   0  0  0  0  0  0  0  0  0  0  0  0
  186.2560  178.9960  147.4790 C   0  0  0  0  0  3  0  0  0  0  0  0
  188.2160  177.3710  142.4070 C   0  0  2  0  0  3  0  0  0  0  0  0
  185.7470  177.4910  145.0630 C   0  0  2  0  0  3  0  0  0  0  0  0
  184.6730  179.4320  144.3940 N   0  0  0  0  0  0  0  0  0  0  0  0
  185.2680  179.3590  146.7020 N   0  0  0  0  0  0  0  0  0  0  0  0
  187.1040  177.5490  145.6580 C   0  0  1  0  0  3  0  0  0  0  0  0
  187.6740  178.0800  139.0030 C   0  0  0  0  0  0  0  0  0  0  0  0
  189.5850  177.9520  140.3520 C   0  0  0  0  0  2  0  0  0  0  0  0
  189.8580  177.4800  137.8500 C   0  0  0  0  0  1  0  0  0  0  0  0
  187.1380  178.3670  140.3460 C   0  0  0  0  0  2  0  0  0  0  0  0
  188.3890  178.3500  141.2420 C   0  0  1  0  0  3  0  0  0  0  0  0
  186.9690  178.0270  137.9610 O   0  0  0  0  0  0  0  0  0  0  0  0
  189.0650  177.8590  139.0070 N   0  0  0  0  0  0  0  0  0  0  0  0
  191.1510  175.3140  143.6010 C   0  0  0  0  0  3  0  0  0  0  0  0
  190.0770  175.7920  142.9620 C   0  0  0  0  0  3  0  0  0  0  0  0
  191.9410  176.1140  144.5910 C   0  0  0  0  0  2  0  0  0  0  0  0
  192.0640  175.8900  147.0910 C   0  0  0  0  0  0  0  0  0  0  0  0
  191.7010  177.2220  147.2530 O   0  0  0  0  0  0  0  0  0  0  0  0
  192.1880  175.3250  145.7870 N   0  0  0  0  0  2  0  0  0  0  0  0
  192.2830  175.1760  148.1020 O   0  0  0  0  0  1  0  0  0  0  0  0
  1 12  1  0  0  0  0
  2  1  1  1  0  0  0
  2 11  1  0  0  0  0
  3  7  1  6  0  0  0
  3 14  1  0  0  0  0
  4  9  1  0  0  0  0
  5  2  1  0  0  0  0
  5  3  1  0  0  0  0
  6  7  1  0  0  0  0
  8 13  1  0  0  0  0
 10  6  1  0  0  0  0
 10  5  1  0  0  0  0
 11  8  1  0  0  0  0
 11 14  1  0  0  0  0
 12  8  2  0  0  0  0
 13  9  2  0  0  0  0
 14  4  1  0  0  0  0
 15 21  1  0  0  0  0
 15 18  1  0  0  0  0
 16 19  1  0  0  0  0
 17 21  1  0  0  0  0
 18 19  1  0  0  0  0
 19 10  1  0  0  0  0
 20 15  2  0  0  0  0
 21 16  1  0  0  0  0
 22 24  1  0  0  0  0
 23  6  1  0  0  0  0
 23 22  2  0  0  0  0
 24 27  1  0  0  0  0
 25 26  2  0  0  0  0
 25 28  1  0  0  0  0
 27 25  1  0  0  0  0
M  END
>  <MODEL>
6

>  <REMARK>
 VINA RESULT:      -8.4      1.997      5.698
  Name = 
  4 active torsions:
  status: ('A' for Active; 'I' for Inactive)
    1  A    between atoms: C_9  and  C_25
    2  A    between atoms: N_12  and  C_25
    3  A    between atoms: C_13  and  C_26
    4  A    between atoms: C_17  and  C_20
                            x       y       z     vdW  Elec       q    Type
                         _______ _______ _______ _____ _____    ______ ____

>  <TORSDO>
F 4

$$$$
=
 OpenBabel10232408393D

 28 32  0  0  1  0  0  0  0  0999 V2000
  184.6230  179.0700  145.9650 C   0  0  0  0  0  2  0  0  0  0  0  0
  185.5450  179.3320  144.8140 C   0  0  1  0  0  3  0  0  0  0  0  0
  186.0750  178.1200  142.9920 C   0  0  2  0  0  3  0  0  0  0  0  0
  184.2340  178.6600  141.3900 C   0  0  0  0  0  2  0  0  0  0  0  0
  186.3310  178.3530  144.3660 C   0  0  1  0  0  3  0  0  0  0  0  0
  188.3070  177.5950  143.2540 C   0  0  2  0  0  3  0  0  0  0  0  0
  187.2160  177.6960  142.2830 N   0  0  0  0  0  2  0  0  0  0  0  0
  183.3590  179.1810  144.1000 C   0  0  0  0  0  0  0  0  0  0  0  0
  182.8160  178.4290  141.8920 C   0  0  0  0  0  3  0  0  0  0  0  0
  187.7950  178.1800  144.6030 C   0  0  2  0  0  3  0  0  0  0  0  0
  184.6570  179.7530  143.6860 C   0  0  2  0  0  3  0  0  0  0  0  0
  183.3400  178.7870  145.3290 N   0  0  0  0  0  0  0  0  0  0  0  0
  182.4420  178.6660  143.1230 N   0  0  0  0  0  0  0  0  0  0  0  0
  185.1470  178.9440  142.5430 C   0  0  1  0  0  3  0  0  0  0  0  0
  189.1060  177.6560  147.8260 C   0  0  0  0  0  0  0  0  0  0  0  0
  189.5070  176.6870  145.7310 C   0  0  0  0  0  2  0  0  0  0  0  0
  191.4110  176.6540  147.4450 C   0  0  0  0  0  1  0  0  0  0  0  0
  187.8360  177.8900  147.1160 C   0  0  0  0  0  2  0  0  0  0  0  0
  188.0540  177.2050  145.7560 C   0  0  1  0  0  3  0  0  0  0  0  0
  189.3350  178.0410  149.0020 O   0  0  0  0  0  0  0  0  0  0  0  0
  190.0480  176.9600  147.0430 N   0  0  0  0  0  0  0  0  0  0  0  0
  190.3570  177.8990  141.8730 C   0  0  0  0  0  3  0  0  0  0  0  0
  189.4860  178.3790  142.7680 C   0  0  0  0  0  3  0  0  0  0  0  0
  190.2450  176.5340  141.2680 C   0  0  0  0  0  2  0  0  0  0  0  0
  189.8300  176.9520  138.8260 C   0  0  0  0  0  0  0  0  0  0  0  0
  188.5150  177.3220  139.0870 O   0  0  0  0  0  1  0  0  0  0  0  0
  190.6980  176.5610  139.8870 N   0  0  0  0  0  2  0  0  0  0  0  0
  190.2580  176.9660  137.6430 O   0  0  0  0  0  0  0  0  0  0  0  0
  2  1  1  1  0  0  0
  3  7  1  6  0  0  0
  3  5  1  0  0  0  0
  4  9  1  0  0  0  0
  4 14  1  0  0  0  0
  5 10  1  0  0  0  0
  5  2  1  0  0  0  0
  6 10  1  0  0  0  0
  7  6  1  0  0  0  0
  8 12  2  0  0  0  0
  9 13  2  0  0  0  0
 10 19  1  0  0  0  0
 11  8  1  0  0  0  0
 11  2  1  0  0  0  0
 12  1  1  0  0  0  0
 13  8  1  0  0  0  0
 14  3  1  0  0  0  0
 14 11  1  0  0  0  0
 15 20  2  0  0  0  0
 16 19  1  0  0  0  0
 16 21  1  0  0  0  0
 18 15  1  0  0  0  0
 19 18  1  0  0  0  0
 21 17  1  0  0  0  0
 21 15  1  0  0  0  0
 22 23  2  0  0  0  0
 23  6  1  0  0  0  0
 24 22  1  0  0  0  0
 25 26  1  0  0  0  0
 25 27  1  0  0  0  0
 27 24  1  0  0  0  0
 28 25  2  0  0  0  0
M  END
>  <MODEL>
7

>  <REMARK>
 VINA RESULT:      -8.3      2.867      6.421
  Name = 
  4 active torsions:
  status: ('A' for Active; 'I' for Inactive)
    1  A    between atoms: C_9  and  C_25
    2  A    between atoms: N_12  and  C_25
    3  A    between atoms: C_13  and  C_26
    4  A    between atoms: C_17  and  C_20
                            x       y       z     vdW  Elec       q    Type
                         _______ _______ _______ _____ _____    ______ ____

>  <TORSDO>
F 4

$$$$
=
 OpenBabel10232408393D

 28 32  0  0  1  0  0  0  0  0999 V2000
  190.7650  177.5740  143.1320 C   0  0  0  0  0  2  0  0  0  0  0  0
  189.8630  178.2180  144.1400 C   0  0  1  0  0  3  0  0  0  0  0  0
  188.4630  177.3650  145.6840 C   0  0  2  0  0  3  0  0  0  0  0  0
  189.9680  176.8920  147.6210 C   0  0  0  0  0  2  0  0  0  0  0  0
  188.6340  177.7340  144.3260 C   0  0  1  0  0  3  0  0  0  0  0  0
  186.3550  178.0040  144.9930 C   0  0  2  0  0  3  0  0  0  0  0  0
  187.1390  177.5310  146.1360 N   0  0  0  0  0  2  0  0  0  0  0  0
  191.5190  177.0000  145.1800 C   0  0  0  0  0  0  0  0  0  0  0  0
  191.1780  176.0130  147.3360 C   0  0  0  0  0  3  0  0  0  0  0  0
  187.3460  178.3040  143.8310 C   0  0  2  0  0  3  0  0  0  0  0  0
  190.5910  178.1200  145.4430 C   0  0  2  0  0  3  0  0  0  0  0  0
  191.6020  176.6830  143.9310 N   0  0  0  0  0  0  0  0  0  0  0  0
  191.8620  176.0750  146.2220 N   0  0  0  0  0  0  0  0  0  0  0  0
  189.5550  177.6190  146.3780 C   0  0  1  0  0  3  0  0  0  0  0  0
  187.1790  178.3770  140.3170 C   0  0  0  0  0  0  0  0  0  0  0  0
  185.5760  178.2100  142.0170 C   0  0  0  0  0  2  0  0  0  0  0  0
  184.8470  179.2360  139.7860 C   0  0  0  0  0  1  0  0  0  0  0  0
  187.9500  177.7910  141.4280 C   0  0  0  0  0  2  0  0  0  0  0  0
  186.9000  177.6140  142.5390 C   0  0  1  0  0  3  0  0  0  0  0  0
  187.6700  178.6580  139.1930 O   0  0  0  0  0  0  0  0  0  0  0  0
  185.8290  178.6010  140.6480 N   0  0  0  0  0  0  0  0  0  0  0  0
  184.3140  179.4270  145.1130 C   0  0  0  0  0  3  0  0  0  0  0  0
  185.6140  179.2490  145.3730 C   0  0  0  0  0  3  0  0  0  0  0  0
  183.4680  178.4060  144.4170 C   0  0  0  0  0  2  0  0  0  0  0  0
  181.2910  178.9980  143.3120 C   0  0  0  0  0  0  0  0  0  0  0  0
  180.5770  178.3640  144.3230 O   0  0  0  0  0  1  0  0  0  0  0  0
  182.7160  179.0300  143.3410 N   0  0  0  0  0  2  0  0  0  0  0  0
  180.6740  179.5520  142.3660 O   0  0  0  0  0  0  0  0  0  0  0  0
  1 12  1  0  0  0  0
  2  1  1  6  0  0  0
  2  5  1  0  0  0  0
  2 11  1  0  0  0  0
  3  7  1  1  0  0  0
  3 14  1  0  0  0  0
  5  3  1  0  0  0  0
  6 23  1  0  0  0  0
  6  7  1  0  0  0  0
  8 11  1  0  0  0  0
  8 13  1  0  0  0  0
  9  4  1  0  0  0  0
 10  5  1  0  0  0  0
 10  6  1  0  0  0  0
 11 14  1  0  0  0  0
 12  8  2  0  0  0  0
 13  9  2  0  0  0  0
 14  4  1  0  0  0  0
 15 21  1  0  0  0  0
 15 18  1  0  0  0  0
 16 19  1  0  0  0  0
 17 21  1  0  0  0  0
 18 19  1  0  0  0  0
 19 10  1  0  0  0  0
 20 15  2  0  0  0  0
 21 16  1  0  0  0  0
 22 23  2  0  0  0  0
 24 22  1  0  0  0  0
 25 27  1  0  0  0  0
 25 26  1  0  0  0  0
 27 24  1  0  0  0  0
 28 25  2  0  0  0  0
M  END
>  <MODEL>
8

>  <REMARK>
 VINA RESULT:      -8.0      3.556      7.102
  Name = 
  4 active torsions:
  status: ('A' for Active; 'I' for Inactive)
    1  A    between atoms: C_9  and  C_25
    2  A    between atoms: N_12  and  C_25
    3  A    between atoms: C_13  and  C_26
    4  A    between atoms: C_17  and  C_20
                            x       y       z     vdW  Elec       q    Type
                         _______ _______ _______ _____ _____    ______ ____

>  <TORSDO>
F 4

$$$$
=
 OpenBabel10232408393D

 28 32  0  0  1  0  0  0  0  0999 V2000
  188.2660  178.1840  139.8080 C   0  0  0  0  0  2  0  0  0  0  0  0
  187.9750  178.5890  141.2210 C   0  0  1  0  0  3  0  0  0  0  0  0
  187.4150  177.4030  143.0520 C   0  0  2  0  0  3  0  0  0  0  0  0
  189.6230  176.6340  143.9320 C   0  0  0  0  0  2  0  0  0  0  0  0
  186.9520  178.0290  141.8670 C   0  0  1  0  0  3  0  0  0  0  0  0
  185.2670  178.0750  143.5610 C   0  0  2  0  0  3  0  0  0  0  0  0
  186.4670  177.4270  144.0930 N   0  0  0  0  0  2  0  0  0  0  0  0
  189.8580  177.2640  141.1170 C   0  0  0  0  0  0  0  0  0  0  0  0
  190.5100  175.8750  142.9560 C   0  0  0  0  0  3  0  0  0  0  0  0
  185.6140  178.6300  142.1490 C   0  0  2  0  0  3  0  0  0  0  0  0
  189.2210  178.2750  141.9870 C   0  0  2  0  0  3  0  0  0  0  0  0
  189.3300  177.1920  139.9410 N   0  0  0  0  0  0  0  0  0  0  0  0
  190.5980  176.1730  141.6850 N   0  0  0  0  0  0  0  0  0  0  0  0
  188.7180  177.5660  143.1870 C   0  0  1  0  0  3  0  0  0  0  0  0
  183.1980  179.5390  139.7590 C   0  0  0  0  0  0  0  0  0  0  0  0
  183.1520  178.2240  141.6970 C   0  0  0  0  0  2  0  0  0  0  0  0
  180.9710  179.3530  140.9690 C   0  0  0  0  0  1  0  0  0  0  0  0
  184.5990  179.0970  139.8800 C   0  0  0  0  0  2  0  0  0  0  0  0
  184.5800  178.1790  141.1140 C   0  0  1  0  0  3  0  0  0  0  0  0
  182.7760  180.2960  138.8460 O   0  0  0  0  0  0  0  0  0  0  0  0
  182.3750  179.0300  140.7830 N   0  0  0  0  0  0  0  0  0  0  0  0
  185.0730  179.1760  145.7880 C   0  0  0  0  0  3  0  0  0  0  0  0
  184.8570  179.1950  144.4680 C   0  0  0  0  0  3  0  0  0  0  0  0
  185.7420  178.0370  146.4940 C   0  0  0  0  0  2  0  0  0  0  0  0
  187.9240  177.9460  147.7360 C   0  0  0  0  0  0  0  0  0  0  0  0
  188.3350  176.8520  146.9830 O   0  0  0  0  0  0  0  0  0  0  0  0
  186.6500  178.5450  147.5100 N   0  0  0  0  0  2  0  0  0  0  0  0
  188.6840  178.4140  148.6230 O   0  0  0  0  0  1  0  0  0  0  0  0
  1 12  1  0  0  0  0
  2  1  1  6  0  0  0
  2  5  1  0  0  0  0
  2 11  1  0  0  0  0
  3 14  1  0  0  0  0
  3  7  1  1  0  0  0
  5 10  1  0  0  0  0
  5  3  1  0  0  0  0
  6  7  1  0  0  0  0
  6 23  1  0  0  0  0
  8 13  1  0  0  0  0
  8 11  1  0  0  0  0
  9  4  1  0  0  0  0
 10  6  1  0  0  0  0
 11 14  1  0  0  0  0
 12  8  2  0  0  0  0
 13  9  2  0  0  0  0
 14  4  1  0  0  0  0
 15 18  1  0  0  0  0
 15 21  1  0  0  0  0
 18 19  1  0  0  0  0
 19 16  1  0  0  0  0
 19 10  1  0  0  0  0
 20 15  2  0  0  0  0
 21 17  1  0  0  0  0
 21 16  1  0  0  0  0
 22 24  1  0  0  0  0
 23 22  2  0  0  0  0
 24 27  1  0  0  0  0
 25 28  1  0  0  0  0
 26 25  2  0  0  0  0
 27 25  1  0  0  0  0
M  END
>  <MODEL>
9

>  <REMARK>
 VINA RESULT:      -7.9      2.678      4.326
  Name = 
  4 active torsions:
  status: ('A' for Active; 'I' for Inactive)
    1  A    between atoms: C_9  and  C_25
    2  A    between atoms: N_12  and  C_25
    3  A    between atoms: C_13  and  C_26
    4  A    between atoms: C_17  and  C_20
                            x       y       z     vdW  Elec       q    Type
                         _______ _______ _______ _____ _____    ______ ____

>  <TORSDO>
F 4

$$$$
