=
 OpenBabel10232411433D

 27 29  0  0  1  0  0  0  0  0999 V2000
  188.6020  175.7160  143.2400 O   0  0  0  0  0  0  0  0  0  0  0  0
  188.4950  176.9670  143.3610 C   0  0  0  0  0  0  0  0  0  0  0  0
  189.5950  177.8100  143.0080 N   0  0  0  0  0  2  0  0  0  0  0  0
  186.1890  177.8510  142.9740 C   0  0  0  0  0  3  0  0  0  0  0  0
  187.2970  177.9830  147.3940 C   0  0  0  0  0  3  0  0  0  0  0  0
  184.9760  178.4030  143.4280 C   0  0  0  0  0  0  0  0  0  0  0  0
  185.8340  178.3600  145.6750 C   0  0  0  0  0  0  0  0  0  0  0  0
  185.9110  178.5230  147.1500 C   0  0  2  0  0  3  0  0  0  0  0  0
  187.0120  177.8210  145.2310 C   0  0  0  0  0  0  0  0  0  0  0  0
  183.6010  179.2030  145.2760 O   0  0  0  0  0  1  0  0  0  0  0  0
  187.9010  177.5960  146.3110 N   0  0  0  0  0  0  0  0  0  0  0  0
  187.2330  177.5470  143.8710 C   0  0  0  0  0  0  0  0  0  0  0  0
  184.7910  178.6610  144.7990 C   0  0  0  0  0  0  0  0  0  0  0  0
  183.9020  178.7050  142.4430 C   0  0  0  0  0  1  0  0  0  0  0  0
  185.8770  179.8790  147.4760 O   0  0  0  0  0  1  0  0  0  0  0  0
  190.8420  177.2940  142.4610 C   0  0  0  0  0  2  0  0  0  0  0  0
  190.8940  176.5100  140.1250 C   0  0  2  0  0  3  0  0  0  0  0  0
  189.7120  177.4420  140.2670 C   0  0  0  0  0  2  0  0  0  0  0  0
  190.9960  177.7300  141.0170 C   0  0  1  0  0  3  0  0  0  0  0  0
  191.4400  174.5710  138.1230 O   0  0  0  0  0  0  0  0  0  0  0  0
  191.5730  176.7790  138.8690 N   0  0  0  0  0  2  0  0  0  0  0  0
  191.8170  175.7540  137.9030 C   0  0  0  0  0  0  0  0  0  0  0  0
  194.6150  176.7550  135.4890 C   0  0  0  0  0  3  0  0  0  0  0  0
  193.8960  176.4320  136.6760 N   0  0  0  0  0  2  0  0  0  0  0  0
  192.5110  176.0790  136.6520 C   0  0  0  0  0  0  0  0  0  0  0  0
  195.8330  177.0610  135.5550 O   0  0  0  0  0  0  0  0  0  0  0  0
  191.8830  176.0440  135.5590 O   0  0  0  0  0  0  0  0  0  0  0  0
  1  2  2  0  0  0  0
  2 12  1  0  0  0  0
  3  2  1  0  0  0  0
  4  6  2  0  0  0  0
  4 12  1  0  0  0  0
  6 13  1  0  0  0  0
  7  8  1  0  0  0  0
  8  5  1  0  0  0  0
  8 15  1  6  0  0  0
  9  7  1  0  0  0  0
  9 11  1  0  0  0  0
 11  5  2  0  0  0  0
 12  9  2  0  0  0  0
 13 10  1  0  0  0  0
 13  7  2  0  0  0  0
 14  6  1  0  0  0  0
 16  3  1  0  0  0  0
 17 21  1  6  0  0  0
 17 18  1  0  0  0  0
 17 19  1  0  0  0  0
 18 19  1  0  0  0  0
 19 16  1  1  0  0  0
 22 20  2  0  0  0  0
 22 21  1  0  0  0  0
 23 26  2  0  0  0  0
 23 24  1  0  0  0  0
 25 24  1  0  0  0  0
 25 22  1  0  0  0  0
 27 25  2  0  0  0  0
M  END
>  <MODEL>
1

>  <REMARK>
 VINA RESULT:      -8.6      0.000      0.000
  Name = 
  5 active torsions:
  status: ('A' for Active; 'I' for Inactive)
    1  A    between atoms: C_1  and  N_11
    2  A    between atoms: C_10  and  C_21
    3  A    between atoms: C_15  and  C_16
    4  A    between atoms: C_18  and  N_22
    5  A    between atoms: C_18  and  C_26
                            x       y       z     vdW  Elec       q    Type
                         _______ _______ _______ _____ _____    ______ ____

>  <TORSDO>
F 5

$$$$
=
 OpenBabel10232411433D

 27 29  0  0  1  0  0  0  0  0999 V2000
  188.9350  175.5740  142.9400 O   0  0  0  0  0  0  0  0  0  0  0  0
  188.8700  176.8030  143.2150 C   0  0  0  0  0  0  0  0  0  0  0  0
  189.7490  177.7240  142.5620 N   0  0  0  0  0  2  0  0  0  0  0  0
  186.6310  177.7580  143.7860 C   0  0  0  0  0  3  0  0  0  0  0  0
  189.1220  177.0130  147.5300 C   0  0  0  0  0  3  0  0  0  0  0  0
  185.6730  178.2150  144.7100 C   0  0  0  0  0  0  0  0  0  0  0  0
  187.2100  177.7280  146.4960 C   0  0  0  0  0  0  0  0  0  0  0  0
  187.7730  177.5980  147.8650 C   0  0  2  0  0  3  0  0  0  0  0  0
  188.1380  177.2810  145.5940 C   0  0  0  0  0  0  0  0  0  0  0  0
  185.0330  178.6440  147.0240 O   0  0  0  0  0  1  0  0  0  0  0  0
  189.3120  176.8440  146.2570 N   0  0  0  0  0  0  0  0  0  0  0  0
  187.8860  177.2790  144.2130 C   0  0  0  0  0  0  0  0  0  0  0  0
  185.9620  178.2010  146.0880 C   0  0  0  0  0  0  0  0  0  0  0  0
  184.3600  178.7100  144.2120 C   0  0  0  0  0  1  0  0  0  0  0  0
  187.9430  178.8630  148.4270 O   0  0  0  0  0  1  0  0  0  0  0  0
  190.7040  177.3150  141.5420 C   0  0  0  0  0  2  0  0  0  0  0  0
  189.7690  177.9110  139.3410 C   0  0  2  0  0  3  0  0  0  0  0  0
  190.8640  176.8940  139.1110 C   0  0  0  0  0  2  0  0  0  0  0  0
  189.9710  176.7790  140.3290 C   0  0  1  0  0  3  0  0  0  0  0  0
  188.8250  179.5600  137.2310 O   0  0  0  0  0  0  0  0  0  0  0  0
  188.6360  177.6010  138.4850 N   0  0  0  0  0  2  0  0  0  0  0  0
  188.2120  178.4780  137.4400 C   0  0  0  0  0  0  0  0  0  0  0  0
  184.7850  177.1030  136.4310 C   0  0  0  0  0  3  0  0  0  0  0  0
  185.9290  177.4710  137.1950 N   0  0  0  0  0  2  0  0  0  0  0  0
  187.0590  178.1200  136.6070 C   0  0  0  0  0  0  0  0  0  0  0  0
  183.8120  176.5330  136.9880 O   0  0  0  0  0  0  0  0  0  0  0  0
  187.0680  178.3860  135.3740 O   0  0  0  0  0  0  0  0  0  0  0  0
  1  2  2  0  0  0  0
  2 12  1  0  0  0  0
  3  2  1  0  0  0  0
  4 12  2  0  0  0  0
  4  6  1  0  0  0  0
  5  8  1  0  0  0  0
  6 13  2  0  0  0  0
  7  8  1  0  0  0  0
  8 15  1  6  0  0  0
  9 11  1  0  0  0  0
  9  7  2  0  0  0  0
 11  5  2  0  0  0  0
 12  9  1  0  0  0  0
 13  7  1  0  0  0  0
 13 10  1  0  0  0  0
 14  6  1  0  0  0  0
 16  3  1  0  0  0  0
 17 21  1  6  0  0  0
 17 19  1  0  0  0  0
 18 17  1  0  0  0  0
 18 19  1  0  0  0  0
 19 16  1  1  0  0  0
 20 22  2  0  0  0  0
 22 21  1  0  0  0  0
 23 26  2  0  0  0  0
 23 24  1  0  0  0  0
 25 24  1  0  0  0  0
 25 22  1  0  0  0  0
 27 25  2  0  0  0  0
M  END
>  <MODEL>
2

>  <REMARK>
 VINA RESULT:      -8.5      3.086      4.231
  Name = 
  5 active torsions:
  status: ('A' for Active; 'I' for Inactive)
    1  A    between atoms: C_1  and  N_11
    2  A    between atoms: C_10  and  C_21
    3  A    between atoms: C_15  and  C_16
    4  A    between atoms: C_18  and  N_22
    5  A    between atoms: C_18  and  C_26
                            x       y       z     vdW  Elec       q    Type
                         _______ _______ _______ _____ _____    ______ ____

>  <TORSDO>
F 5

$$$$
=
 OpenBabel10232411433D

 27 29  0  0  1  0  0  0  0  0999 V2000
  188.6470  175.6640  142.8910 O   0  0  0  0  0  0  0  0  0  0  0  0
  188.4690  176.9040  143.0450 C   0  0  0  0  0  0  0  0  0  0  0  0
  189.1380  177.8280  142.1810 N   0  0  0  0  0  2  0  0  0  0  0  0
  186.3060  177.9110  143.7900 C   0  0  0  0  0  3  0  0  0  0  0  0
  189.0320  177.0200  147.3340 C   0  0  0  0  0  3  0  0  0  0  0  0
  185.4310  178.3780  144.7880 C   0  0  0  0  0  0  0  0  0  0  0  0
  187.0740  177.8100  146.4510 C   0  0  0  0  0  0  0  0  0  0  0  0
  187.7280  177.6370  147.7740 C   0  0  2  0  0  3  0  0  0  0  0  0
  187.9230  177.3550  145.4780 C   0  0  0  0  0  0  0  0  0  0  0  0
  184.9690  178.7790  147.1490 O   0  0  0  0  0  1  0  0  0  0  0  0
  189.1260  176.8710  146.0470 N   0  0  0  0  0  0  0  0  0  0  0  0
  187.5730  177.3880  144.1180 C   0  0  0  0  0  0  0  0  0  0  0  0
  185.8160  178.3270  146.1420 C   0  0  0  0  0  0  0  0  0  0  0  0
  184.1020  178.9210  144.3940 C   0  0  0  0  0  1  0  0  0  0  0  0
  187.9750  178.8850  148.3450 O   0  0  0  0  0  1  0  0  0  0  0  0
  189.9950  177.4050  141.0830 C   0  0  0  0  0  2  0  0  0  0  0  0
  188.5090  178.4800  139.4360 C   0  0  2  0  0  3  0  0  0  0  0  0
  189.7340  177.9920  138.6950 C   0  0  0  0  0  2  0  0  0  0  0  0
  189.1650  177.1730  139.8360 C   0  0  1  0  0  3  0  0  0  0  0  0
  185.8450  179.0220  140.2530 O   0  0  0  0  0  0  0  0  0  0  0  0
  187.3230  178.1970  138.6470 N   0  0  0  0  0  2  0  0  0  0  0  0
  186.0070  178.4950  139.1190 C   0  0  0  0  0  0  0  0  0  0  0  0
  182.3670  178.2600  137.9560 C   0  0  0  0  0  3  0  0  0  0  0  0
  183.5310  178.5390  138.7300 N   0  0  0  0  0  2  0  0  0  0  0  0
  184.8420  178.1850  138.2830 C   0  0  0  0  0  0  0  0  0  0  0  0
  181.2330  178.5880  138.3860 O   0  0  0  0  0  0  0  0  0  0  0  0
  185.0020  177.6070  137.1740 O   0  0  0  0  0  0  0  0  0  0  0  0
  1  2  2  0  0  0  0
  2 12  1  0  0  0  0
  3  2  1  0  0  0  0
  4 12  2  0  0  0  0
  4  6  1  0  0  0  0
  5  8  1  0  0  0  0
  6 13  2  0  0  0  0
  7  8  1  0  0  0  0
  8 15  1  6  0  0  0
  9 11  1  0  0  0  0
  9  7  2  0  0  0  0
 11  5  2  0  0  0  0
 12  9  1  0  0  0  0
 13  7  1  0  0  0  0
 13 10  1  0  0  0  0
 14  6  1  0  0  0  0
 16  3  1  0  0  0  0
 17 21  1  6  0  0  0
 17 19  1  0  0  0  0
 18 17  1  0  0  0  0
 18 19  1  0  0  0  0
 19 16  1  1  0  0  0
 21 22  1  0  0  0  0
 22 20  2  0  0  0  0
 23 26  2  0  0  0  0
 23 24  1  0  0  0  0
 25 24  1  0  0  0  0
 25 22  1  0  0  0  0
 27 25  2  0  0  0  0
M  END
>  <MODEL>
3

>  <REMARK>
 VINA RESULT:      -8.4      3.594      5.416
  Name = 
  5 active torsions:
  status: ('A' for Active; 'I' for Inactive)
    1  A    between atoms: C_1  and  N_11
    2  A    between atoms: C_10  and  C_21
    3  A    between atoms: C_15  and  C_16
    4  A    between atoms: C_18  and  N_22
    5  A    between atoms: C_18  and  C_26
                            x       y       z     vdW  Elec       q    Type
                         _______ _______ _______ _____ _____    ______ ____

>  <TORSDO>
F 5

$$$$
=
 OpenBabel10232411433D

 27 29  0  0  1  0  0  0  0  0999 V2000
  188.5090  175.7660  142.6020 O   0  0  0  0  0  0  0  0  0  0  0  0
  188.2270  176.9610  142.8920 C   0  0  0  0  0  0  0  0  0  0  0  0
  188.0930  177.9310  141.8490 N   0  0  0  0  0  2  0  0  0  0  0  0
  189.0550  177.0730  145.2480 C   0  0  0  0  0  3  0  0  0  0  0  0
  184.9100  178.9290  144.8560 C   0  0  0  0  0  3  0  0  0  0  0  0
  188.9090  177.4290  146.6020 C   0  0  0  0  0  0  0  0  0  0  0  0
  186.7350  178.3290  146.0980 C   0  0  0  0  0  0  0  0  0  0  0  0
  185.4140  178.9840  146.2760 C   0  0  2  0  0  3  0  0  0  0  0  0
  186.8820  177.9840  144.7810 C   0  0  0  0  0  0  0  0  0  0  0  0
  187.5630  178.4340  148.3700 O   0  0  0  0  0  1  0  0  0  0  0  0
  185.7410  178.3650  144.0320 N   0  0  0  0  0  0  0  0  0  0  0  0
  188.0410  177.3460  144.3090 C   0  0  0  0  0  0  0  0  0  0  0  0
  187.7330  178.0680  147.0390 C   0  0  0  0  0  0  0  0  0  0  0  0
  190.0090  177.1220  147.5570 C   0  0  0  0  0  1  0  0  0  0  0  0
  184.6010  178.1930  147.0870 O   0  0  0  0  0  1  0  0  0  0  0  0
  188.2230  177.5970  140.4380 C   0  0  0  0  0  2  0  0  0  0  0  0
  189.9230  176.8050  138.8380 C   0  0  2  0  0  3  0  0  0  0  0  0
  189.7100  178.2810  138.5850 C   0  0  0  0  0  2  0  0  0  0  0  0
  189.6670  177.7440  140.0010 C   0  0  1  0  0  3  0  0  0  0  0  0
  191.3210  176.0700  136.4790 O   0  0  0  0  0  0  0  0  0  0  0  0
  191.3430  176.5040  138.7720 N   0  0  0  0  0  2  0  0  0  0  0  0
  191.9850  176.1390  137.5480 C   0  0  0  0  0  0  0  0  0  0  0  0
  195.3070  174.3840  138.2860 C   0  0  0  0  0  3  0  0  0  0  0  0
  193.9210  174.7160  138.2650 N   0  0  0  0  0  2  0  0  0  0  0  0
  193.4210  175.8400  137.5370 C   0  0  0  0  0  0  0  0  0  0  0  0
  195.7040  173.3860  138.9400 O   0  0  0  0  0  0  0  0  0  0  0  0
  194.2100  176.5770  136.8840 O   0  0  0  0  0  0  0  0  0  0  0  0
  1  2  2  0  0  0  0
  2 12  1  0  0  0  0
  3  2  1  0  0  0  0
  4  6  1  0  0  0  0
  5  8  1  0  0  0  0
  6 13  2  0  0  0  0
  6 14  1  0  0  0  0
  7  8  1  0  0  0  0
  7 13  1  0  0  0  0
  8 15  1  1  0  0  0
  9  7  2  0  0  0  0
 11  9  1  0  0  0  0
 11  5  2  0  0  0  0
 12  9  1  0  0  0  0
 12  4  2  0  0  0  0
 13 10  1  0  0  0  0
 16  3  1  0  0  0  0
 17 21  1  1  0  0  0
 17 19  1  0  0  0  0
 18 17  1  0  0  0  0
 18 19  1  0  0  0  0
 19 16  1  6  0  0  0
 20 22  2  0  0  0  0
 22 21  1  0  0  0  0
 23 26  2  0  0  0  0
 24 23  1  0  0  0  0
 25 22  1  0  0  0  0
 25 24  1  0  0  0  0
 27 25  2  0  0  0  0
M  END
>  <MODEL>
4

>  <REMARK>
 VINA RESULT:      -8.3      1.920      3.110
  Name = 
  5 active torsions:
  status: ('A' for Active; 'I' for Inactive)
    1  A    between atoms: C_1  and  N_11
    2  A    between atoms: C_10  and  C_21
    3  A    between atoms: C_15  and  C_16
    4  A    between atoms: C_18  and  N_22
    5  A    between atoms: C_18  and  C_26
                            x       y       z     vdW  Elec       q    Type
                         _______ _______ _______ _____ _____    ______ ____

>  <TORSDO>
F 5

$$$$
=
 OpenBabel10232411433D

 27 29  0  0  1  0  0  0  0  0999 V2000
  188.9010  175.6640  143.0630 O   0  0  0  0  0  0  0  0  0  0  0  0
  188.9290  176.8950  143.3360 C   0  0  0  0  0  0  0  0  0  0  0  0
  189.8990  177.7380  142.7060 N   0  0  0  0  0  2  0  0  0  0  0  0
  188.2350  177.3830  145.6870 C   0  0  0  0  0  3  0  0  0  0  0  0
  185.1290  178.8640  142.6970 C   0  0  0  0  0  3  0  0  0  0  0  0
  187.3360  177.9060  146.6350 C   0  0  0  0  0  0  0  0  0  0  0  0
  185.8790  178.5700  144.8390 C   0  0  0  0  0  0  0  0  0  0  0  0
  184.7140  179.1460  144.1190 C   0  0  2  0  0  3  0  0  0  0  0  0
  186.7570  178.0630  143.9200 C   0  0  0  0  0  0  0  0  0  0  0  0
  185.2330  179.0390  147.1240 O   0  0  0  0  0  1  0  0  0  0  0  0
  186.2730  178.2560  142.6020 N   0  0  0  0  0  0  0  0  0  0  0  0
  187.9620  177.4530  144.3060 C   0  0  0  0  0  0  0  0  0  0  0  0
  186.1380  178.5110  146.2090 C   0  0  0  0  0  0  0  0  0  0  0  0
  187.6680  177.8100  148.0830 C   0  0  0  0  0  1  0  0  0  0  0  0
  183.5650  178.4140  144.4200 O   0  0  0  0  0  1  0  0  0  0  0  0
  190.8440  177.2500  141.7130 C   0  0  0  0  0  2  0  0  0  0  0  0
  189.8780  177.8890  139.5360 C   0  0  2  0  0  3  0  0  0  0  0  0
  190.9780  176.8850  139.2700 C   0  0  0  0  0  2  0  0  0  0  0  0
  190.1000  176.7360  140.4960 C   0  0  1  0  0  3  0  0  0  0  0  0
  188.9520  179.5370  137.4180 O   0  0  0  0  0  0  0  0  0  0  0  0
  188.7370  177.5900  138.6880 N   0  0  0  0  0  2  0  0  0  0  0  0
  188.3230  178.4660  137.6370 C   0  0  0  0  0  0  0  0  0  0  0  0
  184.8100  177.2900  136.6730 C   0  0  0  0  0  3  0  0  0  0  0  0
  185.9650  177.6400  137.4300 N   0  0  0  0  0  2  0  0  0  0  0  0
  187.1610  178.1190  136.8110 C   0  0  0  0  0  0  0  0  0  0  0  0
  183.7780  176.8720  137.2580 O   0  0  0  0  0  0  0  0  0  0  0  0
  187.2220  178.2460  135.5580 O   0  0  0  0  0  0  0  0  0  0  0  0
  1  2  2  0  0  0  0
  2 12  1  0  0  0  0
  3  2  1  0  0  0  0
  4  6  1  0  0  0  0
  5  8  1  0  0  0  0
  6 14  1  0  0  0  0
  7 13  1  0  0  0  0
  8 15  1  1  0  0  0
  8  7  1  0  0  0  0
  9 12  1  0  0  0  0
  9  7  2  0  0  0  0
 11  5  2  0  0  0  0
 11  9  1  0  0  0  0
 12  4  2  0  0  0  0
 13  6  2  0  0  0  0
 13 10  1  0  0  0  0
 16  3  1  0  0  0  0
 17 21  1  6  0  0  0
 17 19  1  0  0  0  0
 18 17  1  0  0  0  0
 18 19  1  0  0  0  0
 19 16  1  1  0  0  0
 20 22  2  0  0  0  0
 22 21  1  0  0  0  0
 23 26  2  0  0  0  0
 23 24  1  0  0  0  0
 25 24  1  0  0  0  0
 25 22  1  0  0  0  0
 27 25  2  0  0  0  0
M  END
>  <MODEL>
5

>  <REMARK>
 VINA RESULT:      -8.3      3.003      4.712
  Name = 
  5 active torsions:
  status: ('A' for Active; 'I' for Inactive)
    1  A    between atoms: C_1  and  N_11
    2  A    between atoms: C_10  and  C_21
    3  A    between atoms: C_15  and  C_16
    4  A    between atoms: C_18  and  N_22
    5  A    between atoms: C_18  and  C_26
                            x       y       z     vdW  Elec       q    Type
                         _______ _______ _______ _____ _____    ______ ____

>  <TORSDO>
F 5

$$$$
=
 OpenBabel10232411433D

 27 29  0  0  1  0  0  0  0  0999 V2000
  185.2520  179.6150  145.8860 O   0  0  0  0  0  0  0  0  0  0  0  0
  185.1890  178.7330  144.9870 C   0  0  0  0  0  0  0  0  0  0  0  0
  186.1920  177.7140  144.9210 N   0  0  0  0  0  2  0  0  0  0  0  0
  182.7460  178.7290  144.4590 C   0  0  0  0  0  3  0  0  0  0  0  0
  185.2640  178.9350  140.6640 C   0  0  0  0  0  3  0  0  0  0  0  0
  181.6690  178.7590  143.5520 C   0  0  0  0  0  0  0  0  0  0  0  0
  183.2440  178.8530  141.7350 C   0  0  0  0  0  0  0  0  0  0  0  0
  183.7890  178.9230  140.3550 C   0  0  2  0  0  3  0  0  0  0  0  0
  184.2880  178.8260  142.6200 C   0  0  0  0  0  0  0  0  0  0  0  0
  180.8730  178.8570  141.2500 O   0  0  0  0  0  1  0  0  0  0  0  0
  185.5280  178.8790  141.9350 N   0  0  0  0  0  0  0  0  0  0  0  0
  184.0810  178.7640  144.0070 C   0  0  0  0  0  0  0  0  0  0  0  0
  181.9170  178.8230  142.1680 C   0  0  0  0  0  0  0  0  0  0  0  0
  180.2770  178.7220  144.0760 C   0  0  0  0  0  1  0  0  0  0  0  0
  183.4700  177.7550  139.6620 O   0  0  0  0  0  1  0  0  0  0  0  0
  187.2780  177.6120  145.8850 C   0  0  0  0  0  2  0  0  0  0  0  0
  189.3620  178.1470  144.6810 C   0  0  2  0  0  3  0  0  0  0  0  0
  189.7450  177.4610  145.9740 C   0  0  0  0  0  2  0  0  0  0  0  0
  188.5060  177.0190  145.2220 C   0  0  1  0  0  3  0  0  0  0  0  0
  188.8690  178.5640  141.9160 O   0  0  0  0  0  0  0  0  0  0  0  0
  190.1930  177.6410  143.6020 N   0  0  0  0  0  2  0  0  0  0  0  0
  189.8860  177.8870  142.2280 C   0  0  0  0  0  0  0  0  0  0  0  0
  190.9800  176.2110  138.9650 C   0  0  0  0  0  3  0  0  0  0  0  0
  190.1800  176.7480  140.0140 N   0  0  0  0  0  2  0  0  0  0  0  0
  190.7560  177.3500  141.1760 C   0  0  0  0  0  0  0  0  0  0  0  0
  190.4330  175.6900  137.9600 O   0  0  0  0  0  0  0  0  0  0  0  0
  192.0090  177.4200  141.3010 O   0  0  0  0  0  0  0  0  0  0  0  0
  2  1  2  0  0  0  0
  3  2  1  0  0  0  0
  3 16  1  0  0  0  0
  5 11  2  0  0  0  0
  6 14  1  0  0  0  0
  6  4  2  0  0  0  0
  7 13  2  0  0  0  0
  7  9  1  0  0  0  0
  8 15  1  6  0  0  0
  8  5  1  0  0  0  0
  8  7  1  0  0  0  0
  9 12  2  0  0  0  0
 10 13  1  0  0  0  0
 11  9  1  0  0  0  0
 12  4  1  0  0  0  0
 12  2  1  0  0  0  0
 13  6  1  0  0  0  0
 17 21  1  6  0  0  0
 17 19  1  0  0  0  0
 17 18  1  0  0  0  0
 19 16  1  1  0  0  0
 19 18  1  0  0  0  0
 20 22  2  0  0  0  0
 22 21  1  0  0  0  0
 23 24  1  0  0  0  0
 24 25  1  0  0  0  0
 25 27  2  0  0  0  0
 25 22  1  0  0  0  0
 26 23  2  0  0  0  0
M  END
>  <MODEL>
6

>  <REMARK>
 VINA RESULT:      -8.1      2.577      5.228
  Name = 
  5 active torsions:
  status: ('A' for Active; 'I' for Inactive)
    1  A    between atoms: C_1  and  N_11
    2  A    between atoms: C_10  and  C_21
    3  A    between atoms: C_15  and  C_16
    4  A    between atoms: C_18  and  N_22
    5  A    between atoms: C_18  and  C_26
                            x       y       z     vdW  Elec       q    Type
                         _______ _______ _______ _____ _____    ______ ____

>  <TORSDO>
F 5

$$$$
=
 OpenBabel10232411433D

 27 29  0  0  1  0  0  0  0  0999 V2000
  188.5540  175.7160  143.0540 O   0  0  0  0  0  0  0  0  0  0  0  0
  188.5290  176.9570  143.2790 C   0  0  0  0  0  0  0  0  0  0  0  0
  189.7070  177.7400  143.0620 N   0  0  0  0  0  2  0  0  0  0  0  0
  187.0340  177.6640  145.1530 C   0  0  0  0  0  3  0  0  0  0  0  0
  185.2540  178.7650  141.1030 C   0  0  0  0  0  3  0  0  0  0  0  0
  185.8590  178.2600  145.6500 C   0  0  0  0  0  0  0  0  0  0  0  0
  185.1670  178.7060  143.3890 C   0  0  0  0  0  0  0  0  0  0  0  0
  184.3540  179.1790  142.2390 C   0  0  2  0  0  3  0  0  0  0  0  0
  186.3120  178.1280  142.9090 C   0  0  0  0  0  0  0  0  0  0  0  0
  183.7410  179.3890  145.2210 O   0  0  0  0  0  1  0  0  0  0  0  0
  186.3440  178.1760  141.4940 N   0  0  0  0  0  0  0  0  0  0  0  0
  187.2840  177.5880  143.7680 C   0  0  0  0  0  0  0  0  0  0  0  0
  184.9090  178.7920  144.7580 C   0  0  0  0  0  0  0  0  0  0  0  0
  185.6400  178.3190  147.1210 C   0  0  0  0  0  1  0  0  0  0  0  0
  183.1630  178.4560  142.1750 O   0  0  0  0  0  1  0  0  0  0  0  0
  190.9450  177.1780  142.5420 C   0  0  0  0  0  2  0  0  0  0  0  0
  190.8680  176.5430  140.1610 C   0  0  2  0  0  3  0  0  0  0  0  0
  189.8720  177.6620  140.3670 C   0  0  0  0  0  2  0  0  0  0  0  0
  191.1830  177.6680  141.1270 C   0  0  1  0  0  3  0  0  0  0  0  0
  191.1780  174.6190  138.0960 O   0  0  0  0  0  0  0  0  0  0  0  0
  191.5920  176.7630  138.9200 N   0  0  0  0  0  2  0  0  0  0  0  0
  191.7100  175.7480  137.9200 C   0  0  0  0  0  0  0  0  0  0  0  0
  194.6130  176.6240  135.5830 C   0  0  0  0  0  3  0  0  0  0  0  0
  193.8450  176.3510  136.7510 N   0  0  0  0  0  2  0  0  0  0  0  0
  192.4560  176.0210  136.6860 C   0  0  0  0  0  0  0  0  0  0  0  0
  195.8330  176.9100  135.6850 O   0  0  0  0  0  0  0  0  0  0  0  0
  191.8670  175.9630  135.5720 O   0  0  0  0  0  0  0  0  0  0  0  0
  1  2  2  0  0  0  0
  2 12  1  0  0  0  0
  3  2  1  0  0  0  0
  4  6  1  0  0  0  0
  5 11  2  0  0  0  0
  5  8  1  0  0  0  0
  6 14  1  0  0  0  0
  7 13  1  0  0  0  0
  8 15  1  6  0  0  0
  8  7  1  0  0  0  0
  9  7  2  0  0  0  0
  9 12  1  0  0  0  0
 11  9  1  0  0  0  0
 12  4  2  0  0  0  0
 13 10  1  0  0  0  0
 13  6  2  0  0  0  0
 16  3  1  0  0  0  0
 17 21  1  6  0  0  0
 17 18  1  0  0  0  0
 17 19  1  0  0  0  0
 18 19  1  0  0  0  0
 19 16  1  1  0  0  0
 22 20  2  0  0  0  0
 22 21  1  0  0  0  0
 23 26  2  0  0  0  0
 23 24  1  0  0  0  0
 25 24  1  0  0  0  0
 25 22  1  0  0  0  0
 27 25  2  0  0  0  0
M  END
>  <MODEL>
7

>  <REMARK>
 VINA RESULT:      -8.0      1.025      2.606
  Name = 
  5 active torsions:
  status: ('A' for Active; 'I' for Inactive)
    1  A    between atoms: C_1  and  N_11
    2  A    between atoms: C_10  and  C_21
    3  A    between atoms: C_15  and  C_16
    4  A    between atoms: C_18  and  N_22
    5  A    between atoms: C_18  and  C_26
                            x       y       z     vdW  Elec       q    Type
                         _______ _______ _______ _____ _____    ______ ____

>  <TORSDO>
F 5

$$$$
=
 OpenBabel10232411433D

 27 29  0  0  1  0  0  0  0  0999 V2000
  188.4220  175.9410  142.6320 O   0  0  0  0  0  0  0  0  0  0  0  0
  188.3690  177.0950  143.1400 C   0  0  0  0  0  0  0  0  0  0  0  0
  188.2540  178.2390  142.2890 N   0  0  0  0  0  2  0  0  0  0  0  0
  187.3210  177.7780  145.3040 C   0  0  0  0  0  3  0  0  0  0  0  0
  191.5370  176.1640  145.9370 C   0  0  0  0  0  3  0  0  0  0  0  0
  187.3460  177.9370  146.7020 C   0  0  0  0  0  0  0  0  0  0  0  0
  189.5840  177.0530  146.7310 C   0  0  0  0  0  0  0  0  0  0  0  0
  190.9010  176.5870  147.2370 C   0  0  2  0  0  3  0  0  0  0  0  0
  189.5550  176.8970  145.3710 C   0  0  0  0  0  0  0  0  0  0  0  0
  188.5440  177.7130  148.8140 O   0  0  0  0  0  1  0  0  0  0  0  0
  190.7730  176.3450  144.9030 N   0  0  0  0  0  0  0  0  0  0  0  0
  188.4290  177.2510  144.6100 C   0  0  0  0  0  0  0  0  0  0  0  0
  188.4930  177.5690  147.4320 C   0  0  0  0  0  0  0  0  0  0  0  0
  186.1510  178.4960  147.3920 C   0  0  0  0  0  1  0  0  0  0  0  0
  191.6080  177.6640  147.7710 O   0  0  0  0  0  1  0  0  0  0  0  0
  188.1480  178.1390  140.8400 C   0  0  0  0  0  2  0  0  0  0  0  0
  189.3360  176.9150  139.0610 C   0  0  2  0  0  3  0  0  0  0  0  0
  189.5550  178.3920  138.8230 C   0  0  0  0  0  2  0  0  0  0  0  0
  189.5100  177.8540  140.2380 C   0  0  1  0  0  3  0  0  0  0  0  0
  189.8580  175.2250  136.8390 O   0  0  0  0  0  0  0  0  0  0  0  0
  190.5800  176.1990  138.8330 N   0  0  0  0  0  2  0  0  0  0  0  0
  190.7770  175.3630  137.6920 C   0  0  0  0  0  0  0  0  0  0  0  0
  194.5080  174.5420  137.9490 C   0  0  0  0  0  3  0  0  0  0  0  0
  193.2450  175.1860  138.0950 N   0  0  0  0  0  2  0  0  0  0  0  0
  192.0520  174.6590  137.5120 C   0  0  0  0  0  0  0  0  0  0  0  0
  195.5330  175.0400  138.4790 O   0  0  0  0  0  0  0  0  0  0  0  0
  192.0890  173.5910  136.8430 O   0  0  0  0  0  0  0  0  0  0  0  0
  1  2  2  0  0  0  0
  2 12  1  0  0  0  0
  3  2  1  0  0  0  0
  4  6  1  0  0  0  0
  5  8  1  0  0  0  0
  6 14  1  0  0  0  0
  6 13  2  0  0  0  0
  7  8  1  0  0  0  0
  7 13  1  0  0  0  0
  8 15  1  6  0  0  0
  9  7  2  0  0  0  0
 11  9  1  0  0  0  0
 11  5  2  0  0  0  0
 12  4  2  0  0  0  0
 12  9  1  0  0  0  0
 13 10  1  0  0  0  0
 16  3  1  0  0  0  0
 17 21  1  6  0  0  0
 17 19  1  0  0  0  0
 18 17  1  0  0  0  0
 18 19  1  0  0  0  0
 19 16  1  1  0  0  0
 20 22  2  0  0  0  0
 22 21  1  0  0  0  0
 23 24  1  0  0  0  0
 23 26  2  0  0  0  0
 25 22  1  0  0  0  0
 25 24  1  0  0  0  0
 27 25  2  0  0  0  0
M  END
>  <MODEL>
8

>  <REMARK>
 VINA RESULT:      -8.0      2.524      3.392
  Name = 
  5 active torsions:
  status: ('A' for Active; 'I' for Inactive)
    1  A    between atoms: C_1  and  N_11
    2  A    between atoms: C_10  and  C_21
    3  A    between atoms: C_15  and  C_16
    4  A    between atoms: C_18  and  N_22
    5  A    between atoms: C_18  and  C_26
                            x       y       z     vdW  Elec       q    Type
                         _______ _______ _______ _____ _____    ______ ____

>  <TORSDO>
F 5

$$$$
=
 OpenBabel10232411433D

 27 29  0  0  1  0  0  0  0  0999 V2000
  190.1420  175.2740  142.5980 O   0  0  0  0  0  0  0  0  0  0  0  0
  189.9700  176.4860  142.8980 C   0  0  0  0  0  0  0  0  0  0  0  0
  190.0850  177.4910  141.8860 N   0  0  0  0  0  2  0  0  0  0  0  0
  190.6380  176.7210  145.2960 C   0  0  0  0  0  3  0  0  0  0  0  0
  186.3240  178.0390  144.6370 C   0  0  0  0  0  3  0  0  0  0  0  0
  190.3690  177.0670  146.6340 C   0  0  0  0  0  0  0  0  0  0  0  0
  188.1340  177.6830  145.9920 C   0  0  0  0  0  0  0  0  0  0  0  0
  186.7320  178.1690  146.0830 C   0  0  2  0  0  3  0  0  0  0  0  0
  188.3990  177.3480  144.6910 C   0  0  0  0  0  0  0  0  0  0  0  0
  188.8070  177.9090  148.3050 O   0  0  0  0  0  1  0  0  0  0  0  0
  187.2660  177.5770  143.8720 N   0  0  0  0  0  0  0  0  0  0  0  0
  189.6540  176.8570  144.2950 C   0  0  0  0  0  0  0  0  0  0  0  0
  189.0990  177.5570  146.9920 C   0  0  0  0  0  0  0  0  0  0  0  0
  191.4410  176.9080  147.6550 C   0  0  0  0  0  1  0  0  0  0  0  0
  185.9780  177.2880  146.8590 O   0  0  0  0  0  1  0  0  0  0  0  0
  190.3500  177.1780  140.4890 C   0  0  0  0  0  2  0  0  0  0  0  0
  188.6020  178.4160  139.2700 C   0  0  2  0  0  3  0  0  0  0  0  0
  189.2540  177.4660  138.2910 C   0  0  0  0  0  2  0  0  0  0  0  0
  189.0450  177.0420  139.7300 C   0  0  1  0  0  3  0  0  0  0  0  0
  186.6760  179.1750  141.2130 O   0  0  0  0  0  0  0  0  0  0  0  0
  187.1640  178.4100  139.0630 N   0  0  0  0  0  2  0  0  0  0  0  0
  186.2480  178.8040  140.0860 C   0  0  0  0  0  0  0  0  0  0  0  0
  182.7630  179.9360  138.9780 C   0  0  0  0  0  3  0  0  0  0  0  0
  184.1610  179.9140  139.2490 N   0  0  0  0  0  2  0  0  0  0  0  0
  184.8040  178.7750  139.8270 C   0  0  0  0  0  0  0  0  0  0  0  0
  182.2370  180.9590  138.4690 O   0  0  0  0  0  0  0  0  0  0  0  0
  184.1360  177.7450  140.1150 O   0  0  0  0  0  0  0  0  0  0  0  0
  1  2  2  0  0  0  0
  2 12  1  0  0  0  0
  3  2  1  0  0  0  0
  4  6  1  0  0  0  0
  5  8  1  0  0  0  0
  6 13  2  0  0  0  0
  6 14  1  0  0  0  0
  7  8  1  0  0  0  0
  7 13  1  0  0  0  0
  8 15  1  1  0  0  0
  9  7  2  0  0  0  0
 11  5  2  0  0  0  0
 11  9  1  0  0  0  0
 12  9  1  0  0  0  0
 12  4  2  0  0  0  0
 13 10  1  0  0  0  0
 16  3  1  0  0  0  0
 17 21  1  6  0  0  0
 17 19  1  0  0  0  0
 18 17  1  0  0  0  0
 18 19  1  0  0  0  0
 19 16  1  1  0  0  0
 21 22  1  0  0  0  0
 22 20  2  0  0  0  0
 23 24  1  0  0  0  0
 24 25  1  0  0  0  0
 25 22  1  0  0  0  0
 25 27  2  0  0  0  0
 26 23  2  0  0  0  0
M  END
>  <MODEL>
9

>  <REMARK>
 VINA RESULT:      -7.9      3.534      6.245
  Name = 
  5 active torsions:
  status: ('A' for Active; 'I' for Inactive)
    1  A    between atoms: C_1  and  N_11
    2  A    between atoms: C_10  and  C_21
    3  A    between atoms: C_15  and  C_16
    4  A    between atoms: C_18  and  N_22
    5  A    between atoms: C_18  and  C_26
                            x       y       z     vdW  Elec       q    Type
                         _______ _______ _______ _____ _____    ______ ____

>  <TORSDO>
F 5

$$$$
