=
 OpenBabel10232410353D

 50 53  0  0  1  0  0  0  0  0999 V2000
  183.1460  176.9610  135.3190 O   0  0  0  0  0  0  0  0  0  0  0  0
  182.6770  178.3000  139.6790 C   0  0  0  0  0  0  0  0  0  0  0  0
  181.6730  177.2720  137.8970 C   0  0  0  0  0  0  0  0  0  0  0  0
  186.8370  177.4460  139.2110 C   0  0  0  0  0  2  0  0  0  0  0  0
  182.9460  177.5430  137.6400 C   0  0  0  0  0  0  0  0  0  0  0  0
  181.3400  177.7540  139.2760 C   0  0  2  0  0  3  0  0  0  0  0  0
  187.3140  178.3940  140.2620 C   0  0  1  0  0  3  0  0  0  0  0  0
  182.9510  179.0760  140.9300 C   0  0  0  0  0  2  0  0  0  0  0  0
  183.5590  178.1900  138.7460 N   0  0  0  0  0  0  0  0  0  0  0  0
  183.7710  178.2990  141.9670 C   0  0  1  0  0  3  0  0  0  0  0  0
  180.4100  178.7910  139.1970 O   0  0  0  0  0  1  0  0  0  0  0  0
  185.1090  177.5590  136.4360 N   0  0  0  0  0  0  0  0  0  0  0  0
  183.7070  177.2980  136.3950 C   0  0  0  0  0  0  0  0  0  0  0  0
  180.7150  176.5990  136.9740 C   0  0  0  0  0  1  0  0  0  0  0  0
  186.9910  177.5260  137.8870 C   0  0  1  0  0  3  0  0  0  0  0  0
  185.8840  176.8430  137.1900 C   0  0  0  0  0  0  0  0  0  0  0  0
  185.1440  177.8150  141.4850 C   0  0  0  0  0  2  0  0  0  0  0  0
  186.1020  178.9340  141.0450 C   0  0  0  0  0  2  0  0  0  0  0  0
  183.8800  179.0640  143.2460 C   0  0  0  0  0  0  0  0  0  0  0  0
  183.0090  179.9250  143.5330 O   0  0  0  0  0  0  0  0  0  0  0  0
  184.9160  178.8080  144.1360 O   0  0  0  0  0  1  0  0  0  0  0  0
  189.4320  177.2420  140.5990 C   0  0  0  0  0  3  0  0  0  0  0  0
  188.3320  177.7560  141.1620 C   0  0  0  0  0  0  0  0  0  0  0  0
  187.8020  176.4960  143.1060 O   0  0  0  0  0  1  0  0  0  0  0  0
  188.1430  177.7720  142.6560 C   0  0  0  0  0  2  0  0  0  0  0  0
  190.5390  176.6160  141.3890 C   0  0  0  0  0  2  0  0  0  0  0  0
  191.5670  177.6070  141.6620 N   0  0  0  0  0  2  0  0  0  0  0  0
  191.6530  177.7560  143.1060 C   0  0  0  0  0  2  0  0  0  0  0  0
  191.3740  176.4280  143.7930 C   0  0  0  0  0  2  0  0  0  0  0  0
  191.2990  176.6200  145.2990 C   0  0  0  0  0  2  0  0  0  0  0  0
  190.2450  177.6610  145.6390 C   0  0  0  0  0  2  0  0  0  0  0  0
  187.9910  177.6640  146.2610 C   0  0  0  0  0  2  0  0  0  0  0  0
  188.3360  178.0610  148.5970 C   0  0  0  0  0  2  0  0  0  0  0  0
  189.6280  177.6840  147.9000 C   0  0  0  0  0  2  0  0  0  0  0  0
  187.2540  177.9080  147.5570 C   0  0  0  0  0  2  0  0  0  0  0  0
  189.2960  177.1190  146.5990 N   0  0  0  0  0  0  0  0  0  0  0  0
  187.7620  178.6540  137.2350 C   0  0  2  0  0  3  0  0  0  0  0  0
  187.6420  178.5890  135.7190 C   0  0  0  0  0  1  0  0  0  0  0  0
  189.6160  177.4880  136.8810 C   0  0  0  0  0  1  0  0  0  0  0  0
  189.1170  178.5890  137.5780 O   0  0  0  0  0  0  0  0  0  0  0  0
  185.4840  175.5460  137.5550 O   0  0  0  0  0  0  0  0  0  0  0  0
  186.6040  174.4140  135.7200 C   0  0  0  0  0  2  0  0  0  0  0  0
  184.0970  173.0600  136.6980 C   0  0  1  0  0  3  0  0  0  0  0  0
  185.7420  173.5210  134.8210 C   0  0  0  0  0  2  0  0  0  0  0  0
  186.2080  174.3700  137.2060 C   0  0  2  0  0  3  0  0  0  0  0  0
  185.3770  173.1320  137.5450 C   0  0  0  0  0  2  0  0  0  0  0  0
  184.2790  173.5600  135.2550 C   0  0  0  0  0  2  0  0  0  0  0  0
  183.5380  171.6770  136.7210 C   0  0  0  0  0  0  0  0  0  0  0  0
  184.1860  170.6640  136.0290 O   0  0  0  0  0  0  0  0  0  0  0  0
  182.4720  171.4260  137.3450 O   0  0  0  0  0  1  0  0  0  0  0  0
  1 13  2  0  0  0  0
  2  8  1  0  0  0  0
  3  6  1  0  0  0  0
  4  7  1  0  0  0  0
  5  3  2  0  0  0  0
  5  9  1  0  0  0  0
  6 11  1  6  0  0  0
  6  2  1  0  0  0  0
  7 18  1  0  0  0  0
  7 23  1  1  0  0  0
  8 10  1  0  0  0  0
  9  2  2  0  0  0  0
 10 19  1  1  0  0  0
 12 16  2  0  0  0  0
 13 12  1  0  0  0  0
 13  5  1  0  0  0  0
 14  3  1  0  0  0  0
 15 37  1  6  0  0  0
 15  4  1  0  0  0  0
 16 41  1  0  0  0  0
 16 15  1  0  0  0  0
 17 10  1  0  0  0  0
 18 17  1  0  0  0  0
 19 20  2  0  0  0  0
 19 21  1  0  0  0  0
 22 23  2  0  0  0  0
 22 26  1  0  0  0  0
 23 25  1  0  0  0  0
 25 24  1  0  0  0  0
 26 27  1  0  0  0  0
 27 28  1  0  0  0  0
 28 29  1  0  0  0  0
 29 30  1  0  0  0  0
 30 31  1  0  0  0  0
 31 36  1  0  0  0  0
 32 36  1  0  0  0  0
 32 35  1  0  0  0  0
 34 33  1  0  0  0  0
 35 33  1  0  0  0  0
 36 34  1  0  0  0  0
 37 38  1  6  0  0  0
 37 40  1  0  0  0  0
 39 40  1  0  0  0  0
 42 45  1  0  0  0  0
 43 48  1  6  0  0  0
 43 46  1  0  0  0  0
 44 47  1  0  0  0  0
 44 42  1  0  0  0  0
 45 46  1  0  0  0  0
 45 41  1  6  0  0  0
 47 43  1  0  0  0  0
 48 50  1  0  0  0  0
 49 48  2  0  0  0  0
M  END
>  <MODEL>
1

>  <REMARK>
 VINA RESULT:      -6.8      0.000      0.000
  Name = 
  15 active torsions:
  status: ('A' for Active; 'I' for Inactive)
    1  A    between atoms: N_1  and  C_5
    2  A    between atoms: N_1  and  C_15
    3  A    between atoms: C_2  and  C_25
    4  A    between atoms: C_5  and  C_26
    5  A    between atoms: C_7  and  C_30
    6  A    between atoms: C_7  and  C_48
    7  A    between atoms: C_8  and  C_17
    8  A    between atoms: C_15  and  C_48
    9  A    between atoms: C_19  and  C_47
   10  A    between atoms: C_22  and  O_46
   11  A    between atoms: C_29  and  C_39
   12  A    between atoms: C_29  and  O_45
   13  A    between atoms: C_30  and  N_44
   14  A    between atoms: C_35  and  C_47
   15  A    between atoms: C_41  and  O_46
                            x       y       z     vdW  Elec       q    Type
                         _______ _______ _______ _____ _____    ______ ____

>  <TORSDO>
F 15

$$$$
=
 OpenBabel10232410353D

 50 53  0  0  1  0  0  0  0  0999 V2000
  183.2600  178.9490  138.5130 O   0  0  0  0  0  0  0  0  0  0  0  0
  186.6820  178.6270  141.5470 C   0  0  0  0  0  0  0  0  0  0  0  0
  184.4120  178.6670  141.2520 C   0  0  0  0  0  0  0  0  0  0  0  0
  188.2030  176.8870  137.9540 C   0  0  0  0  0  2  0  0  0  0  0  0
  185.0470  178.6470  140.0870 C   0  0  0  0  0  0  0  0  0  0  0  0
  185.4220  178.6680  142.3580 C   0  0  2  0  0  3  0  0  0  0  0  0
  189.6400  177.1980  138.2210 C   0  0  1  0  0  3  0  0  0  0  0  0
  188.0690  178.7670  142.0960 C   0  0  0  0  0  2  0  0  0  0  0  0
  186.4550  178.6330  140.2780 N   0  0  0  0  0  0  0  0  0  0  0  0
  188.8730  177.4620  142.0700 C   0  0  1  0  0  3  0  0  0  0  0  0
  185.3490  179.8740  143.0560 O   0  0  0  0  0  1  0  0  0  0  0  0
  185.3820  178.5110  137.6390 N   0  0  0  0  0  0  0  0  0  0  0  0
  184.4730  178.6860  138.7250 C   0  0  0  0  0  0  0  0  0  0  0  0
  182.9340  178.6860  141.4460 C   0  0  0  0  0  1  0  0  0  0  0  0
  187.3980  177.4110  137.0270 C   0  0  1  0  0  3  0  0  0  0  0  0
  185.9920  177.3780  137.4760 C   0  0  0  0  0  0  0  0  0  0  0  0
  189.0520  176.8320  140.6830 C   0  0  0  0  0  2  0  0  0  0  0  0
  189.7850  177.7190  139.6640 C   0  0  0  0  0  2  0  0  0  0  0  0
  190.1840  177.6270  142.7670 C   0  0  0  0  0  0  0  0  0  0  0  0
  190.8730  176.6120  143.0480 O   0  0  0  0  0  0  0  0  0  0  0  0
  190.6640  178.8930  143.0800 O   0  0  0  0  0  1  0  0  0  0  0  0
  191.8260  176.1250  138.2370 C   0  0  0  0  0  3  0  0  0  0  0  0
  190.5210  176.0120  137.9560 C   0  0  0  0  0  0  0  0  0  0  0  0
  190.1130  174.6040  136.0850 O   0  0  0  0  0  1  0  0  0  0  0  0
  189.9300  174.7180  137.4640 C   0  0  0  0  0  2  0  0  0  0  0  0
  192.8020  175.0050  138.0570 C   0  0  0  0  0  2  0  0  0  0  0  0
  194.0880  175.5370  137.6380 N   0  0  0  0  0  2  0  0  0  0  0  0
  194.7990  174.4670  136.9570 C   0  0  0  0  0  2  0  0  0  0  0  0
  193.8440  173.6650  136.0870 C   0  0  0  0  0  2  0  0  0  0  0  0
  193.9080  172.1920  136.4550 C   0  0  0  0  0  2  0  0  0  0  0  0
  195.1780  171.5700  135.8980 C   0  0  0  0  0  2  0  0  0  0  0  0
  193.6970  169.7610  135.9170 C   0  0  0  0  0  2  0  0  0  0  0  0
  194.6240  168.6480  137.8230 C   0  0  0  0  0  2  0  0  0  0  0  0
  195.5440  169.7390  137.3150 C   0  0  0  0  0  2  0  0  0  0  0  0
  193.4940  168.5740  136.8280 C   0  0  0  0  0  2  0  0  0  0  0  0
  195.1050  170.1200  135.9800 N   0  0  0  0  0  0  0  0  0  0  0  0
  187.8860  178.4380  136.0270 C   0  0  2  0  0  3  0  0  0  0  0  0
  187.0220  178.4290  134.7740 C   0  0  0  0  0  1  0  0  0  0  0  0
  189.1190  177.4590  134.4630 C   0  0  0  0  0  1  0  0  0  0  0  0
  189.2100  178.1770  135.6570 O   0  0  0  0  0  0  0  0  0  0  0  0
  185.4250  176.2060  138.0060 O   0  0  0  0  0  0  0  0  0  0  0  0
  184.8600  175.5200  135.7440 C   0  0  0  0  0  2  0  0  0  0  0  0
  182.5720  175.4310  137.7020 C   0  0  1  0  0  3  0  0  0  0  0  0
  183.3970  175.6750  135.3140 C   0  0  0  0  0  2  0  0  0  0  0  0
  185.0360  175.0900  137.2110 C   0  0  2  0  0  3  0  0  0  0  0  0
  183.7640  174.4660  137.7850 C   0  0  0  0  0  2  0  0  0  0  0  0
  182.5620  176.2970  136.4310 C   0  0  0  0  0  2  0  0  0  0  0  0
  181.2890  174.6850  137.8520 C   0  0  0  0  0  0  0  0  0  0  0  0
  180.7810  173.9700  136.7770 O   0  0  0  0  0  0  0  0  0  0  0  0
  180.6530  174.7150  138.9390 O   0  0  0  0  0  1  0  0  0  0  0  0
  1 13  2  0  0  0  0
  2  8  1  0  0  0  0
  2  6  1  0  0  0  0
  3 14  1  0  0  0  0
  3  6  1  0  0  0  0
  4  7  1  0  0  0  0
  5  9  1  0  0  0  0
  5  3  2  0  0  0  0
  6 11  1  6  0  0  0
  7 23  1  1  0  0  0
  7 18  1  0  0  0  0
  9  2  2  0  0  0  0
 10  8  1  0  0  0  0
 10 19  1  6  0  0  0
 12 13  1  0  0  0  0
 13  5  1  0  0  0  0
 15 37  1  1  0  0  0
 15 16  1  0  0  0  0
 15  4  1  0  0  0  0
 16 12  2  0  0  0  0
 16 41  1  0  0  0  0
 17 10  1  0  0  0  0
 18 17  1  0  0  0  0
 19 20  2  0  0  0  0
 19 21  1  0  0  0  0
 23 22  2  0  0  0  0
 24 25  1  0  0  0  0
 25 23  1  0  0  0  0
 26 22  1  0  0  0  0
 27 26  1  0  0  0  0
 28 27  1  0  0  0  0
 29 30  1  0  0  0  0
 29 28  1  0  0  0  0
 31 36  1  0  0  0  0
 31 30  1  0  0  0  0
 32 36  1  0  0  0  0
 32 35  1  0  0  0  0
 34 33  1  0  0  0  0
 35 33  1  0  0  0  0
 36 34  1  0  0  0  0
 37 38  1  6  0  0  0
 39 40  1  0  0  0  0
 40 37  1  0  0  0  0
 42 45  1  0  0  0  0
 43 46  1  0  0  0  0
 43 48  1  6  0  0  0
 44 42  1  0  0  0  0
 44 47  1  0  0  0  0
 45 46  1  0  0  0  0
 45 41  1  1  0  0  0
 47 43  1  0  0  0  0
 48 50  1  0  0  0  0
 49 48  2  0  0  0  0
M  END
>  <MODEL>
2

>  <REMARK>
 VINA RESULT:      -5.6      4.089      6.645
  Name = 
  15 active torsions:
  status: ('A' for Active; 'I' for Inactive)
    1  A    between atoms: N_1  and  C_5
    2  A    between atoms: N_1  and  C_15
    3  A    between atoms: C_2  and  C_25
    4  A    between atoms: C_5  and  C_26
    5  A    between atoms: C_7  and  C_30
    6  A    between atoms: C_7  and  C_48
    7  A    between atoms: C_8  and  C_17
    8  A    between atoms: C_15  and  C_48
    9  A    between atoms: C_19  and  C_47
   10  A    between atoms: C_22  and  O_46
   11  A    between atoms: C_29  and  C_39
   12  A    between atoms: C_29  and  O_45
   13  A    between atoms: C_30  and  N_44
   14  A    between atoms: C_35  and  C_47
   15  A    between atoms: C_41  and  O_46
                            x       y       z     vdW  Elec       q    Type
                         _______ _______ _______ _____ _____    ______ ____

>  <TORSDO>
F 15

$$$$
=
 OpenBabel10232410353D

 50 53  0  0  1  0  0  0  0  0999 V2000
  182.1840  177.1880  135.3220 O   0  0  0  0  0  0  0  0  0  0  0  0
  183.1270  178.3940  139.6430 C   0  0  0  0  0  0  0  0  0  0  0  0
  181.5560  177.5320  138.2190 C   0  0  0  0  0  0  0  0  0  0  0  0
  186.8690  177.1800  137.9780 C   0  0  0  0  0  2  0  0  0  0  0  0
  182.7210  177.6940  137.6070 C   0  0  0  0  0  0  0  0  0  0  0  0
  181.6840  177.9890  139.6400 C   0  0  2  0  0  3  0  0  0  0  0  0
  187.7210  178.0390  138.8550 C   0  0  1  0  0  3  0  0  0  0  0  0
  183.8260  179.0920  140.7690 C   0  0  0  0  0  2  0  0  0  0  0  0
  183.6880  178.2390  138.4930 N   0  0  0  0  0  0  0  0  0  0  0  0
  184.8280  178.2030  141.5150 C   0  0  1  0  0  3  0  0  0  0  0  0
  180.8780  179.1090  139.8460 O   0  0  0  0  0  1  0  0  0  0  0  0
  184.4350  177.5590  135.8270 N   0  0  0  0  0  0  0  0  0  0  0  0
  183.0620  177.4290  136.1920 C   0  0  0  0  0  0  0  0  0  0  0  0
  180.3100  176.9860  137.6080 C   0  0  0  0  0  1  0  0  0  0  0  0
  186.6430  177.2970  136.6680 C   0  0  1  0  0  3  0  0  0  0  0  0
  185.3200  176.7460  136.3140 C   0  0  0  0  0  0  0  0  0  0  0  0
  185.9490  177.6140  140.6490 C   0  0  0  0  0  2  0  0  0  0  0  0
  186.8460  178.6570  139.9620 C   0  0  0  0  0  2  0  0  0  0  0  0
  185.3760  178.9040  142.7150 C   0  0  0  0  0  0  0  0  0  0  0  0
  185.6770  178.2400  143.7410 O   0  0  0  0  0  1  0  0  0  0  0  0
  185.5870  180.2770  142.6970 O   0  0  0  0  0  0  0  0  0  0  0  0
  189.2260  177.4960  140.6910 C   0  0  0  0  0  3  0  0  0  0  0  0
  188.8860  177.2750  139.4140 C   0  0  0  0  0  0  0  0  0  0  0  0
  190.6430  176.8320  137.8760 O   0  0  0  0  0  1  0  0  0  0  0  0
  189.5910  176.2410  138.5780 C   0  0  0  0  0  2  0  0  0  0  0  0
  190.3400  176.7710  141.3780 C   0  0  0  0  0  2  0  0  0  0  0  0
  190.0060  176.5740  142.7790 N   0  0  0  0  0  2  0  0  0  0  0  0
  191.1780  176.0080  143.4290 C   0  0  0  0  0  2  0  0  0  0  0  0
  191.4540  176.7240  144.7420 C   0  0  0  0  0  2  0  0  0  0  0  0
  190.1480  177.1430  145.3960 C   0  0  0  0  0  2  0  0  0  0  0  0
  190.2220  176.9190  146.8970 C   0  0  0  0  0  2  0  0  0  0  0  0
  187.9630  177.2750  146.4090 C   0  0  0  0  0  2  0  0  0  0  0  0
  187.4730  178.6560  148.3020 C   0  0  0  0  0  2  0  0  0  0  0  0
  188.8130  177.9660  148.4510 C   0  0  0  0  0  2  0  0  0  0  0  0
  186.8640  178.0950  147.0420 C   0  0  0  0  0  2  0  0  0  0  0  0
  188.8850  176.8940  147.4680 N   0  0  0  0  0  0  0  0  0  0  0  0
  187.3010  178.3730  135.8310 C   0  0  2  0  0  3  0  0  0  0  0  0
  186.9250  178.2280  134.3640 C   0  0  0  0  0  1  0  0  0  0  0  0
  189.1160  177.6200  134.8010 C   0  0  0  0  0  1  0  0  0  0  0  0
  188.6940  178.3030  135.9430 O   0  0  0  0  0  0  0  0  0  0  0  0
  184.9150  175.4780  136.7670 O   0  0  0  0  0  0  0  0  0  0  0  0
  183.4230  173.5610  136.7010 C   0  0  0  0  0  2  0  0  0  0  0  0
  186.3380  172.9080  136.3130 C   0  0  1  0  0  3  0  0  0  0  0  0
  184.0220  172.1990  137.0690 C   0  0  0  0  0  2  0  0  0  0  0  0
  184.3820  174.4700  135.9130 C   0  0  2  0  0  3  0  0  0  0  0  0
  185.5230  173.6840  135.2680 C   0  0  0  0  0  2  0  0  0  0  0  0
  185.4910  172.3360  137.4620 C   0  0  0  0  0  2  0  0  0  0  0  0
  187.1420  171.8380  135.6540 C   0  0  0  0  0  0  0  0  0  0  0  0
  186.8580  171.4740  134.3460 O   0  0  0  0  0  0  0  0  0  0  0  0
  188.0610  171.2460  136.2830 O   0  0  0  0  0  1  0  0  0  0  0  0
  1 13  2  0  0  0  0
  2  8  1  0  0  0  0
  3  6  1  0  0  0  0
  4  7  1  0  0  0  0
  5  3  2  0  0  0  0
  5  9  1  0  0  0  0
  6  2  1  0  0  0  0
  6 11  1  6  0  0  0
  7 23  1  1  0  0  0
  7 18  1  0  0  0  0
  8 10  1  0  0  0  0
  9  2  2  0  0  0  0
 10 19  1  1  0  0  0
 12 13  1  0  0  0  0
 12 16  2  0  0  0  0
 13  5  1  0  0  0  0
 14  3  1  0  0  0  0
 15 37  1  1  0  0  0
 15  4  1  0  0  0  0
 16 15  1  0  0  0  0
 16 41  1  0  0  0  0
 17 10  1  0  0  0  0
 18 17  1  0  0  0  0
 19 20  1  0  0  0  0
 21 19  2  0  0  0  0
 22 26  1  0  0  0  0
 23 22  2  0  0  0  0
 24 25  1  0  0  0  0
 25 23  1  0  0  0  0
 26 27  1  0  0  0  0
 27 28  1  0  0  0  0
 28 29  1  0  0  0  0
 29 30  1  0  0  0  0
 30 31  1  0  0  0  0
 31 36  1  0  0  0  0
 32 35  1  0  0  0  0
 32 36  1  0  0  0  0
 33 34  1  0  0  0  0
 35 33  1  0  0  0  0
 36 34  1  0  0  0  0
 37 38  1  6  0  0  0
 37 40  1  0  0  0  0
 39 40  1  0  0  0  0
 42 44  1  0  0  0  0
 43 48  1  6  0  0  0
 43 47  1  0  0  0  0
 44 47  1  0  0  0  0
 45 42  1  0  0  0  0
 45 41  1  1  0  0  0
 46 45  1  0  0  0  0
 46 43  1  0  0  0  0
 48 50  1  0  0  0  0
 49 48  2  0  0  0  0
M  END
>  <MODEL>
3

>  <REMARK>
 VINA RESULT:      -5.4      1.425      2.128
  Name = 
  15 active torsions:
  status: ('A' for Active; 'I' for Inactive)
    1  A    between atoms: N_1  and  C_5
    2  A    between atoms: N_1  and  C_15
    3  A    between atoms: C_2  and  C_25
    4  A    between atoms: C_5  and  C_26
    5  A    between atoms: C_7  and  C_30
    6  A    between atoms: C_7  and  C_48
    7  A    between atoms: C_8  and  C_17
    8  A    between atoms: C_15  and  C_48
    9  A    between atoms: C_19  and  C_47
   10  A    between atoms: C_22  and  O_46
   11  A    between atoms: C_29  and  C_39
   12  A    between atoms: C_29  and  O_45
   13  A    between atoms: C_30  and  N_44
   14  A    between atoms: C_35  and  C_47
   15  A    between atoms: C_41  and  O_46
                            x       y       z     vdW  Elec       q    Type
                         _______ _______ _______ _____ _____    ______ ____

>  <TORSDO>
F 15

$$$$
=
 OpenBabel10232410353D

 50 53  0  0  1  0  0  0  0  0999 V2000
  192.9540  178.0130  139.9710 O   0  0  0  0  0  0  0  0  0  0  0  0
  192.2930  174.5210  137.0750 C   0  0  0  0  0  0  0  0  0  0  0  0
  193.6530  175.4110  138.6870 C   0  0  0  0  0  0  0  0  0  0  0  0
  188.3750  175.8820  138.1010 C   0  0  0  0  0  2  0  0  0  0  0  0
  192.5410  176.1210  138.5520 C   0  0  0  0  0  0  0  0  0  0  0  0
  193.6260  174.2720  137.7140 C   0  0  2  0  0  3  0  0  0  0  0  0
  187.7180  175.4470  136.8320 C   0  0  1  0  0  3  0  0  0  0  0  0
  191.7530  173.7850  135.8870 C   0  0  0  0  0  2  0  0  0  0  0  0
  191.7070  175.5690  137.5420 N   0  0  0  0  0  0  0  0  0  0  0  0
  190.5970  172.8380  136.2250 C   0  0  1  0  0  3  0  0  0  0  0  0
  194.6410  174.4370  136.7720 O   0  0  0  0  0  1  0  0  0  0  0  0
  190.8260  177.8430  139.0220 N   0  0  0  0  0  0  0  0  0  0  0  0
  192.1470  177.3580  139.2600 C   0  0  0  0  0  0  0  0  0  0  0  0
  194.7610  175.6870  139.6460 C   0  0  0  0  0  1  0  0  0  0  0  0
  188.6150  177.1230  138.5300 C   0  0  1  0  0  3  0  0  0  0  0  0
  189.7990  177.1530  139.4110 C   0  0  0  0  0  0  0  0  0  0  0  0
  189.3770  173.5010  136.8750 C   0  0  0  0  0  2  0  0  0  0  0  0
  188.7040  174.5870  136.0190 C   0  0  0  0  0  2  0  0  0  0  0  0
  190.2060  172.0230  135.0350 C   0  0  0  0  0  0  0  0  0  0  0  0
  189.0120  172.0340  134.6370 O   0  0  0  0  0  1  0  0  0  0  0  0
  191.1550  171.2780  134.3460 O   0  0  0  0  0  0  0  0  0  0  0  0
  185.2890  175.4330  137.0080 C   0  0  0  0  0  3  0  0  0  0  0  0
  186.4250  174.7300  137.0960 C   0  0  0  0  0  0  0  0  0  0  0  0
  186.0490  172.5520  136.2210 O   0  0  0  0  0  1  0  0  0  0  0  0
  186.4180  173.2500  137.3720 C   0  0  0  0  0  2  0  0  0  0  0  0
  183.9350  174.8270  137.2070 C   0  0  0  0  0  2  0  0  0  0  0  0
  183.2360  175.5290  138.2710 N   0  0  0  0  0  2  0  0  0  0  0  0
  183.7840  176.8750  138.3350 C   0  0  0  0  0  2  0  0  0  0  0  0
  182.6640  177.9000  138.4140 C   0  0  0  0  0  2  0  0  0  0  0  0
  182.6770  178.5920  139.7670 C   0  0  0  0  0  2  0  0  0  0  0  0
  183.8940  178.1520  140.5650 C   0  0  0  0  0  2  0  0  0  0  0  0
  185.3730  178.6750  142.2990 C   0  0  0  0  0  2  0  0  0  0  0  0
  183.7510  178.7160  144.0590 C   0  0  0  0  0  2  0  0  0  0  0  0
  183.0900  178.7070  142.6960 C   0  0  0  0  0  2  0  0  0  0  0  0
  185.2300  178.8380  143.7940 C   0  0  0  0  0  2  0  0  0  0  0  0
  184.0990  179.0390  141.6990 N   0  0  0  0  0  0  0  0  0  0  0  0
  188.1810  178.3420  137.7440 C   0  0  2  0  0  3  0  0  0  0  0  0
  186.6790  178.5550  137.8560 C   0  0  0  0  0  1  0  0  0  0  0  0
  187.3990  178.6760  135.6940 C   0  0  0  0  0  1  0  0  0  0  0  0
  188.5120  178.2010  136.3920 O   0  0  0  0  0  0  0  0  0  0  0  0
  189.9430  176.2370  140.4680 O   0  0  0  0  0  0  0  0  0  0  0  0
  188.9330  177.7940  142.0360 C   0  0  0  0  0  2  0  0  0  0  0  0
  191.3200  176.2960  143.1000 C   0  0  1  0  0  3  0  0  0  0  0  0
  189.8350  178.3540  143.1410 C   0  0  0  0  0  2  0  0  0  0  0  0
  189.2140  176.3220  141.6890 C   0  0  2  0  0  3  0  0  0  0  0  0
  189.9830  175.6040  142.7980 C   0  0  0  0  0  2  0  0  0  0  0  0
  191.2620  177.8300  142.9990 C   0  0  0  0  0  2  0  0  0  0  0  0
  191.8370  175.8660  144.4320 C   0  0  0  0  0  0  0  0  0  0  0  0
  191.7550  176.7330  145.5120 O   0  0  0  0  0  1  0  0  0  0  0  0
  192.3660  174.7320  144.5790 O   0  0  0  0  0  0  0  0  0  0  0  0
  2  9  2  0  0  0  0
  2  6  1  0  0  0  0
  3 14  1  0  0  0  0
  4 15  1  0  0  0  0
  5  3  2  0  0  0  0
  5 13  1  0  0  0  0
  6 11  1  6  0  0  0
  6  3  1  0  0  0  0
  7 23  1  1  0  0  0
  7  4  1  0  0  0  0
  8 10  1  0  0  0  0
  8  2  1  0  0  0  0
  9  5  1  0  0  0  0
 10 19  1  6  0  0  0
 10 17  1  0  0  0  0
 12 13  1  0  0  0  0
 12 16  2  0  0  0  0
 13  1  2  0  0  0  0
 15 37  1  6  0  0  0
 15 16  1  0  0  0  0
 16 41  1  0  0  0  0
 18  7  1  0  0  0  0
 18 17  1  0  0  0  0
 20 19  1  0  0  0  0
 21 19  2  0  0  0  0
 22 23  2  0  0  0  0
 22 26  1  0  0  0  0
 23 25  1  0  0  0  0
 24 25  1  0  0  0  0
 26 27  1  0  0  0  0
 27 28  1  0  0  0  0
 28 29  1  0  0  0  0
 29 30  1  0  0  0  0
 30 31  1  0  0  0  0
 31 36  1  0  0  0  0
 32 35  1  0  0  0  0
 34 33  1  0  0  0  0
 35 33  1  0  0  0  0
 36 32  1  0  0  0  0
 36 34  1  0  0  0  0
 37 38  1  6  0  0  0
 39 40  1  0  0  0  0
 40 37  1  0  0  0  0
 42 44  1  0  0  0  0
 43 48  1  1  0  0  0
 45 41  1  6  0  0  0
 45 42  1  0  0  0  0
 45 46  1  0  0  0  0
 46 43  1  0  0  0  0
 47 43  1  0  0  0  0
 47 44  1  0  0  0  0
 48 50  2  0  0  0  0
 48 49  1  0  0  0  0
M  END
>  <MODEL>
4

>  <REMARK>
 VINA RESULT:      -5.1      3.215      9.077
  Name = 
  15 active torsions:
  status: ('A' for Active; 'I' for Inactive)
    1  A    between atoms: N_1  and  C_5
    2  A    between atoms: N_1  and  C_15
    3  A    between atoms: C_2  and  C_25
    4  A    between atoms: C_5  and  C_26
    5  A    between atoms: C_7  and  C_30
    6  A    between atoms: C_7  and  C_48
    7  A    between atoms: C_8  and  C_17
    8  A    between atoms: C_15  and  C_48
    9  A    between atoms: C_19  and  C_47
   10  A    between atoms: C_22  and  O_46
   11  A    between atoms: C_29  and  C_39
   12  A    between atoms: C_29  and  O_45
   13  A    between atoms: C_30  and  N_44
   14  A    between atoms: C_35  and  C_47
   15  A    between atoms: C_41  and  O_46
                            x       y       z     vdW  Elec       q    Type
                         _______ _______ _______ _____ _____    ______ ____

>  <TORSDO>
F 15

$$$$
=
 OpenBabel10232410353D

 50 53  0  0  1  0  0  0  0  0999 V2000
  182.5850  176.3860  135.4650 O   0  0  0  0  0  0  0  0  0  0  0  0
  182.4800  177.9130  139.7870 C   0  0  0  0  0  0  0  0  0  0  0  0
  181.3930  176.6910  138.1850 C   0  0  0  0  0  0  0  0  0  0  0  0
  186.6260  177.4540  138.8610 C   0  0  0  0  0  2  0  0  0  0  0  0
  182.5930  177.0730  137.7660 C   0  0  0  0  0  0  0  0  0  0  0  0
  181.1720  177.2140  139.5710 C   0  0  2  0  0  3  0  0  0  0  0  0
  187.1170  178.5030  139.8050 C   0  0  1  0  0  3  0  0  0  0  0  0
  182.8130  178.7810  140.9610 C   0  0  0  0  0  2  0  0  0  0  0  0
  183.2560  177.8390  138.7610 N   0  0  0  0  0  0  0  0  0  0  0  0
  183.8240  178.1490  141.9250 C   0  0  1  0  0  3  0  0  0  0  0  0
  180.1340  178.1460  139.5590 O   0  0  0  0  0  1  0  0  0  0  0  0
  184.5880  177.2390  136.3120 N   0  0  0  0  0  0  0  0  0  0  0  0
  183.2270  176.8360  136.4510 C   0  0  0  0  0  0  0  0  0  0  0  0
  180.4120  175.8750  137.4140 C   0  0  0  0  0  1  0  0  0  0  0  0
  186.6180  177.4750  137.5260 C   0  0  1  0  0  3  0  0  0  0  0  0
  185.5170  176.6470  136.9970 C   0  0  0  0  0  0  0  0  0  0  0  0
  185.1760  177.7790  141.3030 C   0  0  0  0  0  2  0  0  0  0  0  0
  185.9530  178.9620  140.7040 C   0  0  0  0  0  2  0  0  0  0  0  0
  183.9970  178.9910  143.1480 C   0  0  0  0  0  0  0  0  0  0  0  0
  183.0320  179.6780  143.5720 O   0  0  0  0  0  0  0  0  0  0  0  0
  185.2030  178.9960  143.8370 O   0  0  0  0  0  1  0  0  0  0  0  0
  189.3500  177.5390  139.9370 C   0  0  0  0  0  3  0  0  0  0  0  0
  188.2930  178.0210  140.6040 C   0  0  0  0  0  0  0  0  0  0  0  0
  188.0450  176.9170  142.6940 O   0  0  0  0  0  1  0  0  0  0  0  0
  188.3020  178.1550  142.1030 C   0  0  0  0  0  2  0  0  0  0  0  0
  190.5980  177.0660  140.6130 C   0  0  0  0  0  2  0  0  0  0  0  0
  191.6550  176.8980  139.6290 N   0  0  0  0  0  2  0  0  0  0  0  0
  191.0180  176.5750  138.3610 C   0  0  0  0  0  2  0  0  0  0  0  0
  191.4410  175.1910  137.8940 C   0  0  0  0  0  2  0  0  0  0  0  0
  192.3400  175.2990  136.6730 C   0  0  0  0  0  2  0  0  0  0  0  0
  193.7420  175.7050  137.0930 C   0  0  0  0  0  2  0  0  0  0  0  0
  195.0780  174.3670  138.4680 C   0  0  0  0  0  2  0  0  0  0  0  0
  197.0210  174.3640  137.0690 C   0  0  0  0  0  2  0  0  0  0  0  0
  195.8090  174.9000  136.3350 C   0  0  0  0  0  2  0  0  0  0  0  0
  196.5090  173.8890  138.4060 C   0  0  0  0  0  2  0  0  0  0  0  0
  194.6200  174.5460  137.0990 N   0  0  0  0  0  0  0  0  0  0  0  0
  187.1850  178.6370  136.7380 C   0  0  2  0  0  3  0  0  0  0  0  0
  186.9070  178.4710  135.2510 C   0  0  0  0  0  1  0  0  0  0  0  0
  189.1270  177.9900  135.8830 C   0  0  0  0  0  1  0  0  0  0  0  0
  188.5680  178.7320  136.9250 O   0  0  0  0  0  0  0  0  0  0  0  0
  185.3010  175.3380  137.4640 O   0  0  0  0  0  0  0  0  0  0  0  0
  186.7640  174.4620  135.7330 C   0  0  0  0  0  2  0  0  0  0  0  0
  184.1890  172.9420  136.1020 C   0  0  1  0  0  3  0  0  0  0  0  0
  186.1050  173.6640  134.6020 C   0  0  0  0  0  2  0  0  0  0  0  0
  186.1250  174.2310  137.1130 C   0  0  2  0  0  3  0  0  0  0  0  0
  185.3030  172.9420  137.1600 C   0  0  0  0  0  2  0  0  0  0  0  0
  184.5900  173.6150  134.7790 C   0  0  0  0  0  2  0  0  0  0  0  0
  183.6950  171.5540  135.8690 C   0  0  0  0  0  0  0  0  0  0  0  0
  183.3540  170.7570  136.9520 O   0  0  0  0  0  1  0  0  0  0  0  0
  183.6070  171.0920  134.7000 O   0  0  0  0  0  0  0  0  0  0  0  0
  1 13  2  0  0  0  0
  2  8  1  0  0  0  0
  3  6  1  0  0  0  0
  4  7  1  0  0  0  0
  5  3  2  0  0  0  0
  5  9  1  0  0  0  0
  6 11  1  6  0  0  0
  6  2  1  0  0  0  0
  7 23  1  1  0  0  0
  7 18  1  0  0  0  0
  8 10  1  0  0  0  0
  9  2  2  0  0  0  0
 10 19  1  1  0  0  0
 12 13  1  0  0  0  0
 12 16  2  0  0  0  0
 13  5  1  0  0  0  0
 14  3  1  0  0  0  0
 15 37  1  1  0  0  0
 15  4  1  0  0  0  0
 16 41  1  0  0  0  0
 16 15  1  0  0  0  0
 17 10  1  0  0  0  0
 18 17  1  0  0  0  0
 19 20  2  0  0  0  0
 19 21  1  0  0  0  0
 22 23  2  0  0  0  0
 22 26  1  0  0  0  0
 23 25  1  0  0  0  0
 25 24  1  0  0  0  0
 27 26  1  0  0  0  0
 28 27  1  0  0  0  0
 29 28  1  0  0  0  0
 30 31  1  0  0  0  0
 30 29  1  0  0  0  0
 31 36  1  0  0  0  0
 33 35  1  0  0  0  0
 34 33  1  0  0  0  0
 34 36  1  0  0  0  0
 35 32  1  0  0  0  0
 36 32  1  0  0  0  0
 37 38  1  6  0  0  0
 37 40  1  0  0  0  0
 39 40  1  0  0  0  0
 42 45  1  0  0  0  0
 43 48  1  6  0  0  0
 43 46  1  0  0  0  0
 44 47  1  0  0  0  0
 44 42  1  0  0  0  0
 45 46  1  0  0  0  0
 45 41  1  6  0  0  0
 47 43  1  0  0  0  0
 48 49  1  0  0  0  0
 50 48  2  0  0  0  0
M  END
>  <MODEL>
5

>  <REMARK>
 VINA RESULT:      -5.1      2.472      4.669
  Name = 
  15 active torsions:
  status: ('A' for Active; 'I' for Inactive)
    1  A    between atoms: N_1  and  C_5
    2  A    between atoms: N_1  and  C_15
    3  A    between atoms: C_2  and  C_25
    4  A    between atoms: C_5  and  C_26
    5  A    between atoms: C_7  and  C_30
    6  A    between atoms: C_7  and  C_48
    7  A    between atoms: C_8  and  C_17
    8  A    between atoms: C_15  and  C_48
    9  A    between atoms: C_19  and  C_47
   10  A    between atoms: C_22  and  O_46
   11  A    between atoms: C_29  and  C_39
   12  A    between atoms: C_29  and  O_45
   13  A    between atoms: C_30  and  N_44
   14  A    between atoms: C_35  and  C_47
   15  A    between atoms: C_41  and  O_46
                            x       y       z     vdW  Elec       q    Type
                         _______ _______ _______ _____ _____    ______ ____

>  <TORSDO>
F 15

$$$$
=
 OpenBabel10232410353D

 50 53  0  0  1  0  0  0  0  0999 V2000
  193.0230  176.5370  135.8390 O   0  0  0  0  0  0  0  0  0  0  0  0
  190.8620  172.5120  135.4540 C   0  0  0  0  0  0  0  0  0  0  0  0
  192.8190  173.5640  136.0060 C   0  0  0  0  0  0  0  0  0  0  0  0
  187.8080  175.3320  136.4400 C   0  0  0  0  0  2  0  0  0  0  0  0
  191.8540  174.4420  135.7650 C   0  0  0  0  0  0  0  0  0  0  0  0
  192.2790  172.1800  135.8150 C   0  0  2  0  0  3  0  0  0  0  0  0
  186.6910  174.5980  135.7740 C   0  0  1  0  0  3  0  0  0  0  0  0
  189.8360  171.5260  134.9860 C   0  0  0  0  0  2  0  0  0  0  0  0
  190.6460  173.7820  135.4120 N   0  0  0  0  0  0  0  0  0  0  0  0
  188.7380  171.2480  136.0190 C   0  0  1  0  0  3  0  0  0  0  0  0
  192.9140  171.5750  134.7310 O   0  0  0  0  0  1  0  0  0  0  0  0
  190.6980  176.6260  135.6200 N   0  0  0  0  0  0  0  0  0  0  0  0
  191.9270  175.9190  135.7800 C   0  0  0  0  0  0  0  0  0  0  0  0
  194.2200  173.8860  136.4020 C   0  0  0  0  0  1  0  0  0  0  0  0
  188.3710  176.4890  136.0840 C   0  0  1  0  0  3  0  0  0  0  0  0
  189.7770  176.5460  136.5300 C   0  0  0  0  0  0  0  0  0  0  0  0
  187.9390  172.4770  136.4700 C   0  0  0  0  0  2  0  0  0  0  0  0
  187.1870  173.2040  135.3440 C   0  0  0  0  0  2  0  0  0  0  0  0
  187.8360  170.1490  135.5590 C   0  0  0  0  0  0  0  0  0  0  0  0
  186.7020  170.4280  135.0890 O   0  0  0  0  0  0  0  0  0  0  0  0
  188.2510  168.8240  135.6160 O   0  0  0  0  0  1  0  0  0  0  0  0
  184.9210  175.6700  137.0570 C   0  0  0  0  0  3  0  0  0  0  0  0
  185.4770  174.5200  136.6540 C   0  0  0  0  0  0  0  0  0  0  0  0
  185.2180  172.8280  138.3020 O   0  0  0  0  0  1  0  0  0  0  0  0
  184.8710  173.1870  136.9990 C   0  0  0  0  0  2  0  0  0  0  0  0
  183.6860  175.7290  137.9010 C   0  0  0  0  0  2  0  0  0  0  0  0
  183.1460  177.0780  137.8850 N   0  0  0  0  0  2  0  0  0  0  0  0
  183.9200  177.8660  138.8320 C   0  0  0  0  0  2  0  0  0  0  0  0
  183.0800  178.2020  140.0540 C   0  0  0  0  0  2  0  0  0  0  0  0
  183.8740  177.9480  141.3250 C   0  0  0  0  0  2  0  0  0  0  0  0
  183.2510  178.7020  142.4870 C   0  0  0  0  0  2  0  0  0  0  0  0
  185.3520  178.1950  143.3790 C   0  0  0  0  0  2  0  0  0  0  0  0
  184.8070  178.6280  145.6690 C   0  0  0  0  0  2  0  0  0  0  0  0
  183.7400  179.1580  144.7350 C   0  0  0  0  0  2  0  0  0  0  0  0
  185.9170  178.1300  144.7780 C   0  0  0  0  0  2  0  0  0  0  0  0
  184.2880  179.1860  143.3860 N   0  0  0  0  0  0  0  0  0  0  0  0
  187.8860  177.2850  134.8910 C   0  0  2  0  0  3  0  0  0  0  0  0
  188.9630  178.2430  134.4030 C   0  0  0  0  0  1  0  0  0  0  0  0
  187.1760  178.9410  136.1860 C   0  0  0  0  0  1  0  0  0  0  0  0
  186.7470  178.0260  135.2220 O   0  0  0  0  0  0  0  0  0  0  0  0
  190.1370  176.2160  137.8480 O   0  0  0  0  0  0  0  0  0  0  0  0
  191.3250  176.3680  139.9630 C   0  0  0  0  0  2  0  0  0  0  0  0
  188.6020  177.6580  139.9450 C   0  0  1  0  0  3  0  0  0  0  0  0
  190.4760  176.5250  141.2290 C   0  0  0  0  0  2  0  0  0  0  0  0
  190.7700  177.1250  138.7430 C   0  0  2  0  0  3  0  0  0  0  0  0
  189.7860  178.2230  139.1450 C   0  0  0  0  0  2  0  0  0  0  0  0
  188.9860  176.5100  140.8940 C   0  0  0  0  0  2  0  0  0  0  0  0
  187.9050  178.7520  140.6820 C   0  0  0  0  0  0  0  0  0  0  0  0
  188.5510  179.3940  141.7290 O   0  0  0  0  0  1  0  0  0  0  0  0
  186.7280  179.0830  140.3770 O   0  0  0  0  0  0  0  0  0  0  0  0
  2  6  1  0  0  0  0
  3 14  1  0  0  0  0
  5 13  1  0  0  0  0
  5  3  2  0  0  0  0
  6 11  1  6  0  0  0
  6  3  1  0  0  0  0
  7  4  1  0  0  0  0
  7 23  1  1  0  0  0
  8  2  1  0  0  0  0
  8 10  1  0  0  0  0
  9  2  2  0  0  0  0
  9  5  1  0  0  0  0
 10 19  1  6  0  0  0
 10 17  1  0  0  0  0
 12 13  1  0  0  0  0
 12 16  2  0  0  0  0
 13  1  2  0  0  0  0
 15 37  1  6  0  0  0
 15  4  1  0  0  0  0
 15 16  1  0  0  0  0
 16 41  1  0  0  0  0
 18  7  1  0  0  0  0
 18 17  1  0  0  0  0
 19 21  1  0  0  0  0
 20 19  2  0  0  0  0
 22 26  1  0  0  0  0
 23 25  1  0  0  0  0
 23 22  2  0  0  0  0
 25 24  1  0  0  0  0
 27 26  1  0  0  0  0
 27 28  1  0  0  0  0
 28 29  1  0  0  0  0
 29 30  1  0  0  0  0
 30 31  1  0  0  0  0
 31 36  1  0  0  0  0
 32 36  1  0  0  0  0
 32 35  1  0  0  0  0
 34 33  1  0  0  0  0
 35 33  1  0  0  0  0
 36 34  1  0  0  0  0
 37 38  1  1  0  0  0
 37 40  1  0  0  0  0
 40 39  1  0  0  0  0
 42 44  1  0  0  0  0
 43 48  1  1  0  0  0
 43 47  1  0  0  0  0
 45 41  1  6  0  0  0
 45 46  1  0  0  0  0
 45 42  1  0  0  0  0
 46 43  1  0  0  0  0
 47 44  1  0  0  0  0
 48 49  1  0  0  0  0
 50 48  2  0  0  0  0
M  END
>  <MODEL>
6

>  <REMARK>
 VINA RESULT:      -4.2      3.275      8.477
  Name = 
  15 active torsions:
  status: ('A' for Active; 'I' for Inactive)
    1  A    between atoms: N_1  and  C_5
    2  A    between atoms: N_1  and  C_15
    3  A    between atoms: C_2  and  C_25
    4  A    between atoms: C_5  and  C_26
    5  A    between atoms: C_7  and  C_30
    6  A    between atoms: C_7  and  C_48
    7  A    between atoms: C_8  and  C_17
    8  A    between atoms: C_15  and  C_48
    9  A    between atoms: C_19  and  C_47
   10  A    between atoms: C_22  and  O_46
   11  A    between atoms: C_29  and  C_39
   12  A    between atoms: C_29  and  O_45
   13  A    between atoms: C_30  and  N_44
   14  A    between atoms: C_35  and  C_47
   15  A    between atoms: C_41  and  O_46
                            x       y       z     vdW  Elec       q    Type
                         _______ _______ _______ _____ _____    ______ ____

>  <TORSDO>
F 15

$$$$
