=
 OpenBabel10232410093D

 62 66  0  0  1  0  0  0  0  0999 V2000
  184.7850  178.5730  139.7200 C   0  0  0  0  0  0  0  0  0  0  0  0
  183.8890  177.4910  137.5160 C   0  0  0  0  0  3  0  0  0  0  0  0
  184.3190  178.0320  138.6270 C   0  0  0  0  0  0  0  0  0  0  0  0
  182.4940  178.2180  140.6380 C   0  0  0  0  0  1  0  0  0  0  0  0
  183.8460  178.8840  140.8460 C   0  0  1  0  0  3  0  0  0  0  0  0
  184.4270  178.5160  142.1830 C   0  0  0  0  0  0  0  0  0  0  0  0
  185.0900  177.4970  142.3110 O   0  0  0  0  0  0  0  0  0  0  0  0
  184.1340  179.3470  143.3910 C   0  0  1  0  0  3  0  0  0  0  0  0
  183.1050  178.7770  144.1400 O   0  0  0  0  0  1  0  0  0  0  0  0
  185.3900  179.4800  144.2380 C   0  0  0  0  0  2  0  0  0  0  0  0
  185.4210  178.4580  145.3700 C   0  0  0  0  0  2  0  0  0  0  0  0
  191.3150  176.5980  144.2550 C   0  0  1  0  0  3  0  0  0  0  0  0
  188.5760  177.6350  147.3660 C   0  0  0  0  0  0  0  0  0  0  0  0
  190.8990  176.8810  146.5370 C   0  0  2  0  0  3  0  0  0  0  0  0
  188.9830  177.1500  144.9870 C   0  0  1  0  0  3  0  0  0  0  0  0
  187.1800  177.9480  147.0230 C   0  0  0  0  0  3  0  0  0  0  0  0
  188.8890  177.4180  148.5660 O   0  0  0  0  0  0  0  0  0  0  0  0
  189.9630  177.2170  143.8160 C   0  0  0  0  0  0  0  0  0  0  0  0
  191.8380  177.0650  145.4890 O   0  0  0  0  0  0  0  0  0  0  0  0
  189.3910  176.4770  142.6180 C   0  0  0  0  0  1  0  0  0  0  0  0
  190.2050  178.6620  143.4070 C   0  0  0  0  0  1  0  0  0  0  0  0
  186.8140  178.0500  145.7380 C   0  0  0  0  0  0  0  0  0  0  0  0
  189.6180  177.6860  146.2710 C   0  0  1  0  0  3  0  0  0  0  0  0
  191.4850  177.2920  147.7380 O   0  0  0  0  0  1  0  0  0  0  0  0
  187.7460  177.8130  144.7170 O   0  0  0  0  0  0  0  0  0  0  0  0
  192.1920  174.6580  145.1200 C   0  0  0  0  0  1  0  0  0  0  0  0
  191.5210  175.2180  144.0220 O   0  0  0  0  0  0  0  0  0  0  0  0
  186.2630  178.7580  139.8760 C   0  0  0  0  0  2  0  0  0  0  0  0
  187.0280  177.8950  138.8800 C   0  0  0  0  0  2  0  0  0  0  0  0
  188.5030  178.2570  138.8990 C   0  0  0  0  0  2  0  0  0  0  0  0
  189.3430  177.0370  139.2420 C   0  0  0  0  0  2  0  0  0  0  0  0
  190.7830  174.8710  138.0590 O   0  0  0  0  0  0  0  0  0  0  0  0
  190.6560  177.1370  138.6200 N   0  0  0  0  0  2  0  0  0  0  0  0
  191.3190  176.0110  138.0330 C   0  0  0  0  0  0  0  0  0  0  0  0
  193.6440  176.4210  138.1010 O   0  0  0  0  0  1  0  0  0  0  0  0
  192.7600  176.0820  136.0190 O   0  0  0  0  0  0  0  0  0  0  0  0
  192.6300  176.1870  137.3980 C   0  0  0  0  0  0  0  0  0  0  0  0
  184.6400  176.4170  136.7730 C   0  0  2  0  0  3  0  0  0  0  0  0
  183.8090  177.4650  134.7730 O   0  0  0  0  0  1  0  0  0  0  0  0
  184.9440  176.8840  135.3470 C   0  0  1  0  0  3  0  0  0  0  0  0
  186.1100  177.8380  135.2880 C   0  0  0  0  0  3  0  0  0  0  0  0
  187.3650  177.4450  135.0340 C   0  0  0  0  0  3  0  0  0  0  0  0
  187.7360  176.0170  134.7770 C   0  0  0  0  0  2  0  0  0  0  0  0
  188.1870  175.3600  136.0690 C   0  0  0  0  0  2  0  0  0  0  0  0
  188.2760  172.8830  136.1840 C   0  0  0  0  0  0  0  0  0  0  0  0
  187.2920  173.3320  135.0900 C   0  0  0  0  0  2  0  0  0  0  0  0
  187.8760  172.2690  137.3730 O   0  0  0  0  0  0  0  0  0  0  0  0
  187.3600  174.1170  136.3170 C   0  0  2  0  0  3  0  0  0  0  0  0
  187.8280  171.5650  136.2650 O   0  0  0  0  0  0  0  0  0  0  0  0
  183.9490  175.0480  136.8150 C   0  0  0  0  0  2  0  0  0  0  0  0
  182.8330  175.0240  137.8420 C   0  0  0  0  0  2  0  0  0  0  0  0
  181.6690  174.2030  137.3110 C   0  0  0  0  0  2  0  0  0  0  0  0
  181.0290  174.8570  136.0910 C   0  0  0  0  0  2  0  0  0  0  0  0
  180.6520  173.8240  135.0410 C   0  0  0  0  0  2  0  0  0  0  0  0
  180.2020  172.5390  135.7140 C   0  0  0  0  0  2  0  0  0  0  0  0
  180.5830  171.4150  134.9260 O   0  0  0  0  0  0  0  0  0  0  0  0
  183.8340  168.9160  135.8410 C   0  0  0  0  0  3  0  0  0  0  0  0
  183.8670  170.2590  136.2290 C   0  0  0  0  0  3  0  0  0  0  0  0
  182.7210  168.4110  135.1640 C   0  0  0  0  0  3  0  0  0  0  0  0
  181.6720  170.5960  135.2440 C   0  0  0  0  0  0  0  0  0  0  0  0
  182.7900  171.0980  135.9320 C   0  0  0  0  0  3  0  0  0  0  0  0
  181.6420  169.2490  134.8680 C   0  0  0  0  0  3  0  0  0  0  0  0
  1 28  1  0  0  0  0
  1  5  1  0  0  0  0
  2  3  2  0  0  0  0
  3  1  2  0  0  0  0
  5  4  1  6  0  0  0
  5  6  1  0  0  0  0
  6  7  2  0  0  0  0
  6  8  1  0  0  0  0
  8  9  1  1  0  0  0
  8 10  1  0  0  0  0
 10 11  1  0  0  0  0
 11 22  1  0  0  0  0
 12 27  1  1  0  0  0
 12 19  1  0  0  0  0
 13 17  2  0  0  0  0
 14 24  1  1  0  0  0
 15 25  1  6  0  0  0
 15 23  1  0  0  0  0
 16 13  1  0  0  0  0
 18 12  1  0  0  0  0
 18 15  1  0  0  0  0
 19 14  1  0  0  0  0
 20 18  1  0  0  0  0
 21 18  1  0  0  0  0
 22 16  2  0  0  0  0
 23 14  1  0  0  0  0
 23 13  1  1  0  0  0
 25 22  1  0  0  0  0
 27 26  1  0  0  0  0
 29 30  1  0  0  0  0
 29 28  1  0  0  0  0
 30 31  1  0  0  0  0
 33 31  1  0  0  0  0
 34 32  2  0  0  0  0
 34 33  1  0  0  0  0
 36 37  2  0  0  0  0
 37 34  1  0  0  0  0
 37 35  1  0  0  0  0
 38 50  1  6  0  0  0
 38  2  1  0  0  0  0
 40 39  1  1  0  0  0
 40 38  1  0  0  0  0
 41 40  1  0  0  0  0
 42 41  2  0  0  0  0
 43 42  1  0  0  0  0
 43 44  1  0  0  0  0
 45 49  1  0  0  0  0
 45 48  1  0  0  0  0
 45 47  1  0  0  0  0
 46 45  1  0  0  0  0
 46 48  1  0  0  0  0
 48 44  1  6  0  0  0
 49 47  1  0  0  0  0
 50 51  1  0  0  0  0
 52 51  1  0  0  0  0
 53 52  1  0  0  0  0
 54 55  1  0  0  0  0
 54 53  1  0  0  0  0
 56 60  1  0  0  0  0
 56 55  1  0  0  0  0
 57 58  1  0  0  0  0
 59 57  2  0  0  0  0
 60 61  1  0  0  0  0
 61 58  2  0  0  0  0
 62 59  1  0  0  0  0
 62 60  2  0  0  0  0
M  END
>  <MODEL>
1

>  <REMARK>
 VINA RESULT:      -6.5      0.000      0.000
  Name = 
  27 active torsions:
  status: ('A' for Active; 'I' for Inactive)
    1  A    between atoms: C_2  and  O_51
    2  A    between atoms: C_3  and  C_13
    3  A    between atoms: C_3  and  C_16
    4  A    between atoms: C_5  and  C_62
    5  A    between atoms: C_6  and  C_21
    6  A    between atoms: C_6  and  C_53
    7  A    between atoms: O_7  and  C_27
    8  A    between atoms: O_7  and  C_35
    9  A    between atoms: C_9  and  C_12
   10  A    between atoms: C_9  and  C_36
   11  A    between atoms: C_12  and  C_45
   12  A    between atoms: C_12  and  C_62
   13  A    between atoms: C_13  and  C_40
   14  A    between atoms: C_15  and  C_21
   15  A    between atoms: C_15  and  C_30
   16  A    between atoms: C_16  and  C_28
   17  A    between atoms: C_24  and  C_50
   18  A    between atoms: C_24  and  C_54
   19  A    between atoms: C_27  and  C_50
   20  A    between atoms: C_28  and  C_53
   21  A    between atoms: C_30  and  C_47
   22  A    between atoms: N_31  and  C_40
   23  A    between atoms: C_34  and  C_57
   24  A    between atoms: C_36  and  C_54
   25  A    between atoms: C_41  and  C_44
   26  A    between atoms: C_49  and  C_55
   27  A    between atoms: C_49  and  C_57
                            x       y       z     vdW  Elec       q    Type
                         _______ _______ _______ _____ _____    ______ ____

>  <TORSDO>
F 27

$$$$
=
 OpenBabel10232410093D

 62 66  0  0  1  0  0  0  0  0999 V2000
  189.9520  175.7670  136.0110 C   0  0  0  0  0  0  0  0  0  0  0  0
  188.3690  173.8200  135.2820 C   0  0  0  0  0  3  0  0  0  0  0  0
  189.1460  174.8070  135.6450 C   0  0  0  0  0  0  0  0  0  0  0  0
  188.6130  177.5160  134.8440 C   0  0  0  0  0  1  0  0  0  0  0  0
  189.4420  177.1750  136.0730 C   0  0  1  0  0  3  0  0  0  0  0  0
  188.6670  177.4390  137.3340 C   0  0  0  0  0  0  0  0  0  0  0  0
  187.4670  177.2130  137.3830 O   0  0  0  0  0  0  0  0  0  0  0  0
  189.3370  178.0590  138.5190 C   0  0  1  0  0  3  0  0  0  0  0  0
  188.9530  179.3920  138.6570 O   0  0  0  0  0  1  0  0  0  0  0  0
  188.9830  177.2770  139.7740 C   0  0  0  0  0  2  0  0  0  0  0  0
  187.8650  177.9480  140.5640 C   0  0  0  0  0  2  0  0  0  0  0  0
  191.0260  177.1030  145.9240 C   0  0  1  0  0  3  0  0  0  0  0  0
  187.1090  177.6190  144.2970 C   0  0  0  0  0  0  0  0  0  0  0  0
  188.7220  177.2720  146.2790 C   0  0  2  0  0  3  0  0  0  0  0  0
  189.5150  177.2510  143.9310 C   0  0  1  0  0  3  0  0  0  0  0  0
  186.9390  177.7040  142.8390 C   0  0  0  0  0  3  0  0  0  0  0  0
  186.1030  177.4340  145.0310 O   0  0  0  0  0  0  0  0  0  0  0  0
  190.9390  177.4990  144.4280 C   0  0  0  0  0  0  0  0  0  0  0  0
  190.0080  177.6260  146.7640 O   0  0  0  0  0  0  0  0  0  0  0  0
  191.9270  176.6980  143.5960 C   0  0  0  0  0  1  0  0  0  0  0  0
  191.2980  178.9720  144.2980 C   0  0  0  0  0  1  0  0  0  0  0  0
  188.0160  177.7680  142.0430 C   0  0  0  0  0  0  0  0  0  0  0  0
  188.4830  177.8600  144.8800 C   0  0  1  0  0  3  0  0  0  0  0  0
  187.7610  177.7520  147.1740 O   0  0  0  0  0  1  0  0  0  0  0  0
  189.3050  177.7060  142.5930 O   0  0  0  0  0  0  0  0  0  0  0  0
  192.0910  175.7770  147.4700 C   0  0  0  0  0  1  0  0  0  0  0  0
  191.4150  175.7810  146.2410 O   0  0  0  0  0  0  0  0  0  0  0  0
  191.3340  175.4280  136.4800 C   0  0  0  0  0  2  0  0  0  0  0  0
  192.3850  176.0100  135.5440 C   0  0  0  0  0  2  0  0  0  0  0  0
  193.6550  176.3290  136.3150 C   0  0  0  0  0  2  0  0  0  0  0  0
  194.1340  175.1040  137.0760 C   0  0  0  0  0  2  0  0  0  0  0  0
  195.6350  173.9420  139.2120 O   0  0  0  0  0  0  0  0  0  0  0  0
  195.5860  175.1190  137.1930 N   0  0  0  0  0  2  0  0  0  0  0  0
  196.2780  174.5050  138.2870 C   0  0  0  0  0  0  0  0  0  0  0  0
  198.3400  175.4680  138.9220 O   0  0  0  0  0  1  0  0  0  0  0  0
  198.4820  173.5220  137.7270 O   0  0  0  0  0  0  0  0  0  0  0  0
  197.7440  174.5340  138.3290 C   0  0  0  0  0  0  0  0  0  0  0  0
  188.3890  172.4650  135.9410 C   0  0  2  0  0  3  0  0  0  0  0  0
  188.9600  170.4650  134.7320 O   0  0  0  0  0  1  0  0  0  0  0  0
  189.5010  171.6050  135.3340 C   0  0  1  0  0  3  0  0  0  0  0  0
  190.3490  172.3680  134.3480 C   0  0  0  0  0  3  0  0  0  0  0  0
  191.6790  172.4810  134.4590 C   0  0  0  0  0  3  0  0  0  0  0  0
  192.4600  171.8530  135.5730 C   0  0  0  0  0  2  0  0  0  0  0  0
  193.5710  170.9910  135.0010 C   0  0  0  0  0  2  0  0  0  0  0  0
  195.4440  171.2020  136.6140 C   0  0  0  0  0  0  0  0  0  0  0  0
  195.6570  169.9780  135.7070 C   0  0  0  0  0  2  0  0  0  0  0  0
  195.1480  171.1060  137.9760 O   0  0  0  0  0  0  0  0  0  0  0  0
  194.2970  170.2920  136.1310 C   0  0  2  0  0  3  0  0  0  0  0  0
  196.3740  170.8370  137.5870 O   0  0  0  0  0  0  0  0  0  0  0  0
  187.0250  171.7630  135.9340 C   0  0  0  0  0  2  0  0  0  0  0  0
  185.9410  172.6680  135.3800 C   0  0  0  0  0  2  0  0  0  0  0  0
  184.6890  172.5440  136.2330 C   0  0  0  0  0  2  0  0  0  0  0  0
  184.3600  173.8520  136.9450 C   0  0  0  0  0  2  0  0  0  0  0  0
  183.0960  174.4860  136.3880 C   0  0  0  0  0  2  0  0  0  0  0  0
  182.2720  175.0800  137.5160 C   0  0  0  0  0  2  0  0  0  0  0  0
  183.1210  175.4660  138.5930 O   0  0  0  0  0  0  0  0  0  0  0  0
  183.5080  179.4530  139.8620 C   0  0  0  0  0  3  0  0  0  0  0  0
  182.5280  178.6380  140.4380 C   0  0  0  0  0  3  0  0  0  0  0  0
  184.3570  178.9370  138.8790 C   0  0  0  0  0  3  0  0  0  0  0  0
  183.2390  176.7890  139.0320 C   0  0  0  0  0  0  0  0  0  0  0  0
  182.3930  177.3110  140.0250 C   0  0  0  0  0  3  0  0  0  0  0  0
  184.2240  177.6070  138.4670 C   0  0  0  0  0  3  0  0  0  0  0  0
  1  5  1  0  0  0  0
  1 28  1  0  0  0  0
  2  3  2  0  0  0  0
  3  1  2  0  0  0  0
  5  4  1  6  0  0  0
  5  6  1  0  0  0  0
  6  7  2  0  0  0  0
  6  8  1  0  0  0  0
  8  9  1  1  0  0  0
  8 10  1  0  0  0  0
 10 11  1  0  0  0  0
 11 22  1  0  0  0  0
 12 27  1  6  0  0  0
 12 19  1  0  0  0  0
 13 17  2  0  0  0  0
 14 19  1  0  0  0  0
 14 24  1  1  0  0  0
 15 25  1  6  0  0  0
 15 18  1  0  0  0  0
 15 23  1  0  0  0  0
 16 13  1  0  0  0  0
 18 12  1  0  0  0  0
 20 18  1  0  0  0  0
 21 18  1  0  0  0  0
 22 25  1  0  0  0  0
 22 16  2  0  0  0  0
 23 13  1  6  0  0  0
 23 14  1  0  0  0  0
 27 26  1  0  0  0  0
 29 30  1  0  0  0  0
 29 28  1  0  0  0  0
 30 31  1  0  0  0  0
 31 33  1  0  0  0  0
 33 34  1  0  0  0  0
 34 37  1  0  0  0  0
 34 32  2  0  0  0  0
 36 37  2  0  0  0  0
 37 35  1  0  0  0  0
 38  2  1  6  0  0  0
 40 39  1  6  0  0  0
 40 38  1  0  0  0  0
 41 42  2  0  0  0  0
 41 40  1  0  0  0  0
 42 43  1  0  0  0  0
 44 43  1  0  0  0  0
 45 49  1  0  0  0  0
 45 47  1  0  0  0  0
 46 48  1  0  0  0  0
 46 45  1  0  0  0  0
 48 44  1  6  0  0  0
 48 45  1  0  0  0  0
 49 47  1  0  0  0  0
 50 38  1  0  0  0  0
 51 50  1  0  0  0  0
 51 52  1  0  0  0  0
 52 53  1  0  0  0  0
 54 53  1  0  0  0  0
 54 55  1  0  0  0  0
 55 56  1  0  0  0  0
 56 60  1  0  0  0  0
 57 58  1  0  0  0  0
 59 57  2  0  0  0  0
 60 61  1  0  0  0  0
 61 58  2  0  0  0  0
 62 59  1  0  0  0  0
 62 60  2  0  0  0  0
M  END
>  <MODEL>
2

>  <REMARK>
 VINA RESULT:      -6.4      3.048      6.113
  Name = 
  27 active torsions:
  status: ('A' for Active; 'I' for Inactive)
    1  A    between atoms: C_2  and  O_51
    2  A    between atoms: C_3  and  C_13
    3  A    between atoms: C_3  and  C_16
    4  A    between atoms: C_5  and  C_62
    5  A    between atoms: C_6  and  C_21
    6  A    between atoms: C_6  and  C_53
    7  A    between atoms: O_7  and  C_27
    8  A    between atoms: O_7  and  C_35
    9  A    between atoms: C_9  and  C_12
   10  A    between atoms: C_9  and  C_36
   11  A    between atoms: C_12  and  C_45
   12  A    between atoms: C_12  and  C_62
   13  A    between atoms: C_13  and  C_40
   14  A    between atoms: C_15  and  C_21
   15  A    between atoms: C_15  and  C_30
   16  A    between atoms: C_16  and  C_28
   17  A    between atoms: C_24  and  C_50
   18  A    between atoms: C_24  and  C_54
   19  A    between atoms: C_27  and  C_50
   20  A    between atoms: C_28  and  C_53
   21  A    between atoms: C_30  and  C_47
   22  A    between atoms: N_31  and  C_40
   23  A    between atoms: C_34  and  C_57
   24  A    between atoms: C_36  and  C_54
   25  A    between atoms: C_41  and  C_44
   26  A    between atoms: C_49  and  C_55
   27  A    between atoms: C_49  and  C_57
                            x       y       z     vdW  Elec       q    Type
                         _______ _______ _______ _____ _____    ______ ____

>  <TORSDO>
F 27

$$$$
=
 OpenBabel10232410093D

 62 66  0  0  1  0  0  0  0  0999 V2000
  184.8390  178.4200  139.4430 C   0  0  0  0  0  0  0  0  0  0  0  0
  183.9950  177.5030  137.1450 C   0  0  0  0  0  3  0  0  0  0  0  0
  184.3980  177.9620  138.3020 C   0  0  0  0  0  0  0  0  0  0  0  0
  182.6010  177.8980  140.4110 C   0  0  0  0  0  1  0  0  0  0  0  0
  183.8630  178.7390  140.5350 C   0  0  1  0  0  3  0  0  0  0  0  0
  184.4750  178.5910  141.9000 C   0  0  0  0  0  0  0  0  0  0  0  0
  185.4240  177.8400  142.0750 O   0  0  0  0  0  0  0  0  0  0  0  0
  183.8820  179.2970  143.0770 C   0  0  1  0  0  3  0  0  0  0  0  0
  182.8910  178.5150  143.6690 O   0  0  0  0  0  1  0  0  0  0  0  0
  184.9730  179.6150  144.0870 C   0  0  0  0  0  2  0  0  0  0  0  0
  184.9590  178.6440  145.2620 C   0  0  0  0  0  2  0  0  0  0  0  0
  190.8190  176.6720  144.1590 C   0  0  1  0  0  3  0  0  0  0  0  0
  188.0410  177.6030  147.2700 C   0  0  0  0  0  0  0  0  0  0  0  0
  190.3590  176.8290  146.4450 C   0  0  2  0  0  3  0  0  0  0  0  0
  188.4890  177.2510  144.8750 C   0  0  1  0  0  3  0  0  0  0  0  0
  186.6640  177.9800  146.9180 C   0  0  0  0  0  3  0  0  0  0  0  0
  188.3210  177.3030  148.4610 O   0  0  0  0  0  0  0  0  0  0  0  0
  189.4970  177.3580  143.7310 C   0  0  0  0  0  0  0  0  0  0  0  0
  191.3270  177.0460  145.4310 O   0  0  0  0  0  0  0  0  0  0  0  0
  188.9300  176.7120  142.4770 C   0  0  0  0  0  1  0  0  0  0  0  0
  189.7910  178.8180  143.4170 C   0  0  0  0  0  1  0  0  0  0  0  0
  186.3310  178.1710  145.6340 C   0  0  0  0  0  0  0  0  0  0  0  0
  189.1090  177.6880  146.2020 C   0  0  1  0  0  3  0  0  0  0  0  0
  190.9300  177.1470  147.6810 O   0  0  0  0  0  1  0  0  0  0  0  0
  187.2790  177.9670  144.6200 O   0  0  0  0  0  0  0  0  0  0  0  0
  192.1710  174.8360  144.4410 C   0  0  0  0  0  1  0  0  0  0  0  0
  190.9900  175.3040  143.8460 O   0  0  0  0  0  0  0  0  0  0  0  0
  186.3150  178.4980  139.6830 C   0  0  0  0  0  2  0  0  0  0  0  0
  187.0910  178.1670  138.4140 C   0  0  0  0  0  2  0  0  0  0  0  0
  188.5850  178.2520  138.6760 C   0  0  0  0  0  2  0  0  0  0  0  0
  189.0940  176.9480  139.2660 C   0  0  0  0  0  2  0  0  0  0  0  0
  191.8170  177.2750  140.0700 O   0  0  0  0  0  0  0  0  0  0  0  0
  190.2560  176.4770  138.5240 N   0  0  0  0  0  2  0  0  0  0  0  0
  191.5980  176.6640  138.9900 C   0  0  0  0  0  0  0  0  0  0  0  0
  193.6920  176.8840  137.9200 O   0  0  0  0  0  1  0  0  0  0  0  0
  192.7240  174.8160  137.7850 O   0  0  0  0  0  0  0  0  0  0  0  0
  192.7210  176.1400  138.2050 C   0  0  0  0  0  0  0  0  0  0  0  0
  184.7140  176.4180  136.3880 C   0  0  2  0  0  3  0  0  0  0  0  0
  184.1410  177.6990  134.4340 O   0  0  0  0  0  1  0  0  0  0  0  0
  185.1610  176.9440  135.0210 C   0  0  1  0  0  3  0  0  0  0  0  0
  186.4320  177.7490  135.0980 C   0  0  0  0  0  3  0  0  0  0  0  0
  187.6370  177.2460  134.7990 C   0  0  0  0  0  3  0  0  0  0  0  0
  187.8410  175.8310  134.3500 C   0  0  0  0  0  2  0  0  0  0  0  0
  187.9640  174.9190  135.5570 C   0  0  0  0  0  2  0  0  0  0  0  0
  190.1100  173.7740  135.0680 C   0  0  0  0  0  0  0  0  0  0  0  0
  189.6730  173.4920  136.5150 C   0  0  0  0  0  2  0  0  0  0  0  0
  191.2130  174.5640  134.7380 O   0  0  0  0  0  0  0  0  0  0  0  0
  189.4180  174.8190  135.9660 C   0  0  2  0  0  3  0  0  0  0  0  0
  191.4330  173.3640  135.2220 O   0  0  0  0  0  0  0  0  0  0  0  0
  183.9180  175.1100  136.2910 C   0  0  0  0  0  2  0  0  0  0  0  0
  184.2670  174.3440  135.0300 C   0  0  0  0  0  2  0  0  0  0  0  0
  183.6000  172.9790  135.0620 C   0  0  0  0  0  2  0  0  0  0  0  0
  183.9440  172.2130  136.3350 C   0  0  0  0  0  2  0  0  0  0  0  0
  182.6960  171.8750  137.1350 C   0  0  0  0  0  2  0  0  0  0  0  0
  181.5750  171.4610  136.1980 C   0  0  0  0  0  2  0  0  0  0  0  0
  180.4170  172.2550  136.4380 O   0  0  0  0  0  0  0  0  0  0  0  0
  180.5840  176.3480  137.3750 C   0  0  0  0  0  3  0  0  0  0  0  0
  180.7390  175.4010  138.3930 C   0  0  0  0  0  3  0  0  0  0  0  0
  180.3870  175.9300  136.0560 C   0  0  0  0  0  3  0  0  0  0  0  0
  180.4810  173.6130  136.7680 C   0  0  0  0  0  0  0  0  0  0  0  0
  180.6880  174.0380  138.0920 C   0  0  0  0  0  3  0  0  0  0  0  0
  180.3370  174.5660  135.7540 C   0  0  0  0  0  3  0  0  0  0  0  0
  1 28  1  0  0  0  0
  1  5  1  0  0  0  0
  2  3  2  0  0  0  0
  3  1  2  0  0  0  0
  5  4  1  1  0  0  0
  5  6  1  0  0  0  0
  6  7  2  0  0  0  0
  6  8  1  0  0  0  0
  8  9  1  1  0  0  0
  8 10  1  0  0  0  0
 10 11  1  0  0  0  0
 11 22  1  0  0  0  0
 12 27  1  1  0  0  0
 12 19  1  0  0  0  0
 13 17  2  0  0  0  0
 14 24  1  1  0  0  0
 15 25  1  6  0  0  0
 15 23  1  0  0  0  0
 16 13  1  0  0  0  0
 18 12  1  0  0  0  0
 18 15  1  0  0  0  0
 19 14  1  0  0  0  0
 20 18  1  0  0  0  0
 21 18  1  0  0  0  0
 22 16  2  0  0  0  0
 23 14  1  0  0  0  0
 23 13  1  1  0  0  0
 25 22  1  0  0  0  0
 27 26  1  0  0  0  0
 29 30  1  0  0  0  0
 29 28  1  0  0  0  0
 30 31  1  0  0  0  0
 33 34  1  0  0  0  0
 33 31  1  0  0  0  0
 34 32  2  0  0  0  0
 35 37  1  0  0  0  0
 36 37  2  0  0  0  0
 37 34  1  0  0  0  0
 38 50  1  6  0  0  0
 38  2  1  0  0  0  0
 40 39  1  1  0  0  0
 40 41  1  0  0  0  0
 40 38  1  0  0  0  0
 42 41  2  0  0  0  0
 43 42  1  0  0  0  0
 43 44  1  0  0  0  0
 45 49  1  0  0  0  0
 45 48  1  0  0  0  0
 45 46  1  0  0  0  0
 47 45  1  0  0  0  0
 47 49  1  0  0  0  0
 48 44  1  6  0  0  0
 48 46  1  0  0  0  0
 51 52  1  0  0  0  0
 51 50  1  0  0  0  0
 52 53  1  0  0  0  0
 53 54  1  0  0  0  0
 55 56  1  0  0  0  0
 55 54  1  0  0  0  0
 56 60  1  0  0  0  0
 57 58  1  0  0  0  0
 59 57  2  0  0  0  0
 60 61  1  0  0  0  0
 61 58  2  0  0  0  0
 62 59  1  0  0  0  0
 62 60  2  0  0  0  0
M  END
>  <MODEL>
3

>  <REMARK>
 VINA RESULT:      -6.3      1.348      2.457
  Name = 
  27 active torsions:
  status: ('A' for Active; 'I' for Inactive)
    1  A    between atoms: C_2  and  O_51
    2  A    between atoms: C_3  and  C_13
    3  A    between atoms: C_3  and  C_16
    4  A    between atoms: C_5  and  C_62
    5  A    between atoms: C_6  and  C_21
    6  A    between atoms: C_6  and  C_53
    7  A    between atoms: O_7  and  C_27
    8  A    between atoms: O_7  and  C_35
    9  A    between atoms: C_9  and  C_12
   10  A    between atoms: C_9  and  C_36
   11  A    between atoms: C_12  and  C_45
   12  A    between atoms: C_12  and  C_62
   13  A    between atoms: C_13  and  C_40
   14  A    between atoms: C_15  and  C_21
   15  A    between atoms: C_15  and  C_30
   16  A    between atoms: C_16  and  C_28
   17  A    between atoms: C_24  and  C_50
   18  A    between atoms: C_24  and  C_54
   19  A    between atoms: C_27  and  C_50
   20  A    between atoms: C_28  and  C_53
   21  A    between atoms: C_30  and  C_47
   22  A    between atoms: N_31  and  C_40
   23  A    between atoms: C_34  and  C_57
   24  A    between atoms: C_36  and  C_54
   25  A    between atoms: C_41  and  C_44
   26  A    between atoms: C_49  and  C_55
   27  A    between atoms: C_49  and  C_57
                            x       y       z     vdW  Elec       q    Type
                         _______ _______ _______ _____ _____    ______ ____

>  <TORSDO>
F 27

$$$$
=
 OpenBabel10232410093D

 62 66  0  0  1  0  0  0  0  0999 V2000
  188.1510  176.8610  137.4370 C   0  0  0  0  0  0  0  0  0  0  0  0
  188.9050  178.4540  139.3670 C   0  0  0  0  0  3  0  0  0  0  0  0
  188.5450  177.6590  138.3920 C   0  0  0  0  0  0  0  0  0  0  0  0
  189.5750  177.8720  135.6580 C   0  0  0  0  0  1  0  0  0  0  0  0
  189.0670  176.5810  136.2840 C   0  0  1  0  0  3  0  0  0  0  0  0
  190.2100  175.6860  136.6750 C   0  0  0  0  0  0  0  0  0  0  0  0
  191.2770  176.1640  137.0330 O   0  0  0  0  0  0  0  0  0  0  0  0
  190.0850  174.2010  136.5540 C   0  0  1  0  0  3  0  0  0  0  0  0
  189.6750  173.8470  135.2690 O   0  0  0  0  0  1  0  0  0  0  0  0
  191.4190  173.5470  136.8800 C   0  0  0  0  0  2  0  0  0  0  0  0
  192.0670  172.9340  135.6430 C   0  0  0  0  0  2  0  0  0  0  0  0
  198.2720  173.0550  136.6060 C   0  0  1  0  0  3  0  0  0  0  0  0
  194.8750  170.4680  136.4480 C   0  0  0  0  0  0  0  0  0  0  0  0
  197.3950  170.8960  136.7880 C   0  0  2  0  0  3  0  0  0  0  0  0
  195.8490  172.6980  136.0770 C   0  0  1  0  0  3  0  0  0  0  0  0
  193.5640  171.0210  136.0750 C   0  0  0  0  0  3  0  0  0  0  0  0
  195.0440  169.2200  136.4600 O   0  0  0  0  0  0  0  0  0  0  0  0
  196.8810  173.7340  136.5200 C   0  0  0  0  0  0  0  0  0  0  0  0
  198.3190  171.8310  137.3230 O   0  0  0  0  0  0  0  0  0  0  0  0
  196.9040  174.8960  135.5410 C   0  0  0  0  0  1  0  0  0  0  0  0
  196.5270  174.2830  137.8950 C   0  0  0  0  0  1  0  0  0  0  0  0
  193.4130  172.3450  135.9320 C   0  0  0  0  0  0  0  0  0  0  0  0
  195.9560  171.4200  136.9090 C   0  0  1  0  0  3  0  0  0  0  0  0
  197.5280  169.6900  137.4830 O   0  0  0  0  0  1  0  0  0  0  0  0
  194.5120  173.2020  136.0910 O   0  0  0  0  0  0  0  0  0  0  0  0
  200.2290  173.8780  135.7270 C   0  0  0  0  0  1  0  0  0  0  0  0
  199.1010  173.0880  135.4610 O   0  0  0  0  0  0  0  0  0  0  0  0
  186.8440  176.1420  137.5730 C   0  0  0  0  0  2  0  0  0  0  0  0
  185.8150  176.6920  136.5930 C   0  0  0  0  0  2  0  0  0  0  0  0
  185.5640  175.6890  135.4800 C   0  0  0  0  0  2  0  0  0  0  0  0
  186.3180  174.3980  135.7490 C   0  0  0  0  0  2  0  0  0  0  0  0
  185.1120  172.9640  137.9060 O   0  0  0  0  0  0  0  0  0  0  0  0
  185.4280  173.2540  135.6090 N   0  0  0  0  0  2  0  0  0  0  0  0
  184.8460  172.5860  136.7340 C   0  0  0  0  0  0  0  0  0  0  0  0
  184.1690  170.6220  135.6100 O   0  0  0  0  0  0  0  0  0  0  0  0
  182.8190  171.2930  137.3300 O   0  0  0  0  0  1  0  0  0  0  0  0
  183.9360  171.4560  136.5200 C   0  0  0  0  0  0  0  0  0  0  0  0
  188.5970  178.1810  140.8150 C   0  0  2  0  0  3  0  0  0  0  0  0
  190.7240  177.7950  141.8730 O   0  0  0  0  0  1  0  0  0  0  0  0
  189.5860  177.1530  141.3740 C   0  0  1  0  0  3  0  0  0  0  0  0
  188.9700  176.2770  142.4360 C   0  0  0  0  0  3  0  0  0  0  0  0
  188.8150  176.6670  143.7070 C   0  0  0  0  0  3  0  0  0  0  0  0
  189.2320  178.0190  144.2020 C   0  0  0  0  0  2  0  0  0  0  0  0
  189.7250  177.9140  145.6340 C   0  0  0  0  0  2  0  0  0  0  0  0
  188.8240  178.1190  147.9370 C   0  0  0  0  0  0  0  0  0  0  0  0
  189.0620  176.6400  147.5860 C   0  0  0  0  0  2  0  0  0  0  0  0
  187.5530  178.6770  148.0950 O   0  0  0  0  0  0  0  0  0  0  0  0
  188.5730  177.5260  146.5360 C   0  0  2  0  0  3  0  0  0  0  0  0
  188.0060  177.8870  149.0420 O   0  0  0  0  0  0  0  0  0  0  0  0
  187.1340  177.7940  141.0670 C   0  0  0  0  0  2  0  0  0  0  0  0
  186.3990  178.8820  141.8250 C   0  0  0  0  0  2  0  0  0  0  0  0
  185.4620  178.2500  142.8430 C   0  0  0  0  0  2  0  0  0  0  0  0
  184.0360  178.7690  142.6950 C   0  0  0  0  0  2  0  0  0  0  0  0
  183.6660  178.9710  141.2350 C   0  0  0  0  0  2  0  0  0  0  0  0
  182.5490  178.0180  140.8450 C   0  0  0  0  0  2  0  0  0  0  0  0
  183.0760  176.9220  140.1040 O   0  0  0  0  0  0  0  0  0  0  0  0
  181.9700  176.1530  136.1240 C   0  0  0  0  0  3  0  0  0  0  0  0
  182.2030  175.0830  136.9940 C   0  0  0  0  0  3  0  0  0  0  0  0
  182.0950  177.4670  136.5840 C   0  0  0  0  0  3  0  0  0  0  0  0
  182.7030  176.6470  138.7840 C   0  0  0  0  0  0  0  0  0  0  0  0
  182.5680  175.3270  138.3200 C   0  0  0  0  0  3  0  0  0  0  0  0
  182.4590  177.7120  137.9110 C   0  0  0  0  0  3  0  0  0  0  0  0
  1 28  1  0  0  0  0
  1  3  2  0  0  0  0
  3  2  2  0  0  0  0
  5  4  1  1  0  0  0
  5  6  1  0  0  0  0
  5  1  1  0  0  0  0
  6  7  2  0  0  0  0
  8  9  1  6  0  0  0
  8  6  1  0  0  0  0
  8 10  1  0  0  0  0
 11 22  1  0  0  0  0
 11 10  1  0  0  0  0
 12 27  1  6  0  0  0
 12 19  1  0  0  0  0
 13 17  2  0  0  0  0
 14 23  1  0  0  0  0
 14 19  1  0  0  0  0
 14 24  1  1  0  0  0
 15 25  1  1  0  0  0
 15 18  1  0  0  0  0
 15 23  1  0  0  0  0
 16 13  1  0  0  0  0
 18 12  1  0  0  0  0
 18 21  1  0  0  0  0
 20 18  1  0  0  0  0
 22 16  2  0  0  0  0
 22 25  1  0  0  0  0
 23 13  1  6  0  0  0
 27 26  1  0  0  0  0
 29 28  1  0  0  0  0
 30 31  1  0  0  0  0
 30 29  1  0  0  0  0
 33 31  1  0  0  0  0
 33 34  1  0  0  0  0
 34 32  2  0  0  0  0
 35 37  2  0  0  0  0
 37 34  1  0  0  0  0
 37 36  1  0  0  0  0
 38  2  1  6  0  0  0
 38 50  1  0  0  0  0
 38 40  1  0  0  0  0
 40 39  1  1  0  0  0
 40 41  1  0  0  0  0
 41 42  2  0  0  0  0
 42 43  1  0  0  0  0
 43 44  1  0  0  0  0
 45 47  1  0  0  0  0
 45 49  1  0  0  0  0
 46 45  1  0  0  0  0
 47 49  1  0  0  0  0
 48 44  1  6  0  0  0
 48 46  1  0  0  0  0
 48 45  1  0  0  0  0
 50 51  1  0  0  0  0
 51 52  1  0  0  0  0
 53 52  1  0  0  0  0
 54 53  1  0  0  0  0
 55 54  1  0  0  0  0
 56 55  1  0  0  0  0
 57 59  2  0  0  0  0
 57 58  1  0  0  0  0
 58 61  2  0  0  0  0
 59 62  1  0  0  0  0
 60 56  1  0  0  0  0
 61 60  1  0  0  0  0
 62 60  2  0  0  0  0
M  END
>  <MODEL>
4

>  <REMARK>
 VINA RESULT:      -5.9      3.603      9.879
  Name = 
  27 active torsions:
  status: ('A' for Active; 'I' for Inactive)
    1  A    between atoms: C_2  and  O_51
    2  A    between atoms: C_3  and  C_13
    3  A    between atoms: C_3  and  C_16
    4  A    between atoms: C_5  and  C_62
    5  A    between atoms: C_6  and  C_21
    6  A    between atoms: C_6  and  C_53
    7  A    between atoms: O_7  and  C_27
    8  A    between atoms: O_7  and  C_35
    9  A    between atoms: C_9  and  C_12
   10  A    between atoms: C_9  and  C_36
   11  A    between atoms: C_12  and  C_45
   12  A    between atoms: C_12  and  C_62
   13  A    between atoms: C_13  and  C_40
   14  A    between atoms: C_15  and  C_21
   15  A    between atoms: C_15  and  C_30
   16  A    between atoms: C_16  and  C_28
   17  A    between atoms: C_24  and  C_50
   18  A    between atoms: C_24  and  C_54
   19  A    between atoms: C_27  and  C_50
   20  A    between atoms: C_28  and  C_53
   21  A    between atoms: C_30  and  C_47
   22  A    between atoms: N_31  and  C_40
   23  A    between atoms: C_34  and  C_57
   24  A    between atoms: C_36  and  C_54
   25  A    between atoms: C_41  and  C_44
   26  A    between atoms: C_49  and  C_55
   27  A    between atoms: C_49  and  C_57
                            x       y       z     vdW  Elec       q    Type
                         _______ _______ _______ _____ _____    ______ ____

>  <TORSDO>
F 27

$$$$
=
 OpenBabel10232410093D

 62 66  0  0  1  0  0  0  0  0999 V2000
  189.9620  176.9210  140.7360 C   0  0  0  0  0  0  0  0  0  0  0  0
  188.0750  177.9570  139.2550 C   0  0  0  0  0  3  0  0  0  0  0  0
  189.0080  177.4410  140.0130 C   0  0  0  0  0  0  0  0  0  0  0  0
  188.7450  175.8150  142.6100 C   0  0  0  0  0  1  0  0  0  0  0  0
  189.8000  176.8410  142.2240 C   0  0  1  0  0  3  0  0  0  0  0  0
  191.1020  176.5620  142.9210 C   0  0  0  0  0  0  0  0  0  0  0  0
  191.4030  175.4200  143.2380 O   0  0  0  0  0  0  0  0  0  0  0  0
  192.0100  177.6850  143.3090 C   0  0  1  0  0  3  0  0  0  0  0  0
  192.3140  178.4760  142.2010 O   0  0  0  0  0  1  0  0  0  0  0  0
  191.3510  178.5270  144.3900 C   0  0  0  0  0  2  0  0  0  0  0  0
  190.8980  177.6770  145.5720 C   0  0  0  0  0  2  0  0  0  0  0  0
  184.8070  178.5810  144.3400 C   0  0  1  0  0  3  0  0  0  0  0  0
  187.6310  178.1100  147.5100 C   0  0  0  0  0  0  0  0  0  0  0  0
  185.2320  178.4690  146.6350 C   0  0  2  0  0  3  0  0  0  0  0  0
  187.1850  178.4180  145.1100 C   0  0  1  0  0  3  0  0  0  0  0  0
  189.0620  177.9940  147.1910 C   0  0  0  0  0  3  0  0  0  0  0  0
  187.2740  178.3340  148.6970 O   0  0  0  0  0  0  0  0  0  0  0  0
  186.2400  178.1510  143.9380 C   0  0  0  0  0  0  0  0  0  0  0  0
  184.3440  178.0990  145.5920 O   0  0  0  0  0  0  0  0  0  0  0  0
  186.7110  178.9110  142.7080 C   0  0  0  0  0  1  0  0  0  0  0  0
  186.2220  176.6680  143.5970 C   0  0  0  0  0  1  0  0  0  0  0  0
  189.4550  177.8890  145.9140 C   0  0  0  0  0  0  0  0  0  0  0  0
  186.6220  177.8530  146.4140 C   0  0  1  0  0  3  0  0  0  0  0  0
  184.6990  178.0310  147.8510 O   0  0  0  0  0  1  0  0  0  0  0  0
  188.5100  177.9360  144.8780 O   0  0  0  0  0  0  0  0  0  0  0  0
  183.0330  179.9050  143.7230 C   0  0  0  0  0  1  0  0  0  0  0  0
  184.3990  179.9010  144.0400 O   0  0  0  0  0  0  0  0  0  0  0  0
  191.1440  176.3000  140.0570 C   0  0  0  0  0  2  0  0  0  0  0  0
  190.8540  176.0450  138.5830 C   0  0  0  0  0  2  0  0  0  0  0  0
  192.0310  176.4880  137.7330 C   0  0  0  0  0  2  0  0  0  0  0  0
  192.6820  175.2890  137.0620 C   0  0  0  0  0  2  0  0  0  0  0  0
  195.3850  174.7540  136.3060 O   0  0  0  0  0  0  0  0  0  0  0  0
  193.7030  174.7180  137.9290 N   0  0  0  0  0  2  0  0  0  0  0  0
  195.0470  174.4860  137.4900 C   0  0  0  0  0  0  0  0  0  0  0  0
  196.2470  172.6950  138.4560 O   0  0  0  0  0  0  0  0  0  0  0  0
  196.7460  174.7740  139.2690 O   0  0  0  0  0  1  0  0  0  0  0  0
  196.0330  173.9320  138.4240 C   0  0  0  0  0  0  0  0  0  0  0  0
  187.6790  177.3810  137.9210 C   0  0  2  0  0  3  0  0  0  0  0  0
  188.1500  179.6560  137.2950 O   0  0  0  0  0  1  0  0  0  0  0  0
  188.0610  178.3520  136.7990 C   0  0  1  0  0  3  0  0  0  0  0  0
  189.3440  177.9630  136.1100 C   0  0  0  0  0  3  0  0  0  0  0  0
  189.4100  177.0120  135.1690 C   0  0  0  0  0  3  0  0  0  0  0  0
  188.2120  176.2440  134.7000 C   0  0  0  0  0  2  0  0  0  0  0  0
  188.5390  174.7630  134.6430 C   0  0  0  0  0  2  0  0  0  0  0  0
  187.8250  173.2930  136.5100 C   0  0  0  0  0  0  0  0  0  0  0  0
  187.7060  172.5480  135.1690 C   0  0  0  0  0  2  0  0  0  0  0  0
  186.7220  173.6900  137.2690 O   0  0  0  0  0  0  0  0  0  0  0  0
  187.3760  173.9680  135.1990 C   0  0  2  0  0  3  0  0  0  0  0  0
  187.0330  172.4140  137.2470 O   0  0  0  0  0  0  0  0  0  0  0  0
  186.2090  176.9460  137.8560 C   0  0  0  0  0  2  0  0  0  0  0  0
  185.5110  177.5400  136.6480 C   0  0  0  0  0  2  0  0  0  0  0  0
  184.7770  176.4440  135.8930 C   0  0  0  0  0  2  0  0  0  0  0  0
  183.3160  176.8070  135.6510 C   0  0  0  0  0  2  0  0  0  0  0  0
  182.3930  176.0550  136.5950 C   0  0  0  0  0  2  0  0  0  0  0  0
  181.1270  176.8590  136.8340 C   0  0  0  0  0  2  0  0  0  0  0  0
  181.0630  177.2820  138.1930 O   0  0  0  0  0  0  0  0  0  0  0  0
  184.2910  179.0900  140.1850 C   0  0  0  0  0  3  0  0  0  0  0  0
  183.7020  179.7400  139.0970 C   0  0  0  0  0  3  0  0  0  0  0  0
  183.7990  177.8520  140.6100 C   0  0  0  0  0  3  0  0  0  0  0  0
  182.1330  177.9010  138.8480 C   0  0  0  0  0  0  0  0  0  0  0  0
  182.6260  179.1490  138.4290 C   0  0  0  0  0  3  0  0  0  0  0  0
  182.7220  177.2610  139.9430 C   0  0  0  0  0  3  0  0  0  0  0  0
  1  5  1  0  0  0  0
  2  3  2  0  0  0  0
  3  1  2  0  0  0  0
  5  4  1  6  0  0  0
  5  6  1  0  0  0  0
  6  7  2  0  0  0  0
  6  8  1  0  0  0  0
  8  9  1  6  0  0  0
  8 10  1  0  0  0  0
 10 11  1  0  0  0  0
 11 22  1  0  0  0  0
 12 27  1  1  0  0  0
 12 19  1  0  0  0  0
 13 17  2  0  0  0  0
 14 24  1  1  0  0  0
 15 25  1  6  0  0  0
 15 23  1  0  0  0  0
 16 13  1  0  0  0  0
 18 12  1  0  0  0  0
 18 15  1  0  0  0  0
 19 14  1  0  0  0  0
 20 18  1  0  0  0  0
 21 18  1  0  0  0  0
 22 16  2  0  0  0  0
 23 14  1  0  0  0  0
 23 13  1  1  0  0  0
 25 22  1  0  0  0  0
 26 27  1  0  0  0  0
 28  1  1  0  0  0  0
 29 28  1  0  0  0  0
 30 29  1  0  0  0  0
 31 30  1  0  0  0  0
 31 33  1  0  0  0  0
 32 34  2  0  0  0  0
 34 33  1  0  0  0  0
 34 37  1  0  0  0  0
 37 35  2  0  0  0  0
 37 36  1  0  0  0  0
 38 50  1  1  0  0  0
 38  2  1  0  0  0  0
 40 39  1  1  0  0  0
 40 38  1  0  0  0  0
 41 40  1  0  0  0  0
 42 41  2  0  0  0  0
 43 42  1  0  0  0  0
 44 43  1  0  0  0  0
 45 49  1  0  0  0  0
 45 47  1  0  0  0  0
 46 48  1  0  0  0  0
 46 45  1  0  0  0  0
 48 44  1  6  0  0  0
 48 45  1  0  0  0  0
 49 47  1  0  0  0  0
 51 50  1  0  0  0  0
 52 51  1  0  0  0  0
 53 52  1  0  0  0  0
 53 54  1  0  0  0  0
 54 55  1  0  0  0  0
 55 56  1  0  0  0  0
 56 60  1  0  0  0  0
 57 59  1  0  0  0  0
 58 57  2  0  0  0  0
 60 62  1  0  0  0  0
 61 60  2  0  0  0  0
 61 58  1  0  0  0  0
 62 59  2  0  0  0  0
M  END
>  <MODEL>
5

>  <REMARK>
 VINA RESULT:      -5.8      2.719      5.557
  Name = 
  27 active torsions:
  status: ('A' for Active; 'I' for Inactive)
    1  A    between atoms: C_2  and  O_51
    2  A    between atoms: C_3  and  C_13
    3  A    between atoms: C_3  and  C_16
    4  A    between atoms: C_5  and  C_62
    5  A    between atoms: C_6  and  C_21
    6  A    between atoms: C_6  and  C_53
    7  A    between atoms: O_7  and  C_27
    8  A    between atoms: O_7  and  C_35
    9  A    between atoms: C_9  and  C_12
   10  A    between atoms: C_9  and  C_36
   11  A    between atoms: C_12  and  C_45
   12  A    between atoms: C_12  and  C_62
   13  A    between atoms: C_13  and  C_40
   14  A    between atoms: C_15  and  C_21
   15  A    between atoms: C_15  and  C_30
   16  A    between atoms: C_16  and  C_28
   17  A    between atoms: C_24  and  C_50
   18  A    between atoms: C_24  and  C_54
   19  A    between atoms: C_27  and  C_50
   20  A    between atoms: C_28  and  C_53
   21  A    between atoms: C_30  and  C_47
   22  A    between atoms: N_31  and  C_40
   23  A    between atoms: C_34  and  C_57
   24  A    between atoms: C_36  and  C_54
   25  A    between atoms: C_41  and  C_44
   26  A    between atoms: C_49  and  C_55
   27  A    between atoms: C_49  and  C_57
                            x       y       z     vdW  Elec       q    Type
                         _______ _______ _______ _____ _____    ______ ____

>  <TORSDO>
F 27

$$$$
=
 OpenBabel10232410093D

 62 66  0  0  1  0  0  0  0  0999 V2000
  189.8560  177.0850  140.8310 C   0  0  0  0  0  0  0  0  0  0  0  0
  188.0060  178.4250  139.5610 C   0  0  0  0  0  3  0  0  0  0  0  0
  188.9220  177.7560  140.2140 C   0  0  0  0  0  0  0  0  0  0  0  0
  188.7360  175.7290  142.5980 C   0  0  0  0  0  1  0  0  0  0  0  0
  189.7350  176.8380  142.3050 C   0  0  1  0  0  3  0  0  0  0  0  0
  191.0660  176.5450  142.9390 C   0  0  0  0  0  0  0  0  0  0  0  0
  191.3870  175.3940  143.2010 O   0  0  0  0  0  0  0  0  0  0  0  0
  191.9800  177.6600  143.3340 C   0  0  1  0  0  3  0  0  0  0  0  0
  192.3460  178.4120  142.2170 O   0  0  0  0  0  1  0  0  0  0  0  0
  191.2940  178.5460  144.3620 C   0  0  0  0  0  2  0  0  0  0  0  0
  190.8840  177.7610  145.6030 C   0  0  0  0  0  2  0  0  0  0  0  0
  184.7780  178.5670  144.3760 C   0  0  1  0  0  3  0  0  0  0  0  0
  187.6080  178.1020  147.5430 C   0  0  0  0  0  0  0  0  0  0  0  0
  185.2030  178.4290  146.6700 C   0  0  2  0  0  3  0  0  0  0  0  0
  187.1580  178.4380  145.1470 C   0  0  1  0  0  3  0  0  0  0  0  0
  189.0410  178.0180  147.2240 C   0  0  0  0  0  3  0  0  0  0  0  0
  187.2460  178.3010  148.7330 O   0  0  0  0  0  0  0  0  0  0  0  0
  186.2200  178.1710  143.9700 C   0  0  0  0  0  0  0  0  0  0  0  0
  184.3230  178.0580  145.6210 O   0  0  0  0  0  0  0  0  0  0  0  0
  186.6770  178.9580  142.7530 C   0  0  0  0  0  1  0  0  0  0  0  0
  186.2300  176.6930  143.6070 C   0  0  0  0  0  1  0  0  0  0  0  0
  189.4370  177.9400  145.9460 C   0  0  0  0  0  0  0  0  0  0  0  0
  186.6050  177.8430  146.4420 C   0  0  1  0  0  3  0  0  0  0  0  0
  184.6780  177.9630  147.8790 O   0  0  0  0  0  1  0  0  0  0  0  0
  188.4930  177.9850  144.9100 O   0  0  0  0  0  0  0  0  0  0  0  0
  182.9440  179.9150  144.0620 C   0  0  0  0  0  1  0  0  0  0  0  0
  184.3460  179.8840  144.0960 O   0  0  0  0  0  0  0  0  0  0  0  0
  190.9660  176.4680  140.0360 C   0  0  0  0  0  2  0  0  0  0  0  0
  190.4750  176.0390  138.6590 C   0  0  0  0  0  2  0  0  0  0  0  0
  191.5730  175.2930  137.9200 C   0  0  0  0  0  2  0  0  0  0  0  0
  192.7540  176.2130  137.6580 C   0  0  0  0  0  2  0  0  0  0  0  0
  194.4410  173.9960  137.0250 O   0  0  0  0  0  0  0  0  0  0  0  0
  193.9100  175.7850  138.4330 N   0  0  0  0  0  2  0  0  0  0  0  0
  194.7240  174.6690  138.0530 C   0  0  0  0  0  0  0  0  0  0  0  0
  196.3310  173.1310  138.8480 O   0  0  0  0  0  0  0  0  0  0  0  0
  196.5250  175.2670  139.6450 O   0  0  0  0  0  1  0  0  0  0  0  0
  195.8910  174.3080  138.8650 C   0  0  0  0  0  0  0  0  0  0  0  0
  187.5260  178.0450  138.1850 C   0  0  2  0  0  3  0  0  0  0  0  0
  188.9770  179.9060  137.7170 O   0  0  0  0  0  1  0  0  0  0  0  0
  188.2970  178.8370  137.1250 C   0  0  1  0  0  3  0  0  0  0  0  0
  189.2540  177.9750  136.3420 C   0  0  0  0  0  3  0  0  0  0  0  0
  188.8650  177.1650  135.3490 C   0  0  0  0  0  3  0  0  0  0  0  0
  187.4380  177.0400  134.9110 C   0  0  0  0  0  2  0  0  0  0  0  0
  186.9150  175.6540  135.2440 C   0  0  0  0  0  2  0  0  0  0  0  0
  188.0880  173.4890  135.5490 C   0  0  0  0  0  0  0  0  0  0  0  0
  187.2740  173.8370  136.8070 C   0  0  0  0  0  2  0  0  0  0  0  0
  189.4840  173.4910  135.5130 O   0  0  0  0  0  0  0  0  0  0  0  0
  187.9340  174.9240  136.0930 C   0  0  2  0  0  3  0  0  0  0  0  0
  188.8810  172.5090  136.1440 O   0  0  0  0  0  0  0  0  0  0  0  0
  186.0050  178.1530  138.0180 C   0  0  0  0  0  2  0  0  0  0  0  0
  185.3190  178.3970  139.3480 C   0  0  0  0  0  2  0  0  0  0  0  0
  184.0830  179.2550  139.1340 C   0  0  0  0  0  2  0  0  0  0  0  0
  183.2450  178.7530  137.9630 C   0  0  0  0  0  2  0  0  0  0  0  0
  182.4400  177.5210  138.3430 C   0  0  0  0  0  2  0  0  0  0  0  0
  182.7060  176.4020  137.3510 C   0  0  0  0  0  2  0  0  0  0  0  0
  181.8700  175.2840  137.6370 O   0  0  0  0  0  0  0  0  0  0  0  0
  182.9190  171.3120  136.7580 C   0  0  0  0  0  3  0  0  0  0  0  0
  183.9250  172.2640  136.9510 C   0  0  0  0  0  3  0  0  0  0  0  0
  181.5760  171.6820  136.8690 C   0  0  0  0  0  3  0  0  0  0  0  0
  182.2380  173.9650  137.3510 C   0  0  0  0  0  0  0  0  0  0  0  0
  183.5870  173.5870  137.2470 C   0  0  0  0  0  3  0  0  0  0  0  0
  181.2370  173.0060  137.1670 C   0  0  0  0  0  3  0  0  0  0  0  0
  1  5  1  0  0  0  0
  2  3  2  0  0  0  0
  3  1  2  0  0  0  0
  5  4  1  6  0  0  0
  5  6  1  0  0  0  0
  6  7  2  0  0  0  0
  6  8  1  0  0  0  0
  8  9  1  6  0  0  0
  8 10  1  0  0  0  0
 10 11  1  0  0  0  0
 11 22  1  0  0  0  0
 12 27  1  1  0  0  0
 12 19  1  0  0  0  0
 13 17  2  0  0  0  0
 14 24  1  1  0  0  0
 15 25  1  6  0  0  0
 15 23  1  0  0  0  0
 16 13  1  0  0  0  0
 18 12  1  0  0  0  0
 18 15  1  0  0  0  0
 19 14  1  0  0  0  0
 20 18  1  0  0  0  0
 21 18  1  0  0  0  0
 22 16  2  0  0  0  0
 23 14  1  0  0  0  0
 23 13  1  1  0  0  0
 25 22  1  0  0  0  0
 26 27  1  0  0  0  0
 28  1  1  0  0  0  0
 29 28  1  0  0  0  0
 30 29  1  0  0  0  0
 31 30  1  0  0  0  0
 31 33  1  0  0  0  0
 32 34  2  0  0  0  0
 34 33  1  0  0  0  0
 34 37  1  0  0  0  0
 35 37  2  0  0  0  0
 37 36  1  0  0  0  0
 38 50  1  1  0  0  0
 38  2  1  0  0  0  0
 40 39  1  1  0  0  0
 40 38  1  0  0  0  0
 41 40  1  0  0  0  0
 42 41  2  0  0  0  0
 43 44  1  0  0  0  0
 43 42  1  0  0  0  0
 45 48  1  0  0  0  0
 45 49  1  0  0  0  0
 45 46  1  0  0  0  0
 47 45  1  0  0  0  0
 47 49  1  0  0  0  0
 48 44  1  6  0  0  0
 48 46  1  0  0  0  0
 50 51  1  0  0  0  0
 52 51  1  0  0  0  0
 53 54  1  0  0  0  0
 53 52  1  0  0  0  0
 55 56  1  0  0  0  0
 55 54  1  0  0  0  0
 57 59  2  0  0  0  0
 57 58  1  0  0  0  0
 58 61  2  0  0  0  0
 59 62  1  0  0  0  0
 60 56  1  0  0  0  0
 61 60  1  0  0  0  0
 62 60  2  0  0  0  0
M  END
>  <MODEL>
6

>  <REMARK>
 VINA RESULT:      -5.7      2.000      4.843
  Name = 
  27 active torsions:
  status: ('A' for Active; 'I' for Inactive)
    1  A    between atoms: C_2  and  O_51
    2  A    between atoms: C_3  and  C_13
    3  A    between atoms: C_3  and  C_16
    4  A    between atoms: C_5  and  C_62
    5  A    between atoms: C_6  and  C_21
    6  A    between atoms: C_6  and  C_53
    7  A    between atoms: O_7  and  C_27
    8  A    between atoms: O_7  and  C_35
    9  A    between atoms: C_9  and  C_12
   10  A    between atoms: C_9  and  C_36
   11  A    between atoms: C_12  and  C_45
   12  A    between atoms: C_12  and  C_62
   13  A    between atoms: C_13  and  C_40
   14  A    between atoms: C_15  and  C_21
   15  A    between atoms: C_15  and  C_30
   16  A    between atoms: C_16  and  C_28
   17  A    between atoms: C_24  and  C_50
   18  A    between atoms: C_24  and  C_54
   19  A    between atoms: C_27  and  C_50
   20  A    between atoms: C_28  and  C_53
   21  A    between atoms: C_30  and  C_47
   22  A    between atoms: N_31  and  C_40
   23  A    between atoms: C_34  and  C_57
   24  A    between atoms: C_36  and  C_54
   25  A    between atoms: C_41  and  C_44
   26  A    between atoms: C_49  and  C_55
   27  A    between atoms: C_49  and  C_57
                            x       y       z     vdW  Elec       q    Type
                         _______ _______ _______ _____ _____    ______ ____

>  <TORSDO>
F 27

$$$$
=
 OpenBabel10232410093D

 62 66  0  0  1  0  0  0  0  0999 V2000
  190.1270  175.7370  137.6410 C   0  0  0  0  0  0  0  0  0  0  0  0
  190.0800  177.2930  139.7400 C   0  0  0  0  0  3  0  0  0  0  0  0
  190.1220  176.5080  138.6940 C   0  0  0  0  0  0  0  0  0  0  0  0
  190.9280  173.5310  136.8000 C   0  0  0  0  0  1  0  0  0  0  0  0
  191.3300  174.8910  137.3520 C   0  0  1  0  0  3  0  0  0  0  0  0
  192.2980  175.5800  136.4320 C   0  0  0  0  0  0  0  0  0  0  0  0
  192.0370  176.6830  135.9720 O   0  0  0  0  0  0  0  0  0  0  0  0
  193.5540  174.8940  136.0010 C   0  0  1  0  0  3  0  0  0  0  0  0
  193.8830  175.2480  134.6930 O   0  0  0  0  0  1  0  0  0  0  0  0
  194.6890  175.2610  136.9450 C   0  0  0  0  0  2  0  0  0  0  0  0
  194.9940  174.1370  137.9290 C   0  0  0  0  0  2  0  0  0  0  0  0
  197.7510  168.6580  136.5770 C   0  0  1  0  0  3  0  0  0  0  0  0
  198.3380  172.8910  136.5590 C   0  0  0  0  0  0  0  0  0  0  0  0
  199.1430  170.4800  136.1190 C   0  0  2  0  0  3  0  0  0  0  0  0
  196.9660  170.9530  137.2070 C   0  0  1  0  0  3  0  0  0  0  0  0
  197.2900  173.7670  137.1020 C   0  0  0  0  0  3  0  0  0  0  0  0
  199.4880  173.3560  136.3410 O   0  0  0  0  0  0  0  0  0  0  0  0
  196.5070  169.5360  136.8630 C   0  0  0  0  0  0  0  0  0  0  0  0
  198.7020  169.2060  135.6760 O   0  0  0  0  0  0  0  0  0  0  0  0
  195.6890  168.9630  138.0080 C   0  0  0  0  0  1  0  0  0  0  0  0
  195.6310  169.5500  135.6190 C   0  0  0  0  0  1  0  0  0  0  0  0
  196.1060  173.2490  137.4610 C   0  0  0  0  0  0  0  0  0  0  0  0
  197.9720  171.4730  136.1800 C   0  0  1  0  0  3  0  0  0  0  0  0
  200.1230  170.9440  135.2380 O   0  0  0  0  0  1  0  0  0  0  0  0
  195.8800  171.8680  137.3630 O   0  0  0  0  0  0  0  0  0  0  0  0
  199.0880  168.8140  138.4400 C   0  0  0  0  0  1  0  0  0  0  0  0
  198.3210  167.9410  137.6550 O   0  0  0  0  0  0  0  0  0  0  0  0
  188.8860  175.6180  136.8110 C   0  0  0  0  0  2  0  0  0  0  0  0
  187.6410  175.6140  137.6910 C   0  0  0  0  0  2  0  0  0  0  0  0
  186.3970  175.4400  136.8370 C   0  0  0  0  0  2  0  0  0  0  0  0
  185.7310  176.7840  136.5910 C   0  0  0  0  0  2  0  0  0  0  0  0
  183.1340  175.6610  136.1920 O   0  0  0  0  0  0  0  0  0  0  0  0
  184.5920  176.9540  137.4830 N   0  0  0  0  0  2  0  0  0  0  0  0
  183.3170  176.3520  137.2290 C   0  0  0  0  0  0  0  0  0  0  0  0
  181.4710  177.5470  138.0920 O   0  0  0  0  0  0  0  0  0  0  0  0
  181.9900  175.6050  139.1840 O   0  0  0  0  0  1  0  0  0  0  0  0
  182.2190  176.5420  138.1840 C   0  0  0  0  0  0  0  0  0  0  0  0
  188.8520  177.4730  140.5930 C   0  0  2  0  0  3  0  0  0  0  0  0
  188.3530  178.8620  138.6930 O   0  0  0  0  0  1  0  0  0  0  0  0
  187.9620  178.5710  140.0030 C   0  0  1  0  0  3  0  0  0  0  0  0
  186.4980  178.2150  140.0480 C   0  0  0  0  0  3  0  0  0  0  0  0
  185.6590  178.6830  140.9800 C   0  0  0  0  0  3  0  0  0  0  0  0
  186.0900  179.6170  142.0710 C   0  0  0  0  0  2  0  0  0  0  0  0
  185.5040  179.1660  143.3970 C   0  0  0  0  0  2  0  0  0  0  0  0
  183.0370  179.4300  143.3730 C   0  0  0  0  0  0  0  0  0  0  0  0
  183.4490  178.3590  144.3970 C   0  0  0  0  0  2  0  0  0  0  0  0
  182.3590  179.1380  142.1870 O   0  0  0  0  0  0  0  0  0  0  0  0
  184.1980  178.4410  143.1490 C   0  0  2  0  0  3  0  0  0  0  0  0
  181.6890  179.0780  143.3150 O   0  0  0  0  0  0  0  0  0  0  0  0
  189.1670  177.6960  142.0770 C   0  0  0  0  0  2  0  0  0  0  0  0
  188.8830  176.4510  142.8950 C   0  0  0  0  0  2  0  0  0  0  0  0
  190.1040  175.5450  142.8850 C   0  0  0  0  0  2  0  0  0  0  0  0
  191.3590  176.2870  143.3310 C   0  0  0  0  0  2  0  0  0  0  0  0
  191.6380  176.0710  144.8090 C   0  0  0  0  0  2  0  0  0  0  0  0
  191.4790  177.3790  145.5640 C   0  0  0  0  0  2  0  0  0  0  0  0
  190.8100  177.1530  146.8020 O   0  0  0  0  0  0  0  0  0  0  0  0
  186.8410  178.3180  147.5350 C   0  0  0  0  0  3  0  0  0  0  0  0
  187.2020  177.8630  146.2630 C   0  0  0  0  0  3  0  0  0  0  0  0
  187.7950  178.3720  148.5550 C   0  0  0  0  0  3  0  0  0  0  0  0
  189.4830  177.5310  147.0290 C   0  0  0  0  0  0  0  0  0  0  0  0
  188.5180  177.4710  146.0090 C   0  0  0  0  0  3  0  0  0  0  0  0
  189.1120  177.9770  148.3020 C   0  0  0  0  0  3  0  0  0  0  0  0
  1  3  2  0  0  0  0
  3  2  2  0  0  0  0
  5  4  1  6  0  0  0
  5  1  1  0  0  0  0
  6  5  1  0  0  0  0
  7  6  2  0  0  0  0
  8  9  1  6  0  0  0
  8  6  1  0  0  0  0
  8 10  1  0  0  0  0
 10 11  1  0  0  0  0
 12 18  1  0  0  0  0
 12 27  1  1  0  0  0
 13 16  1  0  0  0  0
 14 24  1  6  0  0  0
 14 23  1  0  0  0  0
 15 25  1  6  0  0  0
 16 22  2  0  0  0  0
 17 13  2  0  0  0  0
 18 15  1  0  0  0  0
 18 20  1  0  0  0  0
 19 14  1  0  0  0  0
 19 12  1  0  0  0  0
 21 18  1  0  0  0  0
 22 11  1  0  0  0  0
 23 13  1  1  0  0  0
 23 15  1  0  0  0  0
 25 22  1  0  0  0  0
 27 26  1  0  0  0  0
 28  1  1  0  0  0  0
 28 29  1  0  0  0  0
 30 29  1  0  0  0  0
 31 30  1  0  0  0  0
 31 33  1  0  0  0  0
 32 34  2  0  0  0  0
 34 33  1  0  0  0  0
 34 37  1  0  0  0  0
 35 37  2  0  0  0  0
 37 36  1  0  0  0  0
 38  2  1  6  0  0  0
 38 50  1  0  0  0  0
 40 39  1  6  0  0  0
 40 41  1  0  0  0  0
 40 38  1  0  0  0  0
 41 42  2  0  0  0  0
 42 43  1  0  0  0  0
 43 44  1  0  0  0  0
 45 46  1  0  0  0  0
 47 49  1  0  0  0  0
 47 45  1  0  0  0  0
 48 45  1  0  0  0  0
 48 44  1  1  0  0  0
 48 46  1  0  0  0  0
 49 45  1  0  0  0  0
 50 51  1  0  0  0  0
 52 51  1  0  0  0  0
 52 53  1  0  0  0  0
 53 54  1  0  0  0  0
 54 55  1  0  0  0  0
 55 56  1  0  0  0  0
 56 60  1  0  0  0  0
 57 59  1  0  0  0  0
 58 57  2  0  0  0  0
 60 62  1  0  0  0  0
 61 58  1  0  0  0  0
 61 60  2  0  0  0  0
 62 59  2  0  0  0  0
M  END
>  <MODEL>
7

>  <REMARK>
 VINA RESULT:      -5.7      4.308     11.566
  Name = 
  27 active torsions:
  status: ('A' for Active; 'I' for Inactive)
    1  A    between atoms: C_2  and  O_51
    2  A    between atoms: C_3  and  C_13
    3  A    between atoms: C_3  and  C_16
    4  A    between atoms: C_5  and  C_62
    5  A    between atoms: C_6  and  C_21
    6  A    between atoms: C_6  and  C_53
    7  A    between atoms: O_7  and  C_27
    8  A    between atoms: O_7  and  C_35
    9  A    between atoms: C_9  and  C_12
   10  A    between atoms: C_9  and  C_36
   11  A    between atoms: C_12  and  C_45
   12  A    between atoms: C_12  and  C_62
   13  A    between atoms: C_13  and  C_40
   14  A    between atoms: C_15  and  C_21
   15  A    between atoms: C_15  and  C_30
   16  A    between atoms: C_16  and  C_28
   17  A    between atoms: C_24  and  C_50
   18  A    between atoms: C_24  and  C_54
   19  A    between atoms: C_27  and  C_50
   20  A    between atoms: C_28  and  C_53
   21  A    between atoms: C_30  and  C_47
   22  A    between atoms: N_31  and  C_40
   23  A    between atoms: C_34  and  C_57
   24  A    between atoms: C_36  and  C_54
   25  A    between atoms: C_41  and  C_44
   26  A    between atoms: C_49  and  C_55
   27  A    between atoms: C_49  and  C_57
                            x       y       z     vdW  Elec       q    Type
                         _______ _______ _______ _____ _____    ______ ____

>  <TORSDO>
F 27

$$$$
=
 OpenBabel10232410093D

 62 66  0  0  1  0  0  0  0  0999 V2000
  192.1440  174.3430  135.7990 C   0  0  0  0  0  0  0  0  0  0  0  0
  189.5480  174.6240  135.6860 C   0  0  0  0  0  3  0  0  0  0  0  0
  190.8500  174.5020  135.7350 C   0  0  0  0  0  0  0  0  0  0  0  0
  192.2870  176.3670  134.3490 C   0  0  0  0  0  1  0  0  0  0  0  0
  193.0450  175.4140  135.2620 C   0  0  1  0  0  3  0  0  0  0  0  0
  193.7470  176.1640  136.3590 C   0  0  0  0  0  0  0  0  0  0  0  0
  194.6280  176.9700  136.0940 O   0  0  0  0  0  0  0  0  0  0  0  0
  193.4360  175.8760  137.7930 C   0  0  1  0  0  3  0  0  0  0  0  0
  194.6040  175.8650  138.5550 O   0  0  0  0  0  1  0  0  0  0  0  0
  192.4700  176.9210  138.3280 C   0  0  0  0  0  2  0  0  0  0  0  0
  192.6890  177.1880  139.8130 C   0  0  0  0  0  2  0  0  0  0  0  0
  189.1110  177.9080  144.9240 C   0  0  1  0  0  3  0  0  0  0  0  0
  188.9770  177.5060  140.6720 C   0  0  0  0  0  0  0  0  0  0  0  0
  187.8370  177.8050  142.9660 C   0  0  2  0  0  3  0  0  0  0  0  0
  190.2790  177.4300  142.7600 C   0  0  1  0  0  3  0  0  0  0  0  0
  190.2250  177.2720  139.9300 C   0  0  0  0  0  3  0  0  0  0  0  0
  187.8700  177.3270  140.1000 O   0  0  0  0  0  0  0  0  0  0  0  0
  190.4650  177.9790  144.1740 C   0  0  0  0  0  0  0  0  0  0  0  0
  187.9900  178.4340  144.2290 O   0  0  0  0  0  0  0  0  0  0  0  0
  191.5330  177.1820  144.9040 C   0  0  0  0  0  1  0  0  0  0  0  0
  190.9130  179.4330  144.1250 C   0  0  0  0  0  1  0  0  0  0  0  0
  191.4030  177.3320  140.5680 C   0  0  0  0  0  0  0  0  0  0  0  0
  189.0640  178.0590  142.0770 C   0  0  1  0  0  3  0  0  0  0  0  0
  186.6860  178.3070  142.3530 O   0  0  0  0  0  1  0  0  0  0  0  0
  191.4470  177.5720  141.9490 O   0  0  0  0  0  0  0  0  0  0  0  0
  188.5820  177.1120  147.0140 C   0  0  0  0  0  1  0  0  0  0  0  0
  188.8300  176.7480  145.6820 O   0  0  0  0  0  0  0  0  0  0  0  0
  192.7040  173.1560  136.5200 C   0  0  0  0  0  2  0  0  0  0  0  0
  193.8710  172.5520  135.7490 C   0  0  0  0  0  2  0  0  0  0  0  0
  194.8720  171.9360  136.7110 C   0  0  0  0  0  2  0  0  0  0  0  0
  195.0040  172.7930  137.9590 C   0  0  0  0  0  2  0  0  0  0  0  0
  196.7730  174.4640  136.4620 O   0  0  0  0  0  0  0  0  0  0  0  0
  196.4090  173.0250  138.2670 N   0  0  0  0  0  2  0  0  0  0  0  0
  197.2390  173.8870  137.4790 C   0  0  0  0  0  0  0  0  0  0  0  0
  199.5440  173.3800  137.3640 O   0  0  0  0  0  0  0  0  0  0  0  0
  198.9770  175.0990  138.7630 O   0  0  0  0  0  1  0  0  0  0  0  0
  198.6400  174.0970  137.8610 C   0  0  0  0  0  0  0  0  0  0  0  0
  188.6350  174.2040  136.8080 C   0  0  2  0  0  3  0  0  0  0  0  0
  187.1090  172.4310  137.3710 O   0  0  0  0  0  1  0  0  0  0  0  0
  188.2810  172.7200  136.6650 C   0  0  1  0  0  3  0  0  0  0  0  0
  188.1460  172.2940  135.2260 C   0  0  0  0  0  3  0  0  0  0  0  0
  186.9700  172.2290  134.5890 C   0  0  0  0  0  3  0  0  0  0  0  0
  185.6680  172.5800  135.2420 C   0  0  0  0  0  2  0  0  0  0  0  0
  184.7460  171.3740  135.2380 C   0  0  0  0  0  2  0  0  0  0  0  0
  182.9110  171.4250  136.9060 C   0  0  0  0  0  0  0  0  0  0  0  0
  182.4670  170.6600  135.6480 C   0  0  0  0  0  2  0  0  0  0  0  0
  182.3930  172.6690  137.2710 O   0  0  0  0  0  0  0  0  0  0  0  0
  183.3220  171.8280  135.4760 C   0  0  2  0  0  3  0  0  0  0  0  0
  181.6330  171.6100  137.4340 O   0  0  0  0  0  0  0  0  0  0  0  0
  187.3970  175.0980  136.9540 C   0  0  0  0  0  2  0  0  0  0  0  0
  187.1800  175.9470  135.7170 C   0  0  0  0  0  2  0  0  0  0  0  0
  185.8260  176.6330  135.8010 C   0  0  0  0  0  2  0  0  0  0  0  0
  184.8690  175.8810  136.7200 C   0  0  0  0  0  2  0  0  0  0  0  0
  184.1420  176.8280  137.6610 C   0  0  0  0  0  2  0  0  0  0  0  0
  184.9950  178.0570  137.9220 C   0  0  0  0  0  2  0  0  0  0  0  0
  184.7990  178.5160  139.2560 O   0  0  0  0  0  0  0  0  0  0  0  0
  181.0160  179.1740  140.9620 C   0  0  0  0  0  3  0  0  0  0  0  0
  181.2640  179.5950  139.6520 C   0  0  0  0  0  3  0  0  0  0  0  0
  182.0200  178.5290  141.6910 C   0  0  0  0  0  3  0  0  0  0  0  0
  183.5320  178.7380  139.8060 C   0  0  0  0  0  0  0  0  0  0  0  0
  182.5170  179.3790  139.0740 C   0  0  0  0  0  3  0  0  0  0  0  0
  183.2740  178.3110  141.1120 C   0  0  0  0  0  3  0  0  0  0  0  0
  1 28  1  0  0  0  0
  2  3  2  0  0  0  0
  3  1  2  0  0  0  0
  5  4  1  1  0  0  0
  5  1  1  0  0  0  0
  5  6  1  0  0  0  0
  6  8  1  0  0  0  0
  7  6  2  0  0  0  0
  8 10  1  0  0  0  0
  8  9  1  1  0  0  0
 10 11  1  0  0  0  0
 11 22  1  0  0  0  0
 12 27  1  6  0  0  0
 14 24  1  6  0  0  0
 14 19  1  0  0  0  0
 15 25  1  6  0  0  0
 15 18  1  0  0  0  0
 16 22  2  0  0  0  0
 16 13  1  0  0  0  0
 17 13  2  0  0  0  0
 18 20  1  0  0  0  0
 18 12  1  0  0  0  0
 19 12  1  0  0  0  0
 21 18  1  0  0  0  0
 22 25  1  0  0  0  0
 23 13  1  6  0  0  0
 23 15  1  0  0  0  0
 23 14  1  0  0  0  0
 27 26  1  0  0  0  0
 29 28  1  0  0  0  0
 29 30  1  0  0  0  0
 30 31  1  0  0  0  0
 31 33  1  0  0  0  0
 32 34  2  0  0  0  0
 34 37  1  0  0  0  0
 34 33  1  0  0  0  0
 35 37  2  0  0  0  0
 37 36  1  0  0  0  0
 38  2  1  6  0  0  0
 38 50  1  0  0  0  0
 40 38  1  0  0  0  0
 40 39  1  1  0  0  0
 41 40  1  0  0  0  0
 42 41  2  0  0  0  0
 42 43  1  0  0  0  0
 44 43  1  0  0  0  0
 45 47  1  0  0  0  0
 45 49  1  0  0  0  0
 46 45  1  0  0  0  0
 47 49  1  0  0  0  0
 48 44  1  1  0  0  0
 48 46  1  0  0  0  0
 48 45  1  0  0  0  0
 51 52  1  0  0  0  0
 51 50  1  0  0  0  0
 52 53  1  0  0  0  0
 53 54  1  0  0  0  0
 54 55  1  0  0  0  0
 55 56  1  0  0  0  0
 56 60  1  0  0  0  0
 57 59  1  0  0  0  0
 58 57  2  0  0  0  0
 60 62  1  0  0  0  0
 61 58  1  0  0  0  0
 61 60  2  0  0  0  0
 62 59  2  0  0  0  0
M  END
>  <MODEL>
8

>  <REMARK>
 VINA RESULT:      -5.6      2.665      7.487
  Name = 
  27 active torsions:
  status: ('A' for Active; 'I' for Inactive)
    1  A    between atoms: C_2  and  O_51
    2  A    between atoms: C_3  and  C_13
    3  A    between atoms: C_3  and  C_16
    4  A    between atoms: C_5  and  C_62
    5  A    between atoms: C_6  and  C_21
    6  A    between atoms: C_6  and  C_53
    7  A    between atoms: O_7  and  C_27
    8  A    between atoms: O_7  and  C_35
    9  A    between atoms: C_9  and  C_12
   10  A    between atoms: C_9  and  C_36
   11  A    between atoms: C_12  and  C_45
   12  A    between atoms: C_12  and  C_62
   13  A    between atoms: C_13  and  C_40
   14  A    between atoms: C_15  and  C_21
   15  A    between atoms: C_15  and  C_30
   16  A    between atoms: C_16  and  C_28
   17  A    between atoms: C_24  and  C_50
   18  A    between atoms: C_24  and  C_54
   19  A    between atoms: C_27  and  C_50
   20  A    between atoms: C_28  and  C_53
   21  A    between atoms: C_30  and  C_47
   22  A    between atoms: N_31  and  C_40
   23  A    between atoms: C_34  and  C_57
   24  A    between atoms: C_36  and  C_54
   25  A    between atoms: C_41  and  C_44
   26  A    between atoms: C_49  and  C_55
   27  A    between atoms: C_49  and  C_57
                            x       y       z     vdW  Elec       q    Type
                         _______ _______ _______ _____ _____    ______ ____

>  <TORSDO>
F 27

$$$$
=
 OpenBabel10232410093D

 62 66  0  0  1  0  0  0  0  0999 V2000
  187.0990  178.1100  140.2220 C   0  0  0  0  0  0  0  0  0  0  0  0
  185.6470  177.9560  142.3890 C   0  0  0  0  0  3  0  0  0  0  0  0
  186.3580  178.0270  141.2930 C   0  0  0  0  0  0  0  0  0  0  0  0
  185.4550  178.7040  138.4440 C   0  0  0  0  0  1  0  0  0  0  0  0
  186.5230  177.7180  138.8950 C   0  0  1  0  0  3  0  0  0  0  0  0
  187.5850  177.5570  137.8430 C   0  0  0  0  0  0  0  0  0  0  0  0
  188.3750  176.6250  137.8980 O   0  0  0  0  0  0  0  0  0  0  0  0
  187.7430  178.5790  136.7630 C   0  0  1  0  0  3  0  0  0  0  0  0
  188.8640  179.3740  137.0000 O   0  0  0  0  0  1  0  0  0  0  0  0
  187.8670  177.8850  135.4160 C   0  0  0  0  0  2  0  0  0  0  0  0
  186.5520  177.9060  134.6440 C   0  0  0  0  0  2  0  0  0  0  0  0
  184.8250  172.0430  136.0850 C   0  0  1  0  0  3  0  0  0  0  0  0
  183.4330  176.0770  135.8870 C   0  0  0  0  0  0  0  0  0  0  0  0
  183.0840  173.5720  136.3890 C   0  0  2  0  0  3  0  0  0  0  0  0
  185.1900  174.4240  135.3980 C   0  0  1  0  0  3  0  0  0  0  0  0
  184.3250  177.1230  135.3630 C   0  0  0  0  0  3  0  0  0  0  0  0
  182.2040  176.3170  136.0230 O   0  0  0  0  0  0  0  0  0  0  0  0
  185.8920  173.1360  135.8280 C   0  0  0  0  0  0  0  0  0  0  0  0
  183.7340  172.4230  136.9100 O   0  0  0  0  0  0  0  0  0  0  0  0
  186.8740  172.6970  134.7540 C   0  0  0  0  0  1  0  0  0  0  0  0
  186.6720  173.3610  137.1160 C   0  0  0  0  0  1  0  0  0  0  0  0
  185.6050  176.8350  135.0910 C   0  0  0  0  0  0  0  0  0  0  0  0
  184.0420  174.7710  136.3460 C   0  0  1  0  0  3  0  0  0  0  0  0
  181.9810  173.8650  137.1960 O   0  0  0  0  0  1  0  0  0  0  0  0
  186.0860  175.5280  135.2600 O   0  0  0  0  0  0  0  0  0  0  0  0
  184.7880  169.8680  135.3440 C   0  0  0  0  0  1  0  0  0  0  0  0
  184.4710  171.1930  135.0120 O   0  0  0  0  0  0  0  0  0  0  0  0
  188.4660  178.7140  140.3190 C   0  0  0  0  0  2  0  0  0  0  0  0
  189.4750  177.6960  140.8390 C   0  0  0  0  0  2  0  0  0  0  0  0
  190.5590  177.4560  139.8030 C   0  0  0  0  0  2  0  0  0  0  0  0
  191.9330  177.6920  140.4090 C   0  0  0  0  0  2  0  0  0  0  0  0
  193.3080  177.2100  137.9520 O   0  0  0  0  0  0  0  0  0  0  0  0
  192.8060  176.5580  140.1390 N   0  0  0  0  0  2  0  0  0  0  0  0
  193.4760  176.3810  138.8860 C   0  0  0  0  0  0  0  0  0  0  0  0
  194.0590  174.3320  137.8660 O   0  0  0  0  0  0  0  0  0  0  0  0
  195.5520  175.1320  139.4040 O   0  0  0  0  0  1  0  0  0  0  0  0
  194.3630  175.2300  138.6900 C   0  0  0  0  0  0  0  0  0  0  0  0
  185.6910  178.9990  143.4750 C   0  0  2  0  0  3  0  0  0  0  0  0
  185.4240  177.7890  145.5380 O   0  0  0  0  0  1  0  0  0  0  0  0
  186.3670  178.4240  144.7230 C   0  0  1  0  0  3  0  0  0  0  0  0
  187.4930  177.4790  144.3880 C   0  0  0  0  0  3  0  0  0  0  0  0
  188.5540  177.2940  145.1840 C   0  0  0  0  0  3  0  0  0  0  0  0
  188.7250  178.0020  146.4930 C   0  0  0  0  0  2  0  0  0  0  0  0
  189.4020  177.0820  147.4930 C   0  0  0  0  0  2  0  0  0  0  0  0
  191.7470  176.2800  147.6020 C   0  0  0  0  0  0  0  0  0  0  0  0
  191.5240  177.1070  146.3240 C   0  0  0  0  0  2  0  0  0  0  0  0
  191.9680  174.9010  147.5960 O   0  0  0  0  0  0  0  0  0  0  0  0
  190.4420  176.2430  146.7810 C   0  0  2  0  0  3  0  0  0  0  0  0
  192.9420  175.6860  147.1970 O   0  0  0  0  0  0  0  0  0  0  0  0
  184.3240  179.6260  143.7750 C   0  0  0  0  0  2  0  0  0  0  0  0
  183.2050  178.8670  143.0870 C   0  0  0  0  0  2  0  0  0  0  0  0
  181.8800  179.5640  143.3500 C   0  0  0  0  0  2  0  0  0  0  0  0
  180.9790  179.5450  142.1210 C   0  0  0  0  0  2  0  0  0  0  0  0
  181.4220  178.4860  141.1230 C   0  0  0  0  0  2  0  0  0  0  0  0
  180.5260  178.5210  139.8970 C   0  0  0  0  0  2  0  0  0  0  0  0
  181.2800  178.9020  138.7500 O   0  0  0  0  0  0  0  0  0  0  0  0
  180.3960  182.3040  136.4490 C   0  0  0  0  0  3  0  0  0  0  0  0
  180.7530  182.4540  137.7920 C   0  0  0  0  0  3  0  0  0  0  0  0
  180.3460  181.0290  135.8770 C   0  0  0  0  0  3  0  0  0  0  0  0
  180.9950  180.0460  137.9980 C   0  0  0  0  0  0  0  0  0  0  0  0
  181.0520  181.3300  138.5650 C   0  0  0  0  0  3  0  0  0  0  0  0
  180.6460  179.9030  136.6510 C   0  0  0  0  0  3  0  0  0  0  0  0
  1 28  1  0  0  0  0
  1  3  2  0  0  0  0
  3  2  2  0  0  0  0
  5  4  1  6  0  0  0
  5  1  1  0  0  0  0
  6  7  2  0  0  0  0
  6  5  1  0  0  0  0
  8  9  1  1  0  0  0
  8  6  1  0  0  0  0
 10  8  1  0  0  0  0
 11 22  1  0  0  0  0
 11 10  1  0  0  0  0
 12 27  1  6  0  0  0
 12 19  1  0  0  0  0
 13 17  2  0  0  0  0
 14 19  1  0  0  0  0
 14 24  1  1  0  0  0
 15 25  1  1  0  0  0
 15 18  1  0  0  0  0
 15 23  1  0  0  0  0
 16 13  1  0  0  0  0
 18 12  1  0  0  0  0
 18 21  1  0  0  0  0
 20 18  1  0  0  0  0
 22 25  1  0  0  0  0
 22 16  2  0  0  0  0
 23 13  1  6  0  0  0
 23 14  1  0  0  0  0
 27 26  1  0  0  0  0
 28 29  1  0  0  0  0
 30 31  1  0  0  0  0
 30 29  1  0  0  0  0
 32 34  2  0  0  0  0
 33 31  1  0  0  0  0
 34 33  1  0  0  0  0
 35 37  2  0  0  0  0
 37 34  1  0  0  0  0
 37 36  1  0  0  0  0
 38  2  1  6  0  0  0
 38 50  1  0  0  0  0
 38 40  1  0  0  0  0
 40 39  1  6  0  0  0
 41 40  1  0  0  0  0
 41 42  2  0  0  0  0
 42 43  1  0  0  0  0
 43 44  1  0  0  0  0
 46 48  1  0  0  0  0
 46 45  1  0  0  0  0
 47 45  1  0  0  0  0
 48 44  1  1  0  0  0
 48 45  1  0  0  0  0
 49 47  1  0  0  0  0
 49 45  1  0  0  0  0
 51 52  1  0  0  0  0
 51 50  1  0  0  0  0
 53 52  1  0  0  0  0
 54 53  1  0  0  0  0
 55 54  1  0  0  0  0
 56 55  1  0  0  0  0
 57 58  1  0  0  0  0
 58 61  2  0  0  0  0
 59 57  2  0  0  0  0
 59 62  1  0  0  0  0
 60 61  1  0  0  0  0
 60 56  1  0  0  0  0
 62 60  2  0  0  0  0
M  END
>  <MODEL>
9

>  <REMARK>
 VINA RESULT:      -5.5      2.473      9.433
  Name = 
  27 active torsions:
  status: ('A' for Active; 'I' for Inactive)
    1  A    between atoms: C_2  and  O_51
    2  A    between atoms: C_3  and  C_13
    3  A    between atoms: C_3  and  C_16
    4  A    between atoms: C_5  and  C_62
    5  A    between atoms: C_6  and  C_21
    6  A    between atoms: C_6  and  C_53
    7  A    between atoms: O_7  and  C_27
    8  A    between atoms: O_7  and  C_35
    9  A    between atoms: C_9  and  C_12
   10  A    between atoms: C_9  and  C_36
   11  A    between atoms: C_12  and  C_45
   12  A    between atoms: C_12  and  C_62
   13  A    between atoms: C_13  and  C_40
   14  A    between atoms: C_15  and  C_21
   15  A    between atoms: C_15  and  C_30
   16  A    between atoms: C_16  and  C_28
   17  A    between atoms: C_24  and  C_50
   18  A    between atoms: C_24  and  C_54
   19  A    between atoms: C_27  and  C_50
   20  A    between atoms: C_28  and  C_53
   21  A    between atoms: C_30  and  C_47
   22  A    between atoms: N_31  and  C_40
   23  A    between atoms: C_34  and  C_57
   24  A    between atoms: C_36  and  C_54
   25  A    between atoms: C_41  and  C_44
   26  A    between atoms: C_49  and  C_55
   27  A    between atoms: C_49  and  C_57
                            x       y       z     vdW  Elec       q    Type
                         _______ _______ _______ _____ _____    ______ ____

>  <TORSDO>
F 27

$$$$
