=
 OpenBabel10232409003D

 46 48  0  0  1  0  0  0  0  0999 V2000
  188.4940  177.5640  140.3850 N   0  0  0  0  0  2  0  0  0  0  0  0
  189.8290  177.6840  140.9560 C   0  0  2  0  0  3  0  0  0  0  0  0
  189.5270  177.2090  138.2000 C   0  0  0  0  0  3  0  0  0  0  0  0
  188.5680  178.0470  139.0080 C   0  0  1  0  0  3  0  0  0  0  0  0
  190.7710  176.6790  140.2800 C   0  0  0  0  0  2  0  0  0  0  0  0
  190.5860  176.6300  138.7750 C   0  0  0  0  0  0  0  0  0  0  0  0
  186.2240  178.5450  139.1790 N   0  0  0  0  0  0  0  0  0  0  0  0
  183.6910  176.7270  137.9900 N   0  0  0  0  0  0  0  0  0  0  0  0
  183.8760  178.1330  139.7500 C   0  0  0  0  0  0  0  0  0  0  0  0
  187.1940  178.1170  138.4200 C   0  0  0  0  0  0  0  0  0  0  0  0
  184.8350  178.6180  138.7190 C   0  0  2  0  0  3  0  0  0  0  0  0
  183.2150  177.0780  139.2830 C   0  0  0  0  0  3  0  0  0  0  0  0
  184.6060  177.5820  137.6740 C   0  0  0  0  0  0  0  0  0  0  0  0
  185.6480  177.2560  136.7550 N   0  0  0  0  0  0  0  0  0  0  0  0
  186.8800  177.5150  137.0900 C   0  0  0  0  0  3  0  0  0  0  0  0
  183.7620  178.6880  141.1400 C   0  0  1  0  0  3  0  0  0  0  0  0
  182.3180  178.7520  141.6090 C   0  0  0  0  0  1  0  0  0  0  0  0
  184.5420  177.8890  142.0520 N   0  0  0  0  0  0  0  0  0  0  0  0
  185.5120  178.4190  142.7040 C   0  0  0  0  0  3  0  0  0  0  0  0
  186.3730  177.5890  143.6000 C   0  0  0  0  0  2  0  0  0  0  0  0
  186.8340  178.3500  144.6770 O   0  0  0  0  0  0  0  0  0  0  0  0
  186.2250  177.7700  145.7940 C   0  0  0  0  0  2  0  0  0  0  0  0
  185.3430  178.7660  146.4630 C   0  0  0  0  0  0  0  0  0  0  0  0
  184.0050  178.8630  146.1020 O   0  0  0  0  0  0  0  0  0  0  0  0
  185.8150  179.5370  147.3390 O   0  0  0  0  0  1  0  0  0  0  0  0
  191.4520  175.8400  137.9510 N   0  0  0  0  0  2  0  0  0  0  0  0
  192.8780  175.9600  137.8570 C   0  0  0  0  0  0  0  0  0  0  0  0
  193.4750  176.9310  138.3930 O   0  0  0  0  0  0  0  0  0  0  0  0
  191.9450  173.4200  136.7820 O   0  0  0  0  0  0  0  0  0  0  0  0
  193.1360  173.7780  136.5660 C   0  0  0  0  0  0  0  0  0  0  0  0
  193.6430  175.0010  137.1210 N   0  0  0  0  0  2  0  0  0  0  0  0
  194.0170  172.9300  135.7450 C   0  0  0  0  0  0  0  0  0  0  0  0
  193.7210  171.6850  135.5560 N   0  0  0  0  0  2  0  0  0  0  0  0
  195.3000  173.4660  135.1930 C   0  0  0  0  0  2  0  0  0  0  0  0
  196.5140  172.9810  135.9940 C   0  0  0  0  0  2  0  0  0  0  0  0
  197.1860  175.4110  135.7950 C   0  0  0  0  0  1  0  0  0  0  0  0
  197.3910  174.1070  136.5520 C   0  0  1  0  0  3  0  0  0  0  0  0
  198.1490  174.8390  138.7800 C   0  0  0  0  0  2  0  0  0  0  0  0
  197.1990  174.2890  138.0270 C   0  0  0  0  0  3  0  0  0  0  0  0
  189.7580  177.4440  142.4240 C   0  0  0  0  0  3  0  0  0  0  0  0
  190.3820  178.2440  143.2790 C   0  0  0  0  0  3  0  0  0  0  0  0
  190.9720  176.8930  146.7650 N   0  0  0  0  0  2  0  0  0  0  0  0
  191.9030  176.3290  144.7000 O   0  0  0  0  0  0  0  0  0  0  0  0
  191.7670  175.9300  147.5090 C   0  0  0  0  0  1  0  0  0  0  0  0
  190.2740  178.0010  144.6780 N   0  0  0  0  0  2  0  0  0  0  0  0
  191.0890  177.0400  145.3500 C   0  0  0  0  0  0  0  0  0  0  0  0
  1  2  1  0  0  0  0
  2 40  1  1  0  0  0
  3  6  2  0  0  0  0
  3  4  1  0  0  0  0
  4 10  1  6  0  0  0
  4  1  1  0  0  0  0
  5  2  1  0  0  0  0
  6  5  1  0  0  0  0
  8 12  1  0  0  0  0
  9 16  1  0  0  0  0
 10  7  2  0  0  0  0
 11 13  1  6  0  0  0
 11  7  1  0  0  0  0
 11  9  1  0  0  0  0
 12  9  2  0  0  0  0
 13  8  2  0  0  0  0
 14 15  2  0  0  0  0
 14 13  1  0  0  0  0
 15 10  1  0  0  0  0
 16 17  1  1  0  0  0
 16 18  1  0  0  0  0
 18 19  2  0  0  0  0
 19 20  1  0  0  0  0
 20 21  1  0  0  0  0
 21 22  1  0  0  0  0
 22 23  1  0  0  0  0
 23 25  1  0  0  0  0
 24 23  2  0  0  0  0
 26  6  1  0  0  0  0
 27 26  1  0  0  0  0
 27 28  2  0  0  0  0
 30 29  2  0  0  0  0
 30 31  1  0  0  0  0
 31 27  1  0  0  0  0
 32 30  1  0  0  0  0
 33 32  2  0  0  0  0
 34 32  1  0  0  0  0
 34 35  1  0  0  0  0
 35 37  1  0  0  0  0
 37 36  1  6  0  0  0
 37 39  1  0  0  0  0
 39 38  2  0  0  0  0
 40 41  2  0  0  0  0
 41 45  1  0  0  0  0
 42 44  1  0  0  0  0
 43 46  2  0  0  0  0
 45 46  1  0  0  0  0
 46 42  1  0  0  0  0
M  END
>  <MODEL>
1

>  <REMARK>
 VINA RESULT:      -7.7      0.000      0.000
  Name = 
  15 active torsions:
  status: ('A' for Active; 'I' for Inactive)
    1  A    between atoms: N_1  and  C_15
    2  A    between atoms: C_2  and  C_17
    3  A    between atoms: C_3  and  C_36
    4  A    between atoms: C_3  and  C_42
    5  A    between atoms: C_7  and  C_20
    6  A    between atoms: N_8  and  C_30
    7  A    between atoms: C_9  and  C_41
    8  A    between atoms: O_13  and  C_17
    9  A    between atoms: O_13  and  C_41
   10  A    between atoms: C_15  and  C_16
   11  A    between atoms: C_18  and  C_19
   12  A    between atoms: C_24  and  C_28
   13  A    between atoms: C_28  and  C_39
   14  A    between atoms: N_34  and  C_38
   15  A    between atoms: C_36  and  C_39
                            x       y       z     vdW  Elec       q    Type
                         _______ _______ _______ _____ _____    ______ ____

>  <TORSDO>
F 15

$$$$
=
 OpenBabel10232409003D

 46 48  0  0  1  0  0  0  0  0999 V2000
  188.5880  177.4450  140.0880 N   0  0  0  0  0  2  0  0  0  0  0  0
  189.7740  177.9180  140.7920 C   0  0  2  0  0  3  0  0  0  0  0  0
  189.9460  177.2400  138.0680 C   0  0  0  0  0  3  0  0  0  0  0  0
  188.7220  177.8580  138.6930 C   0  0  1  0  0  3  0  0  0  0  0  0
  191.0050  177.1390  140.3090 C   0  0  0  0  0  2  0  0  0  0  0  0
  191.0290  176.9680  138.8020 C   0  0  0  0  0  0  0  0  0  0  0  0
  186.3930  178.2520  138.2510 N   0  0  0  0  0  0  0  0  0  0  0  0
  184.0260  175.9530  137.7520 N   0  0  0  0  0  0  0  0  0  0  0  0
  183.9750  178.0480  138.6000 C   0  0  0  0  0  0  0  0  0  0  0  0
  187.4560  177.5590  137.9520 C   0  0  0  0  0  0  0  0  0  0  0  0
  185.0940  178.0170  137.6170 C   0  0  2  0  0  3  0  0  0  0  0  0
  183.3660  176.8660  138.6200 C   0  0  0  0  0  3  0  0  0  0  0  0
  185.0000  176.5910  137.1950 C   0  0  0  0  0  0  0  0  0  0  0  0
  186.1620  175.9130  136.7190 N   0  0  0  0  0  0  0  0  0  0  0  0
  187.3340  176.3680  137.0610 C   0  0  0  0  0  3  0  0  0  0  0  0
  183.6630  179.2060  139.5040 C   0  0  1  0  0  3  0  0  0  0  0  0
  182.4120  179.9480  139.0630 C   0  0  0  0  0  1  0  0  0  0  0  0
  183.5080  178.7400  140.8600 N   0  0  0  0  0  0  0  0  0  0  0  0
  184.4450  178.9310  141.7150 C   0  0  0  0  0  3  0  0  0  0  0  0
  184.3310  178.3950  143.1050 C   0  0  0  0  0  2  0  0  0  0  0  0
  185.1930  179.0770  143.9660 O   0  0  0  0  0  0  0  0  0  0  0  0
  185.9550  178.0690  144.5620 C   0  0  0  0  0  2  0  0  0  0  0  0
  185.8930  178.1960  146.0450 C   0  0  0  0  0  0  0  0  0  0  0  0
  184.7980  178.8060  146.6450 O   0  0  0  0  0  0  0  0  0  0  0  0
  186.8430  177.7730  146.7540 O   0  0  0  0  0  1  0  0  0  0  0  0
  192.1560  176.3720  138.1470 N   0  0  0  0  0  2  0  0  0  0  0  0
  192.2160  175.0520  137.5910 C   0  0  0  0  0  0  0  0  0  0  0  0
  191.2890  174.2250  137.8030 O   0  0  0  0  0  0  0  0  0  0  0  0
  194.3700  176.7340  136.5860 O   0  0  0  0  0  0  0  0  0  0  0  0
  194.4130  175.4900  136.3780 C   0  0  0  0  0  0  0  0  0  0  0  0
  193.3460  174.6370  136.8160 N   0  0  0  0  0  2  0  0  0  0  0  0
  195.5660  174.9070  135.6690 C   0  0  0  0  0  0  0  0  0  0  0  0
  195.4040  173.8670  134.9180 N   0  0  0  0  0  2  0  0  0  0  0  0
  196.9450  175.4520  135.8720 C   0  0  0  0  0  2  0  0  0  0  0  0
  198.0210  174.3830  135.6440 C   0  0  0  0  0  2  0  0  0  0  0  0
  198.1970  174.6080  138.1560 C   0  0  0  0  0  1  0  0  0  0  0  0
  198.6290  173.8150  136.9310 C   0  0  1  0  0  3  0  0  0  0  0  0
  198.0590  171.5920  136.0350 C   0  0  0  0  0  2  0  0  0  0  0  0
  198.3410  172.3530  137.0900 C   0  0  0  0  0  3  0  0  0  0  0  0
  189.5750  177.7450  142.2580 C   0  0  0  0  0  3  0  0  0  0  0  0
  190.5330  178.0580  143.1200 C   0  0  0  0  0  3  0  0  0  0  0  0
  190.8180  176.9410  146.7250 N   0  0  0  0  0  2  0  0  0  0  0  0
  191.9340  176.2570  144.7920 O   0  0  0  0  0  0  0  0  0  0  0  0
  191.5500  176.0380  147.5980 C   0  0  0  0  0  1  0  0  0  0  0  0
  190.3020  177.9040  144.5170 N   0  0  0  0  0  2  0  0  0  0  0  0
  191.0600  176.9990  145.3200 C   0  0  0  0  0  0  0  0  0  0  0  0
  1  2  1  0  0  0  0
  2 40  1  1  0  0  0
  3  4  1  0  0  0  0
  3  6  2  0  0  0  0
  4 10  1  6  0  0  0
  4  1  1  0  0  0  0
  5  2  1  0  0  0  0
  6  5  1  0  0  0  0
  8 12  1  0  0  0  0
  9 12  2  0  0  0  0
  9 16  1  0  0  0  0
 10  7  2  0  0  0  0
 11 13  1  1  0  0  0
 11  7  1  0  0  0  0
 11  9  1  0  0  0  0
 13  8  2  0  0  0  0
 14 15  2  0  0  0  0
 14 13  1  0  0  0  0
 15 10  1  0  0  0  0
 16 17  1  6  0  0  0
 16 18  1  0  0  0  0
 18 19  2  0  0  0  0
 19 20  1  0  0  0  0
 20 21  1  0  0  0  0
 21 22  1  0  0  0  0
 22 23  1  0  0  0  0
 23 24  2  0  0  0  0
 23 25  1  0  0  0  0
 26  6  1  0  0  0  0
 27 28  2  0  0  0  0
 27 26  1  0  0  0  0
 30 29  2  0  0  0  0
 30 31  1  0  0  0  0
 31 27  1  0  0  0  0
 32 34  1  0  0  0  0
 32 30  1  0  0  0  0
 33 32  2  0  0  0  0
 35 34  1  0  0  0  0
 35 37  1  0  0  0  0
 37 39  1  0  0  0  0
 37 36  1  1  0  0  0
 38 39  2  0  0  0  0
 40 41  2  0  0  0  0
 41 45  1  0  0  0  0
 42 44  1  0  0  0  0
 43 46  2  0  0  0  0
 45 46  1  0  0  0  0
 46 42  1  0  0  0  0
M  END
>  <MODEL>
2

>  <REMARK>
 VINA RESULT:      -7.4      1.236      1.749
  Name = 
  15 active torsions:
  status: ('A' for Active; 'I' for Inactive)
    1  A    between atoms: N_1  and  C_15
    2  A    between atoms: C_2  and  C_17
    3  A    between atoms: C_3  and  C_36
    4  A    between atoms: C_3  and  C_42
    5  A    between atoms: C_7  and  C_20
    6  A    between atoms: N_8  and  C_30
    7  A    between atoms: C_9  and  C_41
    8  A    between atoms: O_13  and  C_17
    9  A    between atoms: O_13  and  C_41
   10  A    between atoms: C_15  and  C_16
   11  A    between atoms: C_18  and  C_19
   12  A    between atoms: C_24  and  C_28
   13  A    between atoms: C_28  and  C_39
   14  A    between atoms: N_34  and  C_38
   15  A    between atoms: C_36  and  C_39
                            x       y       z     vdW  Elec       q    Type
                         _______ _______ _______ _____ _____    ______ ____

>  <TORSDO>
F 15

$$$$
=
 OpenBabel10232409003D

 46 48  0  0  1  0  0  0  0  0999 V2000
  188.3930  177.7220  140.2490 N   0  0  0  0  0  2  0  0  0  0  0  0
  189.6220  178.1140  140.9290 C   0  0  2  0  0  3  0  0  0  0  0  0
  189.7180  177.2740  138.2470 C   0  0  0  0  0  3  0  0  0  0  0  0
  188.5630  178.0440  138.8340 C   0  0  1  0  0  3  0  0  0  0  0  0
  190.7690  177.1920  140.4930 C   0  0  0  0  0  2  0  0  0  0  0  0
  190.7720  176.9370  138.9980 C   0  0  0  0  0  0  0  0  0  0  0  0
  186.2010  178.4080  138.5780 N   0  0  0  0  0  0  0  0  0  0  0  0
  183.8940  176.1380  137.7650 N   0  0  0  0  0  0  0  0  0  0  0  0
  183.8130  178.0360  138.9910 C   0  0  0  0  0  0  0  0  0  0  0  0
  187.2710  177.8300  138.1070 C   0  0  0  0  0  0  0  0  0  0  0  0
  184.8800  178.2370  137.9700 C   0  0  2  0  0  3  0  0  0  0  0  0
  183.2490  176.8460  138.8170 C   0  0  0  0  0  3  0  0  0  0  0  0
  184.8150  176.9110  137.2940 C   0  0  0  0  0  0  0  0  0  0  0  0
  185.9740  176.3850  136.6480 N   0  0  0  0  0  0  0  0  0  0  0  0
  187.1450  176.8200  137.0160 C   0  0  0  0  0  3  0  0  0  0  0  0
  183.5090  178.9920  140.1070 C   0  0  1  0  0  3  0  0  0  0  0  0
  182.0140  179.1560  140.3210 C   0  0  0  0  0  1  0  0  0  0  0  0
  184.1340  178.5380  141.3240 N   0  0  0  0  0  0  0  0  0  0  0  0
  185.1560  179.1570  141.7920 C   0  0  0  0  0  3  0  0  0  0  0  0
  185.8570  178.6590  143.0130 C   0  0  0  0  0  2  0  0  0  0  0  0
  184.9480  178.0660  143.8930 O   0  0  0  0  0  0  0  0  0  0  0  0
  184.7580  179.0250  144.8920 C   0  0  0  0  0  2  0  0  0  0  0  0
  185.5470  178.6590  146.1010 C   0  0  0  0  0  0  0  0  0  0  0  0
  185.6170  179.5360  147.1770 O   0  0  0  0  0  1  0  0  0  0  0  0
  186.1690  177.5660  146.1400 O   0  0  0  0  0  0  0  0  0  0  0  0
  191.8320  176.1980  138.3780 N   0  0  0  0  0  2  0  0  0  0  0  0
  193.2340  176.3440  138.6380 C   0  0  0  0  0  0  0  0  0  0  0  0
  193.6590  177.2990  139.3410 O   0  0  0  0  0  0  0  0  0  0  0  0
  192.6550  173.8390  137.2710 O   0  0  0  0  0  0  0  0  0  0  0  0
  193.8530  174.2250  137.3650 C   0  0  0  0  0  0  0  0  0  0  0  0
  194.1790  175.4290  138.0730 N   0  0  0  0  0  2  0  0  0  0  0  0
  194.9280  173.4270  136.7500 C   0  0  0  0  0  0  0  0  0  0  0  0
  195.3480  173.7170  135.5620 N   0  0  0  0  0  2  0  0  0  0  0  0
  195.4860  172.2260  137.4470 C   0  0  0  0  0  2  0  0  0  0  0  0
  195.4180  170.9720  136.5690 C   0  0  0  0  0  2  0  0  0  0  0  0
  194.5960  168.5990  136.2700 C   0  0  0  0  0  1  0  0  0  0  0  0
  194.5770  169.8340  137.1590 C   0  0  1  0  0  3  0  0  0  0  0  0
  194.8800  168.2700  139.0380 C   0  0  0  0  0  2  0  0  0  0  0  0
  194.9810  169.5090  138.5640 C   0  0  0  0  0  3  0  0  0  0  0  0
  189.4110  178.0420  142.4010 C   0  0  0  0  0  3  0  0  0  0  0  0
  189.4840  176.8870  143.0480 C   0  0  0  0  0  3  0  0  0  0  0  0
  190.1420  176.9070  146.7750 N   0  0  0  0  0  2  0  0  0  0  0  0
  191.5850  176.8620  144.9410 O   0  0  0  0  0  0  0  0  0  0  0  0
  191.2140  176.9200  147.7560 C   0  0  0  0  0  1  0  0  0  0  0  0
  189.3010  176.8570  144.4610 N   0  0  0  0  0  2  0  0  0  0  0  0
  190.3990  176.8750  145.3720 C   0  0  0  0  0  0  0  0  0  0  0  0
  1  2  1  0  0  0  0
  2 40  1  1  0  0  0
  3  4  1  0  0  0  0
  3  6  2  0  0  0  0
  4 10  1  6  0  0  0
  4  1  1  0  0  0  0
  5  2  1  0  0  0  0
  6  5  1  0  0  0  0
  8 12  1  0  0  0  0
  9 16  1  0  0  0  0
 10  7  2  0  0  0  0
 11 13  1  6  0  0  0
 11  7  1  0  0  0  0
 11  9  1  0  0  0  0
 12  9  2  0  0  0  0
 13  8  2  0  0  0  0
 14 15  2  0  0  0  0
 14 13  1  0  0  0  0
 15 10  1  0  0  0  0
 16 17  1  1  0  0  0
 16 18  1  0  0  0  0
 18 19  2  0  0  0  0
 19 20  1  0  0  0  0
 20 21  1  0  0  0  0
 21 22  1  0  0  0  0
 22 23  1  0  0  0  0
 23 25  2  0  0  0  0
 23 24  1  0  0  0  0
 26 27  1  0  0  0  0
 26  6  1  0  0  0  0
 27 28  2  0  0  0  0
 29 30  2  0  0  0  0
 30 31  1  0  0  0  0
 31 27  1  0  0  0  0
 32 30  1  0  0  0  0
 32 34  1  0  0  0  0
 33 32  2  0  0  0  0
 35 37  1  0  0  0  0
 35 34  1  0  0  0  0
 37 36  1  6  0  0  0
 37 39  1  0  0  0  0
 39 38  2  0  0  0  0
 40 41  2  0  0  0  0
 41 45  1  0  0  0  0
 42 44  1  0  0  0  0
 43 46  2  0  0  0  0
 45 46  1  0  0  0  0
 46 42  1  0  0  0  0
M  END
>  <MODEL>
3

>  <REMARK>
 VINA RESULT:      -7.3      1.730      2.232
  Name = 
  15 active torsions:
  status: ('A' for Active; 'I' for Inactive)
    1  A    between atoms: N_1  and  C_15
    2  A    between atoms: C_2  and  C_17
    3  A    between atoms: C_3  and  C_36
    4  A    between atoms: C_3  and  C_42
    5  A    between atoms: C_7  and  C_20
    6  A    between atoms: N_8  and  C_30
    7  A    between atoms: C_9  and  C_41
    8  A    between atoms: O_13  and  C_17
    9  A    between atoms: O_13  and  C_41
   10  A    between atoms: C_15  and  C_16
   11  A    between atoms: C_18  and  C_19
   12  A    between atoms: C_24  and  C_28
   13  A    between atoms: C_28  and  C_39
   14  A    between atoms: N_34  and  C_38
   15  A    between atoms: C_36  and  C_39
                            x       y       z     vdW  Elec       q    Type
                         _______ _______ _______ _____ _____    ______ ____

>  <TORSDO>
F 15

$$$$
=
 OpenBabel10232409003D

 46 48  0  0  1  0  0  0  0  0999 V2000
  189.4050  177.7780  143.9600 N   0  0  0  0  0  2  0  0  0  0  0  0
  188.7240  177.2910  145.1530 C   0  0  2  0  0  3  0  0  0  0  0  0
  187.3400  177.4130  142.7080 C   0  0  0  0  0  3  0  0  0  0  0  0
  188.8090  177.0950  142.8140 C   0  0  1  0  0  3  0  0  0  0  0  0
  187.2730  177.7900  145.1590 C   0  0  0  0  0  2  0  0  0  0  0  0
  186.6120  177.6690  143.8000 C   0  0  0  0  0  0  0  0  0  0  0  0
  188.9130  177.6380  140.4760 N   0  0  0  0  0  0  0  0  0  0  0  0
  191.0530  176.4220  138.2230 N   0  0  0  0  0  0  0  0  0  0  0  0
  188.9340  177.1930  138.0650 C   0  0  0  0  0  0  0  0  0  0  0  0
  189.5820  177.4180  141.5730 C   0  0  0  0  0  0  0  0  0  0  0  0
  189.5670  177.9250  139.1970 C   0  0  2  0  0  3  0  0  0  0  0  0
  189.8230  176.3750  137.5110 C   0  0  0  0  0  3  0  0  0  0  0  0
  190.9110  177.2830  139.1740 C   0  0  0  0  0  0  0  0  0  0  0  0
  191.6830  177.2060  140.3720 N   0  0  0  0  0  0  0  0  0  0  0  0
  191.0670  177.2800  141.5180 C   0  0  0  0  0  3  0  0  0  0  0  0
  187.4840  177.2910  137.6890 C   0  0  1  0  0  3  0  0  0  0  0  0
  187.1790  178.5720  136.9310 C   0  0  0  0  0  1  0  0  0  0  0  0
  187.1060  176.1470  136.8960 N   0  0  0  0  0  0  0  0  0  0  0  0
  186.2240  176.2690  135.9720 C   0  0  0  0  0  3  0  0  0  0  0  0
  185.7710  175.0810  135.1880 C   0  0  0  0  0  2  0  0  0  0  0  0
  186.6000  173.9840  135.4370 O   0  0  0  0  0  0  0  0  0  0  0  0
  185.7160  172.9120  135.5930 C   0  0  0  0  0  2  0  0  0  0  0  0
  185.4610  172.6730  137.0410 C   0  0  0  0  0  0  0  0  0  0  0  0
  184.1820  172.3540  137.4780 O   0  0  0  0  0  0  0  0  0  0  0  0
  186.4000  172.7830  137.8720 O   0  0  0  0  0  1  0  0  0  0  0  0
  185.2220  177.9720  143.6270 N   0  0  0  0  0  2  0  0  0  0  0  0
  184.4190  178.7960  144.4820 C   0  0  0  0  0  0  0  0  0  0  0  0
  184.8640  179.1920  145.5920 O   0  0  0  0  0  0  0  0  0  0  0  0
  183.1530  178.3910  141.8910 O   0  0  0  0  0  0  0  0  0  0  0  0
  182.4800  178.8950  142.8320 C   0  0  0  0  0  0  0  0  0  0  0  0
  183.0840  179.1540  144.1070 N   0  0  0  0  0  2  0  0  0  0  0  0
  181.0620  179.2310  142.6170 C   0  0  0  0  0  0  0  0  0  0  0  0
  180.5590  180.2900  143.1630 N   0  0  0  0  0  2  0  0  0  0  0  0
  180.1660  178.3160  141.8420 C   0  0  0  0  0  2  0  0  0  0  0  0
  179.9910  178.7810  140.3910 C   0  0  0  0  0  2  0  0  0  0  0  0
  181.6200  178.4510  138.4860 C   0  0  0  0  0  1  0  0  0  0  0  0
  180.5430  177.8060  139.3450 C   0  0  1  0  0  3  0  0  0  0  0  0
  181.8870  175.7410  139.3330 C   0  0  0  0  0  2  0  0  0  0  0  0
  181.0230  176.5300  139.9670 C   0  0  0  0  0  3  0  0  0  0  0  0
  189.4560  177.7620  146.3620 C   0  0  0  0  0  3  0  0  0  0  0  0
  190.3150  176.9730  146.9930 C   0  0  0  0  0  3  0  0  0  0  0  0
  192.9460  177.4990  149.6620 N   0  0  0  0  0  2  0  0  0  0  0  0
  192.7680  175.9330  147.9400 O   0  0  0  0  0  0  0  0  0  0  0  0
  194.2200  176.9890  150.1420 C   0  0  0  0  0  1  0  0  0  0  0  0
  191.0160  177.4630  148.1320 N   0  0  0  0  0  2  0  0  0  0  0  0
  192.2680  176.9180  148.5490 C   0  0  0  0  0  0  0  0  0  0  0  0
  1  2  1  0  0  0  0
  2  5  1  0  0  0  0
  2 40  1  1  0  0  0
  3  4  1  0  0  0  0
  3  6  2  0  0  0  0
  4 10  1  6  0  0  0
  4  1  1  0  0  0  0
  6  5  1  0  0  0  0
  7 10  2  0  0  0  0
  8 13  2  0  0  0  0
 11  9  1  6  0  0  0
 11  7  1  0  0  0  0
 12  9  2  0  0  0  0
 12  8  1  0  0  0  0
 13 11  1  0  0  0  0
 13 14  1  0  0  0  0
 14 15  2  0  0  0  0
 15 10  1  0  0  0  0
 16 17  1  6  0  0  0
 16  9  1  0  0  0  0
 18 16  1  0  0  0  0
 19 18  2  0  0  0  0
 20 21  1  0  0  0  0
 20 19  1  0  0  0  0
 21 22  1  0  0  0  0
 22 23  1  0  0  0  0
 23 24  2  0  0  0  0
 23 25  1  0  0  0  0
 26  6  1  0  0  0  0
 26 27  1  0  0  0  0
 27 28  2  0  0  0  0
 29 30  2  0  0  0  0
 30 31  1  0  0  0  0
 31 27  1  0  0  0  0
 32 30  1  0  0  0  0
 32 33  2  0  0  0  0
 34 32  1  0  0  0  0
 35 34  1  0  0  0  0
 37 36  1  1  0  0  0
 37 39  1  0  0  0  0
 37 35  1  0  0  0  0
 38 39  2  0  0  0  0
 40 41  2  0  0  0  0
 41 45  1  0  0  0  0
 42 44  1  0  0  0  0
 43 46  2  0  0  0  0
 45 46  1  0  0  0  0
 46 42  1  0  0  0  0
M  END
>  <MODEL>
4

>  <REMARK>
 VINA RESULT:      -7.0      3.726      9.891
  Name = 
  15 active torsions:
  status: ('A' for Active; 'I' for Inactive)
    1  A    between atoms: N_1  and  C_15
    2  A    between atoms: C_2  and  C_17
    3  A    between atoms: C_3  and  C_36
    4  A    between atoms: C_3  and  C_42
    5  A    between atoms: C_7  and  C_20
    6  A    between atoms: N_8  and  C_30
    7  A    between atoms: C_9  and  C_41
    8  A    between atoms: O_13  and  C_17
    9  A    between atoms: O_13  and  C_41
   10  A    between atoms: C_15  and  C_16
   11  A    between atoms: C_18  and  C_19
   12  A    between atoms: C_24  and  C_28
   13  A    between atoms: C_28  and  C_39
   14  A    between atoms: N_34  and  C_38
   15  A    between atoms: C_36  and  C_39
                            x       y       z     vdW  Elec       q    Type
                         _______ _______ _______ _____ _____    ______ ____

>  <TORSDO>
F 15

$$$$
=
 OpenBabel10232409003D

 46 48  0  0  1  0  0  0  0  0999 V2000
  185.7620  177.9540  143.6740 N   0  0  0  0  0  2  0  0  0  0  0  0
  187.1840  178.2660  143.7450 C   0  0  2  0  0  3  0  0  0  0  0  0
  185.7630  178.7630  141.3700 C   0  0  0  0  0  2  0  0  0  0  0  0
  185.1580  178.9040  142.7430 C   0  0  1  0  0  3  0  0  0  0  0  0
  187.8540  177.9240  142.4080 C   0  0  0  0  0  2  0  0  0  0  0  0
  187.0330  178.3740  141.2150 C   0  0  0  0  0  0  0  0  0  0  0  0
  183.0540  178.6330  141.6150 N   0  0  0  0  0  0  0  0  0  0  0  0
  180.1810  180.1760  142.3220 N   0  0  0  0  0  0  0  0  0  0  0  0
  181.0460  179.3480  140.4040 C   0  0  0  0  0  0  0  0  0  0  0  0
  183.6690  178.7520  142.7580 C   0  0  0  0  0  0  0  0  0  0  0  0
  181.5980  178.5170  141.5100 C   0  0  2  0  0  3  0  0  0  0  0  0
  180.2130  180.2560  140.9020 C   0  0  0  0  0  3  0  0  0  0  0  0
  180.9620  179.2080  142.6670 C   0  0  0  0  0  0  0  0  0  0  0  0
  181.5930  179.1770  143.9470 N   0  0  0  0  0  0  0  0  0  0  0  0
  182.8750  178.9510  144.0060 C   0  0  0  0  0  3  0  0  0  0  0  0
  181.4590  179.2390  138.9650 C   0  0  1  0  0  3  0  0  0  0  0  0
  182.6770  180.0950  138.6590 C   0  0  0  0  0  1  0  0  0  0  0  0
  181.7290  177.8620  138.6360 N   0  0  0  0  0  0  0  0  0  0  0  0
  182.8630  177.5310  138.1360 C   0  0  0  0  0  3  0  0  0  0  0  0
  183.1340  176.1200  137.7270 C   0  0  0  0  0  2  0  0  0  0  0  0
  184.3290  176.0390  137.0080 O   0  0  0  0  0  0  0  0  0  0  0  0
  184.3510  174.7290  136.5210 C   0  0  0  0  0  2  0  0  0  0  0  0
  185.3240  173.9150  137.3000 C   0  0  0  0  0  0  0  0  0  0  0  0
  186.6700  174.2620  137.3120 O   0  0  0  0  0  0  0  0  0  0  0  0
  184.9320  172.8990  137.9310 O   0  0  0  0  0  1  0  0  0  0  0  0
  187.5430  178.2530  139.8810 N   0  0  0  0  0  0  0  0  0  0  0  0
  188.8330  177.7520  139.5070 C   0  0  0  0  0  0  0  0  0  0  0  0
  189.7130  177.5320  140.3810 O   0  0  0  0  0  0  0  0  0  0  0  0
  187.0040  177.7960  137.2410 O   0  0  0  0  0  0  0  0  0  0  0  0
  188.2340  177.6040  137.0340 C   0  0  0  0  0  0  0  0  0  0  0  0
  189.1570  177.5280  138.1310 N   0  0  0  0  0  2  0  0  0  0  0  0
  188.7270  177.4460  135.6550 C   0  0  0  0  0  0  0  0  0  0  0  0
  187.9450  177.6990  134.6570 N   0  0  0  0  0  2  0  0  0  0  0  0
  190.1000  176.9140  135.3880 C   0  0  0  0  0  2  0  0  0  0  0  0
  190.0620  175.4810  134.8440 C   0  0  0  0  0  2  0  0  0  0  0  0
  189.8490  173.0060  135.3180 C   0  0  0  0  0  1  0  0  0  0  0  0
  189.8330  174.4070  135.9130 C   0  0  1  0  0  3  0  0  0  0  0  0
  192.0330  174.0460  136.9620 C   0  0  0  0  0  2  0  0  0  0  0  0
  190.7990  174.5350  137.0520 C   0  0  0  0  0  3  0  0  0  0  0  0
  187.7990  177.4970  144.8620 C   0  0  0  0  0  3  0  0  0  0  0  0
  188.9770  177.8420  145.3640 C   0  0  0  0  0  3  0  0  0  0  0  0
  191.4050  176.0590  147.6550 N   0  0  0  0  0  2  0  0  0  0  0  0
  191.6840  177.0470  145.5590 O   0  0  0  0  0  0  0  0  0  0  0  0
  192.8000  175.6680  147.7770 C   0  0  0  0  0  1  0  0  0  0  0  0
  189.5270  177.1000  146.4490 N   0  0  0  0  0  2  0  0  0  0  0  0
  190.9090  176.7490  146.5090 C   0  0  0  0  0  0  0  0  0  0  0  0
  1  2  1  0  0  0  0
  2 40  1  1  0  0  0
  3  4  1  0  0  0  0
  4 10  1  6  0  0  0
  4  1  1  0  0  0  0
  5  2  1  0  0  0  0
  6  3  1  0  0  0  0
  6  5  1  0  0  0  0
  7 10  2  0  0  0  0
  8 13  2  0  0  0  0
  9 12  2  0  0  0  0
 10 15  1  0  0  0  0
 11  9  1  6  0  0  0
 11  7  1  0  0  0  0
 11 13  1  0  0  0  0
 12  8  1  0  0  0  0
 13 14  1  0  0  0  0
 14 15  2  0  0  0  0
 16 17  1  1  0  0  0
 16  9  1  0  0  0  0
 18 16  1  0  0  0  0
 19 18  2  0  0  0  0
 20 19  1  0  0  0  0
 21 20  1  0  0  0  0
 22 21  1  0  0  0  0
 22 23  1  0  0  0  0
 23 24  2  0  0  0  0
 23 25  1  0  0  0  0
 26  6  2  0  0  0  0
 27 26  1  0  0  0  0
 27 28  2  0  0  0  0
 30 29  2  0  0  0  0
 30 31  1  0  0  0  0
 31 27  1  0  0  0  0
 32 30  1  0  0  0  0
 33 32  2  0  0  0  0
 34 32  1  0  0  0  0
 35 34  1  0  0  0  0
 35 37  1  0  0  0  0
 37 36  1  6  0  0  0
 37 39  1  0  0  0  0
 38 39  2  0  0  0  0
 40 41  2  0  0  0  0
 41 45  1  0  0  0  0
 42 44  1  0  0  0  0
 43 46  2  0  0  0  0
 45 46  1  0  0  0  0
 46 42  1  0  0  0  0
M  END
>  <MODEL>
5

>  <REMARK>
 VINA RESULT:      -6.9      3.462      6.050
  Name = 
  15 active torsions:
  status: ('A' for Active; 'I' for Inactive)
    1  A    between atoms: N_1  and  C_15
    2  A    between atoms: C_2  and  C_17
    3  A    between atoms: C_3  and  C_36
    4  A    between atoms: C_3  and  C_42
    5  A    between atoms: C_7  and  C_20
    6  A    between atoms: N_8  and  C_30
    7  A    between atoms: C_9  and  C_41
    8  A    between atoms: O_13  and  C_17
    9  A    between atoms: O_13  and  C_41
   10  A    between atoms: C_15  and  C_16
   11  A    between atoms: C_18  and  C_19
   12  A    between atoms: C_24  and  C_28
   13  A    between atoms: C_28  and  C_39
   14  A    between atoms: N_34  and  C_38
   15  A    between atoms: C_36  and  C_39
                            x       y       z     vdW  Elec       q    Type
                         _______ _______ _______ _____ _____    ______ ____

>  <TORSDO>
F 15

$$$$
=
 OpenBabel10232409003D

 46 48  0  0  1  0  0  0  0  0999 V2000
  189.8570  176.2730  136.3160 N   0  0  0  0  0  2  0  0  0  0  0  0
  191.1030  175.6950  136.8040 C   0  0  2  0  0  3  0  0  0  0  0  0
  189.0030  176.2060  138.6030 C   0  0  0  0  0  3  0  0  0  0  0  0
  188.7850  175.7750  137.1750 C   0  0  1  0  0  3  0  0  0  0  0  0
  191.4450  176.2910  138.1750 C   0  0  0  0  0  2  0  0  0  0  0  0
  190.2370  176.3810  139.0880 C   0  0  0  0  0  0  0  0  0  0  0  0
  186.8370  177.1820  137.1960 N   0  0  0  0  0  0  0  0  0  0  0  0
  183.6680  176.2320  136.7630 N   0  0  0  0  0  0  0  0  0  0  0  0
  184.6160  177.9330  137.9120 C   0  0  0  0  0  0  0  0  0  0  0  0
  187.4570  176.1890  136.6220 C   0  0  0  0  0  0  0  0  0  0  0  0
  185.5180  177.6450  136.7610 C   0  0  2  0  0  3  0  0  0  0  0  0
  183.5550  177.1350  137.8560 C   0  0  0  0  0  3  0  0  0  0  0  0
  184.7710  176.5090  136.1520 C   0  0  0  0  0  0  0  0  0  0  0  0
  185.4710  175.5260  135.3910 N   0  0  0  0  0  0  0  0  0  0  0  0
  186.7480  175.3700  135.5950 C   0  0  0  0  0  3  0  0  0  0  0  0
  184.9250  178.8990  139.0190 C   0  0  1  0  0  3  0  0  0  0  0  0
  183.8000  179.8990  139.2280 C   0  0  0  0  0  1  0  0  0  0  0  0
  185.1780  178.1780  140.2410 N   0  0  0  0  0  0  0  0  0  0  0  0
  185.5600  178.8080  141.2920 C   0  0  0  0  0  3  0  0  0  0  0  0
  185.8920  178.0690  142.5460 C   0  0  0  0  0  2  0  0  0  0  0  0
  185.2840  178.6760  143.6480 O   0  0  0  0  0  0  0  0  0  0  0  0
  184.0470  179.1090  143.1640 C   0  0  0  0  0  2  0  0  0  0  0  0
  182.9770  178.7860  144.1490 C   0  0  0  0  0  0  0  0  0  0  0  0
  183.2320  178.8870  145.5110 O   0  0  0  0  0  1  0  0  0  0  0  0
  181.8480  178.3980  143.7480 O   0  0  0  0  0  0  0  0  0  0  0  0
  190.3720  176.8000  140.4510 N   0  0  0  0  0  2  0  0  0  0  0  0
  189.6690  177.8770  141.0840 C   0  0  0  0  0  0  0  0  0  0  0  0
  188.9750  178.6760  140.4010 O   0  0  0  0  0  0  0  0  0  0  0  0
  190.8650  176.0850  143.0430 O   0  0  0  0  0  0  0  0  0  0  0  0
  190.4120  177.2000  143.4250 C   0  0  0  0  0  0  0  0  0  0  0  0
  189.7730  178.0870  142.4960 N   0  0  0  0  0  2  0  0  0  0  0  0
  190.5320  177.5910  144.8400 C   0  0  0  0  0  0  0  0  0  0  0  0
  191.6510  177.4170  145.4650 N   0  0  0  0  0  2  0  0  0  0  0  0
  189.3490  178.1090  145.5950 C   0  0  0  0  0  2  0  0  0  0  0  0
  188.3210  177.0070  145.8730 C   0  0  0  0  0  2  0  0  0  0  0  0
  188.2560  177.8930  148.2410 C   0  0  0  0  0  1  0  0  0  0  0  0
  187.4580  177.2480  147.1170 C   0  0  1  0  0  3  0  0  0  0  0  0
  186.2500  179.3610  146.7300 C   0  0  0  0  0  2  0  0  0  0  0  0
  186.2210  178.0320  146.7980 C   0  0  0  0  0  3  0  0  0  0  0  0
  192.1870  175.9660  135.8190 C   0  0  0  0  0  2  0  0  0  0  0  0
  193.4610  175.7710  136.1330 C   0  0  0  0  0  3  0  0  0  0  0  0
  196.7950  175.9130  134.3480 N   0  0  0  0  0  2  0  0  0  0  0  0
  196.2130  175.2330  136.5040 O   0  0  0  0  0  0  0  0  0  0  0  0
  198.2080  175.6160  134.5190 C   0  0  0  0  0  1  0  0  0  0  0  0
  194.4720  176.0170  135.1600 N   0  0  0  0  0  0  0  0  0  0  0  0
  195.8450  175.6980  135.3900 C   0  0  0  0  0  0  0  0  0  0  0  0
  1  2  1  0  0  0  0
  1  4  1  0  0  0  0
  2 40  1  6  0  0  0
  2  5  1  0  0  0  0
  3  6  2  0  0  0  0
  4 10  1  6  0  0  0
  4  3  1  0  0  0  0
  5  6  1  0  0  0  0
  6 26  1  0  0  0  0
  8 12  1  0  0  0  0
  9 16  1  0  0  0  0
 10  7  2  0  0  0  0
 11 13  1  6  0  0  0
 11  7  1  0  0  0  0
 11  9  1  0  0  0  0
 12  9  2  0  0  0  0
 13  8  2  0  0  0  0
 14 15  2  0  0  0  0
 14 13  1  0  0  0  0
 15 10  1  0  0  0  0
 16 17  1  1  0  0  0
 16 18  1  0  0  0  0
 18 19  2  0  0  0  0
 19 20  1  0  0  0  0
 20 21  1  0  0  0  0
 22 21  1  0  0  0  0
 22 23  1  0  0  0  0
 23 24  1  0  0  0  0
 25 23  2  0  0  0  0
 26 27  1  0  0  0  0
 27 31  1  0  0  0  0
 28 27  2  0  0  0  0
 29 30  2  0  0  0  0
 30 32  1  0  0  0  0
 31 30  1  0  0  0  0
 32 33  2  0  0  0  0
 32 34  1  0  0  0  0
 34 35  1  0  0  0  0
 35 37  1  0  0  0  0
 37 36  1  1  0  0  0
 38 39  2  0  0  0  0
 39 37  1  0  0  0  0
 40 41  1  0  0  0  0
 42 44  1  0  0  0  0
 42 46  1  0  0  0  0
 45 46  1  0  0  0  0
 45 41  2  0  0  0  0
 46 43  2  0  0  0  0
M  END
>  <MODEL>
6

>  <REMARK>
 VINA RESULT:      -6.8      2.170      7.724
  Name = 
  15 active torsions:
  status: ('A' for Active; 'I' for Inactive)
    1  A    between atoms: N_1  and  C_15
    2  A    between atoms: C_2  and  C_17
    3  A    between atoms: C_3  and  C_36
    4  A    between atoms: C_3  and  C_42
    5  A    between atoms: C_7  and  C_20
    6  A    between atoms: N_8  and  C_30
    7  A    between atoms: C_9  and  C_41
    8  A    between atoms: O_13  and  C_17
    9  A    between atoms: O_13  and  C_41
   10  A    between atoms: C_15  and  C_16
   11  A    between atoms: C_18  and  C_19
   12  A    between atoms: C_24  and  C_28
   13  A    between atoms: C_28  and  C_39
   14  A    between atoms: N_34  and  C_38
   15  A    between atoms: C_36  and  C_39
                            x       y       z     vdW  Elec       q    Type
                         _______ _______ _______ _____ _____    ______ ____

>  <TORSDO>
F 15

$$$$
=
 OpenBabel10232409003D

 46 48  0  0  1  0  0  0  0  0999 V2000
  188.0690  177.7460  139.2050 N   0  0  0  0  0  2  0  0  0  0  0  0
  189.1400  178.3550  139.9840 C   0  0  2  0  0  3  0  0  0  0  0  0
  189.7190  177.1830  137.4940 C   0  0  0  0  0  3  0  0  0  0  0  0
  188.4250  177.8940  137.7950 C   0  0  1  0  0  3  0  0  0  0  0  0
  190.4170  177.5140  139.8520 C   0  0  0  0  0  2  0  0  0  0  0  0
  190.6710  177.0650  138.4250 C   0  0  0  0  0  0  0  0  0  0  0  0
  186.0720  177.6490  137.3730 N   0  0  0  0  0  0  0  0  0  0  0  0
  184.5260  174.9840  136.0920 N   0  0  0  0  0  0  0  0  0  0  0  0
  183.8600  176.6030  137.5220 C   0  0  0  0  0  0  0  0  0  0  0  0
  187.2830  177.4470  136.9350 C   0  0  0  0  0  0  0  0  0  0  0  0
  184.8840  177.2190  136.6320 C   0  0  2  0  0  3  0  0  0  0  0  0
  183.6550  175.3410  137.1580 C   0  0  0  0  0  3  0  0  0  0  0  0
  185.2230  176.0310  135.8000 C   0  0  0  0  0  0  0  0  0  0  0  0
  186.5150  175.9260  135.2040 N   0  0  0  0  0  0  0  0  0  0  0  0
  187.5000  176.6010  135.7250 C   0  0  0  0  0  3  0  0  0  0  0  0
  183.2430  177.2800  138.7120 C   0  0  1  0  0  3  0  0  0  0  0  0
  182.5970  176.2820  139.6590 C   0  0  0  0  0  1  0  0  0  0  0  0
  184.2440  178.0470  139.4110 N   0  0  0  0  0  0  0  0  0  0  0  0
  184.0790  178.3410  140.6490 C   0  0  0  0  0  3  0  0  0  0  0  0
  185.0720  179.1930  141.3690 C   0  0  0  0  0  2  0  0  0  0  0  0
  184.6770  179.3940  142.6940 O   0  0  0  0  0  0  0  0  0  0  0  0
  183.6210  178.4960  142.8780 C   0  0  0  0  0  2  0  0  0  0  0  0
  182.8940  178.8210  144.1370 C   0  0  0  0  0  0  0  0  0  0  0  0
  183.6040  179.1430  145.2870 O   0  0  0  0  0  1  0  0  0  0  0  0
  181.6360  178.7820  144.1650 O   0  0  0  0  0  0  0  0  0  0  0  0
  191.8740  176.3700  138.0750 N   0  0  0  0  0  2  0  0  0  0  0  0
  191.9850  174.9830  137.7290 C   0  0  0  0  0  0  0  0  0  0  0  0
  191.0060  174.2050  137.8820 O   0  0  0  0  0  0  0  0  0  0  0  0
  194.3430  176.4820  136.9080 O   0  0  0  0  0  0  0  0  0  0  0  0
  194.3780  175.2200  136.8860 C   0  0  0  0  0  0  0  0  0  0  0  0
  193.2190  174.4500  137.2380 N   0  0  0  0  0  2  0  0  0  0  0  0
  195.6170  174.5310  136.4870 C   0  0  0  0  0  0  0  0  0  0  0  0
  196.7620  174.9730  136.8950 N   0  0  0  0  0  2  0  0  0  0  0  0
  195.5790  173.3700  135.5430 C   0  0  0  0  0  2  0  0  0  0  0  0
  196.4120  172.1890  136.0550 C   0  0  0  0  0  2  0  0  0  0  0  0
  196.2910  169.6880  135.7060 C   0  0  0  0  0  1  0  0  0  0  0  0
  195.6060  170.9090  136.3000 C   0  0  1  0  0  3  0  0  0  0  0  0
  195.0220  169.5060  138.2400 C   0  0  0  0  0  2  0  0  0  0  0  0
  195.2920  170.7150  137.7520 C   0  0  0  0  0  3  0  0  0  0  0  0
  188.7140  178.4560  141.4070 C   0  0  0  0  0  3  0  0  0  0  0  0
  188.2920  177.3890  142.0730 C   0  0  0  0  0  3  0  0  0  0  0  0
  188.3600  177.3430  145.8570 N   0  0  0  0  0  2  0  0  0  0  0  0
  189.8990  176.6060  144.2650 O   0  0  0  0  0  0  0  0  0  0  0  0
  189.1890  176.9680  146.9910 C   0  0  0  0  0  1  0  0  0  0  0  0
  187.9140  177.5160  143.4410 N   0  0  0  0  0  2  0  0  0  0  0  0
  188.7780  177.1300  144.5100 C   0  0  0  0  0  0  0  0  0  0  0  0
  1  2  1  0  0  0  0
  2 40  1  1  0  0  0
  3  4  1  0  0  0  0
  3  6  2  0  0  0  0
  4 10  1  6  0  0  0
  4  1  1  0  0  0  0
  5  2  1  0  0  0  0
  6  5  1  0  0  0  0
  8 12  1  0  0  0  0
  9 16  1  0  0  0  0
 10  7  2  0  0  0  0
 11 13  1  6  0  0  0
 11  7  1  0  0  0  0
 11  9  1  0  0  0  0
 12  9  2  0  0  0  0
 13  8  2  0  0  0  0
 14 15  2  0  0  0  0
 14 13  1  0  0  0  0
 15 10  1  0  0  0  0
 16 18  1  0  0  0  0
 16 17  1  1  0  0  0
 18 19  2  0  0  0  0
 19 20  1  0  0  0  0
 20 21  1  0  0  0  0
 21 22  1  0  0  0  0
 22 23  1  0  0  0  0
 23 25  2  0  0  0  0
 23 24  1  0  0  0  0
 26  6  1  0  0  0  0
 27 28  2  0  0  0  0
 27 26  1  0  0  0  0
 30 29  2  0  0  0  0
 30 31  1  0  0  0  0
 31 27  1  0  0  0  0
 32 30  1  0  0  0  0
 32 33  2  0  0  0  0
 34 35  1  0  0  0  0
 34 32  1  0  0  0  0
 35 37  1  0  0  0  0
 37 36  1  1  0  0  0
 37 39  1  0  0  0  0
 39 38  2  0  0  0  0
 40 41  2  0  0  0  0
 41 45  1  0  0  0  0
 42 44  1  0  0  0  0
 43 46  2  0  0  0  0
 45 46  1  0  0  0  0
 46 42  1  0  0  0  0
M  END
>  <MODEL>
7

>  <REMARK>
 VINA RESULT:      -6.7      1.973      2.845
  Name = 
  15 active torsions:
  status: ('A' for Active; 'I' for Inactive)
    1  A    between atoms: N_1  and  C_15
    2  A    between atoms: C_2  and  C_17
    3  A    between atoms: C_3  and  C_36
    4  A    between atoms: C_3  and  C_42
    5  A    between atoms: C_7  and  C_20
    6  A    between atoms: N_8  and  C_30
    7  A    between atoms: C_9  and  C_41
    8  A    between atoms: O_13  and  C_17
    9  A    between atoms: O_13  and  C_41
   10  A    between atoms: C_15  and  C_16
   11  A    between atoms: C_18  and  C_19
   12  A    between atoms: C_24  and  C_28
   13  A    between atoms: C_28  and  C_39
   14  A    between atoms: N_34  and  C_38
   15  A    between atoms: C_36  and  C_39
                            x       y       z     vdW  Elec       q    Type
                         _______ _______ _______ _____ _____    ______ ____

>  <TORSDO>
F 15

$$$$
=
 OpenBabel10232409003D

 46 48  0  0  1  0  0  0  0  0999 V2000
  189.9680  176.5550  136.3740 N   0  0  0  0  0  2  0  0  0  0  0  0
  191.1250  175.8890  136.9580 C   0  0  2  0  0  3  0  0  0  0  0  0
  188.8660  176.4110  138.5490 C   0  0  0  0  0  3  0  0  0  0  0  0
  188.7870  176.0680  137.0830 C   0  0  1  0  0  3  0  0  0  0  0  0
  191.3420  176.3940  138.3910 C   0  0  0  0  0  2  0  0  0  0  0  0
  190.0460  176.4970  139.1720 C   0  0  0  0  0  0  0  0  0  0  0  0
  186.6490  177.1610  137.1580 N   0  0  0  0  0  0  0  0  0  0  0  0
  183.8710  176.2550  135.5470 N   0  0  0  0  0  0  0  0  0  0  0  0
  184.2280  177.3400  137.4980 C   0  0  0  0  0  0  0  0  0  0  0  0
  187.5480  176.5780  136.4160 C   0  0  0  0  0  0  0  0  0  0  0  0
  185.3840  177.6640  136.6170 C   0  0  2  0  0  3  0  0  0  0  0  0
  183.3680  176.5680  136.8400 C   0  0  0  0  0  3  0  0  0  0  0  0
  185.0040  176.8600  135.4210 C   0  0  0  0  0  0  0  0  0  0  0  0
  186.0170  176.3740  134.5410 N   0  0  0  0  0  0  0  0  0  0  0  0
  187.2310  176.2460  134.9960 C   0  0  0  0  0  3  0  0  0  0  0  0
  184.1150  177.7370  138.9410 C   0  0  1  0  0  3  0  0  0  0  0  0
  184.9090  178.9960  139.2460 C   0  0  0  0  0  1  0  0  0  0  0  0
  182.7300  177.9310  139.2890 N   0  0  0  0  0  0  0  0  0  0  0  0
  182.4180  178.5790  140.3520 C   0  0  0  0  0  3  0  0  0  0  0  0
  180.9900  178.7310  140.7620 C   0  0  0  0  0  2  0  0  0  0  0  0
  180.2350  179.2730  139.7200 O   0  0  0  0  0  0  0  0  0  0  0  0
  180.2030  180.6430  139.9930 C   0  0  0  0  0  2  0  0  0  0  0  0
  180.5870  181.4100  138.7750 C   0  0  0  0  0  0  0  0  0  0  0  0
  179.9820  182.6310  138.5030 O   0  0  0  0  0  1  0  0  0  0  0  0
  181.4430  180.9420  137.9790 O   0  0  0  0  0  0  0  0  0  0  0  0
  190.0490  176.8350  140.5650 N   0  0  0  0  0  2  0  0  0  0  0  0
  189.2640  177.8560  141.1930 C   0  0  0  0  0  0  0  0  0  0  0  0
  188.6100  178.6790  140.4990 O   0  0  0  0  0  0  0  0  0  0  0  0
  190.3330  175.9760  143.1440 O   0  0  0  0  0  0  0  0  0  0  0  0
  189.8180  177.0550  143.5480 C   0  0  0  0  0  0  0  0  0  0  0  0
  189.2380  177.9830  142.6190 N   0  0  0  0  0  2  0  0  0  0  0  0
  189.8020  177.3620  144.9890 C   0  0  0  0  0  0  0  0  0  0  0  0
  190.8960  177.2950  145.6750 N   0  0  0  0  0  2  0  0  0  0  0  0
  188.5180  177.6700  145.6940 C   0  0  0  0  0  2  0  0  0  0  0  0
  187.3150  177.0220  144.9980 C   0  0  0  0  0  2  0  0  0  0  0  0
  186.0150  178.5610  146.5260 C   0  0  0  0  0  1  0  0  0  0  0  0
  185.9820  177.7370  145.2470 C   0  0  1  0  0  3  0  0  0  0  0  0
  185.5470  178.0480  142.8420 C   0  0  0  0  0  2  0  0  0  0  0  0
  185.5600  178.5610  144.0700 C   0  0  0  0  0  3  0  0  0  0  0  0
  192.3220  176.1560  136.1130 C   0  0  0  0  0  3  0  0  0  0  0  0
  193.5300  176.2600  136.6500 C   0  0  0  0  0  3  0  0  0  0  0  0
  196.9560  176.0240  135.0590 N   0  0  0  0  0  2  0  0  0  0  0  0
  196.0300  174.9650  136.9220 O   0  0  0  0  0  0  0  0  0  0  0  0
  198.2360  175.3450  135.1740 C   0  0  0  0  0  1  0  0  0  0  0  0
  194.6580  176.4920  135.8110 N   0  0  0  0  0  2  0  0  0  0  0  0
  195.8890  175.7880  135.9750 C   0  0  0  0  0  0  0  0  0  0  0  0
  1  2  1  0  0  0  0
  1  4  1  0  0  0  0
  2 40  1  6  0  0  0
  2  5  1  0  0  0  0
  3  6  2  0  0  0  0
  4 10  1  6  0  0  0
  4  3  1  0  0  0  0
  5  6  1  0  0  0  0
  6 26  1  0  0  0  0
  8 12  1  0  0  0  0
  9 16  1  0  0  0  0
 10  7  2  0  0  0  0
 11 13  1  6  0  0  0
 11  7  1  0  0  0  0
 11  9  1  0  0  0  0
 12  9  2  0  0  0  0
 13  8  2  0  0  0  0
 14 15  2  0  0  0  0
 14 13  1  0  0  0  0
 15 10  1  0  0  0  0
 16 17  1  6  0  0  0
 16 18  1  0  0  0  0
 18 19  2  0  0  0  0
 19 20  1  0  0  0  0
 21 22  1  0  0  0  0
 21 20  1  0  0  0  0
 23 22  1  0  0  0  0
 24 23  1  0  0  0  0
 25 23  2  0  0  0  0
 26 27  1  0  0  0  0
 27 31  1  0  0  0  0
 28 27  2  0  0  0  0
 29 30  2  0  0  0  0
 30 32  1  0  0  0  0
 31 30  1  0  0  0  0
 32 33  2  0  0  0  0
 32 34  1  0  0  0  0
 35 37  1  0  0  0  0
 35 34  1  0  0  0  0
 37 36  1  1  0  0  0
 38 39  2  0  0  0  0
 39 37  1  0  0  0  0
 40 41  2  0  0  0  0
 42 44  1  0  0  0  0
 42 46  1  0  0  0  0
 45 46  1  0  0  0  0
 45 41  1  0  0  0  0
 46 43  2  0  0  0  0
M  END
>  <MODEL>
8

>  <REMARK>
 VINA RESULT:      -6.7      2.936      8.211
  Name = 
  15 active torsions:
  status: ('A' for Active; 'I' for Inactive)
    1  A    between atoms: N_1  and  C_15
    2  A    between atoms: C_2  and  C_17
    3  A    between atoms: C_3  and  C_36
    4  A    between atoms: C_3  and  C_42
    5  A    between atoms: C_7  and  C_20
    6  A    between atoms: N_8  and  C_30
    7  A    between atoms: C_9  and  C_41
    8  A    between atoms: O_13  and  C_17
    9  A    between atoms: O_13  and  C_41
   10  A    between atoms: C_15  and  C_16
   11  A    between atoms: C_18  and  C_19
   12  A    between atoms: C_24  and  C_28
   13  A    between atoms: C_28  and  C_39
   14  A    between atoms: N_34  and  C_38
   15  A    between atoms: C_36  and  C_39
                            x       y       z     vdW  Elec       q    Type
                         _______ _______ _______ _____ _____    ______ ____

>  <TORSDO>
F 15

$$$$
=
 OpenBabel10232409003D

 46 48  0  0  1  0  0  0  0  0999 V2000
  190.7930  176.8210  137.2640 N   0  0  0  0  0  2  0  0  0  0  0  0
  191.8490  176.2050  138.0580 C   0  0  2  0  0  3  0  0  0  0  0  0
  189.3030  176.5980  139.1860 C   0  0  0  0  0  3  0  0  0  0  0  0
  189.5240  176.2680  137.7320 C   0  0  1  0  0  3  0  0  0  0  0  0
  191.7610  176.7020  139.5070 C   0  0  0  0  0  2  0  0  0  0  0  0
  190.3350  176.7330  140.0250 C   0  0  0  0  0  0  0  0  0  0  0  0
  187.3580  177.2540  137.3970 N   0  0  0  0  0  0  0  0  0  0  0  0
  184.9920  176.2340  135.2760 N   0  0  0  0  0  0  0  0  0  0  0  0
  184.9100  177.3070  137.2650 C   0  0  0  0  0  0  0  0  0  0  0  0
  188.4120  176.7260  136.8400 C   0  0  0  0  0  0  0  0  0  0  0  0
  186.1970  177.7000  136.6240 C   0  0  2  0  0  3  0  0  0  0  0  0
  184.2350  176.5030  136.4500 C   0  0  0  0  0  3  0  0  0  0  0  0
  186.0960  176.8960  135.3740 C   0  0  0  0  0  0  0  0  0  0  0  0
  187.2830  176.4730  134.7040 N   0  0  0  0  0  0  0  0  0  0  0  0
  188.3920  176.3990  135.3840 C   0  0  0  0  0  3  0  0  0  0  0  0
  184.5020  177.6780  138.6610 C   0  0  1  0  0  3  0  0  0  0  0  0
  184.3360  179.1790  138.8230 C   0  0  0  0  0  1  0  0  0  0  0  0
  183.2740  177.0050  139.0060 N   0  0  0  0  0  0  0  0  0  0  0  0
  182.2370  177.6880  139.3310 C   0  0  0  0  0  3  0  0  0  0  0  0
  180.9780  177.0070  139.7570 C   0  0  0  0  0  2  0  0  0  0  0  0
  180.3530  176.4020  138.6640 O   0  0  0  0  0  0  0  0  0  0  0  0
  180.3860  175.0360  138.9600 C   0  0  0  0  0  2  0  0  0  0  0  0
  180.6050  174.2530  137.7120 C   0  0  0  0  0  0  0  0  0  0  0  0
  181.0470  174.8900  136.5590 O   0  0  0  0  0  0  0  0  0  0  0  0
  180.3690  173.0160  137.6950 O   0  0  0  0  0  1  0  0  0  0  0  0
  190.0550  177.0540  141.3930 N   0  0  0  0  0  2  0  0  0  0  0  0
  189.1400  178.0540  141.8610 C   0  0  0  0  0  0  0  0  0  0  0  0
  188.6220  178.8730  141.0580 O   0  0  0  0  0  0  0  0  0  0  0  0
  189.8350  176.1690  143.9700 O   0  0  0  0  0  0  0  0  0  0  0  0
  189.2290  177.2340  144.2720 C   0  0  0  0  0  0  0  0  0  0  0  0
  188.8280  178.1620  143.2540 N   0  0  0  0  0  2  0  0  0  0  0  0
  188.9210  177.5230  145.6840 C   0  0  0  0  0  0  0  0  0  0  0  0
  189.8810  177.6980  146.5310 N   0  0  0  0  0  2  0  0  0  0  0  0
  187.5060  177.5330  146.1730 C   0  0  0  0  0  2  0  0  0  0  0  0
  186.5080  177.2610  145.0420 C   0  0  0  0  0  2  0  0  0  0  0  0
  185.4040  178.4200  143.0840 C   0  0  0  0  0  1  0  0  0  0  0  0
  185.7410  178.5000  144.5660 C   0  0  1  0  0  3  0  0  0  0  0  0
  183.3420  178.9930  144.8270 C   0  0  0  0  0  2  0  0  0  0  0  0
  184.5210  178.7570  145.3960 C   0  0  0  0  0  3  0  0  0  0  0  0
  193.1700  176.5400  137.4600 C   0  0  0  0  0  3  0  0  0  0  0  0
  193.8620  175.6360  136.7780 C   0  0  0  0  0  3  0  0  0  0  0  0
  197.4430  175.5200  135.5610 N   0  0  0  0  0  2  0  0  0  0  0  0
  196.1750  174.0080  136.8080 O   0  0  0  0  0  0  0  0  0  0  0  0
  198.6300  174.6800  135.5480 C   0  0  0  0  0  1  0  0  0  0  0  0
  195.1120  175.9950  136.1970 N   0  0  0  0  0  2  0  0  0  0  0  0
  196.2410  175.1210  136.2170 C   0  0  0  0  0  0  0  0  0  0  0  0
  1  4  1  0  0  0  0
  1  2  1  0  0  0  0
  2 40  1  6  0  0  0
  2  5  1  0  0  0  0
  3  6  2  0  0  0  0
  4 10  1  6  0  0  0
  4  3  1  0  0  0  0
  5  6  1  0  0  0  0
  6 26  1  0  0  0  0
  8 13  2  0  0  0  0
  8 12  1  0  0  0  0
  9 16  1  0  0  0  0
 10  7  2  0  0  0  0
 11 13  1  6  0  0  0
 11  9  1  0  0  0  0
 11  7  1  0  0  0  0
 12  9  2  0  0  0  0
 14 13  1  0  0  0  0
 14 15  2  0  0  0  0
 15 10  1  0  0  0  0
 16 17  1  6  0  0  0
 16 18  1  0  0  0  0
 18 19  2  0  0  0  0
 19 20  1  0  0  0  0
 21 22  1  0  0  0  0
 21 20  1  0  0  0  0
 23 22  1  0  0  0  0
 24 23  2  0  0  0  0
 25 23  1  0  0  0  0
 26 27  1  0  0  0  0
 27 31  1  0  0  0  0
 28 27  2  0  0  0  0
 29 30  2  0  0  0  0
 30 32  1  0  0  0  0
 31 30  1  0  0  0  0
 32 34  1  0  0  0  0
 32 33  2  0  0  0  0
 35 34  1  0  0  0  0
 37 36  1  6  0  0  0
 37 35  1  0  0  0  0
 37 39  1  0  0  0  0
 38 39  2  0  0  0  0
 41 40  2  0  0  0  0
 42 46  1  0  0  0  0
 44 42  1  0  0  0  0
 45 46  1  0  0  0  0
 45 41  1  0  0  0  0
 46 43  2  0  0  0  0
M  END
>  <MODEL>
9

>  <REMARK>
 VINA RESULT:      -6.7      3.239      8.703
  Name = 
  15 active torsions:
  status: ('A' for Active; 'I' for Inactive)
    1  A    between atoms: N_1  and  C_15
    2  A    between atoms: C_2  and  C_17
    3  A    between atoms: C_3  and  C_36
    4  A    between atoms: C_3  and  C_42
    5  A    between atoms: C_7  and  C_20
    6  A    between atoms: N_8  and  C_30
    7  A    between atoms: C_9  and  C_41
    8  A    between atoms: O_13  and  C_17
    9  A    between atoms: O_13  and  C_41
   10  A    between atoms: C_15  and  C_16
   11  A    between atoms: C_18  and  C_19
   12  A    between atoms: C_24  and  C_28
   13  A    between atoms: C_28  and  C_39
   14  A    between atoms: N_34  and  C_38
   15  A    between atoms: C_36  and  C_39
                            x       y       z     vdW  Elec       q    Type
                         _______ _______ _______ _____ _____    ______ ____

>  <TORSDO>
F 15

$$$$
