=
 OpenBabel10232412303D

 29 32  0  0  1  0  0  0  0  0999 V2000
  190.3110  177.3510  144.3830 C   0  0  0  0  0  3  0  0  0  0  0  0
  189.0510  177.7570  146.4130 C   0  0  0  0  0  0  0  0  0  0  0  0
  186.3790  177.3940  143.3700 S   0  0  0  0  0  0  0  0  0  0  0  0
  187.8640  177.7740  145.6730 C   0  0  0  0  0  3  0  0  0  0  0  0
  190.2720  177.5270  145.7700 C   0  0  0  0  0  3  0  0  0  0  0  0
  188.1810  178.0040  141.3970 C   0  0  2  0  0  3  0  0  0  0  0  0
  186.9600  178.2690  141.9030 C   0  0  1  0  0  3  0  0  0  0  0  0
  189.1290  177.3890  143.6390 C   0  0  0  0  0  0  0  0  0  0  0  0
  187.9030  177.5860  144.2880 C   0  0  0  0  0  0  0  0  0  0  0  0
  189.1920  177.3880  142.2090 N   0  0  0  0  0  2  0  0  0  0  0  0
  189.0130  177.9500  147.8340 C   0  0  0  0  0  0  0  0  0  0  0  0
  188.9830  178.1070  148.9810 N   0  0  0  0  0  0  0  0  0  0  0  0
  185.9900  179.1480  141.1730 C   0  0  2  0  0  3  0  0  0  0  0  0
  185.3220  179.9650  142.0680 F   0  0  0  0  0  0  0  0  0  0  0  0
  184.9990  178.3060  140.3830 C   0  0  0  0  0  2  0  0  0  0  0  0
  184.7480  178.9120  139.0130 C   0  0  0  0  0  2  0  0  0  0  0  0
  182.9190  180.1370  138.8500 C   0  0  0  0  0  1  0  0  0  0  0  0
  184.2790  180.2200  139.1450 O   0  0  0  0  0  0  0  0  0  0  0  0
  188.5880  178.5110  140.0460 C   0  0  0  0  0  2  0  0  0  0  0  0
  190.0650  176.7520  139.0400 C   0  0  0  0  0  3  0  0  0  0  0  0
  189.7360  174.0520  136.3210 S   0  0  0  0  0  0  0  0  0  0  0  0
  191.2780  174.0800  137.0200 C   0  0  0  0  0  0  0  0  0  0  0  0
  192.3350  173.2050  136.6470 N   0  0  0  0  0  1  0  0  0  0  0  0
  190.2500  175.7120  138.1310 C   0  0  0  0  0  0  0  0  0  0  0  0
  189.2130  175.3130  137.2990 C   0  0  0  0  0  0  0  0  0  0  0  0
  187.7630  176.9640  138.2490 C   0  0  0  0  0  3  0  0  0  0  0  0
  191.4110  175.0250  137.9810 N   0  0  0  0  0  0  0  0  0  0  0  0
  187.9600  175.9170  137.3360 C   0  0  0  0  0  3  0  0  0  0  0  0
  188.8080  177.3790  139.1000 C   0  0  0  0  0  0  0  0  0  0  0  0
  1  5  1  0  0  0  0
  2 11  1  0  0  0  0
  3  9  1  0  0  0  0
  4  2  1  0  0  0  0
  5  2  2  0  0  0  0
  6 19  1  1  0  0  0
  6  7  1  0  0  0  0
  6 10  1  0  0  0  0
  7 13  1  6  0  0  0
  7  3  1  0  0  0  0
  8  9  1  0  0  0  0
  8  1  2  0  0  0  0
  9  4  2  0  0  0  0
 10  8  1  0  0  0  0
 11 12  3  0  0  0  0
 13 14  1  1  0  0  0
 15 13  1  0  0  0  0
 16 18  1  0  0  0  0
 16 15  1  0  0  0  0
 17 18  1  0  0  0  0
 20 29  1  0  0  0  0
 21 22  1  0  0  0  0
 21 25  1  0  0  0  0
 22 27  2  0  0  0  0
 23 22  1  0  0  0  0
 24 20  2  0  0  0  0
 25 28  2  0  0  0  0
 25 24  1  0  0  0  0
 26 29  2  0  0  0  0
 27 24  1  0  0  0  0
 28 26  1  0  0  0  0
 29 19  1  0  0  0  0
M  END
>  <MODEL>
1

>  <REMARK>
 VINA RESULT:      -7.3      0.000      0.000
  Name = 
  7 active torsions:
  status: ('A' for Active; 'I' for Inactive)
    1  A    between atoms: C_2  and  C_5
    2  A    between atoms: C_7  and  C_21
    3  A    between atoms: C_7  and  O_28
    4  A    between atoms: C_12  and  C_16
    5  A    between atoms: C_12  and  C_29
    6  A    between atoms: C_13  and  C_18
    7  A    between atoms: C_13  and  C_21
                            x       y       z     vdW  Elec       q    Type
                         _______ _______ _______ _____ _____    ______ ____

>  <TORSDO>
F 7

$$$$
=
 OpenBabel10232412303D

 29 32  0  0  1  0  0  0  0  0999 V2000
  188.6210  178.3710  141.4670 C   0  0  0  0  0  3  0  0  0  0  0  0
  188.9470  177.6770  139.1680 C   0  0  0  0  0  0  0  0  0  0  0  0
  185.0930  178.9170  139.5310 S   0  0  0  0  0  0  0  0  0  0  0  0
  187.5980  177.9280  138.9010 C   0  0  0  0  0  3  0  0  0  0  0  0
  189.4630  177.9160  140.4470 C   0  0  0  0  0  3  0  0  0  0  0  0
  184.9830  178.5590  142.2460 C   0  0  2  0  0  3  0  0  0  0  0  0
  184.3700  178.3140  141.0710 C   0  0  1  0  0  3  0  0  0  0  0  0
  187.2670  178.6020  141.2070 C   0  0  0  0  0  0  0  0  0  0  0  0
  186.7600  178.3940  139.9170 C   0  0  0  0  0  0  0  0  0  0  0  0
  186.3780  178.8930  142.2900 N   0  0  0  0  0  2  0  0  0  0  0  0
  189.8090  177.1980  138.1260 C   0  0  0  0  0  0  0  0  0  0  0  0
  190.5050  176.8120  137.2840 N   0  0  0  0  0  0  0  0  0  0  0  0
  183.0030  177.7020  141.0190 C   0  0  2  0  0  3  0  0  0  0  0  0
  182.9900  176.6440  140.1270 F   0  0  0  0  0  0  0  0  0  0  0  0
  181.9690  178.7450  140.6190 C   0  0  0  0  0  2  0  0  0  0  0  0
  180.7880  178.7250  141.5730 C   0  0  0  0  0  2  0  0  0  0  0  0
  180.5000  178.7020  143.7620 C   0  0  0  0  0  1  0  0  0  0  0  0
  181.0970  179.4330  142.7360 O   0  0  0  0  0  0  0  0  0  0  0  0
  184.2870  178.3060  143.5510 C   0  0  0  0  0  2  0  0  0  0  0  0
  186.4950  177.6160  144.5180 C   0  0  0  0  0  3  0  0  0  0  0  0
  188.3040  177.9920  147.8910 S   0  0  0  0  0  0  0  0  0  0  0  0
  189.2200  177.1270  146.7600 C   0  0  0  0  0  0  0  0  0  0  0  0
  190.5130  176.5980  147.0240 N   0  0  0  0  0  1  0  0  0  0  0  0
  187.3820  177.5870  145.5940 C   0  0  0  0  0  0  0  0  0  0  0  0
  187.0490  178.1970  146.7950 C   0  0  0  0  0  0  0  0  0  0  0  0
  184.9400  178.8940  145.9020 C   0  0  0  0  0  3  0  0  0  0  0  0
  188.5980  176.9860  145.5670 N   0  0  0  0  0  0  0  0  0  0  0  0
  185.8380  178.8590  146.9800 C   0  0  0  0  0  3  0  0  0  0  0  0
  185.2660  178.2800  144.6760 C   0  0  0  0  0  0  0  0  0  0  0  0
  2  5  1  0  0  0  0
  3  9  1  0  0  0  0
  3  7  1  0  0  0  0
  4  2  2  0  0  0  0
  4  9  1  0  0  0  0
  5  1  2  0  0  0  0
  6 10  1  0  0  0  0
  6 19  1  1  0  0  0
  7 13  1  1  0  0  0
  7  6  1  0  0  0  0
  8  1  1  0  0  0  0
  8 10  1  0  0  0  0
  9  8  2  0  0  0  0
 11  2  1  0  0  0  0
 12 11  3  0  0  0  0
 13 14  1  6  0  0  0
 15 13  1  0  0  0  0
 15 16  1  0  0  0  0
 16 18  1  0  0  0  0
 18 17  1  0  0  0  0
 19 29  1  0  0  0  0
 20 29  2  0  0  0  0
 20 24  1  0  0  0  0
 22 23  1  0  0  0  0
 22 21  1  0  0  0  0
 24 25  2  0  0  0  0
 25 28  1  0  0  0  0
 25 21  1  0  0  0  0
 26 28  2  0  0  0  0
 27 24  1  0  0  0  0
 27 22  2  0  0  0  0
 29 26  1  0  0  0  0
M  END
>  <MODEL>
2

>  <REMARK>
 VINA RESULT:      -7.2      2.805      7.172
  Name = 
  7 active torsions:
  status: ('A' for Active; 'I' for Inactive)
    1  A    between atoms: C_2  and  C_5
    2  A    between atoms: C_7  and  C_21
    3  A    between atoms: C_7  and  O_28
    4  A    between atoms: C_12  and  C_16
    5  A    between atoms: C_12  and  C_29
    6  A    between atoms: C_13  and  C_18
    7  A    between atoms: C_13  and  C_21
                            x       y       z     vdW  Elec       q    Type
                         _______ _______ _______ _____ _____    ______ ____

>  <TORSDO>
F 7

$$$$
=
 OpenBabel10232412303D

 29 32  0  0  1  0  0  0  0  0999 V2000
  184.3990  178.3250  142.3510 C   0  0  0  0  0  3  0  0  0  0  0  0
  182.5350  178.7340  143.8460 C   0  0  0  0  0  0  0  0  0  0  0  0
  185.9510  179.2030  145.9990 S   0  0  0  0  0  0  0  0  0  0  0  0
  183.4260  178.9040  144.9100 C   0  0  0  0  0  3  0  0  0  0  0  0
  183.0230  178.4630  142.5630 C   0  0  0  0  0  3  0  0  0  0  0  0
  187.5040  177.7020  144.3130 C   0  0  2  0  0  3  0  0  0  0  0  0
  187.1440  177.9110  145.5950 C   0  0  1  0  0  3  0  0  0  0  0  0
  185.2890  178.4740  143.4180 C   0  0  0  0  0  0  0  0  0  0  0  0
  184.8010  178.7790  144.6950 C   0  0  0  0  0  0  0  0  0  0  0  0
  186.6730  178.1570  143.2340 N   0  0  0  0  0  2  0  0  0  0  0  0
  181.1230  178.8610  144.0640 C   0  0  0  0  0  0  0  0  0  0  0  0
  179.9830  178.9640  144.2400 N   0  0  0  0  0  0  0  0  0  0  0  0
  187.8440  177.2150  146.7220 C   0  0  2  0  0  3  0  0  0  0  0  0
  187.1590  177.4230  147.9060 F   0  0  0  0  0  0  0  0  0  0  0  0
  189.2770  177.7120  146.8450 C   0  0  0  0  0  2  0  0  0  0  0  0
  190.2030  176.5850  147.2700 C   0  0  0  0  0  2  0  0  0  0  0  0
  192.2740  175.8760  147.5540 C   0  0  0  0  0  1  0  0  0  0  0  0
  191.5350  176.9880  147.1540 O   0  0  0  0  0  0  0  0  0  0  0  0
  188.6730  176.8280  143.9680 C   0  0  0  0  0  2  0  0  0  0  0  0
  188.2360  177.7250  141.6680 C   0  0  0  0  0  3  0  0  0  0  0  0
  190.0320  177.6810  138.2680 S   0  0  0  0  0  0  0  0  0  0  0  0
  188.5550  178.5060  138.2060 C   0  0  0  0  0  0  0  0  0  0  0  0
  188.0340  179.1160  137.0320 N   0  0  0  0  0  1  0  0  0  0  0  0
  188.6320  177.8770  140.3390 C   0  0  0  0  0  0  0  0  0  0  0  0
  189.8340  177.3410  139.9000 C   0  0  0  0  0  0  0  0  0  0  0  0
  190.3000  176.4880  142.0870 C   0  0  0  0  0  3  0  0  0  0  0  0
  187.9100  178.5320  139.3960 N   0  0  0  0  0  0  0  0  0  0  0  0
  190.6900  176.6450  140.7480 C   0  0  0  0  0  3  0  0  0  0  0  0
  189.0820  177.0270  142.5480 C   0  0  0  0  0  0  0  0  0  0  0  0
  1  5  2  0  0  0  0
  1  8  1  0  0  0  0
  2 11  1  0  0  0  0
  2  4  2  0  0  0  0
  5  2  1  0  0  0  0
  6 19  1  1  0  0  0
  6  7  1  0  0  0  0
  7  3  1  0  0  0  0
  7 13  1  1  0  0  0
  8  9  2  0  0  0  0
  9  4  1  0  0  0  0
  9  3  1  0  0  0  0
 10  8  1  0  0  0  0
 10  6  1  0  0  0  0
 11 12  3  0  0  0  0
 13 15  1  0  0  0  0
 13 14  1  1  0  0  0
 15 16  1  0  0  0  0
 18 16  1  0  0  0  0
 18 17  1  0  0  0  0
 20 29  1  0  0  0  0
 21 25  1  0  0  0  0
 22 21  1  0  0  0  0
 22 27  2  0  0  0  0
 23 22  1  0  0  0  0
 24 20  2  0  0  0  0
 25 24  1  0  0  0  0
 25 28  2  0  0  0  0
 26 29  2  0  0  0  0
 27 24  1  0  0  0  0
 28 26  1  0  0  0  0
 29 19  1  0  0  0  0
M  END
>  <MODEL>
3

>  <REMARK>
 VINA RESULT:      -7.1      4.000      6.462
  Name = 
  7 active torsions:
  status: ('A' for Active; 'I' for Inactive)
    1  A    between atoms: C_2  and  C_5
    2  A    between atoms: C_7  and  C_21
    3  A    between atoms: C_7  and  O_28
    4  A    between atoms: C_12  and  C_16
    5  A    between atoms: C_12  and  C_29
    6  A    between atoms: C_13  and  C_18
    7  A    between atoms: C_13  and  C_21
                            x       y       z     vdW  Elec       q    Type
                         _______ _______ _______ _____ _____    ______ ____

>  <TORSDO>
F 7

$$$$
=
 OpenBabel10232412303D

 29 32  0  0  1  0  0  0  0  0999 V2000
  190.0340  177.4480  144.8920 C   0  0  0  0  0  3  0  0  0  0  0  0
  188.5600  177.6950  146.8000 C   0  0  0  0  0  0  0  0  0  0  0  0
  186.2240  177.3200  143.4940 S   0  0  0  0  0  0  0  0  0  0  0  0
  187.4520  177.6800  145.9460 C   0  0  0  0  0  3  0  0  0  0  0  0
  189.8490  177.5610  146.2740 C   0  0  0  0  0  3  0  0  0  0  0  0
  188.1700  178.1130  141.7360 C   0  0  2  0  0  3  0  0  0  0  0  0
  186.8920  178.2880  142.1260 C   0  0  1  0  0  3  0  0  0  0  0  0
  188.9300  177.4540  144.0360 C   0  0  0  0  0  0  0  0  0  0  0  0
  187.6370  177.5540  144.5670 C   0  0  0  0  0  0  0  0  0  0  0  0
  189.1320  177.5190  142.6210 N   0  0  0  0  0  2  0  0  0  0  0  0
  188.3730  177.8240  148.2170 C   0  0  0  0  0  0  0  0  0  0  0  0
  188.2220  177.9280  149.3600 N   0  0  0  0  0  0  0  0  0  0  0  0
  185.9480  179.1440  141.3370 C   0  0  2  0  0  3  0  0  0  0  0  0
  185.2670  180.0030  142.1810 F   0  0  0  0  0  0  0  0  0  0  0  0
  184.9680  178.2780  140.5600 C   0  0  0  0  0  2  0  0  0  0  0  0
  184.7950  178.7970  139.1430 C   0  0  0  0  0  2  0  0  0  0  0  0
  183.0670  180.1390  138.8500 C   0  0  0  0  0  1  0  0  0  0  0  0
  184.4250  180.1430  139.1670 O   0  0  0  0  0  0  0  0  0  0  0  0
  188.6760  178.7010  140.4520 C   0  0  0  0  0  2  0  0  0  0  0  0
  188.2070  177.0810  138.5960 C   0  0  0  0  0  3  0  0  0  0  0  0
  190.1640  174.3730  136.6930 S   0  0  0  0  0  0  0  0  0  0  0  0
  188.5640  174.5090  136.1570 C   0  0  0  0  0  0  0  0  0  0  0  0
  188.0030  173.7140  135.1200 N   0  0  0  0  0  1  0  0  0  0  0  0
  188.6400  176.0620  137.7490 C   0  0  0  0  0  0  0  0  0  0  0  0
  189.9440  175.5930  137.8250 C   0  0  0  0  0  0  0  0  0  0  0  0
  190.4400  177.1400  139.5840 C   0  0  0  0  0  3  0  0  0  0  0  0
  187.8610  175.4590  136.8160 N   0  0  0  0  0  0  0  0  0  0  0  0
  190.8670  176.1120  138.7280 C   0  0  0  0  0  3  0  0  0  0  0  0
  189.1190  177.6260  139.5170 C   0  0  0  0  0  0  0  0  0  0  0  0
  1  5  1  0  0  0  0
  2 11  1  0  0  0  0
  3  9  1  0  0  0  0
  4  2  1  0  0  0  0
  5  2  2  0  0  0  0
  6 19  1  1  0  0  0
  6  7  1  0  0  0  0
  6 10  1  0  0  0  0
  7 13  1  6  0  0  0
  7  3  1  0  0  0  0
  8  9  1  0  0  0  0
  8  1  2  0  0  0  0
  9  4  2  0  0  0  0
 10  8  1  0  0  0  0
 11 12  3  0  0  0  0
 13 14  1  1  0  0  0
 15 13  1  0  0  0  0
 16 18  1  0  0  0  0
 16 15  1  0  0  0  0
 17 18  1  0  0  0  0
 20 29  1  0  0  0  0
 21 25  1  0  0  0  0
 22 21  1  0  0  0  0
 22 27  2  0  0  0  0
 23 22  1  0  0  0  0
 24 25  1  0  0  0  0
 24 20  2  0  0  0  0
 25 28  2  0  0  0  0
 27 24  1  0  0  0  0
 28 26  1  0  0  0  0
 29 26  2  0  0  0  0
 29 19  1  0  0  0  0
M  END
>  <MODEL>
4

>  <REMARK>
 VINA RESULT:      -7.0      1.280      1.612
  Name = 
  7 active torsions:
  status: ('A' for Active; 'I' for Inactive)
    1  A    between atoms: C_2  and  C_5
    2  A    between atoms: C_7  and  C_21
    3  A    between atoms: C_7  and  O_28
    4  A    between atoms: C_12  and  C_16
    5  A    between atoms: C_12  and  C_29
    6  A    between atoms: C_13  and  C_18
    7  A    between atoms: C_13  and  C_21
                            x       y       z     vdW  Elec       q    Type
                         _______ _______ _______ _____ _____    ______ ____

>  <TORSDO>
F 7

$$$$
=
 OpenBabel10232412303D

 29 32  0  0  1  0  0  0  0  0999 V2000
  184.7430  178.0400  141.1440 C   0  0  0  0  0  3  0  0  0  0  0  0
  182.4990  178.7150  141.7630 C   0  0  0  0  0  0  0  0  0  0  0  0
  184.9370  179.5700  144.9010 S   0  0  0  0  0  0  0  0  0  0  0  0
  182.9580  179.0770  143.0330 C   0  0  0  0  0  3  0  0  0  0  0  0
  183.3950  178.2140  140.8120 C   0  0  0  0  0  3  0  0  0  0  0  0
  186.8880  177.7850  144.1800 C   0  0  2  0  0  3  0  0  0  0  0  0
  186.1070  178.2250  145.1860 C   0  0  1  0  0  3  0  0  0  0  0  0
  185.1990  178.3810  142.4210 C   0  0  0  0  0  0  0  0  0  0  0  0
  184.3070  178.9140  143.3600 C   0  0  0  0  0  0  0  0  0  0  0  0
  186.5320  178.0360  142.8120 N   0  0  0  0  0  2  0  0  0  0  0  0
  181.1140  178.8810  141.4250 C   0  0  0  0  0  0  0  0  0  0  0  0
  179.9970  179.0150  141.1520 N   0  0  0  0  0  0  0  0  0  0  0  0
  186.3070  177.7470  146.5920 C   0  0  2  0  0  3  0  0  0  0  0  0
  185.1140  177.8130  147.2900 F   0  0  0  0  0  0  0  0  0  0  0  0
  187.3760  178.5770  147.2890 C   0  0  0  0  0  2  0  0  0  0  0  0
  187.8800  177.8690  148.5340 C   0  0  0  0  0  2  0  0  0  0  0  0
  189.7020  177.1270  147.5330 C   0  0  0  0  0  1  0  0  0  0  0  0
  189.2740  177.9300  148.5900 O   0  0  0  0  0  0  0  0  0  0  0  0
  188.0420  176.8630  144.4400 C   0  0  0  0  0  2  0  0  0  0  0  0
  189.0650  176.6220  142.1630 C   0  0  0  0  0  3  0  0  0  0  0  0
  192.3450  177.6710  140.4520 S   0  0  0  0  0  0  0  0  0  0  0  0
  191.3210  176.8110  139.4130 C   0  0  0  0  0  0  0  0  0  0  0  0
  191.6360  176.5090  138.0590 N   0  0  0  0  0  1  0  0  0  0  0  0
  190.1260  176.8550  141.2890 C   0  0  0  0  0  0  0  0  0  0  0  0
  191.2450  177.5550  141.7150 C   0  0  0  0  0  0  0  0  0  0  0  0
  190.2950  177.8280  143.8960 C   0  0  0  0  0  3  0  0  0  0  0  0
  190.1610  176.4350  140.0000 N   0  0  0  0  0  0  0  0  0  0  0  0
  191.3590  178.0560  143.0090 C   0  0  0  0  0  3  0  0  0  0  0  0
  189.1510  177.1180  143.4760 C   0  0  0  0  0  0  0  0  0  0  0  0
  1  8  1  0  0  0  0
  2  4  2  0  0  0  0
  3  7  1  0  0  0  0
  4  9  1  0  0  0  0
  5  1  2  0  0  0  0
  5  2  1  0  0  0  0
  6 19  1  6  0  0  0
  6  7  1  0  0  0  0
  7 13  1  1  0  0  0
  8 10  1  0  0  0  0
  8  9  2  0  0  0  0
  9  3  1  0  0  0  0
 10  6  1  0  0  0  0
 11  2  1  0  0  0  0
 12 11  3  0  0  0  0
 13 15  1  0  0  0  0
 13 14  1  1  0  0  0
 15 16  1  0  0  0  0
 16 18  1  0  0  0  0
 17 18  1  0  0  0  0
 20 29  1  0  0  0  0
 21 25  1  0  0  0  0
 22 27  2  0  0  0  0
 22 21  1  0  0  0  0
 23 22  1  0  0  0  0
 24 25  1  0  0  0  0
 24 20  2  0  0  0  0
 25 28  2  0  0  0  0
 27 24  1  0  0  0  0
 28 26  1  0  0  0  0
 29 26  2  0  0  0  0
 29 19  1  0  0  0  0
M  END
>  <MODEL>
5

>  <REMARK>
 VINA RESULT:      -7.0      3.642      6.566
  Name = 
  7 active torsions:
  status: ('A' for Active; 'I' for Inactive)
    1  A    between atoms: C_2  and  C_5
    2  A    between atoms: C_7  and  C_21
    3  A    between atoms: C_7  and  O_28
    4  A    between atoms: C_12  and  C_16
    5  A    between atoms: C_12  and  C_29
    6  A    between atoms: C_13  and  C_18
    7  A    between atoms: C_13  and  C_21
                            x       y       z     vdW  Elec       q    Type
                         _______ _______ _______ _____ _____    ______ ____

>  <TORSDO>
F 7

$$$$
=
 OpenBabel10232412303D

 29 32  0  0  1  0  0  0  0  0999 V2000
  188.4890  178.4900  141.3910 C   0  0  0  0  0  3  0  0  0  0  0  0
  188.8760  177.7090  139.1300 C   0  0  0  0  0  0  0  0  0  0  0  0
  184.9930  178.8870  139.3630 S   0  0  0  0  0  0  0  0  0  0  0  0
  187.5280  177.9220  138.8250 C   0  0  0  0  0  3  0  0  0  0  0  0
  189.3600  178.0100  140.4070 C   0  0  0  0  0  3  0  0  0  0  0  0
  184.8320  178.6370  142.0880 C   0  0  2  0  0  3  0  0  0  0  0  0
  184.2490  178.3320  140.9110 C   0  0  1  0  0  3  0  0  0  0  0  0
  187.1370  178.6830  141.0940 C   0  0  0  0  0  0  0  0  0  0  0  0
  186.6610  178.4130  139.8040 C   0  0  0  0  0  0  0  0  0  0  0  0
  186.2200  179.0000  142.1460 N   0  0  0  0  0  2  0  0  0  0  0  0
  189.7690  177.2050  138.1250 C   0  0  0  0  0  0  0  0  0  0  0  0
  190.4890  176.7980  137.3150 N   0  0  0  0  0  0  0  0  0  0  0  0
  182.8960  177.6920  140.8570 C   0  0  2  0  0  3  0  0  0  0  0  0
  182.9590  176.5060  140.1480 F   0  0  0  0  0  0  0  0  0  0  0  0
  181.8860  178.6370  140.2210 C   0  0  0  0  0  2  0  0  0  0  0  0
  181.2710  178.0120  138.9810 C   0  0  0  0  0  2  0  0  0  0  0  0
  182.1860  177.6410  137.0070 C   0  0  0  0  0  1  0  0  0  0  0  0
  181.7290  178.6650  137.8360 O   0  0  0  0  0  0  0  0  0  0  0  0
  184.1140  178.4240  143.3870 C   0  0  0  0  0  2  0  0  0  0  0  0
  186.3380  177.7530  144.3320 C   0  0  0  0  0  3  0  0  0  0  0  0
  188.0940  177.9530  147.7470 S   0  0  0  0  0  0  0  0  0  0  0  0
  189.0560  177.2090  146.5700 C   0  0  0  0  0  0  0  0  0  0  0  0
  190.3670  176.7130  146.8120 N   0  0  0  0  0  1  0  0  0  0  0  0
  187.2140  177.6810  145.4140 C   0  0  0  0  0  0  0  0  0  0  0  0
  186.8440  178.1870  146.6520 C   0  0  0  0  0  0  0  0  0  0  0  0
  184.7180  178.8650  145.7840 C   0  0  0  0  0  3  0  0  0  0  0  0
  188.4530  177.1310  145.3600 N   0  0  0  0  0  0  0  0  0  0  0  0
  185.6060  178.7870  146.8680 C   0  0  0  0  0  3  0  0  0  0  0  0
  185.0810  178.3550  144.5210 C   0  0  0  0  0  0  0  0  0  0  0  0
  2  5  1  0  0  0  0
  3  9  1  0  0  0  0
  3  7  1  0  0  0  0
  4  2  2  0  0  0  0
  4  9  1  0  0  0  0
  5  1  2  0  0  0  0
  6 10  1  0  0  0  0
  6 19  1  1  0  0  0
  7 13  1  1  0  0  0
  7  6  1  0  0  0  0
  8  1  1  0  0  0  0
  8 10  1  0  0  0  0
  9  8  2  0  0  0  0
 11  2  1  0  0  0  0
 12 11  3  0  0  0  0
 13 14  1  6  0  0  0
 15 13  1  0  0  0  0
 16 15  1  0  0  0  0
 17 18  1  0  0  0  0
 18 16  1  0  0  0  0
 19 29  1  0  0  0  0
 20 29  2  0  0  0  0
 20 24  1  0  0  0  0
 22 23  1  0  0  0  0
 22 21  1  0  0  0  0
 24 25  2  0  0  0  0
 25 28  1  0  0  0  0
 25 21  1  0  0  0  0
 26 28  2  0  0  0  0
 27 24  1  0  0  0  0
 27 22  2  0  0  0  0
 29 26  1  0  0  0  0
M  END
>  <MODEL>
6

>  <REMARK>
 VINA RESULT:      -6.9      2.690      7.056
  Name = 
  7 active torsions:
  status: ('A' for Active; 'I' for Inactive)
    1  A    between atoms: C_2  and  C_5
    2  A    between atoms: C_7  and  C_21
    3  A    between atoms: C_7  and  O_28
    4  A    between atoms: C_12  and  C_16
    5  A    between atoms: C_12  and  C_29
    6  A    between atoms: C_13  and  C_18
    7  A    between atoms: C_13  and  C_21
                            x       y       z     vdW  Elec       q    Type
                         _______ _______ _______ _____ _____    ______ ____

>  <TORSDO>
F 7

$$$$
=
 OpenBabel10232412303D

 29 32  0  0  1  0  0  0  0  0999 V2000
  184.7830  178.8140  139.0980 C   0  0  0  0  0  3  0  0  0  0  0  0
  182.7740  177.7130  139.8860 C   0  0  0  0  0  0  0  0  0  0  0  0
  185.1320  178.4080  143.1240 S   0  0  0  0  0  0  0  0  0  0  0  0
  183.2910  177.6970  141.1850 C   0  0  0  0  0  3  0  0  0  0  0  0
  183.5120  178.2880  138.8460 C   0  0  0  0  0  3  0  0  0  0  0  0
  187.4560  178.6120  141.6860 C   0  0  2  0  0  3  0  0  0  0  0  0
  186.8570  178.0380  142.7480 C   0  0  1  0  0  3  0  0  0  0  0  0
  185.3120  178.7800  140.3920 C   0  0  0  0  0  0  0  0  0  0  0  0
  184.5570  178.2340  141.4380 C   0  0  0  0  0  0  0  0  0  0  0  0
  186.6760  179.1530  140.6090 N   0  0  0  0  0  2  0  0  0  0  0  0
  181.4750  177.1620  139.6240 C   0  0  0  0  0  0  0  0  0  0  0  0
  180.4260  176.7180  139.4120 N   0  0  0  0  0  0  0  0  0  0  0  0
  187.6400  177.2310  143.7390 C   0  0  2  0  0  3  0  0  0  0  0  0
  187.6950  175.9080  143.3370 F   0  0  0  0  0  0  0  0  0  0  0  0
  187.0160  177.3380  145.1230 C   0  0  0  0  0  2  0  0  0  0  0  0
  188.0710  177.6630  146.1660 C   0  0  0  0  0  2  0  0  0  0  0  0
  189.9780  177.0560  147.0960 C   0  0  0  0  0  1  0  0  0  0  0  0
  189.2260  176.9150  145.9310 O   0  0  0  0  0  0  0  0  0  0  0  0
  188.9420  178.5350  141.4970 C   0  0  0  0  0  2  0  0  0  0  0  0
  189.9160  176.7670  140.0090 C   0  0  0  0  0  3  0  0  0  0  0  0
  190.4490  176.2830  136.2310 S   0  0  0  0  0  0  0  0  0  0  0  0
  191.0300  174.9760  137.1380 C   0  0  0  0  0  0  0  0  0  0  0  0
  191.6460  173.8270  136.5700 N   0  0  0  0  0  1  0  0  0  0  0  0
  190.2390  176.3140  138.7310 C   0  0  0  0  0  0  0  0  0  0  0  0
  189.9400  177.0840  137.6160 C   0  0  0  0  0  0  0  0  0  0  0  0
  188.9800  178.7860  139.0000 C   0  0  0  0  0  3  0  0  0  0  0  0
  190.8500  175.1300  138.4700 N   0  0  0  0  0  0  0  0  0  0  0  0
  189.3100  178.3210  137.7170 C   0  0  0  0  0  3  0  0  0  0  0  0
  189.2770  178.0130  140.1410 C   0  0  0  0  0  0  0  0  0  0  0  0
  1  8  1  0  0  0  0
  2  4  2  0  0  0  0
  4  9  1  0  0  0  0
  5  1  2  0  0  0  0
  5  2  1  0  0  0  0
  6 19  1  6  0  0  0
  6  7  1  0  0  0  0
  7  3  1  0  0  0  0
  7 13  1  1  0  0  0
  8 10  1  0  0  0  0
  8  9  2  0  0  0  0
  9  3  1  0  0  0  0
 10  6  1  0  0  0  0
 11  2  1  0  0  0  0
 12 11  3  0  0  0  0
 13 14  1  6  0  0  0
 13 15  1  0  0  0  0
 15 16  1  0  0  0  0
 18 16  1  0  0  0  0
 18 17  1  0  0  0  0
 20 29  1  0  0  0  0
 21 22  1  0  0  0  0
 21 25  1  0  0  0  0
 22 27  2  0  0  0  0
 23 22  1  0  0  0  0
 24 20  2  0  0  0  0
 25 28  2  0  0  0  0
 25 24  1  0  0  0  0
 26 29  2  0  0  0  0
 27 24  1  0  0  0  0
 28 26  1  0  0  0  0
 29 19  1  0  0  0  0
M  END
>  <MODEL>
7

>  <REMARK>
 VINA RESULT:      -6.8      2.946      5.871
  Name = 
  7 active torsions:
  status: ('A' for Active; 'I' for Inactive)
    1  A    between atoms: C_2  and  C_5
    2  A    between atoms: C_7  and  C_21
    3  A    between atoms: C_7  and  O_28
    4  A    between atoms: C_12  and  C_16
    5  A    between atoms: C_12  and  C_29
    6  A    between atoms: C_13  and  C_18
    7  A    between atoms: C_13  and  C_21
                            x       y       z     vdW  Elec       q    Type
                         _______ _______ _______ _____ _____    ______ ____

>  <TORSDO>
F 7

$$$$
=
 OpenBabel10232412303D

 29 32  0  0  1  0  0  0  0  0999 V2000
  184.4010  179.1320  139.6760 C   0  0  0  0  0  3  0  0  0  0  0  0
  182.5230  178.4140  141.0290 C   0  0  0  0  0  0  0  0  0  0  0  0
  185.7680  178.6300  143.4670 S   0  0  0  0  0  0  0  0  0  0  0  0
  183.3670  178.2890  142.1360 C   0  0  0  0  0  3  0  0  0  0  0  0
  183.0360  178.8520  139.8040 C   0  0  0  0  0  3  0  0  0  0  0  0
  187.6020  178.4140  141.4420 C   0  0  2  0  0  3  0  0  0  0  0  0
  187.2260  177.9500  142.6510 C   0  0  1  0  0  3  0  0  0  0  0  0
  185.2510  178.9880  140.7770 C   0  0  0  0  0  0  0  0  0  0  0  0
  184.7280  178.5810  142.0120 C   0  0  0  0  0  0  0  0  0  0  0  0
  186.6660  179.1010  140.5980 N   0  0  0  0  0  2  0  0  0  0  0  0
  181.1250  178.1150  141.1540 C   0  0  0  0  0  0  0  0  0  0  0  0
  179.9960  177.8740  141.2550 N   0  0  0  0  0  0  0  0  0  0  0  0
  188.0930  177.0030  143.4240 C   0  0  2  0  0  3  0  0  0  0  0  0
  187.5810  175.7200  143.3460 F   0  0  0  0  0  0  0  0  0  0  0  0
  188.1990  177.4440  144.8770 C   0  0  0  0  0  2  0  0  0  0  0  0
  189.6360  177.7810  145.2340 C   0  0  0  0  0  2  0  0  0  0  0  0
  191.0090  179.0810  144.0960 C   0  0  0  0  0  1  0  0  0  0  0  0
  190.4230  177.8170  144.0810 O   0  0  0  0  0  0  0  0  0  0  0  0
  188.9390  178.0650  140.8590 C   0  0  0  0  0  2  0  0  0  0  0  0
  188.5760  176.6110  138.8490 C   0  0  0  0  0  3  0  0  0  0  0  0
  188.5820  177.0740  135.0310 S   0  0  0  0  0  0  0  0  0  0  0  0
  188.2660  175.4740  135.4870 C   0  0  0  0  0  0  0  0  0  0  0  0
  188.0280  174.4180  134.5650 N   0  0  0  0  0  1  0  0  0  0  0  0
  188.5120  176.4650  137.4640 C   0  0  0  0  0  0  0  0  0  0  0  0
  188.7160  177.5580  136.6330 C   0  0  0  0  0  0  0  0  0  0  0  0
  189.0460  178.9860  138.5260 C   0  0  0  0  0  3  0  0  0  0  0  0
  188.2590  175.2940  136.8280 N   0  0  0  0  0  0  0  0  0  0  0  0
  188.9820  178.8300  137.1330 C   0  0  0  0  0  3  0  0  0  0  0  0
  188.8410  177.8850  139.3820 C   0  0  0  0  0  0  0  0  0  0  0  0
  1  5  2  0  0  0  0
  1  8  1  0  0  0  0
  2 11  1  0  0  0  0
  2  4  2  0  0  0  0
  5  2  1  0  0  0  0
  6 19  1  6  0  0  0
  6  7  1  0  0  0  0
  7 13  1  1  0  0  0
  7  3  1  0  0  0  0
  8  9  2  0  0  0  0
  9  4  1  0  0  0  0
  9  3  1  0  0  0  0
 10  8  1  0  0  0  0
 10  6  1  0  0  0  0
 11 12  3  0  0  0  0
 13 14  1  1  0  0  0
 13 15  1  0  0  0  0
 15 16  1  0  0  0  0
 18 17  1  0  0  0  0
 18 16  1  0  0  0  0
 20 29  1  0  0  0  0
 21 22  1  0  0  0  0
 21 25  1  0  0  0  0
 22 27  2  0  0  0  0
 23 22  1  0  0  0  0
 24 20  2  0  0  0  0
 25 28  2  0  0  0  0
 25 24  1  0  0  0  0
 26 29  2  0  0  0  0
 27 24  1  0  0  0  0
 28 26  1  0  0  0  0
 29 19  1  0  0  0  0
M  END
>  <MODEL>
8

>  <REMARK>
 VINA RESULT:      -6.6      3.197      5.709
  Name = 
  7 active torsions:
  status: ('A' for Active; 'I' for Inactive)
    1  A    between atoms: C_2  and  C_5
    2  A    between atoms: C_7  and  C_21
    3  A    between atoms: C_7  and  O_28
    4  A    between atoms: C_12  and  C_16
    5  A    between atoms: C_12  and  C_29
    6  A    between atoms: C_13  and  C_18
    7  A    between atoms: C_13  and  C_21
                            x       y       z     vdW  Elec       q    Type
                         _______ _______ _______ _____ _____    ______ ____

>  <TORSDO>
F 7

$$$$
=
 OpenBabel10232412303D

 29 32  0  0  1  0  0  0  0  0999 V2000
  191.2470  176.8470  143.2060 C   0  0  0  0  0  3  0  0  0  0  0  0
  190.8000  176.9120  145.5870 C   0  0  0  0  0  0  0  0  0  0  0  0
  187.2150  176.7470  143.6790 S   0  0  0  0  0  0  0  0  0  0  0  0
  189.4260  176.9400  145.3290 C   0  0  0  0  0  3  0  0  0  0  0  0
  191.7100  176.8470  144.5260 C   0  0  0  0  0  3  0  0  0  0  0  0
  188.1670  177.7170  141.2990 C   0  0  2  0  0  3  0  0  0  0  0  0
  187.2080  177.8340  142.2380 C   0  0  1  0  0  3  0  0  0  0  0  0
  189.8750  176.8960  142.9450 C   0  0  0  0  0  0  0  0  0  0  0  0
  188.9640  176.9270  144.0100 C   0  0  0  0  0  0  0  0  0  0  0  0
  189.4150  177.0760  141.6020 N   0  0  0  0  0  2  0  0  0  0  0  0
  191.2770  176.9260  146.9400 C   0  0  0  0  0  0  0  0  0  0  0  0
  191.6630  176.9360  148.0330 N   0  0  0  0  0  0  0  0  0  0  0  0
  186.0230  178.7280  142.0320 C   0  0  2  0  0  3  0  0  0  0  0  0
  186.3870  180.0500  142.2210 F   0  0  0  0  0  0  0  0  0  0  0  0
  184.8980  178.3480  142.9830 C   0  0  0  0  0  2  0  0  0  0  0  0
  184.4800  179.5380  143.8290 C   0  0  0  0  0  2  0  0  0  0  0  0
  184.5030  178.5700  145.8120 C   0  0  0  0  0  1  0  0  0  0  0  0
  185.1650  179.5270  145.0450 O   0  0  0  0  0  0  0  0  0  0  0  0
  188.0470  178.4130  139.9760 C   0  0  0  0  0  2  0  0  0  0  0  0
  189.9460  177.4850  138.6280 C   0  0  0  0  0  3  0  0  0  0  0  0
  190.3400  175.1280  135.6150 S   0  0  0  0  0  0  0  0  0  0  0  0
  191.8280  175.7070  136.1800 C   0  0  0  0  0  0  0  0  0  0  0  0
  193.0830  175.3630  135.6080 N   0  0  0  0  0  1  0  0  0  0  0  0
  190.4010  176.6890  137.5770 C   0  0  0  0  0  0  0  0  0  0  0  0
  189.5020  175.9840  136.7900 C   0  0  0  0  0  0  0  0  0  0  0  0
  187.6610  176.8300  138.0670 C   0  0  0  0  0  3  0  0  0  0  0  0
  191.7070  176.5380  137.2420 N   0  0  0  0  0  0  0  0  0  0  0  0
  188.1280  176.0320  137.0110 C   0  0  0  0  0  3  0  0  0  0  0  0
  188.5640  177.5500  138.8750 C   0  0  0  0  0  0  0  0  0  0  0  0
  1  5  1  0  0  0  0
  2 11  1  0  0  0  0
  3  9  1  0  0  0  0
  4  2  1  0  0  0  0
  5  2  2  0  0  0  0
  6 19  1  1  0  0  0
  6 10  1  0  0  0  0
  6  7  1  0  0  0  0
  7 13  1  6  0  0  0
  7  3  1  0  0  0  0
  8  1  2  0  0  0  0
  8  9  1  0  0  0  0
  9  4  2  0  0  0  0
 10  8  1  0  0  0  0
 11 12  3  0  0  0  0
 13 14  1  1  0  0  0
 13 15  1  0  0  0  0
 15 16  1  0  0  0  0
 16 18  1  0  0  0  0
 18 17  1  0  0  0  0
 20 29  1  0  0  0  0
 21 22  1  0  0  0  0
 21 25  1  0  0  0  0
 22 27  2  0  0  0  0
 23 22  1  0  0  0  0
 24 20  2  0  0  0  0
 25 28  2  0  0  0  0
 25 24  1  0  0  0  0
 26 29  2  0  0  0  0
 27 24  1  0  0  0  0
 28 26  1  0  0  0  0
 29 19  1  0  0  0  0
M  END
>  <MODEL>
9

>  <REMARK>
 VINA RESULT:      -6.6      2.046      2.465
  Name = 
  7 active torsions:
  status: ('A' for Active; 'I' for Inactive)
    1  A    between atoms: C_2  and  C_5
    2  A    between atoms: C_7  and  C_21
    3  A    between atoms: C_7  and  O_28
    4  A    between atoms: C_12  and  C_16
    5  A    between atoms: C_12  and  C_29
    6  A    between atoms: C_13  and  C_18
    7  A    between atoms: C_13  and  C_21
                            x       y       z     vdW  Elec       q    Type
                         _______ _______ _______ _____ _____    ______ ____

>  <TORSDO>
F 7

$$$$
