=
 OpenBabel10232411413D

 52 55  0  0  1  0  0  0  0  0999 V2000
  186.7450  178.5330  142.6520 C   0  0  0  0  0  2  0  0  0  0  0  0
  190.8960  175.9450  144.3210 C   0  0  1  0  0  3  0  0  0  0  0  0
  189.0520  176.5950  142.9320 C   0  0  1  0  0  3  0  0  0  0  0  0
  187.6400  178.1220  141.5240 C   0  0  0  0  0  0  0  0  0  0  0  0
  188.9540  178.2020  144.9440 C   0  0  0  0  0  2  0  0  0  0  0  0
  188.2370  177.1030  144.1600 C   0  0  1  0  0  3  0  0  0  0  0  0
  189.6100  177.5570  147.2330 C   0  0  0  0  0  3  0  0  0  0  0  0
  186.8010  177.4860  143.7660 C   0  0  1  0  0  3  0  0  0  0  0  0
  187.5290  178.6130  140.1250 C   0  0  0  0  0  3  0  0  0  0  0  0
  189.8900  177.5710  145.9320 C   0  0  0  0  0  0  0  0  0  0  0  0
  191.1580  176.9270  145.4650 C   0  0  0  0  0  2  0  0  0  0  0  0
  188.6770  177.3070  141.6570 C   0  0  2  0  0  3  0  0  0  0  0  0
  189.3150  177.1100  140.3650 C   0  0  0  0  0  3  0  0  0  0  0  0
  190.5020  176.6800  143.1240 N   0  0  0  0  0  2  0  0  0  0  0  0
  188.6610  177.8690  139.4940 C   0  0  0  0  0  0  0  0  0  0  0  0
  184.7640  178.6400  144.8740 N   0  0  0  0  0  2  0  0  0  0  0  0
  185.8930  177.7560  144.9370 C   0  0  0  0  0  0  0  0  0  0  0  0
  186.1800  177.2230  146.0410 O   0  0  0  0  0  0  0  0  0  0  0  0
  184.2190  179.2240  143.6570 C   0  0  0  0  0  2  0  0  0  0  0  0
  182.7070  179.0470  143.6140 C   0  0  0  0  0  2  0  0  0  0  0  0
  182.2340  178.6930  142.2120 C   0  0  0  0  0  2  0  0  0  0  0  0
  183.4050  178.2340  141.3600 C   0  0  0  0  0  2  0  0  0  0  0  0
  183.2490  178.7260  139.9580 C   0  0  0  0  0  0  0  0  0  0  0  0
  184.1600  179.5430  139.4310 C   0  0  0  0  0  2  0  0  0  0  0  0
  182.1930  178.1320  139.0910 C   0  0  0  0  0  2  0  0  0  0  0  0
  182.2550  178.6930  137.8130 O   0  0  0  0  0  0  0  0  0  0  0  0
  181.6250  177.5130  136.7700 P   0  0  2  0  0  0  0  0  0  0  0  0
  180.1910  178.0930  136.0820 O   0  0  0  0  0  0  0  0  0  0  0  0
  181.3160  176.2540  137.5500 O   0  0  0  0  0  1  0  0  0  0  0  0
  182.7410  177.1510  135.5440 O   0  0  0  0  0  0  0  0  0  0  0  0
  183.4900  176.0800  136.0340 C   0  0  0  0  0  2  0  0  0  0  0  0
  185.5570  177.5600  136.7140 C   0  0  0  0  0  2  0  0  0  0  0  0
  185.6890  176.1410  137.2440 C   0  0  0  0  0  2  0  0  0  0  0  0
  184.9750  176.3960  135.9380 C   0  0  0  0  0  0  0  0  0  0  0  0
  185.7110  175.9020  134.8510 O   0  0  0  0  0  0  0  0  0  0  0  0
  186.0000  174.5630  135.1380 C   0  0  0  0  0  1  0  0  0  0  0  0
  187.9490  177.7640  148.9600 O   0  0  0  0  0  1  0  0  0  0  0  0
  188.4170  178.1410  147.7500 N   0  0  0  0  0  2  0  0  0  0  0  0
  192.1260  175.0850  144.0410 C   0  0  0  0  0  2  0  0  0  0  0  0
  192.4570  174.1500  145.1950 C   0  0  0  0  0  1  0  0  0  0  0  0
  188.9880  177.9390  138.0380 C   0  0  0  0  0  2  0  0  0  0  0  0
  189.7010  176.7080  137.5950 C   0  0  0  0  0  0  0  0  0  0  0  0
  189.0610  175.6330  137.4380 O   0  0  0  0  0  0  0  0  0  0  0  0
  191.1010  176.7700  137.3170 N   0  0  0  0  0  2  0  0  0  0  0  0
  191.8320  175.6400  136.8470 C   0  0  0  0  0  3  0  0  0  0  0  0
  192.7180  175.0500  137.6400 C   0  0  0  0  0  3  0  0  0  0  0  0
  193.2660  173.5940  135.8470 O   0  0  0  0  0  1  0  0  0  0  0  0
  193.5160  173.8640  137.1950 C   0  0  1  0  0  3  0  0  0  0  0  0
  195.0100  174.0750  137.4080 C   0  0  0  0  0  2  0  0  0  0  0  0
  195.4490  173.5010  138.7110 C   0  0  0  0  0  0  0  0  0  0  0  0
  195.1980  172.3000  138.9900 O   0  0  0  0  0  0  0  0  0  0  0  0
  196.1210  174.2990  139.6280 O   0  0  0  0  0  1  0  0  0  0  0  0
  1  8  1  0  0  0  0
  2 39  1  6  0  0  0
  2 11  1  0  0  0  0
  3 14  1  1  0  0  0
  3  6  1  0  0  0  0
  4 12  1  0  0  0  0
  4  1  1  0  0  0  0
  5 10  1  0  0  0  0
  6  5  1  6  0  0  0
  7 38  1  0  0  0  0
  8  6  1  0  0  0  0
  8 17  1  1  0  0  0
  9  4  2  0  0  0  0
 10  7  2  0  0  0  0
 11 10  1  0  0  0  0
 12 13  1  6  0  0  0
 12  3  1  0  0  0  0
 14  2  1  0  0  0  0
 15  9  1  0  0  0  0
 15 13  2  0  0  0  0
 16 17  1  0  0  0  0
 17 18  2  0  0  0  0
 19 16  1  0  0  0  0
 20 19  1  0  0  0  0
 21 20  1  0  0  0  0
 22 21  1  0  0  0  0
 23 22  1  0  0  0  0
 24 23  2  0  0  0  0
 25 23  1  0  0  0  0
 26 25  1  0  0  0  0
 27 28  2  6  0  0  0
 27 29  1  0  0  0  0
 27 26  1  0  0  0  0
 30 31  1  0  0  0  0
 30 27  1  0  0  0  0
 32 33  1  0  0  0  0
 34 31  1  0  0  0  0
 34 32  1  0  0  0  0
 34 33  1  0  0  0  0
 35 36  1  0  0  0  0
 35 34  1  0  0  0  0
 38 37  1  0  0  0  0
 39 40  1  0  0  0  0
 41 15  1  0  0  0  0
 42 41  1  0  0  0  0
 43 42  2  0  0  0  0
 44 42  1  0  0  0  0
 45 44  1  0  0  0  0
 45 46  2  0  0  0  0
 48 47  1  6  0  0  0
 48 49  1  0  0  0  0
 48 46  1  0  0  0  0
 49 50  1  0  0  0  0
 50 51  2  0  0  0  0
 50 52  1  0  0  0  0
M  END
>  <MODEL>
1

>  <REMARK>
 VINA RESULT:      -6.8      0.000      0.000
  Name = 
  21 active torsions:
  status: ('A' for Active; 'I' for Inactive)
    1  A    between atoms: N_1  and  C_15
    2  A    between atoms: C_4  and  C_25
    3  A    between atoms: C_5  and  C_35
    4  A    between atoms: C_5  and  C_51
    5  A    between atoms: C_7  and  C_30
    6  A    between atoms: C_7  and  C_50
    7  A    between atoms: O_8  and  P_19
    8  A    between atoms: O_8  and  C_38
    9  A    between atoms: O_10  and  P_19
   10  A    between atoms: O_10  and  C_40
   11  A    between atoms: C_11  and  C_40
   12  A    between atoms: C_11  and  C_50
   13  A    between atoms: C_12  and  C_48
   14  A    between atoms: C_13  and  N_42
   15  A    between atoms: C_15  and  C_30
   16  A    between atoms: C_17  and  N_22
   17  A    between atoms: C_21  and  C_39
   18  A    between atoms: C_31  and  O_34
   19  A    between atoms: C_31  and  C_38
   20  A    between atoms: C_43  and  C_52
   21  A    between atoms: C_48  and  C_52
                            x       y       z     vdW  Elec       q    Type
                         _______ _______ _______ _____ _____    ______ ____

>  <TORSDO>
F 21

$$$$
=
 OpenBabel10232411413D

 52 55  0  0  1  0  0  0  0  0999 V2000
  185.5850  177.8400  138.2780 C   0  0  0  0  0  2  0  0  0  0  0  0
  181.3210  175.1110  137.2390 C   0  0  1  0  0  3  0  0  0  0  0  0
  183.4140  176.2350  136.9120 C   0  0  1  0  0  3  0  0  0  0  0  0
  185.8430  176.7570  137.2760 C   0  0  0  0  0  0  0  0  0  0  0  0
  182.8650  176.5850  139.4050 C   0  0  0  0  0  2  0  0  0  0  0  0
  183.1050  177.2530  138.0520 C   0  0  1  0  0  3  0  0  0  0  0  0
  180.5690  176.8350  140.2710 C   0  0  0  0  0  3  0  0  0  0  0  0
  184.1600  178.3710  138.1120 C   0  0  1  0  0  3  0  0  0  0  0  0
  187.1890  176.3150  136.8260 C   0  0  0  0  0  2  0  0  0  0  0  0
  181.4270  176.1710  139.5010 C   0  0  0  0  0  0  0  0  0  0  0  0
  180.9250  175.0010  138.7130 C   0  0  0  0  0  2  0  0  0  0  0  0
  184.8930  176.0250  136.7110 C   0  0  0  0  0  0  0  0  0  0  0  0
  185.4900  175.0810  135.7810 C   0  0  0  0  0  3  0  0  0  0  0  0
  182.7630  174.9370  137.1040 N   0  0  0  0  0  2  0  0  0  0  0  0
  186.8050  175.2420  135.8590 C   0  0  0  0  0  0  0  0  0  0  0  0
  184.3180  179.6530  140.3570 N   0  0  0  0  0  2  0  0  0  0  0  0
  183.7970  179.5100  139.0270 C   0  0  0  0  0  0  0  0  0  0  0  0
  182.9460  180.3450  138.6220 O   0  0  0  0  0  0  0  0  0  0  0  0
  185.4020  178.8630  140.9250 C   0  0  0  0  0  2  0  0  0  0  0  0
  185.6160  179.2310  142.3870 C   0  0  0  0  0  2  0  0  0  0  0  0
  185.4760  178.0120  143.2860 C   0  0  0  0  0  2  0  0  0  0  0  0
  186.8450  177.4790  143.6730 C   0  0  0  0  0  2  0  0  0  0  0  0
  187.1200  177.7530  145.1150 C   0  0  0  0  0  0  0  0  0  0  0  0
  186.1350  177.6790  146.0090 C   0  0  0  0  0  2  0  0  0  0  0  0
  188.5300  177.8990  145.5720 C   0  0  0  0  0  2  0  0  0  0  0  0
  189.3040  176.8500  145.0710 O   0  0  0  0  0  0  0  0  0  0  0  0
  190.8430  177.5110  144.8020 P   0  0  2  0  0  0  0  0  0  0  0  0
  191.8470  177.1200  146.1070 O   0  0  0  0  0  1  0  0  0  0  0  0
  190.7410  179.0160  144.6990 O   0  0  0  0  0  0  0  0  0  0  0  0
  191.5080  176.8960  143.3670 O   0  0  0  0  0  0  0  0  0  0  0  0
  191.3730  177.9230  142.4310 C   0  0  0  0  0  2  0  0  0  0  0  0
  190.4990  176.6060  140.3270 C   0  0  0  0  0  2  0  0  0  0  0  0
  189.7890  176.1620  141.5960 C   0  0  0  0  0  2  0  0  0  0  0  0
  190.2570  177.5910  141.4520 C   0  0  0  0  0  0  0  0  0  0  0  0
  189.1710  178.4710  141.3270 O   0  0  0  0  0  0  0  0  0  0  0  0
  188.7820  178.4410  139.9830 C   0  0  0  0  0  1  0  0  0  0  0  0
  180.5030  179.1940  140.7340 O   0  0  0  0  0  1  0  0  0  0  0  0
  180.9720  177.9640  141.0410 N   0  0  0  0  0  2  0  0  0  0  0  0
  180.5750  174.0830  136.3910 C   0  0  0  0  0  2  0  0  0  0  0  0
  180.8920  174.2140  134.9080 C   0  0  0  0  0  1  0  0  0  0  0  0
  187.7900  174.4730  135.0410 C   0  0  0  0  0  2  0  0  0  0  0  0
  189.0930  174.3530  135.7530 C   0  0  0  0  0  0  0  0  0  0  0  0
  189.2090  173.5540  136.7210 O   0  0  0  0  0  0  0  0  0  0  0  0
  190.2100  175.1230  135.3050 N   0  0  0  0  0  2  0  0  0  0  0  0
  191.4950  175.0200  135.9140 C   0  0  0  0  0  3  0  0  0  0  0  0
  191.9750  176.0380  136.6170 C   0  0  0  0  0  3  0  0  0  0  0  0
  193.4080  176.9590  138.2710 O   0  0  0  0  0  1  0  0  0  0  0  0
  193.3200  175.9850  137.2740 C   0  0  1  0  0  3  0  0  0  0  0  0
  193.6050  174.6120  137.8700 C   0  0  0  0  0  2  0  0  0  0  0  0
  194.9780  174.1530  137.5200 C   0  0  0  0  0  0  0  0  0  0  0  0
  195.2030  172.9320  137.3110 O   0  0  0  0  0  0  0  0  0  0  0  0
  196.0160  175.0720  137.4380 O   0  0  0  0  0  1  0  0  0  0  0  0
  2 39  1  6  0  0  0
  2 11  1  0  0  0  0
  3 12  1  1  0  0  0
  3 14  1  0  0  0  0
  3  6  1  0  0  0  0
  4  1  1  0  0  0  0
  5 10  1  0  0  0  0
  6  8  1  0  0  0  0
  6  5  1  1  0  0  0
  7 38  1  0  0  0  0
  8  1  1  0  0  0  0
  8 17  1  1  0  0  0
  9  4  1  0  0  0  0
 10  7  2  0  0  0  0
 11 10  1  0  0  0  0
 12  4  2  0  0  0  0
 13 15  2  0  0  0  0
 13 12  1  0  0  0  0
 14  2  1  0  0  0  0
 15  9  1  0  0  0  0
 16 19  1  0  0  0  0
 17 16  1  0  0  0  0
 18 17  2  0  0  0  0
 19 20  1  0  0  0  0
 20 21  1  0  0  0  0
 21 22  1  0  0  0  0
 22 23  1  0  0  0  0
 23 25  1  0  0  0  0
 23 24  2  0  0  0  0
 26 25  1  0  0  0  0
 27 29  2  6  0  0  0
 27 26  1  0  0  0  0
 27 28  1  0  0  0  0
 30 27  1  0  0  0  0
 31 30  1  0  0  0  0
 32 34  1  0  0  0  0
 32 33  1  0  0  0  0
 34 33  1  0  0  0  0
 34 31  1  0  0  0  0
 35 34  1  0  0  0  0
 36 35  1  0  0  0  0
 37 38  1  0  0  0  0
 40 39  1  0  0  0  0
 41 42  1  0  0  0  0
 41 15  1  0  0  0  0
 42 43  2  0  0  0  0
 44 42  1  0  0  0  0
 44 45  1  0  0  0  0
 45 46  2  0  0  0  0
 46 48  1  0  0  0  0
 48 49  1  0  0  0  0
 48 47  1  1  0  0  0
 50 49  1  0  0  0  0
 51 50  2  0  0  0  0
 52 50  1  0  0  0  0
M  END
>  <MODEL>
2

>  <REMARK>
 VINA RESULT:      -6.5      3.293      7.939
  Name = 
  21 active torsions:
  status: ('A' for Active; 'I' for Inactive)
    1  A    between atoms: N_1  and  C_15
    2  A    between atoms: C_4  and  C_25
    3  A    between atoms: C_5  and  C_35
    4  A    between atoms: C_5  and  C_51
    5  A    between atoms: C_7  and  C_30
    6  A    between atoms: C_7  and  C_50
    7  A    between atoms: O_8  and  P_19
    8  A    between atoms: O_8  and  C_38
    9  A    between atoms: O_10  and  P_19
   10  A    between atoms: O_10  and  C_40
   11  A    between atoms: C_11  and  C_40
   12  A    between atoms: C_11  and  C_50
   13  A    between atoms: C_12  and  C_48
   14  A    between atoms: C_13  and  N_42
   15  A    between atoms: C_15  and  C_30
   16  A    between atoms: C_17  and  N_22
   17  A    between atoms: C_21  and  C_39
   18  A    between atoms: C_31  and  O_34
   19  A    between atoms: C_31  and  C_38
   20  A    between atoms: C_43  and  C_52
   21  A    between atoms: C_48  and  C_52
                            x       y       z     vdW  Elec       q    Type
                         _______ _______ _______ _____ _____    ______ ____

>  <TORSDO>
F 21

$$$$
=
 OpenBabel10232411413D

 52 55  0  0  1  0  0  0  0  0999 V2000
  185.7040  178.0380  138.5100 C   0  0  0  0  0  2  0  0  0  0  0  0
  181.4910  175.3870  137.1170 C   0  0  1  0  0  3  0  0  0  0  0  0
  183.5900  176.5350  136.9510 C   0  0  1  0  0  3  0  0  0  0  0  0
  186.0030  177.0320  137.4420 C   0  0  0  0  0  0  0  0  0  0  0  0
  182.9500  176.7010  139.4420 C   0  0  0  0  0  2  0  0  0  0  0  0
  183.2360  177.4660  138.1500 C   0  0  1  0  0  3  0  0  0  0  0  0
  180.6220  176.8840  140.2380 C   0  0  0  0  0  3  0  0  0  0  0  0
  184.2840  178.5780  138.3310 C   0  0  1  0  0  3  0  0  0  0  0  0
  187.3660  176.6250  137.0100 C   0  0  0  0  0  2  0  0  0  0  0  0
  181.5100  176.2780  139.4530 C   0  0  0  0  0  0  0  0  0  0  0  0
  181.0430  175.1690  138.5640 C   0  0  0  0  0  2  0  0  0  0  0  0
  185.0770  176.3420  136.7900 C   0  0  0  0  0  0  0  0  0  0  0  0
  185.7110  175.4690  135.8160 C   0  0  0  0  0  3  0  0  0  0  0  0
  182.9380  175.2250  137.0230 N   0  0  0  0  0  2  0  0  0  0  0  0
  187.0220  175.6260  135.9540 C   0  0  0  0  0  0  0  0  0  0  0  0
  184.1100  179.5470  140.7260 N   0  0  0  0  0  2  0  0  0  0  0  0
  183.8830  179.6470  139.3130 C   0  0  0  0  0  0  0  0  0  0  0  0
  183.2630  180.6500  138.8720 O   0  0  0  0  0  0  0  0  0  0  0  0
  184.9240  178.5300  141.3780 C   0  0  0  0  0  2  0  0  0  0  0  0
  185.3660  179.0060  142.7550 C   0  0  0  0  0  2  0  0  0  0  0  0
  184.1710  179.2280  143.6700 C   0  0  0  0  0  2  0  0  0  0  0  0
  184.2860  178.3580  144.9100 C   0  0  0  0  0  2  0  0  0  0  0  0
  185.6850  178.3830  145.4330 C   0  0  0  0  0  0  0  0  0  0  0  0
  185.9780  179.0910  146.5230 C   0  0  0  0  0  2  0  0  0  0  0  0
  186.6930  177.4500  144.8580 C   0  0  0  0  0  2  0  0  0  0  0  0
  187.9310  178.0910  144.7540 O   0  0  0  0  0  0  0  0  0  0  0  0
  188.8500  177.1340  143.6980 P   0  0  2  0  0  0  0  0  0  0  0  0
  189.2730  178.0570  142.3440 O   0  0  0  0  0  0  0  0  0  0  0  0
  188.0310  175.9470  143.2410 O   0  0  0  0  0  1  0  0  0  0  0  0
  190.2540  176.5800  144.4720 O   0  0  0  0  0  0  0  0  0  0  0  0
  190.4660  177.4690  145.5260 C   0  0  0  0  0  2  0  0  0  0  0  0
  191.4150  175.7330  147.2610 C   0  0  0  0  0  2  0  0  0  0  0  0
  191.4470  177.1480  147.8160 C   0  0  0  0  0  2  0  0  0  0  0  0
  190.3560  176.7370  146.8560 C   0  0  0  0  0  0  0  0  0  0  0  0
  189.1110  176.6700  147.4990 O   0  0  0  0  0  0  0  0  0  0  0  0
  188.9970  177.8290  148.2750 C   0  0  0  0  0  1  0  0  0  0  0  0
  180.3870  179.1570  140.9870 O   0  0  0  0  0  1  0  0  0  0  0  0
  180.9920  177.9540  141.1030 N   0  0  0  0  0  2  0  0  0  0  0  0
  180.7820  174.4230  136.1690 C   0  0  0  0  0  2  0  0  0  0  0  0
  181.2530  172.9860  136.3420 C   0  0  0  0  0  1  0  0  0  0  0  0
  188.0390  174.9200  135.1190 C   0  0  0  0  0  2  0  0  0  0  0  0
  189.4160  175.1860  135.6210 C   0  0  0  0  0  0  0  0  0  0  0  0
  190.0070  176.2530  135.3030 O   0  0  0  0  0  0  0  0  0  0  0  0
  190.0400  174.2390  136.4900 N   0  0  0  0  0  2  0  0  0  0  0  0
  191.3370  174.4540  137.0410 C   0  0  0  0  0  3  0  0  0  0  0  0
  192.3880  173.8330  136.5190 C   0  0  0  0  0  3  0  0  0  0  0  0
  194.3740  172.7790  137.2790 O   0  0  0  0  0  1  0  0  0  0  0  0
  193.7710  174.0200  137.0620 C   0  0  1  0  0  3  0  0  0  0  0  0
  194.6370  174.8560  136.1270 C   0  0  0  0  0  2  0  0  0  0  0  0
  194.4560  176.3110  136.3920 C   0  0  0  0  0  0  0  0  0  0  0  0
  194.8800  177.1610  135.5680 O   0  0  0  0  0  0  0  0  0  0  0  0
  193.8320  176.7300  137.5600 O   0  0  0  0  0  1  0  0  0  0  0  0
  2 39  1  6  0  0  0
  2 11  1  0  0  0  0
  3 12  1  1  0  0  0
  3 14  1  0  0  0  0
  3  6  1  0  0  0  0
  4  1  1  0  0  0  0
  5 10  1  0  0  0  0
  6  8  1  0  0  0  0
  6  5  1  1  0  0  0
  7 38  1  0  0  0  0
  8  1  1  0  0  0  0
  8 17  1  1  0  0  0
  9  4  1  0  0  0  0
 10  7  2  0  0  0  0
 11 10  1  0  0  0  0
 12  4  2  0  0  0  0
 13 15  2  0  0  0  0
 13 12  1  0  0  0  0
 14  2  1  0  0  0  0
 15  9  1  0  0  0  0
 16 19  1  0  0  0  0
 17 16  1  0  0  0  0
 18 17  2  0  0  0  0
 19 20  1  0  0  0  0
 20 21  1  0  0  0  0
 21 22  1  0  0  0  0
 22 23  1  0  0  0  0
 23 24  2  0  0  0  0
 25 23  1  0  0  0  0
 26 25  1  0  0  0  0
 27 28  2  6  0  0  0
 27 30  1  0  0  0  0
 27 26  1  0  0  0  0
 29 27  1  0  0  0  0
 30 31  1  0  0  0  0
 31 34  1  0  0  0  0
 32 33  1  0  0  0  0
 34 32  1  0  0  0  0
 34 35  1  0  0  0  0
 34 33  1  0  0  0  0
 35 36  1  0  0  0  0
 37 38  1  0  0  0  0
 39 40  1  0  0  0  0
 41 42  1  0  0  0  0
 41 15  1  0  0  0  0
 42 44  1  0  0  0  0
 43 42  2  0  0  0  0
 44 45  1  0  0  0  0
 46 45  2  0  0  0  0
 46 48  1  0  0  0  0
 48 47  1  6  0  0  0
 49 50  1  0  0  0  0
 49 48  1  0  0  0  0
 50 52  1  0  0  0  0
 51 50  2  0  0  0  0
M  END
>  <MODEL>
3

>  <REMARK>
 VINA RESULT:      -6.1      3.147      8.226
  Name = 
  21 active torsions:
  status: ('A' for Active; 'I' for Inactive)
    1  A    between atoms: N_1  and  C_15
    2  A    between atoms: C_4  and  C_25
    3  A    between atoms: C_5  and  C_35
    4  A    between atoms: C_5  and  C_51
    5  A    between atoms: C_7  and  C_30
    6  A    between atoms: C_7  and  C_50
    7  A    between atoms: O_8  and  P_19
    8  A    between atoms: O_8  and  C_38
    9  A    between atoms: O_10  and  P_19
   10  A    between atoms: O_10  and  C_40
   11  A    between atoms: C_11  and  C_40
   12  A    between atoms: C_11  and  C_50
   13  A    between atoms: C_12  and  C_48
   14  A    between atoms: C_13  and  N_42
   15  A    between atoms: C_15  and  C_30
   16  A    between atoms: C_17  and  N_22
   17  A    between atoms: C_21  and  C_39
   18  A    between atoms: C_31  and  O_34
   19  A    between atoms: C_31  and  C_38
   20  A    between atoms: C_43  and  C_52
   21  A    between atoms: C_48  and  C_52
                            x       y       z     vdW  Elec       q    Type
                         _______ _______ _______ _____ _____    ______ ____

>  <TORSDO>
F 21

$$$$
=
 OpenBabel10232411413D

 52 55  0  0  1  0  0  0  0  0999 V2000
  187.8710  177.3800  138.4970 C   0  0  0  0  0  2  0  0  0  0  0  0
  190.4190  173.6600  135.9700 C   0  0  1  0  0  3  0  0  0  0  0  0
  190.0000  175.7090  137.1450 C   0  0  1  0  0  3  0  0  0  0  0  0
  189.2530  177.1820  139.0370 C   0  0  0  0  0  0  0  0  0  0  0  0
  187.7030  174.5500  137.0130 C   0  0  0  0  0  2  0  0  0  0  0  0
  188.5330  175.7720  136.6210 C   0  0  1  0  0  3  0  0  0  0  0  0
  186.9930  173.1490  135.1100 C   0  0  0  0  0  3  0  0  0  0  0  0
  187.8570  177.1020  136.9930 C   0  0  1  0  0  3  0  0  0  0  0  0
  189.7650  177.7620  140.3060 C   0  0  0  0  0  2  0  0  0  0  0  0
  187.9270  173.4600  136.0060 C   0  0  0  0  0  0  0  0  0  0  0  0
  189.2210  172.7090  135.9840 C   0  0  0  0  0  2  0  0  0  0  0  0
  190.1720  176.4140  138.4660 C   0  0  0  0  0  0  0  0  0  0  0  0
  191.4000  176.4590  139.2420 C   0  0  0  0  0  3  0  0  0  0  0  0
  190.5180  174.3420  137.2550 N   0  0  0  0  0  2  0  0  0  0  0  0
  191.1580  177.2230  140.3010 C   0  0  0  0  0  0  0  0  0  0  0  0
  185.3430  177.7240  137.0220 N   0  0  0  0  0  2  0  0  0  0  0  0
  186.5290  177.3260  136.3190 C   0  0  0  0  0  0  0  0  0  0  0  0
  186.4470  177.0920  135.0850 O   0  0  0  0  0  0  0  0  0  0  0  0
  185.2940  178.1630  138.4100 C   0  0  0  0  0  2  0  0  0  0  0  0
  183.8600  178.1540  138.9190 C   0  0  0  0  0  2  0  0  0  0  0  0
  183.2730  176.7510  138.8850 C   0  0  0  0  0  2  0  0  0  0  0  0
  181.8330  176.7910  138.4030 C   0  0  0  0  0  2  0  0  0  0  0  0
  181.0590  177.8160  139.1670 C   0  0  0  0  0  0  0  0  0  0  0  0
  180.4970  178.8420  138.5290 C   0  0  0  0  0  2  0  0  0  0  0  0
  180.7440  177.5700  140.6010 C   0  0  0  0  0  2  0  0  0  0  0  0
  179.9830  178.6250  141.1100 O   0  0  0  0  0  0  0  0  0  0  0  0
  180.7510  179.0830  142.5510 P   0  0  2  0  0  0  0  0  0  0  0  0
  180.2480  178.0530  143.7960 O   0  0  0  0  0  1  0  0  0  0  0  0
  180.3650  180.5020  142.9070 O   0  0  0  0  0  0  0  0  0  0  0  0
  182.4370  178.9890  142.3800 O   0  0  0  0  0  0  0  0  0  0  0  0
  182.9340  178.9140  143.6820 C   0  0  0  0  0  2  0  0  0  0  0  0
  185.1310  178.0200  142.5410 C   0  0  0  0  0  2  0  0  0  0  0  0
  185.0540  179.5380  142.4890 C   0  0  0  0  0  2  0  0  0  0  0  0
  184.4500  178.7900  143.6540 C   0  0  0  0  0  0  0  0  0  0  0  0
  185.1770  179.0140  144.8330 O   0  0  0  0  0  0  0  0  0  0  0  0
  184.2740  178.8710  145.8940 C   0  0  0  0  0  1  0  0  0  0  0  0
  184.6610  173.2180  134.5290 O   0  0  0  0  0  1  0  0  0  0  0  0
  185.7420  173.8280  135.0640 N   0  0  0  0  0  2  0  0  0  0  0  0
  191.7130  172.9130  135.6590 C   0  0  0  0  0  2  0  0  0  0  0  0
  192.4980  173.5560  134.5250 C   0  0  0  0  0  1  0  0  0  0  0  0
  192.1750  177.5460  141.3460 C   0  0  0  0  0  2  0  0  0  0  0  0
  191.5520  177.5930  142.6980 C   0  0  0  0  0  0  0  0  0  0  0  0
  191.9120  178.4730  143.5260 O   0  0  0  0  0  0  0  0  0  0  0  0
  190.5250  176.6560  143.0300 N   0  0  0  0  0  2  0  0  0  0  0  0
  189.8580  176.6760  144.2890 C   0  0  0  0  0  3  0  0  0  0  0  0
  188.8230  177.4870  144.4750 C   0  0  0  0  0  3  0  0  0  0  0  0
  186.9530  176.7390  145.7320 O   0  0  0  0  0  1  0  0  0  0  0  0
  188.0890  177.5510  145.7790 C   0  0  1  0  0  3  0  0  0  0  0  0
  188.9730  177.1300  146.9470 C   0  0  0  0  0  2  0  0  0  0  0  0
  188.8180  178.0670  148.0950 C   0  0  0  0  0  0  0  0  0  0  0  0
  189.7910  178.2940  148.8610 O   0  0  0  0  0  1  0  0  0  0  0  0
  187.5950  178.6790  148.3310 O   0  0  0  0  0  0  0  0  0  0  0  0
  1  4  1  0  0  0  0
  2 39  1  1  0  0  0
  2 11  1  0  0  0  0
  2 14  1  0  0  0  0
  3 14  1  1  0  0  0
  3 12  1  0  0  0  0
  4  9  1  0  0  0  0
  6  8  1  0  0  0  0
  6  5  1  1  0  0  0
  6  3  1  0  0  0  0
  7 10  2  0  0  0  0
  8 17  1  1  0  0  0
  8  1  1  0  0  0  0
 10  5  1  0  0  0  0
 11 10  1  0  0  0  0
 12  4  2  0  0  0  0
 12 13  1  0  0  0  0
 13 15  2  0  0  0  0
 15  9  1  0  0  0  0
 15 41  1  0  0  0  0
 16 19  1  0  0  0  0
 17 16  1  0  0  0  0
 18 17  2  0  0  0  0
 19 20  1  0  0  0  0
 21 20  1  0  0  0  0
 22 21  1  0  0  0  0
 22 23  1  0  0  0  0
 23 25  1  0  0  0  0
 24 23  2  0  0  0  0
 25 26  1  0  0  0  0
 26 27  1  0  0  0  0
 27 29  2  1  0  0  0
 27 28  1  0  0  0  0
 30 27  1  0  0  0  0
 30 31  1  0  0  0  0
 32 34  1  0  0  0  0
 33 32  1  0  0  0  0
 33 34  1  0  0  0  0
 34 31  1  0  0  0  0
 34 35  1  0  0  0  0
 35 36  1  0  0  0  0
 37 38  1  0  0  0  0
 38  7  1  0  0  0  0
 40 39  1  0  0  0  0
 41 42  1  0  0  0  0
 42 44  1  0  0  0  0
 42 43  2  0  0  0  0
 44 45  1  0  0  0  0
 45 46  2  0  0  0  0
 46 48  1  0  0  0  0
 48 47  1  6  0  0  0
 48 49  1  0  0  0  0
 49 50  1  0  0  0  0
 50 52  2  0  0  0  0
 50 51  1  0  0  0  0
M  END
>  <MODEL>
4

>  <REMARK>
 VINA RESULT:      -6.1      3.211      8.315
  Name = 
  21 active torsions:
  status: ('A' for Active; 'I' for Inactive)
    1  A    between atoms: N_1  and  C_15
    2  A    between atoms: C_4  and  C_25
    3  A    between atoms: C_5  and  C_35
    4  A    between atoms: C_5  and  C_51
    5  A    between atoms: C_7  and  C_30
    6  A    between atoms: C_7  and  C_50
    7  A    between atoms: O_8  and  P_19
    8  A    between atoms: O_8  and  C_38
    9  A    between atoms: O_10  and  P_19
   10  A    between atoms: O_10  and  C_40
   11  A    between atoms: C_11  and  C_40
   12  A    between atoms: C_11  and  C_50
   13  A    between atoms: C_12  and  C_48
   14  A    between atoms: C_13  and  N_42
   15  A    between atoms: C_15  and  C_30
   16  A    between atoms: C_17  and  N_22
   17  A    between atoms: C_21  and  C_39
   18  A    between atoms: C_31  and  O_34
   19  A    between atoms: C_31  and  C_38
   20  A    between atoms: C_43  and  C_52
   21  A    between atoms: C_48  and  C_52
                            x       y       z     vdW  Elec       q    Type
                         _______ _______ _______ _____ _____    ______ ____

>  <TORSDO>
F 21

$$$$
=
 OpenBabel10232411413D

 52 55  0  0  1  0  0  0  0  0999 V2000
  185.4130  178.1830  141.0130 C   0  0  0  0  0  2  0  0  0  0  0  0
  181.9750  177.8910  137.1650 C   0  0  1  0  0  3  0  0  0  0  0  0
  183.9130  178.5560  138.4130 C   0  0  1  0  0  3  0  0  0  0  0  0
  186.0680  178.2680  139.6700 C   0  0  0  0  0  0  0  0  0  0  0  0
  182.6810  176.8960  139.9520 C   0  0  0  0  0  2  0  0  0  0  0  0
  183.1820  178.3290  139.7710 C   0  0  1  0  0  3  0  0  0  0  0  0
  180.2250  176.6790  140.0290 C   0  0  0  0  0  3  0  0  0  0  0  0
  184.0260  178.8250  140.9570 C   0  0  1  0  0  3  0  0  0  0  0  0
  187.5310  178.1710  139.4260 C   0  0  0  0  0  2  0  0  0  0  0  0
  181.3360  176.7590  139.3010 C   0  0  0  0  0  0  0  0  0  0  0  0
  181.2210  176.7260  137.8100 C   0  0  0  0  0  2  0  0  0  0  0  0
  185.4060  178.3880  138.5260 C   0  0  0  0  0  0  0  0  0  0  0  0
  186.3480  178.4580  137.4210 C   0  0  0  0  0  3  0  0  0  0  0  0
  183.4110  177.6990  137.3350 N   0  0  0  0  0  2  0  0  0  0  0  0
  187.5620  178.3210  137.9390 C   0  0  0  0  0  0  0  0  0  0  0  0
  183.8690  178.4440  143.5140 N   0  0  0  0  0  2  0  0  0  0  0  0
  183.2870  178.8550  142.2680 C   0  0  0  0  0  0  0  0  0  0  0  0
  182.0770  179.2030  142.2560 O   0  0  0  0  0  0  0  0  0  0  0  0
  185.2790  178.1480  143.7260 C   0  0  0  0  0  2  0  0  0  0  0  0
  185.8300  178.9820  144.8740 C   0  0  0  0  0  2  0  0  0  0  0  0
  185.8490  178.1880  146.1710 C   0  0  0  0  0  2  0  0  0  0  0  0
  187.0900  177.3140  146.2380 C   0  0  0  0  0  2  0  0  0  0  0  0
  187.9480  177.7190  147.3910 C   0  0  0  0  0  0  0  0  0  0  0  0
  187.3940  178.2190  148.4940 C   0  0  0  0  0  2  0  0  0  0  0  0
  189.3950  177.3640  147.3810 C   0  0  0  0  0  2  0  0  0  0  0  0
  189.6920  176.6070  146.2460 O   0  0  0  0  0  0  0  0  0  0  0  0
  191.3610  176.7880  146.0040 P   0  0  2  0  0  0  0  0  0  0  0  0
  191.9900  175.3430  145.3860 O   0  0  0  0  0  0  0  0  0  0  0  0
  192.0380  177.0890  147.3230 O   0  0  0  0  0  1  0  0  0  0  0  0
  191.6680  178.0550  144.9180 O   0  0  0  0  0  0  0  0  0  0  0  0
  190.4130  178.4440  144.4460 C   0  0  0  0  0  2  0  0  0  0  0  0
  189.2100  176.6430  142.9520 C   0  0  0  0  0  2  0  0  0  0  0  0
  188.7330  178.0480  142.6220 C   0  0  0  0  0  2  0  0  0  0  0  0
  190.1530  177.8210  143.0820 C   0  0  0  0  0  0  0  0  0  0  0  0
  191.0670  178.0460  142.0420 O   0  0  0  0  0  0  0  0  0  0  0  0
  191.8760  176.9070  141.9650 C   0  0  0  0  0  1  0  0  0  0  0  0
  179.9820  177.8640  142.1080 O   0  0  0  0  0  1  0  0  0  0  0  0
  180.2570  176.7140  141.4530 N   0  0  0  0  0  2  0  0  0  0  0  0
  181.6230  178.0240  135.6850 C   0  0  0  0  0  2  0  0  0  0  0  0
  181.0550  176.7370  135.1060 C   0  0  0  0  0  1  0  0  0  0  0  0
  188.8210  178.3590  137.1370 C   0  0  0  0  0  2  0  0  0  0  0  0
  189.5870  177.0900  137.2890 C   0  0  0  0  0  0  0  0  0  0  0  0
  189.3040  176.0960  136.5670 O   0  0  0  0  0  0  0  0  0  0  0  0
  190.6590  177.0270  138.2300 N   0  0  0  0  0  2  0  0  0  0  0  0
  191.4590  175.8590  138.3910 C   0  0  0  0  0  3  0  0  0  0  0  0
  192.4770  175.6360  137.5690 C   0  0  0  0  0  3  0  0  0  0  0  0
  192.9030  173.4240  136.8220 O   0  0  0  0  0  1  0  0  0  0  0  0
  193.3470  174.4230  137.6910 C   0  0  1  0  0  3  0  0  0  0  0  0
  194.8090  174.7440  137.4020 C   0  0  0  0  0  2  0  0  0  0  0  0
  195.7010  174.1230  138.4210 C   0  0  0  0  0  0  0  0  0  0  0  0
  196.8260  174.6300  138.6690 O   0  0  0  0  0  0  0  0  0  0  0  0
  195.2980  172.9750  139.0890 O   0  0  0  0  0  1  0  0  0  0  0  0
  2 39  1  6  0  0  0
  2 14  1  0  0  0  0
  2 11  1  0  0  0  0
  3 14  1  6  0  0  0
  3 12  1  0  0  0  0
  3  6  1  0  0  0  0
  4  1  1  0  0  0  0
  6  5  1  1  0  0  0
  6  8  1  0  0  0  0
  7 38  1  0  0  0  0
  8  1  1  0  0  0  0
  8 17  1  1  0  0  0
  9  4  1  0  0  0  0
 10  5  1  0  0  0  0
 10  7  2  0  0  0  0
 11 10  1  0  0  0  0
 12  4  2  0  0  0  0
 13 15  2  0  0  0  0
 13 12  1  0  0  0  0
 15  9  1  0  0  0  0
 16 19  1  0  0  0  0
 17 16  1  0  0  0  0
 18 17  2  0  0  0  0
 19 20  1  0  0  0  0
 20 21  1  0  0  0  0
 21 22  1  0  0  0  0
 22 23  1  0  0  0  0
 23 24  2  0  0  0  0
 25 23  1  0  0  0  0
 26 25  1  0  0  0  0
 27 28  2  6  0  0  0
 27 26  1  0  0  0  0
 27 29  1  0  0  0  0
 30 27  1  0  0  0  0
 31 30  1  0  0  0  0
 32 34  1  0  0  0  0
 33 32  1  0  0  0  0
 33 34  1  0  0  0  0
 34 31  1  0  0  0  0
 35 34  1  0  0  0  0
 36 35  1  0  0  0  0
 38 37  1  0  0  0  0
 40 39  1  0  0  0  0
 41 42  1  0  0  0  0
 41 15  1  0  0  0  0
 42 44  1  0  0  0  0
 43 42  2  0  0  0  0
 44 45  1  0  0  0  0
 46 48  1  0  0  0  0
 46 45  2  0  0  0  0
 48 47  1  6  0  0  0
 49 48  1  0  0  0  0
 49 50  1  0  0  0  0
 50 51  2  0  0  0  0
 50 52  1  0  0  0  0
M  END
>  <MODEL>
5

>  <REMARK>
 VINA RESULT:      -6.0      3.249      8.039
  Name = 
  21 active torsions:
  status: ('A' for Active; 'I' for Inactive)
    1  A    between atoms: N_1  and  C_15
    2  A    between atoms: C_4  and  C_25
    3  A    between atoms: C_5  and  C_35
    4  A    between atoms: C_5  and  C_51
    5  A    between atoms: C_7  and  C_30
    6  A    between atoms: C_7  and  C_50
    7  A    between atoms: O_8  and  P_19
    8  A    between atoms: O_8  and  C_38
    9  A    between atoms: O_10  and  P_19
   10  A    between atoms: O_10  and  C_40
   11  A    between atoms: C_11  and  C_40
   12  A    between atoms: C_11  and  C_50
   13  A    between atoms: C_12  and  C_48
   14  A    between atoms: C_13  and  N_42
   15  A    between atoms: C_15  and  C_30
   16  A    between atoms: C_17  and  N_22
   17  A    between atoms: C_21  and  C_39
   18  A    between atoms: C_31  and  O_34
   19  A    between atoms: C_31  and  C_38
   20  A    between atoms: C_43  and  C_52
   21  A    between atoms: C_48  and  C_52
                            x       y       z     vdW  Elec       q    Type
                         _______ _______ _______ _____ _____    ______ ____

>  <TORSDO>
F 21

$$$$
=
 OpenBabel10232411413D

 52 55  0  0  1  0  0  0  0  0999 V2000
  189.9360  177.8220  138.6060 C   0  0  0  0  0  2  0  0  0  0  0  0
  190.4750  173.4180  135.9550 C   0  0  1  0  0  3  0  0  0  0  0  0
  189.5050  175.0930  137.3710 C   0  0  1  0  0  3  0  0  0  0  0  0
  188.6390  177.3610  138.0170 C   0  0  0  0  0  0  0  0  0  0  0  0
  191.7980  176.0560  136.6950 C   0  0  0  0  0  2  0  0  0  0  0  0
  190.9080  175.5820  137.8440 C   0  0  1  0  0  3  0  0  0  0  0  0
  193.7990  174.6630  136.3170 C   0  0  0  0  0  3  0  0  0  0  0  0
  190.7950  176.6120  138.9800 C   0  0  1  0  0  3  0  0  0  0  0  0
  187.3970  178.1750  137.9440 C   0  0  0  0  0  2  0  0  0  0  0  0
  192.5030  174.8730  136.0990 C   0  0  0  0  0  0  0  0  0  0  0  0
  191.7500  173.8920  135.2560 C   0  0  0  0  0  2  0  0  0  0  0  0
  188.4630  176.1810  137.4360 C   0  0  0  0  0  0  0  0  0  0  0  0
  187.0860  176.0550  136.9890 C   0  0  0  0  0  3  0  0  0  0  0  0
  189.5160  174.5150  136.0250 N   0  0  0  0  0  2  0  0  0  0  0  0
  186.4820  177.2030  137.2710 C   0  0  0  0  0  0  0  0  0  0  0  0
  192.2240  177.3030  141.0260 N   0  0  0  0  0  2  0  0  0  0  0  0
  192.1060  176.9450  139.6410 C   0  0  0  0  0  0  0  0  0  0  0  0
  193.1390  176.9680  138.9230 O   0  0  0  0  0  0  0  0  0  0  0  0
  191.1630  177.1940  142.0170 C   0  0  0  0  0  2  0  0  0  0  0  0
  191.5530  177.9230  143.2950 C   0  0  0  0  0  2  0  0  0  0  0  0
  190.3550  178.0980  144.2160 C   0  0  0  0  0  2  0  0  0  0  0  0
  190.4130  177.0940  145.3550 C   0  0  0  0  0  2  0  0  0  0  0  0
  189.1690  177.1710  146.1780 C   0  0  0  0  0  0  0  0  0  0  0  0
  189.1960  176.8270  147.4650 C   0  0  0  0  0  2  0  0  0  0  0  0
  187.9600  177.8310  145.6100 C   0  0  0  0  0  2  0  0  0  0  0  0
  187.2180  178.4270  146.6330 O   0  0  0  0  0  0  0  0  0  0  0  0
  185.6540  178.6180  146.0050 P   0  0  2  0  0  0  0  0  0  0  0  0
  185.3820  180.2590  145.6910 O   0  0  0  0  0  0  0  0  0  0  0  0
  184.6360  178.1410  147.0170 O   0  0  0  0  0  1  0  0  0  0  0  0
  185.4790  177.7270  144.5720 O   0  0  0  0  0  0  0  0  0  0  0  0
  184.5030  178.4030  143.8370 C   0  0  0  0  0  2  0  0  0  0  0  0
  185.9470  179.4030  141.8770 C   0  0  0  0  0  2  0  0  0  0  0  0
  186.3010  177.9480  142.1430 C   0  0  0  0  0  2  0  0  0  0  0  0
  184.8890  178.4350  142.3650 C   0  0  0  0  0  0  0  0  0  0  0  0
  184.0100  177.8930  141.4160 O   0  0  0  0  0  0  0  0  0  0  0  0
  184.1000  178.7020  140.2770 C   0  0  0  0  0  1  0  0  0  0  0  0
  195.9270  175.4940  137.0690 O   0  0  0  0  0  1  0  0  0  0  0  0
  194.5770  175.5480  137.1180 N   0  0  0  0  0  2  0  0  0  0  0  0
  189.8640  172.2180  135.2340 C   0  0  0  0  0  2  0  0  0  0  0  0
  188.3880  172.0380  135.5530 C   0  0  0  0  0  1  0  0  0  0  0  0
  185.0420  177.4790  136.9920 C   0  0  0  0  0  2  0  0  0  0  0  0
  184.4190  176.3490  136.2480 C   0  0  0  0  0  0  0  0  0  0  0  0
  184.4400  176.3390  134.9870 O   0  0  0  0  0  0  0  0  0  0  0  0
  183.8330  175.2680  136.9750 N   0  0  0  0  0  2  0  0  0  0  0  0
  183.2610  174.1370  136.3240 C   0  0  0  0  0  3  0  0  0  0  0  0
  183.7910  172.9330  136.5050 C   0  0  0  0  0  3  0  0  0  0  0  0
  183.2730  170.6270  136.7200 O   0  0  0  0  0  1  0  0  0  0  0  0
  183.2330  171.7120  135.8420 C   0  0  1  0  0  3  0  0  0  0  0  0
  181.8030  171.9320  135.3630 C   0  0  0  0  0  2  0  0  0  0  0  0
  180.8440  171.1060  136.1490 C   0  0  0  0  0  0  0  0  0  0  0  0
  180.4340  171.5070  137.2690 O   0  0  0  0  0  1  0  0  0  0  0  0
  180.4150  169.8820  135.6530 O   0  0  0  0  0  0  0  0  0  0  0  0
  1  8  1  0  0  0  0
  2 39  1  6  0  0  0
  2 14  1  0  0  0  0
  3 14  1  6  0  0  0
  3 12  1  0  0  0  0
  3  6  1  0  0  0  0
  4  1  1  0  0  0  0
  6  5  1  6  0  0  0
  6  8  1  0  0  0  0
  7 38  1  0  0  0  0
  8 17  1  6  0  0  0
  9  4  1  0  0  0  0
 10  7  2  0  0  0  0
 10  5  1  0  0  0  0
 11  2  1  0  0  0  0
 11 10  1  0  0  0  0
 12  4  2  0  0  0  0
 13 15  2  0  0  0  0
 13 12  1  0  0  0  0
 15  9  1  0  0  0  0
 16 19  1  0  0  0  0
 17 16  1  0  0  0  0
 18 17  2  0  0  0  0
 19 20  1  0  0  0  0
 20 21  1  0  0  0  0
 21 22  1  0  0  0  0
 22 23  1  0  0  0  0
 23 24  2  0  0  0  0
 25 23  1  0  0  0  0
 25 26  1  0  0  0  0
 27 28  2  6  0  0  0
 27 26  1  0  0  0  0
 27 29  1  0  0  0  0
 30 27  1  0  0  0  0
 31 30  1  0  0  0  0
 32 33  1  0  0  0  0
 32 34  1  0  0  0  0
 33 34  1  0  0  0  0
 34 31  1  0  0  0  0
 35 34  1  0  0  0  0
 36 35  1  0  0  0  0
 37 38  1  0  0  0  0
 39 40  1  0  0  0  0
 41 15  1  0  0  0  0
 42 44  1  0  0  0  0
 42 41  1  0  0  0  0
 43 42  2  0  0  0  0
 45 46  2  0  0  0  0
 45 44  1  0  0  0  0
 48 46  1  0  0  0  0
 48 47  1  1  0  0  0
 49 48  1  0  0  0  0
 49 50  1  0  0  0  0
 50 51  1  0  0  0  0
 52 50  2  0  0  0  0
M  END
>  <MODEL>
6

>  <REMARK>
 VINA RESULT:      -6.0      3.208      9.142
  Name = 
  21 active torsions:
  status: ('A' for Active; 'I' for Inactive)
    1  A    between atoms: N_1  and  C_15
    2  A    between atoms: C_4  and  C_25
    3  A    between atoms: C_5  and  C_35
    4  A    between atoms: C_5  and  C_51
    5  A    between atoms: C_7  and  C_30
    6  A    between atoms: C_7  and  C_50
    7  A    between atoms: O_8  and  P_19
    8  A    between atoms: O_8  and  C_38
    9  A    between atoms: O_10  and  P_19
   10  A    between atoms: O_10  and  C_40
   11  A    between atoms: C_11  and  C_40
   12  A    between atoms: C_11  and  C_50
   13  A    between atoms: C_12  and  C_48
   14  A    between atoms: C_13  and  N_42
   15  A    between atoms: C_15  and  C_30
   16  A    between atoms: C_17  and  N_22
   17  A    between atoms: C_21  and  C_39
   18  A    between atoms: C_31  and  O_34
   19  A    between atoms: C_31  and  C_38
   20  A    between atoms: C_43  and  C_52
   21  A    between atoms: C_48  and  C_52
                            x       y       z     vdW  Elec       q    Type
                         _______ _______ _______ _____ _____    ______ ____

>  <TORSDO>
F 21

$$$$
=
 OpenBabel10232411413D

 52 55  0  0  1  0  0  0  0  0999 V2000
  190.1500  178.0530  138.6810 C   0  0  0  0  0  2  0  0  0  0  0  0
  192.0790  173.8050  136.4580 C   0  0  1  0  0  3  0  0  0  0  0  0
  190.4810  175.4140  137.2390 C   0  0  1  0  0  3  0  0  0  0  0  0
  189.3750  177.6570  137.4630 C   0  0  0  0  0  0  0  0  0  0  0  0
  192.7680  176.3630  137.9530 C   0  0  0  0  0  2  0  0  0  0  0  0
  191.4090  175.8420  138.4170 C   0  0  1  0  0  3  0  0  0  0  0  0
  194.6800  174.9520  138.6150 C   0  0  0  0  0  3  0  0  0  0  0  0
  190.6930  176.8040  139.3790 C   0  0  1  0  0  3  0  0  0  0  0  0
  188.3530  178.5020  136.7900 C   0  0  0  0  0  3  0  0  0  0  0  0
  193.6980  175.2030  137.7530 C   0  0  0  0  0  0  0  0  0  0  0  0
  193.5250  174.2910  136.5780 C   0  0  0  0  0  2  0  0  0  0  0  0
  189.5520  176.5190  136.8060 C   0  0  2  0  0  3  0  0  0  0  0  0
  188.6280  176.4510  135.6860 C   0  0  0  0  0  3  0  0  0  0  0  0
  191.2180  174.9170  136.0730 N   0  0  0  0  0  2  0  0  0  0  0  0
  187.9520  177.5930  135.6730 C   0  0  0  0  0  0  0  0  0  0  0  0
  190.8500  176.9570  141.9600 N   0  0  0  0  0  2  0  0  0  0  0  0
  191.4440  177.0680  140.6570 C   0  0  0  0  0  0  0  0  0  0  0  0
  192.6350  177.4630  140.5710 O   0  0  0  0  0  0  0  0  0  0  0  0
  189.5400  176.3870  142.2420 C   0  0  0  0  0  2  0  0  0  0  0  0
  189.0970  176.7500  143.6520 C   0  0  0  0  0  2  0  0  0  0  0  0
  187.6030  176.5240  143.8340 C   0  0  0  0  0  2  0  0  0  0  0  0
  186.9780  177.6920  144.5770 C   0  0  0  0  0  2  0  0  0  0  0  0
  185.8670  178.2830  143.7720 C   0  0  0  0  0  0  0  0  0  0  0  0
  184.8240  178.8430  144.3830 C   0  0  0  0  0  2  0  0  0  0  0  0
  186.0330  178.4310  142.2990 C   0  0  0  0  0  2  0  0  0  0  0  0
  185.0330  179.2610  141.7870 O   0  0  0  0  0  0  0  0  0  0  0  0
  184.9370  178.8890  140.1350 P   0  0  2  0  0  0  0  0  0  0  0  0
  186.4690  178.4250  139.5840 O   0  0  0  0  0  1  0  0  0  0  0  0
  184.4910  180.1100  139.3620 O   0  0  0  0  0  0  0  0  0  0  0  0
  183.8320  177.6280  139.8750 O   0  0  0  0  0  0  0  0  0  0  0  0
  183.1660  177.9620  138.6950 C   0  0  0  0  0  2  0  0  0  0  0  0
  181.6530  175.8140  138.5390 C   0  0  0  0  0  2  0  0  0  0  0  0
  181.5430  176.4750  139.9040 C   0  0  0  0  0  2  0  0  0  0  0  0
  181.7880  177.3170  138.6750 C   0  0  0  0  0  0  0  0  0  0  0  0
  180.6690  178.1050  138.3670 O   0  0  0  0  0  0  0  0  0  0  0  0
  181.1500  179.3810  138.0520 C   0  0  0  0  0  1  0  0  0  0  0  0
  196.1120  175.7860  140.3580 O   0  0  0  0  0  1  0  0  0  0  0  0
  194.8990  175.7700  139.7610 N   0  0  0  0  0  2  0  0  0  0  0  0
  191.9640  172.6640  135.4490 C   0  0  0  0  0  2  0  0  0  0  0  0
  192.9860  171.5650  135.6960 C   0  0  0  0  0  1  0  0  0  0  0  0
  186.8800  177.9170  134.6860 C   0  0  0  0  0  2  0  0  0  0  0  0
  185.7940  176.8980  134.7280 C   0  0  0  0  0  0  0  0  0  0  0  0
  184.6100  177.2520  134.9790 O   0  0  0  0  0  0  0  0  0  0  0  0
  186.1030  175.5320  134.4460 N   0  0  0  0  0  2  0  0  0  0  0  0
  185.1030  174.5170  134.4260 C   0  0  0  0  0  3  0  0  0  0  0  0
  184.9150  173.7520  135.4950 C   0  0  0  0  0  3  0  0  0  0  0  0
  184.4730  171.4320  135.2560 O   0  0  0  0  0  1  0  0  0  0  0  0
  183.8820  172.6690  135.5250 C   0  0  1  0  0  3  0  0  0  0  0  0
  183.1600  172.6130  136.8660 C   0  0  0  0  0  2  0  0  0  0  0  0
  181.8060  172.0100  136.7170 C   0  0  0  0  0  0  0  0  0  0  0  0
  180.7980  172.5900  137.1980 O   0  0  0  0  0  1  0  0  0  0  0  0
  181.6570  170.7960  136.0600 O   0  0  0  0  0  0  0  0  0  0  0  0
  1  8  1  0  0  0  0
  2 39  1  6  0  0  0
  2 11  1  0  0  0  0
  3 14  1  6  0  0  0
  3  6  1  0  0  0  0
  4  1  1  0  0  0  0
  6  5  1  6  0  0  0
  6  8  1  0  0  0  0
  7 38  1  0  0  0  0
  8 17  1  1  0  0  0
  9  4  2  0  0  0  0
 10  5  1  0  0  0  0
 10  7  2  0  0  0  0
 11 10  1  0  0  0  0
 12 13  1  1  0  0  0
 12  3  1  0  0  0  0
 12  4  1  0  0  0  0
 14  2  1  0  0  0  0
 15 13  2  0  0  0  0
 15  9  1  0  0  0  0
 16 19  1  0  0  0  0
 17 16  1  0  0  0  0
 18 17  2  0  0  0  0
 19 20  1  0  0  0  0
 20 21  1  0  0  0  0
 21 22  1  0  0  0  0
 23 24  2  0  0  0  0
 23 22  1  0  0  0  0
 25 23  1  0  0  0  0
 26 25  1  0  0  0  0
 27 29  2  6  0  0  0
 27 26  1  0  0  0  0
 28 27  1  0  0  0  0
 30 27  1  0  0  0  0
 31 30  1  0  0  0  0
 32 34  1  0  0  0  0
 32 33  1  0  0  0  0
 34 31  1  0  0  0  0
 34 33  1  0  0  0  0
 35 34  1  0  0  0  0
 36 35  1  0  0  0  0
 38 37  1  0  0  0  0
 39 40  1  0  0  0  0
 41 42  1  0  0  0  0
 41 15  1  0  0  0  0
 42 43  2  0  0  0  0
 44 42  1  0  0  0  0
 45 44  1  0  0  0  0
 45 46  2  0  0  0  0
 46 48  1  0  0  0  0
 48 47  1  1  0  0  0
 48 49  1  0  0  0  0
 50 49  1  0  0  0  0
 50 51  1  0  0  0  0
 52 50  2  0  0  0  0
M  END
>  <MODEL>
7

>  <REMARK>
 VINA RESULT:      -5.9      2.941      7.636
  Name = 
  21 active torsions:
  status: ('A' for Active; 'I' for Inactive)
    1  A    between atoms: N_1  and  C_15
    2  A    between atoms: C_4  and  C_25
    3  A    between atoms: C_5  and  C_35
    4  A    between atoms: C_5  and  C_51
    5  A    between atoms: C_7  and  C_30
    6  A    between atoms: C_7  and  C_50
    7  A    between atoms: O_8  and  P_19
    8  A    between atoms: O_8  and  C_38
    9  A    between atoms: O_10  and  P_19
   10  A    between atoms: O_10  and  C_40
   11  A    between atoms: C_11  and  C_40
   12  A    between atoms: C_11  and  C_50
   13  A    between atoms: C_12  and  C_48
   14  A    between atoms: C_13  and  N_42
   15  A    between atoms: C_15  and  C_30
   16  A    between atoms: C_17  and  N_22
   17  A    between atoms: C_21  and  C_39
   18  A    between atoms: C_31  and  O_34
   19  A    between atoms: C_31  and  C_38
   20  A    between atoms: C_43  and  C_52
   21  A    between atoms: C_48  and  C_52
                            x       y       z     vdW  Elec       q    Type
                         _______ _______ _______ _____ _____    ______ ____

>  <TORSDO>
F 21

$$$$
=
 OpenBabel10232411413D

 52 55  0  0  1  0  0  0  0  0999 V2000
  189.7590  176.4250  137.9060 C   0  0  0  0  0  2  0  0  0  0  0  0
  185.2320  176.0050  135.4490 C   0  0  1  0  0  3  0  0  0  0  0  0
  187.5960  175.9400  135.8470 C   0  0  1  0  0  3  0  0  0  0  0  0
  189.7370  175.2570  136.9690 C   0  0  0  0  0  0  0  0  0  0  0  0
  186.5810  176.7600  138.0690 C   0  0  0  0  0  2  0  0  0  0  0  0
  187.5050  177.0890  136.8970 C   0  0  1  0  0  3  0  0  0  0  0  0
  184.5640  178.1740  138.2030 C   0  0  0  0  0  3  0  0  0  0  0  0
  188.8990  177.5580  137.3440 C   0  0  1  0  0  3  0  0  0  0  0  0
  190.7570  174.1770  136.9270 C   0  0  0  0  0  2  0  0  0  0  0  0
  185.1690  177.1040  137.6940 C   0  0  0  0  0  0  0  0  0  0  0  0
  184.4190  176.2490  136.7220 C   0  0  0  0  0  2  0  0  0  0  0  0
  188.7660  175.0220  136.0970 C   0  0  0  0  0  0  0  0  0  0  0  0
  189.0680  173.8190  135.3390 C   0  0  0  0  0  3  0  0  0  0  0  0
  186.3700  175.1440  135.7520 N   0  0  0  0  0  2  0  0  0  0  0  0
  190.2030  173.3320  135.8260 C   0  0  0  0  0  0  0  0  0  0  0  0
  188.6930  178.8260  139.5930 N   0  0  0  0  0  2  0  0  0  0  0  0
  188.8890  178.8160  138.1710 C   0  0  0  0  0  0  0  0  0  0  0  0
  188.9990  179.9170  137.5710 O   0  0  0  0  0  0  0  0  0  0  0  0
  188.6860  177.6490  140.4500 C   0  0  0  0  0  2  0  0  0  0  0  0
  188.3880  178.0430  141.8900 C   0  0  0  0  0  2  0  0  0  0  0  0
  186.9840  178.6130  142.0240 C   0  0  0  0  0  2  0  0  0  0  0  0
  186.1060  177.6730  142.8330 C   0  0  0  0  0  2  0  0  0  0  0  0
  185.2930  178.4440  143.8210 C   0  0  0  0  0  0  0  0  0  0  0  0
  184.0420  178.7960  143.5280 C   0  0  0  0  0  2  0  0  0  0  0  0
  185.8140  178.6280  145.2050 C   0  0  0  0  0  2  0  0  0  0  0  0
  186.2310  177.4010  145.7240 O   0  0  0  0  0  0  0  0  0  0  0  0
  187.6890  177.7210  146.5290 P   0  0  2  0  0  0  0  0  0  0  0  0
  188.0920  176.3900  147.4930 O   0  0  0  0  0  1  0  0  0  0  0  0
  187.5250  178.9340  147.4180 O   0  0  0  0  0  0  0  0  0  0  0  0
  188.9310  178.0120  145.4100 O   0  0  0  0  0  0  0  0  0  0  0  0
  189.7110  176.8550  145.4200 C   0  0  0  0  0  2  0  0  0  0  0  0
  191.4920  177.4450  143.5750 C   0  0  0  0  0  2  0  0  0  0  0  0
  191.2720  178.6080  144.5280 C   0  0  0  0  0  2  0  0  0  0  0  0
  191.1420  177.1880  145.0260 C   0  0  0  0  0  0  0  0  0  0  0  0
  192.1870  176.8590  145.9020 O   0  0  0  0  0  0  0  0  0  0  0  0
  191.5980  176.5730  147.1400 C   0  0  0  0  0  1  0  0  0  0  0  0
  184.4920  179.7860  139.9860 O   0  0  0  0  0  1  0  0  0  0  0  0
  185.2200  179.0390  139.1260 N   0  0  0  0  0  2  0  0  0  0  0  0
  184.3680  175.3860  134.3530 C   0  0  0  0  0  2  0  0  0  0  0  0
  182.9010  175.7680  134.4850 C   0  0  0  0  0  1  0  0  0  0  0  0
  190.8760  172.1060  135.3040 C   0  0  0  0  0  2  0  0  0  0  0  0
  192.3570  172.2750  135.2940 C   0  0  0  0  0  0  0  0  0  0  0  0
  193.0990  171.3370  135.6900 O   0  0  0  0  0  0  0  0  0  0  0  0
  192.9190  173.4920  134.8000 N   0  0  0  0  0  2  0  0  0  0  0  0
  194.3270  173.7000  134.7220 C   0  0  0  0  0  3  0  0  0  0  0  0
  194.8960  174.6500  135.4540 C   0  0  0  0  0  3  0  0  0  0  0  0
  196.6710  176.0880  136.1000 O   0  0  0  0  0  1  0  0  0  0  0  0
  196.3690  174.9140  135.4060 C   0  0  1  0  0  3  0  0  0  0  0  0
  197.1700  173.7540  135.9870 C   0  0  0  0  0  2  0  0  0  0  0  0
  198.5340  173.6960  135.3890 C   0  0  0  0  0  0  0  0  0  0  0  0
  198.8050  174.3790  134.3670 O   0  0  0  0  0  0  0  0  0  0  0  0
  199.5030  172.8760  135.9500 O   0  0  0  0  0  1  0  0  0  0  0  0
  2 39  1  6  0  0  0
  2 14  1  0  0  0  0
  2 11  1  0  0  0  0
  3 14  1  1  0  0  0
  3 12  1  0  0  0  0
  3  6  1  0  0  0  0
  4  1  1  0  0  0  0
  6  8  1  0  0  0  0
  6  5  1  1  0  0  0
  7 38  1  0  0  0  0
  8  1  1  0  0  0  0
  8 17  1  1  0  0  0
  9  4  1  0  0  0  0
 10  5  1  0  0  0  0
 10  7  2  0  0  0  0
 11 10  1  0  0  0  0
 12  4  2  0  0  0  0
 13 15  2  0  0  0  0
 13 12  1  0  0  0  0
 15  9  1  0  0  0  0
 16 19  1  0  0  0  0
 17 16  1  0  0  0  0
 18 17  2  0  0  0  0
 19 20  1  0  0  0  0
 20 21  1  0  0  0  0
 21 22  1  0  0  0  0
 22 23  1  0  0  0  0
 23 25  1  0  0  0  0
 24 23  2  0  0  0  0
 25 26  1  0  0  0  0
 26 27  1  0  0  0  0
 27 29  2  1  0  0  0
 27 28  1  0  0  0  0
 30 31  1  0  0  0  0
 30 27  1  0  0  0  0
 32 33  1  0  0  0  0
 32 34  1  0  0  0  0
 33 34  1  0  0  0  0
 34 31  1  0  0  0  0
 34 35  1  0  0  0  0
 35 36  1  0  0  0  0
 38 37  1  0  0  0  0
 39 40  1  0  0  0  0
 41 15  1  0  0  0  0
 42 41  1  0  0  0  0
 42 43  2  0  0  0  0
 44 42  1  0  0  0  0
 45 44  1  0  0  0  0
 45 46  2  0  0  0  0
 48 46  1  0  0  0  0
 48 49  1  0  0  0  0
 48 47  1  1  0  0  0
 50 52  1  0  0  0  0
 50 49  1  0  0  0  0
 51 50  2  0  0  0  0
M  END
>  <MODEL>
8

>  <REMARK>
 VINA RESULT:      -5.9      3.322      8.303
  Name = 
  21 active torsions:
  status: ('A' for Active; 'I' for Inactive)
    1  A    between atoms: N_1  and  C_15
    2  A    between atoms: C_4  and  C_25
    3  A    between atoms: C_5  and  C_35
    4  A    between atoms: C_5  and  C_51
    5  A    between atoms: C_7  and  C_30
    6  A    between atoms: C_7  and  C_50
    7  A    between atoms: O_8  and  P_19
    8  A    between atoms: O_8  and  C_38
    9  A    between atoms: O_10  and  P_19
   10  A    between atoms: O_10  and  C_40
   11  A    between atoms: C_11  and  C_40
   12  A    between atoms: C_11  and  C_50
   13  A    between atoms: C_12  and  C_48
   14  A    between atoms: C_13  and  N_42
   15  A    between atoms: C_15  and  C_30
   16  A    between atoms: C_17  and  N_22
   17  A    between atoms: C_21  and  C_39
   18  A    between atoms: C_31  and  O_34
   19  A    between atoms: C_31  and  C_38
   20  A    between atoms: C_43  and  C_52
   21  A    between atoms: C_48  and  C_52
                            x       y       z     vdW  Elec       q    Type
                         _______ _______ _______ _____ _____    ______ ____

>  <TORSDO>
F 21

$$$$
=
 OpenBabel10232411413D

 52 55  0  0  1  0  0  0  0  0999 V2000
  187.2320  178.4060  142.2020 C   0  0  0  0  0  2  0  0  0  0  0  0
  191.1250  175.7680  144.3460 C   0  0  1  0  0  3  0  0  0  0  0  0
  189.4480  176.4230  142.7620 C   0  0  1  0  0  3  0  0  0  0  0  0
  188.2250  177.9440  141.1800 C   0  0  0  0  0  0  0  0  0  0  0  0
  189.1900  178.0860  144.7130 C   0  0  0  0  0  2  0  0  0  0  0  0
  188.5270  176.9830  143.8880 C   0  0  1  0  0  3  0  0  0  0  0  0
  189.5950  177.4880  147.0720 C   0  0  0  0  0  3  0  0  0  0  0  0
  187.1480  177.3890  143.3410 C   0  0  1  0  0  3  0  0  0  0  0  0
  188.2690  178.3980  139.7660 C   0  0  0  0  0  3  0  0  0  0  0  0
  190.0050  177.4600  145.8070 C   0  0  0  0  0  0  0  0  0  0  0  0
  191.2960  176.7740  145.4860 C   0  0  0  0  0  2  0  0  0  0  0  0
  189.2230  177.1080  141.4380 C   0  0  2  0  0  3  0  0  0  0  0  0
  189.9810  176.8620  140.2230 C   0  0  0  0  0  3  0  0  0  0  0  0
  190.8740  176.4790  143.0980 N   0  0  0  0  0  2  0  0  0  0  0  0
  189.4390  177.6120  139.2710 C   0  0  0  0  0  0  0  0  0  0  0  0
  185.0360  178.6130  144.2050 N   0  0  0  0  0  2  0  0  0  0  0  0
  186.1350  177.7120  144.4070 C   0  0  0  0  0  0  0  0  0  0  0  0
  186.2990  177.2100  145.5490 O   0  0  0  0  0  0  0  0  0  0  0  0
  184.6260  179.1670  142.9220 C   0  0  0  0  0  2  0  0  0  0  0  0
  183.7840  178.1580  142.1540 C   0  0  0  0  0  2  0  0  0  0  0  0
  182.7480  178.8550  141.2850 C   0  0  0  0  0  2  0  0  0  0  0  0
  182.4510  178.0260  140.0480 C   0  0  0  0  0  2  0  0  0  0  0  0
  183.4490  178.3180  138.9750 C   0  0  0  0  0  0  0  0  0  0  0  0
  184.2500  179.3770  139.0780 C   0  0  0  0  0  2  0  0  0  0  0  0
  183.6850  177.3080  137.9060 C   0  0  0  0  0  2  0  0  0  0  0  0
  185.0430  176.9890  137.8440 O   0  0  0  0  0  0  0  0  0  0  0  0
  185.1280  175.5360  136.9720 P   0  0  2  0  0  0  0  0  0  0  0  0
  186.7370  175.0120  136.9270 O   0  0  0  0  0  1  0  0  0  0  0  0
  184.6500  175.7630  135.5550 O   0  0  0  0  0  0  0  0  0  0  0  0
  184.1620  174.3490  137.7040 O   0  0  0  0  0  0  0  0  0  0  0  0
  184.8590  173.1520  137.5320 C   0  0  0  0  0  2  0  0  0  0  0  0
  183.2570  171.1550  136.9220 C   0  0  0  0  0  2  0  0  0  0  0  0
  182.6660  172.4910  136.5010 C   0  0  0  0  0  2  0  0  0  0  0  0
  184.1620  172.2890  136.4890 C   0  0  0  0  0  0  0  0  0  0  0  0
  184.6620  172.2640  135.1790 O   0  0  0  0  0  0  0  0  0  0  0  0
  185.5330  171.1710  135.1020 C   0  0  0  0  0  1  0  0  0  0  0  0
  188.0240  178.1860  148.7550 O   0  0  0  0  0  1  0  0  0  0  0  0
  188.3720  178.1140  147.4500 N   0  0  0  0  0  2  0  0  0  0  0  0
  192.3540  174.8710  144.2140 C   0  0  0  0  0  2  0  0  0  0  0  0
  192.3550  173.7330  145.2240 C   0  0  0  0  0  1  0  0  0  0  0  0
  189.9130  177.6340  137.8550 C   0  0  0  0  0  2  0  0  0  0  0  0
  191.0990  176.7500  137.6780 C   0  0  0  0  0  0  0  0  0  0  0  0
  192.2030  177.0680  138.1970 O   0  0  0  0  0  0  0  0  0  0  0  0
  190.9620  175.5300  136.9470 N   0  0  0  0  0  2  0  0  0  0  0  0
  192.0450  174.6200  136.7800 C   0  0  0  0  0  3  0  0  0  0  0  0
  192.9950  174.5460  137.7050 C   0  0  0  0  0  3  0  0  0  0  0  0
  193.8070  172.5140  136.7850 O   0  0  0  0  0  1  0  0  0  0  0  0
  194.1570  173.6110  137.5770 C   0  0  1  0  0  3  0  0  0  0  0  0
  195.3780  174.3040  136.9840 C   0  0  0  0  0  2  0  0  0  0  0  0
  196.5740  174.1080  137.8520 C   0  0  0  0  0  0  0  0  0  0  0  0
  197.7130  173.9660  137.3360 O   0  0  0  0  0  0  0  0  0  0  0  0
  196.4300  174.0680  139.2320 O   0  0  0  0  0  1  0  0  0  0  0  0
  1  8  1  0  0  0  0
  2 39  1  6  0  0  0
  2 11  1  0  0  0  0
  3 14  1  1  0  0  0
  3  6  1  0  0  0  0
  4 12  1  0  0  0  0
  4  1  1  0  0  0  0
  5 10  1  0  0  0  0
  6  5  1  6  0  0  0
  7 38  1  0  0  0  0
  8  6  1  0  0  0  0
  8 17  1  1  0  0  0
  9  4  2  0  0  0  0
 10  7  2  0  0  0  0
 11 10  1  0  0  0  0
 12 13  1  6  0  0  0
 12  3  1  0  0  0  0
 14  2  1  0  0  0  0
 15  9  1  0  0  0  0
 15 13  2  0  0  0  0
 16 17  1  0  0  0  0
 17 18  2  0  0  0  0
 19 16  1  0  0  0  0
 20 19  1  0  0  0  0
 21 20  1  0  0  0  0
 22 21  1  0  0  0  0
 23 24  2  0  0  0  0
 23 22  1  0  0  0  0
 25 23  1  0  0  0  0
 26 25  1  0  0  0  0
 27 29  2  6  0  0  0
 27 30  1  0  0  0  0
 27 26  1  0  0  0  0
 28 27  1  0  0  0  0
 31 30  1  0  0  0  0
 33 32  1  0  0  0  0
 34 33  1  0  0  0  0
 34 32  1  0  0  0  0
 34 31  1  0  0  0  0
 35 34  1  0  0  0  0
 36 35  1  0  0  0  0
 38 37  1  0  0  0  0
 39 40  1  0  0  0  0
 41 15  1  0  0  0  0
 42 41  1  0  0  0  0
 42 43  2  0  0  0  0
 44 42  1  0  0  0  0
 45 44  1  0  0  0  0
 45 46  2  0  0  0  0
 48 47  1  6  0  0  0
 48 46  1  0  0  0  0
 49 48  1  0  0  0  0
 49 50  1  0  0  0  0
 50 52  1  0  0  0  0
 51 50  2  0  0  0  0
M  END
>  <MODEL>
9

>  <REMARK>
 VINA RESULT:      -5.7      1.836      2.373
  Name = 
  21 active torsions:
  status: ('A' for Active; 'I' for Inactive)
    1  A    between atoms: N_1  and  C_15
    2  A    between atoms: C_4  and  C_25
    3  A    between atoms: C_5  and  C_35
    4  A    between atoms: C_5  and  C_51
    5  A    between atoms: C_7  and  C_30
    6  A    between atoms: C_7  and  C_50
    7  A    between atoms: O_8  and  P_19
    8  A    between atoms: O_8  and  C_38
    9  A    between atoms: O_10  and  P_19
   10  A    between atoms: O_10  and  C_40
   11  A    between atoms: C_11  and  C_40
   12  A    between atoms: C_11  and  C_50
   13  A    between atoms: C_12  and  C_48
   14  A    between atoms: C_13  and  N_42
   15  A    between atoms: C_15  and  C_30
   16  A    between atoms: C_17  and  N_22
   17  A    between atoms: C_21  and  C_39
   18  A    between atoms: C_31  and  O_34
   19  A    between atoms: C_31  and  C_38
   20  A    between atoms: C_43  and  C_52
   21  A    between atoms: C_48  and  C_52
                            x       y       z     vdW  Elec       q    Type
                         _______ _______ _______ _____ _____    ______ ____

>  <TORSDO>
F 21

$$$$
