=
 OpenBabel10232408203D

 32 37  0  0  1  0  0  0  0  0999 V2000
  188.3430  177.6740  137.1570 C   0  0  1  0  0  3  0  0  0  0  0  0
  187.8620  177.9010  142.2050 C   0  0  0  0  0  0  0  0  0  0  0  0
  183.1990  178.9590  142.8440 C   0  0  0  0  0  3  0  0  0  0  0  0
  183.3300  178.8820  144.2280 C   0  0  0  0  0  3  0  0  0  0  0  0
  189.3450  177.4890  144.1750 C   0  0  0  0  0  0  0  0  0  0  0  0
  189.4470  177.4180  145.5660 C   0  0  0  0  0  0  0  0  0  0  0  0
  188.7110  177.7840  140.0280 C   0  0  0  0  0  0  0  0  0  0  0  0
  186.4150  178.3020  140.3460 N   0  0  0  0  0  0  0  0  0  0  0  0
  188.8190  177.4910  147.6670 C   0  0  0  0  0  0  0  0  0  0  0  0
  187.2270  178.2680  138.0170 C   0  0  0  0  0  2  0  0  0  0  0  0
  184.2750  178.7380  142.0440 N   0  0  0  0  0  0  0  0  0  0  0  0
  186.5830  178.2140  141.6920 C   0  0  0  0  0  0  0  0  0  0  0  0
  185.5040  178.4350  142.5520 C   0  0  0  0  0  0  0  0  0  0  0  0
  186.9510  178.0330  144.4820 C   0  0  0  0  0  0  0  0  0  0  0  0
  190.1690  177.1810  147.5830 C   0  0  0  0  0  3  0  0  0  0  0  0
  189.7140  178.0430  137.7320 C   0  0  0  0  0  2  0  0  0  0  0  0
  187.4470  178.0830  139.4930 C   0  0  0  0  0  0  0  0  0  0  0  0
  190.5540  177.1360  146.2840 N   0  0  0  0  0  0  0  0  0  0  0  0
  189.8920  177.4920  139.1470 C   0  0  0  0  0  2  0  0  0  0  0  0
  184.5730  178.5750  144.7780 C   0  0  0  0  0  3  0  0  0  0  0  0
  185.6830  178.3460  143.9490 C   0  0  0  0  0  0  0  0  0  0  0  0
  187.1190  177.9470  145.8810 C   0  0  0  0  0  3  0  0  0  0  0  0
  188.8610  177.7010  141.3460 O   0  0  0  0  0  0  0  0  0  0  0  0
  190.5750  177.2310  143.3620 C   0  0  0  0  0  1  0  0  0  0  0  0
  188.0210  177.6330  148.9150 C   0  0  0  0  0  1  0  0  0  0  0  0
  188.0690  177.8060  143.6060 C   0  0  0  0  0  0  0  0  0  0  0  0
  188.3760  177.6390  146.3770 C   0  0  0  0  0  0  0  0  0  0  0  0
  188.1680  176.1680  137.0090 C   0  0  0  0  0  2  0  0  0  0  0  0
  190.0970  174.7170  136.3140 C   0  0  0  0  0  0  0  0  0  0  0  0
  189.0760  175.6590  135.9950 N   0  0  0  0  0  2  0  0  0  0  0  0
  190.8640  174.2970  135.4090 O   0  0  0  0  0  0  0  0  0  0  0  0
  190.2550  174.2580  137.6170 O   0  0  0  0  0  1  0  0  0  0  0  0
  1 28  1  1  0  0  0
  1 16  1  0  0  0  0
  1 10  1  0  0  0  0
  2 26  2  0  0  0  0
  3  4  1  0  0  0  0
  4 20  2  0  0  0  0
  5  6  2  0  0  0  0
  6 18  1  0  0  0  0
  6 27  1  0  0  0  0
  7 23  1  0  0  0  0
  8 12  2  0  0  0  0
  9 25  1  0  0  0  0
 10 17  1  0  0  0  0
 11 13  1  0  0  0  0
 11  3  2  0  0  0  0
 12  2  1  0  0  0  0
 12 13  1  0  0  0  0
 13 21  2  0  0  0  0
 14 22  2  0  0  0  0
 15  9  1  0  0  0  0
 16 19  1  0  0  0  0
 17  7  2  0  0  0  0
 17  8  1  0  0  0  0
 18 15  2  0  0  0  0
 19  7  1  0  0  0  0
 21 14  1  0  0  0  0
 21 20  1  0  0  0  0
 22 27  1  0  0  0  0
 23  2  1  0  0  0  0
 24  5  1  0  0  0  0
 26  5  1  0  0  0  0
 26 14  1  0  0  0  0
 27  9  2  0  0  0  0
 29 32  1  0  0  0  0
 30 29  1  0  0  0  0
 30 28  1  0  0  0  0
 31 29  2  0  0  0  0
M  END
>  <MODEL>
1

>  <REMARK>
 VINA RESULT:     -11.2      0.000      0.000
  Name = 
  2 active torsions:
  status: ('A' for Active; 'I' for Inactive)
    1  A    between atoms: C_2  and  C_24
    2  A    between atoms: N_10  and  C_24
                            x       y       z     vdW  Elec       q    Type
                         _______ _______ _______ _____ _____    ______ ____

>  <TORSDO>
F 2

$$$$
=
 OpenBabel10232408203D

 32 37  0  0  1  0  0  0  0  0999 V2000
  187.7460  178.0120  137.1280 C   0  0  1  0  0  3  0  0  0  0  0  0
  187.5260  178.0410  142.1980 C   0  0  0  0  0  0  0  0  0  0  0  0
  182.8980  179.0450  143.1180 C   0  0  0  0  0  3  0  0  0  0  0  0
  183.1010  178.9150  144.4900 C   0  0  0  0  0  3  0  0  0  0  0  0
  189.1100  177.5610  144.0720 C   0  0  0  0  0  0  0  0  0  0  0  0
  189.2850  177.4370  145.4520 C   0  0  0  0  0  0  0  0  0  0  0  0
  188.2620  178.0130  139.9780 C   0  0  0  0  0  0  0  0  0  0  0  0
  185.9830  178.5040  140.4330 N   0  0  0  0  0  0  0  0  0  0  0  0
  188.7650  177.4240  147.5830 C   0  0  0  0  0  0  0  0  0  0  0  0
  186.6730  178.5660  138.0660 C   0  0  0  0  0  2  0  0  0  0  0  0
  183.9320  178.8610  142.2550 N   0  0  0  0  0  0  0  0  0  0  0  0
  186.2210  178.3650  141.7650 C   0  0  0  0  0  0  0  0  0  0  0  0
  185.1870  178.5460  142.6870 C   0  0  0  0  0  0  0  0  0  0  0  0
  186.7330  178.0790  144.5230 C   0  0  0  0  0  0  0  0  0  0  0  0
  190.1110  177.1250  147.4180 C   0  0  0  0  0  3  0  0  0  0  0  0
  189.1430  178.3670  137.6450 C   0  0  0  0  0  2  0  0  0  0  0  0
  186.9700  178.3250  139.5210 C   0  0  0  0  0  0  0  0  0  0  0  0
  190.4280  177.1340  146.1000 N   0  0  0  0  0  0  0  0  0  0  0  0
  189.3970  177.7630  139.0260 C   0  0  0  0  0  2  0  0  0  0  0  0
  184.3720  178.5940  144.9620 C   0  0  0  0  0  3  0  0  0  0  0  0
  185.4390  178.4040  144.0690 C   0  0  0  0  0  0  0  0  0  0  0  0
  186.9740  177.9380  145.9070 C   0  0  0  0  0  3  0  0  0  0  0  0
  188.4800  177.8800  141.2820 O   0  0  0  0  0  0  0  0  0  0  0  0
  190.2970  177.3420  143.1870 C   0  0  0  0  0  1  0  0  0  0  0  0
  188.0330  177.5130  148.8760 C   0  0  0  0  0  1  0  0  0  0  0  0
  187.8050  177.8920  143.5820 C   0  0  0  0  0  0  0  0  0  0  0  0
  188.2560  177.6190  146.3250 C   0  0  0  0  0  0  0  0  0  0  0  0
  187.5700  176.5120  136.9300 C   0  0  0  0  0  2  0  0  0  0  0  0
  185.6770  174.8620  136.9690 C   0  0  0  0  0  0  0  0  0  0  0  0
  186.1600  176.1910  136.7870 N   0  0  0  0  0  2  0  0  0  0  0  0
  184.4480  174.6210  136.8390 O   0  0  0  0  0  0  0  0  0  0  0  0
  186.5500  173.8290  137.2910 O   0  0  0  0  0  1  0  0  0  0  0  0
  1 28  1  1  0  0  0
  1 16  1  0  0  0  0
  1 10  1  0  0  0  0
  2 26  2  0  0  0  0
  3  4  1  0  0  0  0
  4 20  2  0  0  0  0
  5  6  2  0  0  0  0
  6 18  1  0  0  0  0
  6 27  1  0  0  0  0
  7 23  1  0  0  0  0
  8 12  2  0  0  0  0
  9 25  1  0  0  0  0
 10 17  1  0  0  0  0
 11 13  1  0  0  0  0
 11  3  2  0  0  0  0
 12  2  1  0  0  0  0
 12 13  1  0  0  0  0
 13 21  2  0  0  0  0
 14 22  2  0  0  0  0
 15  9  1  0  0  0  0
 16 19  1  0  0  0  0
 17  7  2  0  0  0  0
 17  8  1  0  0  0  0
 18 15  2  0  0  0  0
 19  7  1  0  0  0  0
 21 14  1  0  0  0  0
 21 20  1  0  0  0  0
 22 27  1  0  0  0  0
 23  2  1  0  0  0  0
 24  5  1  0  0  0  0
 26  5  1  0  0  0  0
 26 14  1  0  0  0  0
 27  9  2  0  0  0  0
 29 32  1  0  0  0  0
 30 28  1  0  0  0  0
 30 29  1  0  0  0  0
 31 29  2  0  0  0  0
M  END
>  <MODEL>
2

>  <REMARK>
 VINA RESULT:     -11.1      1.484      1.690
  Name = 
  2 active torsions:
  status: ('A' for Active; 'I' for Inactive)
    1  A    between atoms: C_2  and  C_24
    2  A    between atoms: N_10  and  C_24
                            x       y       z     vdW  Elec       q    Type
                         _______ _______ _______ _____ _____    ______ ____

>  <TORSDO>
F 2

$$$$
=
 OpenBabel10232408203D

 32 37  0  0  1  0  0  0  0  0999 V2000
  189.5220  177.0000  137.2800 C   0  0  1  0  0  3  0  0  0  0  0  0
  188.6510  177.6300  142.2400 C   0  0  0  0  0  0  0  0  0  0  0  0
  184.0710  179.1390  142.3940 C   0  0  0  0  0  3  0  0  0  0  0  0
  184.0800  179.1500  143.7870 C   0  0  0  0  0  3  0  0  0  0  0  0
  189.9210  177.2310  144.3560 C   0  0  0  0  0  0  0  0  0  0  0  0
  189.9010  177.2510  145.7520 C   0  0  0  0  0  0  0  0  0  0  0  0
  189.6620  177.2820  140.1590 C   0  0  0  0  0  0  0  0  0  0  0  0
  187.4060  178.0220  140.2380 N   0  0  0  0  0  0  0  0  0  0  0  0
  189.1110  177.5300  147.7800 C   0  0  0  0  0  0  0  0  0  0  0  0
  188.4000  177.7500  137.9970 C   0  0  0  0  0  2  0  0  0  0  0  0
  185.1840  178.7670  141.7080 N   0  0  0  0  0  0  0  0  0  0  0  0
  187.4530  178.0170  141.5960 C   0  0  0  0  0  0  0  0  0  0  0  0
  186.3330  178.3940  142.3410 C   0  0  0  0  0  0  0  0  0  0  0  0
  187.5720  178.0060  144.4140 C   0  0  0  0  0  0  0  0  0  0  0  0
  190.4280  177.0960  147.8370 C   0  0  0  0  0  3  0  0  0  0  0  0
  190.8700  177.2870  137.9490 C   0  0  0  0  0  2  0  0  0  0  0  0
  188.4790  177.6530  139.4960 C   0  0  0  0  0  0  0  0  0  0  0  0
  190.9130  176.9250  146.5820 N   0  0  0  0  0  0  0  0  0  0  0  0
  190.8780  176.8250  139.4060 C   0  0  0  0  0  2  0  0  0  0  0  0
  185.2390  178.7750  144.4630 C   0  0  0  0  0  3  0  0  0  0  0  0
  186.3880  178.3900  143.7520 C   0  0  0  0  0  0  0  0  0  0  0  0
  187.6150  178.0050  145.8250 C   0  0  0  0  0  3  0  0  0  0  0  0
  189.6940  177.2810  141.4880 O   0  0  0  0  0  0  0  0  0  0  0  0
  191.1840  176.8080  143.6730 C   0  0  0  0  0  1  0  0  0  0  0  0
  188.2310  177.8310  148.9410 C   0  0  0  0  0  1  0  0  0  0  0  0
  188.7310  177.6170  143.6570 C   0  0  0  0  0  0  0  0  0  0  0  0
  188.7920  177.6230  146.4490 C   0  0  0  0  0  0  0  0  0  0  0  0
  189.2190  175.5080  137.2130 C   0  0  0  0  0  2  0  0  0  0  0  0
  187.0770  174.8060  136.1060 C   0  0  0  0  0  0  0  0  0  0  0  0
  188.4410  175.2110  136.0220 N   0  0  0  0  0  2  0  0  0  0  0  0
  186.4340  174.5580  135.0530 O   0  0  0  0  0  0  0  0  0  0  0  0
  186.4500  174.6830  137.3410 O   0  0  0  0  0  1  0  0  0  0  0  0
  1 28  1  1  0  0  0
  1 16  1  0  0  0  0
  1 10  1  0  0  0  0
  2 26  2  0  0  0  0
  3  4  1  0  0  0  0
  4 20  2  0  0  0  0
  5  6  2  0  0  0  0
  6 27  1  0  0  0  0
  6 18  1  0  0  0  0
  7 23  1  0  0  0  0
  8 12  2  0  0  0  0
  9 15  1  0  0  0  0
  9 25  1  0  0  0  0
 10 17  1  0  0  0  0
 11 13  1  0  0  0  0
 11  3  2  0  0  0  0
 12  2  1  0  0  0  0
 12 13  1  0  0  0  0
 13 21  2  0  0  0  0
 14 22  2  0  0  0  0
 16 19  1  0  0  0  0
 17  7  2  0  0  0  0
 17  8  1  0  0  0  0
 18 15  2  0  0  0  0
 19  7  1  0  0  0  0
 21 14  1  0  0  0  0
 21 20  1  0  0  0  0
 22 27  1  0  0  0  0
 23  2  1  0  0  0  0
 24  5  1  0  0  0  0
 26  5  1  0  0  0  0
 26 14  1  0  0  0  0
 27  9  2  0  0  0  0
 29 32  1  0  0  0  0
 30 29  1  0  0  0  0
 30 28  1  0  0  0  0
 31 29  2  0  0  0  0
M  END
>  <MODEL>
3

>  <REMARK>
 VINA RESULT:     -10.4      1.351      1.443
  Name = 
  2 active torsions:
  status: ('A' for Active; 'I' for Inactive)
    1  A    between atoms: C_2  and  C_24
    2  A    between atoms: N_10  and  C_24
                            x       y       z     vdW  Elec       q    Type
                         _______ _______ _______ _____ _____    ______ ____

>  <TORSDO>
F 2

$$$$
=
 OpenBabel10232408203D

 32 37  0  0  1  0  0  0  0  0999 V2000
  191.0200  176.5350  136.9010 C   0  0  1  0  0  3  0  0  0  0  0  0
  189.3710  177.3490  141.6310 C   0  0  0  0  0  0  0  0  0  0  0  0
  184.9120  179.0750  140.9870 C   0  0  0  0  0  3  0  0  0  0  0  0
  184.6910  179.1250  142.3610 C   0  0  0  0  0  3  0  0  0  0  0  0
  190.2510  176.9510  143.9370 C   0  0  0  0  0  0  0  0  0  0  0  0
  190.0000  177.0130  145.3100 C   0  0  0  0  0  0  0  0  0  0  0  0
  190.6940  176.8940  139.7560 C   0  0  0  0  0  0  0  0  0  0  0  0
  188.4970  177.7410  139.4420 N   0  0  0  0  0  0  0  0  0  0  0  0
  188.9010  177.3870  147.1710 C   0  0  0  0  0  0  0  0  0  0  0  0
  189.8340  177.3580  137.4050 C   0  0  0  0  0  2  0  0  0  0  0  0
  186.1030  178.6310  140.5050 N   0  0  0  0  0  0  0  0  0  0  0  0
  188.3180  177.7730  140.7890 C   0  0  0  0  0  0  0  0  0  0  0  0
  187.1100  178.2230  141.3280 C   0  0  0  0  0  0  0  0  0  0  0  0
  187.9670  177.8370  143.5870 C   0  0  0  0  0  0  0  0  0  0  0  0
  190.1660  176.8930  147.4560 C   0  0  0  0  0  3  0  0  0  0  0  0
  192.2510  176.7780  137.7800 C   0  0  0  0  0  2  0  0  0  0  0  0
  189.6580  177.3010  138.8980 C   0  0  0  0  0  0  0  0  0  0  0  0
  190.8430  176.6630  146.3040 N   0  0  0  0  0  0  0  0  0  0  0  0
  191.9940  176.3590  139.2270 C   0  0  0  0  0  2  0  0  0  0  0  0
  185.7010  178.7150  143.2290 C   0  0  0  0  0  3  0  0  0  0  0  0
  186.9300  178.2570  142.7280 C   0  0  0  0  0  0  0  0  0  0  0  0
  187.7760  177.8740  144.9850 C   0  0  0  0  0  3  0  0  0  0  0  0
  190.5050  176.9300  141.0710 O   0  0  0  0  0  0  0  0  0  0  0  0
  191.5860  176.4500  143.4840 C   0  0  0  0  0  1  0  0  0  0  0  0
  187.8560  177.7620  148.1620 C   0  0  0  0  0  1  0  0  0  0  0  0
  189.2150  177.3730  143.0420 C   0  0  0  0  0  0  0  0  0  0  0  0
  188.8110  177.4560  145.8040 C   0  0  0  0  0  0  0  0  0  0  0  0
  190.6570  175.0580  136.8150 C   0  0  0  0  0  2  0  0  0  0  0  0
  192.4330  173.7180  135.6500 C   0  0  0  0  0  0  0  0  0  0  0  0
  191.2250  174.4740  135.6120 N   0  0  0  0  0  2  0  0  0  0  0  0
  192.8950  173.2260  134.5880 O   0  0  0  0  0  0  0  0  0  0  0  0
  193.1060  173.5200  136.8500 O   0  0  0  0  0  1  0  0  0  0  0  0
  1 28  1  1  0  0  0
  1 10  1  0  0  0  0
  1 16  1  0  0  0  0
  2 26  2  0  0  0  0
  3  4  1  0  0  0  0
  4 20  2  0  0  0  0
  5  6  2  0  0  0  0
  6 27  1  0  0  0  0
  6 18  1  0  0  0  0
  7 23  1  0  0  0  0
  8 12  2  0  0  0  0
  9 15  1  0  0  0  0
  9 25  1  0  0  0  0
 10 17  1  0  0  0  0
 11  3  2  0  0  0  0
 11 13  1  0  0  0  0
 12 13  1  0  0  0  0
 12  2  1  0  0  0  0
 13 21  2  0  0  0  0
 14 22  2  0  0  0  0
 16 19  1  0  0  0  0
 17  8  1  0  0  0  0
 17  7  2  0  0  0  0
 18 15  2  0  0  0  0
 19  7  1  0  0  0  0
 21 20  1  0  0  0  0
 21 14  1  0  0  0  0
 22 27  1  0  0  0  0
 23  2  1  0  0  0  0
 24  5  1  0  0  0  0
 26 14  1  0  0  0  0
 26  5  1  0  0  0  0
 27  9  2  0  0  0  0
 29 32  1  0  0  0  0
 30 29  1  0  0  0  0
 30 28  1  0  0  0  0
 31 29  2  0  0  0  0
M  END
>  <MODEL>
4

>  <REMARK>
 VINA RESULT:     -10.2      1.517      2.023
  Name = 
  2 active torsions:
  status: ('A' for Active; 'I' for Inactive)
    1  A    between atoms: C_2  and  C_24
    2  A    between atoms: N_10  and  C_24
                            x       y       z     vdW  Elec       q    Type
                         _______ _______ _______ _____ _____    ______ ____

>  <TORSDO>
F 2

$$$$
=
 OpenBabel10232408203D

 32 37  0  0  1  0  0  0  0  0999 V2000
  191.0210  176.5200  136.8860 C   0  0  1  0  0  3  0  0  0  0  0  0
  188.2890  177.5850  141.0290 C   0  0  0  0  0  0  0  0  0  0  0  0
  184.1230  179.2320  139.2350 C   0  0  0  0  0  3  0  0  0  0  0  0
  183.5780  179.3580  140.5110 C   0  0  0  0  0  3  0  0  0  0  0  0
  188.5860  177.3270  143.4970 C   0  0  0  0  0  0  0  0  0  0  0  0
  188.0140  177.4640  144.7640 C   0  0  0  0  0  0  0  0  0  0  0  0
  190.0210  177.0370  139.5550 C   0  0  0  0  0  0  0  0  0  0  0  0
  187.9680  177.8450  138.6750 N   0  0  0  0  0  0  0  0  0  0  0  0
  186.5010  177.9330  146.2820 C   0  0  0  0  0  0  0  0  0  0  0  0
  189.7530  177.3590  137.0440 C   0  0  0  0  0  2  0  0  0  0  0  0
  185.3930  178.7720  139.0790 N   0  0  0  0  0  0  0  0  0  0  0  0
  187.4710  177.9510  139.9350 C   0  0  0  0  0  0  0  0  0  0  0  0
  186.1710  178.4200  140.1430 C   0  0  0  0  0  0  0  0  0  0  0  0
  186.4580  178.1700  142.5590 C   0  0  0  0  0  0  0  0  0  0  0  0
  187.6590  177.4670  146.8900 C   0  0  0  0  0  3  0  0  0  0  0  0
  192.0060  176.8230  138.0200 C   0  0  0  0  0  2  0  0  0  0  0  0
  189.2230  177.3850  138.4510 C   0  0  0  0  0  0  0  0  0  0  0  0
  188.5920  177.1790  145.9490 N   0  0  0  0  0  0  0  0  0  0  0  0
  191.4070  176.4840  139.3850 C   0  0  0  0  0  2  0  0  0  0  0  0
  184.3490  179.0070  141.6180 C   0  0  0  0  0  3  0  0  0  0  0  0
  185.6600  178.5320  141.4540 C   0  0  0  0  0  0  0  0  0  0  0  0
  185.9370  178.2850  143.8660 C   0  0  0  0  0  3  0  0  0  0  0  0
  189.5210  177.1450  140.7820 O   0  0  0  0  0  0  0  0  0  0  0  0
  189.9890  176.8130  143.4070 C   0  0  0  0  0  1  0  0  0  0  0  0
  185.2510  178.3540  146.9700 C   0  0  0  0  0  1  0  0  0  0  0  0
  187.7980  177.6880  142.3560 C   0  0  0  0  0  0  0  0  0  0  0  0
  186.7430  177.9240  144.9320 C   0  0  0  0  0  0  0  0  0  0  0  0
  190.6810  175.0370  136.8010 C   0  0  0  0  0  2  0  0  0  0  0  0
  189.0860  173.5890  135.5100 C   0  0  0  0  0  0  0  0  0  0  0  0
  189.4400  174.8520  136.0670 N   0  0  0  0  0  2  0  0  0  0  0  0
  188.0020  173.4650  134.8820 O   0  0  0  0  0  0  0  0  0  0  0  0
  189.9270  172.4910  135.6530 O   0  0  0  0  0  1  0  0  0  0  0  0
  1 28  1  1  0  0  0
  1 10  1  0  0  0  0
  1 16  1  0  0  0  0
  2 26  2  0  0  0  0
  3  4  1  0  0  0  0
  4 20  2  0  0  0  0
  5  6  2  0  0  0  0
  6 27  1  0  0  0  0
  6 18  1  0  0  0  0
  7 23  1  0  0  0  0
  8 12  2  0  0  0  0
  9 15  1  0  0  0  0
  9 25  1  0  0  0  0
 10 17  1  0  0  0  0
 11  3  2  0  0  0  0
 11 13  1  0  0  0  0
 12 13  1  0  0  0  0
 12  2  1  0  0  0  0
 13 21  2  0  0  0  0
 14 22  2  0  0  0  0
 16 19  1  0  0  0  0
 17  8  1  0  0  0  0
 17  7  2  0  0  0  0
 18 15  2  0  0  0  0
 19  7  1  0  0  0  0
 21 20  1  0  0  0  0
 21 14  1  0  0  0  0
 22 27  1  0  0  0  0
 23  2  1  0  0  0  0
 24  5  1  0  0  0  0
 26 14  1  0  0  0  0
 26  5  1  0  0  0  0
 27  9  2  0  0  0  0
 29 32  1  0  0  0  0
 29 30  1  0  0  0  0
 30 28  1  0  0  0  0
 31 29  2  0  0  0  0
M  END
>  <MODEL>
5

>  <REMARK>
 VINA RESULT:      -9.2      1.602      2.406
  Name = 
  2 active torsions:
  status: ('A' for Active; 'I' for Inactive)
    1  A    between atoms: C_2  and  C_24
    2  A    between atoms: N_10  and  C_24
                            x       y       z     vdW  Elec       q    Type
                         _______ _______ _______ _____ _____    ______ ____

>  <TORSDO>
F 2

$$$$
=
 OpenBabel10232408203D

 32 37  0  0  1  0  0  0  0  0999 V2000
  182.8220  178.8820  138.6950 C   0  0  1  0  0  3  0  0  0  0  0  0
  186.4250  178.0960  142.1820 C   0  0  0  0  0  0  0  0  0  0  0  0
  184.1070  178.7520  146.3620 C   0  0  0  0  0  3  0  0  0  0  0  0
  185.2440  178.4150  147.0910 C   0  0  0  0  0  3  0  0  0  0  0  0
  188.8230  177.3900  142.1650 C   0  0  0  0  0  0  0  0  0  0  0  0
  189.9480  177.0560  142.9230 C   0  0  0  0  0  0  0  0  0  0  0  0
  185.2720  178.4510  140.1770 C   0  0  0  0  0  0  0  0  0  0  0  0
  184.1330  178.7700  142.2370 N   0  0  0  0  0  0  0  0  0  0  0  0
  191.1750  176.6840  144.7020 C   0  0  0  0  0  0  0  0  0  0  0  0
  182.8500  179.2350  140.1820 C   0  0  0  0  0  2  0  0  0  0  0  0
  184.1430  178.7500  145.0030 N   0  0  0  0  0  0  0  0  0  0  0  0
  185.2620  178.4320  142.9130 C   0  0  0  0  0  0  0  0  0  0  0  0
  185.2710  178.4220  144.3100 C   0  0  0  0  0  0  0  0  0  0  0  0
  187.6170  177.7330  144.2990 C   0  0  0  0  0  0  0  0  0  0  0  0
  191.9240  176.4700  143.5540 C   0  0  0  0  0  3  0  0  0  0  0  0
  184.1690  179.2070  138.0430 C   0  0  0  0  0  2  0  0  0  0  0  0
  184.1010  178.7790  140.8810 C   0  0  0  0  0  0  0  0  0  0  0  0
  191.1620  176.7010  142.4560 N   0  0  0  0  0  0  0  0  0  0  0  0
  185.3040  178.4020  138.6770 C   0  0  0  0  0  2  0  0  0  0  0  0
  186.4130  178.0750  146.4120 C   0  0  0  0  0  3  0  0  0  0  0  0
  186.4470  178.0730  145.0080 C   0  0  0  0  0  0  0  0  0  0  0  0
  188.7880  177.3840  145.0060 C   0  0  0  0  0  3  0  0  0  0  0  0
  186.3700  178.1210  140.8510 O   0  0  0  0  0  0  0  0  0  0  0  0
  188.9410  177.3630  140.6740 C   0  0  0  0  0  1  0  0  0  0  0  0
  191.6500  176.5370  146.1050 C   0  0  0  0  0  1  0  0  0  0  0  0
  187.6200  177.7410  142.8600 C   0  0  0  0  0  0  0  0  0  0  0  0
  189.9230  177.0550  144.2840 C   0  0  0  0  0  0  0  0  0  0  0  0
  182.4210  177.4260  138.4920 C   0  0  0  0  0  2  0  0  0  0  0  0
  180.8530  175.7360  139.4880 C   0  0  0  0  0  0  0  0  0  0  0  0
  181.4120  177.0470  139.4670 N   0  0  0  0  0  2  0  0  0  0  0  0
  179.9820  175.4420  140.3480 O   0  0  0  0  0  1  0  0  0  0  0  0
  181.2610  174.7770  138.5680 O   0  0  0  0  0  0  0  0  0  0  0  0
  1 28  1  1  0  0  0
  1 10  1  0  0  0  0
  2 26  2  0  0  0  0
  2 12  1  0  0  0  0
  3  4  1  0  0  0  0
  5 26  1  0  0  0  0
  5  6  2  0  0  0  0
  6 27  1  0  0  0  0
  7 23  1  0  0  0  0
  7 17  2  0  0  0  0
  8 12  2  0  0  0  0
  9 25  1  0  0  0  0
 10 17  1  0  0  0  0
 11  3  2  0  0  0  0
 12 13  1  0  0  0  0
 13 11  1  0  0  0  0
 13 21  2  0  0  0  0
 14 22  2  0  0  0  0
 14 21  1  0  0  0  0
 15  9  1  0  0  0  0
 16 19  1  0  0  0  0
 16  1  1  0  0  0  0
 17  8  1  0  0  0  0
 18  6  1  0  0  0  0
 18 15  2  0  0  0  0
 19  7  1  0  0  0  0
 20  4  2  0  0  0  0
 21 20  1  0  0  0  0
 23  2  1  0  0  0  0
 24  5  1  0  0  0  0
 26 14  1  0  0  0  0
 27  9  2  0  0  0  0
 27 22  1  0  0  0  0
 28 30  1  0  0  0  0
 29 31  1  0  0  0  0
 30 29  1  0  0  0  0
 32 29  2  0  0  0  0
M  END
>  <MODEL>
6

>  <REMARK>
 VINA RESULT:      -9.2      3.205      4.822
  Name = 
  2 active torsions:
  status: ('A' for Active; 'I' for Inactive)
    1  A    between atoms: C_2  and  C_24
    2  A    between atoms: N_10  and  C_24
                            x       y       z     vdW  Elec       q    Type
                         _______ _______ _______ _____ _____    ______ ____

>  <TORSDO>
F 2

$$$$
=
 OpenBabel10232408203D

 32 37  0  0  1  0  0  0  0  0999 V2000
  191.4420  177.6290  144.4090 C   0  0  1  0  0  3  0  0  0  0  0  0
  186.7850  178.3440  142.5230 C   0  0  0  0  0  0  0  0  0  0  0  0
  187.4720  178.2110  137.7500 C   0  0  0  0  0  3  0  0  0  0  0  0
  186.1060  178.3420  137.5100 C   0  0  0  0  0  3  0  0  0  0  0  0
  184.4800  178.5830  143.4610 C   0  0  0  0  0  0  0  0  0  0  0  0
  183.1160  178.7140  143.1910 C   0  0  0  0  0  0  0  0  0  0  0  0
  188.6390  178.1860  143.9410 C   0  0  0  0  0  0  0  0  0  0  0  0
  188.9730  178.1170  141.5910 N   0  0  0  0  0  0  0  0  0  0  0  0
  181.2750  178.8780  142.0100 C   0  0  0  0  0  0  0  0  0  0  0  0
  190.9970  178.0110  142.9970 C   0  0  0  0  0  2  0  0  0  0  0  0
  187.9400  178.1820  139.0260 N   0  0  0  0  0  0  0  0  0  0  0  0
  187.6340  178.2440  141.3970 C   0  0  0  0  0  0  0  0  0  0  0  0
  187.1090  178.2780  140.1030 C   0  0  0  0  0  0  0  0  0  0  0  0
  184.8520  178.5130  141.0160 C   0  0  0  0  0  0  0  0  0  0  0  0
  180.9780  178.9250  143.3650 C   0  0  0  0  0  3  0  0  0  0  0  0
  190.6410  178.4140  145.4520 C   0  0  0  0  0  2  0  0  0  0  0  0
  189.5020  178.0740  142.8380 C   0  0  0  0  0  0  0  0  0  0  0  0
  182.1180  178.8230  144.0910 N   0  0  0  0  0  0  0  0  0  0  0  0
  189.1470  178.1080  145.3530 C   0  0  0  0  0  2  0  0  0  0  0  0
  185.2310  178.4430  138.5900 C   0  0  0  0  0  3  0  0  0  0  0  0
  185.7180  178.4130  139.9070 C   0  0  0  0  0  0  0  0  0  0  0  0
  183.4630  178.6470  140.8090 C   0  0  0  0  0  3  0  0  0  0  0  0
  187.3310  178.3090  143.7380 O   0  0  0  0  0  0  0  0  0  0  0  0
  184.9170  178.5590  144.8920 C   0  0  0  0  0  1  0  0  0  0  0  0
  180.2990  178.9590  140.8890 C   0  0  0  0  0  1  0  0  0  0  0  0
  185.3830  178.4800  142.3530 C   0  0  0  0  0  0  0  0  0  0  0  0
  182.6360  178.7430  141.9160 C   0  0  0  0  0  0  0  0  0  0  0  0
  191.3420  176.1230  144.6200 C   0  0  0  0  0  2  0  0  0  0  0  0
  192.0800  175.7110  146.9850 C   0  0  0  0  0  0  0  0  0  0  0  0
  192.3390  175.6880  145.5830 N   0  0  0  0  0  2  0  0  0  0  0  0
  192.9660  175.3250  147.7900 O   0  0  0  0  0  1  0  0  0  0  0  0
  190.8560  176.1560  147.4710 O   0  0  0  0  0  0  0  0  0  0  0  0
  1 28  1  1  0  0  0
  1 16  1  0  0  0  0
  2 23  1  0  0  0  0
  3 11  1  0  0  0  0
  4  3  2  0  0  0  0
  4 20  1  0  0  0  0
  5 24  1  0  0  0  0
  6  5  2  0  0  0  0
  6 18  1  0  0  0  0
  7 19  1  0  0  0  0
  8 17  1  0  0  0  0
  9 15  1  0  0  0  0
 10  1  1  0  0  0  0
 11 13  2  0  0  0  0
 12  8  2  0  0  0  0
 12  2  1  0  0  0  0
 13 12  1  0  0  0  0
 14 26  1  0  0  0  0
 15 18  2  0  0  0  0
 17 10  1  0  0  0  0
 17  7  2  0  0  0  0
 19 16  1  0  0  0  0
 20 21  2  0  0  0  0
 21 13  1  0  0  0  0
 21 14  1  0  0  0  0
 22 14  2  0  0  0  0
 22 27  1  0  0  0  0
 23  7  1  0  0  0  0
 25  9  1  0  0  0  0
 26  2  2  0  0  0  0
 26  5  1  0  0  0  0
 27  9  2  0  0  0  0
 27  6  1  0  0  0  0
 28 30  1  0  0  0  0
 29 32  2  0  0  0  0
 29 31  1  0  0  0  0
 30 29  1  0  0  0  0
M  END
>  <MODEL>
7

>  <REMARK>
 VINA RESULT:      -9.2      3.023      7.102
  Name = 
  2 active torsions:
  status: ('A' for Active; 'I' for Inactive)
    1  A    between atoms: C_2  and  C_24
    2  A    between atoms: N_10  and  C_24
                            x       y       z     vdW  Elec       q    Type
                         _______ _______ _______ _____ _____    ______ ____

>  <TORSDO>
F 2

$$$$
=
 OpenBabel10232408203D

 32 37  0  0  1  0  0  0  0  0999 V2000
  191.3320  177.6200  144.3990 C   0  0  1  0  0  3  0  0  0  0  0  0
  187.2730  178.2830  141.4250 C   0  0  0  0  0  0  0  0  0  0  0  0
  189.0960  178.0420  136.9650 C   0  0  0  0  0  3  0  0  0  0  0  0
  187.8290  178.1660  136.3980 C   0  0  0  0  0  3  0  0  0  0  0  0
  184.8100  178.5380  141.7700 C   0  0  0  0  0  0  0  0  0  0  0  0
  183.5530  178.6600  141.1740 C   0  0  0  0  0  0  0  0  0  0  0  0
  188.7270  178.1610  143.2530 C   0  0  0  0  0  0  0  0  0  0  0  0
  189.6210  178.0400  141.0560 N   0  0  0  0  0  0  0  0  0  0  0  0
  182.0530  178.7940  139.5790 C   0  0  0  0  0  0  0  0  0  0  0  0
  191.2430  177.9690  142.9130 C   0  0  0  0  0  2  0  0  0  0  0  0
  189.2410  178.0440  138.3160 N   0  0  0  0  0  0  0  0  0  0  0  0
  188.3690  178.1590  140.5410 C   0  0  0  0  0  0  0  0  0  0  0  0
  188.1740  178.1630  139.1580 C   0  0  0  0  0  0  0  0  0  0  0  0
  185.7640  178.4130  139.4910 C   0  0  0  0  0  0  0  0  0  0  0  0
  181.4370  178.8710  140.8200 C   0  0  0  0  0  3  0  0  0  0  0  0
  190.3040  178.4270  145.1990 C   0  0  0  0  0  2  0  0  0  0  0  0
  189.8320  178.0260  142.3950 C   0  0  0  0  0  0  0  0  0  0  0  0
  182.3670  178.7880  141.8030 N   0  0  0  0  0  0  0  0  0  0  0  0
  188.8770  178.1160  144.7470 C   0  0  0  0  0  2  0  0  0  0  0  0
  186.7200  178.2890  137.2310 C   0  0  0  0  0  3  0  0  0  0  0  0
  186.8720  178.2900  138.6270 C   0  0  0  0  0  0  0  0  0  0  0  0
  184.4660  178.5400  138.9500 C   0  0  0  0  0  3  0  0  0  0  0  0
  187.5080  178.2760  142.7360 O   0  0  0  0  0  0  0  0  0  0  0  0
  184.8870  178.5470  143.2650 C   0  0  0  0  0  1  0  0  0  0  0  0
  181.3780  178.8470  138.2540 C   0  0  0  0  0  1  0  0  0  0  0  0
  185.9540  178.4120  140.9170 C   0  0  0  0  0  0  0  0  0  0  0  0
  183.3960  178.6600  139.8210 C   0  0  0  0  0  0  0  0  0  0  0  0
  191.1780  176.1200  144.6130 C   0  0  0  0  0  2  0  0  0  0  0  0
  191.9820  175.7890  146.9700 C   0  0  0  0  0  0  0  0  0  0  0  0
  192.1710  175.6480  145.5640 N   0  0  0  0  0  2  0  0  0  0  0  0
  192.8630  175.3670  147.7630 O   0  0  0  0  0  1  0  0  0  0  0  0
  190.8330  176.3880  147.4730 O   0  0  0  0  0  0  0  0  0  0  0  0
  1 28  1  6  0  0  0
  1 16  1  0  0  0  0
  2 23  1  0  0  0  0
  3 11  1  0  0  0  0
  4  3  2  0  0  0  0
  4 20  1  0  0  0  0
  5 24  1  0  0  0  0
  6  5  2  0  0  0  0
  6 18  1  0  0  0  0
  7 19  1  0  0  0  0
  8 17  1  0  0  0  0
  9 27  2  0  0  0  0
  9 15  1  0  0  0  0
 10  1  1  0  0  0  0
 11 13  2  0  0  0  0
 12  8  2  0  0  0  0
 12  2  1  0  0  0  0
 13 12  1  0  0  0  0
 14 26  1  0  0  0  0
 15 18  2  0  0  0  0
 17 10  1  0  0  0  0
 17  7  2  0  0  0  0
 19 16  1  0  0  0  0
 20 21  2  0  0  0  0
 21 13  1  0  0  0  0
 21 14  1  0  0  0  0
 22 14  2  0  0  0  0
 22 27  1  0  0  0  0
 23  7  1  0  0  0  0
 25  9  1  0  0  0  0
 26  2  2  0  0  0  0
 26  5  1  0  0  0  0
 27  6  1  0  0  0  0
 28 30  1  0  0  0  0
 29 32  2  0  0  0  0
 29 31  1  0  0  0  0
 30 29  1  0  0  0  0
M  END
>  <MODEL>
8

>  <REMARK>
 VINA RESULT:      -8.8      2.798      7.603
  Name = 
  2 active torsions:
  status: ('A' for Active; 'I' for Inactive)
    1  A    between atoms: C_2  and  C_24
    2  A    between atoms: N_10  and  C_24
                            x       y       z     vdW  Elec       q    Type
                         _______ _______ _______ _____ _____    ______ ____

>  <TORSDO>
F 2

$$$$
=
 OpenBabel10232408203D

 32 37  0  0  1  0  0  0  0  0999 V2000
  189.7280  177.7730  146.9030 C   0  0  1  0  0  3  0  0  0  0  0  0
  185.8800  178.4040  143.6550 C   0  0  0  0  0  0  0  0  0  0  0  0
  188.0080  178.1750  139.3320 C   0  0  0  0  0  3  0  0  0  0  0  0
  186.7820  178.2880  138.6780 C   0  0  0  0  0  3  0  0  0  0  0  0
  183.3970  178.6400  143.8300 C   0  0  0  0  0  0  0  0  0  0  0  0
  182.1830  178.7520  143.1480 C   0  0  0  0  0  0  0  0  0  0  0  0
  187.2050  178.2930  145.5800 C   0  0  0  0  0  0  0  0  0  0  0  0
  188.2490  178.1780  143.4500 N   0  0  0  0  0  0  0  0  0  0  0  0
  180.7960  178.8740  141.4530 C   0  0  0  0  0  0  0  0  0  0  0  0
  189.7400  178.1210  145.4140 C   0  0  0  0  0  2  0  0  0  0  0  0
  188.0590  178.1780  140.6900 N   0  0  0  0  0  0  0  0  0  0  0  0
  187.0350  178.2880  142.8490 C   0  0  0  0  0  0  0  0  0  0  0  0
  186.9360  178.2890  141.4560 C   0  0  0  0  0  0  0  0  0  0  0  0
  184.5070  178.5220  141.6210 C   0  0  0  0  0  0  0  0  0  0  0  0
  180.0950  178.9470  142.6490 C   0  0  0  0  0  3  0  0  0  0  0  0
  188.6420  178.5720  147.6290 C   0  0  0  0  0  2  0  0  0  0  0  0
  188.3670  178.1660  144.8000 C   0  0  0  0  0  0  0  0  0  0  0  0
  180.9550  178.8710  143.6940 N   0  0  0  0  0  0  0  0  0  0  0  0
  187.2520  178.2510  147.0800 C   0  0  0  0  0  2  0  0  0  0  0  0
  185.6170  178.4030  139.4330 C   0  0  0  0  0  3  0  0  0  0  0  0
  185.6730  178.4060  140.8370 C   0  0  0  0  0  0  0  0  0  0  0  0
  183.2480  178.6380  140.9920 C   0  0  0  0  0  3  0  0  0  0  0  0
  186.0240  178.3990  144.9790 O   0  0  0  0  0  0  0  0  0  0  0  0
  183.3710  178.6510  145.3260 C   0  0  0  0  0  1  0  0  0  0  0  0
  180.2140  178.9210  140.0840 C   0  0  0  0  0  1  0  0  0  0  0  0
  184.5980  178.5220  143.0570 C   0  0  0  0  0  0  0  0  0  0  0  0
  182.1200  178.7500  141.7880 C   0  0  0  0  0  0  0  0  0  0  0  0
  189.5710  176.2720  147.1070 C   0  0  0  0  0  2  0  0  0  0  0  0
  192.0100  175.6700  147.0820 C   0  0  0  0  0  0  0  0  0  0  0  0
  190.7550  175.7310  147.7550 N   0  0  0  0  0  2  0  0  0  0  0  0
  193.0140  175.1970  147.6750 O   0  0  0  0  0  1  0  0  0  0  0  0
  192.1350  176.1300  145.7760 O   0  0  0  0  0  0  0  0  0  0  0  0
  1 28  1  6  0  0  0
  1 16  1  0  0  0  0
  2 23  1  0  0  0  0
  3 11  1  0  0  0  0
  4  3  2  0  0  0  0
  4 20  1  0  0  0  0
  5 24  1  0  0  0  0
  6 18  1  0  0  0  0
  6  5  2  0  0  0  0
  7 19  1  0  0  0  0
  8 17  1  0  0  0  0
  9 27  2  0  0  0  0
  9 15  1  0  0  0  0
 10  1  1  0  0  0  0
 11 13  2  0  0  0  0
 12  8  2  0  0  0  0
 12  2  1  0  0  0  0
 13 12  1  0  0  0  0
 14 26  1  0  0  0  0
 15 18  2  0  0  0  0
 17 10  1  0  0  0  0
 17  7  2  0  0  0  0
 19 16  1  0  0  0  0
 20 21  2  0  0  0  0
 21 13  1  0  0  0  0
 21 14  1  0  0  0  0
 22 14  2  0  0  0  0
 22 27  1  0  0  0  0
 23  7  1  0  0  0  0
 25  9  1  0  0  0  0
 26  2  2  0  0  0  0
 26  5  1  0  0  0  0
 27  6  1  0  0  0  0
 28 30  1  0  0  0  0
 29 31  1  0  0  0  0
 29 30  1  0  0  0  0
 32 29  2  0  0  0  0
M  END
>  <MODEL>
9

>  <REMARK>
 VINA RESULT:      -8.4      3.229      7.757
  Name = 
  2 active torsions:
  status: ('A' for Active; 'I' for Inactive)
    1  A    between atoms: C_2  and  C_24
    2  A    between atoms: N_10  and  C_24
                            x       y       z     vdW  Elec       q    Type
                         _______ _______ _______ _____ _____    ______ ____

>  <TORSDO>
F 2

$$$$
