=
 OpenBabel10232408573D

 56 63  0  0  1  0  0  0  0  0999 V2000
  187.1960  177.0800  137.7080 C   0  0  0  0  0  0  0  0  0  0  0  0
  187.1260  175.8380  136.8680 C   0  0  0  0  0  2  0  0  0  0  0  0
  188.1930  177.2950  138.5820 C   0  0  0  0  0  3  0  0  0  0  0  0
  189.5400  175.1880  136.5740 C   0  0  1  0  0  3  0  0  0  0  0  0
  190.1660  176.1900  137.5330 C   0  0  0  0  0  2  0  0  0  0  0  0
  188.2970  175.7640  135.8970 C   0  0  0  0  0  2  0  0  0  0  0  0
  189.3190  176.3280  138.7990 C   0  0  1  0  0  3  0  0  0  0  0  0
  191.1240  178.2160  142.2570 O   0  0  0  0  0  0  0  0  0  0  0  0
  189.9540  177.4540  142.1310 C   0  0  2  0  0  3  0  0  0  0  0  0
  189.4230  177.6140  140.8430 O   0  0  0  0  0  0  0  0  0  0  0  0
  192.5950  177.3330  140.5470 C   0  0  0  0  0  2  0  0  0  0  0  0
  191.4420  177.4430  139.5390 C   0  0  0  0  0  2  0  0  0  0  0  0
  192.1630  177.3100  142.0180 C   0  0  0  0  0  2  0  0  0  0  0  0
  190.1550  176.7540  140.0050 C   0  0  2  0  0  3  0  0  0  0  0  0
  189.1720  177.1990  144.4400 C   0  0  2  0  0  3  0  0  0  0  0  0
  189.5940  178.5230  144.2370 O   0  0  0  0  0  0  0  0  0  0  0  0
  188.9340  177.9010  143.1610 C   0  0  1  0  0  3  0  0  0  0  0  0
  187.9050  177.2010  145.2690 C   0  0  0  0  0  2  0  0  0  0  0  0
  188.2310  177.5400  146.7110 C   0  0  0  0  0  2  0  0  0  0  0  0
  189.2720  176.5770  147.2610 C   0  0  0  0  0  2  0  0  0  0  0  0
  190.4430  177.3000  147.7280 N   0  0  0  0  0  2  0  0  0  0  0  0
  191.6010  176.4650  147.4640 C   0  0  0  0  0  1  0  0  0  0  0  0
  190.4950  174.8290  135.5860 O   0  0  0  0  0  0  0  0  0  0  0  0
  192.5880  175.8350  135.6210 N   0  0  0  0  0  0  0  0  0  0  0  0
  194.4360  173.7750  135.1800 O   0  0  0  0  0  0  0  0  0  0  0  0
  194.7970  174.7330  136.1390 C   0  0  2  0  0  3  0  0  0  0  0  0
  192.4180  173.6230  136.4090 O   0  0  0  0  0  0  0  0  0  0  0  0
  194.1050  176.8110  137.1070 O   0  0  0  0  0  1  0  0  0  0  0  0
  193.4740  172.9180  135.7540 C   0  0  2  0  0  3  0  0  0  0  0  0
  194.0040  176.0330  135.9530 C   0  0  2  0  0  3  0  0  0  0  0  0
  191.8600  174.7840  135.8670 C   0  0  0  0  0  0  0  0  0  0  0  0
  194.1090  171.9000  136.6890 C   0  0  0  0  0  1  0  0  0  0  0  0
  196.3070  174.9720  136.1190 C   0  0  0  0  0  2  0  0  0  0  0  0
  196.4300  173.7210  138.2440 F   0  0  0  0  0  0  0  0  0  0  0  0
  197.9360  175.3060  137.7980 O   0  0  0  0  0  0  0  0  0  0  0  0
  196.9540  174.6780  137.4370 C   0  0  0  0  0  0  0  0  0  0  0  0
  186.1200  178.1050  137.5440 C   0  0  0  0  0  2  0  0  0  0  0  0
  182.3450  176.8050  139.2390 C   0  0  2  0  0  3  0  0  0  0  0  0
  182.7990  175.5700  139.6630 F   0  0  0  0  0  0  0  0  0  0  0  0
  183.6590  177.2810  137.1400 C   0  0  0  0  0  0  0  0  0  0  0  0
  184.2820  178.2670  139.3700 C   0  0  0  0  0  0  0  0  0  0  0  0
  184.9760  177.6890  134.9720 C   0  0  0  0  0  1  0  0  0  0  0  0
  182.4390  176.8870  137.7380 C   0  0  0  0  0  0  0  0  0  0  0  0
  180.1710  176.1520  137.5290 F   0  0  0  0  0  0  0  0  0  0  0  0
  182.6300  176.9630  134.9530 C   0  0  0  0  0  3  0  0  0  0  0  0
  183.1450  177.8640  139.8600 N   0  0  0  0  0  0  0  0  0  0  0  0
  181.3360  176.5350  136.9490 C   0  0  0  0  0  0  0  0  0  0  0  0
  180.3680  176.2470  134.7890 F   0  0  0  0  0  0  0  0  0  0  0  0
  183.7440  177.3080  135.7210 C   0  0  0  0  0  0  0  0  0  0  0  0
  181.4330  176.5810  135.5580 C   0  0  0  0  0  0  0  0  0  0  0  0
  184.7970  177.5930  138.1050 C   0  0  2  0  0  3  0  0  0  0  0  0
  184.9570  179.2910  140.0470 O   0  0  0  0  0  0  0  0  0  0  0  0
  185.7790  179.0880  141.1840 C   0  0  2  0  0  3  0  0  0  0  0  0
  185.3050  178.4870  143.5240 C   0  0  0  0  0  2  0  0  0  0  0  0
  185.1540  178.0410  142.0820 C   0  0  1  0  0  3  0  0  0  0  0  0
  185.0230  179.4990  142.4320 C   0  0  2  0  0  3  0  0  0  0  0  0
  1  3  2  0  0  0  0
  2  1  1  0  0  0  0
  3  7  1  0  0  0  0
  4 23  1  6  0  0  0
  4  5  1  0  0  0  0
  6  4  1  0  0  0  0
  6  2  1  0  0  0  0
  7  5  1  6  0  0  0
  7 14  1  0  0  0  0
  9 10  1  6  0  0  0
  9  8  1  0  0  0  0
  9 17  1  0  0  0  0
 11 13  1  0  0  0  0
 12 11  1  0  0  0  0
 13  8  1  0  0  0  0
 14 12  1  6  0  0  0
 14 10  1  0  0  0  0
 15 18  1  1  0  0  0
 16 15  1  0  0  0  0
 17 16  1  1  0  0  0
 17 15  1  0  0  0  0
 18 19  1  0  0  0  0
 19 20  1  0  0  0  0
 20 21  1  0  0  0  0
 22 21  1  0  0  0  0
 23 31  1  0  0  0  0
 24 31  2  0  0  0  0
 24 30  1  0  0  0  0
 25 29  1  0  0  0  0
 25 26  1  0  0  0  0
 26 33  1  6  0  0  0
 29 27  1  0  0  0  0
 29 32  1  1  0  0  0
 30 26  1  0  0  0  0
 30 28  1  1  0  0  0
 31 27  1  0  0  0  0
 33 36  1  0  0  0  0
 36 35  2  0  0  0  0
 36 34  1  0  0  0  0
 37  1  1  0  0  0  0
 38 39  1  1  0  0  0
 38 46  1  0  0  0  0
 40 43  1  0  0  0  0
 40 51  1  0  0  0  0
 41 46  2  0  0  0  0
 41 52  1  0  0  0  0
 42 49  1  0  0  0  0
 43 38  1  0  0  0  0
 45 50  2  0  0  0  0
 45 49  1  0  0  0  0
 47 44  1  0  0  0  0
 47 43  2  0  0  0  0
 48 50  1  0  0  0  0
 49 40  2  0  0  0  0
 50 47  1  0  0  0  0
 51 37  1  6  0  0  0
 51 41  1  0  0  0  0
 53 52  1  6  0  0  0
 53 55  1  0  0  0  0
 53 56  1  0  0  0  0
 55 56  1  0  0  0  0
 55 54  1  1  0  0  0
 56 54  1  1  0  0  0
M  END
>  <MODEL>
1

>  <REMARK>
 VINA RESULT:      -8.0      0.000      0.000
  Name = 
  14 active torsions:
  status: ('A' for Active; 'I' for Inactive)
    1  A    between atoms: O_1  and  C_37
    2  A    between atoms: O_1  and  C_52
    3  A    between atoms: C_3  and  C_53
    4  A    between atoms: C_5  and  C_13
    5  A    between atoms: C_7  and  N_24
    6  A    between atoms: C_7  and  C_49
    7  A    between atoms: C_8  and  O_22
    8  A    between atoms: C_10  and  C_31
    9  A    between atoms: C_13  and  C_49
   10  A    between atoms: C_16  and  C_55
   11  A    between atoms: C_19  and  O_22
   12  A    between atoms: C_31  and  C_34
   13  A    between atoms: C_50  and  C_53
   14  A    between atoms: C_51  and  C_56
                            x       y       z     vdW  Elec       q    Type
                         _______ _______ _______ _____ _____    ______ ____

>  <TORSDO>
F 14

$$$$
=
 OpenBabel10232408573D

 56 63  0  0  1  0  0  0  0  0999 V2000
  185.5310  178.7680  139.6260 C   0  0  0  0  0  0  0  0  0  0  0  0
  185.1600  179.3880  140.9420 C   0  0  0  0  0  2  0  0  0  0  0  0
  186.7560  178.2700  139.3930 C   0  0  0  0  0  3  0  0  0  0  0  0
  186.6260  178.1850  142.5960 C   0  0  1  0  0  3  0  0  0  0  0  0
  187.4940  177.4110  141.6140 C   0  0  0  0  0  2  0  0  0  0  0  0
  185.2050  178.3620  142.0660 C   0  0  0  0  0  2  0  0  0  0  0  0
  187.8570  178.2840  140.4120 C   0  0  1  0  0  3  0  0  0  0  0  0
  191.1070  176.4240  138.2290 O   0  0  0  0  0  0  0  0  0  0  0  0
  190.0580  177.2470  137.7940 C   0  0  2  0  0  3  0  0  0  0  0  0
  188.9430  177.0710  138.6250 O   0  0  0  0  0  0  0  0  0  0  0  0
  191.5340  177.1560  140.4980 C   0  0  0  0  0  2  0  0  0  0  0  0
  190.0270  177.0760  140.7780 C   0  0  0  0  0  2  0  0  0  0  0  0
  191.9080  177.2580  139.0150 C   0  0  0  0  0  2  0  0  0  0  0  0
  189.1750  177.8550  139.7690 C   0  0  2  0  0  3  0  0  0  0  0  0
  188.4110  176.1540  136.3460 C   0  0  2  0  0  3  0  0  0  0  0  0
  188.4710  177.5200  136.0290 O   0  0  0  0  0  0  0  0  0  0  0  0
  189.6880  176.8980  136.3640 C   0  0  1  0  0  3  0  0  0  0  0  0
  188.3070  175.3500  135.0670 C   0  0  0  0  0  2  0  0  0  0  0  0
  187.4720  174.1050  135.3060 C   0  0  0  0  0  2  0  0  0  0  0  0
  187.2980  173.8620  136.7980 C   0  0  0  0  0  2  0  0  0  0  0  0
  186.5520  172.6370  137.0330 N   0  0  0  0  0  2  0  0  0  0  0  0
  185.4180  172.9770  137.8740 C   0  0  0  0  0  1  0  0  0  0  0  0
  186.5880  177.4880  143.8330 O   0  0  0  0  0  0  0  0  0  0  0  0
  188.8010  177.0950  144.4200 N   0  0  0  0  0  0  0  0  0  0  0  0
  188.7910  176.6240  147.1810 O   0  0  0  0  0  0  0  0  0  0  0  0
  189.8500  177.4030  146.6920 C   0  0  2  0  0  3  0  0  0  0  0  0
  187.4140  178.1490  146.0040 O   0  0  0  0  0  0  0  0  0  0  0  0
  190.8360  178.2170  144.6680 O   0  0  0  0  0  1  0  0  0  0  0  0
  187.6330  177.4290  147.2190 C   0  0  2  0  0  3  0  0  0  0  0  0
  190.0490  177.1880  145.1860 C   0  0  2  0  0  3  0  0  0  0  0  0
  187.6340  177.5660  144.7520 C   0  0  0  0  0  0  0  0  0  0  0  0
  187.6350  178.3700  148.4130 C   0  0  0  0  0  1  0  0  0  0  0  0
  191.1290  177.1300  147.4860 C   0  0  0  0  0  2  0  0  0  0  0  0
  192.2470  175.5920  145.9110 F   0  0  0  0  0  0  0  0  0  0  0  0
  191.7720  174.9120  147.9820 O   0  0  0  0  0  0  0  0  0  0  0  0
  191.7410  175.8060  147.1520 C   0  0  0  0  0  0  0  0  0  0  0  0
  184.4870  178.7010  138.5580 C   0  0  0  0  0  2  0  0  0  0  0  0
  181.3520  175.8730  139.5520 C   0  0  2  0  0  3  0  0  0  0  0  0
  182.0450  175.2500  140.5740 F   0  0  0  0  0  0  0  0  0  0  0  0
  183.1320  176.5510  137.8990 C   0  0  0  0  0  0  0  0  0  0  0  0
  182.1530  178.1670  139.5600 C   0  0  0  0  0  0  0  0  0  0  0  0
  184.9730  177.1610  136.2150 C   0  0  0  0  0  1  0  0  0  0  0  0
  182.0840  175.6670  138.2520 C   0  0  0  0  0  0  0  0  0  0  0  0
  180.7480  173.7400  137.7740 F   0  0  0  0  0  0  0  0  0  0  0  0
  183.4850  175.2370  135.8750 C   0  0  0  0  0  3  0  0  0  0  0  0
  181.2240  177.3020  139.8470 N   0  0  0  0  0  0  0  0  0  0  0  0
  181.7500  174.5870  137.4260 C   0  0  0  0  0  0  0  0  0  0  0  0
  182.1260  173.3380  135.4300 F   0  0  0  0  0  0  0  0  0  0  0  0
  183.8410  176.3150  136.6900 C   0  0  0  0  0  0  0  0  0  0  0  0
  182.4470  174.3790  136.2360 C   0  0  0  0  0  0  0  0  0  0  0  0
  183.4290  177.6580  138.9030 C   0  0  2  0  0  3  0  0  0  0  0  0
  181.9150  179.5100  139.8830 O   0  0  0  0  0  0  0  0  0  0  0  0
  180.9370  180.3190  139.2530 C   0  0  2  0  0  3  0  0  0  0  0  0
  180.9360  181.6730  137.1960 C   0  0  0  0  0  2  0  0  0  0  0  0
  181.1320  180.2750  137.7510 C   0  0  1  0  0  3  0  0  0  0  0  0
  181.6190  181.4660  138.5320 C   0  0  2  0  0  3  0  0  0  0  0  0
  1  2  1  0  0  0  0
  2  6  1  0  0  0  0
  3  1  2  0  0  0  0
  4 23  1  1  0  0  0
  5  4  1  0  0  0  0
  6  4  1  0  0  0  0
  7  3  1  6  0  0  0
  7  5  1  0  0  0  0
  8 13  1  0  0  0  0
  9  8  1  1  0  0  0
  9 10  1  0  0  0  0
 10 14  1  0  0  0  0
 11 12  1  0  0  0  0
 13 11  1  0  0  0  0
 14  7  1  0  0  0  0
 14 12  1  1  0  0  0
 15 18  1  6  0  0  0
 15 17  1  0  0  0  0
 16 15  1  0  0  0  0
 17 16  1  6  0  0  0
 17  9  1  0  0  0  0
 18 19  1  0  0  0  0
 19 20  1  0  0  0  0
 20 21  1  0  0  0  0
 21 22  1  0  0  0  0
 23 31  1  0  0  0  0
 24 31  2  0  0  0  0
 24 30  1  0  0  0  0
 25 29  1  0  0  0  0
 26 25  1  0  0  0  0
 26 33  1  1  0  0  0
 27 29  1  0  0  0  0
 29 32  1  1  0  0  0
 30 28  1  6  0  0  0
 30 26  1  0  0  0  0
 31 27  1  0  0  0  0
 34 36  1  0  0  0  0
 36 33  1  0  0  0  0
 36 35  2  0  0  0  0
 37  1  1  0  0  0  0
 38 46  1  0  0  0  0
 38 39  1  1  0  0  0
 40 43  1  0  0  0  0
 40 51  1  0  0  0  0
 41 46  2  0  0  0  0
 41 52  1  0  0  0  0
 42 49  1  0  0  0  0
 43 38  1  0  0  0  0
 45 50  2  0  0  0  0
 45 49  1  0  0  0  0
 47 44  1  0  0  0  0
 47 43  2  0  0  0  0
 48 50  1  0  0  0  0
 49 40  2  0  0  0  0
 50 47  1  0  0  0  0
 51 37  1  6  0  0  0
 51 41  1  0  0  0  0
 53 52  1  1  0  0  0
 55 54  1  6  0  0  0
 55 56  1  0  0  0  0
 55 53  1  0  0  0  0
 56 54  1  6  0  0  0
 56 53  1  0  0  0  0
M  END
>  <MODEL>
2

>  <REMARK>
 VINA RESULT:      -7.9      3.117      7.525
  Name = 
  14 active torsions:
  status: ('A' for Active; 'I' for Inactive)
    1  A    between atoms: O_1  and  C_37
    2  A    between atoms: O_1  and  C_52
    3  A    between atoms: C_3  and  C_53
    4  A    between atoms: C_5  and  C_13
    5  A    between atoms: C_7  and  N_24
    6  A    between atoms: C_7  and  C_49
    7  A    between atoms: C_8  and  O_22
    8  A    between atoms: C_10  and  C_31
    9  A    between atoms: C_13  and  C_49
   10  A    between atoms: C_16  and  C_55
   11  A    between atoms: C_19  and  O_22
   12  A    between atoms: C_31  and  C_34
   13  A    between atoms: C_50  and  C_53
   14  A    between atoms: C_51  and  C_56
                            x       y       z     vdW  Elec       q    Type
                         _______ _______ _______ _____ _____    ______ ____

>  <TORSDO>
F 14

$$$$
=
 OpenBabel10232408573D

 56 63  0  0  1  0  0  0  0  0999 V2000
  190.3200  176.7710  141.5290 C   0  0  0  0  0  0  0  0  0  0  0  0
  191.6940  177.3620  141.6500 C   0  0  0  0  0  2  0  0  0  0  0  0
  189.5730  176.9240  140.4230 C   0  0  0  0  0  3  0  0  0  0  0  0
  192.5290  177.4090  139.2760 C   0  0  1  0  0  3  0  0  0  0  0  0
  191.2420  177.0040  138.5720 C   0  0  0  0  0  2  0  0  0  0  0  0
  192.6520  176.7390  140.6430 C   0  0  0  0  0  2  0  0  0  0  0  0
  190.0350  177.6890  139.2170 C   0  0  1  0  0  3  0  0  0  0  0  0
  186.3590  177.5870  136.9240 O   0  0  0  0  0  0  0  0  0  0  0  0
  186.6570  178.1820  138.1580 C   0  0  2  0  0  3  0  0  0  0  0  0
  187.6660  177.4510  138.8030 O   0  0  0  0  0  0  0  0  0  0  0  0
  188.4540  177.6540  135.7110 C   0  0  0  0  0  2  0  0  0  0  0  0
  189.1570  177.0770  136.9470 C   0  0  0  0  0  2  0  0  0  0  0  0
  187.1010  178.3180  135.9910 C   0  0  0  0  0  2  0  0  0  0  0  0
  188.8820  177.8670  138.2320 C   0  0  2  0  0  3  0  0  0  0  0  0
  184.4020  179.1040  138.4240 C   0  0  2  0  0  3  0  0  0  0  0  0
  184.3200  177.7070  138.3040 O   0  0  0  0  0  0  0  0  0  0  0  0
  185.4150  178.2130  139.0290 C   0  0  1  0  0  3  0  0  0  0  0  0
  183.4310  179.5710  139.4890 C   0  0  0  0  0  2  0  0  0  0  0  0
  182.0060  179.2980  139.0430 C   0  0  0  0  0  2  0  0  0  0  0  0
  181.5620  180.3370  138.0240 C   0  0  0  0  0  2  0  0  0  0  0  0
  181.8650  181.6780  138.4940 N   0  0  0  0  0  2  0  0  0  0  0  0
  181.0120  182.5960  137.7610 C   0  0  0  0  0  1  0  0  0  0  0  0
  193.6370  177.0440  138.4660 O   0  0  0  0  0  0  0  0  0  0  0  0
  195.0720  175.2440  138.1630 N   0  0  0  0  0  0  0  0  0  0  0  0
  194.0580  173.8130  135.9780 O   0  0  0  0  0  0  0  0  0  0  0  0
  194.5410  173.0450  137.0480 C   0  0  2  0  0  3  0  0  0  0  0  0
  192.7980  174.9360  137.6390 O   0  0  0  0  0  0  0  0  0  0  0  0
  195.6660  173.2120  139.1550 O   0  0  0  0  0  1  0  0  0  0  0  0
  192.7990  174.3340  136.3430 C   0  0  2  0  0  3  0  0  0  0  0  0
  195.4970  173.8580  137.9300 C   0  0  2  0  0  3  0  0  0  0  0  0
  193.8640  175.7220  138.0870 C   0  0  0  0  0  0  0  0  0  0  0  0
  191.6990  173.2890  136.2300 C   0  0  0  0  0  1  0  0  0  0  0  0
  195.1860  171.7560  136.5370 C   0  0  0  0  0  2  0  0  0  0  0  0
  193.4570  169.9930  136.6070 F   0  0  0  0  0  0  0  0  0  0  0  0
  195.0810  170.0200  138.1370 O   0  0  0  0  0  0  0  0  0  0  0  0
  194.5810  170.5290  137.1470 C   0  0  0  0  0  0  0  0  0  0  0  0
  189.7860  175.9810  142.6800 C   0  0  0  0  0  2  0  0  0  0  0  0
  189.4210  178.3830  146.2720 C   0  0  2  0  0  3  0  0  0  0  0  0
  190.0390  179.5060  145.7530 F   0  0  0  0  0  0  0  0  0  0  0  0
  190.5720  176.4440  145.1420 C   0  0  0  0  0  0  0  0  0  0  0  0
  188.3440  177.3230  144.3690 C   0  0  0  0  0  0  0  0  0  0  0  0
  191.8180  174.5020  144.0140 C   0  0  0  0  0  1  0  0  0  0  0  0
  190.4010  177.2390  146.3000 C   0  0  0  0  0  0  0  0  0  0  0  0
  190.9940  177.7680  148.5580 F   0  0  0  0  0  0  0  0  0  0  0  0
  192.2720  175.1670  146.3350 C   0  0  0  0  0  3  0  0  0  0  0  0
  188.2570  178.0400  145.4520 N   0  0  0  0  0  0  0  0  0  0  0  0
  191.1590  176.9970  147.4530 C   0  0  0  0  0  0  0  0  0  0  0  0
  192.8210  175.7140  148.5820 F   0  0  0  0  0  0  0  0  0  0  0  0
  191.5330  175.3980  145.1720 C   0  0  0  0  0  0  0  0  0  0  0  0
  192.0880  175.9570  147.4690 C   0  0  0  0  0  0  0  0  0  0  0  0
  189.7220  176.8380  143.9390 C   0  0  2  0  0  3  0  0  0  0  0  0
  187.1610  177.0520  143.6690 O   0  0  0  0  0  0  0  0  0  0  0  0
  186.4830  177.9950  142.8550 C   0  0  2  0  0  3  0  0  0  0  0  0
  184.2060  178.9300  142.8930 C   0  0  0  0  0  2  0  0  0  0  0  0
  185.4830  178.7650  143.6930 C   0  0  1  0  0  3  0  0  0  0  0  0
  185.0080  177.6480  142.8030 C   0  0  2  0  0  3  0  0  0  0  0  0
  1  2  1  0  0  0  0
  1 37  1  0  0  0  0
  3  1  2  0  0  0  0
  4 23  1  6  0  0  0
  4  6  1  0  0  0  0
  5  4  1  0  0  0  0
  6  2  1  0  0  0  0
  7  5  1  6  0  0  0
  7  3  1  0  0  0  0
  9  8  1  6  0  0  0
  9 10  1  0  0  0  0
  9 17  1  0  0  0  0
 11 13  1  0  0  0  0
 11 12  1  0  0  0  0
 13  8  1  0  0  0  0
 14 12  1  6  0  0  0
 14 10  1  0  0  0  0
 14  7  1  0  0  0  0
 15 17  1  0  0  0  0
 15 18  1  1  0  0  0
 16 15  1  0  0  0  0
 17 16  1  6  0  0  0
 19 18  1  0  0  0  0
 20 21  1  0  0  0  0
 20 19  1  0  0  0  0
 22 21  1  0  0  0  0
 25 29  1  0  0  0  0
 25 26  1  0  0  0  0
 26 33  1  6  0  0  0
 26 30  1  0  0  0  0
 27 31  1  0  0  0  0
 29 32  1  1  0  0  0
 29 27  1  0  0  0  0
 30 24  1  0  0  0  0
 30 28  1  1  0  0  0
 31 24  2  0  0  0  0
 31 23  1  0  0  0  0
 33 36  1  0  0  0  0
 34 36  1  0  0  0  0
 36 35  2  0  0  0  0
 38 39  1  6  0  0  0
 38 43  1  0  0  0  0
 40 49  2  0  0  0  0
 40 43  1  0  0  0  0
 41 46  2  0  0  0  0
 42 49  1  0  0  0  0
 43 47  2  0  0  0  0
 45 50  2  0  0  0  0
 46 38  1  0  0  0  0
 47 50  1  0  0  0  0
 47 44  1  0  0  0  0
 49 45  1  0  0  0  0
 50 48  1  0  0  0  0
 51 37  1  6  0  0  0
 51 41  1  0  0  0  0
 51 40  1  0  0  0  0
 52 41  1  0  0  0  0
 53 52  1  1  0  0  0
 53 55  1  0  0  0  0
 55 54  1  6  0  0  0
 56 53  1  0  0  0  0
 56 54  1  6  0  0  0
 56 55  1  0  0  0  0
M  END
>  <MODEL>
3

>  <REMARK>
 VINA RESULT:      -7.4      3.739      8.132
  Name = 
  14 active torsions:
  status: ('A' for Active; 'I' for Inactive)
    1  A    between atoms: O_1  and  C_37
    2  A    between atoms: O_1  and  C_52
    3  A    between atoms: C_3  and  C_53
    4  A    between atoms: C_5  and  C_13
    5  A    between atoms: C_7  and  N_24
    6  A    between atoms: C_7  and  C_49
    7  A    between atoms: C_8  and  O_22
    8  A    between atoms: C_10  and  C_31
    9  A    between atoms: C_13  and  C_49
   10  A    between atoms: C_16  and  C_55
   11  A    between atoms: C_19  and  O_22
   12  A    between atoms: C_31  and  C_34
   13  A    between atoms: C_50  and  C_53
   14  A    between atoms: C_51  and  C_56
                            x       y       z     vdW  Elec       q    Type
                         _______ _______ _______ _____ _____    ______ ____

>  <TORSDO>
F 14

$$$$
=
 OpenBabel10232408573D

 56 63  0  0  1  0  0  0  0  0999 V2000
  185.4620  178.3980  138.7160 C   0  0  0  0  0  0  0  0  0  0  0  0
  184.6620  179.3750  139.5280 C   0  0  0  0  0  2  0  0  0  0  0  0
  186.6790  177.9810  139.0990 C   0  0  0  0  0  3  0  0  0  0  0  0
  185.4220  178.9430  141.8890 C   0  0  1  0  0  3  0  0  0  0  0  0
  186.5650  177.9830  141.5900 C   0  0  0  0  0  2  0  0  0  0  0  0
  184.2840  178.7870  140.8810 C   0  0  0  0  0  2  0  0  0  0  0  0
  187.3480  178.4430  140.3600 C   0  0  1  0  0  3  0  0  0  0  0  0
  191.1230  176.3210  140.1700 O   0  0  0  0  0  0  0  0  0  0  0  0
  190.3230  176.8690  139.1570 C   0  0  2  0  0  3  0  0  0  0  0  0
  188.9790  176.8510  139.5540 O   0  0  0  0  0  0  0  0  0  0  0  0
  190.7170  177.7490  142.0840 C   0  0  0  0  0  2  0  0  0  0  0  0
  189.2090  177.6160  141.8280 C   0  0  0  0  0  2  0  0  0  0  0  0
  191.6050  177.4280  140.8770 C   0  0  0  0  0  2  0  0  0  0  0  0
  188.8000  177.9650  140.3930 C   0  0  2  0  0  3  0  0  0  0  0  0
  191.8880  176.1460  137.4150 C   0  0  2  0  0  3  0  0  0  0  0  0
  191.4020  175.0200  138.0970 O   0  0  0  0  0  0  0  0  0  0  0  0
  190.4870  176.0670  137.8790 C   0  0  1  0  0  3  0  0  0  0  0  0
  191.9530  175.8430  135.9320 C   0  0  0  0  0  2  0  0  0  0  0  0
  193.3060  175.2480  135.5860 C   0  0  0  0  0  2  0  0  0  0  0  0
  194.3110  176.3510  135.2930 C   0  0  0  0  0  2  0  0  0  0  0  0
  195.5050  176.1840  136.1050 N   0  0  0  0  0  2  0  0  0  0  0  0
  196.5900  175.8280  135.2080 C   0  0  0  0  0  1  0  0  0  0  0  0
  184.9340  178.6920  143.1990 O   0  0  0  0  0  0  0  0  0  0  0  0
  186.4480  177.2910  144.2640 N   0  0  0  0  0  0  0  0  0  0  0  0
  186.0890  177.7180  147.0100 O   0  0  0  0  0  0  0  0  0  0  0  0
  187.4150  177.5720  146.5760 C   0  0  2  0  0  3  0  0  0  0  0  0
  185.9380  179.3440  145.2960 O   0  0  0  0  0  0  0  0  0  0  0  0
  188.7420  177.0600  144.6500 O   0  0  0  0  0  1  0  0  0  0  0  0
  185.6490  179.0100  146.6540 C   0  0  2  0  0  3  0  0  0  0  0  0
  187.4820  176.8660  145.2160 C   0  0  2  0  0  3  0  0  0  0  0  0
  185.7930  178.4150  144.2610 C   0  0  0  0  0  0  0  0  0  0  0  0
  186.1880  180.0720  147.6000 C   0  0  0  0  0  1  0  0  0  0  0  0
  188.2520  176.8570  147.6380 C   0  0  0  0  0  2  0  0  0  0  0  0
  189.5070  178.6860  148.7240 F   0  0  0  0  0  0  0  0  0  0  0  0
  190.5870  177.1810  147.4800 O   0  0  0  0  0  0  0  0  0  0  0  0
  189.5300  177.5750  147.9430 C   0  0  0  0  0  0  0  0  0  0  0  0
  184.8630  177.8740  137.4510 C   0  0  0  0  0  2  0  0  0  0  0  0
  181.5040  175.2380  138.2120 C   0  0  2  0  0  3  0  0  0  0  0  0
  181.6690  175.1940  139.5840 F   0  0  0  0  0  0  0  0  0  0  0  0
  183.8430  175.4600  137.2960 C   0  0  0  0  0  0  0  0  0  0  0  0
  182.3070  177.4360  137.5540 C   0  0  0  0  0  0  0  0  0  0  0  0
  186.2490  175.6180  136.4100 C   0  0  0  0  0  1  0  0  0  0  0  0
  182.7140  174.6430  137.5410 C   0  0  0  0  0  0  0  0  0  0  0  0
  181.6410  172.5060  137.4450 F   0  0  0  0  0  0  0  0  0  0  0  0
  184.9810  173.5150  136.3640 C   0  0  0  0  0  3  0  0  0  0  0  0
  181.3130  176.6270  137.7850 N   0  0  0  0  0  0  0  0  0  0  0  0
  182.7260  173.2840  137.2020 C   0  0  0  0  0  0  0  0  0  0  0  0
  183.8750  171.4120  136.2740 F   0  0  0  0  0  0  0  0  0  0  0  0
  184.9930  174.8700  136.7030 C   0  0  0  0  0  0  0  0  0  0  0  0
  183.8580  172.7250  136.6080 C   0  0  0  0  0  0  0  0  0  0  0  0
  183.7220  176.9090  137.7530 C   0  0  2  0  0  3  0  0  0  0  0  0
  182.0030  178.7410  137.1440 O   0  0  0  0  0  0  0  0  0  0  0  0
  180.9470  179.5200  137.6820 C   0  0  2  0  0  3  0  0  0  0  0  0
  180.5740  181.9450  137.8870 C   0  0  0  0  0  2  0  0  0  0  0  0
  180.8260  180.8150  136.9070 C   0  0  1  0  0  3  0  0  0  0  0  0
  181.5100  180.8090  138.2470 C   0  0  2  0  0  3  0  0  0  0  0  0
  1  3  2  0  0  0  0
  1  2  1  0  0  0  0
  2  6  1  0  0  0  0
  4 23  1  1  0  0  0
  5  4  1  0  0  0  0
  6  4  1  0  0  0  0
  7  3  1  6  0  0  0
  7 14  1  0  0  0  0
  7  5  1  0  0  0  0
  8 13  1  0  0  0  0
  9 10  1  1  0  0  0
  9  8  1  0  0  0  0
 10 14  1  0  0  0  0
 12 11  1  0  0  0  0
 13 11  1  0  0  0  0
 14 12  1  1  0  0  0
 15 18  1  6  0  0  0
 15 17  1  0  0  0  0
 15 16  1  0  0  0  0
 17 16  1  1  0  0  0
 17  9  1  0  0  0  0
 19 18  1  0  0  0  0
 20 19  1  0  0  0  0
 20 21  1  0  0  0  0
 22 21  1  0  0  0  0
 23 31  1  0  0  0  0
 24 30  1  0  0  0  0
 26 25  1  0  0  0  0
 26 33  1  1  0  0  0
 27 29  1  0  0  0  0
 29 25  1  0  0  0  0
 29 32  1  1  0  0  0
 30 28  1  6  0  0  0
 30 26  1  0  0  0  0
 31 24  2  0  0  0  0
 31 27  1  0  0  0  0
 33 36  1  0  0  0  0
 35 36  2  0  0  0  0
 36 34  1  0  0  0  0
 37  1  1  0  0  0  0
 38 39  1  1  0  0  0
 40 43  1  0  0  0  0
 40 51  1  0  0  0  0
 41 51  1  0  0  0  0
 41 46  2  0  0  0  0
 42 49  1  0  0  0  0
 43 38  1  0  0  0  0
 45 50  2  0  0  0  0
 45 49  1  0  0  0  0
 46 38  1  0  0  0  0
 47 44  1  0  0  0  0
 47 43  2  0  0  0  0
 48 50  1  0  0  0  0
 49 40  2  0  0  0  0
 50 47  1  0  0  0  0
 51 37  1  6  0  0  0
 52 41  1  0  0  0  0
 53 52  1  6  0  0  0
 53 56  1  0  0  0  0
 55 53  1  0  0  0  0
 55 54  1  1  0  0  0
 55 56  1  0  0  0  0
 56 54  1  1  0  0  0
M  END
>  <MODEL>
4

>  <REMARK>
 VINA RESULT:      -7.4      3.022      8.216
  Name = 
  14 active torsions:
  status: ('A' for Active; 'I' for Inactive)
    1  A    between atoms: O_1  and  C_37
    2  A    between atoms: O_1  and  C_52
    3  A    between atoms: C_3  and  C_53
    4  A    between atoms: C_5  and  C_13
    5  A    between atoms: C_7  and  N_24
    6  A    between atoms: C_7  and  C_49
    7  A    between atoms: C_8  and  O_22
    8  A    between atoms: C_10  and  C_31
    9  A    between atoms: C_13  and  C_49
   10  A    between atoms: C_16  and  C_55
   11  A    between atoms: C_19  and  O_22
   12  A    between atoms: C_31  and  C_34
   13  A    between atoms: C_50  and  C_53
   14  A    between atoms: C_51  and  C_56
                            x       y       z     vdW  Elec       q    Type
                         _______ _______ _______ _____ _____    ______ ____

>  <TORSDO>
F 14

$$$$
=
 OpenBabel10232408573D

 56 63  0  0  1  0  0  0  0  0999 V2000
  186.0940  178.5120  140.0280 C   0  0  0  0  0  0  0  0  0  0  0  0
  187.0540  177.5640  139.3720 C   0  0  0  0  0  2  0  0  0  0  0  0
  186.0690  178.6950  141.3580 C   0  0  0  0  0  3  0  0  0  0  0  0
  189.0400  177.5690  140.9200 C   0  0  1  0  0  3  0  0  0  0  0  0
  188.4420  178.3840  142.0580 C   0  0  0  0  0  2  0  0  0  0  0  0
  188.4950  178.0190  139.5650 C   0  0  0  0  0  2  0  0  0  0  0  0
  186.9870  177.9790  142.3040 C   0  0  1  0  0  3  0  0  0  0  0  0
  185.9130  177.8330  146.5010 O   0  0  0  0  0  0  0  0  0  0  0  0
  187.1650  177.8050  145.8700 C   0  0  2  0  0  3  0  0  0  0  0  0
  187.0410  177.2230  144.6000 O   0  0  0  0  0  0  0  0  0  0  0  0
  184.5320  179.1620  145.0200 C   0  0  0  0  0  2  0  0  0  0  0  0
  185.0310  178.3150  143.8410 C   0  0  0  0  0  2  0  0  0  0  0  0
  185.4280  179.1230  146.2640 C   0  0  0  0  0  2  0  0  0  0  0  0
  186.5590  178.2340  143.7490 C   0  0  2  0  0  3  0  0  0  0  0  0
  189.4540  177.6860  146.7390 C   0  0  2  0  0  3  0  0  0  0  0  0
  188.5540  177.7630  147.8140 O   0  0  0  0  0  0  0  0  0  0  0  0
  188.1450  177.0000  146.7040 C   0  0  1  0  0  3  0  0  0  0  0  0
  190.5450  176.6890  147.0710 C   0  0  0  0  0  2  0  0  0  0  0  0
  191.6110  176.7110  145.9910 C   0  0  0  0  0  2  0  0  0  0  0  0
  191.0180  177.1780  144.6700 C   0  0  0  0  0  2  0  0  0  0  0  0
  191.8840  178.1620  144.0410 N   0  0  0  0  0  2  0  0  0  0  0  0
  191.1890  179.4360  144.0810 C   0  0  0  0  0  1  0  0  0  0  0  0
  190.4520  177.7150  140.9350 O   0  0  0  0  0  0  0  0  0  0  0  0
  192.4810  177.4700  139.8320 N   0  0  0  0  0  0  0  0  0  0  0  0
  191.8620  176.3940  137.3200 O   0  0  0  0  0  0  0  0  0  0  0  0
  193.0050  175.8770  137.9480 C   0  0  2  0  0  3  0  0  0  0  0  0
  190.7820  175.9060  139.3700 O   0  0  0  0  0  0  0  0  0  0  0  0
  194.4140  176.1560  139.8640 O   0  0  0  0  0  1  0  0  0  0  0  0
  190.7270  175.8360  137.9440 C   0  0  2  0  0  3  0  0  0  0  0  0
  193.5300  176.8350  139.0240 C   0  0  2  0  0  3  0  0  0  0  0  0
  191.2700  177.0360  140.0340 C   0  0  0  0  0  0  0  0  0  0  0  0
  190.4680  174.4110  137.4800 C   0  0  0  0  0  1  0  0  0  0  0  0
  194.0770  175.5300  136.9140 C   0  0  0  0  0  2  0  0  0  0  0  0
  193.3150  176.4400  134.7480 F   0  0  0  0  0  0  0  0  0  0  0  0
  194.9840  177.4340  135.8470 O   0  0  0  0  0  0  0  0  0  0  0  0
  194.1560  176.5380  135.8090 C   0  0  0  0  0  0  0  0  0  0  0  0
  185.1510  179.2780  139.1570 C   0  0  0  0  0  2  0  0  0  0  0  0
  183.4310  176.5900  136.2190 C   0  0  2  0  0  3  0  0  0  0  0  0
  182.7070  177.5600  135.5500 F   0  0  0  0  0  0  0  0  0  0  0  0
  183.4460  177.3530  138.6230 C   0  0  0  0  0  0  0  0  0  0  0  0
  185.3900  177.7490  137.0730 C   0  0  0  0  0  0  0  0  0  0  0  0
  183.3770  178.1380  141.0670 C   0  0  0  0  0  1  0  0  0  0  0  0
  182.9320  176.4790  137.6360 C   0  0  0  0  0  0  0  0  0  0  0  0
  181.4470  174.7130  137.0020 F   0  0  0  0  0  0  0  0  0  0  0  0
  181.9490  176.3180  140.2440 C   0  0  0  0  0  3  0  0  0  0  0  0
  184.8530  176.9420  136.2040 N   0  0  0  0  0  0  0  0  0  0  0  0
  181.9400  175.5440  137.9560 C   0  0  0  0  0  0  0  0  0  0  0  0
  180.5000  174.5550  139.5780 F   0  0  0  0  0  0  0  0  0  0  0  0
  182.9310  177.2650  139.9440 C   0  0  0  0  0  0  0  0  0  0  0  0
  181.4560  175.4610  139.2610 C   0  0  0  0  0  0  0  0  0  0  0  0
  184.4870  178.3560  138.1390 C   0  0  2  0  0  3  0  0  0  0  0  0
  186.7630  178.0060  136.9640 O   0  0  0  0  0  0  0  0  0  0  0  0
  187.4460  178.1730  135.7330 C   0  0  2  0  0  3  0  0  0  0  0  0
  189.5650  177.2870  134.8450 C   0  0  0  0  0  2  0  0  0  0  0  0
  188.2050  176.9060  135.3980 C   0  0  1  0  0  3  0  0  0  0  0  0
  188.9410  178.0870  135.9710 C   0  0  2  0  0  3  0  0  0  0  0  0
  1  3  2  0  0  0  0
  2  6  1  0  0  0  0
  2  1  1  0  0  0  0
  4 23  1  6  0  0  0
  4  5  1  0  0  0  0
  5  7  1  0  0  0  0
  6  4  1  0  0  0  0
  7  3  1  6  0  0  0
  7 14  1  0  0  0  0
  9 10  1  6  0  0  0
  9  8  1  0  0  0  0
  9 17  1  0  0  0  0
 11 13  1  0  0  0  0
 12 11  1  0  0  0  0
 13  8  1  0  0  0  0
 14 12  1  6  0  0  0
 14 10  1  0  0  0  0
 15 18  1  1  0  0  0
 15 16  1  0  0  0  0
 17 15  1  0  0  0  0
 17 16  1  1  0  0  0
 19 18  1  0  0  0  0
 20 19  1  0  0  0  0
 21 22  1  0  0  0  0
 21 20  1  0  0  0  0
 24 31  2  0  0  0  0
 25 29  1  0  0  0  0
 25 26  1  0  0  0  0
 26 33  1  6  0  0  0
 26 30  1  0  0  0  0
 27 31  1  0  0  0  0
 29 32  1  1  0  0  0
 29 27  1  0  0  0  0
 30 24  1  0  0  0  0
 30 28  1  1  0  0  0
 31 23  1  0  0  0  0
 34 36  1  0  0  0  0
 36 35  2  0  0  0  0
 36 33  1  0  0  0  0
 37  1  1  0  0  0  0
 38 39  1  6  0  0  0
 38 43  1  0  0  0  0
 40 49  1  0  0  0  0
 41 51  1  0  0  0  0
 43 47  1  0  0  0  0
 43 40  2  0  0  0  0
 44 47  1  0  0  0  0
 46 38  1  0  0  0  0
 46 41  2  0  0  0  0
 47 50  2  0  0  0  0
 49 45  2  0  0  0  0
 49 42  1  0  0  0  0
 50 48  1  0  0  0  0
 50 45  1  0  0  0  0
 51 40  1  0  0  0  0
 51 37  1  1  0  0  0
 52 41  1  0  0  0  0
 53 56  1  0  0  0  0
 53 52  1  1  0  0  0
 55 54  1  6  0  0  0
 55 53  1  0  0  0  0
 55 56  1  0  0  0  0
 56 54  1  6  0  0  0
M  END
>  <MODEL>
5

>  <REMARK>
 VINA RESULT:      -7.3      2.253      4.749
  Name = 
  14 active torsions:
  status: ('A' for Active; 'I' for Inactive)
    1  A    between atoms: O_1  and  C_37
    2  A    between atoms: O_1  and  C_52
    3  A    between atoms: C_3  and  C_53
    4  A    between atoms: C_5  and  C_13
    5  A    between atoms: C_7  and  N_24
    6  A    between atoms: C_7  and  C_49
    7  A    between atoms: C_8  and  O_22
    8  A    between atoms: C_10  and  C_31
    9  A    between atoms: C_13  and  C_49
   10  A    between atoms: C_16  and  C_55
   11  A    between atoms: C_19  and  O_22
   12  A    between atoms: C_31  and  C_34
   13  A    between atoms: C_50  and  C_53
   14  A    between atoms: C_51  and  C_56
                            x       y       z     vdW  Elec       q    Type
                         _______ _______ _______ _____ _____    ______ ____

>  <TORSDO>
F 14

$$$$
=
 OpenBabel10232408573D

 56 63  0  0  1  0  0  0  0  0999 V2000
  189.2070  177.3770  139.2480 C   0  0  0  0  0  0  0  0  0  0  0  0
  189.7630  176.6020  140.4070 C   0  0  0  0  0  2  0  0  0  0  0  0
  188.0080  177.9800  139.3030 C   0  0  0  0  0  3  0  0  0  0  0  0
  188.7460  177.7300  142.4140 C   0  0  1  0  0  3  0  0  0  0  0  0
  187.7800  178.6580  141.6920 C   0  0  0  0  0  2  0  0  0  0  0  0
  190.0210  177.5100  141.6030 C   0  0  0  0  0  2  0  0  0  0  0  0
  187.1220  177.9390  140.5130 C   0  0  1  0  0  3  0  0  0  0  0  0
  182.9240  178.8300  139.9050 O   0  0  0  0  0  0  0  0  0  0  0  0
  183.7090  178.8450  141.0670 C   0  0  2  0  0  3  0  0  0  0  0  0
  184.7440  177.9060  140.9490 O   0  0  0  0  0  0  0  0  0  0  0  0
  184.4750  179.3980  138.1330 C   0  0  0  0  0  2  0  0  0  0  0  0
  185.4480  178.3490  138.6870 C   0  0  0  0  0  2  0  0  0  0  0  0
  183.4180  179.8850  139.1310 C   0  0  0  0  0  2  0  0  0  0  0  0
  185.7490  178.5210  140.1800 C   0  0  2  0  0  3  0  0  0  0  0  0
  183.2190  179.3820  143.4070 C   0  0  2  0  0  3  0  0  0  0  0  0
  182.0790  179.6300  142.6270 O   0  0  0  0  0  0  0  0  0  0  0  0
  182.8510  178.5090  142.2720 C   0  0  1  0  0  3  0  0  0  0  0  0
  182.8010  178.7310  144.7090 C   0  0  0  0  0  2  0  0  0  0  0  0
  183.9420  178.7930  145.7080 C   0  0  0  0  0  2  0  0  0  0  0  0
  185.1700  179.4270  145.0710 C   0  0  0  0  0  2  0  0  0  0  0  0
  186.3830  178.7890  145.5520 N   0  0  0  0  0  2  0  0  0  0  0  0
  186.1030  177.3690  145.6780 C   0  0  0  0  0  1  0  0  0  0  0  0
  189.0770  178.2940  143.6750 O   0  0  0  0  0  0  0  0  0  0  0  0
  189.6240  177.9550  145.9070 N   0  0  0  0  0  0  0  0  0  0  0  0
  192.1290  176.7010  145.9010 O   0  0  0  0  0  0  0  0  0  0  0  0
  191.2030  176.2250  146.8410 C   0  0  2  0  0  3  0  0  0  0  0  0
  190.3820  176.3730  144.3370 O   0  0  0  0  0  0  0  0  0  0  0  0
  189.0220  176.6360  147.7400 O   0  0  0  0  0  1  0  0  0  0  0  0
  191.7690  176.1980  144.6330 C   0  0  2  0  0  3  0  0  0  0  0  0
  190.1000  177.2570  147.1070 C   0  0  2  0  0  3  0  0  0  0  0  0
  189.6990  177.5450  144.6740 C   0  0  0  0  0  0  0  0  0  0  0  0
  192.1800  174.7430  144.4630 C   0  0  0  0  0  1  0  0  0  0  0  0
  191.9120  175.7960  148.1260 C   0  0  0  0  0  2  0  0  0  0  0  0
  191.8150  178.0730  149.0780 F   0  0  0  0  0  0  0  0  0  0  0  0
  193.7020  176.8900  149.2130 O   0  0  0  0  0  0  0  0  0  0  0  0
  192.5390  176.9480  148.8480 C   0  0  0  0  0  0  0  0  0  0  0  0
  190.0320  177.4800  138.0060 C   0  0  0  0  0  2  0  0  0  0  0  0
  190.3550  173.6860  135.9310 C   0  0  2  0  0  3  0  0  0  0  0  0
  189.6100  172.9630  136.8440 F   0  0  0  0  0  0  0  0  0  0  0  0
  191.5300  175.4380  137.3120 C   0  0  0  0  0  0  0  0  0  0  0  0
  189.4350  175.9340  136.0090 C   0  0  0  0  0  0  0  0  0  0  0  0
  192.7540  177.1610  138.7720 C   0  0  0  0  0  1  0  0  0  0  0  0
  191.5950  174.2160  136.6020 C   0  0  0  0  0  0  0  0  0  0  0  0
  192.8390  172.3070  135.8720 F   0  0  0  0  0  0  0  0  0  0  0  0
  193.8780  175.1560  137.9060 C   0  0  0  0  0  3  0  0  0  0  0  0
  189.5490  174.7890  135.4010 N   0  0  0  0  0  0  0  0  0  0  0  0
  192.7860  173.4810  136.5500 C   0  0  0  0  0  0  0  0  0  0  0  0
  195.0830  173.2520  137.1480 F   0  0  0  0  0  0  0  0  0  0  0  0
  192.6980  175.9010  137.9780 C   0  0  0  0  0  0  0  0  0  0  0  0
  193.9260  173.9570  137.1970 C   0  0  0  0  0  0  0  0  0  0  0  0
  190.1670  176.1190  137.3330 C   0  0  2  0  0  3  0  0  0  0  0  0
  188.6410  176.9170  135.4050 O   0  0  0  0  0  0  0  0  0  0  0  0
  187.4560  176.6460  134.6740 C   0  0  2  0  0  3  0  0  0  0  0  0
  185.0920  177.2490  135.0090 C   0  0  0  0  0  2  0  0  0  0  0  0
  186.4910  177.8040  134.8240 C   0  0  1  0  0  3  0  0  0  0  0  0
  186.2850  176.5520  135.6320 C   0  0  2  0  0  3  0  0  0  0  0  0
  1  3  2  0  0  0  0
  1  2  1  0  0  0  0
  2  6  1  0  0  0  0
  4 23  1  1  0  0  0
  5  4  1  0  0  0  0
  6  4  1  0  0  0  0
  7  3  1  6  0  0  0
  7  5  1  0  0  0  0
  9  8  1  6  0  0  0
  9 17  1  0  0  0  0
 10  9  1  0  0  0  0
 11 12  1  0  0  0  0
 11 13  1  0  0  0  0
 13  8  1  0  0  0  0
 14 12  1  6  0  0  0
 14  7  1  0  0  0  0
 14 10  1  0  0  0  0
 15 18  1  1  0  0  0
 16 15  1  0  0  0  0
 17 16  1  6  0  0  0
 17 15  1  0  0  0  0
 18 19  1  0  0  0  0
 20 21  1  0  0  0  0
 20 19  1  0  0  0  0
 21 22  1  0  0  0  0
 23 31  1  0  0  0  0
 24 30  1  0  0  0  0
 25 26  1  0  0  0  0
 26 30  1  0  0  0  0
 26 33  1  1  0  0  0
 27 29  1  0  0  0  0
 27 31  1  0  0  0  0
 29 32  1  1  0  0  0
 29 25  1  0  0  0  0
 30 28  1  6  0  0  0
 31 24  2  0  0  0  0
 33 36  1  0  0  0  0
 36 34  1  0  0  0  0
 36 35  2  0  0  0  0
 37  1  1  0  0  0  0
 38 43  1  0  0  0  0
 38 39  1  1  0  0  0
 40 51  1  0  0  0  0
 40 49  1  0  0  0  0
 41 51  1  0  0  0  0
 43 40  2  0  0  0  0
 44 47  1  0  0  0  0
 45 49  2  0  0  0  0
 46 38  1  0  0  0  0
 46 41  2  0  0  0  0
 47 43  1  0  0  0  0
 47 50  2  0  0  0  0
 48 50  1  0  0  0  0
 49 42  1  0  0  0  0
 50 45  1  0  0  0  0
 51 37  1  6  0  0  0
 52 41  1  0  0  0  0
 53 55  1  0  0  0  0
 53 52  1  1  0  0  0
 53 56  1  0  0  0  0
 55 54  1  6  0  0  0
 55 56  1  0  0  0  0
 56 54  1  6  0  0  0
M  END
>  <MODEL>
6

>  <REMARK>
 VINA RESULT:      -7.2      3.522      8.701
  Name = 
  14 active torsions:
  status: ('A' for Active; 'I' for Inactive)
    1  A    between atoms: O_1  and  C_37
    2  A    between atoms: O_1  and  C_52
    3  A    between atoms: C_3  and  C_53
    4  A    between atoms: C_5  and  C_13
    5  A    between atoms: C_7  and  N_24
    6  A    between atoms: C_7  and  C_49
    7  A    between atoms: C_8  and  O_22
    8  A    between atoms: C_10  and  C_31
    9  A    between atoms: C_13  and  C_49
   10  A    between atoms: C_16  and  C_55
   11  A    between atoms: C_19  and  O_22
   12  A    between atoms: C_31  and  C_34
   13  A    between atoms: C_50  and  C_53
   14  A    between atoms: C_51  and  C_56
                            x       y       z     vdW  Elec       q    Type
                         _______ _______ _______ _____ _____    ______ ____

>  <TORSDO>
F 14

$$$$
=
 OpenBabel10232408573D

 56 63  0  0  1  0  0  0  0  0999 V2000
  190.2040  176.6440  141.5740 C   0  0  0  0  0  0  0  0  0  0  0  0
  191.5280  177.3480  141.6460 C   0  0  0  0  0  2  0  0  0  0  0  0
  189.4440  176.6670  140.4660 C   0  0  0  0  0  3  0  0  0  0  0  0
  192.3490  177.3070  139.2670 C   0  0  1  0  0  3  0  0  0  0  0  0
  191.0950  176.7590  138.6000 C   0  0  0  0  0  2  0  0  0  0  0  0
  192.5280  176.7380  140.6730 C   0  0  0  0  0  2  0  0  0  0  0  0
  189.8410  177.3860  139.2110 C   0  0  1  0  0  3  0  0  0  0  0  0
  186.9670  176.7920  136.0220 O   0  0  0  0  0  0  0  0  0  0  0  0
  187.2150  176.0520  137.1870 C   0  0  2  0  0  3  0  0  0  0  0  0
  188.5630  176.1810  137.5500 O   0  0  0  0  0  0  0  0  0  0  0  0
  187.5340  179.0660  136.6320 C   0  0  0  0  0  2  0  0  0  0  0  0
  188.8550  178.5500  137.2170 C   0  0  0  0  0  2  0  0  0  0  0  0
  186.4390  178.0040  136.4790 C   0  0  0  0  0  2  0  0  0  0  0  0
  188.6740  177.4100  138.2250 C   0  0  2  0  0  3  0  0  0  0  0  0
  185.4930  174.3150  137.3410 C   0  0  2  0  0  3  0  0  0  0  0  0
  185.8580  174.4860  135.9970 O   0  0  0  0  0  0  0  0  0  0  0  0
  186.8910  174.5890  136.9470 C   0  0  1  0  0  3  0  0  0  0  0  0
  185.3230  172.8370  137.6280 C   0  0  0  0  0  2  0  0  0  0  0  0
  184.4210  172.2080  136.5810 C   0  0  0  0  0  2  0  0  0  0  0  0
  183.1470  171.6840  137.2250 C   0  0  0  0  0  2  0  0  0  0  0  0
  182.0230  172.5500  136.9140 N   0  0  0  0  0  2  0  0  0  0  0  0
  180.8160  171.7490  137.0250 C   0  0  0  0  0  1  0  0  0  0  0  0
  193.4800  176.9780  138.4730 O   0  0  0  0  0  0  0  0  0  0  0  0
  194.9690  175.2160  138.2150 N   0  0  0  0  0  0  0  0  0  0  0  0
  194.0750  173.7760  135.9840 O   0  0  0  0  0  0  0  0  0  0  0  0
  194.5350  173.0130  137.0670 C   0  0  2  0  0  3  0  0  0  0  0  0
  192.7250  174.8570  137.6010 O   0  0  0  0  0  0  0  0  0  0  0  0
  195.5740  173.1920  139.2170 O   0  0  0  0  0  1  0  0  0  0  0  0
  192.7910  174.2640  136.3030 C   0  0  2  0  0  3  0  0  0  0  0  0
  195.4370  173.8420  137.9900 C   0  0  2  0  0  3  0  0  0  0  0  0
  193.7530  175.6650  138.0950 C   0  0  0  0  0  0  0  0  0  0  0  0
  191.7220  173.1930  136.1410 C   0  0  0  0  0  1  0  0  0  0  0  0
  195.2300  171.7430  136.5730 C   0  0  0  0  0  2  0  0  0  0  0  0
  194.3080  169.7930  137.7760 F   0  0  0  0  0  0  0  0  0  0  0  0
  193.6690  170.2120  135.6800 O   0  0  0  0  0  0  0  0  0  0  0  0
  194.3440  170.5380  136.6420 C   0  0  0  0  0  0  0  0  0  0  0  0
  189.7380  175.8900  142.7770 C   0  0  0  0  0  2  0  0  0  0  0  0
  189.5390  178.4170  146.2970 C   0  0  2  0  0  3  0  0  0  0  0  0
  190.1630  179.5090  145.7210 F   0  0  0  0  0  0  0  0  0  0  0  0
  190.6110  176.4170  145.1970 C   0  0  0  0  0  0  0  0  0  0  0  0
  188.3790  177.3190  144.4650 C   0  0  0  0  0  0  0  0  0  0  0  0
  191.7800  174.4120  144.0960 C   0  0  0  0  0  1  0  0  0  0  0  0
  190.4950  177.2530  146.3320 C   0  0  0  0  0  0  0  0  0  0  0  0
  191.1710  177.8420  148.5510 F   0  0  0  0  0  0  0  0  0  0  0  0
  192.3220  175.1420  146.3780 C   0  0  0  0  0  3  0  0  0  0  0  0
  188.3420  178.0730  145.5260 N   0  0  0  0  0  0  0  0  0  0  0  0
  191.2840  177.0320  147.4680 C   0  0  0  0  0  0  0  0  0  0  0  0
  192.9540  175.7500  148.5880 F   0  0  0  0  0  0  0  0  0  0  0  0
  191.5510  175.3510  145.2310 C   0  0  0  0  0  0  0  0  0  0  0  0
  192.1910  175.9720  147.4900 C   0  0  0  0  0  0  0  0  0  0  0  0
  189.7320  176.7890  144.0090 C   0  0  2  0  0  3  0  0  0  0  0  0
  187.1680  177.0520  143.8120 O   0  0  0  0  0  0  0  0  0  0  0  0
  186.5040  177.9700  142.9600 C   0  0  2  0  0  3  0  0  0  0  0  0
  184.2500  178.9610  142.9770 C   0  0  0  0  0  2  0  0  0  0  0  0
  185.5330  178.8040  143.7700 C   0  0  1  0  0  3  0  0  0  0  0  0
  185.0210  177.6570  142.9420 C   0  0  2  0  0  3  0  0  0  0  0  0
  1  2  1  0  0  0  0
  1 37  1  0  0  0  0
  3  1  2  0  0  0  0
  4 23  1  6  0  0  0
  4  6  1  0  0  0  0
  5  4  1  0  0  0  0
  6  2  1  0  0  0  0
  7  5  1  6  0  0  0
  7  3  1  0  0  0  0
  8 13  1  0  0  0  0
  9  8  1  6  0  0  0
  9 10  1  0  0  0  0
 10 14  1  0  0  0  0
 11 12  1  0  0  0  0
 13 11  1  0  0  0  0
 14 12  1  6  0  0  0
 14  7  1  0  0  0  0
 15 18  1  6  0  0  0
 16 15  1  0  0  0  0
 17 16  1  6  0  0  0
 17  9  1  0  0  0  0
 17 15  1  0  0  0  0
 19 20  1  0  0  0  0
 19 18  1  0  0  0  0
 21 22  1  0  0  0  0
 21 20  1  0  0  0  0
 25 29  1  0  0  0  0
 25 26  1  0  0  0  0
 26 33  1  6  0  0  0
 26 30  1  0  0  0  0
 27 31  1  0  0  0  0
 29 32  1  1  0  0  0
 29 27  1  0  0  0  0
 30 24  1  0  0  0  0
 30 28  1  1  0  0  0
 31 24  2  0  0  0  0
 31 23  1  0  0  0  0
 33 36  1  0  0  0  0
 35 36  2  0  0  0  0
 36 34  1  0  0  0  0
 38 39  1  6  0  0  0
 38 43  1  0  0  0  0
 40 49  2  0  0  0  0
 40 43  1  0  0  0  0
 41 46  2  0  0  0  0
 42 49  1  0  0  0  0
 43 47  2  0  0  0  0
 45 50  2  0  0  0  0
 46 38  1  0  0  0  0
 47 50  1  0  0  0  0
 47 44  1  0  0  0  0
 49 45  1  0  0  0  0
 50 48  1  0  0  0  0
 51 37  1  6  0  0  0
 51 41  1  0  0  0  0
 51 40  1  0  0  0  0
 52 41  1  0  0  0  0
 53 55  1  0  0  0  0
 53 52  1  1  0  0  0
 55 54  1  6  0  0  0
 56 53  1  0  0  0  0
 56 54  1  6  0  0  0
 56 55  1  0  0  0  0
M  END
>  <MODEL>
7

>  <REMARK>
 VINA RESULT:      -7.2      3.975      8.387
  Name = 
  14 active torsions:
  status: ('A' for Active; 'I' for Inactive)
    1  A    between atoms: O_1  and  C_37
    2  A    between atoms: O_1  and  C_52
    3  A    between atoms: C_3  and  C_53
    4  A    between atoms: C_5  and  C_13
    5  A    between atoms: C_7  and  N_24
    6  A    between atoms: C_7  and  C_49
    7  A    between atoms: C_8  and  O_22
    8  A    between atoms: C_10  and  C_31
    9  A    between atoms: C_13  and  C_49
   10  A    between atoms: C_16  and  C_55
   11  A    between atoms: C_19  and  O_22
   12  A    between atoms: C_31  and  C_34
   13  A    between atoms: C_50  and  C_53
   14  A    between atoms: C_51  and  C_56
                            x       y       z     vdW  Elec       q    Type
                         _______ _______ _______ _____ _____    ______ ____

>  <TORSDO>
F 14

$$$$
=
 OpenBabel10232408573D

 56 63  0  0  1  0  0  0  0  0999 V2000
  189.7000  177.1040  141.6080 C   0  0  0  0  0  0  0  0  0  0  0  0
  190.8900  177.9280  142.0050 C   0  0  0  0  0  2  0  0  0  0  0  0
  189.3700  176.9020  140.3220 C   0  0  0  0  0  3  0  0  0  0  0  0
  192.4840  177.6300  140.0810 C   0  0  1  0  0  3  0  0  0  0  0  0
  191.5610  176.8810  139.1310 C   0  0  0  0  0  2  0  0  0  0  0  0
  192.1880  177.2820  141.5380 C   0  0  0  0  0  2  0  0  0  0  0  0
  190.1500  177.4710  139.1740 C   0  0  1  0  0  3  0  0  0  0  0  0
  187.6320  176.1720  135.8930 O   0  0  0  0  0  0  0  0  0  0  0  0
  187.3280  176.8930  137.0570 C   0  0  2  0  0  3  0  0  0  0  0  0
  188.2100  176.5260  138.0840 O   0  0  0  0  0  0  0  0  0  0  0  0
  189.9210  176.7870  135.3950 C   0  0  0  0  0  2  0  0  0  0  0  0
  190.2860  176.5080  136.8600 C   0  0  0  0  0  2  0  0  0  0  0  0
  188.4310  177.0380  135.1390 C   0  0  0  0  0  2  0  0  0  0  0  0
  189.3960  177.2490  137.8630 C   0  0  2  0  0  3  0  0  0  0  0  0
  185.0500  177.7830  137.2130 C   0  0  2  0  0  3  0  0  0  0  0  0
  185.0540  176.6660  136.3620 O   0  0  0  0  0  0  0  0  0  0  0  0
  185.9010  176.6050  137.4840 C   0  0  1  0  0  3  0  0  0  0  0  0
  183.8180  177.7360  138.0930 C   0  0  0  0  0  2  0  0  0  0  0  0
  183.7030  179.0230  138.8900 C   0  0  0  0  0  2  0  0  0  0  0  0
  184.0570  178.7750  140.3490 C   0  0  0  0  0  2  0  0  0  0  0  0
  185.2320  179.5430  140.7270 N   0  0  0  0  0  2  0  0  0  0  0  0
  186.2930  178.5950  141.0160 C   0  0  0  0  0  1  0  0  0  0  0  0
  193.8310  177.2970  139.7780 O   0  0  0  0  0  0  0  0  0  0  0  0
  193.8190  176.9890  137.4760 N   0  0  0  0  0  0  0  0  0  0  0  0
  193.7080  174.2180  137.0740 O   0  0  0  0  0  0  0  0  0  0  0  0
  194.5530  174.9340  136.2130 C   0  0  2  0  0  3  0  0  0  0  0  0
  194.8710  175.3500  138.7990 O   0  0  0  0  0  0  0  0  0  0  0  0
  195.2270  177.1530  135.6180 O   0  0  0  0  0  1  0  0  0  0  0  0
  194.3490  174.1070  138.3260 C   0  0  2  0  0  3  0  0  0  0  0  0
  194.1760  176.4200  136.1710 C   0  0  2  0  0  3  0  0  0  0  0  0
  194.1670  176.5490  138.6510 C   0  0  0  0  0  0  0  0  0  0  0  0
  195.4270  173.0340  138.3180 C   0  0  0  0  0  1  0  0  0  0  0  0
  194.5600  174.3030  134.8190 C   0  0  0  0  0  2  0  0  0  0  0  0
  192.1170  174.0800  134.5280 F   0  0  0  0  0  0  0  0  0  0  0  0
  193.4240  172.2780  134.3810 O   0  0  0  0  0  0  0  0  0  0  0  0
  193.3360  173.4820  134.5540 C   0  0  0  0  0  0  0  0  0  0  0  0
  188.8750  176.4870  142.6910 C   0  0  0  0  0  2  0  0  0  0  0  0
  189.4580  178.3970  146.5410 C   0  0  2  0  0  3  0  0  0  0  0  0
  190.0350  179.5500  146.0390 F   0  0  0  0  0  0  0  0  0  0  0  0
  190.1950  176.5760  144.9590 C   0  0  0  0  0  0  0  0  0  0  0  0
  187.9270  177.6560  144.8050 C   0  0  0  0  0  0  0  0  0  0  0  0
  191.0250  174.7470  143.3590 C   0  0  0  0  0  1  0  0  0  0  0  0
  190.3330  177.2150  146.2140 C   0  0  0  0  0  0  0  0  0  0  0  0
  191.4260  177.4050  148.3340 F   0  0  0  0  0  0  0  0  0  0  0  0
  192.0070  175.0700  145.5860 C   0  0  0  0  0  3  0  0  0  0  0  0
  188.1250  178.2230  145.9600 N   0  0  0  0  0  0  0  0  0  0  0  0
  191.2960  176.7830  147.1350 C   0  0  0  0  0  0  0  0  0  0  0  0
  193.0580  175.2830  147.7090 F   0  0  0  0  0  0  0  0  0  0  0  0
  191.0590  175.4910  144.6500 C   0  0  0  0  0  0  0  0  0  0  0  0
  192.1260  175.7080  146.8210 C   0  0  0  0  0  0  0  0  0  0  0  0
  189.1430  177.1680  144.0290 C   0  0  2  0  0  3  0  0  0  0  0  0
  186.6060  177.5390  144.3540 O   0  0  0  0  0  0  0  0  0  0  0  0
  185.4810  178.0690  145.0360 C   0  0  2  0  0  3  0  0  0  0  0  0
  183.5790  179.4620  144.3250 C   0  0  0  0  0  2  0  0  0  0  0  0
  184.3040  178.1510  144.0860 C   0  0  1  0  0  3  0  0  0  0  0  0
  185.0900  179.3930  144.4090 C   0  0  2  0  0  3  0  0  0  0  0  0
  1  2  1  0  0  0  0
  1 37  1  0  0  0  0
  3  1  2  0  0  0  0
  4 23  1  6  0  0  0
  4  6  1  0  0  0  0
  5  4  1  0  0  0  0
  6  2  1  0  0  0  0
  7  5  1  6  0  0  0
  7  3  1  0  0  0  0
  9  8  1  6  0  0  0
  9 17  1  0  0  0  0
  9 10  1  0  0  0  0
 11 12  1  0  0  0  0
 13 11  1  0  0  0  0
 13  8  1  0  0  0  0
 14 12  1  6  0  0  0
 14 10  1  0  0  0  0
 14  7  1  0  0  0  0
 15 17  1  0  0  0  0
 15 18  1  1  0  0  0
 16 15  1  0  0  0  0
 17 16  1  6  0  0  0
 18 19  1  0  0  0  0
 19 20  1  0  0  0  0
 20 21  1  0  0  0  0
 21 22  1  0  0  0  0
 24 31  2  0  0  0  0
 25 29  1  0  0  0  0
 26 33  1  6  0  0  0
 26 25  1  0  0  0  0
 29 32  1  6  0  0  0
 29 27  1  0  0  0  0
 30 28  1  1  0  0  0
 30 26  1  0  0  0  0
 30 24  1  0  0  0  0
 31 27  1  0  0  0  0
 31 23  1  0  0  0  0
 34 36  1  0  0  0  0
 35 36  2  0  0  0  0
 36 33  1  0  0  0  0
 38 39  1  6  0  0  0
 40 43  1  0  0  0  0
 41 46  2  0  0  0  0
 42 49  1  0  0  0  0
 43 38  1  0  0  0  0
 43 47  2  0  0  0  0
 45 50  2  0  0  0  0
 46 38  1  0  0  0  0
 47 44  1  0  0  0  0
 49 40  2  0  0  0  0
 49 45  1  0  0  0  0
 50 47  1  0  0  0  0
 50 48  1  0  0  0  0
 51 37  1  6  0  0  0
 51 41  1  0  0  0  0
 51 40  1  0  0  0  0
 52 41  1  0  0  0  0
 53 52  1  6  0  0  0
 55 54  1  1  0  0  0
 55 56  1  0  0  0  0
 55 53  1  0  0  0  0
 56 54  1  1  0  0  0
 56 53  1  0  0  0  0
M  END
>  <MODEL>
8

>  <REMARK>
 VINA RESULT:      -7.1      3.420      7.707
  Name = 
  14 active torsions:
  status: ('A' for Active; 'I' for Inactive)
    1  A    between atoms: O_1  and  C_37
    2  A    between atoms: O_1  and  C_52
    3  A    between atoms: C_3  and  C_53
    4  A    between atoms: C_5  and  C_13
    5  A    between atoms: C_7  and  N_24
    6  A    between atoms: C_7  and  C_49
    7  A    between atoms: C_8  and  O_22
    8  A    between atoms: C_10  and  C_31
    9  A    between atoms: C_13  and  C_49
   10  A    between atoms: C_16  and  C_55
   11  A    between atoms: C_19  and  O_22
   12  A    between atoms: C_31  and  C_34
   13  A    between atoms: C_50  and  C_53
   14  A    between atoms: C_51  and  C_56
                            x       y       z     vdW  Elec       q    Type
                         _______ _______ _______ _____ _____    ______ ____

>  <TORSDO>
F 14

$$$$
=
 OpenBabel10232408573D

 56 63  0  0  1  0  0  0  0  0999 V2000
  189.8580  177.0920  136.5530 C   0  0  0  0  0  0  0  0  0  0  0  0
  189.4830  177.7710  137.8380 C   0  0  0  0  0  2  0  0  0  0  0  0
  191.0660  176.5360  136.3670 C   0  0  0  0  0  3  0  0  0  0  0  0
  190.8580  176.5650  139.5670 C   0  0  1  0  0  3  0  0  0  0  0  0
  191.7150  175.7230  138.6330 C   0  0  0  0  0  2  0  0  0  0  0  0
  189.4580  176.7820  138.9960 C   0  0  0  0  0  2  0  0  0  0  0  0
  192.1430  176.5390  137.4120 C   0  0  1  0  0  3  0  0  0  0  0  0
  196.1310  175.0650  136.5670 O   0  0  0  0  0  0  0  0  0  0  0  0
  194.9910  174.4090  137.0530 C   0  0  2  0  0  3  0  0  0  0  0  0
  194.1960  175.3130  137.7720 O   0  0  0  0  0  0  0  0  0  0  0  0
  195.2460  176.8240  135.1550 C   0  0  0  0  0  2  0  0  0  0  0  0
  194.2850  177.2110  136.2880 C   0  0  0  0  0  2  0  0  0  0  0  0
  195.8090  175.4010  135.2470 C   0  0  0  0  0  2  0  0  0  0  0  0
  193.4570  176.0340  136.8160 C   0  0  2  0  0  3  0  0  0  0  0  0
  195.4950  172.0140  137.1750 C   0  0  2  0  0  3  0  0  0  0  0  0
  196.6390  172.7460  137.5290 O   0  0  0  0  0  0  0  0  0  0  0  0
  195.4030  173.2630  137.9590 C   0  0  1  0  0  3  0  0  0  0  0  0
  195.3610  170.8200  138.0970 C   0  0  0  0  0  2  0  0  0  0  0  0
  194.6110  169.7040  137.3930 C   0  0  0  0  0  2  0  0  0  0  0  0
  194.3260  168.5640  138.3590 C   0  0  0  0  0  2  0  0  0  0  0  0
  195.0090  168.7830  139.6230 N   0  0  0  0  0  2  0  0  0  0  0  0
  194.0870  168.4100  140.6820 C   0  0  0  0  0  1  0  0  0  0  0  0
  190.7620  175.9120  140.8250 O   0  0  0  0  0  0  0  0  0  0  0  0
  191.2640  176.8440  142.8920 N   0  0  0  0  0  0  0  0  0  0  0  0
  188.9560  176.5410  144.4510 O   0  0  0  0  0  0  0  0  0  0  0  0
  189.6340  177.7620  144.5830 C   0  0  2  0  0  3  0  0  0  0  0  0
  189.0420  176.9950  142.1280 O   0  0  0  0  0  0  0  0  0  0  0  0
  191.6170  178.9200  143.9060 O   0  0  0  0  0  1  0  0  0  0  0  0
  188.2450  176.5620  143.2320 C   0  0  2  0  0  3  0  0  0  0  0  0
  191.0880  177.6450  144.1090 C   0  0  2  0  0  3  0  0  0  0  0  0
  190.3720  176.5930  141.9770 C   0  0  0  0  0  0  0  0  0  0  0  0
  186.9690  177.3830  143.3350 C   0  0  0  0  0  1  0  0  0  0  0  0
  189.5360  178.2790  146.0190 C   0  0  0  0  0  2  0  0  0  0  0  0
  187.1650  177.9840  146.6460 F   0  0  0  0  0  0  0  0  0  0  0  0
  188.7340  176.7110  147.5940 O   0  0  0  0  0  0  0  0  0  0  0  0
  188.4570  177.5980  146.8030 C   0  0  0  0  0  0  0  0  0  0  0  0
  188.8380  177.0320  135.4630 C   0  0  0  0  0  2  0  0  0  0  0  0
  185.9210  173.9820  136.4620 C   0  0  2  0  0  3  0  0  0  0  0  0
  185.4760  173.7840  135.1680 F   0  0  0  0  0  0  0  0  0  0  0  0
  186.5300  176.4270  136.5600 C   0  0  0  0  0  0  0  0  0  0  0  0
  188.2540  174.6230  136.2330 C   0  0  0  0  0  0  0  0  0  0  0  0
  187.0740  178.9370  136.6270 C   0  0  0  0  0  1  0  0  0  0  0  0
  185.6190  175.3950  136.8870 C   0  0  0  0  0  0  0  0  0  0  0  0
  183.5550  174.6870  137.8690 F   0  0  0  0  0  0  0  0  0  0  0  0
  185.0170  178.0240  137.6120 C   0  0  0  0  0  3  0  0  0  0  0  0
  187.3610  173.7240  136.5310 N   0  0  0  0  0  0  0  0  0  0  0  0
  184.4270  175.6810  137.5640 C   0  0  0  0  0  0  0  0  0  0  0  0
  182.9830  177.2770  138.5900 F   0  0  0  0  0  0  0  0  0  0  0  0
  186.2070  177.7610  136.9280 C   0  0  0  0  0  0  0  0  0  0  0  0
  184.1320  176.9950  137.9310 C   0  0  0  0  0  0  0  0  0  0  0  0
  187.7670  175.9940  135.7820 C   0  0  2  0  0  3  0  0  0  0  0  0
  189.6040  174.2640  136.3420 O   0  0  0  0  0  0  0  0  0  0  0  0
  190.1610  173.0850  135.7860 C   0  0  2  0  0  3  0  0  0  0  0  0
  192.4280  172.4810  135.0360 C   0  0  0  0  0  2  0  0  0  0  0  0
  191.6060  172.9530  136.2210 C   0  0  1  0  0  3  0  0  0  0  0  0
  191.2860  173.4580  134.8400 C   0  0  2  0  0  3  0  0  0  0  0  0
  1  2  1  0  0  0  0
  2  6  1  0  0  0  0
  3  1  2  0  0  0  0
  4 23  1  1  0  0  0
  5  4  1  0  0  0  0
  6  4  1  0  0  0  0
  7  3  1  6  0  0  0
  7  5  1  0  0  0  0
  9  8  1  1  0  0  0
  9 10  1  0  0  0  0
  9 17  1  0  0  0  0
 11 13  1  0  0  0  0
 11 12  1  0  0  0  0
 13  8  1  0  0  0  0
 14 12  1  1  0  0  0
 14  7  1  0  0  0  0
 14 10  1  0  0  0  0
 15 16  1  0  0  0  0
 15 17  1  0  0  0  0
 15 18  1  1  0  0  0
 17 16  1  6  0  0  0
 19 18  1  0  0  0  0
 19 20  1  0  0  0  0
 20 21  1  0  0  0  0
 21 22  1  0  0  0  0
 23 31  1  0  0  0  0
 24 30  1  0  0  0  0
 25 26  1  0  0  0  0
 26 33  1  1  0  0  0
 27 29  1  0  0  0  0
 29 32  1  1  0  0  0
 29 25  1  0  0  0  0
 30 28  1  6  0  0  0
 30 26  1  0  0  0  0
 31 27  1  0  0  0  0
 31 24  2  0  0  0  0
 33 36  1  0  0  0  0
 34 36  1  0  0  0  0
 36 35  2  0  0  0  0
 37  1  1  0  0  0  0
 38 39  1  6  0  0  0
 38 46  1  0  0  0  0
 38 43  1  0  0  0  0
 40 43  2  0  0  0  0
 40 49  1  0  0  0  0
 41 52  1  0  0  0  0
 41 46  2  0  0  0  0
 42 49  1  0  0  0  0
 43 47  1  0  0  0  0
 45 50  1  0  0  0  0
 47 44  1  0  0  0  0
 47 50  2  0  0  0  0
 49 45  2  0  0  0  0
 50 48  1  0  0  0  0
 51 37  1  1  0  0  0
 51 41  1  0  0  0  0
 51 40  1  0  0  0  0
 53 55  1  0  0  0  0
 53 52  1  1  0  0  0
 55 54  1  6  0  0  0
 56 54  1  6  0  0  0
 56 53  1  0  0  0  0
 56 55  1  0  0  0  0
M  END
>  <MODEL>
9

>  <REMARK>
 VINA RESULT:      -7.1      2.883      8.206
  Name = 
  14 active torsions:
  status: ('A' for Active; 'I' for Inactive)
    1  A    between atoms: O_1  and  C_37
    2  A    between atoms: O_1  and  C_52
    3  A    between atoms: C_3  and  C_53
    4  A    between atoms: C_5  and  C_13
    5  A    between atoms: C_7  and  N_24
    6  A    between atoms: C_7  and  C_49
    7  A    between atoms: C_8  and  O_22
    8  A    between atoms: C_10  and  C_31
    9  A    between atoms: C_13  and  C_49
   10  A    between atoms: C_16  and  C_55
   11  A    between atoms: C_19  and  O_22
   12  A    between atoms: C_31  and  C_34
   13  A    between atoms: C_50  and  C_53
   14  A    between atoms: C_51  and  C_56
                            x       y       z     vdW  Elec       q    Type
                         _______ _______ _______ _____ _____    ______ ____

>  <TORSDO>
F 14

$$$$
