=
 OpenBabel10232410423D

 64 72  0  0  1  0  0  0  0  0999 V2000
  186.7670  178.7810  138.0400 C   0  0  0  0  0  2  0  0  0  0  0  0
  186.6950  178.8510  141.6780 C   0  0  0  0  0  2  0  0  0  0  0  0
  181.3320  179.7980  143.5920 N   0  0  0  0  0  0  0  0  0  0  0  0
  182.3260  178.6840  141.5980 C   0  0  0  0  0  0  0  0  0  0  0  0
  187.9910  177.8230  136.1000 C   0  0  0  0  0  2  0  0  0  0  0  0
  183.5720  178.1740  141.2750 C   0  0  0  0  0  0  0  0  0  0  0  0
  186.9720  173.1630  134.8080 C   0  0  0  0  0  2  0  0  0  0  0  0
  186.2250  175.4580  136.1150 C   0  0  2  0  0  3  0  0  0  0  0  0
  187.2220  175.7020  134.9610 C   0  0  2  0  0  3  0  0  0  0  0  0
  185.8540  176.7690  136.8360 C   0  0  1  0  0  3  0  0  0  0  0  0
  180.0040  180.5660  141.7010 N   0  0  0  0  0  0  0  0  0  0  0  0
  184.3800  178.4280  142.3990 C   0  0  0  0  0  0  0  0  0  0  0  0
  186.7470  174.3740  137.0630 C   0  0  0  0  0  2  0  0  0  0  0  0
  187.7470  174.3960  134.3460 C   0  0  0  0  0  2  0  0  0  0  0  0
  180.3860  179.8620  140.6740 C   0  0  0  0  0  0  0  0  0  0  0  0
  179.9820  180.3080  139.3730 N   0  0  0  0  0  2  0  0  0  0  0  0
  188.4280  176.5300  135.4180 C   0  0  0  0  0  2  0  0  0  0  0  0
  184.8160  176.5900  137.9310 C   0  0  0  0  0  0  0  0  0  0  0  0
  185.9570  178.4430  139.2450 C   0  0  1  0  0  3  0  0  0  0  0  0
  180.2660  180.3630  143.1040 C   0  0  0  0  0  3  0  0  0  0  0  0
  186.9790  173.0400  136.3380 C   0  0  1  0  0  3  0  0  0  0  0  0
  187.1210  177.4990  137.3050 C   0  0  2  0  0  3  0  0  0  0  0  0
  182.4180  179.2380  142.8480 C   0  0  0  0  0  0  0  0  0  0  0  0
  183.7520  175.8250  137.6770 C   0  0  0  0  0  2  0  0  0  0  0  0
  184.8390  177.4730  139.1360 C   0  0  0  0  0  0  0  0  0  0  0  0
  181.0630  178.5350  140.8350 C   0  0  0  0  0  2  0  0  0  0  0  0
  183.6570  179.0730  143.3430 N   0  0  0  0  0  0  0  0  0  0  0  0
  185.8260  178.0590  142.5930 C   0  0  0  0  0  2  0  0  0  0  0  0
  186.4250  178.7170  140.4200 C   0  0  0  0  0  2  0  0  0  0  0  0
  185.9210  172.0410  136.7610 C   0  0  0  0  0  1  0  0  0  0  0  0
  183.8310  177.3870  140.0380 C   0  0  0  0  0  3  0  0  0  0  0  0
  181.4160  178.9510  135.6180 C   0  0  0  0  0  0  0  0  0  0  0  0
  180.3620  178.5230  137.7590 C   0  0  0  0  0  3  0  0  0  0  0  0
  181.9010  178.5280  134.3460 N   0  0  0  0  0  1  0  0  0  0  0  0
  181.0690  180.7610  137.1940 C   0  0  0  0  0  3  0  0  0  0  0  0
  181.5290  180.3030  135.9590 C   0  0  0  0  0  3  0  0  0  0  0  0
  180.8210  178.0420  136.5230 C   0  0  0  0  0  0  0  0  0  0  0  0
  180.4950  179.8700  138.1080 C   0  0  0  0  0  0  0  0  0  0  0  0
  180.6540  176.6000  136.2300 C   0  0  0  0  0  0  0  0  0  0  0  0
  180.7020  176.1640  135.0480 O   0  0  0  0  0  0  0  0  0  0  0  0
  180.4560  175.6990  137.2700 O   0  0  0  0  0  1  0  0  0  0  0  0
  184.1310  179.5430  144.6370 C   0  0  0  0  0  2  0  0  0  0  0  0
  183.5900  178.6480  145.7420 C   0  0  0  0  0  2  0  0  0  0  0  0
  184.7100  178.1860  146.6560 C   0  0  0  0  0  2  0  0  0  0  0  0
  186.0270  178.8380  146.2680 C   0  0  0  0  0  2  0  0  0  0  0  0
  187.0260  177.7800  145.8350 C   0  0  0  0  0  2  0  0  0  0  0  0
  188.4340  178.2130  146.2100 C   0  0  0  0  0  2  0  0  0  0  0  0
  189.4690  177.5230  145.3310 C   0  0  1  0  0  3  0  0  0  0  0  0
  189.6140  178.2790  144.0400 C   0  0  0  0  0  3  0  0  0  0  0  0
  190.0830  177.7500  142.8990 C   0  0  0  0  0  0  0  0  0  0  0  0
  191.9430  176.0450  143.3810 C   0  0  0  0  0  2  0  0  0  0  0  0
  189.6570  175.2960  142.9880 O   0  0  0  0  0  1  0  0  0  0  0  0
  191.7200  176.0220  141.8720 C   0  0  0  0  0  2  0  0  0  0  0  0
  190.5720  176.3310  142.8090 C   0  0  0  0  0  0  0  0  0  0  0  0
  189.3920  178.1920  140.6750 O   0  0  0  0  0  1  0  0  0  0  0  0
  190.2210  178.6390  141.7030 C   0  0  0  0  0  2  0  0  0  0  0  0
  190.6960  177.4990  145.9980 O   0  0  0  0  0  0  0  0  0  0  0  0
  190.5880  176.4640  146.9300 C   0  0  0  0  0  2  0  0  0  0  0  0
  192.6720  175.7230  148.1090 C   0  0  0  0  0  3  0  0  0  0  0  0
  193.5240  176.9500  150.0140 C   0  0  0  0  0  3  0  0  0  0  0  0
  192.4670  177.8600  149.9030 C   0  0  0  0  0  3  0  0  0  0  0  0
  191.5120  177.7020  148.8940 C   0  0  0  0  0  3  0  0  0  0  0  0
  193.6260  175.8820  149.1170 C   0  0  0  0  0  3  0  0  0  0  0  0
  191.6130  176.6330  147.9970 C   0  0  0  0  0  0  0  0  0  0  0  0
  2 28  1  0  0  0  0
  4 23  2  0  0  0  0
  6  4  1  0  0  0  0
  6 12  2  0  0  0  0
  7 21  1  0  0  0  0
  8 10  1  0  0  0  0
  8 13  1  1  0  0  0
  9 14  1  1  0  0  0
  9 17  1  0  0  0  0
  9  8  1  0  0  0  0
 10 22  1  0  0  0  0
 10 18  1  1  0  0  0
 11 20  1  0  0  0  0
 12 28  1  0  0  0  0
 12 27  1  0  0  0  0
 14  7  1  0  0  0  0
 15 26  1  0  0  0  0
 15 11  2  0  0  0  0
 16 15  1  0  0  0  0
 17  5  1  0  0  0  0
 18 25  1  0  0  0  0
 19  1  1  6  0  0  0
 19 29  1  0  0  0  0
 20  3  2  0  0  0  0
 21 30  1  6  0  0  0
 21 13  1  0  0  0  0
 22  5  1  6  0  0  0
 22  1  1  0  0  0  0
 23 27  1  0  0  0  0
 23  3  1  0  0  0  0
 24 18  2  0  0  0  0
 25 19  1  0  0  0  0
 25 31  2  0  0  0  0
 26  4  1  0  0  0  0
 27 42  1  0  0  0  0
 29  2  1  0  0  0  0
 31  6  1  0  0  0  0
 32 36  2  0  0  0  0
 32 37  1  0  0  0  0
 33 38  1  0  0  0  0
 34 32  1  0  0  0  0
 35 38  2  0  0  0  0
 36 35  1  0  0  0  0
 37 33  2  0  0  0  0
 38 16  1  0  0  0  0
 39 37  1  0  0  0  0
 39 41  1  0  0  0  0
 40 39  2  0  0  0  0
 42 43  1  0  0  0  0
 43 44  1  0  0  0  0
 45 44  1  0  0  0  0
 46 47  1  0  0  0  0
 46 45  1  0  0  0  0
 48 49  1  6  0  0  0
 48 57  1  0  0  0  0
 48 47  1  0  0  0  0
 50 49  2  0  0  0  0
 53 54  1  0  0  0  0
 53 51  1  0  0  0  0
 54 50  1  0  0  0  0
 54 52  1  0  0  0  0
 54 51  1  0  0  0  0
 55 56  1  0  0  0  0
 56 50  1  0  0  0  0
 57 58  1  0  0  0  0
 58 64  1  0  0  0  0
 59 63  1  0  0  0  0
 61 60  1  0  0  0  0
 62 61  2  0  0  0  0
 63 60  2  0  0  0  0
 64 59  2  0  0  0  0
 64 62  1  0  0  0  0
M  END
>  <MODEL>
1

>  <REMARK>
 VINA RESULT:      -4.6      0.000      0.000
  Name = 
  15 active torsions:
  status: ('A' for Active; 'I' for Inactive)
    1  A    between atoms: C_4  and  C_20
    2  A    between atoms: C_4  and  C_25
    3  A    between atoms: C_4  and  O_33
    4  A    between atoms: C_10  and  C_25
    5  A    between atoms: C_10  and  C_50
    6  A    between atoms: C_14  and  C_38
    7  A    between atoms: C_14  and  C_53
    8  A    between atoms: N_32  and  C_60
    9  A    between atoms: O_33  and  C_51
   10  A    between atoms: C_34  and  C_51
   11  A    between atoms: C_36  and  C_43
   12  A    between atoms: C_36  and  C_62
   13  A    between atoms: C_38  and  C_50
   14  A    between atoms: C_39  and  C_57
   15  A    between atoms: C_53  and  N_56
                            x       y       z     vdW  Elec       q    Type
                         _______ _______ _______ _____ _____    ______ ____

>  <TORSDO>
F 15

$$$$
=
 OpenBabel10232410423D

 64 72  0  0  1  0  0  0  0  0999 V2000
  185.2170  177.9770  139.3190 C   0  0  0  0  0  2  0  0  0  0  0  0
  188.5550  178.5940  138.0060 C   0  0  0  0  0  2  0  0  0  0  0  0
  190.4060  174.0690  134.9360 N   0  0  0  0  0  0  0  0  0  0  0  0
  188.1860  175.0920  135.4120 C   0  0  0  0  0  0  0  0  0  0  0  0
  183.1220  179.1150  140.0210 C   0  0  0  0  0  2  0  0  0  0  0  0
  187.7480  176.3240  135.8680 C   0  0  0  0  0  0  0  0  0  0  0  0
  179.9820  180.5460  136.4830 C   0  0  0  0  0  2  0  0  0  0  0  0
  182.0740  178.9500  137.2670 C   0  0  2  0  0  3  0  0  0  0  0  0
  181.1750  179.4080  138.4370 C   0  0  2  0  0  3  0  0  0  0  0  0
  183.2480  178.0800  137.7560 C   0  0  1  0  0  3  0  0  0  0  0  0
  188.9290  172.1960  135.4280 N   0  0  0  0  0  0  0  0  0  0  0  0
  188.9180  177.0690  136.1080 C   0  0  0  0  0  0  0  0  0  0  0  0
  182.5210  180.1490  136.4240 C   0  0  0  0  0  2  0  0  0  0  0  0
  180.1080  180.4220  138.0010 C   0  0  0  0  0  2  0  0  0  0  0  0
  187.7260  172.6870  135.5040 C   0  0  0  0  0  0  0  0  0  0  0  0
  186.7030  171.8610  136.0730 N   0  0  0  0  0  2  0  0  0  0  0  0
  181.9940  180.0370  139.5690 C   0  0  0  0  0  2  0  0  0  0  0  0
  184.1190  177.5420  136.6320 C   0  0  0  0  0  0  0  0  0  0  0  0
  186.1340  177.7320  138.1690 C   0  0  1  0  0  3  0  0  0  0  0  0
  190.1380  172.7950  134.9190 C   0  0  0  0  0  3  0  0  0  0  0  0
  181.3250  180.9170  135.8400 C   0  0  1  0  0  3  0  0  0  0  0  0
  184.0410  178.8140  138.8470 C   0  0  2  0  0  3  0  0  0  0  0  0
  189.5560  175.1140  135.4170 C   0  0  0  0  0  0  0  0  0  0  0  0
  183.5170  177.0350  135.5530 C   0  0  0  0  0  2  0  0  0  0  0  0
  185.5780  177.3200  136.8550 C   0  0  0  0  0  0  0  0  0  0  0  0
  187.3640  173.9900  134.8570 C   0  0  0  0  0  2  0  0  0  0  0  0
  190.0030  176.3140  135.8250 N   0  0  0  0  0  0  0  0  0  0  0  0
  189.0180  178.4900  136.5940 C   0  0  0  0  0  2  0  0  0  0  0  0
  187.3400  178.1980  138.2100 C   0  0  0  0  0  2  0  0  0  0  0  0
  181.2460  180.6740  134.3460 C   0  0  0  0  0  1  0  0  0  0  0  0
  186.3120  176.7180  135.8870 C   0  0  0  0  0  3  0  0  0  0  0  0
  182.8160  172.9680  137.3640 C   0  0  0  0  0  0  0  0  0  0  0  0
  184.2900  171.5220  136.0920 C   0  0  0  0  0  3  0  0  0  0  0  0
  181.5240  173.3610  137.8210 N   0  0  0  0  0  1  0  0  0  0  0  0
  185.2100  173.3520  137.3710 C   0  0  0  0  0  3  0  0  0  0  0  0
  183.9270  173.7000  137.7940 C   0  0  0  0  0  3  0  0  0  0  0  0
  182.9910  171.8580  136.5050 C   0  0  0  0  0  0  0  0  0  0  0  0
  185.3980  172.2680  136.5050 C   0  0  0  0  0  0  0  0  0  0  0  0
  181.8670  171.0270  136.0160 C   0  0  0  0  0  0  0  0  0  0  0  0
  182.0420  169.8260  135.6750 O   0  0  0  0  0  0  0  0  0  0  0  0
  180.5880  171.5650  135.9410 O   0  0  0  0  0  1  0  0  0  0  0  0
  191.4000  176.7010  135.9710 C   0  0  0  0  0  2  0  0  0  0  0  0
  191.9340  176.2130  137.3090 C   0  0  0  0  0  2  0  0  0  0  0  0
  190.7960  175.8250  138.2340 C   0  0  0  0  0  2  0  0  0  0  0  0
  191.0420  176.3480  139.6400 C   0  0  0  0  0  2  0  0  0  0  0  0
  189.8910  177.2370  140.0760 C   0  0  0  0  0  2  0  0  0  0  0  0
  189.4590  176.8710  141.4870 C   0  0  0  0  0  2  0  0  0  0  0  0
  189.1640  178.1190  142.3080 C   0  0  1  0  0  3  0  0  0  0  0  0
  187.7160  178.4890  142.1540 C   0  0  0  0  0  3  0  0  0  0  0  0
  186.7480  178.1470  143.0190 C   0  0  0  0  0  0  0  0  0  0  0  0
  186.0270  177.4040  145.3700 C   0  0  0  0  0  2  0  0  0  0  0  0
  187.5170  176.0070  144.0400 O   0  0  0  0  0  1  0  0  0  0  0  0
  187.4370  177.9700  145.5120 C   0  0  0  0  0  2  0  0  0  0  0  0
  187.0110  177.2920  144.2280 C   0  0  0  0  0  0  0  0  0  0  0  0
  185.1400  179.8880  143.0150 O   0  0  0  0  0  1  0  0  0  0  0  0
  185.3390  178.5430  142.7080 C   0  0  0  0  0  2  0  0  0  0  0  0
  189.4380  177.8600  143.6530 O   0  0  0  0  0  0  0  0  0  0  0  0
  190.5170  176.9720  143.6440 C   0  0  0  0  0  2  0  0  0  0  0  0
  190.2330  177.2130  146.1220 C   0  0  0  0  0  3  0  0  0  0  0  0
  191.7440  176.1100  147.6590 C   0  0  0  0  0  3  0  0  0  0  0  0
  192.4470  175.5650  146.5780 C   0  0  0  0  0  3  0  0  0  0  0  0
  192.0430  175.8450  145.2700 C   0  0  0  0  0  3  0  0  0  0  0  0
  190.6370  176.9330  147.4310 C   0  0  0  0  0  3  0  0  0  0  0  0
  190.9370  176.6700  145.0400 C   0  0  0  0  0  0  0  0  0  0  0  0
  2 29  1  0  0  0  0
  3 23  1  0  0  0  0
  4 23  2  0  0  0  0
  4  6  1  0  0  0  0
  6 31  1  0  0  0  0
  6 12  2  0  0  0  0
  7 14  1  0  0  0  0
  8 13  1  1  0  0  0
  8 10  1  0  0  0  0
  8  9  1  0  0  0  0
  9 14  1  6  0  0  0
  9 17  1  0  0  0  0
 10 18  1  6  0  0  0
 10 22  1  0  0  0  0
 11 15  2  0  0  0  0
 12 28  1  0  0  0  0
 15 16  1  0  0  0  0
 16 38  1  0  0  0  0
 17  5  1  0  0  0  0
 18 25  1  0  0  0  0
 19 29  1  6  0  0  0
 19  1  1  0  0  0  0
 20  3  2  0  0  0  0
 20 11  1  0  0  0  0
 21 30  1  6  0  0  0
 21 13  1  0  0  0  0
 21  7  1  0  0  0  0
 22  1  1  1  0  0  0
 22  5  1  0  0  0  0
 23 27  1  0  0  0  0
 24 18  2  0  0  0  0
 25 19  1  0  0  0  0
 26  4  1  0  0  0  0
 26 15  1  0  0  0  0
 27 42  1  0  0  0  0
 27 12  1  0  0  0  0
 28  2  1  0  0  0  0
 31 25  2  0  0  0  0
 32 36  1  0  0  0  0
 32 34  1  0  0  0  0
 33 38  2  0  0  0  0
 33 37  1  0  0  0  0
 35 36  2  0  0  0  0
 37 32  2  0  0  0  0
 38 35  1  0  0  0  0
 39 37  1  0  0  0  0
 40 39  2  0  0  0  0
 41 39  1  0  0  0  0
 42 43  1  0  0  0  0
 43 44  1  0  0  0  0
 44 45  1  0  0  0  0
 45 46  1  0  0  0  0
 46 47  1  0  0  0  0
 48 47  1  6  0  0  0
 48 57  1  0  0  0  0
 49 48  1  0  0  0  0
 49 50  2  0  0  0  0
 50 54  1  0  0  0  0
 51 53  1  0  0  0  0
 52 54  1  0  0  0  0
 54 51  1  0  0  0  0
 54 53  1  0  0  0  0
 56 55  1  0  0  0  0
 56 50  1  0  0  0  0
 58 57  1  0  0  0  0
 58 64  1  0  0  0  0
 59 63  1  0  0  0  0
 61 60  1  0  0  0  0
 62 61  2  0  0  0  0
 63 60  2  0  0  0  0
 64 62  1  0  0  0  0
 64 59  2  0  0  0  0
M  END
>  <MODEL>
2

>  <REMARK>
 VINA RESULT:      -4.5      3.170      7.384
  Name = 
  15 active torsions:
  status: ('A' for Active; 'I' for Inactive)
    1  A    between atoms: C_4  and  C_20
    2  A    between atoms: C_4  and  C_25
    3  A    between atoms: C_4  and  O_33
    4  A    between atoms: C_10  and  C_25
    5  A    between atoms: C_10  and  C_50
    6  A    between atoms: C_14  and  C_38
    7  A    between atoms: C_14  and  C_53
    8  A    between atoms: N_32  and  C_60
    9  A    between atoms: O_33  and  C_51
   10  A    between atoms: C_34  and  C_51
   11  A    between atoms: C_36  and  C_43
   12  A    between atoms: C_36  and  C_62
   13  A    between atoms: C_38  and  C_50
   14  A    between atoms: C_39  and  C_57
   15  A    between atoms: C_53  and  N_56
                            x       y       z     vdW  Elec       q    Type
                         _______ _______ _______ _____ _____    ______ ____

>  <TORSDO>
F 15

$$$$
=
 OpenBabel10232410423D

 64 72  0  0  1  0  0  0  0  0999 V2000
  185.1070  178.1140  135.2490 C   0  0  0  0  0  2  0  0  0  0  0  0
  188.4290  176.9270  134.3540 C   0  0  0  0  0  2  0  0  0  0  0  0
  191.8310  176.6870  139.0110 N   0  0  0  0  0  0  0  0  0  0  0  0
  189.3910  176.4160  138.5890 C   0  0  0  0  0  0  0  0  0  0  0  0
  182.7130  177.9900  134.5890 C   0  0  0  0  0  2  0  0  0  0  0  0
  188.6080  176.1590  137.4770 C   0  0  0  0  0  0  0  0  0  0  0  0
  180.1570  173.9840  135.9460 C   0  0  0  0  0  2  0  0  0  0  0  0
  182.3330  175.6180  136.3050 C   0  0  2  0  0  3  0  0  0  0  0  0
  181.1290  176.3290  135.6470 C   0  0  2  0  0  3  0  0  0  0  0  0
  183.5390  176.5650  136.4630 C   0  0  1  0  0  3  0  0  0  0  0  0
  190.7300  177.9380  140.7880 N   0  0  0  0  0  0  0  0  0  0  0  0
  189.5090  176.0820  136.3980 C   0  0  0  0  0  0  0  0  0  0  0  0
  182.6740  174.3250  135.5570 C   0  0  0  0  0  2  0  0  0  0  0  0
  179.9820  175.3640  135.3130 C   0  0  0  0  0  2  0  0  0  0  0  0
  189.4600  177.6650  140.6970 C   0  0  0  0  0  0  0  0  0  0  0  0
  188.5470  178.4920  141.4270 N   0  0  0  0  0  2  0  0  0  0  0  0
  181.5330  177.0520  134.3580 C   0  0  0  0  0  2  0  0  0  0  0  0
  184.7230  175.9310  137.1740 C   0  0  0  0  0  0  0  0  0  0  0  0
  186.2760  177.3150  135.7140 C   0  0  1  0  0  3  0  0  0  0  0  0
  191.8580  177.2900  140.1650 C   0  0  0  0  0  3  0  0  0  0  0  0
  181.4900  173.3460  135.5350 C   0  0  1  0  0  3  0  0  0  0  0  0
  183.9030  177.1980  135.1120 C   0  0  2  0  0  3  0  0  0  0  0  0
  190.6910  176.5140  138.1650 C   0  0  0  0  0  0  0  0  0  0  0  0
  184.4890  175.2100  138.2720 C   0  0  0  0  0  2  0  0  0  0  0  0
  186.1150  176.3460  136.8270 C   0  0  0  0  0  0  0  0  0  0  0  0
  188.9670  176.4270  140.0100 C   0  0  0  0  0  2  0  0  0  0  0  0
  190.7680  176.2980  136.8410 N   0  0  0  0  0  0  0  0  0  0  0  0
  189.1910  175.7970  134.9550 C   0  0  0  0  0  2  0  0  0  0  0  0
  187.3150  177.2090  134.9490 C   0  0  0  0  0  2  0  0  0  0  0  0
  181.7840  172.1730  136.4500 C   0  0  0  0  0  1  0  0  0  0  0  0
  187.1500  175.8690  137.5610 C   0  0  0  0  0  3  0  0  0  0  0  0
  184.3310  178.7710  141.0370 C   0  0  0  0  0  0  0  0  0  0  0  0
  186.3300  178.7420  142.4090 C   0  0  0  0  0  3  0  0  0  0  0  0
  182.9190  178.8680  140.8720 N   0  0  0  0  0  1  0  0  0  0  0  0
  186.5140  178.5110  140.0130 C   0  0  0  0  0  3  0  0  0  0  0  0
  185.1270  178.6120  139.8990 C   0  0  0  0  0  3  0  0  0  0  0  0
  184.9340  178.8430  142.3150 C   0  0  0  0  0  0  0  0  0  0  0  0
  187.1230  178.5610  141.2710 C   0  0  0  0  0  0  0  0  0  0  0  0
  184.1610  179.0220  143.5660 C   0  0  0  0  0  0  0  0  0  0  0  0
  184.0350  178.0820  144.3960 O   0  0  0  0  0  1  0  0  0  0  0  0
  183.5710  180.2480  143.8470 O   0  0  0  0  0  0  0  0  0  0  0  0
  191.9830  176.3360  136.0380 C   0  0  0  0  0  2  0  0  0  0  0  0
  191.7690  175.5730  134.7400 C   0  0  0  0  0  2  0  0  0  0  0  0
  193.0220  174.8090  134.3520 C   0  0  0  0  0  2  0  0  0  0  0  0
  192.8630  173.3270  134.6460 C   0  0  0  0  0  2  0  0  0  0  0  0
  194.2040  172.7200  135.0170 C   0  0  0  0  0  2  0  0  0  0  0  0
  194.0070  171.3070  135.5410 C   0  0  0  0  0  2  0  0  0  0  0  0
  195.1460  170.9060  136.4680 C   0  0  1  0  0  3  0  0  0  0  0  0
  195.4620  172.0440  137.3970 C   0  0  0  0  0  3  0  0  0  0  0  0
  196.6050  172.7470  137.3760 C   0  0  0  0  0  0  0  0  0  0  0  0
  198.8930  171.6370  137.0090 C   0  0  0  0  0  2  0  0  0  0  0  0
  197.4330  172.1050  135.1140 O   0  0  0  0  0  1  0  0  0  0  0  0
  199.0670  173.1090  136.6480 C   0  0  0  0  0  2  0  0  0  0  0  0
  197.7340  172.4230  136.4370 C   0  0  0  0  0  0  0  0  0  0  0  0
  195.8650  173.6870  139.4220 O   0  0  0  0  0  1  0  0  0  0  0  0
  196.8020  173.8210  138.3990 C   0  0  0  0  0  2  0  0  0  0  0  0
  194.7610  169.7890  137.2130 O   0  0  0  0  0  0  0  0  0  0  0  0
  195.2420  168.6870  136.5010 C   0  0  0  0  0  2  0  0  0  0  0  0
  197.6070  168.1670  135.8530 C   0  0  0  0  0  3  0  0  0  0  0  0
  199.3370  167.9530  137.5330 C   0  0  0  0  0  3  0  0  0  0  0  0
  198.3990  168.2240  138.5350 C   0  0  0  0  0  3  0  0  0  0  0  0
  197.0650  168.4670  138.1960 C   0  0  0  0  0  3  0  0  0  0  0  0
  198.9410  167.9250  136.1920 C   0  0  0  0  0  3  0  0  0  0  0  0
  196.6670  168.4380  136.8550 C   0  0  0  0  0  0  0  0  0  0  0  0
  1 19  1  0  0  0  0
  2 29  1  0  0  0  0
  2 28  1  0  0  0  0
  3 20  2  0  0  0  0
  4 26  1  0  0  0  0
  6 31  1  0  0  0  0
  6  4  1  0  0  0  0
  8 13  1  6  0  0  0
  8 10  1  0  0  0  0
  9 17  1  6  0  0  0
  9  8  1  0  0  0  0
 10 18  1  6  0  0  0
 12 27  1  0  0  0  0
 12  6  2  0  0  0  0
 14  9  1  0  0  0  0
 14  7  1  0  0  0  0
 15 11  2  0  0  0  0
 15 16  1  0  0  0  0
 17  5  1  0  0  0  0
 18 24  2  0  0  0  0
 19 29  1  6  0  0  0
 19 25  1  0  0  0  0
 20 11  1  0  0  0  0
 21 13  1  0  0  0  0
 21  7  1  0  0  0  0
 21 30  1  1  0  0  0
 22  5  1  1  0  0  0
 22  1  1  0  0  0  0
 22 10  1  0  0  0  0
 23  4  2  0  0  0  0
 23  3  1  0  0  0  0
 25 18  1  0  0  0  0
 25 31  2  0  0  0  0
 26 15  1  0  0  0  0
 27 23  1  0  0  0  0
 28 12  1  0  0  0  0
 32 37  1  0  0  0  0
 34 32  1  0  0  0  0
 35 38  2  0  0  0  0
 36 35  1  0  0  0  0
 36 32  2  0  0  0  0
 37 33  2  0  0  0  0
 37 39  1  0  0  0  0
 38 16  1  0  0  0  0
 38 33  1  0  0  0  0
 39 41  2  0  0  0  0
 39 40  1  0  0  0  0
 42 27  1  0  0  0  0
 43 42  1  0  0  0  0
 44 45  1  0  0  0  0
 44 43  1  0  0  0  0
 45 46  1  0  0  0  0
 46 47  1  0  0  0  0
 48 47  1  6  0  0  0
 48 57  1  0  0  0  0
 48 49  1  0  0  0  0
 50 49  2  0  0  0  0
 50 56  1  0  0  0  0
 52 54  1  0  0  0  0
 53 51  1  0  0  0  0
 54 53  1  0  0  0  0
 54 51  1  0  0  0  0
 54 50  1  0  0  0  0
 56 55  1  0  0  0  0
 58 64  1  0  0  0  0
 58 57  1  0  0  0  0
 59 63  2  0  0  0  0
 59 64  1  0  0  0  0
 60 61  2  0  0  0  0
 62 61  1  0  0  0  0
 63 60  1  0  0  0  0
 64 62  2  0  0  0  0
M  END
>  <MODEL>
3

>  <REMARK>
 VINA RESULT:      -4.1      5.940      9.746
  Name = 
  15 active torsions:
  status: ('A' for Active; 'I' for Inactive)
    1  A    between atoms: C_4  and  C_20
    2  A    between atoms: C_4  and  C_25
    3  A    between atoms: C_4  and  O_33
    4  A    between atoms: C_10  and  C_25
    5  A    between atoms: C_10  and  C_50
    6  A    between atoms: C_14  and  C_38
    7  A    between atoms: C_14  and  C_53
    8  A    between atoms: N_32  and  C_60
    9  A    between atoms: O_33  and  C_51
   10  A    between atoms: C_34  and  C_51
   11  A    between atoms: C_36  and  C_43
   12  A    between atoms: C_36  and  C_62
   13  A    between atoms: C_38  and  C_50
   14  A    between atoms: C_39  and  C_57
   15  A    between atoms: C_53  and  N_56
                            x       y       z     vdW  Elec       q    Type
                         _______ _______ _______ _____ _____    ______ ____

>  <TORSDO>
F 15

$$$$
=
 OpenBabel10232410423D

 64 72  0  0  1  0  0  0  0  0999 V2000
  191.8790  173.0710  137.6620 C   0  0  0  0  0  2  0  0  0  0  0  0
  189.3220  173.4670  135.1030 C   0  0  0  0  0  2  0  0  0  0  0  0
  185.7860  177.8380  136.4140 N   0  0  0  0  0  0  0  0  0  0  0  0
  188.1880  177.3220  136.8270 C   0  0  0  0  0  0  0  0  0  0  0  0
  194.2090  172.2860  138.0300 C   0  0  0  0  0  2  0  0  0  0  0  0
  189.1190  176.4610  136.2720 C   0  0  0  0  0  0  0  0  0  0  0  0
  197.8920  175.3220  136.7530 C   0  0  0  0  0  2  0  0  0  0  0  0
  195.2470  174.9760  137.4010 C   0  0  2  0  0  3  0  0  0  0  0  0
  196.1710  173.8760  137.9700 C   0  0  2  0  0  3  0  0  0  0  0  0
  193.7710  174.7270  137.7670 C   0  0  1  0  0  3  0  0  0  0  0  0
  186.1750  178.4200  138.7470 N   0  0  0  0  0  0  0  0  0  0  0  0
  188.4210  175.7510  135.2770 C   0  0  0  0  0  0  0  0  0  0  0  0
  195.4750  175.1510  135.8960 C   0  0  0  0  0  2  0  0  0  0  0  0
  197.6180  174.0000  137.4680 C   0  0  0  0  0  2  0  0  0  0  0  0
  187.4590  178.3310  138.9390 C   0  0  0  0  0  0  0  0  0  0  0  0
  187.9330  178.3300  140.2910 N   0  0  0  0  0  2  0  0  0  0  0  0
  195.6650  172.4730  137.6200 C   0  0  0  0  0  2  0  0  0  0  0  0
  192.8320  175.8240  137.2940 C   0  0  0  0  0  0  0  0  0  0  0  0
  191.0390  174.0600  136.9280 C   0  0  1  0  0  3  0  0  0  0  0  0
  185.4270  178.4350  137.5140 C   0  0  0  0  0  3  0  0  0  0  0  0
  196.9290  175.5310  135.5760 C   0  0  1  0  0  3  0  0  0  0  0  0
  193.3410  173.3200  137.3290 C   0  0  2  0  0  3  0  0  0  0  0  0
  186.9910  177.0970  136.1990 C   0  0  0  0  0  0  0  0  0  0  0  0
  193.1990  177.0940  137.4760 C   0  0  0  0  0  2  0  0  0  0  0  0
  191.4270  175.4930  136.9110 C   0  0  0  0  0  0  0  0  0  0  0  0
  188.4340  178.4120  137.8030 C   0  0  0  0  0  2  0  0  0  0  0  0
  187.1310  176.1560  135.2500 N   0  0  0  0  0  0  0  0  0  0  0  0
  188.9640  174.7000  134.3470 C   0  0  0  0  0  2  0  0  0  0  0  0
  190.1910  173.6400  136.0450 C   0  0  0  0  0  2  0  0  0  0  0  0
  196.9900  176.9800  135.1350 C   0  0  0  0  0  1  0  0  0  0  0  0
  190.5670  176.4980  136.6180 C   0  0  0  0  0  3  0  0  0  0  0  0
  191.7660  177.2170  141.7310 C   0  0  0  0  0  0  0  0  0  0  0  0
  189.4760  177.9090  142.1290 C   0  0  0  0  0  3  0  0  0  0  0  0
  193.0620  176.8330  142.1820 N   0  0  0  0  0  1  0  0  0  0  0  0
  190.2710  177.6330  139.8660 C   0  0  0  0  0  3  0  0  0  0  0  0
  191.5240  177.2610  140.3540 C   0  0  0  0  0  3  0  0  0  0  0  0
  190.7300  177.5400  142.6390 C   0  0  0  0  0  0  0  0  0  0  0  0
  189.2430  177.9730  140.7520 C   0  0  0  0  0  0  0  0  0  0  0  0
  190.9040  177.5060  144.1100 C   0  0  0  0  0  0  0  0  0  0  0  0
  190.1070  176.8660  144.8470 O   0  0  0  0  0  1  0  0  0  0  0  0
  191.9690  178.1790  144.6980 O   0  0  0  0  0  0  0  0  0  0  0  0
  186.0730  175.6460  134.3890 C   0  0  0  0  0  2  0  0  0  0  0  0
  184.8270  175.3600  135.2140 C   0  0  0  0  0  2  0  0  0  0  0  0
  183.5810  175.4250  134.3490 C   0  0  0  0  0  2  0  0  0  0  0  0
  182.6410  176.5130  134.8410 C   0  0  0  0  0  2  0  0  0  0  0  0
  182.7350  176.6420  136.3510 C   0  0  0  0  0  2  0  0  0  0  0  0
  181.3500  176.5370  136.9680 C   0  0  0  0  0  2  0  0  0  0  0  0
  181.2780  175.3770  137.9520 C   0  0  1  0  0  3  0  0  0  0  0  0
  182.4310  174.4440  137.7130 C   0  0  0  0  0  3  0  0  0  0  0  0
  182.3630  173.3260  136.9730 C   0  0  0  0  0  0  0  0  0  0  0  0
  181.2090  172.0220  135.0850 C   0  0  0  0  0  2  0  0  0  0  0  0
  180.0300  172.4710  137.1700 O   0  0  0  0  0  1  0  0  0  0  0  0
  180.6730  173.4480  135.0110 C   0  0  0  0  0  2  0  0  0  0  0  0
  181.0820  172.8540  136.3410 C   0  0  0  0  0  0  0  0  0  0  0  0
  183.3300  171.2060  137.4090 O   0  0  0  0  0  1  0  0  0  0  0  0
  183.5820  172.4650  136.8650 C   0  0  0  0  0  2  0  0  0  0  0  0
  181.3450  175.8750  139.2550 O   0  0  0  0  0  0  0  0  0  0  0  0
  182.2970  176.8970  139.2110 C   0  0  0  0  0  2  0  0  0  0  0  0
  181.1520  178.1600  141.0480 C   0  0  0  0  0  3  0  0  0  0  0  0
  182.3990  178.9880  142.9500 C   0  0  0  0  0  3  0  0  0  0  0  0
  183.5750  178.4470  142.4170 C   0  0  0  0  0  3  0  0  0  0  0  0
  183.5380  177.7620  141.1990 C   0  0  0  0  0  3  0  0  0  0  0  0
  181.1880  178.8440  142.2660 C   0  0  0  0  0  3  0  0  0  0  0  0
  182.3270  177.6190  140.5130 C   0  0  0  0  0  0  0  0  0  0  0  0
  2 29  1  0  0  0  0
  3 20  2  0  0  0  0
  4 26  1  0  0  0  0
  6 31  1  0  0  0  0
  6  4  1  0  0  0  0
  7 14  1  0  0  0  0
  8 13  1  6  0  0  0
  8 10  1  0  0  0  0
  8  9  1  0  0  0  0
  9 14  1  6  0  0  0
 10 18  1  6  0  0  0
 11 15  2  0  0  0  0
 12  6  2  0  0  0  0
 15 16  1  0  0  0  0
 16 38  1  0  0  0  0
 17  9  1  0  0  0  0
 17  5  1  0  0  0  0
 18 24  2  0  0  0  0
 19 29  1  6  0  0  0
 19  1  1  0  0  0  0
 20 11  1  0  0  0  0
 21 30  1  1  0  0  0
 21 13  1  0  0  0  0
 21  7  1  0  0  0  0
 22  1  1  1  0  0  0
 22 10  1  0  0  0  0
 22  5  1  0  0  0  0
 23  3  1  0  0  0  0
 23  4  2  0  0  0  0
 25 19  1  0  0  0  0
 25 18  1  0  0  0  0
 26 15  1  0  0  0  0
 27 12  1  0  0  0  0
 27 23  1  0  0  0  0
 28  2  1  0  0  0  0
 28 12  1  0  0  0  0
 31 25  2  0  0  0  0
 32 34  1  0  0  0  0
 32 37  1  0  0  0  0
 33 37  2  0  0  0  0
 35 36  1  0  0  0  0
 35 38  2  0  0  0  0
 36 32  2  0  0  0  0
 37 39  1  0  0  0  0
 38 33  1  0  0  0  0
 39 41  2  0  0  0  0
 39 40  1  0  0  0  0
 42 43  1  0  0  0  0
 42 27  1  0  0  0  0
 44 45  1  0  0  0  0
 44 43  1  0  0  0  0
 45 46  1  0  0  0  0
 46 47  1  0  0  0  0
 48 47  1  6  0  0  0
 48 57  1  0  0  0  0
 49 48  1  0  0  0  0
 50 49  2  0  0  0  0
 51 54  1  0  0  0  0
 53 51  1  0  0  0  0
 53 54  1  0  0  0  0
 54 50  1  0  0  0  0
 54 52  1  0  0  0  0
 56 50  1  0  0  0  0
 56 55  1  0  0  0  0
 58 57  1  0  0  0  0
 58 64  1  0  0  0  0
 59 63  1  0  0  0  0
 61 60  1  0  0  0  0
 62 61  2  0  0  0  0
 63 60  2  0  0  0  0
 64 59  2  0  0  0  0
 64 62  1  0  0  0  0
M  END
>  <MODEL>
4

>  <REMARK>
 VINA RESULT:      -3.8      4.004     10.479
  Name = 
  15 active torsions:
  status: ('A' for Active; 'I' for Inactive)
    1  A    between atoms: C_4  and  C_20
    2  A    between atoms: C_4  and  C_25
    3  A    between atoms: C_4  and  O_33
    4  A    between atoms: C_10  and  C_25
    5  A    between atoms: C_10  and  C_50
    6  A    between atoms: C_14  and  C_38
    7  A    between atoms: C_14  and  C_53
    8  A    between atoms: N_32  and  C_60
    9  A    between atoms: O_33  and  C_51
   10  A    between atoms: C_34  and  C_51
   11  A    between atoms: C_36  and  C_43
   12  A    between atoms: C_36  and  C_62
   13  A    between atoms: C_38  and  C_50
   14  A    between atoms: C_39  and  C_57
   15  A    between atoms: C_53  and  N_56
                            x       y       z     vdW  Elec       q    Type
                         _______ _______ _______ _____ _____    ______ ____

>  <TORSDO>
F 15

$$$$
=
 OpenBabel10232410423D

 64 72  0  0  1  0  0  0  0  0999 V2000
  192.4350  172.9590  137.7320 C   0  0  0  0  0  2  0  0  0  0  0  0
  189.6990  172.8760  135.3330 C   0  0  0  0  0  2  0  0  0  0  0  0
  185.9160  177.1020  136.4060 N   0  0  0  0  0  0  0  0  0  0  0  0
  188.3720  176.8110  136.7030 C   0  0  0  0  0  0  0  0  0  0  0  0
  194.8380  172.3910  138.0180 C   0  0  0  0  0  2  0  0  0  0  0  0
  189.3320  175.9610  136.1800 C   0  0  0  0  0  0  0  0  0  0  0  0
  198.1810  175.5200  136.1590 C   0  0  0  0  0  2  0  0  0  0  0  0
  195.6180  175.0600  137.0270 C   0  0  2  0  0  3  0  0  0  0  0  0
  196.6600  174.1010  137.6460 C   0  0  2  0  0  3  0  0  0  0  0  0
  194.1920  174.7480  137.5220 C   0  0  1  0  0  3  0  0  0  0  0  0
  186.4020  177.9720  138.6290 N   0  0  0  0  0  0  0  0  0  0  0  0
  188.6320  175.0940  135.3210 C   0  0  0  0  0  0  0  0  0  0  0  0
  195.7370  175.0780  135.5000 C   0  0  0  0  0  2  0  0  0  0  0  0
  198.0580  174.2710  137.0320 C   0  0  0  0  0  2  0  0  0  0  0  0
  187.6990  177.9980  138.7380 C   0  0  0  0  0  0  0  0  0  0  0  0
  188.2540  178.1860  140.0460 N   0  0  0  0  0  2  0  0  0  0  0  0
  196.2460  172.6340  137.4870 C   0  0  0  0  0  2  0  0  0  0  0  0
  193.1410  175.7140  137.0000 C   0  0  0  0  0  0  0  0  0  0  0  0
  191.4740  173.7950  136.9560 C   0  0  1  0  0  3  0  0  0  0  0  0
  185.5800  177.7930  137.4580 C   0  0  0  0  0  3  0  0  0  0  0  0
  197.1330  175.5230  135.0390 C   0  0  1  0  0  3  0  0  0  0  0  0
  193.8480  173.2730  137.2710 C   0  0  2  0  0  3  0  0  0  0  0  0
  187.1600  176.4300  136.1890 C   0  0  0  0  0  0  0  0  0  0  0  0
  193.4170  177.0190  137.0160 C   0  0  0  0  0  2  0  0  0  0  0  0
  191.7450  175.2410  136.7560 C   0  0  0  0  0  0  0  0  0  0  0  0
  188.5910  178.0200  137.5340 C   0  0  0  0  0  2  0  0  0  0  0  0
  187.3150  175.3990  135.3400 N   0  0  0  0  0  0  0  0  0  0  0  0
  189.1990  173.9850  134.4740 C   0  0  0  0  0  2  0  0  0  0  0  0
  190.6090  173.2170  136.1860 C   0  0  0  0  0  2  0  0  0  0  0  0
  197.0510  176.9130  134.4390 C   0  0  0  0  0  1  0  0  0  0  0  0
  190.7910  176.1420  136.4170 C   0  0  0  0  0  3  0  0  0  0  0  0
  192.2450  177.5310  141.3260 C   0  0  0  0  0  0  0  0  0  0  0  0
  189.9560  178.1830  141.7890 C   0  0  0  0  0  3  0  0  0  0  0  0
  193.5930  177.2950  141.7270 N   0  0  0  0  0  1  0  0  0  0  0  0
  190.5900  177.5250  139.5540 C   0  0  0  0  0  3  0  0  0  0  0  0
  191.8970  177.3060  139.9910 C   0  0  0  0  0  3  0  0  0  0  0  0
  191.2660  177.9710  142.2470 C   0  0  0  0  0  0  0  0  0  0  0  0
  189.6150  177.9790  140.4490 C   0  0  0  0  0  0  0  0  0  0  0  0
  191.5530  178.2190  143.6790 C   0  0  0  0  0  0  0  0  0  0  0  0
  191.9830  179.3360  144.0750 O   0  0  0  0  0  0  0  0  0  0  0  0
  191.3360  177.2140  144.6140 O   0  0  0  0  0  1  0  0  0  0  0  0
  186.2490  174.7200  134.6170 C   0  0  0  0  0  2  0  0  0  0  0  0
  185.1400  174.3250  135.5810 C   0  0  0  0  0  2  0  0  0  0  0  0
  183.8150  174.1930  134.8520 C   0  0  0  0  0  2  0  0  0  0  0  0
  183.2160  175.5620  134.5720 C   0  0  0  0  0  2  0  0  0  0  0  0
  182.8250  176.2380  135.8740 C   0  0  0  0  0  2  0  0  0  0  0  0
  181.3280  176.4980  135.8950 C   0  0  0  0  0  2  0  0  0  0  0  0
  180.9650  177.5130  136.9690 C   0  0  1  0  0  3  0  0  0  0  0  0
  180.4060  178.7490  136.3230 C   0  0  0  0  0  3  0  0  0  0  0  0
  180.6880  180.0040  136.7110 C   0  0  0  0  0  0  0  0  0  0  0  0
  180.8850  180.8300  139.1360 C   0  0  0  0  0  2  0  0  0  0  0  0
  182.6470  179.4610  138.1540 O   0  0  0  0  0  1  0  0  0  0  0  0
  181.7680  181.7480  138.2960 C   0  0  0  0  0  2  0  0  0  0  0  0
  181.5680  180.3030  137.8930 C   0  0  0  0  0  0  0  0  0  0  0  0
  180.5280  181.2720  134.7160 O   0  0  0  0  0  1  0  0  0  0  0  0
  180.0150  181.1380  136.0050 C   0  0  0  0  0  2  0  0  0  0  0  0
  180.0070  176.9590  137.8220 O   0  0  0  0  0  0  0  0  0  0  0  0
  180.7290  176.1790  138.7290 C   0  0  0  0  0  2  0  0  0  0  0  0
  182.6160  177.1250  140.0800 C   0  0  0  0  0  3  0  0  0  0  0  0
  182.1870  178.6240  141.9330 C   0  0  0  0  0  3  0  0  0  0  0  0
  180.8120  178.5330  141.6900 C   0  0  0  0  0  3  0  0  0  0  0  0
  180.3390  177.7380  140.6420 C   0  0  0  0  0  3  0  0  0  0  0  0
  183.0890  177.9200  141.1280 C   0  0  0  0  0  3  0  0  0  0  0  0
  181.2400  177.0320  139.8370 C   0  0  0  0  0  0  0  0  0  0  0  0
  2 29  1  0  0  0  0
  3 20  2  0  0  0  0
  4 26  1  0  0  0  0
  6 31  1  0  0  0  0
  6  4  1  0  0  0  0
  7 14  1  0  0  0  0
  8 13  1  6  0  0  0
  8 10  1  0  0  0  0
  8  9  1  0  0  0  0
  9 14  1  6  0  0  0
 10 18  1  6  0  0  0
 11 15  2  0  0  0  0
 12 27  1  0  0  0  0
 12  6  2  0  0  0  0
 15 16  1  0  0  0  0
 16 38  1  0  0  0  0
 17  9  1  0  0  0  0
 17  5  1  0  0  0  0
 18 24  2  0  0  0  0
 19 29  1  6  0  0  0
 19  1  1  0  0  0  0
 20 11  1  0  0  0  0
 21 30  1  1  0  0  0
 21 13  1  0  0  0  0
 21  7  1  0  0  0  0
 22 10  1  0  0  0  0
 22  1  1  1  0  0  0
 22  5  1  0  0  0  0
 23  3  1  0  0  0  0
 23  4  2  0  0  0  0
 25 19  1  0  0  0  0
 25 18  1  0  0  0  0
 26 15  1  0  0  0  0
 27 23  1  0  0  0  0
 28 12  1  0  0  0  0
 28  2  1  0  0  0  0
 31 25  2  0  0  0  0
 32 34  1  0  0  0  0
 32 37  1  0  0  0  0
 33 37  2  0  0  0  0
 35 36  1  0  0  0  0
 35 38  2  0  0  0  0
 36 32  2  0  0  0  0
 37 39  1  0  0  0  0
 38 33  1  0  0  0  0
 39 40  2  0  0  0  0
 39 41  1  0  0  0  0
 42 27  1  0  0  0  0
 42 43  1  0  0  0  0
 44 43  1  0  0  0  0
 45 44  1  0  0  0  0
 45 46  1  0  0  0  0
 46 47  1  0  0  0  0
 48 47  1  6  0  0  0
 48 57  1  0  0  0  0
 49 50  2  0  0  0  0
 49 48  1  0  0  0  0
 50 54  1  0  0  0  0
 53 51  1  0  0  0  0
 54 52  1  0  0  0  0
 54 53  1  0  0  0  0
 54 51  1  0  0  0  0
 55 56  1  0  0  0  0
 56 50  1  0  0  0  0
 57 58  1  0  0  0  0
 58 64  1  0  0  0  0
 59 63  1  0  0  0  0
 61 60  1  0  0  0  0
 62 61  2  0  0  0  0
 63 60  2  0  0  0  0
 64 59  2  0  0  0  0
 64 62  1  0  0  0  0
M  END
>  <MODEL>
5

>  <REMARK>
 VINA RESULT:      -3.7      4.151     10.838
  Name = 
  15 active torsions:
  status: ('A' for Active; 'I' for Inactive)
    1  A    between atoms: C_4  and  C_20
    2  A    between atoms: C_4  and  C_25
    3  A    between atoms: C_4  and  O_33
    4  A    between atoms: C_10  and  C_25
    5  A    between atoms: C_10  and  C_50
    6  A    between atoms: C_14  and  C_38
    7  A    between atoms: C_14  and  C_53
    8  A    between atoms: N_32  and  C_60
    9  A    between atoms: O_33  and  C_51
   10  A    between atoms: C_34  and  C_51
   11  A    between atoms: C_36  and  C_43
   12  A    between atoms: C_36  and  C_62
   13  A    between atoms: C_38  and  C_50
   14  A    between atoms: C_39  and  C_57
   15  A    between atoms: C_53  and  N_56
                            x       y       z     vdW  Elec       q    Type
                         _______ _______ _______ _____ _____    ______ ____

>  <TORSDO>
F 15

$$$$
=
 OpenBabel10232410423D

 64 72  0  0  1  0  0  0  0  0999 V2000
  192.7110  172.7350  137.7390 C   0  0  0  0  0  2  0  0  0  0  0  0
  190.0690  172.6630  135.2370 C   0  0  0  0  0  2  0  0  0  0  0  0
  186.3020  176.9450  136.1280 N   0  0  0  0  0  0  0  0  0  0  0  0
  188.7410  176.6270  136.5210 C   0  0  0  0  0  0  0  0  0  0  0  0
  195.0940  172.1390  138.1230 C   0  0  0  0  0  2  0  0  0  0  0  0
  189.7090  175.7610  136.0430 C   0  0  0  0  0  0  0  0  0  0  0  0
  198.5460  175.2100  136.3690 C   0  0  0  0  0  2  0  0  0  0  0  0
  195.9450  174.7890  137.1410 C   0  0  2  0  0  3  0  0  0  0  0  0
  196.9510  173.8230  137.8080 C   0  0  2  0  0  3  0  0  0  0  0  0
  194.4980  174.5000  137.5830 C   0  0  1  0  0  3  0  0  0  0  0  0
  186.7120  177.8290  138.3600 N   0  0  0  0  0  0  0  0  0  0  0  0
  189.0320  174.8940  135.1650 C   0  0  0  0  0  0  0  0  0  0  0  0
  196.1240  174.7930  135.6190 C   0  0  0  0  0  2  0  0  0  0  0  0
  198.3730  173.9710  137.2470 C   0  0  0  0  0  2  0  0  0  0  0  0
  188.0040  177.8400  138.5190 C   0  0  0  0  0  0  0  0  0  0  0  0
  188.5110  178.0330  139.8460 N   0  0  0  0  0  2  0  0  0  0  0  0
  196.5250  172.3600  137.6450 C   0  0  0  0  0  2  0  0  0  0  0  0
  193.4800  175.4730  137.0120 C   0  0  0  0  0  0  0  0  0  0  0  0
  191.7920  173.5750  136.9200 C   0  0  1  0  0  3  0  0  0  0  0  0
  185.9340  177.6490  137.1590 C   0  0  0  0  0  3  0  0  0  0  0  0
  197.5420  175.2160  135.2080 C   0  0  1  0  0  3  0  0  0  0  0  0
  194.1450  173.0270  137.3310 C   0  0  2  0  0  3  0  0  0  0  0  0
  187.5450  176.2560  135.9640 C   0  0  0  0  0  0  0  0  0  0  0  0
  193.7710  176.7760  137.0280 C   0  0  0  0  0  2  0  0  0  0  0  0
  192.0890  175.0160  136.7180 C   0  0  0  0  0  0  0  0  0  0  0  0
  188.9430  177.8400  137.3500 C   0  0  0  0  0  2  0  0  0  0  0  0
  187.7190  175.2160  135.1310 N   0  0  0  0  0  0  0  0  0  0  0  0
  189.6170  173.7720  134.3500 C   0  0  0  0  0  2  0  0  0  0  0  0
  190.9500  173.0010  136.1220 C   0  0  0  0  0  2  0  0  0  0  0  0
  197.5010  176.6010  134.5940 C   0  0  0  0  0  1  0  0  0  0  0  0
  191.1600  175.9250  136.3350 C   0  0  0  0  0  3  0  0  0  0  0  0
  192.4410  177.3380  141.2850 C   0  0  0  0  0  0  0  0  0  0  0  0
  190.1400  178.0050  141.6570 C   0  0  0  0  0  3  0  0  0  0  0  0
  193.7690  177.0890  141.7380 N   0  0  0  0  0  1  0  0  0  0  0  0
  190.8600  177.3570  139.4460 C   0  0  0  0  0  3  0  0  0  0  0  0
  192.1460  177.1250  139.9350 C   0  0  0  0  0  3  0  0  0  0  0  0
  191.4280  177.7800  142.1670 C   0  0  0  0  0  0  0  0  0  0  0  0
  189.8520  177.8130  140.3030 C   0  0  0  0  0  0  0  0  0  0  0  0
  191.6580  178.0160  143.6110 C   0  0  0  0  0  0  0  0  0  0  0  0
  192.0190  179.1460  144.0390 O   0  0  0  0  0  0  0  0  0  0  0  0
  191.4640  176.9850  144.5230 O   0  0  0  0  0  1  0  0  0  0  0  0
  186.6730  174.5430  134.3730 C   0  0  0  0  0  2  0  0  0  0  0  0
  185.4880  174.2460  135.2790 C   0  0  0  0  0  2  0  0  0  0  0  0
  184.1820  174.5980  134.5900 C   0  0  0  0  0  2  0  0  0  0  0  0
  183.8030  176.0450  134.8630 C   0  0  0  0  0  2  0  0  0  0  0  0
  183.2460  176.1830  136.2690 C   0  0  0  0  0  2  0  0  0  0  0  0
  181.7470  176.4310  136.2100 C   0  0  0  0  0  2  0  0  0  0  0  0
  181.0790  176.0460  137.5230 C   0  0  1  0  0  3  0  0  0  0  0  0
  180.4350  177.2590  138.1330 C   0  0  0  0  0  3  0  0  0  0  0  0
  180.9750  177.9900  139.1210 C   0  0  0  0  0  0  0  0  0  0  0  0
  182.7820  178.5520  140.8580 C   0  0  0  0  0  2  0  0  0  0  0  0
  182.5700  176.2840  139.9920 O   0  0  0  0  0  1  0  0  0  0  0  0
  183.4860  178.5090  139.5060 C   0  0  0  0  0  2  0  0  0  0  0  0
  182.2830  177.6290  139.7690 C   0  0  0  0  0  0  0  0  0  0  0  0
  180.4760  180.3000  138.9410 O   0  0  0  0  0  1  0  0  0  0  0  0
  180.1930  179.1440  139.6660 C   0  0  0  0  0  2  0  0  0  0  0  0
  180.1050  175.0760  137.2760 O   0  0  0  0  0  0  0  0  0  0  0  0
  180.5380  173.9370  137.9610 C   0  0  0  0  0  2  0  0  0  0  0  0
  180.1430  172.6110  135.8720 C   0  0  0  0  0  3  0  0  0  0  0  0
  181.6990  170.8900  135.1800 C   0  0  0  0  0  3  0  0  0  0  0  0
  182.4980  171.1630  136.2960 C   0  0  0  0  0  3  0  0  0  0  0  0
  182.1200  172.1590  137.1990 C   0  0  0  0  0  3  0  0  0  0  0  0
  180.5210  171.6140  134.9680 C   0  0  0  0  0  3  0  0  0  0  0  0
  180.9410  172.8840  136.9890 C   0  0  0  0  0  0  0  0  0  0  0  0
  2 29  1  0  0  0  0
  3 20  2  0  0  0  0
  4 26  1  0  0  0  0
  6 31  1  0  0  0  0
  6  4  1  0  0  0  0
  7 14  1  0  0  0  0
  8 13  1  6  0  0  0
  8 10  1  0  0  0  0
  8  9  1  0  0  0  0
  9 14  1  6  0  0  0
 10 18  1  6  0  0  0
 11 15  2  0  0  0  0
 12  6  2  0  0  0  0
 15 16  1  0  0  0  0
 16 38  1  0  0  0  0
 17  9  1  0  0  0  0
 17  5  1  0  0  0  0
 18 24  2  0  0  0  0
 19 29  1  6  0  0  0
 19  1  1  0  0  0  0
 20 11  1  0  0  0  0
 21 30  1  1  0  0  0
 21 13  1  0  0  0  0
 21  7  1  0  0  0  0
 22 10  1  0  0  0  0
 22  1  1  1  0  0  0
 22  5  1  0  0  0  0
 23  3  1  0  0  0  0
 23  4  2  0  0  0  0
 25 19  1  0  0  0  0
 25 18  1  0  0  0  0
 26 15  1  0  0  0  0
 27 12  1  0  0  0  0
 27 23  1  0  0  0  0
 28 12  1  0  0  0  0
 28  2  1  0  0  0  0
 31 25  2  0  0  0  0
 32 34  1  0  0  0  0
 32 37  1  0  0  0  0
 33 37  2  0  0  0  0
 35 36  1  0  0  0  0
 35 38  2  0  0  0  0
 36 32  2  0  0  0  0
 37 39  1  0  0  0  0
 38 33  1  0  0  0  0
 39 40  2  0  0  0  0
 39 41  1  0  0  0  0
 42 27  1  0  0  0  0
 42 43  1  0  0  0  0
 44 45  1  0  0  0  0
 44 43  1  0  0  0  0
 45 46  1  0  0  0  0
 47 46  1  0  0  0  0
 48 47  1  6  0  0  0
 48 49  1  0  0  0  0
 49 50  2  0  0  0  0
 50 56  1  0  0  0  0
 50 54  1  0  0  0  0
 53 54  1  0  0  0  0
 53 51  1  0  0  0  0
 54 52  1  0  0  0  0
 54 51  1  0  0  0  0
 55 56  1  0  0  0  0
 57 48  1  0  0  0  0
 57 58  1  0  0  0  0
 59 64  1  0  0  0  0
 60 61  2  0  0  0  0
 61 62  1  0  0  0  0
 63 60  1  0  0  0  0
 63 59  2  0  0  0  0
 64 62  2  0  0  0  0
 64 58  1  0  0  0  0
M  END
>  <MODEL>
6

>  <REMARK>
 VINA RESULT:      -2.8      4.451     11.359
  Name = 
  15 active torsions:
  status: ('A' for Active; 'I' for Inactive)
    1  A    between atoms: C_4  and  C_20
    2  A    between atoms: C_4  and  C_25
    3  A    between atoms: C_4  and  O_33
    4  A    between atoms: C_10  and  C_25
    5  A    between atoms: C_10  and  C_50
    6  A    between atoms: C_14  and  C_38
    7  A    between atoms: C_14  and  C_53
    8  A    between atoms: N_32  and  C_60
    9  A    between atoms: O_33  and  C_51
   10  A    between atoms: C_34  and  C_51
   11  A    between atoms: C_36  and  C_43
   12  A    between atoms: C_36  and  C_62
   13  A    between atoms: C_38  and  C_50
   14  A    between atoms: C_39  and  C_57
   15  A    between atoms: C_53  and  N_56
                            x       y       z     vdW  Elec       q    Type
                         _______ _______ _______ _____ _____    ______ ____

>  <TORSDO>
F 15

$$$$
=
 OpenBabel10232410423D

 64 72  0  0  1  0  0  0  0  0999 V2000
  186.1900  177.9350  135.7310 C   0  0  0  0  0  2  0  0  0  0  0  0
  189.6880  177.0690  135.2240 C   0  0  0  0  0  2  0  0  0  0  0  0
  192.5040  176.9290  140.2620 N   0  0  0  0  0  0  0  0  0  0  0  0
  190.1680  176.4710  139.5290 C   0  0  0  0  0  0  0  0  0  0  0  0
  183.9150  177.6360  134.7730 C   0  0  0  0  0  2  0  0  0  0  0  0
  189.5520  176.1930  138.3200 C   0  0  0  0  0  0  0  0  0  0  0  0
  181.5780  173.3770  135.6790 C   0  0  0  0  0  2  0  0  0  0  0  0
  183.5410  175.1730  136.3570 C   0  0  2  0  0  3  0  0  0  0  0  0
  182.3680  175.8060  135.5750 C   0  0  2  0  0  3  0  0  0  0  0  0
  184.6290  176.2110  136.6920 C   0  0  1  0  0  3  0  0  0  0  0  0
  191.0880  178.0090  141.9230 N   0  0  0  0  0  0  0  0  0  0  0  0
  190.5810  176.2370  137.3610 C   0  0  0  0  0  0  0  0  0  0  0  0
  184.0830  173.9440  135.6200 C   0  0  0  0  0  2  0  0  0  0  0  0
  181.3600  174.7620  135.0710 C   0  0  0  0  0  2  0  0  0  0  0  0
  189.8680  177.6340  141.6650 C   0  0  0  0  0  0  0  0  0  0  0  0
  188.8010  178.3510  142.3000 N   0  0  0  0  0  2  0  0  0  0  0  0
  182.8600  176.6120  134.3680 C   0  0  0  0  0  2  0  0  0  0  0  0
  185.7690  175.6510  137.5270 C   0  0  0  0  0  0  0  0  0  0  0  0
  187.3600  177.2190  136.3150 C   0  0  1  0  0  3  0  0  0  0  0  0
  192.3360  177.4850  141.4270 C   0  0  0  0  0  3  0  0  0  0  0  0
  183.0030  172.8710  135.4200 C   0  0  1  0  0  3  0  0  0  0  0  0
  185.0980  176.9270  135.4170 C   0  0  2  0  0  3  0  0  0  0  0  0
  191.4950  176.6950  139.2740 C   0  0  0  0  0  0  0  0  0  0  0  0
  185.4680  174.8680  138.5650 C   0  0  0  0  0  2  0  0  0  0  0  0
  187.1500  176.1960  137.3700 C   0  0  0  0  0  0  0  0  0  0  0  0
  189.5740  176.3880  140.8860 C   0  0  0  0  0  2  0  0  0  0  0  0
  191.7520  176.5400  137.9640 N   0  0  0  0  0  0  0  0  0  0  0  0
  190.4680  175.9840  135.8820 C   0  0  0  0  0  2  0  0  0  0  0  0
  188.4900  177.2320  135.6830 C   0  0  0  0  0  2  0  0  0  0  0  0
  183.2850  171.6910  136.3290 C   0  0  0  0  0  1  0  0  0  0  0  0
  188.1260  175.7780  138.2120 C   0  0  0  0  0  3  0  0  0  0  0  0
  184.7000  178.1830  141.2260 C   0  0  0  0  0  0  0  0  0  0  0  0
  187.0060  178.7080  140.6920 C   0  0  0  0  0  3  0  0  0  0  0  0
  183.3170  178.1080  140.8930 N   0  0  0  0  0  1  0  0  0  0  0  0
  186.4500  177.8180  142.8650 C   0  0  0  0  0  3  0  0  0  0  0  0
  185.1060  177.7610  142.4960 C   0  0  0  0  0  3  0  0  0  0  0  0
  185.6590  178.6610  140.3020 C   0  0  0  0  0  0  0  0  0  0  0  0
  187.4070  178.3060  141.9690 C   0  0  0  0  0  0  0  0  0  0  0  0
  185.3110  179.1150  138.9360 C   0  0  0  0  0  0  0  0  0  0  0  0
  186.2000  179.2970  138.0620 O   0  0  0  0  0  0  0  0  0  0  0  0
  183.9810  179.3340  138.5960 O   0  0  0  0  0  1  0  0  0  0  0  0
  193.0480  176.7130  137.3210 C   0  0  0  0  0  2  0  0  0  0  0  0
  192.9440  176.3590  135.8460 C   0  0  0  0  0  2  0  0  0  0  0  0
  194.3200  176.3100  135.2060 C   0  0  0  0  0  2  0  0  0  0  0  0
  194.4780  175.0530  134.3660 C   0  0  0  0  0  2  0  0  0  0  0  0
  195.9320  174.6160  134.3490 C   0  0  0  0  0  2  0  0  0  0  0  0
  196.0260  173.1180  134.5900 C   0  0  0  0  0  2  0  0  0  0  0  0
  197.1510  172.7920  135.5620 C   0  0  1  0  0  3  0  0  0  0  0  0
  196.8380  173.3800  136.9090 C   0  0  0  0  0  3  0  0  0  0  0  0
  197.7370  173.9800  137.7040 C   0  0  0  0  0  0  0  0  0  0  0  0
  200.0020  172.8030  137.4160 C   0  0  0  0  0  2  0  0  0  0  0  0
  199.5690  174.9290  136.3050 O   0  0  0  0  0  1  0  0  0  0  0  0
  200.2210  173.9110  138.4410 C   0  0  0  0  0  2  0  0  0  0  0  0
  199.1940  174.0790  137.3440 C   0  0  0  0  0  0  0  0  0  0  0  0
  196.0930  175.1770  138.9210 O   0  0  0  0  0  1  0  0  0  0  0  0
  197.2900  174.4740  139.0440 C   0  0  0  0  0  2  0  0  0  0  0  0
  197.2740  171.4050  135.6760 O   0  0  0  0  0  0  0  0  0  0  0  0
  196.1590  170.8820  135.0140 C   0  0  0  0  0  2  0  0  0  0  0  0
  194.1030  169.6480  135.7420 C   0  0  0  0  0  3  0  0  0  0  0  0
  194.2000  168.0200  137.5310 C   0  0  0  0  0  3  0  0  0  0  0  0
  195.5720  168.2530  137.6720 C   0  0  0  0  0  3  0  0  0  0  0  0
  196.2100  169.1850  136.8470 C   0  0  0  0  0  3  0  0  0  0  0  0
  193.4650  168.7170  136.5670 C   0  0  0  0  0  3  0  0  0  0  0  0
  195.4760  169.8840  135.8830 C   0  0  0  0  0  0  0  0  0  0  0  0
  1 19  1  0  0  0  0
  2 29  1  0  0  0  0
  2 28  1  0  0  0  0
  3 20  2  0  0  0  0
  4 26  1  0  0  0  0
  6  4  1  0  0  0  0
  8 13  1  6  0  0  0
  8 10  1  0  0  0  0
  9 17  1  6  0  0  0
  9  8  1  0  0  0  0
 10 18  1  6  0  0  0
 12 27  1  0  0  0  0
 12  6  2  0  0  0  0
 14  9  1  0  0  0  0
 14  7  1  0  0  0  0
 15 11  2  0  0  0  0
 15 16  1  0  0  0  0
 17  5  1  0  0  0  0
 18 24  2  0  0  0  0
 19 29  1  6  0  0  0
 19 25  1  0  0  0  0
 20 11  1  0  0  0  0
 21 13  1  0  0  0  0
 21  7  1  0  0  0  0
 21 30  1  1  0  0  0
 22  5  1  1  0  0  0
 22  1  1  0  0  0  0
 22 10  1  0  0  0  0
 23  4  2  0  0  0  0
 23  3  1  0  0  0  0
 25 18  1  0  0  0  0
 25 31  2  0  0  0  0
 26 15  1  0  0  0  0
 27 23  1  0  0  0  0
 28 12  1  0  0  0  0
 31  6  1  0  0  0  0
 32 36  1  0  0  0  0
 33 38  2  0  0  0  0
 34 32  1  0  0  0  0
 36 35  2  0  0  0  0
 37 33  1  0  0  0  0
 37 32  2  0  0  0  0
 38 16  1  0  0  0  0
 38 35  1  0  0  0  0
 39 37  1  0  0  0  0
 40 39  2  0  0  0  0
 41 39  1  0  0  0  0
 42 27  1  0  0  0  0
 43 42  1  0  0  0  0
 44 43  1  0  0  0  0
 45 44  1  0  0  0  0
 46 45  1  0  0  0  0
 46 47  1  0  0  0  0
 48 47  1  6  0  0  0
 48 57  1  0  0  0  0
 48 49  1  0  0  0  0
 49 50  2  0  0  0  0
 50 56  1  0  0  0  0
 51 53  1  0  0  0  0
 52 54  1  0  0  0  0
 54 51  1  0  0  0  0
 54 50  1  0  0  0  0
 54 53  1  0  0  0  0
 55 56  1  0  0  0  0
 58 57  1  0  0  0  0
 58 64  1  0  0  0  0
 59 64  2  0  0  0  0
 59 63  1  0  0  0  0
 60 61  1  0  0  0  0
 62 61  2  0  0  0  0
 63 60  2  0  0  0  0
 64 62  1  0  0  0  0
M  END
>  <MODEL>
7

>  <REMARK>
 VINA RESULT:      -2.2      5.721      9.618
  Name = 
  15 active torsions:
  status: ('A' for Active; 'I' for Inactive)
    1  A    between atoms: C_4  and  C_20
    2  A    between atoms: C_4  and  C_25
    3  A    between atoms: C_4  and  O_33
    4  A    between atoms: C_10  and  C_25
    5  A    between atoms: C_10  and  C_50
    6  A    between atoms: C_14  and  C_38
    7  A    between atoms: C_14  and  C_53
    8  A    between atoms: N_32  and  C_60
    9  A    between atoms: O_33  and  C_51
   10  A    between atoms: C_34  and  C_51
   11  A    between atoms: C_36  and  C_43
   12  A    between atoms: C_36  and  C_62
   13  A    between atoms: C_38  and  C_50
   14  A    between atoms: C_39  and  C_57
   15  A    between atoms: C_53  and  N_56
                            x       y       z     vdW  Elec       q    Type
                         _______ _______ _______ _____ _____    ______ ____

>  <TORSDO>
F 15

$$$$
=
 OpenBabel10232410423D

 64 72  0  0  1  0  0  0  0  0999 V2000
  186.7580  178.9410  138.1830 C   0  0  0  0  0  2  0  0  0  0  0  0
  186.6820  179.0000  141.8210 C   0  0  0  0  0  2  0  0  0  0  0  0
  181.3230  179.9760  143.7320 N   0  0  0  0  0  0  0  0  0  0  0  0
  182.3120  178.8620  141.7350 C   0  0  0  0  0  0  0  0  0  0  0  0
  187.9790  177.9800  136.2420 C   0  0  0  0  0  2  0  0  0  0  0  0
  183.5550  178.3450  141.4120 C   0  0  0  0  0  0  0  0  0  0  0  0
  186.9310  173.3310  134.9340 C   0  0  0  0  0  2  0  0  0  0  0  0
  186.1970  175.6280  136.2480 C   0  0  2  0  0  3  0  0  0  0  0  0
  187.1980  175.8690  135.0950 C   0  0  2  0  0  3  0  0  0  0  0  0
  185.8340  176.9380  136.9720 C   0  0  1  0  0  3  0  0  0  0  0  0
  180.0020  180.7590  141.8410 N   0  0  0  0  0  0  0  0  0  0  0  0
  184.3630  178.5900  142.5380 C   0  0  0  0  0  0  0  0  0  0  0  0
  186.7100  174.5370  137.1930 C   0  0  0  0  0  2  0  0  0  0  0  0
  187.7150  174.5610  134.4770 C   0  0  0  0  0  2  0  0  0  0  0  0
  180.3810  180.0560  140.8120 C   0  0  0  0  0  0  0  0  0  0  0  0
  179.9820  180.5090  139.5120 N   0  0  0  0  0  2  0  0  0  0  0  0
  188.4080  176.6870  135.5570 C   0  0  0  0  0  2  0  0  0  0  0  0
  184.7930  176.7630  138.0650 C   0  0  0  0  0  0  0  0  0  0  0  0
  185.9440  178.6050  139.3860 C   0  0  1  0  0  3  0  0  0  0  0  0
  180.2610  180.5500  143.2440 C   0  0  0  0  0  3  0  0  0  0  0  0
  186.9350  173.2040  136.4640 C   0  0  1  0  0  3  0  0  0  0  0  0
  187.1040  177.6590  137.4450 C   0  0  2  0  0  3  0  0  0  0  0  0
  182.4060  179.4110  142.9870 C   0  0  0  0  0  0  0  0  0  0  0  0
  183.7250  176.0060  137.8070 C   0  0  0  0  0  2  0  0  0  0  0  0
  184.8200  177.6420  139.2730 C   0  0  0  0  0  0  0  0  0  0  0  0
  181.0490  178.7230  140.9700 C   0  0  0  0  0  2  0  0  0  0  0  0
  183.6430  179.2360  143.4830 N   0  0  0  0  0  0  0  0  0  0  0  0
  185.8070  178.2110  142.7320 C   0  0  0  0  0  2  0  0  0  0  0  0
  186.4120  178.8710  140.5630 C   0  0  0  0  0  2  0  0  0  0  0  0
  185.8700  172.2100  136.8830 C   0  0  0  0  0  1  0  0  0  0  0  0
  183.8100  177.5600  140.1730 C   0  0  0  0  0  3  0  0  0  0  0  0
  181.4110  179.1550  135.7540 C   0  0  0  0  0  0  0  0  0  0  0  0
  180.3350  178.7300  137.8850 C   0  0  0  0  0  3  0  0  0  0  0  0
  181.8950  178.7330  134.4820 N   0  0  0  0  0  1  0  0  0  0  0  0
  181.0910  180.9580  137.3440 C   0  0  0  0  0  3  0  0  0  0  0  0
  181.5490  180.5010  136.1080 C   0  0  0  0  0  3  0  0  0  0  0  0
  180.7920  178.2510  136.6480 C   0  0  0  0  0  0  0  0  0  0  0  0
  180.4930  180.0710  138.2460 C   0  0  0  0  0  0  0  0  0  0  0  0
  180.5990  176.8140  136.3410 C   0  0  0  0  0  0  0  0  0  0  0  0
  180.4780  175.9600  137.2600 O   0  0  0  0  0  1  0  0  0  0  0  0
  180.5330  176.3900  135.0190 O   0  0  0  0  0  0  0  0  0  0  0  0
  184.1180  179.7000  144.7790 C   0  0  0  0  0  2  0  0  0  0  0  0
  184.2180  178.5270  145.7430 C   0  0  0  0  0  2  0  0  0  0  0  0
  184.9820  177.3760  145.1120 C   0  0  0  0  0  2  0  0  0  0  0  0
  185.9950  176.8030  146.0900 C   0  0  0  0  0  2  0  0  0  0  0  0
  187.2540  177.6520  146.0950 C   0  0  0  0  0  2  0  0  0  0  0  0
  188.4160  176.8600  145.5180 C   0  0  0  0  0  2  0  0  0  0  0  0
  188.7990  177.3790  144.1390 C   0  0  1  0  0  3  0  0  0  0  0  0
  189.9250  178.3650  144.2690 C   0  0  0  0  0  3  0  0  0  0  0  0
  191.0510  178.1450  144.9670 C   0  0  0  0  0  0  0  0  0  0  0  0
  190.5010  176.7300  147.0390 C   0  0  0  0  0  2  0  0  0  0  0  0
  191.4670  175.6890  145.0580 O   0  0  0  0  0  1  0  0  0  0  0  0
  192.0060  176.9790  147.0750 C   0  0  0  0  0  2  0  0  0  0  0  0
  191.2800  176.8830  145.7520 C   0  0  0  0  0  0  0  0  0  0  0  0
  191.6580  180.3310  144.2820 O   0  0  0  0  0  1  0  0  0  0  0  0
  192.0650  179.2420  145.0500 C   0  0  0  0  0  2  0  0  0  0  0  0
  189.2070  176.3070  143.3410 O   0  0  0  0  0  0  0  0  0  0  0  0
  188.7100  176.5880  142.0660 C   0  0  0  0  0  2  0  0  0  0  0  0
  191.1390  176.8410  141.5010 C   0  0  0  0  0  3  0  0  0  0  0  0
  191.9100  176.6410  139.2140 C   0  0  0  0  0  3  0  0  0  0  0  0
  190.5980  176.3990  138.7920 C   0  0  0  0  0  3  0  0  0  0  0  0
  189.5570  176.3790  139.7240 C   0  0  0  0  0  3  0  0  0  0  0  0
  192.1800  176.8620  140.5690 C   0  0  0  0  0  3  0  0  0  0  0  0
  189.8260  176.6010  141.0790 C   0  0  0  0  0  0  0  0  0  0  0  0
  2 28  1  0  0  0  0
  4 23  2  0  0  0  0
  6  4  1  0  0  0  0
  6 12  2  0  0  0  0
  7 21  1  0  0  0  0
  8 10  1  0  0  0  0
  8 13  1  1  0  0  0
  9 14  1  1  0  0  0
  9 17  1  0  0  0  0
  9  8  1  0  0  0  0
 10 22  1  0  0  0  0
 10 18  1  1  0  0  0
 11 20  1  0  0  0  0
 12 28  1  0  0  0  0
 12 27  1  0  0  0  0
 14  7  1  0  0  0  0
 15 26  1  0  0  0  0
 15 11  2  0  0  0  0
 16 15  1  0  0  0  0
 17  5  1  0  0  0  0
 18 25  1  0  0  0  0
 19  1  1  6  0  0  0
 19 29  1  0  0  0  0
 20  3  2  0  0  0  0
 21 30  1  6  0  0  0
 21 13  1  0  0  0  0
 22  5  1  6  0  0  0
 22  1  1  0  0  0  0
 23 27  1  0  0  0  0
 23  3  1  0  0  0  0
 24 18  2  0  0  0  0
 25 19  1  0  0  0  0
 25 31  2  0  0  0  0
 26  4  1  0  0  0  0
 27 42  1  0  0  0  0
 29  2  1  0  0  0  0
 31  6  1  0  0  0  0
 32 36  2  0  0  0  0
 32 37  1  0  0  0  0
 33 38  1  0  0  0  0
 34 32  1  0  0  0  0
 35 38  2  0  0  0  0
 36 35  1  0  0  0  0
 37 33  2  0  0  0  0
 38 16  1  0  0  0  0
 39 37  1  0  0  0  0
 39 40  1  0  0  0  0
 41 39  2  0  0  0  0
 42 43  1  0  0  0  0
 44 43  1  0  0  0  0
 44 45  1  0  0  0  0
 45 46  1  0  0  0  0
 47 46  1  0  0  0  0
 48 49  1  1  0  0  0
 48 47  1  0  0  0  0
 49 50  2  0  0  0  0
 50 56  1  0  0  0  0
 50 54  1  0  0  0  0
 51 53  1  0  0  0  0
 52 54  1  0  0  0  0
 54 51  1  0  0  0  0
 54 53  1  0  0  0  0
 55 56  1  0  0  0  0
 57 48  1  0  0  0  0
 58 57  1  0  0  0  0
 60 63  1  0  0  0  0
 61 60  2  0  0  0  0
 61 62  1  0  0  0  0
 62 64  2  0  0  0  0
 63 59  2  0  0  0  0
 64 59  1  0  0  0  0
 64 58  1  0  0  0  0
M  END
>  <MODEL>
8

>  <REMARK>
 VINA RESULT:      -2.0      1.135      3.258
  Name = 
  15 active torsions:
  status: ('A' for Active; 'I' for Inactive)
    1  A    between atoms: C_4  and  C_20
    2  A    between atoms: C_4  and  C_25
    3  A    between atoms: C_4  and  O_33
    4  A    between atoms: C_10  and  C_25
    5  A    between atoms: C_10  and  C_50
    6  A    between atoms: C_14  and  C_38
    7  A    between atoms: C_14  and  C_53
    8  A    between atoms: N_32  and  C_60
    9  A    between atoms: O_33  and  C_51
   10  A    between atoms: C_34  and  C_51
   11  A    between atoms: C_36  and  C_43
   12  A    between atoms: C_36  and  C_62
   13  A    between atoms: C_38  and  C_50
   14  A    between atoms: C_39  and  C_57
   15  A    between atoms: C_53  and  N_56
                            x       y       z     vdW  Elec       q    Type
                         _______ _______ _______ _____ _____    ______ ____

>  <TORSDO>
F 15

$$$$
