=
 OpenBabel10232409083D

 60 64  0  0  1  0  0  0  0  0999 V2000
  190.3930  178.5860  142.4130 N   0  0  0  0  0  0  0  0  0  0  0  0
  188.9360  178.6370  142.4750 C   0  0  1  0  0  3  0  0  0  0  0  0
  190.3080  176.8000  139.3440 C   0  0  0  0  0  0  0  0  0  0  0  0
  189.3560  176.4170  138.3470 N   0  0  0  0  0  2  0  0  0  0  0  0
  190.8470  177.7680  141.5240 C   0  0  0  0  0  0  0  0  0  0  0  0
  192.5770  177.2560  140.0150 C   0  0  0  0  0  3  0  0  0  0  0  0
  191.5810  176.8580  139.0540 N   0  0  0  0  0  0  0  0  0  0  0  0
  188.2840  177.8390  140.9580 S   0  0  0  0  0  0  0  0  0  0  0  0
  192.2330  177.7080  141.1850 N   0  0  0  0  0  0  0  0  0  0  0  0
  189.8580  176.9640  140.7680 C   0  0  1  0  0  3  0  0  0  0  0  0
  186.5090  177.3310  144.9830 C   0  0  0  0  0  3  0  0  0  0  0  0
  189.3460  177.2590  144.5670 C   0  0  0  0  0  2  0  0  0  0  0  0
  188.4170  177.9670  143.6710 N   0  0  0  0  0  0  0  0  0  0  0  0
  188.7390  176.9910  145.9170 C   0  0  0  0  0  0  0  0  0  0  0  0
  189.6230  176.6110  147.0530 C   0  0  0  0  0  1  0  0  0  0  0  0
  186.9930  177.8010  143.8340 C   0  0  0  0  0  0  0  0  0  0  0  0
  187.4160  176.9690  146.0810 C   0  0  0  0  0  3  0  0  0  0  0  0
  186.0360  178.1690  142.7450 C   0  0  0  0  0  2  0  0  0  0  0  0
  183.7350  179.2220  143.0570 C   0  0  0  0  0  0  0  0  0  0  0  0
  185.1650  179.2490  143.1830 N   0  0  0  0  0  2  0  0  0  0  0  0
  183.0450  179.8450  143.9060 O   0  0  0  0  0  0  0  0  0  0  0  0
  181.0030  177.8880  140.9070 C   0  0  0  0  0  3  0  0  0  0  0  0
  183.0990  177.3700  139.8100 C   0  0  0  0  0  0  0  0  0  0  0  0
  181.6880  177.3310  139.8110 C   0  0  0  0  0  0  0  0  0  0  0  0
  183.0450  178.5250  141.9470 C   0  0  0  0  0  0  0  0  0  0  0  0
  183.7600  177.9760  140.8820 C   0  0  0  0  0  3  0  0  0  0  0  0
  181.6850  178.4680  141.9320 N   0  0  0  0  0  0  0  0  0  0  0  0
  180.9810  176.7370  138.7590 O   0  0  0  0  0  0  0  0  0  0  0  0
  180.7810  175.3310  138.6610 C   0  0  0  0  0  1  0  0  0  0  0  0
  183.9020  176.8330  138.7940 O   0  0  0  0  0  0  0  0  0  0  0  0
  184.0510  177.3490  137.4750 C   0  0  0  0  0  2  0  0  0  0  0  0
  182.9510  175.8700  135.9420 O   0  0  0  0  0  1  0  0  0  0  0  0
  184.2020  176.2290  136.4510 C   0  0  2  0  0  3  0  0  0  0  0  0
  184.8330  175.0100  137.1110 C   0  0  0  0  0  2  0  0  0  0  0  0
  183.8600  173.9340  137.2140 N   0  0  0  0  0  2  0  0  0  0  0  0
  185.5010  172.1970  136.3490 C   0  0  0  0  0  1  0  0  0  0  0  0
  184.1890  172.5700  136.9420 C   0  0  0  0  0  0  0  0  0  0  0  0
  183.3620  171.6630  137.2120 O   0  0  0  0  0  0  0  0  0  0  0  0
  189.7380  175.9200  137.0280 C   0  0  0  0  0  2  0  0  0  0  0  0
  190.4780  174.6560  137.1140 N   0  0  0  0  0  0  0  0  0  0  0  0
  189.8100  173.4850  137.5020 N   0  0  0  0  0  1  0  0  0  0  0  0
  192.2170  175.3350  135.2050 S   0  0  0  0  0  0  0  0  0  0  0  0
  191.8070  174.5510  136.5870 C   0  0  0  0  0  0  0  0  0  0  0  0
  192.9010  174.0070  137.4460 C   0  0  0  0  0  2  0  0  0  0  0  0
  194.0690  174.9750  137.5390 C   0  0  0  0  0  2  0  0  0  0  0  0
  195.3480  174.2260  137.8700 C   0  0  2  0  0  3  0  0  0  0  0  0
  196.0310  174.8770  138.9030 O   0  0  0  0  0  1  0  0  0  0  0  0
  196.2330  174.1080  136.6320 C   0  0  1  0  0  3  0  0  0  0  0  0
  197.3400  174.9540  136.7370 O   0  0  0  0  0  1  0  0  0  0  0  0
  196.6930  172.6660  136.4570 C   0  0  0  0  0  2  0  0  0  0  0  0
  193.6370  170.5610  136.1580 C   0  0  0  0  0  2  0  0  0  0  0  0
  196.1830  170.5470  137.5790 C   0  0  1  0  0  3  0  0  0  0  0  0
  194.8750  171.3350  135.7020 C   0  0  0  0  0  2  0  0  0  0  0  0
  194.0490  169.3420  136.9820 C   0  0  0  0  0  2  0  0  0  0  0  0
  195.6480  171.7380  136.8770 N   0  0  0  0  0  0  0  0  0  0  0  0
  194.9930  169.7420  138.1230 C   0  0  0  0  0  2  0  0  0  0  0  0
  196.9340  168.3100  137.0540 O   0  0  0  0  0  1  0  0  0  0  0  0
  197.0990  169.6520  136.7070 C   0  0  2  0  0  3  0  0  0  0  0  0
  199.1300  169.3310  138.1020 C   0  0  0  0  0  1  0  0  0  0  0  0
  198.5680  169.9990  136.8660 C   0  0  0  0  0  2  0  0  0  0  0  0
  1  2  1  0  0  0  0
  2 13  1  1  0  0  0
  4  3  1  0  0  0  0
  5  1  2  0  0  0  0
  6  9  2  0  0  0  0
  7  3  2  0  0  0  0
  7  6  1  0  0  0  0
  8  2  1  0  0  0  0
  9  5  1  0  0  0  0
 10  3  1  6  0  0  0
 10  8  1  0  0  0  0
 10  5  1  0  0  0  0
 11 17  1  0  0  0  0
 12 14  1  0  0  0  0
 13 16  1  0  0  0  0
 13 12  1  0  0  0  0
 14 17  2  0  0  0  0
 14 15  1  0  0  0  0
 16 11  2  0  0  0  0
 18 20  1  0  0  0  0
 18 16  1  0  0  0  0
 19 20  1  0  0  0  0
 19 21  2  0  0  0  0
 22 27  1  0  0  0  0
 23 24  1  0  0  0  0
 23 26  2  0  0  0  0
 24 22  2  0  0  0  0
 25 19  1  0  0  0  0
 26 25  1  0  0  0  0
 27 25  2  0  0  0  0
 28 24  1  0  0  0  0
 29 28  1  0  0  0  0
 30 23  1  0  0  0  0
 31 30  1  0  0  0  0
 33 32  1  1  0  0  0
 33 34  1  0  0  0  0
 33 31  1  0  0  0  0
 34 35  1  0  0  0  0
 36 37  1  0  0  0  0
 37 38  2  0  0  0  0
 37 35  1  0  0  0  0
 39 40  1  0  0  0  0
 39  4  1  0  0  0  0
 40 41  1  0  0  0  0
 42 43  2  0  0  0  0
 43 40  1  0  0  0  0
 43 44  1  0  0  0  0
 44 45  1  0  0  0  0
 45 46  1  0  0  0  0
 46 47  1  1  0  0  0
 48 49  1  1  0  0  0
 48 46  1  0  0  0  0
 50 48  1  0  0  0  0
 50 55  1  0  0  0  0
 51 54  1  0  0  0  0
 52 58  1  6  0  0  0
 52 56  1  0  0  0  0
 53 51  1  0  0  0  0
 53 55  1  0  0  0  0
 54 56  1  0  0  0  0
 55 52  1  0  0  0  0
 58 60  1  0  0  0  0
 58 57  1  1  0  0  0
 60 59  1  0  0  0  0
M  END
>  <MODEL>
1

>  <REMARK>
 VINA RESULT:      -6.4      0.000      0.000
  Name = 
  21 active torsions:
  status: ('A' for Active; 'I' for Inactive)
    1  A    between atoms: C_2  and  C_23
    2  A    between atoms: C_2  and  C_44
    3  A    between atoms: C_3  and  N_11
    4  A    between atoms: C_4  and  C_30
    5  A    between atoms: C_7  and  C_21
    6  A    between atoms: C_7  and  N_50
    7  A    between atoms: N_8  and  C_35
    8  A    between atoms: N_12  and  C_35
    9  A    between atoms: N_12  and  C_51
   10  A    between atoms: C_13  and  O_16
   11  A    between atoms: O_16  and  C_52
   12  A    between atoms: C_17  and  O_42
   13  A    between atoms: C_18  and  C_20
   14  A    between atoms: C_18  and  N_26
   15  A    between atoms: C_20  and  C_52
   16  A    between atoms: C_21  and  C_23
   17  A    between atoms: C_22  and  N_24
   18  A    between atoms: C_22  and  C_55
   19  A    between atoms: C_25  and  C_28
   20  A    between atoms: C_25  and  C_56
   21  A    between atoms: C_44  and  C_51
                            x       y       z     vdW  Elec       q    Type
                         _______ _______ _______ _____ _____    ______ ____

>  <TORSDO>
F 21

$$$$
=
 OpenBabel10232409083D

 60 64  0  0  1  0  0  0  0  0999 V2000
  188.0770  177.0820  142.4660 N   0  0  0  0  0  0  0  0  0  0  0  0
  188.7530  176.1310  143.3430 C   0  0  1  0  0  3  0  0  0  0  0  0
  190.9030  177.2820  140.3230 C   0  0  0  0  0  0  0  0  0  0  0  0
  192.1540  176.6170  140.1260 N   0  0  0  0  0  2  0  0  0  0  0  0
  188.8620  177.6570  141.6180 C   0  0  0  0  0  0  0  0  0  0  0  0
  189.0920  178.6370  139.4930 C   0  0  0  0  0  3  0  0  0  0  0  0
  190.3580  177.9650  139.3520 N   0  0  0  0  0  0  0  0  0  0  0  0
  190.4020  175.7800  142.6200 S   0  0  0  0  0  0  0  0  0  0  0  0
  188.3670  178.4790  140.5600 N   0  0  0  0  0  0  0  0  0  0  0  0
  190.3070  177.3380  141.7010 C   0  0  1  0  0  3  0  0  0  0  0  0
  187.9010  177.8410  146.5420 C   0  0  0  0  0  3  0  0  0  0  0  0
  190.1120  176.3590  145.4750 C   0  0  0  0  0  2  0  0  0  0  0  0
  188.8910  176.6500  144.7060 N   0  0  0  0  0  0  0  0  0  0  0  0
  190.2740  177.2780  146.6540 C   0  0  0  0  0  0  0  0  0  0  0  0
  191.5960  177.3720  147.3320 C   0  0  0  0  0  1  0  0  0  0  0  0
  187.7470  177.2320  145.3670 C   0  0  0  0  0  0  0  0  0  0  0  0
  189.2240  177.9130  147.1770 C   0  0  0  0  0  3  0  0  0  0  0  0
  186.3860  177.1900  144.7490 C   0  0  0  0  0  2  0  0  0  0  0  0
  184.4420  178.8250  144.5310 C   0  0  0  0  0  0  0  0  0  0  0  0
  185.5780  178.2980  145.2340 N   0  0  0  0  0  2  0  0  0  0  0  0
  183.5040  179.3330  145.2000 O   0  0  0  0  0  0  0  0  0  0  0  0
  185.3630  179.3240  140.9580 C   0  0  0  0  0  3  0  0  0  0  0  0
  183.2060  178.2240  140.9980 C   0  0  0  0  0  0  0  0  0  0  0  0
  184.2850  178.7530  140.2570 C   0  0  0  0  0  0  0  0  0  0  0  0
  184.3510  178.8310  143.0530 C   0  0  0  0  0  0  0  0  0  0  0  0
  183.2580  178.2650  142.3940 C   0  0  0  0  0  3  0  0  0  0  0  0
  185.3750  179.3450  142.3180 N   0  0  0  0  0  0  0  0  0  0  0  0
  184.2780  178.7330  138.8570 O   0  0  0  0  0  0  0  0  0  0  0  0
  185.2480  178.0260  138.0910 C   0  0  0  0  0  1  0  0  0  0  0  0
  182.0620  177.6490  140.4250 O   0  0  0  0  0  0  0  0  0  0  0  0
  181.4470  178.0350  139.2000 C   0  0  0  0  0  2  0  0  0  0  0  0
  179.9900  176.1470  138.9500 O   0  0  0  0  0  1  0  0  0  0  0  0
  181.0630  176.8200  138.3610 C   0  0  2  0  0  3  0  0  0  0  0  0
  182.2490  175.8680  138.2640 C   0  0  0  0  0  2  0  0  0  0  0  0
  181.8190  174.5830  137.7320 N   0  0  0  0  0  2  0  0  0  0  0  0
  182.1610  175.3230  135.3250 C   0  0  0  0  0  1  0  0  0  0  0  0
  181.8580  174.2750  136.3370 C   0  0  0  0  0  0  0  0  0  0  0  0
  181.6410  173.0990  135.9520 O   0  0  0  0  0  0  0  0  0  0  0  0
  192.9650  176.7820  138.9230 C   0  0  0  0  0  2  0  0  0  0  0  0
  192.6520  175.7690  137.9090 N   0  0  0  0  0  0  0  0  0  0  0  0
  191.5810  175.9770  137.0270 N   0  0  0  0  0  1  0  0  0  0  0  0
  195.0280  174.6450  138.3820 S   0  0  0  0  0  0  0  0  0  0  0  0
  193.5570  174.6870  137.6540 C   0  0  0  0  0  0  0  0  0  0  0  0
  193.0550  173.4440  136.9960 C   0  0  0  0  0  2  0  0  0  0  0  0
  193.1810  173.5250  135.4840 C   0  0  0  0  0  2  0  0  0  0  0  0
  193.6430  172.1920  134.9230 C   0  0  2  0  0  3  0  0  0  0  0  0
  192.7080  171.1950  135.2210 O   0  0  0  0  0  1  0  0  0  0  0  0
  195.0150  171.8240  135.4800 C   0  0  1  0  0  3  0  0  0  0  0  0
  195.3140  170.4860  135.2080 O   0  0  0  0  0  1  0  0  0  0  0  0
  196.0820  172.7300  134.8770 C   0  0  0  0  0  2  0  0  0  0  0  0
  199.6230  171.7110  135.4050 C   0  0  0  0  0  2  0  0  0  0  0  0
  197.7960  173.8190  136.2500 C   0  0  1  0  0  3  0  0  0  0  0  0
  198.3630  172.1090  134.6350 C   0  0  0  0  0  2  0  0  0  0  0  0
  200.1430  172.8950  136.2190 C   0  0  0  0  0  2  0  0  0  0  0  0
  197.3500  172.5730  135.5830 N   0  0  0  0  0  0  0  0  0  0  0  0
  199.0330  173.4880  137.0980 C   0  0  0  0  0  2  0  0  0  0  0  0
  199.4170  175.4090  135.4200 O   0  0  0  0  0  1  0  0  0  0  0  0
  198.0920  174.9900  135.2790 C   0  0  2  0  0  3  0  0  0  0  0  0
  196.2110  176.3450  134.3860 C   0  0  0  0  0  1  0  0  0  0  0  0
  197.1930  176.1870  135.5260 C   0  0  0  0  0  2  0  0  0  0  0  0
  1  2  1  0  0  0  0
  2 13  1  1  0  0  0
  4  3  1  0  0  0  0
  5 10  1  0  0  0  0
  5  1  2  0  0  0  0
  6  9  2  0  0  0  0
  7  6  1  0  0  0  0
  7  3  2  0  0  0  0
  8  2  1  0  0  0  0
  9  5  1  0  0  0  0
 10  3  1  6  0  0  0
 10  8  1  0  0  0  0
 11 17  1  0  0  0  0
 12 14  1  0  0  0  0
 13 16  1  0  0  0  0
 13 12  1  0  0  0  0
 14 17  2  0  0  0  0
 14 15  1  0  0  0  0
 16 11  2  0  0  0  0
 18 20  1  0  0  0  0
 18 16  1  0  0  0  0
 19 21  2  0  0  0  0
 19 20  1  0  0  0  0
 22 27  1  0  0  0  0
 23 26  2  0  0  0  0
 24 22  2  0  0  0  0
 24 23  1  0  0  0  0
 25 19  1  0  0  0  0
 26 25  1  0  0  0  0
 27 25  2  0  0  0  0
 28 24  1  0  0  0  0
 29 28  1  0  0  0  0
 30 23  1  0  0  0  0
 31 30  1  0  0  0  0
 33 32  1  1  0  0  0
 33 31  1  0  0  0  0
 34 33  1  0  0  0  0
 35 34  1  0  0  0  0
 36 37  1  0  0  0  0
 37 35  1  0  0  0  0
 38 37  2  0  0  0  0
 39  4  1  0  0  0  0
 40 39  1  0  0  0  0
 41 40  1  0  0  0  0
 43 40  1  0  0  0  0
 43 42  2  0  0  0  0
 44 43  1  0  0  0  0
 45 44  1  0  0  0  0
 46 47  1  1  0  0  0
 46 48  1  0  0  0  0
 46 45  1  0  0  0  0
 48 49  1  6  0  0  0
 50 48  1  0  0  0  0
 50 55  1  0  0  0  0
 51 54  1  0  0  0  0
 52 58  1  6  0  0  0
 52 56  1  0  0  0  0
 53 51  1  0  0  0  0
 53 55  1  0  0  0  0
 54 56  1  0  0  0  0
 55 52  1  0  0  0  0
 58 57  1  1  0  0  0
 58 60  1  0  0  0  0
 59 60  1  0  0  0  0
M  END
>  <MODEL>
2

>  <REMARK>
 VINA RESULT:      -6.2      2.270      3.704
  Name = 
  21 active torsions:
  status: ('A' for Active; 'I' for Inactive)
    1  A    between atoms: C_2  and  C_23
    2  A    between atoms: C_2  and  C_44
    3  A    between atoms: C_3  and  N_11
    4  A    between atoms: C_4  and  C_30
    5  A    between atoms: C_7  and  C_21
    6  A    between atoms: C_7  and  N_50
    7  A    between atoms: N_8  and  C_35
    8  A    between atoms: N_12  and  C_35
    9  A    between atoms: N_12  and  C_51
   10  A    between atoms: C_13  and  O_16
   11  A    between atoms: O_16  and  C_52
   12  A    between atoms: C_17  and  O_42
   13  A    between atoms: C_18  and  C_20
   14  A    between atoms: C_18  and  N_26
   15  A    between atoms: C_20  and  C_52
   16  A    between atoms: C_21  and  C_23
   17  A    between atoms: C_22  and  N_24
   18  A    between atoms: C_22  and  C_55
   19  A    between atoms: C_25  and  C_28
   20  A    between atoms: C_25  and  C_56
   21  A    between atoms: C_44  and  C_51
                            x       y       z     vdW  Elec       q    Type
                         _______ _______ _______ _____ _____    ______ ____

>  <TORSDO>
F 21

$$$$
=
 OpenBabel10232409083D

 60 64  0  0  1  0  0  0  0  0999 V2000
  187.1160  177.3850  138.4530 N   0  0  0  0  0  0  0  0  0  0  0  0
  186.4990  177.1920  137.1430 C   0  0  1  0  0  3  0  0  0  0  0  0
  190.3240  176.5300  137.1900 C   0  0  0  0  0  0  0  0  0  0  0  0
  190.9570  176.2970  135.9280 N   0  0  0  0  0  2  0  0  0  0  0  0
  188.3190  176.9250  138.5340 C   0  0  0  0  0  0  0  0  0  0  0  0
  190.4440  177.1240  139.5220 C   0  0  0  0  0  3  0  0  0  0  0  0
  191.0340  176.8610  138.2350 N   0  0  0  0  0  0  0  0  0  0  0  0
  187.8300  176.7560  135.9590 S   0  0  0  0  0  0  0  0  0  0  0  0
  189.1530  177.1760  139.6660 N   0  0  0  0  0  0  0  0  0  0  0  0
  188.8620  176.2210  137.3480 C   0  0  1  0  0  3  0  0  0  0  0  0
  183.3680  175.3800  138.0360 C   0  0  0  0  0  3  0  0  0  0  0  0
  185.6080  174.9740  136.2910 C   0  0  0  0  0  2  0  0  0  0  0  0
  185.4750  176.1450  137.1720 N   0  0  0  0  0  0  0  0  0  0  0  0
  184.7290  173.8330  136.7250 C   0  0  0  0  0  0  0  0  0  0  0  0
  184.9810  172.4690  136.1840 C   0  0  0  0  0  1  0  0  0  0  0  0
  184.2370  176.3780  137.8770 C   0  0  0  0  0  0  0  0  0  0  0  0
  183.6560  174.0470  137.4870 C   0  0  0  0  0  3  0  0  0  0  0  0
  183.9120  177.7160  138.4600 C   0  0  0  0  0  2  0  0  0  0  0  0
  182.1530  178.4020  140.1740 C   0  0  0  0  0  0  0  0  0  0  0  0
  182.5500  177.7270  138.9700 N   0  0  0  0  0  2  0  0  0  0  0  0
  180.9790  178.8490  140.2530 O   0  0  0  0  0  0  0  0  0  0  0  0
  183.3170  178.9110  143.6730 C   0  0  0  0  0  3  0  0  0  0  0  0
  185.2780  178.4800  142.3200 C   0  0  0  0  0  0  0  0  0  0  0  0
  184.7110  178.7360  143.5870 C   0  0  0  0  0  0  0  0  0  0  0  0
  183.0580  178.5580  141.3360 C   0  0  0  0  0  0  0  0  0  0  0  0
  184.4370  178.3880  141.2070 C   0  0  0  0  0  3  0  0  0  0  0  0
  182.5330  178.8140  142.5660 N   0  0  0  0  0  0  0  0  0  0  0  0
  185.5120  178.8360  144.7300 O   0  0  0  0  0  0  0  0  0  0  0  0
  185.0040  178.6530  146.0480 C   0  0  0  0  0  1  0  0  0  0  0  0
  186.6510  178.3090  142.0900 O   0  0  0  0  0  0  0  0  0  0  0  0
  187.4960  177.3430  142.7070 C   0  0  0  0  0  2  0  0  0  0  0  0
  189.6850  178.2600  143.0480 O   0  0  0  0  0  1  0  0  0  0  0  0
  188.4700  177.9950  143.6840 C   0  0  2  0  0  3  0  0  0  0  0  0
  188.7220  177.0590  144.8590 C   0  0  0  0  0  2  0  0  0  0  0  0
  188.5210  177.7650  146.1150 N   0  0  0  0  0  2  0  0  0  0  0  0
  190.3530  176.4540  147.2920 C   0  0  0  0  0  1  0  0  0  0  0  0
  189.3510  177.5540  147.2590 C   0  0  0  0  0  0  0  0  0  0  0  0
  189.2420  178.3100  148.2570 O   0  0  0  0  0  0  0  0  0  0  0  0
  192.4070  176.2510  135.7600 C   0  0  0  0  0  2  0  0  0  0  0  0
  192.8420  175.0090  135.1100 N   0  0  0  0  0  0  0  0  0  0  0  0
  194.0190  174.9990  134.3480 N   0  0  0  0  0  1  0  0  0  0  0  0
  191.1150  173.0970  134.4090 S   0  0  0  0  0  0  0  0  0  0  0  0
  192.2150  173.7600  135.4300 C   0  0  0  0  0  0  0  0  0  0  0  0
  192.7870  172.9030  136.5120 C   0  0  0  0  0  2  0  0  0  0  0  0
  193.3030  171.5840  135.9620 C   0  0  0  0  0  2  0  0  0  0  0  0
  194.7870  171.6860  135.6550 C   0  0  2  0  0  3  0  0  0  0  0  0
  195.0790  171.0000  134.4710 O   0  0  0  0  0  1  0  0  0  0  0  0
  195.6120  171.1330  136.8130 C   0  0  1  0  0  3  0  0  0  0  0  0
  196.5870  170.2490  136.3440 O   0  0  0  0  0  1  0  0  0  0  0  0
  196.2680  172.2770  137.5760 C   0  0  0  0  0  2  0  0  0  0  0  0
  198.1000  174.0230  134.8460 C   0  0  0  0  0  2  0  0  0  0  0  0
  198.3780  173.5180  137.7040 C   0  0  1  0  0  3  0  0  0  0  0  0
  196.9340  173.6700  135.7690 C   0  0  0  0  0  2  0  0  0  0  0  0
  199.2170  174.7000  135.6390 C   0  0  0  0  0  2  0  0  0  0  0  0
  197.4160  172.7960  136.8390 N   0  0  0  0  0  0  0  0  0  0  0  0
  199.6160  173.8580  136.8580 C   0  0  0  0  0  2  0  0  0  0  0  0
  198.8400  175.6060  138.8310 O   0  0  0  0  0  1  0  0  0  0  0  0
  197.8030  174.7910  138.3720 C   0  0  2  0  0  3  0  0  0  0  0  0
  195.4520  174.6340  139.1610 C   0  0  0  0  0  1  0  0  0  0  0  0
  196.9040  174.4690  139.5520 C   0  0  0  0  0  2  0  0  0  0  0  0
  1  5  2  0  0  0  0
  2 13  1  1  0  0  0
  2  1  1  0  0  0  0
  3 10  1  0  0  0  0
  3  7  2  0  0  0  0
  4  3  1  0  0  0  0
  5  9  1  0  0  0  0
  6  9  2  0  0  0  0
  7  6  1  0  0  0  0
  8  2  1  0  0  0  0
 10  8  1  6  0  0  0
 10  5  1  0  0  0  0
 12 14  1  0  0  0  0
 12 13  1  0  0  0  0
 13 16  1  0  0  0  0
 14 17  2  0  0  0  0
 15 14  1  0  0  0  0
 16 11  2  0  0  0  0
 16 18  1  0  0  0  0
 17 11  1  0  0  0  0
 18 20  1  0  0  0  0
 19 21  2  0  0  0  0
 19 25  1  0  0  0  0
 20 19  1  0  0  0  0
 23 24  2  0  0  0  0
 24 22  1  0  0  0  0
 24 28  1  0  0  0  0
 25 27  1  0  0  0  0
 26 25  2  0  0  0  0
 26 23  1  0  0  0  0
 27 22  2  0  0  0  0
 28 29  1  0  0  0  0
 30 23  1  0  0  0  0
 30 31  1  0  0  0  0
 31 33  1  0  0  0  0
 33 32  1  6  0  0  0
 33 34  1  0  0  0  0
 34 35  1  0  0  0  0
 35 37  1  0  0  0  0
 37 36  1  0  0  0  0
 37 38  2  0  0  0  0
 39  4  1  0  0  0  0
 40 43  1  0  0  0  0
 40 39  1  0  0  0  0
 41 40  1  0  0  0  0
 42 43  2  0  0  0  0
 43 44  1  0  0  0  0
 45 44  1  0  0  0  0
 46 47  1  6  0  0  0
 46 45  1  0  0  0  0
 46 48  1  0  0  0  0
 48 49  1  6  0  0  0
 48 50  1  0  0  0  0
 51 54  1  0  0  0  0
 51 53  1  0  0  0  0
 52 58  1  6  0  0  0
 53 55  1  0  0  0  0
 54 56  1  0  0  0  0
 55 50  1  0  0  0  0
 55 52  1  0  0  0  0
 56 52  1  0  0  0  0
 58 57  1  1  0  0  0
 58 60  1  0  0  0  0
 59 60  1  0  0  0  0
M  END
>  <MODEL>
3

>  <REMARK>
 VINA RESULT:      -6.2      2.480      6.414
  Name = 
  21 active torsions:
  status: ('A' for Active; 'I' for Inactive)
    1  A    between atoms: C_2  and  C_23
    2  A    between atoms: C_2  and  C_44
    3  A    between atoms: C_3  and  N_11
    4  A    between atoms: C_4  and  C_30
    5  A    between atoms: C_7  and  C_21
    6  A    between atoms: C_7  and  N_50
    7  A    between atoms: N_8  and  C_35
    8  A    between atoms: N_12  and  C_35
    9  A    between atoms: N_12  and  C_51
   10  A    between atoms: C_13  and  O_16
   11  A    between atoms: O_16  and  C_52
   12  A    between atoms: C_17  and  O_42
   13  A    between atoms: C_18  and  C_20
   14  A    between atoms: C_18  and  N_26
   15  A    between atoms: C_20  and  C_52
   16  A    between atoms: C_21  and  C_23
   17  A    between atoms: C_22  and  N_24
   18  A    between atoms: C_22  and  C_55
   19  A    between atoms: C_25  and  C_28
   20  A    between atoms: C_25  and  C_56
   21  A    between atoms: C_44  and  C_51
                            x       y       z     vdW  Elec       q    Type
                         _______ _______ _______ _____ _____    ______ ____

>  <TORSDO>
F 21

$$$$
=
 OpenBabel10232409083D

 60 64  0  0  1  0  0  0  0  0999 V2000
  190.4140  176.2040  139.5870 N   0  0  0  0  0  0  0  0  0  0  0  0
  189.7980  175.6770  138.3720 C   0  0  1  0  0  3  0  0  0  0  0  0
  187.6070  178.2790  140.2410 C   0  0  0  0  0  0  0  0  0  0  0  0
  186.2740  178.4710  139.7580 N   0  0  0  0  0  2  0  0  0  0  0  0
  189.8150  177.2410  140.0660 C   0  0  0  0  0  0  0  0  0  0  0  0
  189.2610  178.4910  141.9800 C   0  0  0  0  0  3  0  0  0  0  0  0
  187.9390  178.6770  141.4400 N   0  0  0  0  0  0  0  0  0  0  0  0
  188.1320  176.4280  138.2210 S   0  0  0  0  0  0  0  0  0  0  0  0
  190.1510  177.7920  141.3400 N   0  0  0  0  0  0  0  0  0  0  0  0
  188.6660  177.7810  139.2990 C   0  0  1  0  0  3  0  0  0  0  0  0
  190.7120  176.1310  134.7880 C   0  0  0  0  0  3  0  0  0  0  0  0
  191.9850  176.4480  137.3390 C   0  0  0  0  0  2  0  0  0  0  0  0
  190.6020  175.9700  137.1820 N   0  0  0  0  0  0  0  0  0  0  0  0
  192.7820  176.3070  136.0720 C   0  0  0  0  0  0  0  0  0  0  0  0
  194.2670  176.4020  136.1270 C   0  0  0  0  0  1  0  0  0  0  0  0
  189.9660  176.0170  135.8870 C   0  0  0  0  0  0  0  0  0  0  0  0
  192.1760  176.2210  134.8870 C   0  0  0  0  0  3  0  0  0  0  0  0
  188.4820  175.9170  135.7440 C   0  0  0  0  0  2  0  0  0  0  0  0
  186.6390  177.3670  134.7430 C   0  0  0  0  0  0  0  0  0  0  0  0
  187.9980  176.9080  134.7950 N   0  0  0  0  0  2  0  0  0  0  0  0
  186.4160  178.5430  134.3500 O   0  0  0  0  0  0  0  0  0  0  0  0
  184.4940  174.3430  135.0730 C   0  0  0  0  0  3  0  0  0  0  0  0
  183.3680  176.1510  136.2260 C   0  0  0  0  0  0  0  0  0  0  0  0
  183.4040  174.7930  135.8410 C   0  0  0  0  0  0  0  0  0  0  0  0
  185.4900  176.5010  135.0950 C   0  0  0  0  0  0  0  0  0  0  0  0
  184.4220  176.9890  135.8500 C   0  0  0  0  0  3  0  0  0  0  0  0
  185.4990  175.1910  134.7270 N   0  0  0  0  0  0  0  0  0  0  0  0
  182.3730  173.9150  136.1960 O   0  0  0  0  0  0  0  0  0  0  0  0
  182.5700  172.5130  136.3460 C   0  0  0  0  0  1  0  0  0  0  0  0
  182.3330  176.7330  136.9710 O   0  0  0  0  0  0  0  0  0  0  0  0
  180.9670  176.8350  136.5810 C   0  0  0  0  0  2  0  0  0  0  0  0
  181.3920  179.0470  135.7570 O   0  0  0  0  0  1  0  0  0  0  0  0
  180.5080  178.2900  136.5310 C   0  0  2  0  0  3  0  0  0  0  0  0
  180.4700  178.8650  137.9410 C   0  0  0  0  0  2  0  0  0  0  0  0
  181.7510  179.4720  138.2700 N   0  0  0  0  0  2  0  0  0  0  0  0
  180.8540  181.8300  137.9690 C   0  0  0  0  0  1  0  0  0  0  0  0
  181.9280  180.8850  138.3780 C   0  0  0  0  0  0  0  0  0  0  0  0
  183.0060  181.3460  138.8330 O   0  0  0  0  0  0  0  0  0  0  0  0
  185.2670  179.2450  140.4800 C   0  0  0  0  0  2  0  0  0  0  0  0
  184.0610  178.4540  140.7500 N   0  0  0  0  0  0  0  0  0  0  0  0
  183.8690  177.2310  140.0910 N   0  0  0  0  0  1  0  0  0  0  0  0
  181.5650  178.7490  141.6520 S   0  0  0  0  0  0  0  0  0  0  0  0
  183.1950  178.7940  141.8410 C   0  0  0  0  0  0  0  0  0  0  0  0
  183.7480  178.8720  143.2260 C   0  0  0  0  0  2  0  0  0  0  0  0
  184.9980  178.0220  143.3750 C   0  0  0  0  0  2  0  0  0  0  0  0
  185.4970  178.0650  144.8080 C   0  0  2  0  0  3  0  0  0  0  0  0
  185.7670  179.3860  145.1830 O   0  0  0  0  0  1  0  0  0  0  0  0
  186.7430  177.1980  144.9670 C   0  0  1  0  0  3  0  0  0  0  0  0
  187.0580  176.5650  143.7610 O   0  0  0  0  0  1  0  0  0  0  0  0
  187.9160  178.0530  145.4290 C   0  0  0  0  0  2  0  0  0  0  0  0
  191.4380  177.0200  144.8070 C   0  0  0  0  0  2  0  0  0  0  0  0
  189.4660  176.9180  146.9520 C   0  0  1  0  0  3  0  0  0  0  0  0
  190.2320  177.9550  144.9040 C   0  0  0  0  0  2  0  0  0  0  0  0
  191.8420  176.5300  146.1970 C   0  0  0  0  0  2  0  0  0  0  0  0
  189.1260  177.2450  145.5470 N   0  0  0  0  0  0  0  0  0  0  0  0
  190.6410  175.9280  146.9390 C   0  0  0  0  0  2  0  0  0  0  0  0
  190.5940  177.7720  148.9120 O   0  0  0  0  0  1  0  0  0  0  0  0
  189.7970  178.1510  147.8300 C   0  0  2  0  0  3  0  0  0  0  0  0
  187.6570  177.7940  149.0420 C   0  0  0  0  0  1  0  0  0  0  0  0
  188.5500  178.8200  148.3800 C   0  0  0  0  0  2  0  0  0  0  0  0
  1  5  2  0  0  0  0
  2 13  1  6  0  0  0
  2  1  1  0  0  0  0
  3  7  2  0  0  0  0
  4  3  1  0  0  0  0
  4 39  1  0  0  0  0
  5  9  1  0  0  0  0
  7  6  1  0  0  0  0
  8  2  1  0  0  0  0
  9  6  2  0  0  0  0
 10  8  1  1  0  0  0
 10  5  1  0  0  0  0
 10  3  1  0  0  0  0
 11 17  1  0  0  0  0
 11 16  2  0  0  0  0
 13 12  1  0  0  0  0
 14 15  1  0  0  0  0
 14 12  1  0  0  0  0
 16 13  1  0  0  0  0
 17 14  2  0  0  0  0
 18 16  1  0  0  0  0
 19 20  1  0  0  0  0
 19 25  1  0  0  0  0
 20 18  1  0  0  0  0
 21 19  2  0  0  0  0
 22 24  1  0  0  0  0
 23 30  1  0  0  0  0
 24 28  1  0  0  0  0
 24 23  2  0  0  0  0
 25 26  2  0  0  0  0
 26 23  1  0  0  0  0
 27 22  2  0  0  0  0
 27 25  1  0  0  0  0
 28 29  1  0  0  0  0
 31 30  1  0  0  0  0
 33 32  1  6  0  0  0
 33 31  1  0  0  0  0
 33 34  1  0  0  0  0
 34 35  1  0  0  0  0
 35 37  1  0  0  0  0
 36 37  1  0  0  0  0
 37 38  2  0  0  0  0
 39 40  1  0  0  0  0
 40 43  1  0  0  0  0
 41 40  1  0  0  0  0
 42 43  2  0  0  0  0
 43 44  1  0  0  0  0
 44 45  1  0  0  0  0
 45 46  1  0  0  0  0
 46 48  1  0  0  0  0
 46 47  1  6  0  0  0
 48 49  1  6  0  0  0
 48 50  1  0  0  0  0
 50 55  1  0  0  0  0
 51 53  1  0  0  0  0
 51 54  1  0  0  0  0
 52 58  1  1  0  0  0
 53 55  1  0  0  0  0
 54 56  1  0  0  0  0
 55 52  1  0  0  0  0
 56 52  1  0  0  0  0
 58 60  1  0  0  0  0
 58 57  1  1  0  0  0
 60 59  1  0  0  0  0
M  END
>  <MODEL>
4

>  <REMARK>
 VINA RESULT:      -5.9      4.335      9.530
  Name = 
  21 active torsions:
  status: ('A' for Active; 'I' for Inactive)
    1  A    between atoms: C_2  and  C_23
    2  A    between atoms: C_2  and  C_44
    3  A    between atoms: C_3  and  N_11
    4  A    between atoms: C_4  and  C_30
    5  A    between atoms: C_7  and  C_21
    6  A    between atoms: C_7  and  N_50
    7  A    between atoms: N_8  and  C_35
    8  A    between atoms: N_12  and  C_35
    9  A    between atoms: N_12  and  C_51
   10  A    between atoms: C_13  and  O_16
   11  A    between atoms: O_16  and  C_52
   12  A    between atoms: C_17  and  O_42
   13  A    between atoms: C_18  and  C_20
   14  A    between atoms: C_18  and  N_26
   15  A    between atoms: C_20  and  C_52
   16  A    between atoms: C_21  and  C_23
   17  A    between atoms: C_22  and  N_24
   18  A    between atoms: C_22  and  C_55
   19  A    between atoms: C_25  and  C_28
   20  A    between atoms: C_25  and  C_56
   21  A    between atoms: C_44  and  C_51
                            x       y       z     vdW  Elec       q    Type
                         _______ _______ _______ _____ _____    ______ ____

>  <TORSDO>
F 21

$$$$
=
 OpenBabel10232409083D

 60 64  0  0  1  0  0  0  0  0999 V2000
  189.3860  175.1190  135.9550 N   0  0  0  0  0  0  0  0  0  0  0  0
  189.8340  176.4930  136.1650 C   0  0  1  0  0  3  0  0  0  0  0  0
  186.0280  175.9800  136.7280 C   0  0  0  0  0  0  0  0  0  0  0  0
  185.2400  177.1540  136.9460 N   0  0  0  0  0  2  0  0  0  0  0  0
  188.1910  174.8910  136.3840 C   0  0  0  0  0  0  0  0  0  0  0  0
  186.2070  173.6520  136.1310 C   0  0  0  0  0  3  0  0  0  0  0  0
  185.4580  174.8570  136.3800 N   0  0  0  0  0  0  0  0  0  0  0  0
  188.3580  177.5050  136.5670 S   0  0  0  0  0  0  0  0  0  0  0  0
  187.5070  173.6660  136.1130 N   0  0  0  0  0  0  0  0  0  0  0  0
  187.4900  175.9990  137.0750 C   0  0  1  0  0  3  0  0  0  0  0  0
  193.0610  176.1240  137.9900 C   0  0  0  0  0  3  0  0  0  0  0  0
  190.4930  177.3040  138.4770 C   0  0  0  0  0  2  0  0  0  0  0  0
  190.8270  176.5860  137.2370 N   0  0  0  0  0  0  0  0  0  0  0  0
  191.4300  176.9640  139.6030 C   0  0  0  0  0  0  0  0  0  0  0  0
  191.0510  177.3080  141.0010 C   0  0  0  0  0  1  0  0  0  0  0  0
  192.1910  176.1860  136.9830 C   0  0  0  0  0  0  0  0  0  0  0  0
  192.6450  176.4720  139.3570 C   0  0  0  0  0  3  0  0  0  0  0  0
  192.6500  175.8140  135.6100 C   0  0  0  0  0  2  0  0  0  0  0  0
  195.0010  175.0850  134.9470 C   0  0  0  0  0  0  0  0  0  0  0  0
  194.0790  176.0500  135.4740 N   0  0  0  0  0  2  0  0  0  0  0  0
  196.0280  175.5000  134.3460 O   0  0  0  0  0  0  0  0  0  0  0  0
  193.3280  171.7810  135.3300 C   0  0  0  0  0  3  0  0  0  0  0  0
  195.7120  171.3700  135.2110 C   0  0  0  0  0  0  0  0  0  0  0  0
  194.3970  170.8660  135.3150 C   0  0  0  0  0  0  0  0  0  0  0  0
  194.8140  173.6260  135.1170 C   0  0  0  0  0  0  0  0  0  0  0  0
  195.9010  172.7510  135.1070 C   0  0  0  0  0  3  0  0  0  0  0  0
  193.5560  173.1180  135.2270 N   0  0  0  0  0  0  0  0  0  0  0  0
  194.1570  169.4900  135.4190 O   0  0  0  0  0  0  0  0  0  0  0  0
  193.5530  168.8970  136.5640 C   0  0  0  0  0  1  0  0  0  0  0  0
  196.8640  170.5710  135.2070 O   0  0  0  0  0  0  0  0  0  0  0  0
  198.2090  171.0290  135.3090 C   0  0  0  0  0  2  0  0  0  0  0  0
  197.8410  170.1130  137.4940 O   0  0  0  0  0  1  0  0  0  0  0  0
  198.7960  170.7340  136.6860 C   0  0  2  0  0  3  0  0  0  0  0  0
  199.2320  172.0350  137.3480 C   0  0  0  0  0  2  0  0  0  0  0  0
  199.3350  173.0940  136.3550 N   0  0  0  0  0  2  0  0  0  0  0  0
  197.8530  174.6650  137.6940 C   0  0  0  0  0  1  0  0  0  0  0  0
  198.7590  174.3870  136.5470 C   0  0  0  0  0  0  0  0  0  0  0  0
  199.0240  175.3130  135.7400 O   0  0  0  0  0  0  0  0  0  0  0  0
  183.7800  177.1440  136.9550 C   0  0  0  0  0  2  0  0  0  0  0  0
  183.2410  177.3400  138.3050 N   0  0  0  0  0  0  0  0  0  0  0  0
  183.3520  176.3130  139.2540 N   0  0  0  0  0  1  0  0  0  0  0  0
  181.2160  178.9820  138.8850 S   0  0  0  0  0  0  0  0  0  0  0  0
  182.8140  178.6380  138.7400 C   0  0  0  0  0  0  0  0  0  0  0  0
  183.8010  179.5660  139.3700 C   0  0  0  0  0  2  0  0  0  0  0  0
  184.2160  179.0840  140.7490 C   0  0  0  0  0  2  0  0  0  0  0  0
  185.7250  179.1690  140.9040 C   0  0  2  0  0  3  0  0  0  0  0  0
  186.3430  178.1880  140.1200 O   0  0  0  0  0  1  0  0  0  0  0  0
  186.1210  179.0120  142.3700 C   0  0  1  0  0  3  0  0  0  0  0  0
  185.0630  179.3780  143.2060 O   0  0  0  0  0  1  0  0  0  0  0  0
  186.5300  177.5700  142.6470 C   0  0  0  0  0  2  0  0  0  0  0  0
  189.9720  178.7420  143.4420 C   0  0  0  0  0  2  0  0  0  0  0  0
  187.9080  177.0410  144.6030 C   0  0  1  0  0  3  0  0  0  0  0  0
  188.4870  178.8420  143.0950 C   0  0  0  0  0  2  0  0  0  0  0  0
  190.1490  178.1730  144.8490 C   0  0  0  0  0  2  0  0  0  0  0  0
  187.8790  177.5150  143.1990 N   0  0  0  0  0  0  0  0  0  0  0  0
  189.3780  176.8560  145.0120 C   0  0  0  0  0  2  0  0  0  0  0  0
  187.9250  178.1120  146.7700 O   0  0  0  0  0  1  0  0  0  0  0  0
  187.1720  177.9670  145.6030 C   0  0  2  0  0  3  0  0  0  0  0  0
  185.0180  178.4900  146.7260 C   0  0  0  0  0  1  0  0  0  0  0  0
  185.8070  177.4280  145.9920 C   0  0  0  0  0  2  0  0  0  0  0  0
  1  2  1  0  0  0  0
  1  5  2  0  0  0  0
  2  8  1  0  0  0  0
  2 13  1  1  0  0  0
  3  4  1  0  0  0  0
  3 10  1  0  0  0  0
  4 39  1  0  0  0  0
  6  7  1  0  0  0  0
  7  3  2  0  0  0  0
  8 10  1  0  0  0  0
  9  6  2  0  0  0  0
  9  5  1  0  0  0  0
 10  5  1  6  0  0  0
 11 17  1  0  0  0  0
 12 14  1  0  0  0  0
 13 12  1  0  0  0  0
 14 15  1  0  0  0  0
 16 13  1  0  0  0  0
 16 11  2  0  0  0  0
 17 14  2  0  0  0  0
 18 16  1  0  0  0  0
 19 25  1  0  0  0  0
 19 20  1  0  0  0  0
 20 18  1  0  0  0  0
 21 19  2  0  0  0  0
 23 24  2  0  0  0  0
 24 22  1  0  0  0  0
 24 28  1  0  0  0  0
 25 27  1  0  0  0  0
 26 25  2  0  0  0  0
 26 23  1  0  0  0  0
 27 22  2  0  0  0  0
 28 29  1  0  0  0  0
 30 23  1  0  0  0  0
 30 31  1  0  0  0  0
 31 33  1  0  0  0  0
 33 34  1  0  0  0  0
 33 32  1  1  0  0  0
 35 37  1  0  0  0  0
 35 34  1  0  0  0  0
 37 36  1  0  0  0  0
 38 37  2  0  0  0  0
 39 40  1  0  0  0  0
 40 43  1  0  0  0  0
 40 41  1  0  0  0  0
 43 42  2  0  0  0  0
 43 44  1  0  0  0  0
 44 45  1  0  0  0  0
 45 46  1  0  0  0  0
 46 47  1  6  0  0  0
 46 48  1  0  0  0  0
 48 50  1  0  0  0  0
 48 49  1  1  0  0  0
 50 55  1  0  0  0  0
 51 54  1  0  0  0  0
 52 56  1  0  0  0  0
 52 58  1  1  0  0  0
 53 55  1  0  0  0  0
 53 51  1  0  0  0  0
 54 56  1  0  0  0  0
 55 52  1  0  0  0  0
 58 60  1  0  0  0  0
 58 57  1  1  0  0  0
 60 59  1  0  0  0  0
M  END
>  <MODEL>
5

>  <REMARK>
 VINA RESULT:      -5.9      2.605     12.120
  Name = 
  21 active torsions:
  status: ('A' for Active; 'I' for Inactive)
    1  A    between atoms: C_2  and  C_23
    2  A    between atoms: C_2  and  C_44
    3  A    between atoms: C_3  and  N_11
    4  A    between atoms: C_4  and  C_30
    5  A    between atoms: C_7  and  C_21
    6  A    between atoms: C_7  and  N_50
    7  A    between atoms: N_8  and  C_35
    8  A    between atoms: N_12  and  C_35
    9  A    between atoms: N_12  and  C_51
   10  A    between atoms: C_13  and  O_16
   11  A    between atoms: O_16  and  C_52
   12  A    between atoms: C_17  and  O_42
   13  A    between atoms: C_18  and  C_20
   14  A    between atoms: C_18  and  N_26
   15  A    between atoms: C_20  and  C_52
   16  A    between atoms: C_21  and  C_23
   17  A    between atoms: C_22  and  N_24
   18  A    between atoms: C_22  and  C_55
   19  A    between atoms: C_25  and  C_28
   20  A    between atoms: C_25  and  C_56
   21  A    between atoms: C_44  and  C_51
                            x       y       z     vdW  Elec       q    Type
                         _______ _______ _______ _____ _____    ______ ____

>  <TORSDO>
F 21

$$$$
=
 OpenBabel10232409083D

 60 64  0  0  1  0  0  0  0  0999 V2000
  189.5710  175.2810  136.1340 N   0  0  0  0  0  0  0  0  0  0  0  0
  189.9050  176.6860  136.3450 C   0  0  1  0  0  3  0  0  0  0  0  0
  186.1100  175.9190  136.6190 C   0  0  0  0  0  0  0  0  0  0  0  0
  185.2290  177.0390  136.7460 N   0  0  0  0  0  2  0  0  0  0  0  0
  188.3630  174.9770  136.4720 C   0  0  0  0  0  0  0  0  0  0  0  0
  186.4950  173.6000  136.0920 C   0  0  0  0  0  3  0  0  0  0  0  0
  185.6480  174.7540  136.2530 N   0  0  0  0  0  0  0  0  0  0  0  0
  188.3370  177.6000  136.6070 S   0  0  0  0  0  0  0  0  0  0  0  0
  187.7880  173.7040  136.1760 N   0  0  0  0  0  0  0  0  0  0  0  0
  187.5350  176.0460  137.0790 C   0  0  1  0  0  3  0  0  0  0  0  0
  192.9770  176.5230  138.4490 C   0  0  0  0  0  3  0  0  0  0  0  0
  190.3400  177.6320  138.6600 C   0  0  0  0  0  2  0  0  0  0  0  0
  190.8010  176.8660  137.4910 N   0  0  0  0  0  0  0  0  0  0  0  0
  191.1890  177.3800  139.8750 C   0  0  0  0  0  0  0  0  0  0  0  0
  190.6830  177.7780  141.2170 C   0  0  0  0  0  1  0  0  0  0  0  0
  192.1930  176.5040  137.3710 C   0  0  0  0  0  0  0  0  0  0  0  0
  192.4360  176.9210  139.7560 C   0  0  0  0  0  3  0  0  0  0  0  0
  192.7780  176.0820  136.0620 C   0  0  0  0  0  2  0  0  0  0  0  0
  195.0860  176.3390  135.0070 C   0  0  0  0  0  0  0  0  0  0  0  0
  193.9860  176.8440  135.7800 N   0  0  0  0  0  2  0  0  0  0  0  0
  195.7800  177.1560  134.3460 O   0  0  0  0  0  0  0  0  0  0  0  0
  194.8130  172.6450  134.6360 C   0  0  0  0  0  3  0  0  0  0  0  0
  197.1320  173.1490  135.1170 C   0  0  0  0  0  0  0  0  0  0  0  0
  196.1330  172.1950  134.8220 C   0  0  0  0  0  0  0  0  0  0  0  0
  195.4580  174.9060  134.9900 C   0  0  0  0  0  0  0  0  0  0  0  0
  196.7780  174.4990  135.1910 C   0  0  0  0  0  3  0  0  0  0  0  0
  194.5100  173.9680  134.7170 N   0  0  0  0  0  0  0  0  0  0  0  0
  196.4400  170.8320  134.7360 O   0  0  0  0  0  0  0  0  0  0  0  0
  196.5040  169.9820  135.8760 C   0  0  0  0  0  1  0  0  0  0  0  0
  198.4790  172.8350  135.3470 O   0  0  0  0  0  0  0  0  0  0  0  0
  199.5070  173.7470  135.7200 C   0  0  0  0  0  2  0  0  0  0  0  0
  199.3250  172.4850  137.7510 O   0  0  0  0  0  1  0  0  0  0  0  0
  199.7850  173.6920  137.2190 C   0  0  2  0  0  3  0  0  0  0  0  0
  199.0710  174.8430  137.9170 C   0  0  0  0  0  2  0  0  0  0  0  0
  199.6150  175.0350  139.2530 N   0  0  0  0  0  2  0  0  0  0  0  0
  197.3120  175.0400  140.3270 C   0  0  0  0  0  1  0  0  0  0  0  0
  198.7970  175.0390  140.4240 C   0  0  0  0  0  0  0  0  0  0  0  0
  199.3340  175.0350  141.5600 O   0  0  0  0  0  0  0  0  0  0  0  0
  183.7770  176.9280  136.6410 C   0  0  0  0  0  2  0  0  0  0  0  0
  183.1280  176.9900  137.9550 N   0  0  0  0  0  0  0  0  0  0  0  0
  183.3360  175.9580  138.8830 N   0  0  0  0  0  1  0  0  0  0  0  0
  180.8380  178.2810  138.4260 S   0  0  0  0  0  0  0  0  0  0  0  0
  182.4760  178.1900  138.3920 C   0  0  0  0  0  0  0  0  0  0  0  0
  183.2610  179.2330  139.1180 C   0  0  0  0  0  2  0  0  0  0  0  0
  183.7230  178.7360  140.4770 C   0  0  0  0  0  2  0  0  0  0  0  0
  185.1530  179.1740  140.7400 C   0  0  2  0  0  3  0  0  0  0  0  0
  185.9540  178.8920  139.6270 O   0  0  0  0  0  1  0  0  0  0  0  0
  185.7030  178.4840  141.9850 C   0  0  1  0  0  3  0  0  0  0  0  0
  186.7030  177.5710  141.6400 O   0  0  0  0  0  1  0  0  0  0  0  0
  186.2570  179.5220  142.9540 C   0  0  0  0  0  2  0  0  0  0  0  0
  183.6260  178.5510  145.4010 C   0  0  0  0  0  2  0  0  0  0  0  0
  186.4960  179.0560  145.3480 C   0  0  1  0  0  3  0  0  0  0  0  0
  184.4840  178.4720  144.1380 C   0  0  0  0  0  2  0  0  0  0  0  0
  184.4770  178.2680  146.6380 C   0  0  0  0  0  2  0  0  0  0  0  0
  185.5820  179.4330  144.2450 N   0  0  0  0  0  0  0  0  0  0  0  0
  185.7190  179.1680  146.6690 C   0  0  0  0  0  2  0  0  0  0  0  0
  186.9730  176.9240  146.3830 O   0  0  0  0  0  1  0  0  0  0  0  0
  187.1260  177.6490  145.1990 C   0  0  2  0  0  3  0  0  0  0  0  0
  189.4230  177.4080  146.1160 C   0  0  0  0  0  1  0  0  0  0  0  0
  188.6080  177.7100  144.8770 C   0  0  0  0  0  2  0  0  0  0  0  0
  1  2  1  0  0  0  0
  1  5  2  0  0  0  0
  2  8  1  0  0  0  0
  2 13  1  1  0  0  0
  3  4  1  0  0  0  0
  3 10  1  0  0  0  0
  6  9  2  0  0  0  0
  6  7  1  0  0  0  0
  7  3  2  0  0  0  0
  8 10  1  0  0  0  0
  9  5  1  0  0  0  0
 10  5  1  6  0  0  0
 11 17  1  0  0  0  0
 12 14  1  0  0  0  0
 13 12  1  0  0  0  0
 14 15  1  0  0  0  0
 16 13  1  0  0  0  0
 16 11  2  0  0  0  0
 17 14  2  0  0  0  0
 18 16  1  0  0  0  0
 19 20  1  0  0  0  0
 20 18  1  0  0  0  0
 21 19  2  0  0  0  0
 22 27  2  0  0  0  0
 22 24  1  0  0  0  0
 23 26  1  0  0  0  0
 23 30  1  0  0  0  0
 24 23  2  0  0  0  0
 25 19  1  0  0  0  0
 25 26  2  0  0  0  0
 27 25  1  0  0  0  0
 28 24  1  0  0  0  0
 28 29  1  0  0  0  0
 30 31  1  0  0  0  0
 31 33  1  0  0  0  0
 33 32  1  1  0  0  0
 33 34  1  0  0  0  0
 34 35  1  0  0  0  0
 35 37  1  0  0  0  0
 36 37  1  0  0  0  0
 37 38  2  0  0  0  0
 39  4  1  0  0  0  0
 39 40  1  0  0  0  0
 40 43  1  0  0  0  0
 40 41  1  0  0  0  0
 43 42  2  0  0  0  0
 43 44  1  0  0  0  0
 44 45  1  0  0  0  0
 45 46  1  0  0  0  0
 46 47  1  6  0  0  0
 46 48  1  0  0  0  0
 48 49  1  6  0  0  0
 48 50  1  0  0  0  0
 50 55  1  0  0  0  0
 51 54  1  0  0  0  0
 52 58  1  6  0  0  0
 52 56  1  0  0  0  0
 53 55  1  0  0  0  0
 53 51  1  0  0  0  0
 54 56  1  0  0  0  0
 55 52  1  0  0  0  0
 58 57  1  1  0  0  0
 60 58  1  0  0  0  0
 60 59  1  0  0  0  0
M  END
>  <MODEL>
6

>  <REMARK>
 VINA RESULT:      -5.5      2.827     12.524
  Name = 
  21 active torsions:
  status: ('A' for Active; 'I' for Inactive)
    1  A    between atoms: C_2  and  C_23
    2  A    between atoms: C_2  and  C_44
    3  A    between atoms: C_3  and  N_11
    4  A    between atoms: C_4  and  C_30
    5  A    between atoms: C_7  and  C_21
    6  A    between atoms: C_7  and  N_50
    7  A    between atoms: N_8  and  C_35
    8  A    between atoms: N_12  and  C_35
    9  A    between atoms: N_12  and  C_51
   10  A    between atoms: C_13  and  O_16
   11  A    between atoms: O_16  and  C_52
   12  A    between atoms: C_17  and  O_42
   13  A    between atoms: C_18  and  C_20
   14  A    between atoms: C_18  and  N_26
   15  A    between atoms: C_20  and  C_52
   16  A    between atoms: C_21  and  C_23
   17  A    between atoms: C_22  and  N_24
   18  A    between atoms: C_22  and  C_55
   19  A    between atoms: C_25  and  C_28
   20  A    between atoms: C_25  and  C_56
   21  A    between atoms: C_44  and  C_51
                            x       y       z     vdW  Elec       q    Type
                         _______ _______ _______ _____ _____    ______ ____

>  <TORSDO>
F 21

$$$$
=
 OpenBabel10232409083D

 60 64  0  0  1  0  0  0  0  0999 V2000
  190.4010  178.4360  142.1040 N   0  0  0  0  0  0  0  0  0  0  0  0
  188.9690  178.6540  142.2880 C   0  0  1  0  0  3  0  0  0  0  0  0
  189.8620  176.7860  139.0050 C   0  0  0  0  0  0  0  0  0  0  0  0
  188.7960  176.5540  138.0800 N   0  0  0  0  0  2  0  0  0  0  0  0
  190.6830  177.6030  141.1600 C   0  0  0  0  0  0  0  0  0  0  0  0
  192.2150  176.9480  139.5000 C   0  0  0  0  0  3  0  0  0  0  0  0
  191.1060  176.7050  138.6140 N   0  0  0  0  0  0  0  0  0  0  0  0
  188.1100  177.9940  140.8080 S   0  0  0  0  0  0  0  0  0  0  0  0
  192.0210  177.3940  140.7060 N   0  0  0  0  0  0  0  0  0  0  0  0
  189.5480  176.9490  140.4650 C   0  0  1  0  0  3  0  0  0  0  0  0
  186.5840  177.4160  144.8690 C   0  0  0  0  0  3  0  0  0  0  0  0
  189.4080  177.2910  144.3830 C   0  0  0  0  0  2  0  0  0  0  0  0
  188.4690  178.0050  143.5030 N   0  0  0  0  0  0  0  0  0  0  0  0
  188.8310  177.0480  145.7510 C   0  0  0  0  0  0  0  0  0  0  0  0
  189.7360  176.6650  146.8690 C   0  0  0  0  0  1  0  0  0  0  0  0
  187.0470  177.8660  143.7030 C   0  0  0  0  0  0  0  0  0  0  0  0
  187.5120  177.0500  145.9480 C   0  0  0  0  0  3  0  0  0  0  0  0
  186.0700  178.2380  142.6350 C   0  0  0  0  0  2  0  0  0  0  0  0
  183.6880  179.0980  142.9380 C   0  0  0  0  0  0  0  0  0  0  0  0
  185.1050  179.2000  143.1470 N   0  0  0  0  0  2  0  0  0  0  0  0
  182.9160  179.5680  143.8140 O   0  0  0  0  0  0  0  0  0  0  0  0
  181.1640  177.9230  140.4650 C   0  0  0  0  0  3  0  0  0  0  0  0
  183.3500  177.5620  139.4880 C   0  0  0  0  0  0  0  0  0  0  0  0
  181.9440  177.4920  139.3760 C   0  0  0  0  0  0  0  0  0  0  0  0
  183.1030  178.4990  141.7160 C   0  0  0  0  0  0  0  0  0  0  0  0
  183.9120  178.0730  140.6610 C   0  0  0  0  0  3  0  0  0  0  0  0
  181.7510  178.4140  141.5900 N   0  0  0  0  0  0  0  0  0  0  0  0
  181.3360  176.9890  138.2200 O   0  0  0  0  0  0  0  0  0  0  0  0
  180.6320  175.7520  138.1950 C   0  0  0  0  0  1  0  0  0  0  0  0
  184.2420  177.1450  138.4890 O   0  0  0  0  0  0  0  0  0  0  0  0
  183.9240  176.3480  137.3530 C   0  0  0  0  0  2  0  0  0  0  0  0
  184.9020  175.8340  135.2250 O   0  0  0  0  0  1  0  0  0  0  0  0
  185.1800  175.9380  136.5900 C   0  0  2  0  0  3  0  0  0  0  0  0
  185.6710  174.5880  137.0980 C   0  0  0  0  0  2  0  0  0  0  0  0
  184.5400  173.7250  137.4040 N   0  0  0  0  0  2  0  0  0  0  0  0
  185.3070  171.9290  135.7790 C   0  0  0  0  0  1  0  0  0  0  0  0
  184.3990  172.4150  136.8530 C   0  0  0  0  0  0  0  0  0  0  0  0
  183.4990  171.6500  137.2830 O   0  0  0  0  0  0  0  0  0  0  0  0
  189.0120  176.0650  136.7210 C   0  0  0  0  0  2  0  0  0  0  0  0
  189.2710  174.6210  136.6950 N   0  0  0  0  0  0  0  0  0  0  0  0
  189.0970  173.8620  137.8610 N   0  0  0  0  0  1  0  0  0  0  0  0
  188.2440  173.8030  134.3690 S   0  0  0  0  0  0  0  0  0  0  0  0
  189.4720  173.9380  135.4500 C   0  0  0  0  0  0  0  0  0  0  0  0
  190.8600  173.6360  134.9890 C   0  0  0  0  0  2  0  0  0  0  0  0
  191.7130  174.8920  134.9330 C   0  0  0  0  0  2  0  0  0  0  0  0
  192.8470  174.8040  135.9390 C   0  0  2  0  0  3  0  0  0  0  0  0
  193.2980  176.0870  136.2690 O   0  0  0  0  0  1  0  0  0  0  0  0
  193.9910  173.9600  135.3830 C   0  0  1  0  0  3  0  0  0  0  0  0
  194.9130  174.7660  134.7100 O   0  0  0  0  0  1  0  0  0  0  0  0
  194.6820  173.2090  136.5140 C   0  0  0  0  0  2  0  0  0  0  0  0
  197.8850  174.6140  137.7880 C   0  0  0  0  0  2  0  0  0  0  0  0
  196.9520  172.3260  136.2410 C   0  0  1  0  0  3  0  0  0  0  0  0
  196.4560  174.0740  137.8390 C   0  0  0  0  0  2  0  0  0  0  0  0
  198.8580  173.5010  137.4030 C   0  0  0  0  0  2  0  0  0  0  0  0
  196.1100  173.5100  136.5340 N   0  0  0  0  0  0  0  0  0  0  0  0
  198.4090  172.7980  136.1150 C   0  0  0  0  0  2  0  0  0  0  0  0
  198.0320  170.4750  137.3610 O   0  0  0  0  0  1  0  0  0  0  0  0
  196.8330  171.1860  137.2840 C   0  0  2  0  0  3  0  0  0  0  0  0
  195.0580  169.7130  138.2070 C   0  0  0  0  0  1  0  0  0  0  0  0
  195.7280  170.2040  136.9420 C   0  0  0  0  0  2  0  0  0  0  0  0
  1  2  1  0  0  0  0
  2 13  1  1  0  0  0
  4  3  1  0  0  0  0
  5  1  2  0  0  0  0
  6  9  2  0  0  0  0
  7  3  2  0  0  0  0
  7  6  1  0  0  0  0
  8  2  1  0  0  0  0
  9  5  1  0  0  0  0
 10  3  1  6  0  0  0
 10  8  1  0  0  0  0
 10  5  1  0  0  0  0
 11 17  1  0  0  0  0
 12 14  1  0  0  0  0
 13 16  1  0  0  0  0
 13 12  1  0  0  0  0
 14 17  2  0  0  0  0
 14 15  1  0  0  0  0
 16 11  2  0  0  0  0
 18 20  1  0  0  0  0
 18 16  1  0  0  0  0
 19 20  1  0  0  0  0
 19 21  2  0  0  0  0
 22 27  1  0  0  0  0
 23 26  2  0  0  0  0
 24 23  1  0  0  0  0
 24 22  2  0  0  0  0
 25 19  1  0  0  0  0
 26 25  1  0  0  0  0
 27 25  2  0  0  0  0
 28 24  1  0  0  0  0
 29 28  1  0  0  0  0
 30 23  1  0  0  0  0
 31 30  1  0  0  0  0
 33 32  1  6  0  0  0
 33 34  1  0  0  0  0
 33 31  1  0  0  0  0
 34 35  1  0  0  0  0
 36 37  1  0  0  0  0
 37 38  2  0  0  0  0
 37 35  1  0  0  0  0
 39  4  1  0  0  0  0
 40 39  1  0  0  0  0
 40 41  1  0  0  0  0
 42 43  2  0  0  0  0
 43 40  1  0  0  0  0
 44 43  1  0  0  0  0
 45 44  1  0  0  0  0
 45 46  1  0  0  0  0
 46 47  1  6  0  0  0
 48 49  1  1  0  0  0
 48 46  1  0  0  0  0
 48 50  1  0  0  0  0
 50 55  1  0  0  0  0
 51 53  1  0  0  0  0
 52 55  1  0  0  0  0
 52 58  1  1  0  0  0
 54 51  1  0  0  0  0
 55 53  1  0  0  0  0
 56 52  1  0  0  0  0
 56 54  1  0  0  0  0
 58 57  1  6  0  0  0
 60 58  1  0  0  0  0
 60 59  1  0  0  0  0
M  END
>  <MODEL>
7

>  <REMARK>
 VINA RESULT:      -5.4      1.363      2.131
  Name = 
  21 active torsions:
  status: ('A' for Active; 'I' for Inactive)
    1  A    between atoms: C_2  and  C_23
    2  A    between atoms: C_2  and  C_44
    3  A    between atoms: C_3  and  N_11
    4  A    between atoms: C_4  and  C_30
    5  A    between atoms: C_7  and  C_21
    6  A    between atoms: C_7  and  N_50
    7  A    between atoms: N_8  and  C_35
    8  A    between atoms: N_12  and  C_35
    9  A    between atoms: N_12  and  C_51
   10  A    between atoms: C_13  and  O_16
   11  A    between atoms: O_16  and  C_52
   12  A    between atoms: C_17  and  O_42
   13  A    between atoms: C_18  and  C_20
   14  A    between atoms: C_18  and  N_26
   15  A    between atoms: C_20  and  C_52
   16  A    between atoms: C_21  and  C_23
   17  A    between atoms: C_22  and  N_24
   18  A    between atoms: C_22  and  C_55
   19  A    between atoms: C_25  and  C_28
   20  A    between atoms: C_25  and  C_56
   21  A    between atoms: C_44  and  C_51
                            x       y       z     vdW  Elec       q    Type
                         _______ _______ _______ _____ _____    ______ ____

>  <TORSDO>
F 21

$$$$
=
 OpenBabel10232409083D

 60 64  0  0  1  0  0  0  0  0999 V2000
  187.7680  176.7650  136.4290 N   0  0  0  0  0  0  0  0  0  0  0  0
  188.4320  177.9200  137.0260 C   0  0  1  0  0  3  0  0  0  0  0  0
  184.5910  177.8540  137.5860 C   0  0  0  0  0  0  0  0  0  0  0  0
  184.0030  179.0110  138.1890 N   0  0  0  0  0  2  0  0  0  0  0  0
  186.5500  176.6030  136.8240 C   0  0  0  0  0  0  0  0  0  0  0  0
  184.3930  175.8270  136.2990 C   0  0  0  0  0  3  0  0  0  0  0  0
  183.8480  176.9970  136.9390 N   0  0  0  0  0  0  0  0  0  0  0  0
  187.1390  178.9740  137.7880 S   0  0  0  0  0  0  0  0  0  0  0  0
  185.6780  175.6440  136.2240 N   0  0  0  0  0  0  0  0  0  0  0  0
  186.0360  177.5390  137.8520 C   0  0  1  0  0  3  0  0  0  0  0  0
  191.4080  176.2680  138.5430 C   0  0  0  0  0  3  0  0  0  0  0  0
  189.3610  178.0950  139.3810 C   0  0  0  0  0  2  0  0  0  0  0  0
  189.4240  177.5210  138.0280 N   0  0  0  0  0  0  0  0  0  0  0  0
  190.1630  177.3000  140.3740 C   0  0  0  0  0  0  0  0  0  0  0  0
  189.9420  177.5120  141.8310 C   0  0  0  0  0  1  0  0  0  0  0  0
  190.5830  176.7630  137.6200 C   0  0  0  0  0  0  0  0  0  0  0  0
  191.1520  176.5000  139.9720 C   0  0  0  0  0  3  0  0  0  0  0  0
  190.8710  176.4950  136.1780 C   0  0  0  0  0  2  0  0  0  0  0  0
  192.9850  175.6250  135.0490 C   0  0  0  0  0  0  0  0  0  0  0  0
  192.3050  176.5260  135.9360 N   0  0  0  0  0  2  0  0  0  0  0  0
  194.0260  176.0280  134.4640 O   0  0  0  0  0  0  0  0  0  0  0  0
  193.0820  171.9260  134.6400 C   0  0  0  0  0  3  0  0  0  0  0  0
  190.7560  172.5970  134.5620 C   0  0  0  0  0  0  0  0  0  0  0  0
  191.7250  171.5700  134.5340 C   0  0  0  0  0  0  0  0  0  0  0  0
  192.5340  174.2320  134.8260 C   0  0  0  0  0  0  0  0  0  0  0  0
  191.1780  173.9210  134.7150 C   0  0  0  0  0  3  0  0  0  0  0  0
  193.4500  173.2270  134.7870 N   0  0  0  0  0  0  0  0  0  0  0  0
  191.3510  170.2290  134.3850 O   0  0  0  0  0  0  0  0  0  0  0  0
  191.8730  169.1870  135.2020 C   0  0  0  0  0  1  0  0  0  0  0  0
  189.3760  172.3830  134.4440 O   0  0  0  0  0  0  0  0  0  0  0  0
  188.3460  173.2960  134.8080 C   0  0  0  0  0  2  0  0  0  0  0  0
  187.7050  171.9580  136.6910 O   0  0  0  0  0  1  0  0  0  0  0  0
  187.2120  172.5940  135.5490 C   0  0  2  0  0  3  0  0  0  0  0  0
  186.5730  171.5510  134.6400 C   0  0  0  0  0  2  0  0  0  0  0  0
  185.1940  171.3170  135.0380 N   0  0  0  0  0  2  0  0  0  0  0  0
  185.4340  168.7940  134.8480 C   0  0  0  0  0  1  0  0  0  0  0  0
  184.6600  170.0050  135.2310 C   0  0  0  0  0  0  0  0  0  0  0  0
  183.5190  169.8650  135.7390 O   0  0  0  0  0  0  0  0  0  0  0  0
  182.5610  179.2250  138.2640 C   0  0  0  0  0  2  0  0  0  0  0  0
  182.0810  179.2260  139.6500 N   0  0  0  0  0  0  0  0  0  0  0  0
  180.9230  179.9440  139.9850 N   0  0  0  0  0  1  0  0  0  0  0  0
  182.3570  176.7110  140.5030 S   0  0  0  0  0  0  0  0  0  0  0  0
  182.6370  178.3240  140.6160 C   0  0  0  0  0  0  0  0  0  0  0  0
  183.7250  178.7940  141.5250 C   0  0  0  0  0  2  0  0  0  0  0  0
  184.2210  177.6750  142.4250 C   0  0  0  0  0  2  0  0  0  0  0  0
  184.9750  178.2490  143.6120 C   0  0  2  0  0  3  0  0  0  0  0  0
  184.8220  179.6390  143.6510 O   0  0  0  0  0  1  0  0  0  0  0  0
  186.4520  177.8740  143.5380 C   0  0  1  0  0  3  0  0  0  0  0  0
  186.9710  178.1650  142.2730 O   0  0  0  0  0  1  0  0  0  0  0  0
  187.2340  178.6270  144.6070 C   0  0  0  0  0  2  0  0  0  0  0  0
  190.6130  177.5020  145.6910 C   0  0  0  0  0  2  0  0  0  0  0  0
  187.8410  177.2900  146.5700 C   0  0  1  0  0  3  0  0  0  0  0  0
  189.5090  178.4760  145.2790 C   0  0  0  0  0  2  0  0  0  0  0  0
  190.2830  176.8690  147.0420 C   0  0  0  0  0  2  0  0  0  0  0  0
  188.2350  177.7600  145.2200 N   0  0  0  0  0  0  0  0  0  0  0  0
  188.8770  176.2540  147.0340 C   0  0  0  0  0  2  0  0  0  0  0  0
  187.5980  177.8790  148.9020 O   0  0  0  0  0  1  0  0  0  0  0  0
  187.6880  178.4210  147.6170 C   0  0  2  0  0  3  0  0  0  0  0  0
  185.2320  178.3790  147.2400 C   0  0  0  0  0  1  0  0  0  0  0  0
  186.4500  179.2660  147.3790 C   0  0  0  0  0  2  0  0  0  0  0  0
  1  5  2  0  0  0  0
  1  2  1  0  0  0  0
  2  8  1  0  0  0  0
  2 13  1  1  0  0  0
  3 10  1  0  0  0  0
  3  4  1  0  0  0  0
  4 39  1  0  0  0  0
  6  7  1  0  0  0  0
  7  3  2  0  0  0  0
  8 10  1  0  0  0  0
  9  6  2  0  0  0  0
  9  5  1  0  0  0  0
 10  5  1  6  0  0  0
 11 17  1  0  0  0  0
 12 14  1  0  0  0  0
 13 12  1  0  0  0  0
 14 15  1  0  0  0  0
 16 13  1  0  0  0  0
 16 11  2  0  0  0  0
 17 14  2  0  0  0  0
 18 16  1  0  0  0  0
 19 20  1  0  0  0  0
 20 18  1  0  0  0  0
 21 19  2  0  0  0  0
 22 27  1  0  0  0  0
 23 26  2  0  0  0  0
 24 23  1  0  0  0  0
 24 22  2  0  0  0  0
 25 19  1  0  0  0  0
 26 25  1  0  0  0  0
 27 25  2  0  0  0  0
 28 24  1  0  0  0  0
 28 29  1  0  0  0  0
 30 23  1  0  0  0  0
 30 31  1  0  0  0  0
 31 33  1  0  0  0  0
 33 32  1  1  0  0  0
 34 35  1  0  0  0  0
 34 33  1  0  0  0  0
 35 37  1  0  0  0  0
 36 37  1  0  0  0  0
 37 38  2  0  0  0  0
 39 40  1  0  0  0  0
 40 41  1  0  0  0  0
 40 43  1  0  0  0  0
 42 43  2  0  0  0  0
 43 44  1  0  0  0  0
 44 45  1  0  0  0  0
 45 46  1  0  0  0  0
 46 47  1  6  0  0  0
 48 49  1  6  0  0  0
 48 46  1  0  0  0  0
 48 50  1  0  0  0  0
 50 55  1  0  0  0  0
 51 54  1  0  0  0  0
 52 56  1  0  0  0  0
 52 58  1  1  0  0  0
 53 51  1  0  0  0  0
 55 53  1  0  0  0  0
 55 52  1  0  0  0  0
 56 54  1  0  0  0  0
 58 57  1  1  0  0  0
 59 60  1  0  0  0  0
 60 58  1  0  0  0  0
M  END
>  <MODEL>
8

>  <REMARK>
 VINA RESULT:      -4.8      3.334     10.630
  Name = 
  21 active torsions:
  status: ('A' for Active; 'I' for Inactive)
    1  A    between atoms: C_2  and  C_23
    2  A    between atoms: C_2  and  C_44
    3  A    between atoms: C_3  and  N_11
    4  A    between atoms: C_4  and  C_30
    5  A    between atoms: C_7  and  C_21
    6  A    between atoms: C_7  and  N_50
    7  A    between atoms: N_8  and  C_35
    8  A    between atoms: N_12  and  C_35
    9  A    between atoms: N_12  and  C_51
   10  A    between atoms: C_13  and  O_16
   11  A    between atoms: O_16  and  C_52
   12  A    between atoms: C_17  and  O_42
   13  A    between atoms: C_18  and  C_20
   14  A    between atoms: C_18  and  N_26
   15  A    between atoms: C_20  and  C_52
   16  A    between atoms: C_21  and  C_23
   17  A    between atoms: C_22  and  N_24
   18  A    between atoms: C_22  and  C_55
   19  A    between atoms: C_25  and  C_28
   20  A    between atoms: C_25  and  C_56
   21  A    between atoms: C_44  and  C_51
                            x       y       z     vdW  Elec       q    Type
                         _______ _______ _______ _____ _____    ______ ____

>  <TORSDO>
F 21

$$$$
=
 OpenBabel10232409083D

 60 64  0  0  1  0  0  0  0  0999 V2000
  188.1270  176.8120  142.0640 N   0  0  0  0  0  0  0  0  0  0  0  0
  188.7820  175.9040  143.0010 C   0  0  1  0  0  3  0  0  0  0  0  0
  191.1400  177.2820  140.2440 C   0  0  0  0  0  0  0  0  0  0  0  0
  192.4570  176.7250  140.1770 N   0  0  0  0  0  2  0  0  0  0  0  0
  188.9480  177.4650  141.3130 C   0  0  0  0  0  0  0  0  0  0  0  0
  189.3230  178.5000  139.2340 C   0  0  0  0  0  3  0  0  0  0  0  0
  190.6480  177.9360  139.2260 N   0  0  0  0  0  0  0  0  0  0  0  0
  190.5220  175.7020  142.4580 S   0  0  0  0  0  0  0  0  0  0  0  0
  188.5030  178.2630  140.2150 N   0  0  0  0  0  0  0  0  0  0  0  0
  190.3970  177.2630  141.5490 C   0  0  1  0  0  3  0  0  0  0  0  0
  187.5790  177.7320  146.0170 C   0  0  0  0  0  3  0  0  0  0  0  0
  189.7310  175.9560  145.3540 C   0  0  0  0  0  2  0  0  0  0  0  0
  188.7290  176.4070  144.3760 N   0  0  0  0  0  0  0  0  0  0  0  0
  189.7900  176.8500  146.5610 C   0  0  0  0  0  0  0  0  0  0  0  0
  190.9610  176.7670  147.4770 C   0  0  0  0  0  1  0  0  0  0  0  0
  187.5700  177.1430  144.8210 C   0  0  0  0  0  0  0  0  0  0  0  0
  188.7570  177.6260  146.8900 C   0  0  0  0  0  3  0  0  0  0  0  0
  186.3580  177.2840  143.9580 C   0  0  0  0  0  2  0  0  0  0  0  0
  184.4870  178.9740  143.5730 C   0  0  0  0  0  0  0  0  0  0  0  0
  185.6470  178.5120  144.2820 N   0  0  0  0  0  2  0  0  0  0  0  0
  183.6320  179.6540  144.1990 O   0  0  0  0  0  0  0  0  0  0  0  0
  184.9150  179.1460  139.8790 C   0  0  0  0  0  3  0  0  0  0  0  0
  183.2180  177.4780  140.3290 C   0  0  0  0  0  0  0  0  0  0  0  0
  184.0150  178.1780  139.3960 C   0  0  0  0  0  0  0  0  0  0  0  0
  184.2790  178.7170  142.1290 C   0  0  0  0  0  0  0  0  0  0  0  0
  183.3680  177.7550  141.6900 C   0  0  0  0  0  3  0  0  0  0  0  0
  185.0300  179.3860  141.2130 N   0  0  0  0  0  0  0  0  0  0  0  0
  183.9020  177.9330  138.0230 O   0  0  0  0  0  0  0  0  0  0  0  0
  185.0240  177.6450  137.1950 C   0  0  0  0  0  1  0  0  0  0  0  0
  182.2680  176.5070  139.9820 O   0  0  0  0  0  0  0  0  0  0  0  0
  181.0710  176.7240  139.2420 C   0  0  0  0  0  2  0  0  0  0  0  0
  180.2130  174.6260  138.4590 O   0  0  0  0  0  1  0  0  0  0  0  0
  180.9510  175.7480  138.0750 C   0  0  2  0  0  3  0  0  0  0  0  0
  182.3390  175.2990  137.6360 C   0  0  0  0  0  2  0  0  0  0  0  0
  182.3780  173.8520  137.4990 N   0  0  0  0  0  2  0  0  0  0  0  0
  184.9080  173.8150  137.2670 C   0  0  0  0  0  1  0  0  0  0  0  0
  183.6020  173.1190  137.4140 C   0  0  0  0  0  0  0  0  0  0  0  0
  183.5830  171.8640  137.4720 O   0  0  0  0  0  0  0  0  0  0  0  0
  193.3760  176.9790  139.0720 C   0  0  0  0  0  2  0  0  0  0  0  0
  193.1160  176.0930  137.9310 N   0  0  0  0  0  0  0  0  0  0  0  0
  192.3120  176.5400  136.8720 N   0  0  0  0  0  1  0  0  0  0  0  0
  195.1040  174.5230  138.7750 S   0  0  0  0  0  0  0  0  0  0  0  0
  193.8550  174.8740  137.7720 C   0  0  0  0  0  0  0  0  0  0  0  0
  193.2980  173.7810  136.9190 C   0  0  0  0  0  2  0  0  0  0  0  0
  193.0670  174.2500  135.4930 C   0  0  0  0  0  2  0  0  0  0  0  0
  192.3570  173.1720  134.6930 C   0  0  2  0  0  3  0  0  0  0  0  0
  191.0300  173.5460  134.4560 O   0  0  0  0  0  1  0  0  0  0  0  0
  192.4140  171.8360  135.4280 C   0  0  1  0  0  3  0  0  0  0  0  0
  191.4470  170.9590  134.9310 O   0  0  0  0  0  1  0  0  0  0  0  0
  193.8010  171.2200  135.2810 C   0  0  0  0  0  2  0  0  0  0  0  0
  193.8910  168.4760  137.7960 C   0  0  0  0  0  2  0  0  0  0  0  0
  195.6480  170.5550  136.7490 C   0  0  1  0  0  3  0  0  0  0  0  0
  193.7090  169.1420  136.4310 C   0  0  0  0  0  2  0  0  0  0  0  0
  195.3600  168.5220  138.2150 C   0  0  0  0  0  2  0  0  0  0  0  0
  194.1870  170.5230  136.5040 N   0  0  0  0  0  0  0  0  0  0  0  0
  195.9110  169.9520  138.1380 C   0  0  0  0  0  2  0  0  0  0  0  0
  197.4780  169.0490  136.2700 O   0  0  0  0  0  1  0  0  0  0  0  0
  196.4900  169.8310  135.6680 C   0  0  2  0  0  3  0  0  0  0  0  0
  198.6350  170.4420  134.5740 C   0  0  0  0  0  1  0  0  0  0  0  0
  197.1730  170.8010  134.7220 C   0  0  0  0  0  2  0  0  0  0  0  0
  1  2  1  0  0  0  0
  2 13  1  1  0  0  0
  4  3  1  0  0  0  0
  5 10  1  0  0  0  0
  5  1  2  0  0  0  0
  6  9  2  0  0  0  0
  7  6  1  0  0  0  0
  7  3  2  0  0  0  0
  8  2  1  0  0  0  0
  9  5  1  0  0  0  0
 10  3  1  6  0  0  0
 10  8  1  0  0  0  0
 11 17  1  0  0  0  0
 12 14  1  0  0  0  0
 13 16  1  0  0  0  0
 13 12  1  0  0  0  0
 14 17  2  0  0  0  0
 14 15  1  0  0  0  0
 16 11  2  0  0  0  0
 18 20  1  0  0  0  0
 18 16  1  0  0  0  0
 19 21  2  0  0  0  0
 19 20  1  0  0  0  0
 22 27  1  0  0  0  0
 23 26  2  0  0  0  0
 24 22  2  0  0  0  0
 24 23  1  0  0  0  0
 25 19  1  0  0  0  0
 26 25  1  0  0  0  0
 27 25  2  0  0  0  0
 28 24  1  0  0  0  0
 29 28  1  0  0  0  0
 30 23  1  0  0  0  0
 31 30  1  0  0  0  0
 33 32  1  1  0  0  0
 33 31  1  0  0  0  0
 34 33  1  0  0  0  0
 35 34  1  0  0  0  0
 36 37  1  0  0  0  0
 37 38  2  0  0  0  0
 37 35  1  0  0  0  0
 39  4  1  0  0  0  0
 40 39  1  0  0  0  0
 41 40  1  0  0  0  0
 43 40  1  0  0  0  0
 43 42  2  0  0  0  0
 44 43  1  0  0  0  0
 45 44  1  0  0  0  0
 46 47  1  1  0  0  0
 46 48  1  0  0  0  0
 46 45  1  0  0  0  0
 48 49  1  6  0  0  0
 50 48  1  0  0  0  0
 50 55  1  0  0  0  0
 51 54  1  0  0  0  0
 52 58  1  6  0  0  0
 52 56  1  0  0  0  0
 53 55  1  0  0  0  0
 53 51  1  0  0  0  0
 55 52  1  0  0  0  0
 56 54  1  0  0  0  0
 58 57  1  1  0  0  0
 59 60  1  0  0  0  0
 60 58  1  0  0  0  0
M  END
>  <MODEL>
9

>  <REMARK>
 VINA RESULT:      -4.7      2.163      2.924
  Name = 
  21 active torsions:
  status: ('A' for Active; 'I' for Inactive)
    1  A    between atoms: C_2  and  C_23
    2  A    between atoms: C_2  and  C_44
    3  A    between atoms: C_3  and  N_11
    4  A    between atoms: C_4  and  C_30
    5  A    between atoms: C_7  and  C_21
    6  A    between atoms: C_7  and  N_50
    7  A    between atoms: N_8  and  C_35
    8  A    between atoms: N_12  and  C_35
    9  A    between atoms: N_12  and  C_51
   10  A    between atoms: C_13  and  O_16
   11  A    between atoms: O_16  and  C_52
   12  A    between atoms: C_17  and  O_42
   13  A    between atoms: C_18  and  C_20
   14  A    between atoms: C_18  and  N_26
   15  A    between atoms: C_20  and  C_52
   16  A    between atoms: C_21  and  C_23
   17  A    between atoms: C_22  and  N_24
   18  A    between atoms: C_22  and  C_55
   19  A    between atoms: C_25  and  C_28
   20  A    between atoms: C_25  and  C_56
   21  A    between atoms: C_44  and  C_51
                            x       y       z     vdW  Elec       q    Type
                         _______ _______ _______ _____ _____    ______ ____

>  <TORSDO>
F 21

$$$$
