=
 OpenBabel10232408593D

 46 52  0  0  1  0  0  0  0  0999 V2000
  185.9290  178.7480  138.7750 N   0  0  0  0  0  2  0  0  0  0  0  0
  186.7780  177.9130  137.9400 C   0  0  1  0  0  3  0  0  0  0  0  0
  189.0620  179.5300  137.6960 O   0  0  0  0  0  1  0  0  0  0  0  0
  188.1020  177.4510  138.6250 C   0  0  2  0  0  3  0  0  0  0  0  0
  190.0630  175.8830  135.9100 C   0  0  0  0  0  2  0  0  0  0  0  0
  189.2780  178.4620  138.5750 C   0  0  1  0  0  3  0  0  0  0  0  0
  189.3660  177.1540  137.8040 C   0  0  1  0  0  0  0  0  0  0  0  0
  190.9580  175.4710  137.0870 C   0  0  2  0  0  3  0  0  0  0  0  0
  190.2650  176.0480  138.3390 C   0  0  1  0  0  3  0  0  0  0  0  0
  189.3890  177.1890  136.2910 C   0  0  0  0  0  2  0  0  0  0  0  0
  191.2040  176.5350  139.3460 N   0  0  0  0  0  1  0  0  0  0  0  0
  192.7460  176.0230  135.3820 C   0  0  0  0  0  1  0  0  0  0  0  0
  192.4020  175.9650  136.8630 C   0  0  2  0  0  3  0  0  0  0  0  0
  193.3040  175.0960  137.4810 O   0  0  0  0  0  1  0  0  0  0  0  0
  183.9680  177.1450  136.1620 C   0  0  0  0  0  0  0  0  0  0  0  0
  181.8270  177.0560  137.1000 C   0  0  0  0  0  3  0  0  0  0  0  0
  186.0020  176.8000  137.2140 C   0  0  2  0  0  3  0  0  0  0  0  0
  182.6240  177.2100  136.0020 N   0  0  0  0  0  0  0  0  0  0  0  0
  182.4090  176.8170  138.3640 C   0  0  0  0  0  3  0  0  0  0  0  0
  186.0890  177.0030  135.7120 C   0  0  0  0  0  3  0  0  0  0  0  0
  184.5290  176.9250  137.3760 C   0  0  0  0  0  0  0  0  0  0  0  0
  183.7680  176.7450  138.4850 N   0  0  0  0  0  0  0  0  0  0  0  0
  184.9370  177.1940  135.1340 N   0  0  0  0  0  0  0  0  0  0  0  0
  186.2300  178.4080  140.1560 C   0  0  0  0  0  2  0  0  0  0  0  0
  185.3090  179.1600  141.1070 C   0  0  0  0  0  2  0  0  0  0  0  0
  184.3690  178.2150  141.8400 C   0  0  0  0  0  2  0  0  0  0  0  0
  183.8660  178.6410  145.3560 C   0  0  0  0  0  3  0  0  0  0  0  0
  183.6940  178.8230  144.0780 C   0  0  0  0  0  0  0  0  0  0  0  0
  183.5390  178.9930  142.7980 C   0  0  0  0  0  3  0  0  0  0  0  0
  185.1850  178.9560  145.9740 C   0  0  0  0  0  2  0  0  0  0  0  0
  186.1850  177.8540  145.6590 C   0  0  0  0  0  2  0  0  0  0  0  0
  189.2110  177.7540  147.5900 C   0  0  0  0  0  0  0  0  0  0  0  0
  187.0380  177.7850  147.9560 N   0  0  0  0  0  0  0  0  0  0  0  0
  187.2490  177.8390  146.6510 N   0  0  0  0  0  0  0  0  0  0  0  0
  188.2340  177.7190  148.5700 C   0  0  0  0  0  3  0  0  0  0  0  0
  188.5630  177.8000  146.3740 C   0  0  0  0  0  3  0  0  0  0  0  0
  190.6820  177.5850  147.7810 C   0  0  0  0  0  2  0  0  0  0  0  0
  191.1330  176.1780  147.3880 C   0  0  1  0  0  3  0  0  0  0  0  0
  191.6980  176.0360  146.0100 C   0  0  2  0  0  3  0  0  0  0  0  0
  192.5200  176.1870  147.1410 O   0  0  0  0  0  0  0  0  0  0  0  0
  191.7670  177.3090  145.1670 C   0  0  0  0  0  2  0  0  0  0  0  0
  191.1320  177.1040  143.7990 C   0  0  0  0  0  0  0  0  0  0  0  0
  191.8260  177.8830  142.7090 C   0  0  0  0  0  2  0  0  0  0  0  0
  190.4400  178.2980  143.1790 C   0  0  0  0  0  2  0  0  0  0  0  0
  189.3400  175.7780  142.9270 O   0  0  0  0  0  1  0  0  0  0  0  0
  190.6740  175.7330  143.3370 C   0  0  0  0  0  2  0  0  0  0  0  0
  1 24  1  0  0  0  0
  2  1  1  1  0  0  0
  4  2  1  6  0  0  0
  5 10  1  0  0  0  0
  5  8  1  0  0  0  0
  6  3  1  6  0  0  0
  6  4  1  0  0  0  0
  7 10  1  6  0  0  0
  7  9  1  0  0  0  0
  7  6  1  0  0  0  0
  7  4  1  0  0  0  0
  8 13  1  6  0  0  0
  8  9  1  0  0  0  0
  9 11  1  1  0  0  0
 13 12  1  6  0  0  0
 13 14  1  0  0  0  0
 15 21  1  0  0  0  0
 16 19  2  0  0  0  0
 17 21  1  0  0  0  0
 17  2  1  1  0  0  0
 18 15  2  0  0  0  0
 18 16  1  0  0  0  0
 19 22  1  0  0  0  0
 20 17  1  0  0  0  0
 21 22  2  0  0  0  0
 23 20  2  0  0  0  0
 23 15  1  0  0  0  0
 24 25  1  0  0  0  0
 25 26  1  0  0  0  0
 26 29  1  0  0  0  0
 27 30  1  0  0  0  0
 28 27  2  0  0  0  0
 29 28  2  0  0  0  0
 31 30  1  0  0  0  0
 31 34  1  0  0  0  0
 32 37  1  0  0  0  0
 32 35  1  0  0  0  0
 33 35  2  0  0  0  0
 34 33  1  0  0  0  0
 36 34  1  0  0  0  0
 36 32  2  0  0  0  0
 38 37  1  6  0  0  0
 39 41  1  6  0  0  0
 39 40  1  0  0  0  0
 39 38  1  0  0  0  0
 40 38  1  0  0  0  0
 42 41  1  0  0  0  0
 43 44  1  0  0  0  0
 43 42  1  0  0  0  0
 44 42  1  0  0  0  0
 45 46  1  0  0  0  0
 46 42  1  0  0  0  0
M  END
>  <MODEL>
1

>  <REMARK>
 VINA RESULT:      -8.2      0.000      0.000
  Name = 
  16 active torsions:
  status: ('A' for Active; 'I' for Inactive)
    1  A    between atoms: C_1  and  C_12
    2  A    between atoms: C_3  and  C_42
    3  A    between atoms: C_6  and  C_41
    4  A    between atoms: C_7  and  C_42
    5  A    between atoms: C_9  and  C_19
    6  A    between atoms: C_9  and  C_26
    7  A    between atoms: C_10  and  C_41
    8  A    between atoms: C_12  and  C_40
    9  A    between atoms: N_15  and  C_21
   10  A    between atoms: N_15  and  C_42
   11  A    between atoms: C_21  and  C_23
   12  A    between atoms: C_23  and  C_31
   13  A    between atoms: C_25  and  C_38
   14  A    between atoms: C_26  and  C_39
   15  A    between atoms: N_27  and  C_40
   16  A    between atoms: C_28  and  C_31
                            x       y       z     vdW  Elec       q    Type
                         _______ _______ _______ _____ _____    ______ ____

>  <TORSDO>
F 16

$$$$
=
 OpenBabel10232408593D

 46 52  0  0  1  0  0  0  0  0999 V2000
  190.3930  177.4490  141.7510 N   0  0  0  0  0  2  0  0  0  0  0  0
  190.4510  176.9990  140.3700 C   0  0  1  0  0  3  0  0  0  0  0  0
  187.7990  177.9140  140.5180 O   0  0  0  0  0  1  0  0  0  0  0  0
  189.9600  178.0510  139.3280 C   0  0  2  0  0  3  0  0  0  0  0  0
  188.1530  176.0730  136.7790 C   0  0  0  0  0  2  0  0  0  0  0  0
  188.5360  178.6210  139.5600 C   0  0  1  0  0  3  0  0  0  0  0  0
  188.8150  177.7390  138.3530 C   0  0  1  0  0  0  0  0  0  0  0  0
  188.1650  177.4180  136.0390 C   0  0  2  0  0  3  0  0  0  0  0  0
  188.9120  178.3870  136.9790 C   0  0  1  0  0  3  0  0  0  0  0  0
  188.1600  176.3770  138.2670 C   0  0  0  0  0  2  0  0  0  0  0  0
  188.3650  179.7410  136.9650 N   0  0  0  0  0  1  0  0  0  0  0  0
  185.7730  176.6610  135.6990 C   0  0  0  0  0  1  0  0  0  0  0  0
  186.7270  177.8470  135.6810 C   0  0  2  0  0  3  0  0  0  0  0  0
  186.7010  178.4000  134.3990 O   0  0  0  0  0  1  0  0  0  0  0  0
  192.8000  176.4910  137.9470 C   0  0  0  0  0  0  0  0  0  0  0  0
  192.4300  175.1880  136.0380 C   0  0  0  0  0  3  0  0  0  0  0  0
  191.7800  176.3080  140.0170 C   0  0  2  0  0  3  0  0  0  0  0  0
  193.1200  176.1860  136.6660 N   0  0  0  0  0  0  0  0  0  0  0  0
  191.4200  174.4880  136.7330 C   0  0  0  0  0  3  0  0  0  0  0  0
  192.8950  177.3360  139.9450 C   0  0  0  0  0  3  0  0  0  0  0  0
  191.8230  175.8260  138.6120 C   0  0  0  0  0  0  0  0  0  0  0  0
  191.1320  174.8140  138.0280 N   0  0  0  0  0  0  0  0  0  0  0  0
  193.4600  177.4260  138.7760 N   0  0  0  0  0  0  0  0  0  0  0  0
  190.1760  176.2690  142.5720 C   0  0  0  0  0  2  0  0  0  0  0  0
  191.3600  176.0350  143.5010 C   0  0  0  0  0  2  0  0  0  0  0  0
  191.5060  177.1590  144.5150 C   0  0  0  0  0  2  0  0  0  0  0  0
  189.4160  177.5480  147.3930 C   0  0  0  0  0  3  0  0  0  0  0  0
  190.3730  177.0740  146.6470 C   0  0  0  0  0  0  0  0  0  0  0  0
  191.3200  176.6110  145.8860 C   0  0  0  0  0  3  0  0  0  0  0  0
  188.0000  177.4030  146.9550 C   0  0  0  0  0  2  0  0  0  0  0  0
  187.8930  177.6170  145.4530 C   0  0  0  0  0  2  0  0  0  0  0  0
  184.7520  178.5170  143.9630 C   0  0  0  0  0  0  0  0  0  0  0  0
  185.7180  178.6370  145.9400 N   0  0  0  0  0  0  0  0  0  0  0  0
  186.5490  178.0450  145.0980 N   0  0  0  0  0  0  0  0  0  0  0  0
  184.5960  178.9550  145.2670 C   0  0  0  0  0  3  0  0  0  0  0  0
  186.0130  177.9680  143.8690 C   0  0  0  0  0  3  0  0  0  0  0  0
  183.8220  178.7520  142.8190 C   0  0  0  0  0  2  0  0  0  0  0  0
  184.4420  178.2930  141.4990 C   0  0  1  0  0  3  0  0  0  0  0  0
  183.5800  178.4480  140.2860 C   0  0  2  0  0  3  0  0  0  0  0  0
  184.5580  179.3970  140.6320 O   0  0  0  0  0  0  0  0  0  0  0  0
  182.1940  179.0540  140.5080 C   0  0  0  0  0  2  0  0  0  0  0  0
  181.5380  179.4370  139.1880 C   0  0  0  0  0  0  0  0  0  0  0  0
  182.1870  180.6340  138.5380 C   0  0  0  0  0  2  0  0  0  0  0  0
  180.7990  180.7560  139.1480 C   0  0  0  0  0  2  0  0  0  0  0  0
  180.1150  177.5700  138.7220 O   0  0  0  0  0  1  0  0  0  0  0  0
  181.1130  178.3830  138.1820 C   0  0  0  0  0  2  0  0  0  0  0  0
  1 24  1  0  0  0  0
  2  1  1  1  0  0  0
  4  6  1  0  0  0  0
  4  2  1  1  0  0  0
  5 10  1  0  0  0  0
  6  3  1  1  0  0  0
  7 10  1  1  0  0  0
  7  4  1  0  0  0  0
  7  6  1  0  0  0  0
  8 13  1  1  0  0  0
  8  5  1  0  0  0  0
  8  9  1  0  0  0  0
  9 11  1  1  0  0  0
  9  7  1  0  0  0  0
 13 12  1  6  0  0  0
 14 13  1  0  0  0  0
 15 21  1  0  0  0  0
 15 23  1  0  0  0  0
 16 18  1  0  0  0  0
 16 19  2  0  0  0  0
 17  2  1  6  0  0  0
 18 15  2  0  0  0  0
 19 22  1  0  0  0  0
 20 17  1  0  0  0  0
 21 17  1  0  0  0  0
 22 21  2  0  0  0  0
 23 20  2  0  0  0  0
 24 25  1  0  0  0  0
 25 26  1  0  0  0  0
 26 29  1  0  0  0  0
 28 27  2  0  0  0  0
 29 28  2  0  0  0  0
 30 27  1  0  0  0  0
 31 30  1  0  0  0  0
 32 35  1  0  0  0  0
 34 31  1  0  0  0  0
 34 33  1  0  0  0  0
 35 33  2  0  0  0  0
 36 32  2  0  0  0  0
 36 34  1  0  0  0  0
 37 32  1  0  0  0  0
 38 37  1  1  0  0  0
 39 41  1  1  0  0  0
 39 40  1  0  0  0  0
 39 38  1  0  0  0  0
 40 38  1  0  0  0  0
 42 41  1  0  0  0  0
 43 44  1  0  0  0  0
 43 42  1  0  0  0  0
 44 42  1  0  0  0  0
 46 45  1  0  0  0  0
 46 42  1  0  0  0  0
M  END
>  <MODEL>
2

>  <REMARK>
 VINA RESULT:      -7.8      2.670      7.310
  Name = 
  16 active torsions:
  status: ('A' for Active; 'I' for Inactive)
    1  A    between atoms: C_1  and  C_12
    2  A    between atoms: C_3  and  C_42
    3  A    between atoms: C_6  and  C_41
    4  A    between atoms: C_7  and  C_42
    5  A    between atoms: C_9  and  C_19
    6  A    between atoms: C_9  and  C_26
    7  A    between atoms: C_10  and  C_41
    8  A    between atoms: C_12  and  C_40
    9  A    between atoms: N_15  and  C_21
   10  A    between atoms: N_15  and  C_42
   11  A    between atoms: C_21  and  C_23
   12  A    between atoms: C_23  and  C_31
   13  A    between atoms: C_25  and  C_38
   14  A    between atoms: C_26  and  C_39
   15  A    between atoms: N_27  and  C_40
   16  A    between atoms: C_28  and  C_31
                            x       y       z     vdW  Elec       q    Type
                         _______ _______ _______ _____ _____    ______ ____

>  <TORSDO>
F 16

$$$$
=
 OpenBabel10232408593D

 46 52  0  0  1  0  0  0  0  0999 V2000
  188.4840  176.4120  138.2740 N   0  0  0  0  0  2  0  0  0  0  0  0
  189.9270  176.4940  138.4440 C   0  0  1  0  0  3  0  0  0  0  0  0
  189.9070  174.2570  136.7440 O   0  0  0  0  0  1  0  0  0  0  0  0
  190.7300  176.5580  137.1080 C   0  0  2  0  0  3  0  0  0  0  0  0
  193.9060  174.8100  137.8410 C   0  0  0  0  0  2  0  0  0  0  0  0
  190.5540  175.3490  136.1530 C   0  0  1  0  0  3  0  0  0  0  0  0
  191.8950  175.5970  136.8270 C   0  0  1  0  0  0  0  0  0  0  0  0
  194.2810  175.3690  136.4610 C   0  0  2  0  0  3  0  0  0  0  0  0
  193.0400  176.1590  135.9970 C   0  0  1  0  0  3  0  0  0  0  0  0
  192.4010  174.6020  137.8500 C   0  0  0  0  0  2  0  0  0  0  0  0
  192.7900  176.0500  134.5620 N   0  0  0  0  0  1  0  0  0  0  0  0
  194.9340  172.9300  136.2820 C   0  0  0  0  0  1  0  0  0  0  0  0
  194.7090  174.2260  135.5180 C   0  0  2  0  0  3  0  0  0  0  0  0
  195.9030  174.5610  134.8750 O   0  0  0  0  0  1  0  0  0  0  0  0
  190.8910  176.9550  141.6850 C   0  0  0  0  0  0  0  0  0  0  0  0
  189.4480  176.7140  143.5120 C   0  0  0  0  0  3  0  0  0  0  0  0
  190.3500  177.5230  139.5060 C   0  0  2  0  0  3  0  0  0  0  0  0
  190.7180  176.7180  143.0080 N   0  0  0  0  0  0  0  0  0  0  0  0
  188.3530  176.9730  142.6590 C   0  0  0  0  0  3  0  0  0  0  0  0
  191.8380  177.4010  139.7810 C   0  0  0  0  0  3  0  0  0  0  0  0
  189.8390  177.1940  140.8630 C   0  0  0  0  0  0  0  0  0  0  0  0
  188.5660  177.2210  141.3320 N   0  0  0  0  0  0  0  0  0  0  0  0
  192.1260  177.0830  141.0110 N   0  0  0  0  0  0  0  0  0  0  0  0
  188.0550  177.6710  137.6870 C   0  0  0  0  0  2  0  0  0  0  0  0
  186.5410  177.8110  137.7620 C   0  0  0  0  0  2  0  0  0  0  0  0
  185.8420  176.8120  136.8530 C   0  0  0  0  0  2  0  0  0  0  0  0
  182.8690  177.5400  138.7060 C   0  0  0  0  0  3  0  0  0  0  0  0
  183.6430  177.3900  137.6690 C   0  0  0  0  0  0  0  0  0  0  0  0
  184.4320  177.2390  136.6470 C   0  0  0  0  0  3  0  0  0  0  0  0
  183.2090  178.5580  139.7390 C   0  0  0  0  0  2  0  0  0  0  0  0
  182.1000  178.6410  140.7760 C   0  0  0  0  0  2  0  0  0  0  0  0
  184.0520  178.7320  143.7890 C   0  0  0  0  0  0  0  0  0  0  0  0
  181.9460  178.9970  143.1960 N   0  0  0  0  0  0  0  0  0  0  0  0
  182.6650  178.7590  142.1110 N   0  0  0  0  0  0  0  0  0  0  0  0
  182.7720  178.9760  144.2590 C   0  0  0  0  0  3  0  0  0  0  0  0
  183.9570  178.5670  142.4230 C   0  0  0  0  0  3  0  0  0  0  0  0
  185.2800  178.5020  144.6060 C   0  0  0  0  0  2  0  0  0  0  0  0
  184.9420  178.3860  146.0920 C   0  0  1  0  0  3  0  0  0  0  0  0
  186.1060  178.1840  147.0110 C   0  0  2  0  0  3  0  0  0  0  0  0
  185.5420  179.4530  146.7890 O   0  0  0  0  0  0  0  0  0  0  0  0
  187.4880  178.1290  146.3590 C   0  0  0  0  0  2  0  0  0  0  0  0
  188.5500  177.6700  147.3480 C   0  0  0  0  0  0  0  0  0  0  0  0
  188.0440  177.6180  148.7680 C   0  0  0  0  0  2  0  0  0  0  0  0
  189.0370  178.6920  148.3520 C   0  0  0  0  0  2  0  0  0  0  0  0
  190.8020  176.8600  147.3810 O   0  0  0  0  0  1  0  0  0  0  0  0
  189.4940  176.5280  147.0210 C   0  0  0  0  0  2  0  0  0  0  0  0
  2  1  1  6  0  0  0
  4  2  1  1  0  0  0
  5 10  1  0  0  0  0
  6  3  1  1  0  0  0
  6  7  1  0  0  0  0
  6  4  1  0  0  0  0
  7  4  1  0  0  0  0
  7 10  1  1  0  0  0
  8 13  1  6  0  0  0
  8  5  1  0  0  0  0
  9 11  1  6  0  0  0
  9  8  1  0  0  0  0
  9  7  1  0  0  0  0
 13 12  1  1  0  0  0
 14 13  1  0  0  0  0
 15 18  2  0  0  0  0
 17  2  1  6  0  0  0
 17 20  1  0  0  0  0
 17 21  1  0  0  0  0
 18 16  1  0  0  0  0
 19 16  2  0  0  0  0
 20 23  2  0  0  0  0
 21 22  2  0  0  0  0
 21 15  1  0  0  0  0
 22 19  1  0  0  0  0
 23 15  1  0  0  0  0
 24 25  1  0  0  0  0
 24  1  1  0  0  0  0
 26 25  1  0  0  0  0
 27 30  1  0  0  0  0
 28 27  2  0  0  0  0
 29 26  1  0  0  0  0
 29 28  2  0  0  0  0
 30 31  1  0  0  0  0
 31 34  1  0  0  0  0
 32 35  1  0  0  0  0
 32 37  1  0  0  0  0
 33 35  2  0  0  0  0
 34 36  1  0  0  0  0
 34 33  1  0  0  0  0
 36 32  2  0  0  0  0
 38 37  1  6  0  0  0
 38 40  1  0  0  0  0
 38 39  1  0  0  0  0
 39 41  1  6  0  0  0
 40 39  1  0  0  0  0
 41 42  1  0  0  0  0
 42 44  1  0  0  0  0
 42 43  1  0  0  0  0
 44 43  1  0  0  0  0
 46 42  1  0  0  0  0
 46 45  1  0  0  0  0
M  END
>  <MODEL>
3

>  <REMARK>
 VINA RESULT:      -7.8      2.552      5.949
  Name = 
  16 active torsions:
  status: ('A' for Active; 'I' for Inactive)
    1  A    between atoms: C_1  and  C_12
    2  A    between atoms: C_3  and  C_42
    3  A    between atoms: C_6  and  C_41
    4  A    between atoms: C_7  and  C_42
    5  A    between atoms: C_9  and  C_19
    6  A    between atoms: C_9  and  C_26
    7  A    between atoms: C_10  and  C_41
    8  A    between atoms: C_12  and  C_40
    9  A    between atoms: N_15  and  C_21
   10  A    between atoms: N_15  and  C_42
   11  A    between atoms: C_21  and  C_23
   12  A    between atoms: C_23  and  C_31
   13  A    between atoms: C_25  and  C_38
   14  A    between atoms: C_26  and  C_39
   15  A    between atoms: N_27  and  C_40
   16  A    between atoms: C_28  and  C_31
                            x       y       z     vdW  Elec       q    Type
                         _______ _______ _______ _____ _____    ______ ____

>  <TORSDO>
F 16

$$$$
=
 OpenBabel10232408593D

 46 52  0  0  1  0  0  0  0  0999 V2000
  190.0930  175.9940  137.9120 N   0  0  0  0  0  2  0  0  0  0  0  0
  191.1430  175.8850  136.9110 C   0  0  1  0  0  3  0  0  0  0  0  0
  193.5720  176.8850  137.9070 O   0  0  0  0  0  1  0  0  0  0  0  0
  192.2770  174.8770  137.2760 C   0  0  2  0  0  3  0  0  0  0  0  0
  194.5340  174.9120  134.3470 C   0  0  0  0  0  2  0  0  0  0  0  0
  193.5300  175.4870  137.9570 C   0  0  1  0  0  3  0  0  0  0  0  0
  193.6330  174.9050  136.5550 C   0  0  1  0  0  0  0  0  0  0  0  0
  195.1660  173.7260  135.0910 C   0  0  2  0  0  3  0  0  0  0  0  0
  194.3180  173.5580  136.3690 C   0  0  1  0  0  3  0  0  0  0  0  0
  193.9260  175.8290  135.3930 C   0  0  0  0  0  2  0  0  0  0  0  0
  195.1060  173.1710  137.5370 N   0  0  0  0  0  1  0  0  0  0  0  0
  197.1770  175.1420  134.4940 C   0  0  0  0  0  1  0  0  0  0  0  0
  196.6660  173.9870  135.3410 C   0  0  2  0  0  3  0  0  0  0  0  0
  197.4070  172.8500  135.0110 O   0  0  0  0  0  1  0  0  0  0  0  0
  188.4180  175.1460  134.9940 C   0  0  0  0  0  0  0  0  0  0  0  0
  187.5450  172.9870  134.7630 C   0  0  0  0  0  3  0  0  0  0  0  0
  190.5980  175.7580  135.4780 C   0  0  2  0  0  3  0  0  0  0  0  0
  187.3670  174.3400  134.7070 N   0  0  0  0  0  0  0  0  0  0  0  0
  188.8100  172.4580  135.0990 C   0  0  0  0  0  3  0  0  0  0  0  0
  189.6630  176.9160  135.1750 C   0  0  0  0  0  3  0  0  0  0  0  0
  189.6310  174.6390  135.3260 C   0  0  0  0  0  0  0  0  0  0  0  0
  189.8510  173.3010  135.3700 N   0  0  0  0  0  0  0  0  0  0  0  0
  188.4420  176.5560  134.9030 N   0  0  0  0  0  0  0  0  0  0  0  0
  190.4530  177.1000  138.7840 C   0  0  0  0  0  2  0  0  0  0  0  0
  189.2110  177.8530  139.2400 C   0  0  0  0  0  2  0  0  0  0  0  0
  188.9310  177.6290  140.7180 C   0  0  0  0  0  2  0  0  0  0  0  0
  191.6230  178.0030  143.0450 C   0  0  0  0  0  3  0  0  0  0  0  0
  190.8430  177.4200  142.1800 C   0  0  0  0  0  0  0  0  0  0  0  0
  190.0510  176.8550  141.3170 C   0  0  0  0  0  3  0  0  0  0  0  0
  191.0550  178.5070  144.3270 C   0  0  0  0  0  2  0  0  0  0  0  0
  191.0790  177.4080  145.3770 C   0  0  0  0  0  2  0  0  0  0  0  0
  187.6290  177.2820  146.3630 C   0  0  0  0  0  0  0  0  0  0  0  0
  189.6090  177.1090  147.3150 N   0  0  0  0  0  0  0  0  0  0  0  0
  189.7780  177.2890  146.0150 N   0  0  0  0  0  0  0  0  0  0  0  0
  188.2870  177.1110  147.5690 C   0  0  0  0  0  3  0  0  0  0  0  0
  188.5960  177.4240  145.3910 C   0  0  0  0  0  3  0  0  0  0  0  0
  186.1620  177.4690  146.1580 C   0  0  0  0  0  2  0  0  0  0  0  0
  185.7990  178.9520  146.0790 C   0  0  1  0  0  3  0  0  0  0  0  0
  184.8450  179.3320  144.9900 C   0  0  2  0  0  3  0  0  0  0  0  0
  184.4180  179.1050  146.3100 O   0  0  0  0  0  0  0  0  0  0  0  0
  184.3410  178.1960  144.0990 C   0  0  0  0  0  2  0  0  0  0  0  0
  184.6290  178.4750  142.6300 C   0  0  0  0  0  0  0  0  0  0  0  0
  186.0330  178.0970  142.2270 C   0  0  0  0  0  2  0  0  0  0  0  0
  185.6350  179.5620  142.3230 C   0  0  0  0  0  2  0  0  0  0  0  0
  183.7730  179.0220  140.4630 O   0  0  0  0  0  1  0  0  0  0  0  0
  183.6080  178.1640  141.5510 C   0  0  0  0  0  2  0  0  0  0  0  0
  1 24  1  0  0  0  0
  2  1  1  1  0  0  0
  4  2  1  6  0  0  0
  4  6  1  0  0  0  0
  5  8  1  0  0  0  0
  5 10  1  0  0  0  0
  6  3  1  6  0  0  0
  7 10  1  6  0  0  0
  7  4  1  0  0  0  0
  7  6  1  0  0  0  0
  8 13  1  1  0  0  0
  8  9  1  0  0  0  0
  9  7  1  0  0  0  0
  9 11  1  1  0  0  0
 13 12  1  6  0  0  0
 14 13  1  0  0  0  0
 15 21  1  0  0  0  0
 16 19  2  0  0  0  0
 17  2  1  1  0  0  0
 18 16  1  0  0  0  0
 18 15  2  0  0  0  0
 19 22  1  0  0  0  0
 20 17  1  0  0  0  0
 21 22  2  0  0  0  0
 21 17  1  0  0  0  0
 23 15  1  0  0  0  0
 23 20  2  0  0  0  0
 24 25  1  0  0  0  0
 25 26  1  0  0  0  0
 26 29  1  0  0  0  0
 27 30  1  0  0  0  0
 28 27  2  0  0  0  0
 29 28  2  0  0  0  0
 30 31  1  0  0  0  0
 31 34  1  0  0  0  0
 32 35  1  0  0  0  0
 33 35  2  0  0  0  0
 34 33  1  0  0  0  0
 36 34  1  0  0  0  0
 36 32  2  0  0  0  0
 37 32  1  0  0  0  0
 38 37  1  6  0  0  0
 38 40  1  0  0  0  0
 39 41  1  6  0  0  0
 39 38  1  0  0  0  0
 39 40  1  0  0  0  0
 42 41  1  0  0  0  0
 43 44  1  0  0  0  0
 43 42  1  0  0  0  0
 44 42  1  0  0  0  0
 45 46  1  0  0  0  0
 46 42  1  0  0  0  0
M  END
>  <MODEL>
4

>  <REMARK>
 VINA RESULT:      -7.4      3.068      5.646
  Name = 
  16 active torsions:
  status: ('A' for Active; 'I' for Inactive)
    1  A    between atoms: C_1  and  C_12
    2  A    between atoms: C_3  and  C_42
    3  A    between atoms: C_6  and  C_41
    4  A    between atoms: C_7  and  C_42
    5  A    between atoms: C_9  and  C_19
    6  A    between atoms: C_9  and  C_26
    7  A    between atoms: C_10  and  C_41
    8  A    between atoms: C_12  and  C_40
    9  A    between atoms: N_15  and  C_21
   10  A    between atoms: N_15  and  C_42
   11  A    between atoms: C_21  and  C_23
   12  A    between atoms: C_23  and  C_31
   13  A    between atoms: C_25  and  C_38
   14  A    between atoms: C_26  and  C_39
   15  A    between atoms: N_27  and  C_40
   16  A    between atoms: C_28  and  C_31
                            x       y       z     vdW  Elec       q    Type
                         _______ _______ _______ _____ _____    ______ ____

>  <TORSDO>
F 16

$$$$
=
 OpenBabel10232408593D

 46 52  0  0  1  0  0  0  0  0999 V2000
  190.0360  177.9710  140.2120 N   0  0  0  0  0  2  0  0  0  0  0  0
  190.0730  176.9450  139.1820 C   0  0  1  0  0  3  0  0  0  0  0  0
  187.6150  178.2720  138.8810 O   0  0  0  0  0  1  0  0  0  0  0  0
  189.6560  177.4410  137.7630 C   0  0  2  0  0  3  0  0  0  0  0  0
  187.3470  174.8410  136.5030 C   0  0  0  0  0  2  0  0  0  0  0  0
  188.3610  178.2930  137.6960 C   0  0  1  0  0  3  0  0  0  0  0  0
  188.3940  176.9090  137.0680 C   0  0  1  0  0  0  0  0  0  0  0  0
  187.4970  175.6440  135.2030 C   0  0  2  0  0  3  0  0  0  0  0  0
  188.4640  176.7950  135.5510 C   0  0  1  0  0  3  0  0  0  0  0  0
  187.5340  175.8110  137.6560 C   0  0  0  0  0  2  0  0  0  0  0  0
  188.1310  178.0500  134.8850 N   0  0  0  0  0  1  0  0  0  0  0  0
  185.3580  176.8820  135.7490 C   0  0  0  0  0  1  0  0  0  0  0  0
  186.1150  176.0960  134.6880 C   0  0  2  0  0  3  0  0  0  0  0  0
  185.3460  174.9810  134.3480 O   0  0  0  0  0  1  0  0  0  0  0  0
  192.6620  175.6750  137.3570 C   0  0  0  0  0  0  0  0  0  0  0  0
  192.4200  173.9560  135.7880 C   0  0  0  0  0  3  0  0  0  0  0  0
  191.3560  176.0980  139.2220 C   0  0  2  0  0  3  0  0  0  0  0  0
  193.1190  175.0320  136.2560 N   0  0  0  0  0  0  0  0  0  0  0  0
  191.2560  173.5280  136.4630 C   0  0  0  0  0  3  0  0  0  0  0  0
  192.5730  176.9950  139.0800 C   0  0  0  0  0  3  0  0  0  0  0  0
  191.5390  175.2710  138.0010 C   0  0  0  0  0  0  0  0  0  0  0  0
  190.8310  174.1920  137.5790 N   0  0  0  0  0  0  0  0  0  0  0  0
  193.2980  176.7440  138.0280 N   0  0  0  0  0  0  0  0  0  0  0  0
  189.7770  177.2960  141.4730 C   0  0  0  0  0  2  0  0  0  0  0  0
  189.5680  178.3070  142.5920 C   0  0  0  0  0  2  0  0  0  0  0  0
  190.8470  178.5400  143.3810 C   0  0  0  0  0  2  0  0  0  0  0  0
  191.0850  176.6390  146.4030 C   0  0  0  0  0  3  0  0  0  0  0  0
  191.2280  176.9300  145.1420 C   0  0  0  0  0  0  0  0  0  0  0  0
  191.3580  177.2360  143.8840 C   0  0  0  0  0  3  0  0  0  0  0  0
  189.7180  176.5260  146.9830 C   0  0  0  0  0  2  0  0  0  0  0  0
  189.1750  177.9070  147.3170 C   0  0  0  0  0  2  0  0  0  0  0  0
  186.1120  178.2090  145.4680 C   0  0  0  0  0  0  0  0  0  0  0  0
  186.7820  178.3750  147.5610 N   0  0  0  0  0  0  0  0  0  0  0  0
  187.8210  178.0540  146.8070 N   0  0  0  0  0  0  0  0  0  0  0  0
  185.7050  178.4910  146.7610 C   0  0  0  0  0  3  0  0  0  0  0  0
  187.4680  177.9630  145.5150 C   0  0  0  0  0  3  0  0  0  0  0  0
  185.2960  178.3270  144.2240 C   0  0  0  0  0  2  0  0  0  0  0  0
  186.1450  178.0710  142.9790 C   0  0  1  0  0  3  0  0  0  0  0  0
  185.4400  178.2210  141.6670 C   0  0  2  0  0  3  0  0  0  0  0  0
  186.2200  179.2540  142.2170 O   0  0  0  0  0  0  0  0  0  0  0  0
  183.9660  178.6200  141.7280 C   0  0  0  0  0  2  0  0  0  0  0  0
  183.3090  178.5270  140.3570 C   0  0  0  0  0  0  0  0  0  0  0  0
  181.8020  178.5170  140.4300 C   0  0  0  0  0  2  0  0  0  0  0  0
  182.5560  177.2530  140.0440 C   0  0  0  0  0  2  0  0  0  0  0  0
  183.1020  180.4990  139.0180 O   0  0  0  0  0  1  0  0  0  0  0  0
  183.8330  179.3200  139.1740 C   0  0  0  0  0  2  0  0  0  0  0  0
  1 24  1  0  0  0  0
  2  1  1  1  0  0  0
  4  2  1  1  0  0  0
  5 10  1  0  0  0  0
  6  4  1  0  0  0  0
  6  3  1  1  0  0  0
  7 10  1  1  0  0  0
  7  6  1  0  0  0  0
  7  4  1  0  0  0  0
  8 13  1  1  0  0  0
  8  9  1  0  0  0  0
  8  5  1  0  0  0  0
  9 11  1  6  0  0  0
  9  7  1  0  0  0  0
 13 12  1  1  0  0  0
 14 13  1  0  0  0  0
 15 21  1  0  0  0  0
 15 23  1  0  0  0  0
 16 18  1  0  0  0  0
 16 19  2  0  0  0  0
 17  2  1  6  0  0  0
 18 15  2  0  0  0  0
 19 22  1  0  0  0  0
 20 17  1  0  0  0  0
 21 17  1  0  0  0  0
 22 21  2  0  0  0  0
 23 20  2  0  0  0  0
 24 25  1  0  0  0  0
 25 26  1  0  0  0  0
 26 29  1  0  0  0  0
 27 30  1  0  0  0  0
 28 27  2  0  0  0  0
 29 28  2  0  0  0  0
 30 31  1  0  0  0  0
 32 36  2  0  0  0  0
 32 35  1  0  0  0  0
 34 31  1  0  0  0  0
 34 33  1  0  0  0  0
 35 33  2  0  0  0  0
 36 34  1  0  0  0  0
 37 32  1  0  0  0  0
 38 37  1  1  0  0  0
 39 41  1  1  0  0  0
 39 40  1  0  0  0  0
 39 38  1  0  0  0  0
 40 38  1  0  0  0  0
 42 43  1  0  0  0  0
 42 41  1  0  0  0  0
 44 42  1  0  0  0  0
 44 43  1  0  0  0  0
 45 46  1  0  0  0  0
 46 42  1  0  0  0  0
M  END
>  <MODEL>
5

>  <REMARK>
 VINA RESULT:      -7.4      2.612      6.622
  Name = 
  16 active torsions:
  status: ('A' for Active; 'I' for Inactive)
    1  A    between atoms: C_1  and  C_12
    2  A    between atoms: C_3  and  C_42
    3  A    between atoms: C_6  and  C_41
    4  A    between atoms: C_7  and  C_42
    5  A    between atoms: C_9  and  C_19
    6  A    between atoms: C_9  and  C_26
    7  A    between atoms: C_10  and  C_41
    8  A    between atoms: C_12  and  C_40
    9  A    between atoms: N_15  and  C_21
   10  A    between atoms: N_15  and  C_42
   11  A    between atoms: C_21  and  C_23
   12  A    between atoms: C_23  and  C_31
   13  A    between atoms: C_25  and  C_38
   14  A    between atoms: C_26  and  C_39
   15  A    between atoms: N_27  and  C_40
   16  A    between atoms: C_28  and  C_31
                            x       y       z     vdW  Elec       q    Type
                         _______ _______ _______ _____ _____    ______ ____

>  <TORSDO>
F 16

$$$$
=
 OpenBabel10232408593D

 46 52  0  0  1  0  0  0  0  0999 V2000
  186.7270  177.6350  135.6800 N   0  0  0  0  0  2  0  0  0  0  0  0
  187.8720  176.9400  136.2470 C   0  0  1  0  0  3  0  0  0  0  0  0
  188.9650  179.3800  137.1090 O   0  0  0  0  0  1  0  0  0  0  0  0
  188.0750  177.1740  137.7760 C   0  0  2  0  0  3  0  0  0  0  0  0
  191.6480  176.4300  138.3710 C   0  0  0  0  0  2  0  0  0  0  0  0
  188.5420  178.5950  138.1880 C   0  0  1  0  0  3  0  0  0  0  0  0
  189.4710  177.4060  138.3720 C   0  0  1  0  0  0  0  0  0  0  0  0
  191.2080  176.5560  139.8370 C   0  0  2  0  0  3  0  0  0  0  0  0
  189.6970  176.8630  139.7770 C   0  0  1  0  0  3  0  0  0  0  0  0
  190.7380  177.3250  137.5480 C   0  0  0  0  0  2  0  0  0  0  0  0
  189.2560  177.7970  140.8090 N   0  0  0  0  0  1  0  0  0  0  0  0
  193.5430  177.3890  140.3490 C   0  0  0  0  0  1  0  0  0  0  0  0
  192.0550  177.6230  140.5620 C   0  0  2  0  0  3  0  0  0  0  0  0
  191.8030  177.5770  141.9350 O   0  0  0  0  0  1  0  0  0  0  0  0
  189.7270  174.0780  136.3670 C   0  0  0  0  0  0  0  0  0  0  0  0
  191.7730  173.8140  135.2610 C   0  0  0  0  0  3  0  0  0  0  0  0
  187.9680  175.4710  135.7980 C   0  0  2  0  0  3  0  0  0  0  0  0
  190.9220  173.4470  136.2640 N   0  0  0  0  0  0  0  0  0  0  0  0
  191.3890  174.8200  134.3480 C   0  0  0  0  0  3  0  0  0  0  0  0
  187.6960  174.5510  136.9740 C   0  0  0  0  0  3  0  0  0  0  0  0
  189.3620  175.0510  135.4970 C   0  0  0  0  0  0  0  0  0  0  0  0
  190.1710  175.4260  134.4730 N   0  0  0  0  0  0  0  0  0  0  0  0
  188.6940  173.7720  137.2810 N   0  0  0  0  0  0  0  0  0  0  0  0
  185.6110  177.4220  136.5870 C   0  0  0  0  0  2  0  0  0  0  0  0
  184.5270  176.5880  135.9190 C   0  0  0  0  0  2  0  0  0  0  0  0
  183.1850  177.3040  135.9280 C   0  0  0  0  0  2  0  0  0  0  0  0
  182.3720  177.2540  139.4120 C   0  0  0  0  0  3  0  0  0  0  0  0
  182.3160  176.9310  138.1510 C   0  0  0  0  0  0  0  0  0  0  0  0
  182.2730  176.6260  136.8880 C   0  0  0  0  0  3  0  0  0  0  0  0
  182.0590  178.6480  139.8310 C   0  0  0  0  0  2  0  0  0  0  0  0
  182.3550  178.8290  141.3110 C   0  0  0  0  0  2  0  0  0  0  0  0
  185.7170  178.2710  142.4440 C   0  0  0  0  0  0  0  0  0  0  0  0
  184.6920  179.4120  140.8610 N   0  0  0  0  0  0  0  0  0  0  0  0
  183.7860  178.7430  141.5550 N   0  0  0  0  0  0  0  0  0  0  0  0
  185.9020  179.1520  141.3920 C   0  0  0  0  0  3  0  0  0  0  0  0
  184.3610  178.0470  142.5500 C   0  0  0  0  0  3  0  0  0  0  0  0
  186.7510  177.7920  143.4070 C   0  0  0  0  0  2  0  0  0  0  0  0
  186.1620  177.6090  144.8060 C   0  0  1  0  0  3  0  0  0  0  0  0
  187.1530  177.3910  145.9070 C   0  0  2  0  0  3  0  0  0  0  0  0
  186.6040  178.6570  145.6370 O   0  0  0  0  0  0  0  0  0  0  0  0
  188.6280  177.3880  145.5050 C   0  0  0  0  0  2  0  0  0  0  0  0
  189.5340  177.3040  146.7260 C   0  0  0  0  0  0  0  0  0  0  0  0
  188.9120  176.5360  147.8650 C   0  0  0  0  0  2  0  0  0  0  0  0
  189.0830  178.0440  147.9660 C   0  0  0  0  0  2  0  0  0  0  0  0
  191.3980  175.9480  147.3690 O   0  0  0  0  0  1  0  0  0  0  0  0
  191.0230  177.0430  146.5890 C   0  0  0  0  0  2  0  0  0  0  0  0
  1 24  1  0  0  0  0
  2  1  1  1  0  0  0
  4  2  1  6  0  0  0
  4  6  1  0  0  0  0
  4  7  1  0  0  0  0
  5  8  1  0  0  0  0
  6  3  1  6  0  0  0
  6  7  1  0  0  0  0
  7 10  1  6  0  0  0
  7  9  1  0  0  0  0
  8 13  1  6  0  0  0
  9  8  1  0  0  0  0
  9 11  1  1  0  0  0
 10  5  1  0  0  0  0
 13 12  1  1  0  0  0
 13 14  1  0  0  0  0
 15 23  1  0  0  0  0
 16 18  1  0  0  0  0
 17  2  1  1  0  0  0
 17 20  1  0  0  0  0
 18 15  2  0  0  0  0
 19 22  1  0  0  0  0
 19 16  2  0  0  0  0
 20 23  2  0  0  0  0
 21 17  1  0  0  0  0
 21 15  1  0  0  0  0
 22 21  2  0  0  0  0
 25 26  1  0  0  0  0
 25 24  1  0  0  0  0
 26 29  1  0  0  0  0
 27 30  1  0  0  0  0
 28 27  2  0  0  0  0
 29 28  2  0  0  0  0
 30 31  1  0  0  0  0
 31 34  1  0  0  0  0
 32 36  2  0  0  0  0
 32 37  1  0  0  0  0
 33 35  2  0  0  0  0
 33 34  1  0  0  0  0
 34 36  1  0  0  0  0
 35 32  1  0  0  0  0
 38 37  1  6  0  0  0
 38 40  1  0  0  0  0
 38 39  1  0  0  0  0
 39 41  1  6  0  0  0
 40 39  1  0  0  0  0
 41 42  1  0  0  0  0
 42 43  1  0  0  0  0
 42 44  1  0  0  0  0
 43 44  1  0  0  0  0
 46 42  1  0  0  0  0
 46 45  1  0  0  0  0
M  END
>  <MODEL>
6

>  <REMARK>
 VINA RESULT:      -7.2      2.414      5.457
  Name = 
  16 active torsions:
  status: ('A' for Active; 'I' for Inactive)
    1  A    between atoms: C_1  and  C_12
    2  A    between atoms: C_3  and  C_42
    3  A    between atoms: C_6  and  C_41
    4  A    between atoms: C_7  and  C_42
    5  A    between atoms: C_9  and  C_19
    6  A    between atoms: C_9  and  C_26
    7  A    between atoms: C_10  and  C_41
    8  A    between atoms: C_12  and  C_40
    9  A    between atoms: N_15  and  C_21
   10  A    between atoms: N_15  and  C_42
   11  A    between atoms: C_21  and  C_23
   12  A    between atoms: C_23  and  C_31
   13  A    between atoms: C_25  and  C_38
   14  A    between atoms: C_26  and  C_39
   15  A    between atoms: N_27  and  C_40
   16  A    between atoms: C_28  and  C_31
                            x       y       z     vdW  Elec       q    Type
                         _______ _______ _______ _____ _____    ______ ____

>  <TORSDO>
F 16

$$$$
=
 OpenBabel10232408593D

 46 52  0  0  1  0  0  0  0  0999 V2000
  189.4960  176.3570  138.2540 N   0  0  0  0  0  2  0  0  0  0  0  0
  189.7980  176.8800  136.9310 C   0  0  1  0  0  3  0  0  0  0  0  0
  189.8800  174.1410  137.5510 O   0  0  0  0  0  1  0  0  0  0  0  0
  190.6740  175.9380  136.0500 C   0  0  2  0  0  3  0  0  0  0  0  0
  193.8100  175.5140  137.9650 C   0  0  0  0  0  2  0  0  0  0  0  0
  190.5560  174.4210  136.3560 C   0  0  1  0  0  3  0  0  0  0  0  0
  191.8560  175.1560  136.6440 C   0  0  1  0  0  0  0  0  0  0  0  0
  194.2600  174.8360  136.6630 C   0  0  2  0  0  3  0  0  0  0  0  0
  193.0430  174.9350  135.7180 C   0  0  1  0  0  3  0  0  0  0  0  0
  192.3080  175.3200  138.0790 C   0  0  0  0  0  2  0  0  0  0  0  0
  192.8740  173.7570  134.8720 N   0  0  0  0  0  1  0  0  0  0  0  0
  195.1660  173.2310  138.3970 C   0  0  0  0  0  1  0  0  0  0  0  0
  194.7430  173.3990  136.9460 C   0  0  2  0  0  3  0  0  0  0  0  0
  195.8430  173.0990  136.1380 O   0  0  0  0  0  1  0  0  0  0  0  0
  186.5030  177.7140  137.2450 C   0  0  0  0  0  0  0  0  0  0  0  0
  184.7790  176.1400  137.4020 C   0  0  0  0  0  3  0  0  0  0  0  0
  188.5660  177.4710  136.2230 C   0  0  2  0  0  3  0  0  0  0  0  0
  185.2440  177.4020  137.6380 N   0  0  0  0  0  0  0  0  0  0  0  0
  185.6010  175.1990  136.7450 C   0  0  0  0  0  3  0  0  0  0  0  0
  188.2800  178.8640  136.7570 C   0  0  0  0  0  3  0  0  0  0  0  0
  187.2980  176.8090  136.6230 C   0  0  0  0  0  0  0  0  0  0  0  0
  186.8610  175.5520  136.3520 N   0  0  0  0  0  0  0  0  0  0  0  0
  187.1160  178.9850  137.3270 N   0  0  0  0  0  0  0  0  0  0  0  0
  189.8170  177.4070  139.2080 C   0  0  0  0  0  2  0  0  0  0  0  0
  189.8500  176.8540  140.6260 C   0  0  0  0  0  2  0  0  0  0  0  0
  188.7380  177.4420  141.4820 C   0  0  0  0  0  2  0  0  0  0  0  0
  185.4840  178.9090  141.2380 C   0  0  0  0  0  3  0  0  0  0  0  0
  186.7350  178.6840  140.9530 C   0  0  0  0  0  0  0  0  0  0  0  0
  187.9860  178.4480  140.6860 C   0  0  0  0  0  3  0  0  0  0  0  0
  185.1180  179.4400  142.5810 C   0  0  0  0  0  2  0  0  0  0  0  0
  184.5480  178.3270  143.4460 C   0  0  0  0  0  2  0  0  0  0  0  0
  186.2580  178.6030  146.5910 C   0  0  0  0  0  0  0  0  0  0  0  0
  184.1800  178.5340  145.8600 N   0  0  0  0  0  0  0  0  0  0  0  0
  184.9970  178.4750  144.8210 N   0  0  0  0  0  0  0  0  0  0  0  0
  184.9280  178.6030  146.9770 C   0  0  0  0  0  3  0  0  0  0  0  0
  186.2800  178.4900  145.2170 C   0  0  0  0  0  3  0  0  0  0  0  0
  187.4530  178.5450  147.4840 C   0  0  0  0  0  2  0  0  0  0  0  0
  188.0360  177.1330  147.5370 C   0  0  1  0  0  3  0  0  0  0  0  0
  189.1870  176.8690  146.6170 C   0  0  2  0  0  3  0  0  0  0  0  0
  189.3750  177.2000  147.9710 O   0  0  0  0  0  0  0  0  0  0  0  0
  189.6460  178.0380  145.7470 C   0  0  0  0  0  2  0  0  0  0  0  0
  190.8950  177.6810  144.9520 C   0  0  0  0  0  0  0  0  0  0  0  0
  190.7850  176.3450  144.2600 C   0  0  0  0  0  2  0  0  0  0  0  0
  191.7140  176.5120  145.4530 C   0  0  0  0  0  2  0  0  0  0  0  0
  191.9240  178.1960  142.8540 O   0  0  0  0  0  1  0  0  0  0  0  0
  191.6210  178.7160  144.1140 C   0  0  0  0  0  2  0  0  0  0  0  0
  1 24  1  0  0  0  0
  2  1  1  1  0  0  0
  4  6  1  0  0  0  0
  4  7  1  0  0  0  0
  4  2  1  1  0  0  0
  5 10  1  0  0  0  0
  6  7  1  0  0  0  0
  6  3  1  1  0  0  0
  7 10  1  1  0  0  0
  8 13  1  1  0  0  0
  8  5  1  0  0  0  0
  9 11  1  1  0  0  0
  9  7  1  0  0  0  0
  9  8  1  0  0  0  0
 13 12  1  1  0  0  0
 14 13  1  0  0  0  0
 15 23  1  0  0  0  0
 15 18  2  0  0  0  0
 16 18  1  0  0  0  0
 17 21  1  0  0  0  0
 17 20  1  0  0  0  0
 17  2  1  1  0  0  0
 19 16  2  0  0  0  0
 20 23  2  0  0  0  0
 21 15  1  0  0  0  0
 22 21  2  0  0  0  0
 22 19  1  0  0  0  0
 24 25  1  0  0  0  0
 25 26  1  0  0  0  0
 27 30  1  0  0  0  0
 28 27  2  0  0  0  0
 29 28  2  0  0  0  0
 29 26  1  0  0  0  0
 30 31  1  0  0  0  0
 31 34  1  0  0  0  0
 32 35  1  0  0  0  0
 32 37  1  0  0  0  0
 33 35  2  0  0  0  0
 34 36  1  0  0  0  0
 34 33  1  0  0  0  0
 36 32  2  0  0  0  0
 38 37  1  6  0  0  0
 38 40  1  0  0  0  0
 39 41  1  6  0  0  0
 39 38  1  0  0  0  0
 39 40  1  0  0  0  0
 42 44  1  0  0  0  0
 42 41  1  0  0  0  0
 43 42  1  0  0  0  0
 43 44  1  0  0  0  0
 45 46  1  0  0  0  0
 46 42  1  0  0  0  0
M  END
>  <MODEL>
7

>  <REMARK>
 VINA RESULT:      -7.1      2.143      3.697
  Name = 
  16 active torsions:
  status: ('A' for Active; 'I' for Inactive)
    1  A    between atoms: C_1  and  C_12
    2  A    between atoms: C_3  and  C_42
    3  A    between atoms: C_6  and  C_41
    4  A    between atoms: C_7  and  C_42
    5  A    between atoms: C_9  and  C_19
    6  A    between atoms: C_9  and  C_26
    7  A    between atoms: C_10  and  C_41
    8  A    between atoms: C_12  and  C_40
    9  A    between atoms: N_15  and  C_21
   10  A    between atoms: N_15  and  C_42
   11  A    between atoms: C_21  and  C_23
   12  A    between atoms: C_23  and  C_31
   13  A    between atoms: C_25  and  C_38
   14  A    between atoms: C_26  and  C_39
   15  A    between atoms: N_27  and  C_40
   16  A    between atoms: C_28  and  C_31
                            x       y       z     vdW  Elec       q    Type
                         _______ _______ _______ _____ _____    ______ ____

>  <TORSDO>
F 16

$$$$
=
 OpenBabel10232408593D

 46 52  0  0  1  0  0  0  0  0999 V2000
  187.9110  177.9800  143.5890 N   0  0  0  0  0  2  0  0  0  0  0  0
  186.4970  178.1270  143.8960 C   0  0  1  0  0  3  0  0  0  0  0  0
  185.9590  180.0440  141.9140 O   0  0  0  0  0  1  0  0  0  0  0  0
  185.5410  177.7470  142.7240 C   0  0  2  0  0  3  0  0  0  0  0  0
  182.2690  179.1790  143.6830 C   0  0  0  0  0  2  0  0  0  0  0  0
  185.4070  178.7980  141.5910 C   0  0  1  0  0  3  0  0  0  0  0  0
  184.2200  178.4970  142.4930 C   0  0  1  0  0  0  0  0  0  0  0  0
  181.7990  178.3620  142.4720 C   0  0  2  0  0  3  0  0  0  0  0  0
  183.0700  177.6680  141.9380 C   0  0  1  0  0  3  0  0  0  0  0  0
  183.7140  179.5720  143.4290 C   0  0  0  0  0  2  0  0  0  0  0  0
  183.1070  177.5740  140.4810 N   0  0  0  0  0  1  0  0  0  0  0  0
  180.0940  180.2030  142.1380 C   0  0  0  0  0  1  0  0  0  0  0  0
  181.0850  179.2740  141.4530 C   0  0  2  0  0  3  0  0  0  0  0  0
  180.3810  178.4970  140.5300 O   0  0  0  0  0  1  0  0  0  0  0  0
  186.8090  178.4390  147.2800 C   0  0  0  0  0  0  0  0  0  0  0  0
  188.7940  178.0090  148.4420 C   0  0  0  0  0  3  0  0  0  0  0  0
  186.1130  177.5370  145.2640 C   0  0  2  0  0  3  0  0  0  0  0  0
  187.5820  178.6340  148.3760 N   0  0  0  0  0  0  0  0  0  0  0  0
  189.2080  177.1660  147.3880 C   0  0  0  0  0  3  0  0  0  0  0  0
  185.0940  178.4320  145.9460 C   0  0  0  0  0  3  0  0  0  0  0  0
  187.2100  177.6370  146.2630 C   0  0  0  0  0  0  0  0  0  0  0  0
  188.3980  176.9820  146.3040 N   0  0  0  0  0  0  0  0  0  0  0  0
  185.4990  178.9300  147.0800 N   0  0  0  0  0  0  0  0  0  0  0  0
  188.0780  176.6700  142.9800 C   0  0  0  0  0  2  0  0  0  0  0  0
  189.4180  176.5770  142.2630 C   0  0  0  0  0  2  0  0  0  0  0  0
  189.3700  177.2500  140.9000 C   0  0  0  0  0  2  0  0  0  0  0  0
  191.5720  176.1400  138.3080 C   0  0  0  0  0  3  0  0  0  0  0  0
  191.1740  176.8000  139.3580 C   0  0  0  0  0  0  0  0  0  0  0  0
  190.7580  177.4520  140.4030 C   0  0  0  0  0  3  0  0  0  0  0  0
  190.8880  176.3520  137.0020 C   0  0  0  0  0  2  0  0  0  0  0  0
  189.6050  175.5370  136.9460 C   0  0  0  0  0  2  0  0  0  0  0  0
  186.4020  177.1190  137.3050 C   0  0  0  0  0  0  0  0  0  0  0  0
  188.5180  177.7210  137.1820 N   0  0  0  0  0  0  0  0  0  0  0  0
  188.4490  176.4010  137.1240 N   0  0  0  0  0  0  0  0  0  0  0  0
  187.2650  178.2020  137.2830 C   0  0  0  0  0  3  0  0  0  0  0  0
  187.1730  175.9840  137.1730 C   0  0  0  0  0  3  0  0  0  0  0  0
  184.9100  177.1600  137.2860 C   0  0  0  0  0  2  0  0  0  0  0  0
  184.3640  176.7840  135.9080 C   0  0  1  0  0  3  0  0  0  0  0  0
  183.6030  175.4970  135.8380 C   0  0  2  0  0  3  0  0  0  0  0  0
  182.9570  176.7400  135.9630 O   0  0  0  0  0  0  0  0  0  0  0  0
  183.4540  174.7210  137.1470 C   0  0  0  0  0  2  0  0  0  0  0  0
  183.8600  173.2640  136.9770 C   0  0  0  0  0  0  0  0  0  0  0  0
  185.0940  172.9050  137.7680 C   0  0  0  0  0  2  0  0  0  0  0  0
  185.1600  172.9950  136.2510 C   0  0  0  0  0  2  0  0  0  0  0  0
  183.4540  170.9090  136.8440 O   0  0  0  0  0  1  0  0  0  0  0  0
  182.8280  172.1510  136.9660 C   0  0  0  0  0  2  0  0  0  0  0  0
  2  1  1  6  0  0  0
  4  2  1  1  0  0  0
  6  3  1  1  0  0  0
  6  7  1  0  0  0  0
  6  4  1  0  0  0  0
  7  4  1  0  0  0  0
  7 10  1  1  0  0  0
  8 13  1  6  0  0  0
  8  5  1  0  0  0  0
  9 11  1  6  0  0  0
  9  8  1  0  0  0  0
  9  7  1  0  0  0  0
 10  5  1  0  0  0  0
 13 12  1  1  0  0  0
 14 13  1  0  0  0  0
 15 18  2  0  0  0  0
 17  2  1  6  0  0  0
 17 20  1  0  0  0  0
 17 21  1  0  0  0  0
 18 16  1  0  0  0  0
 19 16  2  0  0  0  0
 20 23  2  0  0  0  0
 21 22  2  0  0  0  0
 21 15  1  0  0  0  0
 22 19  1  0  0  0  0
 23 15  1  0  0  0  0
 24  1  1  0  0  0  0
 25 24  1  0  0  0  0
 26 25  1  0  0  0  0
 27 28  2  0  0  0  0
 28 29  2  0  0  0  0
 29 26  1  0  0  0  0
 30 27  1  0  0  0  0
 31 30  1  0  0  0  0
 31 34  1  0  0  0  0
 33 35  2  0  0  0  0
 34 36  1  0  0  0  0
 34 33  1  0  0  0  0
 35 32  1  0  0  0  0
 36 32  2  0  0  0  0
 37 32  1  0  0  0  0
 38 40  1  0  0  0  0
 38 37  1  1  0  0  0
 39 38  1  0  0  0  0
 39 40  1  0  0  0  0
 39 41  1  1  0  0  0
 42 41  1  0  0  0  0
 42 43  1  0  0  0  0
 44 42  1  0  0  0  0
 44 43  1  0  0  0  0
 45 46  1  0  0  0  0
 46 42  1  0  0  0  0
M  END
>  <MODEL>
8

>  <REMARK>
 VINA RESULT:      -7.1      3.155     10.212
  Name = 
  16 active torsions:
  status: ('A' for Active; 'I' for Inactive)
    1  A    between atoms: C_1  and  C_12
    2  A    between atoms: C_3  and  C_42
    3  A    between atoms: C_6  and  C_41
    4  A    between atoms: C_7  and  C_42
    5  A    between atoms: C_9  and  C_19
    6  A    between atoms: C_9  and  C_26
    7  A    between atoms: C_10  and  C_41
    8  A    between atoms: C_12  and  C_40
    9  A    between atoms: N_15  and  C_21
   10  A    between atoms: N_15  and  C_42
   11  A    between atoms: C_21  and  C_23
   12  A    between atoms: C_23  and  C_31
   13  A    between atoms: C_25  and  C_38
   14  A    between atoms: C_26  and  C_39
   15  A    between atoms: N_27  and  C_40
   16  A    between atoms: C_28  and  C_31
                            x       y       z     vdW  Elec       q    Type
                         _______ _______ _______ _____ _____    ______ ____

>  <TORSDO>
F 16

$$$$
=
 OpenBabel10232408593D

 46 52  0  0  1  0  0  0  0  0999 V2000
  188.8840  178.1340  145.7550 N   0  0  0  0  0  2  0  0  0  0  0  0
  189.4520  177.5560  144.5460 C   0  0  1  0  0  3  0  0  0  0  0  0
  187.5410  176.1580  143.0350 O   0  0  0  0  0  1  0  0  0  0  0  0
  188.9300  178.1930  143.2210 C   0  0  2  0  0  3  0  0  0  0  0  0
  190.8870  176.5390  140.5550 C   0  0  0  0  0  2  0  0  0  0  0  0
  187.7720  177.4390  142.5180 C   0  0  1  0  0  3  0  0  0  0  0  0
  189.1430  177.5050  141.8650 C   0  0  1  0  0  0  0  0  0  0  0  0
  190.2140  177.6150  139.6910 C   0  0  2  0  0  3  0  0  0  0  0  0
  189.3430  178.4290  140.6710 C   0  0  1  0  0  3  0  0  0  0  0  0
  189.9480  176.2330  141.7080 C   0  0  0  0  0  2  0  0  0  0  0  0
  188.0760  178.8660  140.0910 N   0  0  0  0  0  1  0  0  0  0  0  0
  190.1200  175.6880  138.0530 C   0  0  0  0  0  1  0  0  0  0  0  0
  189.4380  176.9620  138.5280 C   0  0  2  0  0  3  0  0  0  0  0  0
  189.3720  177.8440  137.4470 O   0  0  0  0  0  1  0  0  0  0  0  0
  192.0030  175.6700  145.8040 C   0  0  0  0  0  0  0  0  0  0  0  0
  192.5930  175.6350  148.0690 C   0  0  0  0  0  3  0  0  0  0  0  0
  190.9780  177.3790  144.6240 C   0  0  2  0  0  3  0  0  0  0  0  0
  192.5880  175.0290  146.8450 N   0  0  0  0  0  0  0  0  0  0  0  0
  192.0110  176.9120  148.2220 C   0  0  0  0  0  3  0  0  0  0  0  0
  191.4050  176.1890  143.7820 C   0  0  0  0  0  3  0  0  0  0  0  0
  191.4350  176.8920  145.9520 C   0  0  0  0  0  0  0  0  0  0  0  0
  191.4410  177.5350  147.1480 N   0  0  0  0  0  0  0  0  0  0  0  0
  191.9810  175.2380  144.4590 N   0  0  0  0  0  0  0  0  0  0  0  0
  188.0220  177.1210  146.3430 C   0  0  0  0  0  2  0  0  0  0  0  0
  186.5780  177.3260  145.9070 C   0  0  0  0  0  2  0  0  0  0  0  0
  185.8760  178.3660  146.7670 C   0  0  0  0  0  2  0  0  0  0  0  0
  183.7360  179.3210  144.0640 C   0  0  0  0  0  3  0  0  0  0  0  0
  184.0750  178.8670  145.2360 C   0  0  0  0  0  0  0  0  0  0  0  0
  184.4350  178.4140  146.4010 C   0  0  0  0  0  3  0  0  0  0  0  0
  184.2020  178.6160  142.8370 C   0  0  0  0  0  2  0  0  0  0  0  0
  183.0960  178.5950  141.7940 C   0  0  0  0  0  2  0  0  0  0  0  0
  184.2470  177.9600  138.4520 C   0  0  0  0  0  0  0  0  0  0  0  0
  184.4640  179.5270  139.9860 N   0  0  0  0  0  0  0  0  0  0  0  0
  183.6640  178.5830  140.4550 N   0  0  0  0  0  0  0  0  0  0  0  0
  184.8550  179.1680  138.7490 C   0  0  0  0  0  3  0  0  0  0  0  0
  183.5180  177.5900  139.5620 C   0  0  0  0  0  3  0  0  0  0  0  0
  184.4740  177.1130  137.2440 C   0  0  0  0  0  2  0  0  0  0  0  0
  185.9270  177.1980  136.7740 C   0  0  1  0  0  3  0  0  0  0  0  0
  186.4470  175.9970  136.0480 C   0  0  2  0  0  3  0  0  0  0  0  0
  185.9640  177.1290  135.3670 O   0  0  0  0  0  0  0  0  0  0  0  0
  185.4680  174.8400  135.8540 C   0  0  0  0  0  2  0  0  0  0  0  0
  185.8910  173.6150  136.6520 C   0  0  0  0  0  0  0  0  0  0  0  0
  185.0130  172.4150  136.3930 C   0  0  0  0  0  2  0  0  0  0  0  0
  184.9430  173.1380  137.7300 C   0  0  0  0  0  2  0  0  0  0  0  0
  187.5880  171.9610  136.3220 O   0  0  0  0  0  1  0  0  0  0  0  0
  187.3540  173.2450  136.8160 C   0  0  0  0  0  2  0  0  0  0  0  0
  1 24  1  0  0  0  0
  2  1  1  1  0  0  0
  4  2  1  1  0  0  0
  5 10  1  0  0  0  0
  6  3  1  1  0  0  0
  6  4  1  0  0  0  0
  7 10  1  1  0  0  0
  7  6  1  0  0  0  0
  7  4  1  0  0  0  0
  8 13  1  6  0  0  0
  8  5  1  0  0  0  0
  8  9  1  0  0  0  0
  9 11  1  6  0  0  0
  9  7  1  0  0  0  0
 13 12  1  6  0  0  0
 14 13  1  0  0  0  0
 15 21  1  0  0  0  0
 15 18  2  0  0  0  0
 16 19  2  0  0  0  0
 17  2  1  1  0  0  0
 17 21  1  0  0  0  0
 18 16  1  0  0  0  0
 20 23  2  0  0  0  0
 20 17  1  0  0  0  0
 21 22  2  0  0  0  0
 22 19  1  0  0  0  0
 23 15  1  0  0  0  0
 25 24  1  0  0  0  0
 25 26  1  0  0  0  0
 27 28  2  0  0  0  0
 28 29  2  0  0  0  0
 29 26  1  0  0  0  0
 30 27  1  0  0  0  0
 31 30  1  0  0  0  0
 32 35  1  0  0  0  0
 32 36  2  0  0  0  0
 33 34  1  0  0  0  0
 34 31  1  0  0  0  0
 35 33  2  0  0  0  0
 36 34  1  0  0  0  0
 37 32  1  0  0  0  0
 38 37  1  6  0  0  0
 39 41  1  6  0  0  0
 39 38  1  0  0  0  0
 40 39  1  0  0  0  0
 40 38  1  0  0  0  0
 41 42  1  0  0  0  0
 42 46  1  0  0  0  0
 42 44  1  0  0  0  0
 43 42  1  0  0  0  0
 43 44  1  0  0  0  0
 45 46  1  0  0  0  0
M  END
>  <MODEL>
9

>  <REMARK>
 VINA RESULT:      -7.1      2.559      8.653
  Name = 
  16 active torsions:
  status: ('A' for Active; 'I' for Inactive)
    1  A    between atoms: C_1  and  C_12
    2  A    between atoms: C_3  and  C_42
    3  A    between atoms: C_6  and  C_41
    4  A    between atoms: C_7  and  C_42
    5  A    between atoms: C_9  and  C_19
    6  A    between atoms: C_9  and  C_26
    7  A    between atoms: C_10  and  C_41
    8  A    between atoms: C_12  and  C_40
    9  A    between atoms: N_15  and  C_21
   10  A    between atoms: N_15  and  C_42
   11  A    between atoms: C_21  and  C_23
   12  A    between atoms: C_23  and  C_31
   13  A    between atoms: C_25  and  C_38
   14  A    between atoms: C_26  and  C_39
   15  A    between atoms: N_27  and  C_40
   16  A    between atoms: C_28  and  C_31
                            x       y       z     vdW  Elec       q    Type
                         _______ _______ _______ _____ _____    ______ ____

>  <TORSDO>
F 16

$$$$
