=
 OpenBabel10232408113D

 38 42  0  0  1  0  0  0  0  0999 V2000
  188.8370  178.3660  141.6350 S   0  0  0  0  0  0  0  0  0  0  0  0
  190.4360  177.3110  138.2020 C   0  0  2  0  0  3  0  0  0  0  0  0
  187.3270  177.9460  139.4900 N   0  0  0  0  0  0  0  0  0  0  0  0
  188.8750  178.9020  137.0610 C   0  0  0  0  0  2  0  0  0  0  0  0
  189.5880  176.9940  139.4430 C   0  0  1  0  0  3  0  0  0  0  0  0
  186.7550  178.1560  138.3380 C   0  0  0  0  0  0  0  0  0  0  0  0
  189.5880  177.5660  136.9600 C   0  0  0  0  0  2  0  0  0  0  0  0
  189.6420  176.7540  141.6570 C   0  0  1  0  0  3  0  0  0  0  0  0
  187.4450  178.6820  137.1920 N   0  0  0  0  0  2  0  0  0  0  0  0
  190.4330  176.6570  140.5110 O   0  0  0  0  0  0  0  0  0  0  0  0
  188.7220  178.1910  139.8410 C   0  0  2  0  0  3  0  0  0  0  0  0
  191.0310  175.0030  137.9700 O   0  0  0  0  0  0  0  0  0  0  0  0
  192.7540  176.5290  137.5790 N   0  0  0  0  0  2  0  0  0  0  0  0
  193.7390  175.5020  137.2830 C   0  0  0  0  0  1  0  0  0  0  0  0
  191.4050  176.2060  137.9130 C   0  0  0  0  0  0  0  0  0  0  0  0
  185.0050  177.8190  138.1910 S   0  0  0  0  0  0  0  0  0  0  0  0
  184.5140  179.3620  139.0310 C   0  0  0  0  0  2  0  0  0  0  0  0
  183.1410  178.4880  140.9970 N   0  0  0  0  0  2  0  0  0  0  0  0
  184.3220  179.1190  140.4930 C   0  0  0  0  0  0  0  0  0  0  0  0
  185.2300  179.4470  141.2990 O   0  0  0  0  0  0  0  0  0  0  0  0
  180.6650  178.5060  140.8530 C   0  0  1  0  0  3  0  0  0  0  0  0
  181.1520  179.3240  139.6510 C   0  0  2  0  0  0  0  0  0  0  0  0
  181.9700  178.1700  140.1880 C   0  0  1  0  0  0  0  0  0  0  0  0
  181.9620  176.9510  139.5060 O   0  0  0  0  0  1  0  0  0  0  0  0
  180.3750  179.9880  140.7700 C   0  0  0  0  0  2  0  0  0  0  0  0
  180.8910  179.6720  136.9400 S   0  0  0  0  0  1  0  0  0  0  0  0
  180.2590  178.9470  138.4810 C   0  0  0  0  0  2  0  0  0  0  0  0
  190.5010  176.6280  142.9040 C   0  0  0  0  0  2  0  0  0  0  0  0
  189.6380  176.5920  144.1540 C   0  0  0  0  0  2  0  0  0  0  0  0
  190.1980  177.5290  145.2210 C   0  0  2  0  0  3  0  0  0  0  0  0
  191.3130  176.7760  145.9400 C   0  0  0  0  0  1  0  0  0  0  0  0
  189.2820  177.1500  147.3950 C   0  0  0  0  0  2  0  0  0  0  0  0
  185.9210  179.0040  145.9110 O   0  0  0  0  0  1  0  0  0  0  0  0
  186.6800  178.0060  146.5160 C   0  0  1  0  0  3  0  0  0  0  0  0
  187.8360  177.5990  145.5860 C   0  0  0  0  0  2  0  0  0  0  0  0
  187.1740  178.4970  147.8800 C   0  0  0  0  0  2  0  0  0  0  0  0
  189.1460  177.9380  146.1610 N   0  0  0  0  0  0  0  0  0  0  0  0
  188.2420  177.5590  148.4470 C   0  0  0  0  0  2  0  0  0  0  0  0
  1  8  1  0  0  0  0
  2 15  1  6  0  0  0
  2  5  1  0  0  0  0
  4  9  1  0  0  0  0
  5 11  1  0  0  0  0
  5 10  1  1  0  0  0
  6  3  2  0  0  0  0
  7  4  1  0  0  0  0
  7  2  1  0  0  0  0
  8 28  1  1  0  0  0
  9  6  1  0  0  0  0
 10  8  1  0  0  0  0
 11  3  1  1  0  0  0
 11  1  1  0  0  0  0
 13 15  1  0  0  0  0
 14 13  1  0  0  0  0
 15 12  2  0  0  0  0
 16  6  1  0  0  0  0
 16 17  1  0  0  0  0
 17 19  1  0  0  0  0
 19 18  1  0  0  0  0
 19 20  2  0  0  0  0
 21 25  1  1  0  0  0
 22 27  1  6  0  0  0
 22 23  1  0  0  0  0
 22 25  1  0  0  0  0
 22 21  1  0  0  0  0
 23 24  1  6  0  0  0
 23 21  1  0  0  0  0
 23 18  1  0  0  0  0
 26 27  1  0  0  0  0
 28 29  1  0  0  0  0
 29 30  1  0  0  0  0
 30 31  1  1  0  0  0
 30 37  1  0  0  0  0
 32 38  1  0  0  0  0
 34 33  1  6  0  0  0
 34 36  1  0  0  0  0
 35 37  1  0  0  0  0
 35 34  1  0  0  0  0
 36 38  1  0  0  0  0
 37 32  1  0  0  0  0
M  END
>  <MODEL>
1

>  <REMARK>
 VINA RESULT:      -8.4      0.000      0.000
  Name = 
  10 active torsions:
  status: ('A' for Active; 'I' for Inactive)
    1  A    between atoms: C_5  and  C_38
    2  A    between atoms: S_9  and  C_20
    3  A    between atoms: S_9  and  C_29
    4  A    between atoms: C_10  and  C_16
    5  A    between atoms: C_13  and  N_15
    6  A    between atoms: C_21  and  C_31
    7  A    between atoms: C_21  and  C_32
    8  A    between atoms: C_25  and  C_32
    9  A    between atoms: C_26  and  C_29
   10  A    between atoms: N_27  and  C_31
                            x       y       z     vdW  Elec       q    Type
                         _______ _______ _______ _____ _____    ______ ____

>  <TORSDO>
F 10

$$$$
=
 OpenBabel10232408113D

 38 42  0  0  1  0  0  0  0  0999 V2000
  188.9410  178.3110  140.0870 S   0  0  0  0  0  0  0  0  0  0  0  0
  191.1680  176.3800  137.4860 C   0  0  2  0  0  3  0  0  0  0  0  0
  187.8460  176.9600  138.0790 N   0  0  0  0  0  0  0  0  0  0  0  0
  189.6710  177.2330  135.6700 C   0  0  0  0  0  2  0  0  0  0  0  0
  190.1630  176.3910  138.6480 C   0  0  1  0  0  3  0  0  0  0  0  0
  187.4510  176.6730  136.8710 C   0  0  0  0  0  0  0  0  0  0  0  0
  190.5130  176.0630  136.1450 C   0  0  0  0  0  2  0  0  0  0  0  0
  189.8800  176.9410  140.7880 C   0  0  1  0  0  3  0  0  0  0  0  0
  188.2650  176.8650  135.7020 N   0  0  0  0  0  2  0  0  0  0  0  0
  190.8520  176.5700  139.8570 O   0  0  0  0  0  0  0  0  0  0  0  0
  189.1360  177.5120  138.4790 C   0  0  2  0  0  3  0  0  0  0  0  0
  192.0160  174.1640  137.8170 O   0  0  0  0  0  0  0  0  0  0  0  0
  193.6090  175.8700  137.8820 N   0  0  0  0  0  2  0  0  0  0  0  0
  194.7210  174.9650  138.1190 C   0  0  0  0  0  1  0  0  0  0  0  0
  192.2700  175.3970  137.7340 C   0  0  0  0  0  0  0  0  0  0  0  0
  185.7880  176.0550  136.6500 S   0  0  0  0  0  0  0  0  0  0  0  0
  185.0400  177.3430  137.7030 C   0  0  0  0  0  2  0  0  0  0  0  0
  182.7880  178.5020  138.0170 N   0  0  0  0  0  2  0  0  0  0  0  0
  183.6060  177.5500  137.3310 C   0  0  0  0  0  0  0  0  0  0  0  0
  183.1150  176.8980  136.3750 O   0  0  0  0  0  0  0  0  0  0  0  0
  182.0820  179.4700  140.1890 C   0  0  1  0  0  3  0  0  0  0  0  0
  183.2040  178.4800  140.5250 C   0  0  2  0  0  0  0  0  0  0  0  0
  183.1980  179.2310  139.2120 C   0  0  1  0  0  0  0  0  0  0  0  0
  184.0510  180.3240  139.0460 O   0  0  0  0  0  1  0  0  0  0  0  0
  181.7850  178.2250  140.9950 C   0  0  0  0  0  2  0  0  0  0  0  0
  185.5070  178.1160  141.9750 S   0  0  0  0  0  1  0  0  0  0  0  0
  184.0520  179.1380  141.6010 C   0  0  0  0  0  2  0  0  0  0  0  0
  190.5330  177.3800  142.0880 C   0  0  0  0  0  2  0  0  0  0  0  0
  189.4950  177.5460  143.1850 C   0  0  0  0  0  2  0  0  0  0  0  0
  190.1620  177.9450  144.4990 C   0  0  2  0  0  3  0  0  0  0  0  0
  191.1930  176.8690  144.8240 C   0  0  0  0  0  1  0  0  0  0  0  0
  189.4860  177.0860  146.6240 C   0  0  0  0  0  2  0  0  0  0  0  0
  185.8510  178.8130  145.7650 O   0  0  0  0  0  1  0  0  0  0  0  0
  186.7480  177.8080  146.1150 C   0  0  1  0  0  3  0  0  0  0  0  0
  187.8470  177.6990  145.0420 C   0  0  0  0  0  2  0  0  0  0  0  0
  187.3180  178.0950  147.5060 C   0  0  0  0  0  2  0  0  0  0  0  0
  189.1680  178.0650  145.5740 N   0  0  0  0  0  0  0  0  0  0  0  0
  188.5140  177.1880  147.8080 C   0  0  0  0  0  2  0  0  0  0  0  0
  1  8  1  0  0  0  0
  2 15  1  1  0  0  0
  2  5  1  0  0  0  0
  4  9  1  0  0  0  0
  4  7  1  0  0  0  0
  5 10  1  1  0  0  0
  6  3  2  0  0  0  0
  7  2  1  0  0  0  0
  8 28  1  1  0  0  0
  9  6  1  0  0  0  0
 10  8  1  0  0  0  0
 11  3  1  1  0  0  0
 11  5  1  0  0  0  0
 11  1  1  0  0  0  0
 13 14  1  0  0  0  0
 15 12  2  0  0  0  0
 15 13  1  0  0  0  0
 16  6  1  0  0  0  0
 16 17  1  0  0  0  0
 18 23  1  0  0  0  0
 19 17  1  0  0  0  0
 19 18  1  0  0  0  0
 20 19  2  0  0  0  0
 21 22  1  0  0  0  0
 21 25  1  6  0  0  0
 22 25  1  0  0  0  0
 22 27  1  1  0  0  0
 23 24  1  6  0  0  0
 23 21  1  0  0  0  0
 23 22  1  0  0  0  0
 27 26  1  0  0  0  0
 28 29  1  0  0  0  0
 29 30  1  0  0  0  0
 30 31  1  1  0  0  0
 30 37  1  0  0  0  0
 32 38  1  0  0  0  0
 34 33  1  6  0  0  0
 34 36  1  0  0  0  0
 35 37  1  0  0  0  0
 35 34  1  0  0  0  0
 36 38  1  0  0  0  0
 37 32  1  0  0  0  0
M  END
>  <MODEL>
2

>  <REMARK>
 VINA RESULT:      -7.9      1.817      2.424
  Name = 
  10 active torsions:
  status: ('A' for Active; 'I' for Inactive)
    1  A    between atoms: C_5  and  C_38
    2  A    between atoms: S_9  and  C_20
    3  A    between atoms: S_9  and  C_29
    4  A    between atoms: C_10  and  C_16
    5  A    between atoms: C_13  and  N_15
    6  A    between atoms: C_21  and  C_31
    7  A    between atoms: C_21  and  C_32
    8  A    between atoms: C_25  and  C_32
    9  A    between atoms: C_26  and  C_29
   10  A    between atoms: N_27  and  C_31
                            x       y       z     vdW  Elec       q    Type
                         _______ _______ _______ _____ _____    ______ ____

>  <TORSDO>
F 10

$$$$
=
 OpenBabel10232408113D

 38 42  0  0  1  0  0  0  0  0999 V2000
  188.1130  178.5170  140.7530 S   0  0  0  0  0  0  0  0  0  0  0  0
  190.3560  177.0770  137.8630 C   0  0  2  0  0  3  0  0  0  0  0  0
  187.0460  177.7300  138.4510 N   0  0  0  0  0  0  0  0  0  0  0  0
  189.0040  178.4160  136.2360 C   0  0  0  0  0  2  0  0  0  0  0  0
  189.2950  176.8930  138.9600 C   0  0  1  0  0  3  0  0  0  0  0  0
  186.6980  177.7510  137.1950 C   0  0  0  0  0  0  0  0  0  0  0  0
  189.7530  177.1150  136.4630 C   0  0  0  0  0  2  0  0  0  0  0  0
  188.9350  176.9650  141.1560 C   0  0  1  0  0  3  0  0  0  0  0  0
  187.5800  178.1460  136.1320 N   0  0  0  0  0  2  0  0  0  0  0  0
  189.9310  176.7480  140.2020 O   0  0  0  0  0  0  0  0  0  0  0  0
  188.3430  178.0900  139.0140 C   0  0  2  0  0  3  0  0  0  0  0  0
  191.0330  174.7860  138.0410 O   0  0  0  0  0  0  0  0  0  0  0  0
  192.7690  176.3360  137.8450 N   0  0  0  0  0  2  0  0  0  0  0  0
  193.8140  175.3270  137.8900 C   0  0  0  0  0  1  0  0  0  0  0  0
  191.3850  175.9920  137.9210 C   0  0  0  0  0  0  0  0  0  0  0  0
  185.0150  177.3110  136.7790 S   0  0  0  0  0  0  0  0  0  0  0  0
  184.3920  177.6050  138.4670 C   0  0  0  0  0  2  0  0  0  0  0  0
  182.4400  176.7590  139.8770 N   0  0  0  0  0  2  0  0  0  0  0  0
  183.4170  176.5400  138.8550 C   0  0  0  0  0  0  0  0  0  0  0  0
  183.4320  175.4380  138.2500 O   0  0  0  0  0  0  0  0  0  0  0  0
  181.7420  179.1300  140.0830 C   0  0  1  0  0  3  0  0  0  0  0  0
  181.0370  178.3920  141.2290 C   0  0  2  0  0  0  0  0  0  0  0  0
  182.3920  177.9400  140.7310 C   0  0  1  0  0  0  0  0  0  0  0  0
  183.5320  178.2510  141.4750 O   0  0  0  0  0  1  0  0  0  0  0  0
  180.2340  179.0030  140.0970 C   0  0  0  0  0  2  0  0  0  0  0  0
  180.2450  178.5580  143.8530 S   0  0  0  0  0  1  0  0  0  0  0  0
  181.1060  179.3080  142.4390 C   0  0  0  0  0  2  0  0  0  0  0  0
  189.5440  177.0540  142.5450 C   0  0  0  0  0  2  0  0  0  0  0  0
  188.7080  177.9460  143.4480 C   0  0  0  0  0  2  0  0  0  0  0  0
  187.6720  177.1210  144.2070 C   0  0  2  0  0  3  0  0  0  0  0  0
  186.3010  177.6940  143.8620 C   0  0  0  0  0  1  0  0  0  0  0  0
  186.9810  178.1380  146.2560 C   0  0  0  0  0  2  0  0  0  0  0  0
  190.6400  176.9090  147.6830 O   0  0  0  0  0  1  0  0  0  0  0  0
  189.6040  177.7900  147.3850 C   0  0  1  0  0  3  0  0  0  0  0  0
  189.2710  177.7080  145.8850 C   0  0  0  0  0  2  0  0  0  0  0  0
  188.3950  177.4730  148.2700 C   0  0  0  0  0  2  0  0  0  0  0  0
  187.9190  177.1780  145.6540 N   0  0  0  0  0  0  0  0  0  0  0  0
  187.1480  178.2130  147.7800 C   0  0  0  0  0  2  0  0  0  0  0  0
  1  8  1  0  0  0  0
  2 15  1  6  0  0  0
  2  5  1  0  0  0  0
  4  7  1  0  0  0  0
  5 11  1  0  0  0  0
  5 10  1  1  0  0  0
  6  3  2  0  0  0  0
  7  2  1  0  0  0  0
  8 28  1  1  0  0  0
  9  4  1  0  0  0  0
  9  6  1  0  0  0  0
 10  8  1  0  0  0  0
 11  3  1  1  0  0  0
 11  1  1  0  0  0  0
 13 14  1  0  0  0  0
 13 15  1  0  0  0  0
 15 12  2  0  0  0  0
 16  6  1  0  0  0  0
 16 17  1  0  0  0  0
 17 19  1  0  0  0  0
 18 23  1  0  0  0  0
 19 18  1  0  0  0  0
 20 19  2  0  0  0  0
 21 25  1  6  0  0  0
 21 23  1  0  0  0  0
 21 22  1  0  0  0  0
 22 27  1  1  0  0  0
 23 22  1  0  0  0  0
 23 24  1  1  0  0  0
 25 22  1  0  0  0  0
 27 26  1  0  0  0  0
 28 29  1  0  0  0  0
 29 30  1  0  0  0  0
 30 31  1  1  0  0  0
 30 37  1  0  0  0  0
 32 38  1  0  0  0  0
 34 33  1  6  0  0  0
 34 36  1  0  0  0  0
 35 34  1  0  0  0  0
 37 35  1  0  0  0  0
 37 32  1  0  0  0  0
 38 36  1  0  0  0  0
M  END
>  <MODEL>
3

>  <REMARK>
 VINA RESULT:      -7.7      1.908      2.507
  Name = 
  10 active torsions:
  status: ('A' for Active; 'I' for Inactive)
    1  A    between atoms: C_5  and  C_38
    2  A    between atoms: S_9  and  C_20
    3  A    between atoms: S_9  and  C_29
    4  A    between atoms: C_10  and  C_16
    5  A    between atoms: C_13  and  N_15
    6  A    between atoms: C_21  and  C_31
    7  A    between atoms: C_21  and  C_32
    8  A    between atoms: C_25  and  C_32
    9  A    between atoms: C_26  and  C_29
   10  A    between atoms: N_27  and  C_31
                            x       y       z     vdW  Elec       q    Type
                         _______ _______ _______ _____ _____    ______ ____

>  <TORSDO>
F 10

$$$$
=
 OpenBabel10232408113D

 38 42  0  0  1  0  0  0  0  0999 V2000
  183.8660  178.9020  143.7630 S   0  0  0  0  0  0  0  0  0  0  0  0
  186.6360  178.7790  140.9760 C   0  0  2  0  0  3  0  0  0  0  0  0
  183.4130  177.7150  141.4300 N   0  0  0  0  0  0  0  0  0  0  0  0
  184.8640  179.2970  139.2850 C   0  0  0  0  0  2  0  0  0  0  0  0
  185.7610  178.0860  142.0330 C   0  0  1  0  0  3  0  0  0  0  0  0
  183.1480  177.5740  140.1620 C   0  0  0  0  0  0  0  0  0  0  0  0
  186.1460  178.5300  139.5540 C   0  0  0  0  0  2  0  0  0  0  0  0
  185.3290  177.9500  144.2140 C   0  0  1  0  0  3  0  0  0  0  0  0
  183.7620  178.3630  139.1290 N   0  0  0  0  0  2  0  0  0  0  0  0
  186.3380  178.2610  143.3010 O   0  0  0  0  0  0  0  0  0  0  0  0
  184.3430  178.6600  142.0380 C   0  0  2  0  0  3  0  0  0  0  0  0
  188.7880  178.7580  142.0290 O   0  0  0  0  0  0  0  0  0  0  0  0
  188.5960  177.4460  140.1070 N   0  0  0  0  0  2  0  0  0  0  0  0
  189.9710  176.9800  140.1610 C   0  0  0  0  0  1  0  0  0  0  0  0
  188.0630  178.3390  141.0850 C   0  0  0  0  0  0  0  0  0  0  0  0
  181.9160  176.3690  139.6860 S   0  0  0  0  0  0  0  0  0  0  0  0
  183.0090  175.5520  138.4750 C   0  0  0  0  0  2  0  0  0  0  0  0
  182.8610  173.5060  136.9570 N   0  0  0  0  0  2  0  0  0  0  0  0
  182.2280  174.5980  137.6300 C   0  0  0  0  0  0  0  0  0  0  0  0
  180.9820  174.7370  137.5310 O   0  0  0  0  0  0  0  0  0  0  0  0
  184.7800  172.7500  135.5800 C   0  0  1  0  0  3  0  0  0  0  0  0
  185.0980  174.2000  135.9690 C   0  0  2  0  0  0  0  0  0  0  0  0
  184.3040  173.3030  136.8930 C   0  0  1  0  0  0  0  0  0  0  0  0
  184.9320  172.7410  138.0070 O   0  0  0  0  0  1  0  0  0  0  0  0
  184.8390  173.8300  134.5220 C   0  0  0  0  0  2  0  0  0  0  0  0
  187.0590  175.9040  136.8580 S   0  0  0  0  0  1  0  0  0  0  0  0
  186.5830  174.2450  136.2900 C   0  0  0  0  0  2  0  0  0  0  0  0
  185.7620  178.3140  145.6240 C   0  0  0  0  0  2  0  0  0  0  0  0
  187.2760  178.3890  145.7230 C   0  0  0  0  0  2  0  0  0  0  0  0
  187.7990  177.3790  146.7410 C   0  0  2  0  0  3  0  0  0  0  0  0
  187.7510  178.0530  148.1080 C   0  0  0  0  0  1  0  0  0  0  0  0
  190.0120  177.1080  147.6000 C   0  0  0  0  0  2  0  0  0  0  0  0
  191.1610  177.1010  143.6480 O   0  0  0  0  0  1  0  0  0  0  0  0
  191.1430  177.4960  144.9830 C   0  0  1  0  0  3  0  0  0  0  0  0
  189.7090  177.8770  145.3910 C   0  0  0  0  0  2  0  0  0  0  0  0
  191.7180  176.3760  145.8540 C   0  0  0  0  0  2  0  0  0  0  0  0
  189.1670  176.9610  146.4050 N   0  0  0  0  0  0  0  0  0  0  0  0
  191.4510  176.6410  147.3370 C   0  0  0  0  0  2  0  0  0  0  0  0
  1  8  1  0  0  0  0
  2 15  1  6  0  0  0
  2  5  1  0  0  0  0
  4  7  1  0  0  0  0
  5 11  1  0  0  0  0
  5 10  1  1  0  0  0
  6  3  2  0  0  0  0
  7  2  1  0  0  0  0
  8 28  1  1  0  0  0
  9  4  1  0  0  0  0
  9  6  1  0  0  0  0
 10  8  1  0  0  0  0
 11  3  1  1  0  0  0
 11  1  1  0  0  0  0
 13 14  1  0  0  0  0
 13 15  1  0  0  0  0
 15 12  2  0  0  0  0
 16  6  1  0  0  0  0
 17 16  1  0  0  0  0
 18 19  1  0  0  0  0
 19 17  1  0  0  0  0
 20 19  2  0  0  0  0
 21 25  1  6  0  0  0
 21 22  1  0  0  0  0
 21 23  1  0  0  0  0
 22 27  1  1  0  0  0
 22 23  1  0  0  0  0
 23 18  1  0  0  0  0
 23 24  1  1  0  0  0
 25 22  1  0  0  0  0
 27 26  1  0  0  0  0
 28 29  1  0  0  0  0
 29 30  1  0  0  0  0
 30 31  1  1  0  0  0
 34 33  1  6  0  0  0
 34 35  1  0  0  0  0
 34 36  1  0  0  0  0
 35 37  1  0  0  0  0
 36 38  1  0  0  0  0
 37 30  1  0  0  0  0
 37 32  1  0  0  0  0
 38 32  1  0  0  0  0
M  END
>  <MODEL>
4

>  <REMARK>
 VINA RESULT:      -7.7      3.191      5.412
  Name = 
  10 active torsions:
  status: ('A' for Active; 'I' for Inactive)
    1  A    between atoms: C_5  and  C_38
    2  A    between atoms: S_9  and  C_20
    3  A    between atoms: S_9  and  C_29
    4  A    between atoms: C_10  and  C_16
    5  A    between atoms: C_13  and  N_15
    6  A    between atoms: C_21  and  C_31
    7  A    between atoms: C_21  and  C_32
    8  A    between atoms: C_25  and  C_32
    9  A    between atoms: C_26  and  C_29
   10  A    between atoms: N_27  and  C_31
                            x       y       z     vdW  Elec       q    Type
                         _______ _______ _______ _____ _____    ______ ____

>  <TORSDO>
F 10

$$$$
=
 OpenBabel10232408113D

 38 42  0  0  1  0  0  0  0  0999 V2000
  188.6660  177.7430  139.8300 S   0  0  0  0  0  0  0  0  0  0  0  0
  191.4500  176.5830  137.3080 C   0  0  2  0  0  3  0  0  0  0  0  0
  188.1390  175.9670  137.9250 N   0  0  0  0  0  0  0  0  0  0  0  0
  189.7540  176.7280  135.4720 C   0  0  0  0  0  2  0  0  0  0  0  0
  190.5030  176.3040  138.4860 C   0  0  1  0  0  3  0  0  0  0  0  0
  187.8790  175.4840  136.7440 C   0  0  0  0  0  0  0  0  0  0  0  0
  190.9590  175.9700  136.0010 C   0  0  0  0  0  2  0  0  0  0  0  0
  190.0310  176.8480  140.5930 C   0  0  1  0  0  3  0  0  0  0  0  0
  188.5750  175.8830  135.5510 N   0  0  0  0  0  2  0  0  0  0  0  0
  191.0760  176.7940  139.6690 O   0  0  0  0  0  0  0  0  0  0  0  0
  189.1420  176.9690  138.2690 C   0  0  2  0  0  3  0  0  0  0  0  0
  193.7820  176.8910  137.7630 O   0  0  0  0  0  0  0  0  0  0  0  0
  193.0590  174.6720  137.6700 N   0  0  0  0  0  2  0  0  0  0  0  0
  194.3750  174.1220  137.9500 C   0  0  0  0  0  1  0  0  0  0  0  0
  192.8300  176.0790  137.5950 C   0  0  0  0  0  0  0  0  0  0  0  0
  186.5500  174.2970  136.5900 S   0  0  0  0  0  0  0  0  0  0  0  0
  185.2890  175.4440  137.2390 C   0  0  0  0  0  2  0  0  0  0  0  0
  182.7670  175.4640  137.6290 N   0  0  0  0  0  2  0  0  0  0  0  0
  183.9780  174.7410  137.3970 C   0  0  0  0  0  0  0  0  0  0  0  0
  183.9320  173.4880  137.2920 O   0  0  0  0  0  0  0  0  0  0  0  0
  181.4710  177.3210  138.6410 C   0  0  1  0  0  3  0  0  0  0  0  0
  182.8460  177.3600  139.3220 C   0  0  2  0  0  0  0  0  0  0  0  0
  182.7000  176.8970  137.8880 C   0  0  1  0  0  0  0  0  0  0  0  0
  183.0570  177.7630  136.8520 O   0  0  0  0  0  1  0  0  0  0  0  0
  181.6020  177.0140  140.1170 C   0  0  0  0  0  2  0  0  0  0  0  0
  184.7970  179.0010  140.3410 S   0  0  0  0  0  1  0  0  0  0  0  0
  183.2200  178.8270  139.4550 C   0  0  0  0  0  2  0  0  0  0  0  0
  190.4770  177.5710  141.8530 C   0  0  0  0  0  2  0  0  0  0  0  0
  189.5860  177.2080  143.0300 C   0  0  0  0  0  2  0  0  0  0  0  0
  190.1460  177.7870  144.3260 C   0  0  2  0  0  3  0  0  0  0  0  0
  191.2240  176.8270  144.8190 C   0  0  0  0  0  1  0  0  0  0  0  0
  189.4030  177.1110  146.4940 C   0  0  0  0  0  2  0  0  0  0  0  0
  185.7180  178.4670  145.2620 O   0  0  0  0  0  1  0  0  0  0  0  0
  186.6590  177.5730  145.7670 C   0  0  1  0  0  3  0  0  0  0  0  0
  187.8240  177.4310  144.7720 C   0  0  0  0  0  2  0  0  0  0  0  0
  187.1240  178.0460  147.1460 C   0  0  0  0  0  2  0  0  0  0  0  0
  189.0830  177.9470  145.3280 N   0  0  0  0  0  0  0  0  0  0  0  0
  188.3570  177.2660  147.6070 C   0  0  0  0  0  2  0  0  0  0  0  0
  1  8  1  0  0  0  0
  2 15  1  1  0  0  0
  2  5  1  0  0  0  0
  4  9  1  0  0  0  0
  4  7  1  0  0  0  0
  5 10  1  1  0  0  0
  6  3  2  0  0  0  0
  7  2  1  0  0  0  0
  8 28  1  1  0  0  0
  9  6  1  0  0  0  0
 10  8  1  0  0  0  0
 11  3  1  1  0  0  0
 11  5  1  0  0  0  0
 11  1  1  0  0  0  0
 13 14  1  0  0  0  0
 15 13  1  0  0  0  0
 15 12  2  0  0  0  0
 16  6  1  0  0  0  0
 16 17  1  0  0  0  0
 17 19  1  0  0  0  0
 18 23  1  0  0  0  0
 19 18  1  0  0  0  0
 20 19  2  0  0  0  0
 21 22  1  0  0  0  0
 21 25  1  1  0  0  0
 22 27  1  1  0  0  0
 22 25  1  0  0  0  0
 23 24  1  6  0  0  0
 23 21  1  0  0  0  0
 23 22  1  0  0  0  0
 27 26  1  0  0  0  0
 28 29  1  0  0  0  0
 29 30  1  0  0  0  0
 30 31  1  1  0  0  0
 30 37  1  0  0  0  0
 32 38  1  0  0  0  0
 34 33  1  6  0  0  0
 34 36  1  0  0  0  0
 35 37  1  0  0  0  0
 35 34  1  0  0  0  0
 36 38  1  0  0  0  0
 37 32  1  0  0  0  0
M  END
>  <MODEL>
5

>  <REMARK>
 VINA RESULT:      -7.4      2.249      2.837
  Name = 
  10 active torsions:
  status: ('A' for Active; 'I' for Inactive)
    1  A    between atoms: C_5  and  C_38
    2  A    between atoms: S_9  and  C_20
    3  A    between atoms: S_9  and  C_29
    4  A    between atoms: C_10  and  C_16
    5  A    between atoms: C_13  and  N_15
    6  A    between atoms: C_21  and  C_31
    7  A    between atoms: C_21  and  C_32
    8  A    between atoms: C_25  and  C_32
    9  A    between atoms: C_26  and  C_29
   10  A    between atoms: N_27  and  C_31
                            x       y       z     vdW  Elec       q    Type
                         _______ _______ _______ _____ _____    ______ ____

>  <TORSDO>
F 10

$$$$
=
 OpenBabel10232408113D

 38 42  0  0  1  0  0  0  0  0999 V2000
  188.8390  178.5700  140.4000 S   0  0  0  0  0  0  0  0  0  0  0  0
  190.3100  176.4550  137.4300 C   0  0  2  0  0  3  0  0  0  0  0  0
  187.3030  177.7920  138.3770 N   0  0  0  0  0  0  0  0  0  0  0  0
  188.9820  177.8710  135.8500 C   0  0  0  0  0  2  0  0  0  0  0  0
  189.4180  176.5850  138.6750 C   0  0  1  0  0  3  0  0  0  0  0  0
  186.7730  177.7600  137.1870 C   0  0  0  0  0  0  0  0  0  0  0  0
  189.5130  176.4770  136.1300 C   0  0  0  0  0  2  0  0  0  0  0  0
  189.4240  176.9330  140.8740 C   0  0  1  0  0  3  0  0  0  0  0  0
  187.5340  177.8740  135.9740 N   0  0  0  0  0  2  0  0  0  0  0  0
  190.2040  176.4380  139.8280 O   0  0  0  0  0  0  0  0  0  0  0  0
  188.7150  177.9440  138.7100 C   0  0  2  0  0  3  0  0  0  0  0  0
  190.5640  174.0820  137.6340 O   0  0  0  0  0  0  0  0  0  0  0  0
  192.5460  175.2840  137.3580 N   0  0  0  0  0  2  0  0  0  0  0  0
  193.3910  174.1030  137.3930 C   0  0  0  0  0  1  0  0  0  0  0  0
  191.1260  175.2000  137.4800 C   0  0  0  0  0  0  0  0  0  0  0  0
  184.9950  177.6190  137.0590 S   0  0  0  0  0  0  0  0  0  0  0  0
  184.7150  178.0240  138.8160 C   0  0  0  0  0  2  0  0  0  0  0  0
  182.5020  179.2380  139.1950 N   0  0  0  0  0  2  0  0  0  0  0  0
  183.9090  179.2770  138.9380 C   0  0  0  0  0  0  0  0  0  0  0  0
  184.4820  180.3930  138.8450 O   0  0  0  0  0  0  0  0  0  0  0  0
  180.3100  178.2040  138.6710 C   0  0  1  0  0  3  0  0  0  0  0  0
  181.3450  177.4020  137.8720 C   0  0  2  0  0  0  0  0  0  0  0  0
  181.7010  178.0200  139.2060 C   0  0  1  0  0  0  0  0  0  0  0  0
  181.7700  177.2060  140.3390 O   0  0  0  0  0  1  0  0  0  0  0  0
  180.3070  178.2470  137.1580 C   0  0  0  0  0  2  0  0  0  0  0  0
  182.2270  174.8660  137.2960 S   0  0  0  0  0  1  0  0  0  0  0  0
  180.9260  175.9440  137.9670 C   0  0  0  0  0  2  0  0  0  0  0  0
  190.2490  177.0330  142.1470 C   0  0  0  0  0  2  0  0  0  0  0  0
  189.5090  177.8260  143.2110 C   0  0  0  0  0  2  0  0  0  0  0  0
  188.3860  176.9890  143.8200 C   0  0  2  0  0  3  0  0  0  0  0  0
  187.0690  177.6500  143.4270 C   0  0  0  0  0  1  0  0  0  0  0  0
  187.6090  177.8890  145.8920 C   0  0  0  0  0  2  0  0  0  0  0  0
  191.0580  176.2930  147.4690 O   0  0  0  0  0  1  0  0  0  0  0  0
  190.1080  177.2660  147.1730 C   0  0  1  0  0  3  0  0  0  0  0  0
  189.8860  177.3260  145.6510 C   0  0  0  0  0  2  0  0  0  0  0  0
  188.8170  176.9690  147.9390 C   0  0  0  0  0  2  0  0  0  0  0  0
  188.5240  176.9150  145.2810 N   0  0  0  0  0  0  0  0  0  0  0  0
  187.6620  177.8330  147.4250 C   0  0  0  0  0  2  0  0  0  0  0  0
  1  8  1  0  0  0  0
  2 15  1  1  0  0  0
  2  5  1  0  0  0  0
  4  9  1  0  0  0  0
  4  7  1  0  0  0  0
  5 11  1  0  0  0  0
  5 10  1  1  0  0  0
  6  3  2  0  0  0  0
  7  2  1  0  0  0  0
  8 28  1  1  0  0  0
  9  6  1  0  0  0  0
 10  8  1  0  0  0  0
 11  3  1  1  0  0  0
 11  1  1  0  0  0  0
 13 14  1  0  0  0  0
 13 15  1  0  0  0  0
 15 12  2  0  0  0  0
 16  6  1  0  0  0  0
 16 17  1  0  0  0  0
 17 19  1  0  0  0  0
 18 23  1  0  0  0  0
 19 18  1  0  0  0  0
 20 19  2  0  0  0  0
 21 25  1  6  0  0  0
 21 23  1  0  0  0  0
 22 27  1  6  0  0  0
 22 21  1  0  0  0  0
 22 23  1  0  0  0  0
 23 24  1  1  0  0  0
 25 22  1  0  0  0  0
 26 27  1  0  0  0  0
 28 29  1  0  0  0  0
 29 30  1  0  0  0  0
 30 31  1  1  0  0  0
 30 37  1  0  0  0  0
 32 38  1  0  0  0  0
 34 33  1  6  0  0  0
 34 36  1  0  0  0  0
 35 34  1  0  0  0  0
 37 35  1  0  0  0  0
 37 32  1  0  0  0  0
 38 36  1  0  0  0  0
M  END
>  <MODEL>
6

>  <REMARK>
 VINA RESULT:      -7.4      1.800      2.324
  Name = 
  10 active torsions:
  status: ('A' for Active; 'I' for Inactive)
    1  A    between atoms: C_5  and  C_38
    2  A    between atoms: S_9  and  C_20
    3  A    between atoms: S_9  and  C_29
    4  A    between atoms: C_10  and  C_16
    5  A    between atoms: C_13  and  N_15
    6  A    between atoms: C_21  and  C_31
    7  A    between atoms: C_21  and  C_32
    8  A    between atoms: C_25  and  C_32
    9  A    between atoms: C_26  and  C_29
   10  A    between atoms: N_27  and  C_31
                            x       y       z     vdW  Elec       q    Type
                         _______ _______ _______ _____ _____    ______ ____

>  <TORSDO>
F 10

$$$$
=
 OpenBabel10232408113D

 38 42  0  0  1  0  0  0  0  0999 V2000
  187.7340  178.3670  141.1510 S   0  0  0  0  0  0  0  0  0  0  0  0
  191.1710  177.2000  142.6610 C   0  0  2  0  0  3  0  0  0  0  0  0
  189.3940  176.8300  139.7580 N   0  0  0  0  0  0  0  0  0  0  0  0
  192.2290  177.6670  140.4410 C   0  0  0  0  0  2  0  0  0  0  0  0
  189.7410  176.9000  142.1850 C   0  0  1  0  0  3  0  0  0  0  0  0
  190.4160  176.4840  139.0280 C   0  0  0  0  0  0  0  0  0  0  0  0
  192.2300  176.7580  141.6570 C   0  0  0  0  0  2  0  0  0  0  0  0
  187.5840  177.2860  142.5850 C   0  0  1  0  0  3  0  0  0  0  0  0
  191.7600  176.9270  139.2810 N   0  0  0  0  0  2  0  0  0  0  0  0
  188.8330  177.2240  143.2050 O   0  0  0  0  0  0  0  0  0  0  0  0
  189.3980  177.7020  140.9280 C   0  0  2  0  0  3  0  0  0  0  0  0
  191.7820  175.3340  144.0330 O   0  0  0  0  0  0  0  0  0  0  0  0
  191.3260  177.3170  145.1780 N   0  0  0  0  0  2  0  0  0  0  0  0
  191.5870  176.7430  146.4880 C   0  0  0  0  0  1  0  0  0  0  0  0
  191.4480  176.5500  143.9810 C   0  0  0  0  0  0  0  0  0  0  0  0
  190.1240  175.4410  137.6060 S   0  0  0  0  0  0  0  0  0  0  0  0
  188.3790  175.9450  137.4430 C   0  0  0  0  0  2  0  0  0  0  0  0
  186.9680  177.5710  136.0730 N   0  0  0  0  0  2  0  0  0  0  0  0
  188.2450  177.0390  136.4330 C   0  0  0  0  0  0  0  0  0  0  0  0
  189.2800  177.5260  135.9090 O   0  0  0  0  0  0  0  0  0  0  0  0
  184.6470  176.9710  135.4360 C   0  0  1  0  0  3  0  0  0  0  0  0
  185.2790  175.6740  135.9570 C   0  0  2  0  0  0  0  0  0  0  0  0
  185.6920  177.0190  136.5140 C   0  0  1  0  0  0  0  0  0  0  0  0
  185.2050  177.4220  137.7590 O   0  0  0  0  0  1  0  0  0  0  0  0
  184.8800  175.8050  134.5000 C   0  0  0  0  0  2  0  0  0  0  0  0
  184.8670  173.4390  137.4980 S   0  0  0  0  0  1  0  0  0  0  0  0
  184.2110  174.9740  136.7810 C   0  0  0  0  0  2  0  0  0  0  0  0
  186.5460  177.8460  143.5430 C   0  0  0  0  0  2  0  0  0  0  0  0
  185.6120  178.8070  142.8270 C   0  0  0  0  0  2  0  0  0  0  0  0
  184.6940  179.5080  143.8250 C   0  0  2  0  0  3  0  0  0  0  0  0
  184.8300  178.7710  145.1540 C   0  0  0  0  0  1  0  0  0  0  0  0
  182.4750  178.7900  144.3440 C   0  0  0  0  0  2  0  0  0  0  0  0
  181.7470  179.3260  140.3290 O   0  0  0  0  0  1  0  0  0  0  0  0
  181.7970  178.6600  141.5510 C   0  0  1  0  0  3  0  0  0  0  0  0
  183.2300  178.7130  142.1100 C   0  0  0  0  0  2  0  0  0  0  0  0
  180.7740  179.2760  142.5090 C   0  0  0  0  0  2  0  0  0  0  0  0
  183.3030  179.4940  143.3540 N   0  0  0  0  0  0  0  0  0  0  0  0
  180.9940  178.7800  143.9400 C   0  0  0  0  0  2  0  0  0  0  0  0
  1  8  1  0  0  0  0
  2 15  1  1  0  0  0
  4  7  1  0  0  0  0
  5  2  1  0  0  0  0
  5 10  1  1  0  0  0
  6  9  1  0  0  0  0
  6  3  2  0  0  0  0
  7  2  1  0  0  0  0
  8 10  1  0  0  0  0
  8 28  1  1  0  0  0
  9  4  1  0  0  0  0
 11  3  1  6  0  0  0
 11  1  1  0  0  0  0
 11  5  1  0  0  0  0
 13 14  1  0  0  0  0
 15 12  2  0  0  0  0
 15 13  1  0  0  0  0
 16  6  1  0  0  0  0
 17 16  1  0  0  0  0
 18 19  1  0  0  0  0
 18 23  1  0  0  0  0
 19 17  1  0  0  0  0
 20 19  2  0  0  0  0
 21 25  1  6  0  0  0
 21 22  1  0  0  0  0
 21 23  1  0  0  0  0
 22 23  1  0  0  0  0
 22 27  1  1  0  0  0
 23 24  1  1  0  0  0
 25 22  1  0  0  0  0
 27 26  1  0  0  0  0
 29 28  1  0  0  0  0
 29 30  1  0  0  0  0
 30 31  1  1  0  0  0
 34 33  1  6  0  0  0
 34 35  1  0  0  0  0
 34 36  1  0  0  0  0
 35 37  1  0  0  0  0
 36 38  1  0  0  0  0
 37 30  1  0  0  0  0
 37 32  1  0  0  0  0
 38 32  1  0  0  0  0
M  END
>  <MODEL>
7

>  <REMARK>
 VINA RESULT:      -7.4      2.834      5.992
  Name = 
  10 active torsions:
  status: ('A' for Active; 'I' for Inactive)
    1  A    between atoms: C_5  and  C_38
    2  A    between atoms: S_9  and  C_20
    3  A    between atoms: S_9  and  C_29
    4  A    between atoms: C_10  and  C_16
    5  A    between atoms: C_13  and  N_15
    6  A    between atoms: C_21  and  C_31
    7  A    between atoms: C_21  and  C_32
    8  A    between atoms: C_25  and  C_32
    9  A    between atoms: C_26  and  C_29
   10  A    between atoms: N_27  and  C_31
                            x       y       z     vdW  Elec       q    Type
                         _______ _______ _______ _____ _____    ______ ____

>  <TORSDO>
F 10

$$$$
=
 OpenBabel10232408113D

 38 42  0  0  1  0  0  0  0  0999 V2000
  189.0590  178.4520  140.9470 S   0  0  0  0  0  0  0  0  0  0  0  0
  190.1550  176.9360  137.4890 C   0  0  2  0  0  3  0  0  0  0  0  0
  187.2820  177.9860  139.0270 N   0  0  0  0  0  0  0  0  0  0  0  0
  188.6180  178.5610  136.3640 C   0  0  0  0  0  2  0  0  0  0  0  0
  189.4310  176.8180  138.8390 C   0  0  1  0  0  3  0  0  0  0  0  0
  186.6020  178.1450  137.9280 C   0  0  0  0  0  0  0  0  0  0  0  0
  189.1960  177.1570  136.3240 C   0  0  0  0  0  2  0  0  0  0  0  0
  189.7190  176.7780  141.0470 C   0  0  1  0  0  3  0  0  0  0  0  0
  187.1980  178.4940  136.6670 N   0  0  0  0  0  2  0  0  0  0  0  0
  190.3610  176.4990  139.8400 O   0  0  0  0  0  0  0  0  0  0  0  0
  188.7240  178.1260  139.2020 C   0  0  2  0  0  3  0  0  0  0  0  0
  190.8490  174.6850  137.9200 O   0  0  0  0  0  0  0  0  0  0  0  0
  191.9320  175.7480  136.1460 N   0  0  0  0  0  2  0  0  0  0  0  0
  192.7620  174.5980  135.8260 C   0  0  0  0  0  1  0  0  0  0  0  0
  190.9850  175.7200  137.2130 C   0  0  0  0  0  0  0  0  0  0  0  0
  184.8240  177.9680  138.0010 S   0  0  0  0  0  0  0  0  0  0  0  0
  184.6930  178.7560  139.6410 C   0  0  0  0  0  2  0  0  0  0  0  0
  183.5760  178.0400  141.8220 N   0  0  0  0  0  2  0  0  0  0  0  0
  183.5360  178.1880  140.4000 C   0  0  0  0  0  0  0  0  0  0  0  0
  182.4910  177.8620  139.7810 O   0  0  0  0  0  0  0  0  0  0  0  0
  184.8560  179.6600  143.1980 C   0  0  1  0  0  3  0  0  0  0  0  0
  184.5620  178.4740  144.1250 C   0  0  2  0  0  0  0  0  0  0  0  0
  184.7620  178.2680  142.6400 C   0  0  1  0  0  0  0  0  0  0  0  0
  185.9780  177.7590  142.1780 O   0  0  0  0  0  1  0  0  0  0  0  0
  183.9430  179.8320  144.3920 C   0  0  0  0  0  2  0  0  0  0  0  0
  185.4570  178.4120  146.7200 S   0  0  0  0  0  1  0  0  0  0  0  0
  185.8200  178.2480  144.9480 C   0  0  0  0  0  2  0  0  0  0  0  0
  190.7010  176.6830  142.2020 C   0  0  0  0  0  2  0  0  0  0  0  0
  189.9780  176.7760  143.5360 C   0  0  0  0  0  2  0  0  0  0  0  0
  190.3240  178.0840  144.2440 C   0  0  2  0  0  3  0  0  0  0  0  0
  191.6050  178.6140  143.6080 C   0  0  0  0  0  1  0  0  0  0  0  0
  191.3380  176.6730  145.8830 C   0  0  0  0  0  2  0  0  0  0  0  0
  188.6160  178.3380  148.4820 O   0  0  0  0  0  1  0  0  0  0  0  0
  189.3010  177.3330  147.8030 C   0  0  1  0  0  3  0  0  0  0  0  0
  189.1930  177.5670  146.2870 C   0  0  0  0  0  2  0  0  0  0  0  0
  190.7530  177.2890  148.2860 C   0  0  0  0  0  2  0  0  0  0  0  0
  190.5020  177.8660  145.6860 N   0  0  0  0  0  0  0  0  0  0  0  0
  191.6090  176.4100  147.3720 C   0  0  0  0  0  2  0  0  0  0  0  0
  1  8  1  0  0  0  0
  2 15  1  6  0  0  0
  2  5  1  0  0  0  0
  4  9  1  0  0  0  0
  5 11  1  0  0  0  0
  5 10  1  1  0  0  0
  6 16  1  0  0  0  0
  6  3  2  0  0  0  0
  7  4  1  0  0  0  0
  7  2  1  0  0  0  0
  8 28  1  1  0  0  0
  9  6  1  0  0  0  0
 10  8  1  0  0  0  0
 11  3  1  1  0  0  0
 11  1  1  0  0  0  0
 13 15  1  0  0  0  0
 14 13  1  0  0  0  0
 15 12  2  0  0  0  0
 16 17  1  0  0  0  0
 17 19  1  0  0  0  0
 18 23  1  0  0  0  0
 19 18  1  0  0  0  0
 20 19  2  0  0  0  0
 21 22  1  0  0  0  0
 21 25  1  6  0  0  0
 22 25  1  0  0  0  0
 22 27  1  1  0  0  0
 23 24  1  6  0  0  0
 23 21  1  0  0  0  0
 23 22  1  0  0  0  0
 27 26  1  0  0  0  0
 28 29  1  0  0  0  0
 29 30  1  0  0  0  0
 30 31  1  6  0  0  0
 30 37  1  0  0  0  0
 32 38  1  0  0  0  0
 34 36  1  0  0  0  0
 34 33  1  1  0  0  0
 35 34  1  0  0  0  0
 37 32  1  0  0  0  0
 37 35  1  0  0  0  0
 38 36  1  0  0  0  0
M  END
>  <MODEL>
8

>  <REMARK>
 VINA RESULT:      -7.3      1.872      3.304
  Name = 
  10 active torsions:
  status: ('A' for Active; 'I' for Inactive)
    1  A    between atoms: C_5  and  C_38
    2  A    between atoms: S_9  and  C_20
    3  A    between atoms: S_9  and  C_29
    4  A    between atoms: C_10  and  C_16
    5  A    between atoms: C_13  and  N_15
    6  A    between atoms: C_21  and  C_31
    7  A    between atoms: C_21  and  C_32
    8  A    between atoms: C_25  and  C_32
    9  A    between atoms: C_26  and  C_29
   10  A    between atoms: N_27  and  C_31
                            x       y       z     vdW  Elec       q    Type
                         _______ _______ _______ _____ _____    ______ ____

>  <TORSDO>
F 10

$$$$
=
 OpenBabel10232408113D

 38 42  0  0  1  0  0  0  0  0999 V2000
  188.8630  178.5800  141.2350 S   0  0  0  0  0  0  0  0  0  0  0  0
  190.5200  177.0190  138.0300 C   0  0  2  0  0  3  0  0  0  0  0  0
  187.4060  177.9540  139.1030 N   0  0  0  0  0  0  0  0  0  0  0  0
  189.0790  178.5170  136.6350 C   0  0  0  0  0  2  0  0  0  0  0  0
  189.6170  176.9030  139.2670 C   0  0  1  0  0  3  0  0  0  0  0  0
  186.8830  178.0380  137.9120 C   0  0  0  0  0  0  0  0  0  0  0  0
  189.7280  177.1480  136.7330 C   0  0  0  0  0  2  0  0  0  0  0  0
  189.5860  176.9500  141.4940 C   0  0  1  0  0  3  0  0  0  0  0  0
  187.6360  178.3790  136.7370 N   0  0  0  0  0  2  0  0  0  0  0  0
  190.4090  176.6690  140.4020 O   0  0  0  0  0  0  0  0  0  0  0  0
  188.7980  178.1800  139.4750 C   0  0  2  0  0  3  0  0  0  0  0  0
  190.9780  174.6700  137.9200 O   0  0  0  0  0  0  0  0  0  0  0  0
  192.8490  176.0640  137.8310 N   0  0  0  0  0  2  0  0  0  0  0  0
  193.7930  174.9650  137.7200 C   0  0  0  0  0  1  0  0  0  0  0  0
  191.4420  175.8430  137.9230 C   0  0  0  0  0  0  0  0  0  0  0  0
  185.1250  177.7640  137.7410 S   0  0  0  0  0  0  0  0  0  0  0  0
  185.3170  175.9930  137.3450 C   0  0  0  0  0  2  0  0  0  0  0  0
  183.9620  175.7600  135.1950 N   0  0  0  0  0  2  0  0  0  0  0  0
  185.2230  175.7770  135.8690 C   0  0  0  0  0  0  0  0  0  0  0  0
  186.2770  175.6380  135.1960 O   0  0  0  0  0  0  0  0  0  0  0  0
  181.7770  174.6320  135.5210 C   0  0  1  0  0  3  0  0  0  0  0  0
  182.4000  174.7350  136.9190 C   0  0  2  0  0  0  0  0  0  0  0  0
  182.6690  175.7900  135.8690 C   0  0  1  0  0  0  0  0  0  0  0  0
  182.0030  177.0150  135.9450 O   0  0  0  0  0  1  0  0  0  0  0  0
  182.1890  173.3820  136.2680 C   0  0  0  0  0  2  0  0  0  0  0  0
  181.9330  175.7890  139.4110 S   0  0  0  0  0  1  0  0  0  0  0  0
  181.2690  175.0940  137.8690 C   0  0  0  0  0  2  0  0  0  0  0  0
  190.3950  176.9480  142.7800 C   0  0  0  0  0  2  0  0  0  0  0  0
  189.4820  176.8940  143.9940 C   0  0  0  0  0  2  0  0  0  0  0  0
  190.0820  177.6880  145.1520 C   0  0  2  0  0  3  0  0  0  0  0  0
  191.1490  176.8080  145.7950 C   0  0  0  0  0  1  0  0  0  0  0  0
  189.2530  177.2780  147.3550 C   0  0  0  0  0  2  0  0  0  0  0  0
  185.7710  178.9830  145.9770 O   0  0  0  0  0  1  0  0  0  0  0  0
  186.5910  178.0200  146.5600 C   0  0  1  0  0  3  0  0  0  0  0  0
  187.7320  177.6590  145.5930 C   0  0  0  0  0  2  0  0  0  0  0  0
  187.1070  178.5360  147.9050 C   0  0  0  0  0  2  0  0  0  0  0  0
  189.0440  178.0550  146.1250 N   0  0  0  0  0  0  0  0  0  0  0  0
  188.2310  177.6470  148.4400 C   0  0  0  0  0  2  0  0  0  0  0  0
  1  8  1  0  0  0  0
  2 15  1  6  0  0  0
  2  5  1  0  0  0  0
  4  7  1  0  0  0  0
  4  9  1  0  0  0  0
  5 11  1  0  0  0  0
  5 10  1  1  0  0  0
  6  3  2  0  0  0  0
  7  2  1  0  0  0  0
  8 28  1  1  0  0  0
  9  6  1  0  0  0  0
 10  8  1  0  0  0  0
 11  3  1  1  0  0  0
 11  1  1  0  0  0  0
 12 15  2  0  0  0  0
 13 15  1  0  0  0  0
 14 13  1  0  0  0  0
 16  6  1  0  0  0  0
 17 16  1  0  0  0  0
 18 23  1  0  0  0  0
 18 19  1  0  0  0  0
 19 17  1  0  0  0  0
 20 19  2  0  0  0  0
 21 23  1  0  0  0  0
 21 25  1  6  0  0  0
 21 22  1  0  0  0  0
 22 27  1  1  0  0  0
 23 24  1  1  0  0  0
 23 22  1  0  0  0  0
 25 22  1  0  0  0  0
 27 26  1  0  0  0  0
 28 29  1  0  0  0  0
 29 30  1  0  0  0  0
 30 31  1  1  0  0  0
 30 37  1  0  0  0  0
 32 38  1  0  0  0  0
 34 33  1  6  0  0  0
 34 36  1  0  0  0  0
 35 37  1  0  0  0  0
 35 34  1  0  0  0  0
 36 38  1  0  0  0  0
 37 32  1  0  0  0  0
M  END
>  <MODEL>
9

>  <REMARK>
 VINA RESULT:      -7.3      2.498      3.097
  Name = 
  10 active torsions:
  status: ('A' for Active; 'I' for Inactive)
    1  A    between atoms: C_5  and  C_38
    2  A    between atoms: S_9  and  C_20
    3  A    between atoms: S_9  and  C_29
    4  A    between atoms: C_10  and  C_16
    5  A    between atoms: C_13  and  N_15
    6  A    between atoms: C_21  and  C_31
    7  A    between atoms: C_21  and  C_32
    8  A    between atoms: C_25  and  C_32
    9  A    between atoms: C_26  and  C_29
   10  A    between atoms: N_27  and  C_31
                            x       y       z     vdW  Elec       q    Type
                         _______ _______ _______ _____ _____    ______ ____

>  <TORSDO>
F 10

$$$$
