=
 OpenBabel10232411383D

 27 28  0  0  0  0  0  0  0  0999 V2000
  188.2650  177.2580  145.7820 C   0  0  0  0  0  0  0  0  0  0  0  0
  189.8740  176.7420  147.4800 C   0  0  0  0  0  3  0  0  0  0  0  0
  187.2950  177.7610  143.9010 C   0  0  0  0  0  3  0  0  0  0  0  0
  188.5310  176.9440  147.1150 C   0  0  0  0  0  3  0  0  0  0  0  0
  188.6630  177.6820  143.6550 C   0  0  0  0  0  0  0  0  0  0  0  0
  190.9110  176.8570  146.5280 C   0  0  0  0  0  0  0  0  0  0  0  0
  190.6050  177.1770  145.1870 C   0  0  0  0  0  3  0  0  0  0  0  0
  187.0710  177.4980  145.2100 N   0  0  0  0  0  0  0  0  0  0  0  0
  189.2650  177.3690  144.8560 C   0  0  0  0  0  0  0  0  0  0  0  0
  192.6200  175.7540  148.0370 C   0  0  0  0  0  1  0  0  0  0  0  0
  192.2620  176.6440  146.9450 N   0  0  0  0  0  2  0  0  0  0  0  0
  185.7650  177.4460  145.8530 C   0  0  0  0  0  2  0  0  0  0  0  0
  185.5610  179.7190  146.5400 O   0  0  0  0  0  0  0  0  0  0  0  0
  185.1200  178.7900  145.8160 C   0  0  0  0  0  0  0  0  0  0  0  0
  183.0980  179.2410  144.1780 C   0  0  0  0  0  3  0  0  0  0  0  0
  184.0210  179.0360  144.9240 C   0  0  0  0  0  0  0  0  0  0  0  0
  189.3400  177.9460  142.3510 C   0  0  0  0  0  2  0  0  0  0  0  0
  188.3250  178.2650  141.2610 C   0  0  0  0  0  2  0  0  0  0  0  0
  189.7940  176.9660  139.6700 N   0  0  0  0  0  2  0  0  0  0  0  0
  188.6090  178.8550  138.9720 O   0  0  0  0  0  0  0  0  0  0  0  0
  188.9130  178.0650  139.9050 C   0  0  0  0  0  0  0  0  0  0  0  0
  190.3610  176.7160  138.3870 C   0  0  0  0  0  3  0  0  0  0  0  0
  191.6510  176.5760  138.2610 C   0  0  0  0  0  0  0  0  0  0  0  0
  192.9430  176.4350  138.1340 C   0  0  0  0  0  3  0  0  0  0  0  0
  193.6030  176.1010  136.8300 C   0  0  0  0  0  2  0  0  0  0  0  0
  194.8270  174.5830  137.8660 C   0  0  0  0  0  1  0  0  0  0  0  0
  194.9230  175.6770  137.0080 O   0  0  0  0  0  0  0  0  0  0  0  0
  1  4  1  0  0  0  0
  3  8  1  0  0  0  0
  4  2  2  0  0  0  0
  5  3  2  0  0  0  0
  5  9  1  0  0  0  0
  6 11  1  0  0  0  0
  6  2  1  0  0  0  0
  7  6  2  0  0  0  0
  8  1  1  0  0  0  0
  8 12  1  0  0  0  0
  9  7  1  0  0  0  0
  9  1  2  0  0  0  0
 11 10  1  0  0  0  0
 14 12  1  0  0  0  0
 14 13  2  0  0  0  0
 15 16  3  0  0  0  0
 16 14  1  0  0  0  0
 17  5  1  0  0  0  0
 18 17  1  0  0  0  0
 19 21  1  0  0  0  0
 20 21  2  0  0  0  0
 21 18  1  0  0  0  0
 22 19  1  0  0  0  0
 23 22  2  0  0  0  0
 24 23  2  0  0  0  0
 25 27  1  0  0  0  0
 25 24  1  0  0  0  0
 27 26  1  0  0  0  0
M  END
>  <MODEL>
1

>  <REMARK>
 VINA RESULT:      -7.8      0.000      0.000
  Name = 
  10 active torsions:
  status: ('A' for Active; 'I' for Inactive)
    1  A    between atoms: N_1  and  C_5
    2  A    between atoms: C_6  and  C_7
    3  A    between atoms: C_6  and  C_14
    4  A    between atoms: C_7  and  N_25
    5  A    between atoms: C_10  and  C_24
    6  A    between atoms: C_17  and  C_20
    7  A    between atoms: N_18  and  C_19
    8  A    between atoms: C_20  and  C_23
    9  A    between atoms: C_21  and  C_23
   10  A    between atoms: C_24  and  O_27
                            x       y       z     vdW  Elec       q    Type
                         _______ _______ _______ _____ _____    ______ ____

>  <TORSDO>
F 10

$$$$
=
 OpenBabel10232411383D

 27 28  0  0  0  0  0  0  0  0999 V2000
  185.6540  178.2740  144.3740 C   0  0  0  0  0  0  0  0  0  0  0  0
  185.6520  178.5490  146.7530 C   0  0  0  0  0  3  0  0  0  0  0  0
  186.1920  177.7840  142.3230 C   0  0  0  0  0  3  0  0  0  0  0  0
  184.9980  178.7220  145.5200 C   0  0  0  0  0  3  0  0  0  0  0  0
  187.2400  177.3650  143.1400 C   0  0  0  0  0  0  0  0  0  0  0  0
  186.9270  177.9460  146.8200 C   0  0  0  0  0  0  0  0  0  0  0  0
  187.5620  177.5040  145.6390 C   0  0  0  0  0  3  0  0  0  0  0  0
  185.2290  178.3380  143.0980 N   0  0  0  0  0  0  0  0  0  0  0  0
  186.8880  177.6870  144.4340 C   0  0  0  0  0  0  0  0  0  0  0  0
  188.9110  178.2390  148.3670 C   0  0  0  0  0  1  0  0  0  0  0  0
  187.5550  177.7920  148.0960 N   0  0  0  0  0  2  0  0  0  0  0  0
  183.9560  178.8620  142.6240 C   0  0  0  0  0  2  0  0  0  0  0  0
  184.5190  179.5930  140.4260 O   0  0  0  0  0  0  0  0  0  0  0  0
  183.8850  178.7720  141.1370 C   0  0  0  0  0  0  0  0  0  0  0  0
  182.4890  176.8430  139.9930 C   0  0  0  0  0  3  0  0  0  0  0  0
  183.1250  177.7230  140.5160 C   0  0  0  0  0  0  0  0  0  0  0  0
  188.5170  176.7430  142.6820 C   0  0  0  0  0  2  0  0  0  0  0  0
  189.5400  177.8050  142.3010 C   0  0  0  0  0  2  0  0  0  0  0  0
  190.8820  177.0610  144.3060 N   0  0  0  0  0  2  0  0  0  0  0  0
  190.8320  179.2970  143.6310 O   0  0  0  0  0  0  0  0  0  0  0  0
  190.4440  178.1130  143.4460 C   0  0  0  0  0  0  0  0  0  0  0  0
  191.7660  177.2980  145.3980 C   0  0  0  0  0  3  0  0  0  0  0  0
  191.8080  176.4630  146.3970 C   0  0  0  0  0  0  0  0  0  0  0  0
  191.8500  175.6250  147.3990 C   0  0  0  0  0  3  0  0  0  0  0  0
  192.8040  175.7730  148.5460 C   0  0  0  0  0  2  0  0  0  0  0  0
  193.7710  177.0530  150.0640 C   0  0  0  0  0  1  0  0  0  0  0  0
  192.8880  177.0970  148.9850 O   0  0  0  0  0  0  0  0  0  0  0  0
  1  9  2  0  0  0  0
  1  4  1  0  0  0  0
  2  6  1  0  0  0  0
  3  8  1  0  0  0  0
  3  5  2  0  0  0  0
  4  2  2  0  0  0  0
  5  9  1  0  0  0  0
  6 11  1  0  0  0  0
  7  6  2  0  0  0  0
  8  1  1  0  0  0  0
  9  7  1  0  0  0  0
 11 10  1  0  0  0  0
 12  8  1  0  0  0  0
 13 14  2  0  0  0  0
 14 12  1  0  0  0  0
 15 16  3  0  0  0  0
 16 14  1  0  0  0  0
 17  5  1  0  0  0  0
 18 17  1  0  0  0  0
 18 21  1  0  0  0  0
 19 22  1  0  0  0  0
 21 20  2  0  0  0  0
 21 19  1  0  0  0  0
 22 23  2  0  0  0  0
 23 24  2  0  0  0  0
 24 25  1  0  0  0  0
 25 27  1  0  0  0  0
 27 26  1  0  0  0  0
M  END
>  <MODEL>
2

>  <REMARK>
 VINA RESULT:      -7.8      3.750      6.035
  Name = 
  10 active torsions:
  status: ('A' for Active; 'I' for Inactive)
    1  A    between atoms: N_1  and  C_5
    2  A    between atoms: C_6  and  C_7
    3  A    between atoms: C_6  and  C_14
    4  A    between atoms: C_7  and  N_25
    5  A    between atoms: C_10  and  C_24
    6  A    between atoms: C_17  and  C_20
    7  A    between atoms: N_18  and  C_19
    8  A    between atoms: C_20  and  C_23
    9  A    between atoms: C_21  and  C_23
   10  A    between atoms: C_24  and  O_27
                            x       y       z     vdW  Elec       q    Type
                         _______ _______ _______ _____ _____    ______ ____

>  <TORSDO>
F 10

$$$$
=
 OpenBabel10232411383D

 27 28  0  0  0  0  0  0  0  0999 V2000
  187.5550  177.7170  146.0870 C   0  0  0  0  0  0  0  0  0  0  0  0
  185.5020  178.6370  146.9090 C   0  0  0  0  0  3  0  0  0  0  0  0
  189.1330  176.9220  144.8170 C   0  0  0  0  0  3  0  0  0  0  0  0
  186.7980  178.1570  147.1720 C   0  0  0  0  0  3  0  0  0  0  0  0
  188.0590  177.2490  143.9920 C   0  0  0  0  0  0  0  0  0  0  0  0
  184.9920  178.6670  145.5930 C   0  0  0  0  0  0  0  0  0  0  0  0
  185.7870  178.2120  144.5180 C   0  0  0  0  0  3  0  0  0  0  0  0
  188.8040  177.2160  146.0970 N   0  0  0  0  0  0  0  0  0  0  0  0
  187.0660  177.7450  144.8090 C   0  0  0  0  0  0  0  0  0  0  0  0
  182.8820  178.8200  144.1990 C   0  0  0  0  0  1  0  0  0  0  0  0
  183.6690  179.1620  145.3730 N   0  0  0  0  0  2  0  0  0  0  0  0
  189.6730  177.0540  147.2540 C   0  0  0  0  0  2  0  0  0  0  0  0
  191.4950  177.6490  145.8380 O   0  0  0  0  0  0  0  0  0  0  0  0
  191.0970  176.9720  146.8200 C   0  0  0  0  0  0  0  0  0  0  0  0
  192.8060  175.4670  148.1590 C   0  0  0  0  0  3  0  0  0  0  0  0
  192.0260  176.1540  147.5490 C   0  0  0  0  0  0  0  0  0  0  0  0
  187.9900  177.0420  142.5150 C   0  0  0  0  0  2  0  0  0  0  0  0
  188.3470  178.3180  141.7640 C   0  0  0  0  0  2  0  0  0  0  0  0
  189.7210  176.8850  140.2040 N   0  0  0  0  0  2  0  0  0  0  0  0
  188.5220  178.7340  139.4270 O   0  0  0  0  0  0  0  0  0  0  0  0
  188.8640  178.0110  140.4000 C   0  0  0  0  0  0  0  0  0  0  0  0
  190.2210  176.5330  138.9180 C   0  0  0  0  0  3  0  0  0  0  0  0
  191.5030  176.5640  138.6850 C   0  0  0  0  0  0  0  0  0  0  0  0
  192.7880  176.5940  138.4530 C   0  0  0  0  0  3  0  0  0  0  0  0
  193.3910  176.1700  137.1470 C   0  0  0  0  0  2  0  0  0  0  0  0
  194.5490  174.4310  137.8590 C   0  0  0  0  0  1  0  0  0  0  0  0
  194.6980  175.7010  137.3050 O   0  0  0  0  0  0  0  0  0  0  0  0
  1  8  1  0  0  0  0
  1  4  1  0  0  0  0
  2  4  2  0  0  0  0
  3  8  1  0  0  0  0
  5  9  1  0  0  0  0
  5  3  2  0  0  0  0
  6  2  1  0  0  0  0
  7  9  1  0  0  0  0
  7  6  2  0  0  0  0
  8 12  1  0  0  0  0
  9  1  2  0  0  0  0
 10 11  1  0  0  0  0
 11  6  1  0  0  0  0
 13 14  2  0  0  0  0
 14 12  1  0  0  0  0
 14 16  1  0  0  0  0
 16 15  3  0  0  0  0
 17  5  1  0  0  0  0
 18 17  1  0  0  0  0
 19 21  1  0  0  0  0
 20 21  2  0  0  0  0
 21 18  1  0  0  0  0
 22 19  1  0  0  0  0
 23 22  2  0  0  0  0
 24 23  2  0  0  0  0
 25 27  1  0  0  0  0
 25 24  1  0  0  0  0
 27 26  1  0  0  0  0
M  END
>  <MODEL>
3

>  <REMARK>
 VINA RESULT:      -7.8      1.651      4.769
  Name = 
  10 active torsions:
  status: ('A' for Active; 'I' for Inactive)
    1  A    between atoms: N_1  and  C_5
    2  A    between atoms: C_6  and  C_7
    3  A    between atoms: C_6  and  C_14
    4  A    between atoms: C_7  and  N_25
    5  A    between atoms: C_10  and  C_24
    6  A    between atoms: C_17  and  C_20
    7  A    between atoms: N_18  and  C_19
    8  A    between atoms: C_20  and  C_23
    9  A    between atoms: C_21  and  C_23
   10  A    between atoms: C_24  and  O_27
                            x       y       z     vdW  Elec       q    Type
                         _______ _______ _______ _____ _____    ______ ____

>  <TORSDO>
F 10

$$$$
=
 OpenBabel10232411383D

 27 28  0  0  0  0  0  0  0  0999 V2000
  189.6750  176.9580  144.1840 C   0  0  0  0  0  0  0  0  0  0  0  0
  191.7250  176.7100  145.3970 C   0  0  0  0  0  3  0  0  0  0  0  0
  187.5890  177.2400  143.6340 C   0  0  0  0  0  3  0  0  0  0  0  0
  191.0540  176.7500  144.1620 C   0  0  0  0  0  3  0  0  0  0  0  0
  187.6650  177.3040  145.0230 C   0  0  0  0  0  0  0  0  0  0  0  0
  191.0220  176.8740  146.6120 C   0  0  0  0  0  0  0  0  0  0  0  0
  189.6260  177.0820  146.5960 C   0  0  0  0  0  3  0  0  0  0  0  0
  188.8310  177.0270  143.1380 N   0  0  0  0  0  0  0  0  0  0  0  0
  188.9900  177.1190  145.3580 C   0  0  0  0  0  0  0  0  0  0  0  0
  192.7250  175.7920  148.1440 C   0  0  0  0  0  1  0  0  0  0  0  0
  191.7470  176.8250  147.8440 N   0  0  0  0  0  2  0  0  0  0  0  0
  189.1760  176.9360  141.7270 C   0  0  0  0  0  2  0  0  0  0  0  0
  188.3820  179.1770  141.5590 O   0  0  0  0  0  0  0  0  0  0  0  0
  188.5830  178.0800  140.9770 C   0  0  0  0  0  0  0  0  0  0  0  0
  188.0230  177.8320  138.4080 C   0  0  0  0  0  3  0  0  0  0  0  0
  188.2780  177.9440  139.5800 C   0  0  0  0  0  0  0  0  0  0  0  0
  186.5160  177.4830  145.9600 C   0  0  0  0  0  2  0  0  0  0  0  0
  185.9880  178.9100  145.9160 C   0  0  0  0  0  2  0  0  0  0  0  0
  184.6320  178.8760  143.7870 N   0  0  0  0  0  2  0  0  0  0  0  0
  183.6150  179.0940  145.8790 O   0  0  0  0  0  0  0  0  0  0  0  0
  184.6770  178.9760  145.2110 C   0  0  0  0  0  0  0  0  0  0  0  0
  183.4030  178.9070  143.0670 C   0  0  0  0  0  3  0  0  0  0  0  0
  183.3460  178.4330  141.8540 C   0  0  0  0  0  0  0  0  0  0  0  0
  183.2880  177.9570  140.6390 C   0  0  0  0  0  3  0  0  0  0  0  0
  182.0150  177.8920  139.8480 C   0  0  0  0  0  2  0  0  0  0  0  0
  182.6070  175.8650  139.2040 C   0  0  0  0  0  1  0  0  0  0  0  0
  181.5380  176.5830  139.7380 O   0  0  0  0  0  0  0  0  0  0  0  0
  1  9  1  0  0  0  0
  2  6  2  0  0  0  0
  3  5  2  0  0  0  0
  4  1  2  0  0  0  0
  4  2  1  0  0  0  0
  5  9  1  0  0  0  0
  5 17  1  0  0  0  0
  6 11  1  0  0  0  0
  7  6  1  0  0  0  0
  8  3  1  0  0  0  0
  8  1  1  0  0  0  0
  9  7  2  0  0  0  0
 11 10  1  0  0  0  0
 12  8  1  0  0  0  0
 14 13  2  0  0  0  0
 14 12  1  0  0  0  0
 15 16  3  0  0  0  0
 16 14  1  0  0  0  0
 18 17  1  0  0  0  0
 19 21  1  0  0  0  0
 21 20  2  0  0  0  0
 21 18  1  0  0  0  0
 22 19  1  0  0  0  0
 23 22  2  0  0  0  0
 24 23  2  0  0  0  0
 25 24  1  0  0  0  0
 26 27  1  0  0  0  0
 27 25  1  0  0  0  0
M  END
>  <MODEL>
4

>  <REMARK>
 VINA RESULT:      -7.5      3.089      6.703
  Name = 
  10 active torsions:
  status: ('A' for Active; 'I' for Inactive)
    1  A    between atoms: N_1  and  C_5
    2  A    between atoms: C_6  and  C_7
    3  A    between atoms: C_6  and  C_14
    4  A    between atoms: C_7  and  N_25
    5  A    between atoms: C_10  and  C_24
    6  A    between atoms: C_17  and  C_20
    7  A    between atoms: N_18  and  C_19
    8  A    between atoms: C_20  and  C_23
    9  A    between atoms: C_21  and  C_23
   10  A    between atoms: C_24  and  O_27
                            x       y       z     vdW  Elec       q    Type
                         _______ _______ _______ _____ _____    ______ ____

>  <TORSDO>
F 10

$$$$
=
 OpenBabel10232411383D

 27 28  0  0  0  0  0  0  0  0999 V2000
  187.6220  177.6990  146.1310 C   0  0  0  0  0  0  0  0  0  0  0  0
  185.5600  178.6000  146.9520 C   0  0  0  0  0  3  0  0  0  0  0  0
  189.2080  176.9200  144.8610 C   0  0  0  0  0  3  0  0  0  0  0  0
  186.8600  178.1310  147.2160 C   0  0  0  0  0  3  0  0  0  0  0  0
  188.1330  177.2380  144.0360 C   0  0  0  0  0  0  0  0  0  0  0  0
  185.0510  178.6270  145.6350 C   0  0  0  0  0  0  0  0  0  0  0  0
  185.8510  178.1810  144.5600 C   0  0  0  0  0  3  0  0  0  0  0  0
  188.8760  177.2090  146.1420 N   0  0  0  0  0  0  0  0  0  0  0  0
  187.1340  177.7250  144.8530 C   0  0  0  0  0  0  0  0  0  0  0  0
  182.9600  178.8040  144.2160 C   0  0  0  0  0  1  0  0  0  0  0  0
  183.7240  179.1110  145.4140 N   0  0  0  0  0  2  0  0  0  0  0  0
  189.7450  177.0530  147.2990 C   0  0  0  0  0  2  0  0  0  0  0  0
  191.5750  177.5490  145.8560 O   0  0  0  0  0  0  0  0  0  0  0  0
  191.1640  176.9170  146.8630 C   0  0  0  0  0  0  0  0  0  0  0  0
  192.8330  175.4100  148.2470 C   0  0  0  0  0  3  0  0  0  0  0  0
  192.0730  176.0980  147.6150 C   0  0  0  0  0  0  0  0  0  0  0  0
  188.0670  177.0330  142.5580 C   0  0  0  0  0  2  0  0  0  0  0  0
  188.2360  178.3500  141.8130 C   0  0  0  0  0  2  0  0  0  0  0  0
  185.8260  178.8610  141.2610 N   0  0  0  0  0  2  0  0  0  0  0  0
  187.4020  178.4540  139.5850 O   0  0  0  0  0  0  0  0  0  0  0  0
  187.1450  178.5460  140.8150 C   0  0  0  0  0  0  0  0  0  0  0  0
  184.7540  179.0830  140.3480 C   0  0  0  0  0  3  0  0  0  0  0  0
  183.7760  178.2260  140.2710 C   0  0  0  0  0  0  0  0  0  0  0  0
  182.7940  177.3670  140.1940 C   0  0  0  0  0  3  0  0  0  0  0  0
  181.6000  177.5700  139.3090 C   0  0  0  0  0  2  0  0  0  0  0  0
  180.4850  175.7600  138.7150 C   0  0  0  0  0  1  0  0  0  0  0  0
  181.5230  176.5970  138.3080 O   0  0  0  0  0  0  0  0  0  0  0  0
  1  8  1  0  0  0  0
  1  4  1  0  0  0  0
  2  4  2  0  0  0  0
  3  8  1  0  0  0  0
  5  9  1  0  0  0  0
  5  3  2  0  0  0  0
  6  2  1  0  0  0  0
  7  9  1  0  0  0  0
  7  6  2  0  0  0  0
  8 12  1  0  0  0  0
  9  1  2  0  0  0  0
 10 11  1  0  0  0  0
 11  6  1  0  0  0  0
 13 14  2  0  0  0  0
 14 12  1  0  0  0  0
 14 16  1  0  0  0  0
 16 15  3  0  0  0  0
 17  5  1  0  0  0  0
 18 17  1  0  0  0  0
 20 21  2  0  0  0  0
 21 19  1  0  0  0  0
 21 18  1  0  0  0  0
 22 19  1  0  0  0  0
 23 22  2  0  0  0  0
 24 23  2  0  0  0  0
 25 24  1  0  0  0  0
 27 26  1  0  0  0  0
 27 25  1  0  0  0  0
M  END
>  <MODEL>
5

>  <REMARK>
 VINA RESULT:      -7.5      3.786      7.203
  Name = 
  10 active torsions:
  status: ('A' for Active; 'I' for Inactive)
    1  A    between atoms: N_1  and  C_5
    2  A    between atoms: C_6  and  C_7
    3  A    between atoms: C_6  and  C_14
    4  A    between atoms: C_7  and  N_25
    5  A    between atoms: C_10  and  C_24
    6  A    between atoms: C_17  and  C_20
    7  A    between atoms: N_18  and  C_19
    8  A    between atoms: C_20  and  C_23
    9  A    between atoms: C_21  and  C_23
   10  A    between atoms: C_24  and  O_27
                            x       y       z     vdW  Elec       q    Type
                         _______ _______ _______ _____ _____    ______ ____

>  <TORSDO>
F 10

$$$$
=
 OpenBabel10232411383D

 27 28  0  0  0  0  0  0  0  0999 V2000
  185.9100  178.3000  144.5940 C   0  0  0  0  0  0  0  0  0  0  0  0
  185.8570  178.7550  146.9450 C   0  0  0  0  0  3  0  0  0  0  0  0
  186.4710  177.6180  142.6060 C   0  0  0  0  0  3  0  0  0  0  0  0
  185.2540  178.8790  145.6810 C   0  0  0  0  0  3  0  0  0  0  0  0
  187.4600  177.1900  143.4870 C   0  0  0  0  0  0  0  0  0  0  0  0
  187.0820  178.0690  147.1020 C   0  0  0  0  0  0  0  0  0  0  0  0
  187.7180  177.4950  145.9790 C   0  0  0  0  0  3  0  0  0  0  0  0
  185.5290  178.2960  143.3030 N   0  0  0  0  0  0  0  0  0  0  0  0
  187.0950  177.6330  144.7410 C   0  0  0  0  0  0  0  0  0  0  0  0
  189.0680  178.2120  148.6680 C   0  0  0  0  0  1  0  0  0  0  0  0
  187.6590  177.9700  148.4060 N   0  0  0  0  0  2  0  0  0  0  0  0
  184.3130  178.8720  142.7470 C   0  0  0  0  0  2  0  0  0  0  0  0
  185.1050  179.5940  140.6190 O   0  0  0  0  0  0  0  0  0  0  0  0
  184.3510  178.8160  141.2580 C   0  0  0  0  0  0  0  0  0  0  0  0
  182.8960  177.0310  139.9650 C   0  0  0  0  0  3  0  0  0  0  0  0
  183.5590  177.8460  140.5540 C   0  0  0  0  0  0  0  0  0  0  0  0
  188.7020  176.4450  143.1220 C   0  0  0  0  0  2  0  0  0  0  0  0
  189.7270  177.3680  142.4780 C   0  0  0  0  0  2  0  0  0  0  0  0
  188.8990  178.3050  140.2850 N   0  0  0  0  0  2  0  0  0  0  0  0
  190.2470  176.3990  140.3680 O   0  0  0  0  0  0  0  0  0  0  0  0
  189.6420  177.3110  140.9910 C   0  0  0  0  0  0  0  0  0  0  0  0
  188.8080  178.3110  138.8630 C   0  0  0  0  0  3  0  0  0  0  0  0
  187.6970  177.9610  138.2790 C   0  0  0  0  0  0  0  0  0  0  0  0
  186.5830  177.6120  137.6940 C   0  0  0  0  0  3  0  0  0  0  0  0
  186.3920  177.6610  136.2070 C   0  0  0  0  0  2  0  0  0  0  0  0
  187.7780  176.7920  134.7240 C   0  0  0  0  0  1  0  0  0  0  0  0
  187.5930  177.9100  135.5370 O   0  0  0  0  0  0  0  0  0  0  0  0
  1  9  2  0  0  0  0
  1  4  1  0  0  0  0
  2  6  1  0  0  0  0
  3  8  1  0  0  0  0
  3  5  2  0  0  0  0
  4  2  2  0  0  0  0
  5  9  1  0  0  0  0
  6 11  1  0  0  0  0
  7  6  2  0  0  0  0
  8  1  1  0  0  0  0
  9  7  1  0  0  0  0
 11 10  1  0  0  0  0
 12  8  1  0  0  0  0
 13 14  2  0  0  0  0
 14 12  1  0  0  0  0
 15 16  3  0  0  0  0
 16 14  1  0  0  0  0
 17  5  1  0  0  0  0
 18 17  1  0  0  0  0
 19 21  1  0  0  0  0
 20 21  2  0  0  0  0
 21 18  1  0  0  0  0
 22 19  1  0  0  0  0
 23 22  2  0  0  0  0
 24 23  2  0  0  0  0
 25 24  1  0  0  0  0
 26 27  1  0  0  0  0
 27 25  1  0  0  0  0
M  END
>  <MODEL>
6

>  <REMARK>
 VINA RESULT:      -7.4      3.273      4.357
  Name = 
  10 active torsions:
  status: ('A' for Active; 'I' for Inactive)
    1  A    between atoms: N_1  and  C_5
    2  A    between atoms: C_6  and  C_7
    3  A    between atoms: C_6  and  C_14
    4  A    between atoms: C_7  and  N_25
    5  A    between atoms: C_10  and  C_24
    6  A    between atoms: C_17  and  C_20
    7  A    between atoms: N_18  and  C_19
    8  A    between atoms: C_20  and  C_23
    9  A    between atoms: C_21  and  C_23
   10  A    between atoms: C_24  and  O_27
                            x       y       z     vdW  Elec       q    Type
                         _______ _______ _______ _____ _____    ______ ____

>  <TORSDO>
F 10

$$$$
=
 OpenBabel10232411383D

 27 28  0  0  0  0  0  0  0  0999 V2000
  187.5100  177.7570  146.1370 C   0  0  0  0  0  0  0  0  0  0  0  0
  188.9720  177.7590  148.0350 C   0  0  0  0  0  3  0  0  0  0  0  0
  186.6640  177.5220  144.1460 C   0  0  0  0  0  3  0  0  0  0  0  0
  187.7090  178.0480  147.4870 C   0  0  0  0  0  3  0  0  0  0  0  0
  187.9740  177.0500  144.1000 C   0  0  0  0  0  0  0  0  0  0  0  0
  189.9960  177.1960  147.2420 C   0  0  0  0  0  0  0  0  0  0  0  0
  189.7590  176.9140  145.8790 C   0  0  0  0  0  3  0  0  0  0  0  0
  186.3990  177.9510  145.4030 N   0  0  0  0  0  0  0  0  0  0  0  0
  188.4990  177.2090  145.3650 C   0  0  0  0  0  0  0  0  0  0  0  0
  192.0860  175.7810  147.4640 C   0  0  0  0  0  1  0  0  0  0  0  0
  191.2640  176.9190  147.8420 N   0  0  0  0  0  2  0  0  0  0  0  0
  185.1250  178.4810  145.8660 C   0  0  0  0  0  2  0  0  0  0  0  0
  185.1280  180.1590  144.1730 O   0  0  0  0  0  0  0  0  0  0  0  0
  184.4740  179.2750  144.7850 C   0  0  0  0  0  0  0  0  0  0  0  0
  181.9740  178.7720  144.0980 C   0  0  0  0  0  3  0  0  0  0  0  0
  183.1140  179.0030  144.4120 C   0  0  0  0  0  0  0  0  0  0  0  0
  188.6790  176.5280  142.8920 C   0  0  0  0  0  2  0  0  0  0  0  0
  189.3690  177.6510  142.1310 C   0  0  0  0  0  2  0  0  0  0  0  0
  189.0520  177.3630  139.6430 N   0  0  0  0  0  2  0  0  0  0  0  0
  187.6560  178.7540  140.8990 O   0  0  0  0  0  0  0  0  0  0  0  0
  188.6420  177.9700  140.8690 C   0  0  0  0  0  0  0  0  0  0  0  0
  188.3740  177.6130  138.4150 C   0  0  0  0  0  3  0  0  0  0  0  0
  188.5190  176.7940  137.4110 C   0  0  0  0  0  0  0  0  0  0  0  0
  188.6630  175.9730  136.4060 C   0  0  0  0  0  3  0  0  0  0  0  0
  187.9280  176.1340  135.1090 C   0  0  0  0  0  2  0  0  0  0  0  0
  186.5520  177.7280  134.4480 C   0  0  0  0  0  1  0  0  0  0  0  0
  187.9000  177.4660  134.6890 O   0  0  0  0  0  0  0  0  0  0  0  0
  1  4  1  0  0  0  0
  3  8  1  0  0  0  0
  4  2  2  0  0  0  0
  5  3  2  0  0  0  0
  5  9  1  0  0  0  0
  6 11  1  0  0  0  0
  6  2  1  0  0  0  0
  7  6  2  0  0  0  0
  8 12  1  0  0  0  0
  8  1  1  0  0  0  0
  9  7  1  0  0  0  0
  9  1  2  0  0  0  0
 10 11  1  0  0  0  0
 13 14  2  0  0  0  0
 14 12  1  0  0  0  0
 15 16  3  0  0  0  0
 16 14  1  0  0  0  0
 17  5  1  0  0  0  0
 18 17  1  0  0  0  0
 19 21  1  0  0  0  0
 21 20  2  0  0  0  0
 21 18  1  0  0  0  0
 22 19  1  0  0  0  0
 23 22  2  0  0  0  0
 24 23  2  0  0  0  0
 25 24  1  0  0  0  0
 26 27  1  0  0  0  0
 27 25  1  0  0  0  0
M  END
>  <MODEL>
7

>  <REMARK>
 VINA RESULT:      -7.2      2.618      3.083
  Name = 
  10 active torsions:
  status: ('A' for Active; 'I' for Inactive)
    1  A    between atoms: N_1  and  C_5
    2  A    between atoms: C_6  and  C_7
    3  A    between atoms: C_6  and  C_14
    4  A    between atoms: C_7  and  N_25
    5  A    between atoms: C_10  and  C_24
    6  A    between atoms: C_17  and  C_20
    7  A    between atoms: N_18  and  C_19
    8  A    between atoms: C_20  and  C_23
    9  A    between atoms: C_21  and  C_23
   10  A    between atoms: C_24  and  O_27
                            x       y       z     vdW  Elec       q    Type
                         _______ _______ _______ _____ _____    ______ ____

>  <TORSDO>
F 10

$$$$
=
 OpenBabel10232411383D

 27 28  0  0  0  0  0  0  0  0999 V2000
  189.5090  177.7610  143.2690 C   0  0  0  0  0  0  0  0  0  0  0  0
  189.3700  178.2340  140.9250 C   0  0  0  0  0  3  0  0  0  0  0  0
  189.0400  177.3240  145.3480 C   0  0  0  0  0  3  0  0  0  0  0  0
  190.1650  178.0300  142.0670 C   0  0  0  0  0  3  0  0  0  0  0  0
  187.8330  177.4140  144.6590 C   0  0  0  0  0  0  0  0  0  0  0  0
  187.9610  178.1700  140.9990 C   0  0  0  0  0  0  0  0  0  0  0  0
  187.3310  177.8960  142.2330 C   0  0  0  0  0  3  0  0  0  0  0  0
  190.0560  177.5400  144.4790 N   0  0  0  0  0  0  0  0  0  0  0  0
  188.1450  177.6960  143.3460 C   0  0  0  0  0  0  0  0  0  0  0  0
  187.6710  178.0260  138.4870 C   0  0  0  0  0  1  0  0  0  0  0  0
  187.1930  178.3860  139.8120 N   0  0  0  0  0  2  0  0  0  0  0  0
  191.4740  177.4940  144.8040 C   0  0  0  0  0  2  0  0  0  0  0  0
  191.9880  175.1900  144.4720 O   0  0  0  0  0  0  0  0  0  0  0  0
  191.8470  176.1350  145.2910 C   0  0  0  0  0  0  0  0  0  0  0  0
  192.2820  175.7230  147.8630 C   0  0  0  0  0  3  0  0  0  0  0  0
  192.0840  175.9120  146.6900 C   0  0  0  0  0  0  0  0  0  0  0  0
  186.4700  177.2840  145.2530 C   0  0  0  0  0  2  0  0  0  0  0  0
  185.9240  178.6420  145.6760 C   0  0  0  0  0  2  0  0  0  0  0  0
  184.2650  178.6690  143.7730 N   0  0  0  0  0  2  0  0  0  0  0  0
  183.6160  179.1510  145.9660 O   0  0  0  0  0  0  0  0  0  0  0  0
  184.5390  178.8470  145.1640 C   0  0  0  0  0  0  0  0  0  0  0  0
  182.9540  178.8270  143.2370 C   0  0  0  0  0  3  0  0  0  0  0  0
  182.7640  178.7620  141.9500 C   0  0  0  0  0  0  0  0  0  0  0  0
  182.5740  178.6950  140.6590 C   0  0  0  0  0  3  0  0  0  0  0  0
  181.2150  178.7820  140.0290 C   0  0  0  0  0  2  0  0  0  0  0  0
  182.1070  180.2550  138.6480 C   0  0  0  0  0  1  0  0  0  0  0  0
  181.2890  179.1260  138.6770 O   0  0  0  0  0  0  0  0  0  0  0  0
  1  9  1  0  0  0  0
  1  8  1  0  0  0  0
  2  6  2  0  0  0  0
  2  4  1  0  0  0  0
  4  1  2  0  0  0  0
  5 17  1  0  0  0  0
  5  3  2  0  0  0  0
  6  7  1  0  0  0  0
  7  9  2  0  0  0  0
  8 12  1  0  0  0  0
  8  3  1  0  0  0  0
  9  5  1  0  0  0  0
 10 11  1  0  0  0  0
 11  6  1  0  0  0  0
 12 14  1  0  0  0  0
 13 14  2  0  0  0  0
 14 16  1  0  0  0  0
 16 15  3  0  0  0  0
 17 18  1  0  0  0  0
 19 21  1  0  0  0  0
 21 18  1  0  0  0  0
 21 20  2  0  0  0  0
 22 19  1  0  0  0  0
 23 22  2  0  0  0  0
 24 23  2  0  0  0  0
 25 24  1  0  0  0  0
 26 27  1  0  0  0  0
 27 25  1  0  0  0  0
M  END
>  <MODEL>
8

>  <REMARK>
 VINA RESULT:      -7.2      3.396      8.130
  Name = 
  10 active torsions:
  status: ('A' for Active; 'I' for Inactive)
    1  A    between atoms: N_1  and  C_5
    2  A    between atoms: C_6  and  C_7
    3  A    between atoms: C_6  and  C_14
    4  A    between atoms: C_7  and  N_25
    5  A    between atoms: C_10  and  C_24
    6  A    between atoms: C_17  and  C_20
    7  A    between atoms: N_18  and  C_19
    8  A    between atoms: C_20  and  C_23
    9  A    between atoms: C_21  and  C_23
   10  A    between atoms: C_24  and  O_27
                            x       y       z     vdW  Elec       q    Type
                         _______ _______ _______ _____ _____    ______ ____

>  <TORSDO>
F 10

$$$$
=
 OpenBabel10232411383D

 27 28  0  0  0  0  0  0  0  0999 V2000
  187.6510  177.7730  146.1350 C   0  0  0  0  0  0  0  0  0  0  0  0
  185.6110  178.7070  146.9750 C   0  0  0  0  0  3  0  0  0  0  0  0
  189.1990  176.9320  144.8580 C   0  0  0  0  0  3  0  0  0  0  0  0
  186.9230  178.2640  147.2190 C   0  0  0  0  0  3  0  0  0  0  0  0
  188.0920  177.1930  144.0540 C   0  0  0  0  0  0  0  0  0  0  0  0
  185.0560  178.6520  145.6770 C   0  0  0  0  0  0  0  0  0  0  0  0
  185.8220  178.1490  144.6030 C   0  0  0  0  0  3  0  0  0  0  0  0
  188.9090  177.2940  146.1300 N   0  0  0  0  0  0  0  0  0  0  0  0
  187.1190  177.7200  144.8760 C   0  0  0  0  0  0  0  0  0  0  0  0
  183.0260  179.0000  144.2020 C   0  0  0  0  0  1  0  0  0  0  0  0
  183.7170  179.1120  145.4760 N   0  0  0  0  0  2  0  0  0  0  0  0
  189.8190  177.2140  147.2630 C   0  0  0  0  0  2  0  0  0  0  0  0
  191.6150  177.4040  145.7080 O   0  0  0  0  0  0  0  0  0  0  0  0
  191.2020  176.9170  146.7910 C   0  0  0  0  0  0  0  0  0  0  0  0
  192.8140  175.4330  148.2670 C   0  0  0  0  0  3  0  0  0  0  0  0
  192.0780  176.1090  147.5940 C   0  0  0  0  0  0  0  0  0  0  0  0
  187.9760  176.9000  142.5940 C   0  0  0  0  0  2  0  0  0  0  0  0
  188.6430  177.9870  141.7610 C   0  0  0  0  0  2  0  0  0  0  0  0
  189.8370  177.2950  139.6460 N   0  0  0  0  0  2  0  0  0  0  0  0
  190.8870  177.1940  141.7310 O   0  0  0  0  0  0  0  0  0  0  0  0
  189.8520  177.4630  141.0650 C   0  0  0  0  0  0  0  0  0  0  0  0
  190.9740  176.8230  138.9300 C   0  0  0  0  0  3  0  0  0  0  0  0
  190.8700  175.7800  138.1560 C   0  0  0  0  0  0  0  0  0  0  0  0
  190.7660  174.7350  137.3780 C   0  0  0  0  0  3  0  0  0  0  0  0
  191.9010  174.2250  136.5410 C   0  0  0  0  0  2  0  0  0  0  0  0
  190.0890  173.2250  135.7720 C   0  0  0  0  0  1  0  0  0  0  0  0
  191.4700  173.2960  135.5910 O   0  0  0  0  0  0  0  0  0  0  0  0
  1  4  1  0  0  0  0
  2  4  2  0  0  0  0
  3  8  1  0  0  0  0
  5  3  2  0  0  0  0
  5  9  1  0  0  0  0
  6  2  1  0  0  0  0
  7  9  1  0  0  0  0
  7  6  2  0  0  0  0
  8  1  1  0  0  0  0
  8 12  1  0  0  0  0
  9  1  2  0  0  0  0
 10 11  1  0  0  0  0
 11  6  1  0  0  0  0
 13 14  2  0  0  0  0
 14 12  1  0  0  0  0
 14 16  1  0  0  0  0
 16 15  3  0  0  0  0
 17  5  1  0  0  0  0
 18 17  1  0  0  0  0
 19 21  1  0  0  0  0
 21 20  2  0  0  0  0
 21 18  1  0  0  0  0
 22 19  1  0  0  0  0
 23 22  2  0  0  0  0
 24 23  2  0  0  0  0
 25 24  1  0  0  0  0
 27 26  1  0  0  0  0
 27 25  1  0  0  0  0
M  END
>  <MODEL>
9

>  <REMARK>
 VINA RESULT:      -7.1      2.317      5.087
  Name = 
  10 active torsions:
  status: ('A' for Active; 'I' for Inactive)
    1  A    between atoms: N_1  and  C_5
    2  A    between atoms: C_6  and  C_7
    3  A    between atoms: C_6  and  C_14
    4  A    between atoms: C_7  and  N_25
    5  A    between atoms: C_10  and  C_24
    6  A    between atoms: C_17  and  C_20
    7  A    between atoms: N_18  and  C_19
    8  A    between atoms: C_20  and  C_23
    9  A    between atoms: C_21  and  C_23
   10  A    between atoms: C_24  and  O_27
                            x       y       z     vdW  Elec       q    Type
                         _______ _______ _______ _____ _____    ______ ____

>  <TORSDO>
F 10

$$$$
