=
 OpenBabel10232409583D

 34 38  0  0  1  0  0  0  0  0999 V2000
  188.4310  178.3290  143.2080 O   0  0  0  0  0  0  0  0  0  0  0  0
  190.1790  177.6060  139.5600 C   0  0  2  0  0  3  0  0  0  0  0  0
  188.5630  177.7150  141.9500 C   0  0  2  0  0  3  0  0  0  0  0  0
  189.9190  176.7290  144.2350 C   0  0  0  0  0  2  0  0  0  0  0  0
  190.0900  176.5700  140.5070 O   0  0  0  0  0  0  0  0  0  0  0  0
  186.7500  178.6640  140.6330 N   0  0  0  0  0  1  0  0  0  0  0  0
  188.9130  178.4330  139.5460 C   0  0  0  0  0  0  0  0  0  0  0  0
  188.4940  177.3000  144.1670 C   0  0  1  0  0  3  0  0  0  0  0  0
  190.3040  176.1710  142.8670 C   0  0  2  0  0  3  0  0  0  0  0  0
  188.5530  178.9860  138.5180 O   0  0  0  0  0  0  0  0  0  0  0  0
  191.7800  175.8230  142.8630 C   0  0  0  0  0  1  0  0  0  0  0  0
  189.9970  177.1860  141.7650 C   0  0  2  0  0  3  0  0  0  0  0  0
  188.1880  178.7070  140.8430 C   0  0  2  0  0  3  0  0  0  0  0  0
  188.7860  177.2090  146.6790 C   0  0  0  0  0  1  0  0  0  0  0  0
  188.0020  177.8140  145.5210 C   0  0  2  0  0  3  0  0  0  0  0  0
  186.5110  177.5620  145.6840 C   0  0  0  0  0  2  0  0  0  0  0  0
  185.8040  178.8300  146.1270 C   0  0  0  0  0  2  0  0  0  0  0  0
  182.7650  178.9940  144.3210 C   0  0  0  0  0  2  0  0  0  0  0  0
  184.8490  179.3020  145.0450 C   0  0  1  0  0  3  0  0  0  0  0  0
  183.6140  178.2410  143.3240 C   0  0  2  0  0  3  0  0  0  0  0  0
  185.0160  178.4460  143.8120 C   0  0  0  0  0  2  0  0  0  0  0  0
  183.4490  178.8550  141.9480 C   0  0  0  0  0  1  0  0  0  0  0  0
  183.5210  179.1910  145.4860 O   0  0  0  0  0  0  0  0  0  0  0  0
  190.4260  177.0540  138.2710 O   0  0  0  0  0  0  0  0  0  0  0  0
  194.4850  173.5070  137.5150 N   0  0  0  0  0  0  0  0  0  0  0  0
  193.6410  175.3690  138.2190 C   0  0  0  0  0  0  0  0  0  0  0  0
  191.4220  176.1020  138.0450 C   0  0  0  0  0  0  0  0  0  0  0  0
  192.7110  176.3240  138.4610 N   0  0  0  0  0  0  0  0  0  0  0  0
  195.4350  174.2340  138.0970 N   0  0  0  0  0  0  0  0  0  0  0  0
  194.6860  172.1950  136.9250 C   0  0  0  0  0  1  0  0  0  0  0  0
  194.9460  175.3930  138.5430 N   0  0  0  0  0  0  0  0  0  0  0  0
  193.3490  174.2100  137.5850 C   0  0  0  0  0  0  0  0  0  0  0  0
  192.0660  173.9180  137.1350 C   0  0  0  0  0  3  0  0  0  0  0  0
  191.0840  174.8980  137.3770 C   0  0  0  0  0  3  0  0  0  0  0  0
  1  8  1  0  0  0  0
  2 24  1  6  0  0  0
  2  5  1  0  0  0  0
  3  1  1  1  0  0  0
  7  2  1  0  0  0  0
  7 13  1  0  0  0  0
  8  4  1  0  0  0  0
  8 15  1  1  0  0  0
  9 11  1  1  0  0  0
  9  4  1  0  0  0  0
 10  7  2  0  0  0  0
 12  5  1  6  0  0  0
 12  3  1  0  0  0  0
 12  9  1  0  0  0  0
 13  6  1  6  0  0  0
 13  3  1  0  0  0  0
 15 16  1  0  0  0  0
 15 14  1  1  0  0  0
 16 17  1  0  0  0  0
 18 23  1  0  0  0  0
 19 23  1  0  0  0  0
 19 17  1  1  0  0  0
 20 22  1  6  0  0  0
 20 21  1  0  0  0  0
 20 18  1  0  0  0  0
 21 19  1  0  0  0  0
 25 32  1  0  0  0  0
 25 29  1  0  0  0  0
 26 28  1  0  0  0  0
 26 31  1  0  0  0  0
 27 24  1  0  0  0  0
 27 28  2  0  0  0  0
 29 31  2  0  0  0  0
 30 25  1  0  0  0  0
 32 26  2  0  0  0  0
 33 34  2  0  0  0  0
 33 32  1  0  0  0  0
 34 27  1  0  0  0  0
M  END
>  <MODEL>
1

>  <REMARK>
 VINA RESULT:      -9.4      0.000      0.000
  Name = 
  6 active torsions:
  status: ('A' for Active; 'I' for Inactive)
    1  A    between atoms: C_3  and  C_13
    2  A    between atoms: C_3  and  C_14
    3  A    between atoms: C_6  and  O_21
    4  A    between atoms: C_7  and  O_21
    5  A    between atoms: C_8  and  C_13
    6  A    between atoms: C_8  and  C_27
                            x       y       z     vdW  Elec       q    Type
                         _______ _______ _______ _____ _____    ______ ____

>  <TORSDO>
F 6

$$$$
=
 OpenBabel10232409583D

 34 38  0  0  1  0  0  0  0  0999 V2000
  186.3200  177.8090  142.9700 O   0  0  0  0  0  0  0  0  0  0  0  0
  188.9240  177.4190  139.8150 C   0  0  2  0  0  3  0  0  0  0  0  0
  187.3580  178.2060  142.1090 C   0  0  2  0  0  3  0  0  0  0  0  0
  184.6370  178.6720  141.4700 C   0  0  0  0  0  2  0  0  0  0  0  0
  187.9760  178.4590  139.8120 O   0  0  0  0  0  0  0  0  0  0  0  0
  189.3610  178.0450  143.4820 N   0  0  0  0  0  1  0  0  0  0  0  0
  189.5090  177.2270  141.1960 C   0  0  0  0  0  0  0  0  0  0  0  0
  185.3040  178.7760  142.8500 C   0  0  1  0  0  3  0  0  0  0  0  0
  185.6850  178.9020  140.3850 C   0  0  2  0  0  3  0  0  0  0  0  0
  190.6500  176.8110  141.3260 O   0  0  0  0  0  0  0  0  0  0  0  0
  185.0890  178.5700  139.0300 C   0  0  0  0  0  1  0  0  0  0  0  0
  186.9230  178.0420  140.6420 C   0  0  2  0  0  3  0  0  0  0  0  0
  188.6250  177.3960  142.4090 C   0  0  2  0  0  3  0  0  0  0  0  0
  182.9180  179.1310  143.6130 C   0  0  0  0  0  1  0  0  0  0  0  0
  184.3040  178.6320  143.9990 C   0  0  2  0  0  3  0  0  0  0  0  0
  184.8100  179.3420  145.2450 C   0  0  0  0  0  2  0  0  0  0  0  0
  185.2200  178.3320  146.3020 C   0  0  0  0  0  2  0  0  0  0  0  0
  188.4630  176.9920  146.7540 C   0  0  0  0  0  2  0  0  0  0  0  0
  186.7250  178.3610  146.4970 C   0  0  1  0  0  3  0  0  0  0  0  0
  188.2160  177.5320  148.1420 C   0  0  2  0  0  3  0  0  0  0  0  0
  187.0440  178.4510  147.9710 C   0  0  0  0  0  2  0  0  0  0  0  0
  189.4250  178.3160  148.6080 C   0  0  0  0  0  1  0  0  0  0  0  0
  187.3040  177.1880  145.9900 O   0  0  0  0  0  0  0  0  0  0  0  0
  189.9530  177.7080  138.8750 O   0  0  0  0  0  0  0  0  0  0  0  0
  193.3420  173.9800  136.8150 N   0  0  0  0  0  0  0  0  0  0  0  0
  192.8780  175.8540  137.7880 C   0  0  0  0  0  0  0  0  0  0  0  0
  190.7670  176.7130  138.3290 C   0  0  0  0  0  0  0  0  0  0  0  0
  192.1320  176.8470  138.3290 N   0  0  0  0  0  0  0  0  0  0  0  0
  194.4700  174.6290  137.0890 N   0  0  0  0  0  0  0  0  0  0  0  0
  193.2650  172.6850  136.1620 C   0  0  0  0  0  1  0  0  0  0  0  0
  194.2190  175.7930  137.6910 N   0  0  0  0  0  0  0  0  0  0  0  0
  192.3300  174.7400  137.2500 C   0  0  0  0  0  0  0  0  0  0  0  0
  190.9560  174.5380  137.2150 C   0  0  0  0  0  3  0  0  0  0  0  0
  190.1620  175.5580  137.7720 C   0  0  0  0  0  3  0  0  0  0  0  0
  2 24  1  6  0  0  0
  2  7  1  0  0  0  0
  3 13  1  0  0  0  0
  3  1  1  1  0  0  0
  4  8  1  0  0  0  0
  5  2  1  0  0  0  0
  7 10  2  0  0  0  0
  7 13  1  0  0  0  0
  8  1  1  0  0  0  0
  8 15  1  1  0  0  0
  9 11  1  6  0  0  0
  9 12  1  0  0  0  0
  9  4  1  0  0  0  0
 12  5  1  6  0  0  0
 12  3  1  0  0  0  0
 13  6  1  1  0  0  0
 15 14  1  6  0  0  0
 15 16  1  0  0  0  0
 16 17  1  0  0  0  0
 18 20  1  0  0  0  0
 19 17  1  1  0  0  0
 19 21  1  0  0  0  0
 20 22  1  6  0  0  0
 21 20  1  0  0  0  0
 23 19  1  0  0  0  0
 23 18  1  0  0  0  0
 25 29  1  0  0  0  0
 25 32  1  0  0  0  0
 26 28  1  0  0  0  0
 27 24  1  0  0  0  0
 28 27  2  0  0  0  0
 29 31  2  0  0  0  0
 30 25  1  0  0  0  0
 31 26  1  0  0  0  0
 32 26  2  0  0  0  0
 33 32  1  0  0  0  0
 33 34  2  0  0  0  0
 34 27  1  0  0  0  0
M  END
>  <MODEL>
2

>  <REMARK>
 VINA RESULT:      -8.9      1.630      3.935
  Name = 
  6 active torsions:
  status: ('A' for Active; 'I' for Inactive)
    1  A    between atoms: C_3  and  C_13
    2  A    between atoms: C_3  and  C_14
    3  A    between atoms: C_6  and  O_21
    4  A    between atoms: C_7  and  O_21
    5  A    between atoms: C_8  and  C_13
    6  A    between atoms: C_8  and  C_27
                            x       y       z     vdW  Elec       q    Type
                         _______ _______ _______ _____ _____    ______ ____

>  <TORSDO>
F 6

$$$$
=
 OpenBabel10232409583D

 34 38  0  0  1  0  0  0  0  0999 V2000
  188.3700  178.3370  143.2210 O   0  0  0  0  0  0  0  0  0  0  0  0
  190.2960  177.6230  139.6620 C   0  0  2  0  0  3  0  0  0  0  0  0
  188.5660  177.7230  141.9710 C   0  0  2  0  0  3  0  0  0  0  0  0
  189.8170  176.7460  144.3190 C   0  0  0  0  0  2  0  0  0  0  0  0
  190.1670  176.5870  140.6040 O   0  0  0  0  0  0  0  0  0  0  0  0
  186.8130  178.6630  140.5690 N   0  0  0  0  0  1  0  0  0  0  0  0
  189.0270  178.4440  139.5860 C   0  0  0  0  0  0  0  0  0  0  0  0
  188.3930  177.3090  144.1820 C   0  0  1  0  0  3  0  0  0  0  0  0
  190.2700  176.1900  142.9720 C   0  0  2  0  0  3  0  0  0  0  0  0
  188.7140  178.9940  138.5420 O   0  0  0  0  0  0  0  0  0  0  0  0
  191.7460  175.8510  143.0380 C   0  0  0  0  0  1  0  0  0  0  0  0
  190.0100  177.2030  141.8560 C   0  0  2  0  0  3  0  0  0  0  0  0
  188.2390  178.7130  140.8470 C   0  0  2  0  0  3  0  0  0  0  0  0
  188.5370  177.1890  146.7060 C   0  0  0  0  0  1  0  0  0  0  0  0
  187.8340  177.8210  145.5110 C   0  0  2  0  0  3  0  0  0  0  0  0
  186.3310  177.5980  145.5850 C   0  0  0  0  0  2  0  0  0  0  0  0
  185.6230  178.8790  145.9880 C   0  0  0  0  0  2  0  0  0  0  0  0
  182.6370  178.9560  144.0910 C   0  0  0  0  0  2  0  0  0  0  0  0
  184.6860  179.3290  144.8820 C   0  0  1  0  0  3  0  0  0  0  0  0
  183.5420  178.2450  143.1130 C   0  0  2  0  0  3  0  0  0  0  0  0
  184.9200  178.4930  143.6460 C   0  0  0  0  0  2  0  0  0  0  0  0
  183.3970  178.8670  141.7390 C   0  0  0  0  0  1  0  0  0  0  0  0
  183.3510  179.1670  145.2800 O   0  0  0  0  0  0  0  0  0  0  0  0
  190.6080  177.0730  138.3860 O   0  0  0  0  0  0  0  0  0  0  0  0
  187.7510  172.8980  136.3800 N   0  0  0  0  0  0  0  0  0  0  0  0
  187.9680  174.8950  137.1770 C   0  0  0  0  0  0  0  0  0  0  0  0
  189.9340  175.9650  137.8670 C   0  0  0  0  0  0  0  0  0  0  0  0
  188.5740  175.9940  137.6850 N   0  0  0  0  0  0  0  0  0  0  0  0
  186.5590  173.4850  136.4360 N   0  0  0  0  0  0  0  0  0  0  0  0
  187.9910  171.5490  135.8970 C   0  0  0  0  0  1  0  0  0  0  0  0
  186.6580  174.7220  136.9250 N   0  0  0  0  0  0  0  0  0  0  0  0
  188.6480  173.7740  136.8440 C   0  0  0  0  0  0  0  0  0  0  0  0
  190.0250  173.6730  137.0020 C   0  0  0  0  0  3  0  0  0  0  0  0
  190.6760  174.8060  137.5280 C   0  0  0  0  0  3  0  0  0  0  0  0
  1  8  1  0  0  0  0
  2 24  1  6  0  0  0
  2  5  1  0  0  0  0
  3  1  1  1  0  0  0
  7  2  1  0  0  0  0
  7 13  1  0  0  0  0
  8  4  1  0  0  0  0
  8 15  1  1  0  0  0
  9 11  1  1  0  0  0
  9  4  1  0  0  0  0
 10  7  2  0  0  0  0
 12  5  1  6  0  0  0
 12  3  1  0  0  0  0
 12  9  1  0  0  0  0
 13  6  1  6  0  0  0
 13  3  1  0  0  0  0
 15 16  1  0  0  0  0
 15 14  1  1  0  0  0
 16 17  1  0  0  0  0
 18 23  1  0  0  0  0
 19 23  1  0  0  0  0
 19 17  1  1  0  0  0
 20 22  1  6  0  0  0
 20 21  1  0  0  0  0
 20 18  1  0  0  0  0
 21 19  1  0  0  0  0
 25 29  1  0  0  0  0
 25 32  1  0  0  0  0
 26 28  1  0  0  0  0
 27 24  1  0  0  0  0
 28 27  2  0  0  0  0
 29 31  2  0  0  0  0
 30 25  1  0  0  0  0
 31 26  1  0  0  0  0
 32 33  1  0  0  0  0
 32 26  2  0  0  0  0
 33 34  2  0  0  0  0
 34 27  1  0  0  0  0
M  END
>  <MODEL>
3

>  <REMARK>
 VINA RESULT:      -8.9      2.410      3.110
  Name = 
  6 active torsions:
  status: ('A' for Active; 'I' for Inactive)
    1  A    between atoms: C_3  and  C_13
    2  A    between atoms: C_3  and  C_14
    3  A    between atoms: C_6  and  O_21
    4  A    between atoms: C_7  and  O_21
    5  A    between atoms: C_8  and  C_13
    6  A    between atoms: C_8  and  C_27
                            x       y       z     vdW  Elec       q    Type
                         _______ _______ _______ _____ _____    ______ ____

>  <TORSDO>
F 6

$$$$
=
 OpenBabel10232409583D

 34 38  0  0  1  0  0  0  0  0999 V2000
  187.6920  178.1000  142.5110 O   0  0  0  0  0  0  0  0  0  0  0  0
  190.1770  177.7720  139.2550 C   0  0  2  0  0  3  0  0  0  0  0  0
  188.1220  177.5870  141.2740 C   0  0  2  0  0  3  0  0  0  0  0  0
  189.0890  176.5530  143.7290 C   0  0  0  0  0  2  0  0  0  0  0  0
  189.9980  176.6680  140.1090 O   0  0  0  0  0  0  0  0  0  0  0  0
  186.5230  178.4830  139.6740 N   0  0  0  0  0  1  0  0  0  0  0  0
  188.8690  178.4970  139.0310 C   0  0  0  0  0  0  0  0  0  0  0  0
  187.6600  177.0150  143.4080 C   0  0  1  0  0  3  0  0  0  0  0  0
  189.7820  176.1230  142.4390 C   0  0  2  0  0  3  0  0  0  0  0  0
  188.6680  179.0900  137.9820 O   0  0  0  0  0  0  0  0  0  0  0  0
  191.2560  175.8920  142.7120 C   0  0  0  0  0  1  0  0  0  0  0  0
  189.6060  177.1860  141.3530 C   0  0  2  0  0  3  0  0  0  0  0  0
  187.8830  178.6220  140.1690 C   0  0  2  0  0  3  0  0  0  0  0  0
  185.6990  178.3160  144.3400 C   0  0  0  0  0  1  0  0  0  0  0  0
  186.8680  177.3930  144.6610 C   0  0  2  0  0  3  0  0  0  0  0  0
  187.7810  178.0150  145.7070 C   0  0  0  0  0  2  0  0  0  0  0  0
  187.4610  177.4640  147.0850 C   0  0  0  0  0  2  0  0  0  0  0  0
  190.7130  177.8900  148.4160 C   0  0  0  0  0  2  0  0  0  0  0  0
  188.7400  177.0590  147.7960 C   0  0  1  0  0  3  0  0  0  0  0  0
  191.0390  177.0290  147.2180 C   0  0  2  0  0  3  0  0  0  0  0  0
  189.7120  176.4730  146.7980 C   0  0  0  0  0  2  0  0  0  0  0  0
  191.9640  175.9050  147.6340 C   0  0  0  0  0  1  0  0  0  0  0  0
  189.3400  178.1790  148.3920 O   0  0  0  0  0  0  0  0  0  0  0  0
  190.7190  177.3320  138.0140 O   0  0  0  0  0  0  0  0  0  0  0  0
  194.5870  173.5060  137.8460 N   0  0  0  0  0  0  0  0  0  0  0  0
  193.7910  175.4380  138.4030 C   0  0  0  0  0  0  0  0  0  0  0  0
  191.6680  176.3100  137.9340 C   0  0  0  0  0  0  0  0  0  0  0  0
  192.9060  176.4580  138.5070 N   0  0  0  0  0  0  0  0  0  0  0  0
  195.5040  174.1840  138.5310 N   0  0  0  0  0  0  0  0  0  0  0  0
  194.7700  172.1690  137.3100 C   0  0  0  0  0  1  0  0  0  0  0  0
  195.0440  175.3830  138.8900 N   0  0  0  0  0  0  0  0  0  0  0  0
  193.5020  174.2840  137.7580 C   0  0  0  0  0  0  0  0  0  0  0  0
  192.2700  174.0660  137.1540 C   0  0  0  0  0  3  0  0  0  0  0  0
  191.3340  175.1140  137.2510 C   0  0  0  0  0  3  0  0  0  0  0  0
  1  8  1  0  0  0  0
  2 24  1  6  0  0  0
  2  5  1  0  0  0  0
  3 12  1  0  0  0  0
  3  1  1  1  0  0  0
  7  2  1  0  0  0  0
  7 13  1  0  0  0  0
  8  4  1  0  0  0  0
  8 15  1  1  0  0  0
  9 11  1  1  0  0  0
  9  4  1  0  0  0  0
 10  7  2  0  0  0  0
 12  5  1  6  0  0  0
 12  9  1  0  0  0  0
 13  6  1  6  0  0  0
 13  3  1  0  0  0  0
 15 14  1  6  0  0  0
 15 16  1  0  0  0  0
 16 17  1  0  0  0  0
 19 17  1  6  0  0  0
 19 23  1  0  0  0  0
 20 22  1  1  0  0  0
 20 18  1  0  0  0  0
 21 20  1  0  0  0  0
 21 19  1  0  0  0  0
 23 18  1  0  0  0  0
 25 29  1  0  0  0  0
 26 28  1  0  0  0  0
 26 31  1  0  0  0  0
 27 24  1  0  0  0  0
 27 28  2  0  0  0  0
 29 31  2  0  0  0  0
 30 25  1  0  0  0  0
 32 25  1  0  0  0  0
 32 26  2  0  0  0  0
 33 34  2  0  0  0  0
 33 32  1  0  0  0  0
 34 27  1  0  0  0  0
M  END
>  <MODEL>
4

>  <REMARK>
 VINA RESULT:      -8.7      1.442      3.460
  Name = 
  6 active torsions:
  status: ('A' for Active; 'I' for Inactive)
    1  A    between atoms: C_3  and  C_13
    2  A    between atoms: C_3  and  C_14
    3  A    between atoms: C_6  and  O_21
    4  A    between atoms: C_7  and  O_21
    5  A    between atoms: C_8  and  C_13
    6  A    between atoms: C_8  and  C_27
                            x       y       z     vdW  Elec       q    Type
                         _______ _______ _______ _____ _____    ______ ____

>  <TORSDO>
F 6

$$$$
=
 OpenBabel10232409583D

 34 38  0  0  1  0  0  0  0  0999 V2000
  183.1780  179.2910  142.2790 O   0  0  0  0  0  0  0  0  0  0  0  0
  187.2270  178.5900  142.2210 C   0  0  2  0  0  3  0  0  0  0  0  0
  184.3430  178.5140  142.1420 C   0  0  2  0  0  3  0  0  0  0  0  0
  183.1650  178.9930  144.6750 C   0  0  0  0  0  2  0  0  0  0  0  0
  186.4220  177.9460  143.1780 O   0  0  0  0  0  0  0  0  0  0  0  0
  184.4580  178.0360  139.7590 N   0  0  0  0  0  1  0  0  0  0  0  0
  186.5340  178.6350  140.8770 C   0  0  0  0  0  0  0  0  0  0  0  0
  182.4440  178.7330  143.3430 C   0  0  1  0  0  3  0  0  0  0  0  0
  184.5520  178.3590  144.6300 C   0  0  2  0  0  3  0  0  0  0  0  0
  187.1910  178.6340  139.8480 O   0  0  0  0  0  0  0  0  0  0  0  0
  185.3510  178.8090  145.8370 C   0  0  0  0  0  1  0  0  0  0  0  0
  185.2800  178.7450  143.3410 C   0  0  2  0  0  3  0  0  0  0  0  0
  185.0390  178.8460  140.8180 C   0  0  2  0  0  3  0  0  0  0  0  0
  180.0370  178.3130  143.9990 C   0  0  0  0  0  1  0  0  0  0  0  0
  181.0140  179.2740  143.3340 C   0  0  2  0  0  3  0  0  0  0  0  0
  180.5710  179.6030  141.9160 C   0  0  0  0  0  2  0  0  0  0  0  0
  180.1950  178.3360  141.1700 C   0  0  0  0  0  2  0  0  0  0  0  0
  181.4320  178.3500  137.8540 C   0  0  0  0  0  2  0  0  0  0  0  0
  180.1710  178.5970  139.6740 C   0  0  1  0  0  3  0  0  0  0  0  0
  181.5270  179.8250  138.1680 C   0  0  2  0  0  3  0  0  0  0  0  0
  180.6810  179.9910  139.3940 C   0  0  0  0  0  2  0  0  0  0  0  0
  180.9440  180.6280  137.0230 C   0  0  0  0  0  1  0  0  0  0  0  0
  180.9980  177.6800  139.0080 O   0  0  0  0  0  0  0  0  0  0  0  0
  188.4750  177.9130  142.1130 O   0  0  0  0  0  0  0  0  0  0  0  0
  191.1630  176.5210  146.6360 N   0  0  0  0  0  0  0  0  0  0  0  0
  189.5520  177.4690  145.5510 C   0  0  0  0  0  0  0  0  0  0  0  0
  189.2120  177.5230  143.2340 C   0  0  0  0  0  0  0  0  0  0  0  0
  188.8030  177.8710  144.4960 N   0  0  0  0  0  0  0  0  0  0  0  0
  190.3330  177.1060  147.4950 N   0  0  0  0  0  0  0  0  0  0  0  0
  192.3610  175.7860  147.0060 C   0  0  0  0  0  1  0  0  0  0  0  0
  189.3250  177.7020  146.8560 N   0  0  0  0  0  0  0  0  0  0  0  0
  190.6830  176.7410  145.4070 C   0  0  0  0  0  0  0  0  0  0  0  0
  191.1580  176.3540  144.1590 C   0  0  0  0  0  3  0  0  0  0  0  0
  190.3930  176.7620  143.0490 C   0  0  0  0  0  3  0  0  0  0  0  0
  1  8  1  0  0  0  0
  2 24  1  6  0  0  0
  2  5  1  0  0  0  0
  3  1  1  1  0  0  0
  3 12  1  0  0  0  0
  7  2  1  0  0  0  0
  8 15  1  1  0  0  0
  8  4  1  0  0  0  0
  9  4  1  0  0  0  0
  9 11  1  1  0  0  0
 10  7  2  0  0  0  0
 12  5  1  6  0  0  0
 12  9  1  0  0  0  0
 13  6  1  6  0  0  0
 13  7  1  0  0  0  0
 13  3  1  0  0  0  0
 15 14  1  6  0  0  0
 16 15  1  0  0  0  0
 17 16  1  0  0  0  0
 18 20  1  0  0  0  0
 18 23  1  0  0  0  0
 19 17  1  1  0  0  0
 20 22  1  6  0  0  0
 20 21  1  0  0  0  0
 21 19  1  0  0  0  0
 23 19  1  0  0  0  0
 24 27  1  0  0  0  0
 25 30  1  0  0  0  0
 25 29  1  0  0  0  0
 26 31  1  0  0  0  0
 27 28  2  0  0  0  0
 28 26  1  0  0  0  0
 31 29  2  0  0  0  0
 32 26  2  0  0  0  0
 32 25  1  0  0  0  0
 33 32  1  0  0  0  0
 34 27  1  0  0  0  0
 34 33  2  0  0  0  0
M  END
>  <MODEL>
5

>  <REMARK>
 VINA RESULT:      -8.6      4.490      6.940
  Name = 
  6 active torsions:
  status: ('A' for Active; 'I' for Inactive)
    1  A    between atoms: C_3  and  C_13
    2  A    between atoms: C_3  and  C_14
    3  A    between atoms: C_6  and  O_21
    4  A    between atoms: C_7  and  O_21
    5  A    between atoms: C_8  and  C_13
    6  A    between atoms: C_8  and  C_27
                            x       y       z     vdW  Elec       q    Type
                         _______ _______ _______ _____ _____    ______ ____

>  <TORSDO>
F 6

$$$$
=
 OpenBabel10232409583D

 34 38  0  0  1  0  0  0  0  0999 V2000
  188.9740  178.7280  142.3940 O   0  0  0  0  0  0  0  0  0  0  0  0
  187.7430  177.8990  138.5620 C   0  0  2  0  0  3  0  0  0  0  0  0
  188.3170  177.9950  141.3890 C   0  0  2  0  0  3  0  0  0  0  0  0
  191.0630  177.5960  141.9640 C   0  0  0  0  0  2  0  0  0  0  0  0
  188.5870  176.9960  139.2330 O   0  0  0  0  0  0  0  0  0  0  0  0
  185.9540  178.3950  141.8160 N   0  0  0  0  0  1  0  0  0  0  0  0
  186.6940  178.4540  139.4990 C   0  0  0  0  0  0  0  0  0  0  0  0
  189.9280  177.8640  142.9640 C   0  0  1  0  0  3  0  0  0  0  0  0
  190.4850  176.9530  140.7060 C   0  0  2  0  0  3  0  0  0  0  0  0
  185.6010  178.7880  139.0680 O   0  0  0  0  0  0  0  0  0  0  0  0
  191.5530  176.9030  139.6300 C   0  0  0  0  0  1  0  0  0  0  0  0
  189.2710  177.7380  140.2090 C   0  0  2  0  0  3  0  0  0  0  0  0
  187.0580  178.7450  140.9360 C   0  0  2  0  0  3  0  0  0  0  0  0
  191.6810  179.2960  144.0960 C   0  0  0  0  0  1  0  0  0  0  0  0
  190.4340  178.4410  144.2870 C   0  0  2  0  0  3  0  0  0  0  0  0
  190.6850  177.3330  145.2980 C   0  0  0  0  0  2  0  0  0  0  0  0
  189.3700  176.7520  145.7860 C   0  0  0  0  0  2  0  0  0  0  0  0
  186.7180  178.4220  147.4270 C   0  0  0  0  0  2  0  0  0  0  0  0
  188.3690  177.8640  146.0400 C   0  0  1  0  0  3  0  0  0  0  0  0
  186.0060  177.9930  146.1660 C   0  0  2  0  0  3  0  0  0  0  0  0
  187.1170  177.6140  145.2330 C   0  0  0  0  0  2  0  0  0  0  0  0
  185.2270  179.1600  145.5970 C   0  0  0  0  0  1  0  0  0  0  0  0
  188.0200  177.9020  147.3990 O   0  0  0  0  0  0  0  0  0  0  0  0
  187.1270  177.2450  137.4580 O   0  0  0  0  0  0  0  0  0  0  0  0
  188.7990  172.4240  135.5660 N   0  0  0  0  0  0  0  0  0  0  0  0
  187.4900  173.7130  136.7040 C   0  0  0  0  0  0  0  0  0  0  0  0
  187.6080  176.0410  136.9390 C   0  0  0  0  0  0  0  0  0  0  0  0
  186.9850  174.8540  137.2320 N   0  0  0  0  0  0  0  0  0  0  0  0
  187.8570  171.6920  136.1540 N   0  0  0  0  0  0  0  0  0  0  0  0
  189.8550  171.8950  134.7200 C   0  0  0  0  0  1  0  0  0  0  0  0
  187.0300  172.4590  136.8670 N   0  0  0  0  0  0  0  0  0  0  0  0
  188.5810  173.6990  135.9040 C   0  0  0  0  0  0  0  0  0  0  0  0
  189.2620  174.8620  135.5660 C   0  0  0  0  0  3  0  0  0  0  0  0
  188.7540  176.0600  136.1040 C   0  0  0  0  0  3  0  0  0  0  0  0
  1  8  1  0  0  0  0
  2 24  1  6  0  0  0
  2  5  1  0  0  0  0
  2  7  1  0  0  0  0
  3  1  1  1  0  0  0
  4  8  1  0  0  0  0
  7 13  1  0  0  0  0
  8 15  1  1  0  0  0
  9 11  1  6  0  0  0
  9  4  1  0  0  0  0
 10  7  2  0  0  0  0
 12  5  1  6  0  0  0
 12  9  1  0  0  0  0
 12  3  1  0  0  0  0
 13  3  1  0  0  0  0
 13  6  1  1  0  0  0
 15 14  1  6  0  0  0
 15 16  1  0  0  0  0
 16 17  1  0  0  0  0
 19 17  1  1  0  0  0
 19 23  1  0  0  0  0
 20 22  1  6  0  0  0
 20 18  1  0  0  0  0
 21 19  1  0  0  0  0
 21 20  1  0  0  0  0
 23 18  1  0  0  0  0
 25 32  1  0  0  0  0
 25 29  1  0  0  0  0
 26 31  1  0  0  0  0
 26 28  1  0  0  0  0
 27 28  2  0  0  0  0
 27 24  1  0  0  0  0
 29 31  2  0  0  0  0
 30 25  1  0  0  0  0
 32 26  2  0  0  0  0
 33 32  1  0  0  0  0
 33 34  2  0  0  0  0
 34 27  1  0  0  0  0
M  END
>  <MODEL>
6

>  <REMARK>
 VINA RESULT:      -8.5      3.218      4.155
  Name = 
  6 active torsions:
  status: ('A' for Active; 'I' for Inactive)
    1  A    between atoms: C_3  and  C_13
    2  A    between atoms: C_3  and  C_14
    3  A    between atoms: C_6  and  O_21
    4  A    between atoms: C_7  and  O_21
    5  A    between atoms: C_8  and  C_13
    6  A    between atoms: C_8  and  C_27
                            x       y       z     vdW  Elec       q    Type
                         _______ _______ _______ _____ _____    ______ ____

>  <TORSDO>
F 6

$$$$
=
 OpenBabel10232409583D

 34 38  0  0  1  0  0  0  0  0999 V2000
  190.8490  176.6420  141.2320 O   0  0  0  0  0  0  0  0  0  0  0  0
  188.4870  177.0040  137.8880 C   0  0  2  0  0  3  0  0  0  0  0  0
  190.4330  177.2040  140.0110 C   0  0  2  0  0  3  0  0  0  0  0  0
  189.2850  177.9970  142.4780 C   0  0  0  0  0  2  0  0  0  0  0  0
  188.5440  178.0580  138.8180 O   0  0  0  0  0  0  0  0  0  0  0  0
  192.1640  176.5380  138.4340 N   0  0  0  0  0  1  0  0  0  0  0  0
  189.8550  176.3940  137.6810 C   0  0  0  0  0  0  0  0  0  0  0  0
  190.7590  177.6640  142.1960 C   0  0  1  0  0  3  0  0  0  0  0  0
  188.6170  178.4590  141.1860 C   0  0  2  0  0  3  0  0  0  0  0  0
  190.1460  175.8890  136.6070 O   0  0  0  0  0  0  0  0  0  0  0  0
  187.1200  178.5620  141.4020 C   0  0  0  0  0  1  0  0  0  0  0  0
  188.9210  177.4880  140.0440 C   0  0  2  0  0  3  0  0  0  0  0  0
  190.7990  176.2660  138.8540 C   0  0  2  0  0  3  0  0  0  0  0  0
  191.3750  175.7780  143.7660 C   0  0  0  0  0  1  0  0  0  0  0  0
  191.5230  177.2620  143.4590 C   0  0  2  0  0  3  0  0  0  0  0  0
  191.0860  178.1090  144.6450 C   0  0  0  0  0  2  0  0  0  0  0  0
  190.4040  177.2460  145.6910 C   0  0  0  0  0  2  0  0  0  0  0  0
  187.8710  177.8720  148.0800 C   0  0  0  0  0  2  0  0  0  0  0  0
  189.3100  178.0340  146.3880 C   0  0  1  0  0  3  0  0  0  0  0  0
  187.0160  177.6640  146.8520 C   0  0  2  0  0  3  0  0  0  0  0  0
  187.9850  177.7690  145.7130 C   0  0  0  0  0  2  0  0  0  0  0  0
  185.9820  178.7660  146.7570 C   0  0  0  0  0  1  0  0  0  0  0  0
  189.2100  177.6430  147.7320 O   0  0  0  0  0  0  0  0  0  0  0  0
  187.9660  177.4840  136.6530 O   0  0  0  0  0  0  0  0  0  0  0  0
  182.6920  176.7800  135.5070 N   0  0  0  0  0  0  0  0  0  0  0  0
  184.3940  176.8660  136.8370 C   0  0  0  0  0  0  0  0  0  0  0  0
  186.6270  177.3150  136.2920 C   0  0  0  0  0  0  0  0  0  0  0  0
  185.6790  177.0190  137.2380 N   0  0  0  0  0  0  0  0  0  0  0  0
  182.2950  176.5330  136.7520 N   0  0  0  0  0  0  0  0  0  0  0  0
  181.8190  176.8050  134.3460 C   0  0  0  0  0  1  0  0  0  0  0  0
  183.3240  176.5780  137.6010 N   0  0  0  0  0  0  0  0  0  0  0  0
  184.0120  176.9920  135.5450 C   0  0  0  0  0  0  0  0  0  0  0  0
  184.9180  177.2880  134.5340 C   0  0  0  0  0  3  0  0  0  0  0  0
  186.2600  177.4530  134.9300 C   0  0  0  0  0  3  0  0  0  0  0  0
  1  8  1  0  0  0  0
  2 24  1  6  0  0  0
  2  5  1  0  0  0  0
  3 12  1  0  0  0  0
  3  1  1  1  0  0  0
  7  2  1  0  0  0  0
  7 13  1  0  0  0  0
  8  4  1  0  0  0  0
  8 15  1  1  0  0  0
  9 11  1  1  0  0  0
  9  4  1  0  0  0  0
 10  7  2  0  0  0  0
 12  5  1  6  0  0  0
 12  9  1  0  0  0  0
 13  6  1  6  0  0  0
 13  3  1  0  0  0  0
 15 14  1  1  0  0  0
 15 16  1  0  0  0  0
 16 17  1  0  0  0  0
 19 17  1  6  0  0  0
 19 23  1  0  0  0  0
 20 22  1  6  0  0  0
 20 18  1  0  0  0  0
 21 19  1  0  0  0  0
 21 20  1  0  0  0  0
 23 18  1  0  0  0  0
 25 32  1  0  0  0  0
 25 29  1  0  0  0  0
 26 28  1  0  0  0  0
 26 31  1  0  0  0  0
 27 24  1  0  0  0  0
 27 28  2  0  0  0  0
 29 31  2  0  0  0  0
 30 25  1  0  0  0  0
 32 26  2  0  0  0  0
 33 34  2  0  0  0  0
 33 32  1  0  0  0  0
 34 27  1  0  0  0  0
M  END
>  <MODEL>
7

>  <REMARK>
 VINA RESULT:      -8.3      3.499      6.579
  Name = 
  6 active torsions:
  status: ('A' for Active; 'I' for Inactive)
    1  A    between atoms: C_3  and  C_13
    2  A    between atoms: C_3  and  C_14
    3  A    between atoms: C_6  and  O_21
    4  A    between atoms: C_7  and  O_21
    5  A    between atoms: C_8  and  C_13
    6  A    between atoms: C_8  and  C_27
                            x       y       z     vdW  Elec       q    Type
                         _______ _______ _______ _____ _____    ______ ____

>  <TORSDO>
F 6

$$$$
=
 OpenBabel10232409583D

 34 38  0  0  1  0  0  0  0  0999 V2000
  182.9600  178.4330  141.5920 O   0  0  0  0  0  0  0  0  0  0  0  0
  185.6790  178.3480  144.6730 C   0  0  2  0  0  3  0  0  0  0  0  0
  183.7490  178.9790  142.6200 C   0  0  2  0  0  3  0  0  0  0  0  0
  184.7700  178.6020  140.0040 C   0  0  0  0  0  2  0  0  0  0  0  0
  185.9670  179.0830  143.5080 O   0  0  0  0  0  0  0  0  0  0  0  0
  182.1440  179.5500  144.3590 N   0  0  0  0  0  1  0  0  0  0  0  0
  184.2260  178.5070  145.0630 C   0  0  0  0  0  0  0  0  0  0  0  0
  183.3590  179.0640  140.3990 C   0  0  1  0  0  3  0  0  0  0  0  0
  185.7490  178.9600  141.1180 C   0  0  2  0  0  3  0  0  0  0  0  0
  183.8950  178.4360  146.2370 O   0  0  0  0  0  0  0  0  0  0  0  0
  187.0870  178.3030  140.8440 C   0  0  0  0  0  1  0  0  0  0  0  0
  185.2080  178.5100  142.4760 C   0  0  2  0  0  3  0  0  0  0  0  0
  183.1700  178.5890  143.9850 C   0  0  2  0  0  3  0  0  0  0  0  0
  182.9600  178.1980  138.0550 C   0  0  0  0  0  1  0  0  0  0  0  0
  182.3270  178.8080  139.2990 C   0  0  2  0  0  3  0  0  0  0  0  0
  181.5770  180.0860  138.9560 C   0  0  0  0  0  2  0  0  0  0  0  0
  181.3400  180.1770  137.4590 C   0  0  0  0  0  2  0  0  0  0  0  0
  180.5900  183.1300  135.6600 C   0  0  0  0  0  2  0  0  0  0  0  0
  180.5870  181.4520  137.1250 C   0  0  1  0  0  3  0  0  0  0  0  0
  181.1760  183.7370  136.9130 C   0  0  2  0  0  3  0  0  0  0  0  0
  181.1770  182.6070  137.8980 C   0  0  0  0  0  2  0  0  0  0  0  0
  180.2800  184.8550  137.4060 C   0  0  0  0  0  1  0  0  0  0  0  0
  180.6930  181.7340  135.7550 O   0  0  0  0  0  0  0  0  0  0  0  0
  186.5270  178.7780  145.7310 O   0  0  0  0  0  0  0  0  0  0  0  0
  191.3540  176.3950  146.5360 N   0  0  0  0  0  0  0  0  0  0  0  0
  189.8240  177.3170  145.3180 C   0  0  0  0  0  0  0  0  0  0  0  0
  187.7500  178.1620  146.0060 C   0  0  0  0  0  0  0  0  0  0  0  0
  188.6510  177.9170  145.0010 N   0  0  0  0  0  0  0  0  0  0  0  0
  191.7560  176.4290  145.2680 N   0  0  0  0  0  0  0  0  0  0  0  0
  192.1240  175.8450  147.6380 C   0  0  0  0  0  1  0  0  0  0  0  0
  190.8320  176.9930  144.4880 N   0  0  0  0  0  0  0  0  0  0  0  0
  190.1380  176.9510  146.5820 C   0  0  0  0  0  0  0  0  0  0  0  0
  189.2730  177.1670  147.6490 C   0  0  0  0  0  3  0  0  0  0  0  0
  188.0480  177.7890  147.3410 C   0  0  0  0  0  3  0  0  0  0  0  0
  2  7  1  0  0  0  0
  2 24  1  1  0  0  0
  3  1  1  6  0  0  0
  3 13  1  0  0  0  0
  4  8  1  0  0  0  0
  4  9  1  0  0  0  0
  5  2  1  0  0  0  0
  7 10  2  0  0  0  0
  8 15  1  6  0  0  0
  8  1  1  0  0  0  0
  9 11  1  6  0  0  0
  9 12  1  0  0  0  0
 12  3  1  0  0  0  0
 12  5  1  1  0  0  0
 13  6  1  1  0  0  0
 13  7  1  0  0  0  0
 15 14  1  6  0  0  0
 16 15  1  0  0  0  0
 17 16  1  0  0  0  0
 18 23  1  0  0  0  0
 18 20  1  0  0  0  0
 19 17  1  6  0  0  0
 19 21  1  0  0  0  0
 20 22  1  1  0  0  0
 20 21  1  0  0  0  0
 23 19  1  0  0  0  0
 24 27  1  0  0  0  0
 25 32  1  0  0  0  0
 25 30  1  0  0  0  0
 26 32  2  0  0  0  0
 27 34  1  0  0  0  0
 28 26  1  0  0  0  0
 28 27  2  0  0  0  0
 29 25  1  0  0  0  0
 31 29  2  0  0  0  0
 31 26  1  0  0  0  0
 32 33  1  0  0  0  0
 34 33  2  0  0  0  0
M  END
>  <MODEL>
8

>  <REMARK>
 VINA RESULT:      -8.2      4.900      8.345
  Name = 
  6 active torsions:
  status: ('A' for Active; 'I' for Inactive)
    1  A    between atoms: C_3  and  C_13
    2  A    between atoms: C_3  and  C_14
    3  A    between atoms: C_6  and  O_21
    4  A    between atoms: C_7  and  O_21
    5  A    between atoms: C_8  and  C_13
    6  A    between atoms: C_8  and  C_27
                            x       y       z     vdW  Elec       q    Type
                         _______ _______ _______ _____ _____    ______ ____

>  <TORSDO>
F 6

$$$$
=
 OpenBabel10232409583D

 34 38  0  0  1  0  0  0  0  0999 V2000
  189.3870  178.0840  142.0210 O   0  0  0  0  0  0  0  0  0  0  0  0
  186.9470  178.4410  138.7330 C   0  0  2  0  0  3  0  0  0  0  0  0
  188.3590  177.7020  141.1400 C   0  0  2  0  0  3  0  0  0  0  0  0
  191.0640  177.0110  140.6550 C   0  0  0  0  0  2  0  0  0  0  0  0
  187.8180  177.3410  138.8390 O   0  0  0  0  0  0  0  0  0  0  0  0
  186.3190  178.0890  142.4100 N   0  0  0  0  0  1  0  0  0  0  0  0
  186.3210  178.7630  140.0720 C   0  0  0  0  0  0  0  0  0  0  0  0
  190.3360  177.0440  142.0070 C   0  0  1  0  0  3  0  0  0  0  0  0
  190.0470  176.7820  139.5400 C   0  0  2  0  0  3  0  0  0  0  0  0
  185.2080  179.2630  140.1250 O   0  0  0  0  0  0  0  0  0  0  0  0
  190.7190  176.9830  138.1960 C   0  0  0  0  0  1  0  0  0  0  0  0
  188.8630  177.7390  139.6870 C   0  0  2  0  0  3  0  0  0  0  0  0
  187.1420  178.6140  141.3320 C   0  0  2  0  0  3  0  0  0  0  0  0
  191.6580  175.8500  143.8050 C   0  0  0  0  0  1  0  0  0  0  0  0
  191.2970  177.1950  143.1880 C   0  0  2  0  0  3  0  0  0  0  0  0
  190.7200  178.1350  144.2360 C   0  0  0  0  0  2  0  0  0  0  0  0
  190.4770  177.3940  145.5380 C   0  0  0  0  0  2  0  0  0  0  0  0
  187.7590  177.5160  147.8010 C   0  0  0  0  0  2  0  0  0  0  0  0
  189.3140  178.0200  146.2870 C   0  0  1  0  0  3  0  0  0  0  0  0
  187.0030  177.5390  146.4930 C   0  0  2  0  0  3  0  0  0  0  0  0
  188.0490  177.8740  145.4740 C   0  0  0  0  0  2  0  0  0  0  0  0
  185.9490  178.6260  146.5320 C   0  0  0  0  0  1  0  0  0  0  0  0
  189.1260  177.3750  147.5190 O   0  0  0  0  0  0  0  0  0  0  0  0
  185.9380  178.1610  137.7690 O   0  0  0  0  0  0  0  0  0  0  0  0
  184.3230  173.0600  136.7730 N   0  0  0  0  0  0  0  0  0  0  0  0
  185.7500  174.6830  136.7460 C   0  0  0  0  0  0  0  0  0  0  0  0
  185.4620  176.8680  137.5410 C   0  0  0  0  0  0  0  0  0  0  0  0
  186.2580  175.9230  136.9440 N   0  0  0  0  0  0  0  0  0  0  0  0
  185.4580  172.6450  136.2160 N   0  0  0  0  0  0  0  0  0  0  0  0
  183.1390  172.2380  136.9590 C   0  0  0  0  0  1  0  0  0  0  0  0
  186.3620  173.6250  136.1840 N   0  0  0  0  0  0  0  0  0  0  0  0
  184.4930  174.3430  137.1110 C   0  0  0  0  0  0  0  0  0  0  0  0
  183.6310  175.2480  137.7190 C   0  0  0  0  0  3  0  0  0  0  0  0
  184.1390  176.5430  137.9350 C   0  0  0  0  0  3  0  0  0  0  0  0
  2 24  1  6  0  0  0
  2  5  1  0  0  0  0
  2  7  1  0  0  0  0
  3 13  1  0  0  0  0
  3  1  1  1  0  0  0
  4  8  1  0  0  0  0
  7 10  2  0  0  0  0
  7 13  1  0  0  0  0
  8  1  1  0  0  0  0
  8 15  1  1  0  0  0
  9 11  1  6  0  0  0
  9 12  1  0  0  0  0
  9  4  1  0  0  0  0
 12  5  1  6  0  0  0
 12  3  1  0  0  0  0
 13  6  1  1  0  0  0
 15 14  1  1  0  0  0
 15 16  1  0  0  0  0
 16 17  1  0  0  0  0
 19 17  1  6  0  0  0
 19 23  1  0  0  0  0
 20 22  1  1  0  0  0
 20 18  1  0  0  0  0
 21 19  1  0  0  0  0
 21 20  1  0  0  0  0
 23 18  1  0  0  0  0
 25 30  1  0  0  0  0
 25 32  1  0  0  0  0
 26 28  1  0  0  0  0
 26 32  2  0  0  0  0
 27 24  1  0  0  0  0
 27 34  1  0  0  0  0
 28 27  2  0  0  0  0
 29 25  1  0  0  0  0
 31 29  2  0  0  0  0
 31 26  1  0  0  0  0
 32 33  1  0  0  0  0
 33 34  2  0  0  0  0
M  END
>  <MODEL>
9

>  <REMARK>
 VINA RESULT:      -8.2      3.767      5.819
  Name = 
  6 active torsions:
  status: ('A' for Active; 'I' for Inactive)
    1  A    between atoms: C_3  and  C_13
    2  A    between atoms: C_3  and  C_14
    3  A    between atoms: C_6  and  O_21
    4  A    between atoms: C_7  and  O_21
    5  A    between atoms: C_8  and  C_13
    6  A    between atoms: C_8  and  C_27
                            x       y       z     vdW  Elec       q    Type
                         _______ _______ _______ _____ _____    ______ ____

>  <TORSDO>
F 6

$$$$
