=
 OpenBabel10232408563D

 56 59  0  0  1  0  0  0  0  0999 V2000
  185.6250  176.6590  136.3550 C   0  0  0  0  0  3  0  0  0  0  0  0
  187.8340  177.4980  136.9360 C   0  0  0  0  0  0  0  0  0  0  0  0
  186.2020  175.7630  135.4490 C   0  0  0  0  0  3  0  0  0  0  0  0
  188.3880  176.6060  136.0060 C   0  0  0  0  0  3  0  0  0  0  0  0
  188.1470  174.8690  134.3480 O   0  0  0  0  0  1  0  0  0  0  0  0
  187.5810  175.7480  135.2630 C   0  0  0  0  0  0  0  0  0  0  0  0
  186.4270  177.5380  137.0960 C   0  0  0  0  0  0  0  0  0  0  0  0
  188.7250  178.4410  137.6540 C   0  0  0  0  0  0  0  0  0  0  0  0
  188.6680  179.6960  137.3710 N   0  0  0  0  0  2  0  0  0  0  0  0
  189.7920  177.9940  138.4960 N   0  0  0  0  0  2  0  0  0  0  0  0
  190.4110  176.8840  141.5240 C   0  0  2  0  0  3  0  0  0  0  0  0
  191.4910  177.8310  141.0090 C   0  0  0  0  0  2  0  0  0  0  0  0
  189.9630  176.6310  138.9980 C   0  0  2  0  0  3  0  0  0  0  0  0
  189.3940  176.5320  140.4270 C   0  0  0  0  0  2  0  0  0  0  0  0
  191.4490  176.2470  138.9870 C   0  0  2  0  0  3  0  0  0  0  0  0
  192.2820  177.1860  139.8710 C   0  0  0  0  0  2  0  0  0  0  0  0
  191.9970  176.2500  137.5800 C   0  0  0  0  0  1  0  0  0  0  0  0
  189.7450  177.4290  142.6250 O   0  0  0  0  0  0  0  0  0  0  0  0
  188.5390  176.7260  142.7410 C   0  0  0  0  0  2  0  0  0  0  0  0
  188.2620  176.4550  144.0860 O   0  0  0  0  0  0  0  0  0  0  0  0
  188.5150  177.6230  144.7270 N   0  0  0  0  0  2  0  0  0  0  0  0
  188.2120  177.4270  146.1430 C   0  0  1  0  0  3  0  0  0  0  0  0
  189.4090  178.2620  147.9950 O   0  0  0  0  0  0  0  0  0  0  0  0
  189.4380  177.5360  147.0200 C   0  0  0  0  0  0  0  0  0  0  0  0
  190.6810  176.7180  146.7780 C   0  0  1  0  0  3  0  0  0  0  0  0
  191.4820  177.1560  145.5500 C   0  0  0  0  0  2  0  0  0  0  0  0
  191.7460  176.0620  144.7240 O   0  0  0  0  0  1  0  0  0  0  0  0
  191.4910  176.7110  147.9150 O   0  0  0  0  0  0  0  0  0  0  0  0
  193.5510  175.7740  148.0900 O   0  0  0  0  0  1  0  0  0  0  0  0
  192.2040  175.5150  147.8550 C   0  0  0  0  0  2  0  0  0  0  0  0
  187.1330  178.2190  146.6080 O   0  0  0  0  0  0  0  0  0  0  0  0
  185.9420  177.8870  145.9400 C   0  0  0  0  0  3  0  0  0  0  0  0
  184.7610  178.4080  146.7440 C   0  0  0  0  0  2  0  0  0  0  0  0
  185.2040  179.1430  145.5080 C   0  0  0  0  0  2  0  0  0  0  0  0
  185.8220  178.4500  138.0290 N   0  0  0  0  0  2  0  0  0  0  0  0
  184.7160  178.0960  138.9020 C   0  0  1  0  0  3  0  0  0  0  0  0
  185.8490  179.4770  140.5070 O   0  0  0  0  0  0  0  0  0  0  0  0
  184.0130  178.3150  141.3170 N   0  0  0  0  0  1  0  0  0  0  0  0
  184.9110  178.6680  140.2740 C   0  0  0  0  0  0  0  0  0  0  0  0
  183.3930  178.5270  138.2880 C   0  0  0  0  0  2  0  0  0  0  0  0
  182.6220  177.3740  137.8410 N   0  0  0  0  0  2  0  0  0  0  0  0
  181.2150  177.7240  137.9130 C   0  0  2  0  0  3  0  0  0  0  0  0
  180.8090  177.8960  139.3670 C   0  0  0  0  0  1  0  0  0  0  0  0
  180.6020  175.4180  137.8560 C   0  0  0  0  0  2  0  0  0  0  0  0
  180.4270  176.7070  137.2150 N   0  0  0  0  0  0  0  0  0  0  0  0
  180.4220  174.4280  136.7470 C   0  0  1  0  0  3  0  0  0  0  0  0
  180.4950  175.3060  135.5250 C   0  0  0  0  0  2  0  0  0  0  0  0
  180.8720  176.5880  135.9390 O   0  0  0  0  0  0  0  0  0  0  0  0
  181.5150  173.3500  136.7550 C   0  0  2  0  0  3  0  0  0  0  0  0
  181.1000  172.2340  137.4890 O   0  0  0  0  0  1  0  0  0  0  0  0
  182.8000  173.9020  137.3550 C   0  0  0  0  0  2  0  0  0  0  0  0
  184.8950  172.8810  137.7310 O   0  0  0  0  0  0  0  0  0  0  0  0
  183.9900  173.1010  136.9370 C   0  0  0  0  0  0  0  0  0  0  0  0
  184.0550  172.5510  135.5540 C   0  0  0  0  0  2  0  0  0  0  0  0
  185.6010  170.7890  135.1400 O   0  0  0  0  0  1  0  0  0  0  0  0
  185.4790  172.1790  135.2060 C   0  0  0  0  0  2  0  0  0  0  0  0
  1  7  1  0  0  0  0
  2  7  2  0  0  0  0
  2  8  1  0  0  0  0
  3  1  2  0  0  0  0
  4  2  1  0  0  0  0
  5  6  1  0  0  0  0
  6  3  1  0  0  0  0
  6  4  2  0  0  0  0
  7 35  1  0  0  0  0
  8 10  1  0  0  0  0
  9  8  2  0  0  0  0
 11 18  1  1  0  0  0
 12 11  1  0  0  0  0
 13 10  1  1  0  0  0
 13 14  1  0  0  0  0
 14 11  1  0  0  0  0
 15 17  1  6  0  0  0
 15 13  1  0  0  0  0
 15 16  1  0  0  0  0
 16 12  1  0  0  0  0
 18 19  1  0  0  0  0
 19 20  1  0  0  0  0
 20 21  1  0  0  0  0
 22 21  1  6  0  0  0
 22 31  1  0  0  0  0
 22 24  1  0  0  0  0
 24 23  2  0  0  0  0
 25 26  1  6  0  0  0
 25 24  1  0  0  0  0
 25 28  1  0  0  0  0
 27 26  1  0  0  0  0
 30 28  1  0  0  0  0
 30 29  1  0  0  0  0
 32 31  1  0  0  0  0
 32 33  1  0  0  0  0
 34 32  1  0  0  0  0
 34 33  1  0  0  0  0
 35 36  1  0  0  0  0
 36 40  1  6  0  0  0
 36 39  1  0  0  0  0
 39 37  2  0  0  0  0
 39 38  1  0  0  0  0
 41 42  1  0  0  0  0
 41 40  1  0  0  0  0
 42 43  1  1  0  0  0
 45 44  1  0  0  0  0
 45 42  1  0  0  0  0
 46 49  1  6  0  0  0
 46 44  1  0  0  0  0
 47 48  1  0  0  0  0
 47 46  1  0  0  0  0
 48 45  1  0  0  0  0
 49 51  1  0  0  0  0
 49 50  1  1  0  0  0
 53 51  1  0  0  0  0
 53 52  2  0  0  0  0
 54 53  1  0  0  0  0
 55 56  1  0  0  0  0
 56 54  1  0  0  0  0
M  END
>  <MODEL>
1

>  <REMARK>
 VINA RESULT:      -6.3      0.000      0.000
  Name = 
  26 active torsions:
  status: ('A' for Active; 'I' for Inactive)
    1  A    between atoms: C_1  and  C_8
    2  A    between atoms: O_3  and  C_15
    3  A    between atoms: O_3  and  C_44
    4  A    between atoms: N_4  and  C_25
    5  A    between atoms: C_10  and  C_14
    6  A    between atoms: C_10  and  C_42
    7  A    between atoms: C_12  and  C_18
    8  A    between atoms: C_12  and  N_30
    9  A    between atoms: C_12  and  C_33
   10  A    between atoms: N_13  and  C_28
   11  A    between atoms: C_15  and  N_43
   12  A    between atoms: C_15  and  C_56
   13  A    between atoms: C_18  and  N_29
   14  A    between atoms: C_22  and  O_38
   15  A    between atoms: C_23  and  O_37
   16  A    between atoms: C_23  and  O_38
   17  A    between atoms: C_27  and  C_52
   18  A    between atoms: C_28  and  N_29
   19  A    between atoms: N_30  and  C_48
   20  A    between atoms: C_31  and  O_51
   21  A    between atoms: C_34  and  C_35
   22  A    between atoms: C_35  and  C_39
   23  A    between atoms: O_37  and  N_43
   24  A    between atoms: C_39  and  C_42
   25  A    between atoms: O_51  and  C_52
   26  A    between atoms: C_52  and  C_56
                            x       y       z     vdW  Elec       q    Type
                         _______ _______ _______ _____ _____    ______ ____

>  <TORSDO>
F 26

$$$$
=
 OpenBabel10232408563D

 56 59  0  0  1  0  0  0  0  0999 V2000
  189.4500  176.5110  147.0330 C   0  0  0  0  0  3  0  0  0  0  0  0
  190.7020  177.7120  145.3260 C   0  0  0  0  0  0  0  0  0  0  0  0
  190.6260  175.8830  147.4560 C   0  0  0  0  0  3  0  0  0  0  0  0
  191.8650  177.0530  145.7540 C   0  0  0  0  0  3  0  0  0  0  0  0
  192.9910  175.5020  147.2190 O   0  0  0  0  0  1  0  0  0  0  0  0
  191.8290  176.1420  146.8070 C   0  0  0  0  0  0  0  0  0  0  0  0
  189.4710  177.4170  145.9640 C   0  0  0  0  0  0  0  0  0  0  0  0
  190.7730  178.6210  144.1580 C   0  0  0  0  0  0  0  0  0  0  0  0
  190.6640  179.8900  144.3440 N   0  0  0  0  0  2  0  0  0  0  0  0
  190.7460  178.1390  142.8100 N   0  0  0  0  0  2  0  0  0  0  0  0
  191.5060  176.8500  139.8870 C   0  0  2  0  0  3  0  0  0  0  0  0
  190.2060  177.6510  139.8620 C   0  0  0  0  0  2  0  0  0  0  0  0
  190.9480  176.7500  142.4020 C   0  0  2  0  0  3  0  0  0  0  0  0
  192.0410  176.6850  141.3180 C   0  0  0  0  0  2  0  0  0  0  0  0
  189.6350  176.1590  141.8730 C   0  0  2  0  0  3  0  0  0  0  0  0
  189.1130  176.9390  140.6580 C   0  0  0  0  0  2  0  0  0  0  0  0
  188.5810  176.1300  142.9530 C   0  0  0  0  0  1  0  0  0  0  0  0
  192.4810  177.4470  139.0850 O   0  0  0  0  0  0  0  0  0  0  0  0
  193.0550  176.4160  138.3330 C   0  0  0  0  0  2  0  0  0  0  0  0
  192.5080  176.3900  137.0450 O   0  0  0  0  0  0  0  0  0  0  0  0
  191.4350  175.5670  137.1480 N   0  0  0  0  0  2  0  0  0  0  0  0
  190.4080  176.0590  136.2320 C   0  0  1  0  0  3  0  0  0  0  0  0
  190.5220  174.6490  134.3460 O   0  0  0  0  0  0  0  0  0  0  0  0
  189.8750  174.9770  135.3220 C   0  0  0  0  0  0  0  0  0  0  0  0
  188.6010  174.2270  135.6170 C   0  0  1  0  0  3  0  0  0  0  0  0
  188.6000  172.7830  135.1070 C   0  0  0  0  0  2  0  0  0  0  0  0
  187.4570  172.5350  134.3460 O   0  0  0  0  0  1  0  0  0  0  0  0
  188.3170  174.2640  136.9830 O   0  0  0  0  0  0  0  0  0  0  0  0
  186.5390  175.2970  136.0240 O   0  0  0  0  0  1  0  0  0  0  0  0
  186.9420  174.4720  137.0700 C   0  0  0  0  0  2  0  0  0  0  0  0
  189.3790  176.7920  136.8740 O   0  0  0  0  0  0  0  0  0  0  0  0
  189.0780  177.9650  136.1600 C   0  0  0  0  0  3  0  0  0  0  0  0
  187.7250  178.4900  136.6180 C   0  0  0  0  0  2  0  0  0  0  0  0
  188.9870  179.1540  137.1010 C   0  0  0  0  0  2  0  0  0  0  0  0
  188.2570  178.0600  145.5420 N   0  0  0  0  0  2  0  0  0  0  0  0
  186.9380  177.6950  146.0310 C   0  0  1  0  0  3  0  0  0  0  0  0
  187.0410  178.4800  148.2980 O   0  0  0  0  0  0  0  0  0  0  0  0
  185.5310  179.5880  146.9320 N   0  0  0  0  0  1  0  0  0  0  0  0
  186.5160  178.5890  147.1580 C   0  0  0  0  0  0  0  0  0  0  0  0
  185.9280  177.6970  144.8940 C   0  0  0  0  0  2  0  0  0  0  0  0
  186.3650  178.5630  143.8060 N   0  0  0  0  0  2  0  0  0  0  0  0
  185.1920  179.2310  143.2710 C   0  0  2  0  0  3  0  0  0  0  0  0
  183.9590  178.3830  143.5390 C   0  0  0  0  0  1  0  0  0  0  0  0
  184.1370  179.4310  141.1390 C   0  0  0  0  0  2  0  0  0  0  0  0
  185.3990  179.5040  141.8480 N   0  0  0  0  0  0  0  0  0  0  0  0
  184.5160  178.9910  139.7580 C   0  0  1  0  0  3  0  0  0  0  0  0
  185.9420  178.5440  139.9490 C   0  0  0  0  0  2  0  0  0  0  0  0
  186.2160  178.5590  141.3200 O   0  0  0  0  0  0  0  0  0  0  0  0
  183.6140  177.8590  139.2470 C   0  0  2  0  0  3  0  0  0  0  0  0
  183.3040  176.9710  140.2820 O   0  0  0  0  0  1  0  0  0  0  0  0
  184.3010  177.1020  138.1190 C   0  0  0  0  0  2  0  0  0  0  0  0
  182.7920  177.0390  136.3040 O   0  0  0  0  0  0  0  0  0  0  0  0
  183.3110  176.4260  137.2280 C   0  0  0  0  0  0  0  0  0  0  0  0
  182.9790  174.9910  137.4560 C   0  0  0  0  0  2  0  0  0  0  0  0
  183.7300  173.4260  135.8280 O   0  0  0  0  0  1  0  0  0  0  0  0
  182.6900  174.3060  136.1390 C   0  0  0  0  0  2  0  0  0  0  0  0
  1  3  1  0  0  0  0
  2  4  2  0  0  0  0
  2  7  1  0  0  0  0
  4  6  1  0  0  0  0
  6  5  1  0  0  0  0
  6  3  2  0  0  0  0
  7  1  2  0  0  0  0
  8  9  2  0  0  0  0
  8  2  1  0  0  0  0
 10  8  1  0  0  0  0
 11 18  1  6  0  0  0
 11 14  1  0  0  0  0
 12 11  1  0  0  0  0
 12 16  1  0  0  0  0
 13 10  1  6  0  0  0
 14 13  1  0  0  0  0
 15 13  1  0  0  0  0
 15 17  1  1  0  0  0
 16 15  1  0  0  0  0
 19 18  1  0  0  0  0
 20 21  1  0  0  0  0
 20 19  1  0  0  0  0
 22 24  1  1  0  0  0
 22 31  1  0  0  0  0
 22 21  1  0  0  0  0
 23 24  2  0  0  0  0
 24 25  1  0  0  0  0
 25 26  1  1  0  0  0
 25 28  1  0  0  0  0
 27 26  1  0  0  0  0
 28 30  1  0  0  0  0
 29 30  1  0  0  0  0
 32 33  1  0  0  0  0
 32 31  1  0  0  0  0
 32 34  1  0  0  0  0
 33 34  1  0  0  0  0
 35  7  1  0  0  0  0
 35 36  1  0  0  0  0
 36 40  1  6  0  0  0
 36 39  1  0  0  0  0
 38 39  1  0  0  0  0
 39 37  2  0  0  0  0
 41 40  1  0  0  0  0
 42 43  1  6  0  0  0
 42 41  1  0  0  0  0
 44 45  1  0  0  0  0
 45 42  1  0  0  0  0
 46 49  1  1  0  0  0
 46 47  1  0  0  0  0
 46 44  1  0  0  0  0
 47 48  1  0  0  0  0
 48 45  1  0  0  0  0
 49 50  1  1  0  0  0
 51 49  1  0  0  0  0
 52 53  2  0  0  0  0
 53 54  1  0  0  0  0
 53 51  1  0  0  0  0
 55 56  1  0  0  0  0
 56 54  1  0  0  0  0
M  END
>  <MODEL>
2

>  <REMARK>
 VINA RESULT:      -5.5      2.418      8.352
  Name = 
  26 active torsions:
  status: ('A' for Active; 'I' for Inactive)
    1  A    between atoms: C_1  and  C_8
    2  A    between atoms: O_3  and  C_15
    3  A    between atoms: O_3  and  C_44
    4  A    between atoms: N_4  and  C_25
    5  A    between atoms: C_10  and  C_14
    6  A    between atoms: C_10  and  C_42
    7  A    between atoms: C_12  and  C_18
    8  A    between atoms: C_12  and  N_30
    9  A    between atoms: C_12  and  C_33
   10  A    between atoms: N_13  and  C_28
   11  A    between atoms: C_15  and  N_43
   12  A    between atoms: C_15  and  C_56
   13  A    between atoms: C_18  and  N_29
   14  A    between atoms: C_22  and  O_38
   15  A    between atoms: C_23  and  O_37
   16  A    between atoms: C_23  and  O_38
   17  A    between atoms: C_27  and  C_52
   18  A    between atoms: C_28  and  N_29
   19  A    between atoms: N_30  and  C_48
   20  A    between atoms: C_31  and  O_51
   21  A    between atoms: C_34  and  C_35
   22  A    between atoms: C_35  and  C_39
   23  A    between atoms: O_37  and  N_43
   24  A    between atoms: C_39  and  C_42
   25  A    between atoms: O_51  and  C_52
   26  A    between atoms: C_52  and  C_56
                            x       y       z     vdW  Elec       q    Type
                         _______ _______ _______ _____ _____    ______ ____

>  <TORSDO>
F 26

$$$$
=
 OpenBabel10232408563D

 56 59  0  0  1  0  0  0  0  0999 V2000
  185.3570  176.8140  136.9090 C   0  0  0  0  0  3  0  0  0  0  0  0
  187.6960  177.4830  136.9610 C   0  0  0  0  0  0  0  0  0  0  0  0
  185.6520  175.8510  135.9390 C   0  0  0  0  0  3  0  0  0  0  0  0
  187.9640  176.5250  135.9710 C   0  0  0  0  0  3  0  0  0  0  0  0
  187.2360  174.7730  134.4800 O   0  0  0  0  0  1  0  0  0  0  0  0
  186.9510  175.7190  135.4580 C   0  0  0  0  0  0  0  0  0  0  0  0
  186.3650  177.6430  137.4200 C   0  0  0  0  0  0  0  0  0  0  0  0
  188.7900  178.3670  137.4280 C   0  0  0  0  0  0  0  0  0  0  0  0
  188.9470  179.5180  136.8720 N   0  0  0  0  0  2  0  0  0  0  0  0
  189.8110  177.9140  138.3230 N   0  0  0  0  0  2  0  0  0  0  0  0
  191.0660  177.2080  141.2740 C   0  0  2  0  0  3  0  0  0  0  0  0
  192.1300  177.6250  140.2630 C   0  0  0  0  0  2  0  0  0  0  0  0
  189.7610  176.6840  139.1130 C   0  0  2  0  0  3  0  0  0  0  0  0
  189.6900  177.0370  140.6120 C   0  0  0  0  0  2  0  0  0  0  0  0
  190.9970  175.8220  138.8250 C   0  0  2  0  0  3  0  0  0  0  0  0
  192.2960  176.5610  139.1780 C   0  0  0  0  0  2  0  0  0  0  0  0
  191.0310  175.3920  137.3790 C   0  0  0  0  0  1  0  0  0  0  0  0
  190.9740  178.1300  142.3190 O   0  0  0  0  0  0  0  0  0  0  0  0
  189.6690  178.0330  142.8150 C   0  0  0  0  0  2  0  0  0  0  0  0
  189.6490  177.2690  143.9880 O   0  0  0  0  0  0  0  0  0  0  0  0
  189.3400  178.1570  144.9650 N   0  0  0  0  0  2  0  0  0  0  0  0
  188.3190  177.5460  145.8140 C   0  0  1  0  0  3  0  0  0  0  0  0
  188.3780  175.8630  147.4650 O   0  0  0  0  0  0  0  0  0  0  0  0
  188.9060  176.8690  147.0320 C   0  0  0  0  0  0  0  0  0  0  0  0
  190.1730  177.3480  147.6920 C   0  0  1  0  0  3  0  0  0  0  0  0
  189.9400  178.1270  148.9890 C   0  0  0  0  0  2  0  0  0  0  0  0
  188.5860  178.4330  149.1370 O   0  0  0  0  0  1  0  0  0  0  0  0
  191.0450  176.2800  147.9110 O   0  0  0  0  0  0  0  0  0  0  0  0
  191.8680  177.5440  146.2160 O   0  0  0  0  0  1  0  0  0  0  0  0
  191.9360  176.3020  146.8400 C   0  0  0  0  0  2  0  0  0  0  0  0
  187.2490  178.4180  146.1330 O   0  0  0  0  0  0  0  0  0  0  0  0
  186.0120  177.8330  145.8120 C   0  0  0  0  0  3  0  0  0  0  0  0
  184.9250  178.4800  146.6570 C   0  0  0  0  0  2  0  0  0  0  0  0
  185.0750  178.8650  145.2090 C   0  0  0  0  0  2  0  0  0  0  0  0
  186.0500  178.6240  138.4220 N   0  0  0  0  0  2  0  0  0  0  0  0
  184.9620  178.4830  139.3760 C   0  0  1  0  0  3  0  0  0  0  0  0
  186.6700  178.8850  141.0160 O   0  0  0  0  0  0  0  0  0  0  0  0
  184.5670  178.4060  141.8690 N   0  0  0  0  0  1  0  0  0  0  0  0
  185.4650  178.5980  140.7850 C   0  0  0  0  0  0  0  0  0  0  0  0
  183.8610  179.4890  139.0810 C   0  0  0  0  0  2  0  0  0  0  0  0
  182.9430  178.9810  138.0700 N   0  0  0  0  0  2  0  0  0  0  0  0
  181.6070  179.4350  138.4120 C   0  0  2  0  0  3  0  0  0  0  0  0
  181.5470  179.7600  139.8960 C   0  0  0  0  0  1  0  0  0  0  0  0
  180.7710  177.2410  138.8440 C   0  0  0  0  0  2  0  0  0  0  0  0
  180.6330  178.4180  138.0100 N   0  0  0  0  0  0  0  0  0  0  0  0
  180.3410  176.1110  137.9600 C   0  0  1  0  0  3  0  0  0  0  0  0
  180.3240  176.7630  136.6010 C   0  0  0  0  0  2  0  0  0  0  0  0
  180.8780  178.0400  136.7310 O   0  0  0  0  0  0  0  0  0  0  0  0
  181.3140  174.9260  138.0250 C   0  0  2  0  0  3  0  0  0  0  0  0
  182.5600  175.3380  138.5090 O   0  0  0  0  0  1  0  0  0  0  0  0
  181.4870  174.3040  136.6470 C   0  0  0  0  0  2  0  0  0  0  0  0
  180.5330  172.3680  137.6020 O   0  0  0  0  0  0  0  0  0  0  0  0
  180.8790  172.9410  136.5780 C   0  0  0  0  0  0  0  0  0  0  0  0
  180.6740  172.2960  135.2510 C   0  0  0  0  0  2  0  0  0  0  0  0
  180.9340  169.9420  135.4850 O   0  0  0  0  0  1  0  0  0  0  0  0
  179.9820  170.9620  135.4210 C   0  0  0  0  0  2  0  0  0  0  0  0
  1  7  1  0  0  0  0
  2  7  2  0  0  0  0
  2  8  1  0  0  0  0
  3  1  2  0  0  0  0
  4  2  1  0  0  0  0
  5  6  1  0  0  0  0
  6  3  1  0  0  0  0
  6  4  2  0  0  0  0
  7 35  1  0  0  0  0
  8 10  1  0  0  0  0
  9  8  2  0  0  0  0
 11 18  1  1  0  0  0
 12 11  1  0  0  0  0
 13 10  1  6  0  0  0
 13 14  1  0  0  0  0
 14 11  1  0  0  0  0
 15 17  1  6  0  0  0
 15 13  1  0  0  0  0
 15 16  1  0  0  0  0
 16 12  1  0  0  0  0
 18 19  1  0  0  0  0
 19 20  1  0  0  0  0
 20 21  1  0  0  0  0
 22 21  1  1  0  0  0
 22 31  1  0  0  0  0
 22 24  1  0  0  0  0
 24 23  2  0  0  0  0
 24 25  1  0  0  0  0
 25 28  1  0  0  0  0
 25 26  1  1  0  0  0
 26 27  1  0  0  0  0
 29 30  1  0  0  0  0
 30 28  1  0  0  0  0
 32 31  1  0  0  0  0
 32 33  1  0  0  0  0
 34 32  1  0  0  0  0
 34 33  1  0  0  0  0
 35 36  1  0  0  0  0
 36 40  1  6  0  0  0
 36 39  1  0  0  0  0
 39 37  2  0  0  0  0
 39 38  1  0  0  0  0
 41 42  1  0  0  0  0
 41 40  1  0  0  0  0
 42 43  1  1  0  0  0
 45 42  1  0  0  0  0
 45 44  1  0  0  0  0
 46 49  1  6  0  0  0
 46 44  1  0  0  0  0
 47 48  1  0  0  0  0
 47 46  1  0  0  0  0
 48 45  1  0  0  0  0
 49 50  1  6  0  0  0
 51 49  1  0  0  0  0
 53 51  1  0  0  0  0
 53 52  2  0  0  0  0
 54 56  1  0  0  0  0
 54 53  1  0  0  0  0
 56 55  1  0  0  0  0
M  END
>  <MODEL>
3

>  <REMARK>
 VINA RESULT:      -5.3      1.490      2.055
  Name = 
  26 active torsions:
  status: ('A' for Active; 'I' for Inactive)
    1  A    between atoms: C_1  and  C_8
    2  A    between atoms: O_3  and  C_15
    3  A    between atoms: O_3  and  C_44
    4  A    between atoms: N_4  and  C_25
    5  A    between atoms: C_10  and  C_14
    6  A    between atoms: C_10  and  C_42
    7  A    between atoms: C_12  and  C_18
    8  A    between atoms: C_12  and  N_30
    9  A    between atoms: C_12  and  C_33
   10  A    between atoms: N_13  and  C_28
   11  A    between atoms: C_15  and  N_43
   12  A    between atoms: C_15  and  C_56
   13  A    between atoms: C_18  and  N_29
   14  A    between atoms: C_22  and  O_38
   15  A    between atoms: C_23  and  O_37
   16  A    between atoms: C_23  and  O_38
   17  A    between atoms: C_27  and  C_52
   18  A    between atoms: C_28  and  N_29
   19  A    between atoms: N_30  and  C_48
   20  A    between atoms: C_31  and  O_51
   21  A    between atoms: C_34  and  C_35
   22  A    between atoms: C_35  and  C_39
   23  A    between atoms: O_37  and  N_43
   24  A    between atoms: C_39  and  C_42
   25  A    between atoms: O_51  and  C_52
   26  A    between atoms: C_52  and  C_56
                            x       y       z     vdW  Elec       q    Type
                         _______ _______ _______ _____ _____    ______ ____

>  <TORSDO>
F 26

$$$$
=
 OpenBabel10232408563D

 56 59  0  0  1  0  0  0  0  0999 V2000
  189.4490  176.5050  147.0550 C   0  0  0  0  0  3  0  0  0  0  0  0
  190.6840  177.7140  145.3430 C   0  0  0  0  0  0  0  0  0  0  0  0
  190.6050  175.7920  147.3880 C   0  0  0  0  0  3  0  0  0  0  0  0
  191.8260  176.9710  145.6800 C   0  0  0  0  0  3  0  0  0  0  0  0
  192.9300  175.2890  147.0120 O   0  0  0  0  0  1  0  0  0  0  0  0
  191.7880  176.0130  146.6900 C   0  0  0  0  0  0  0  0  0  0  0  0
  189.4710  177.4590  146.0290 C   0  0  0  0  0  0  0  0  0  0  0  0
  190.7520  178.6740  144.2150 C   0  0  0  0  0  0  0  0  0  0  0  0
  190.7600  179.9370  144.4670 N   0  0  0  0  0  2  0  0  0  0  0  0
  190.5950  178.2660  142.8530 N   0  0  0  0  0  2  0  0  0  0  0  0
  191.1080  177.0720  139.8360 C   0  0  2  0  0  3  0  0  0  0  0  0
  189.8850  177.9830  139.9130 C   0  0  0  0  0  2  0  0  0  0  0  0
  190.6550  176.8880  142.3680 C   0  0  2  0  0  3  0  0  0  0  0  0
  191.6890  176.7860  141.2300 C   0  0  0  0  0  2  0  0  0  0  0  0
  189.2730  176.4410  141.8750 C   0  0  2  0  0  3  0  0  0  0  0  0
  188.7690  177.3270  140.7260 C   0  0  0  0  0  2  0  0  0  0  0  0
  188.2680  176.4480  143.0020 C   0  0  0  0  0  1  0  0  0  0  0  0
  192.0970  177.6240  139.0180 O   0  0  0  0  0  0  0  0  0  0  0  0
  193.2080  176.7780  139.1220 C   0  0  0  0  0  2  0  0  0  0  0  0
  193.5000  176.2040  137.8790 O   0  0  0  0  0  0  0  0  0  0  0  0
  194.5330  175.3620  138.1290 N   0  0  0  0  0  2  0  0  0  0  0  0
  195.0220  174.8640  136.8450 C   0  0  1  0  0  3  0  0  0  0  0  0
  193.8670  176.0070  135.1360 O   0  0  0  0  0  0  0  0  0  0  0  0
  193.9840  174.9650  135.7500 C   0  0  0  0  0  0  0  0  0  0  0  0
  193.1330  173.7930  135.3340 C   0  0  1  0  0  3  0  0  0  0  0  0
  193.4600  172.4940  136.0750 C   0  0  0  0  0  2  0  0  0  0  0  0
  193.7630  171.4780  135.1680 O   0  0  0  0  0  1  0  0  0  0  0  0
  191.7770  174.1020  135.4630 O   0  0  0  0  0  0  0  0  0  0  0  0
  191.0430  174.3010  137.6010 O   0  0  0  0  0  1  0  0  0  0  0  0
  191.3430  173.3990  136.5850 C   0  0  0  0  0  2  0  0  0  0  0  0
  196.2740  175.4070  136.4650 O   0  0  0  0  0  0  0  0  0  0  0  0
  197.2540  174.4020  136.3860 C   0  0  0  0  0  3  0  0  0  0  0  0
  197.5070  174.0700  134.9240 C   0  0  0  0  0  2  0  0  0  0  0  0
  198.4940  174.9200  135.6780 C   0  0  0  0  0  2  0  0  0  0  0  0
  188.2780  178.1900  145.7010 N   0  0  0  0  0  2  0  0  0  0  0  0
  187.0080  178.0120  146.3850 C   0  0  1  0  0  3  0  0  0  0  0  0
  187.6060  177.6670  148.6850 O   0  0  0  0  0  0  0  0  0  0  0  0
  186.6580  179.7280  148.2040 N   0  0  0  0  0  1  0  0  0  0  0  0
  187.1070  178.4360  147.8200 C   0  0  0  0  0  0  0  0  0  0  0  0
  185.8980  178.7470  145.6500 C   0  0  0  0  0  2  0  0  0  0  0  0
  185.6660  178.1650  144.3340 N   0  0  0  0  0  2  0  0  0  0  0  0
  184.6090  178.9250  143.6920 C   0  0  2  0  0  3  0  0  0  0  0  0
  183.5710  179.3260  144.7280 C   0  0  0  0  0  1  0  0  0  0  0  0
  185.0260  177.9910  141.5350 C   0  0  0  0  0  2  0  0  0  0  0  0
  184.0460  178.1370  142.5940 N   0  0  0  0  0  0  0  0  0  0  0  0
  184.2050  177.8750  140.2880 C   0  0  1  0  0  3  0  0  0  0  0  0
  182.8430  178.3080  140.7650 C   0  0  0  0  0  2  0  0  0  0  0  0
  182.9780  178.7900  142.0700 O   0  0  0  0  0  0  0  0  0  0  0  0
  184.7390  178.7700  139.1620 C   0  0  2  0  0  3  0  0  0  0  0  0
  184.2260  180.0660  139.2770 O   0  0  0  0  0  1  0  0  0  0  0  0
  184.3640  178.1960  137.8030 C   0  0  0  0  0  2  0  0  0  0  0  0
  185.4440  177.2020  135.9540 O   0  0  0  0  0  0  0  0  0  0  0  0
  185.5680  177.7270  137.0530 C   0  0  0  0  0  0  0  0  0  0  0  0
  186.9220  177.9270  137.6400 C   0  0  0  0  0  2  0  0  0  0  0  0
  187.9130  175.7630  137.6320 O   0  0  0  0  0  1  0  0  0  0  0  0
  187.9190  177.0000  136.9820 C   0  0  0  0  0  2  0  0  0  0  0  0
  1  3  1  0  0  0  0
  2  4  2  0  0  0  0
  2  7  1  0  0  0  0
  4  6  1  0  0  0  0
  6  5  1  0  0  0  0
  6  3  2  0  0  0  0
  7  1  2  0  0  0  0
  8  9  2  0  0  0  0
  8  2  1  0  0  0  0
 10  8  1  0  0  0  0
 11 18  1  6  0  0  0
 11 12  1  0  0  0  0
 11 14  1  0  0  0  0
 12 16  1  0  0  0  0
 13 10  1  6  0  0  0
 14 13  1  0  0  0  0
 15 13  1  0  0  0  0
 15 17  1  1  0  0  0
 16 15  1  0  0  0  0
 18 19  1  0  0  0  0
 20 21  1  0  0  0  0
 20 19  1  0  0  0  0
 22 24  1  6  0  0  0
 22 21  1  0  0  0  0
 23 24  2  0  0  0  0
 25 28  1  0  0  0  0
 25 24  1  0  0  0  0
 25 26  1  1  0  0  0
 27 26  1  0  0  0  0
 28 30  1  0  0  0  0
 30 29  1  0  0  0  0
 31 22  1  0  0  0  0
 32 31  1  0  0  0  0
 33 34  1  0  0  0  0
 33 32  1  0  0  0  0
 34 32  1  0  0  0  0
 35  7  1  0  0  0  0
 35 36  1  0  0  0  0
 36 40  1  6  0  0  0
 36 39  1  0  0  0  0
 39 38  1  0  0  0  0
 39 37  2  0  0  0  0
 41 40  1  0  0  0  0
 42 41  1  0  0  0  0
 42 43  1  1  0  0  0
 44 45  1  0  0  0  0
 45 42  1  0  0  0  0
 46 49  1  6  0  0  0
 46 47  1  0  0  0  0
 46 44  1  0  0  0  0
 47 48  1  0  0  0  0
 48 45  1  0  0  0  0
 49 50  1  1  0  0  0
 51 49  1  0  0  0  0
 52 53  2  0  0  0  0
 53 54  1  0  0  0  0
 53 51  1  0  0  0  0
 56 55  1  0  0  0  0
 56 54  1  0  0  0  0
M  END
>  <MODEL>
4

>  <REMARK>
 VINA RESULT:      -5.3      3.371      9.115
  Name = 
  26 active torsions:
  status: ('A' for Active; 'I' for Inactive)
    1  A    between atoms: C_1  and  C_8
    2  A    between atoms: O_3  and  C_15
    3  A    between atoms: O_3  and  C_44
    4  A    between atoms: N_4  and  C_25
    5  A    between atoms: C_10  and  C_14
    6  A    between atoms: C_10  and  C_42
    7  A    between atoms: C_12  and  C_18
    8  A    between atoms: C_12  and  N_30
    9  A    between atoms: C_12  and  C_33
   10  A    between atoms: N_13  and  C_28
   11  A    between atoms: C_15  and  N_43
   12  A    between atoms: C_15  and  C_56
   13  A    between atoms: C_18  and  N_29
   14  A    between atoms: C_22  and  O_38
   15  A    between atoms: C_23  and  O_37
   16  A    between atoms: C_23  and  O_38
   17  A    between atoms: C_27  and  C_52
   18  A    between atoms: C_28  and  N_29
   19  A    between atoms: N_30  and  C_48
   20  A    between atoms: C_31  and  O_51
   21  A    between atoms: C_34  and  C_35
   22  A    between atoms: C_35  and  C_39
   23  A    between atoms: O_37  and  N_43
   24  A    between atoms: C_39  and  C_42
   25  A    between atoms: O_51  and  C_52
   26  A    between atoms: C_52  and  C_56
                            x       y       z     vdW  Elec       q    Type
                         _______ _______ _______ _____ _____    ______ ____

>  <TORSDO>
F 26

$$$$
=
 OpenBabel10232408563D

 56 59  0  0  1  0  0  0  0  0999 V2000
  183.1280  178.8880  143.6040 C   0  0  0  0  0  3  0  0  0  0  0  0
  185.4140  178.8820  142.7690 C   0  0  0  0  0  0  0  0  0  0  0  0
  183.5970  179.1590  144.8930 C   0  0  0  0  0  3  0  0  0  0  0  0
  185.8620  179.1330  144.0750 C   0  0  0  0  0  3  0  0  0  0  0  0
  185.4260  179.5150  146.4180 O   0  0  0  0  0  1  0  0  0  0  0  0
  184.9640  179.2650  145.1310 C   0  0  0  0  0  0  0  0  0  0  0  0
  184.0240  178.7360  142.5370 C   0  0  0  0  0  0  0  0  0  0  0  0
  186.4080  178.6800  141.6890 C   0  0  0  0  0  0  0  0  0  0  0  0
  186.0250  178.7630  140.4620 N   0  0  0  0  0  2  0  0  0  0  0  0
  187.7270  178.1890  141.9450 N   0  0  0  0  0  2  0  0  0  0  0  0
  190.8110  177.4460  142.7970 C   0  0  2  0  0  3  0  0  0  0  0  0
  190.1220  176.3220  142.0270 C   0  0  0  0  0  2  0  0  0  0  0  0
  188.3640  178.1130  143.2590 C   0  0  2  0  0  3  0  0  0  0  0  0
  189.8300  178.5750  143.1490 C   0  0  0  0  0  2  0  0  0  0  0  0
  188.2950  176.6780  143.7970 C   0  0  2  0  0  3  0  0  0  0  0  0
  189.0110  175.6900  142.8660 C   0  0  0  0  0  2  0  0  0  0  0  0
  186.8630  176.2440  143.9980 C   0  0  0  0  0  1  0  0  0  0  0  0
  191.8870  177.9660  142.0730 O   0  0  0  0  0  0  0  0  0  0  0  0
  192.2350  176.9900  141.1320 C   0  0  0  0  0  2  0  0  0  0  0  0
  193.1800  177.4960  140.2320 O   0  0  0  0  0  0  0  0  0  0  0  0
  192.5280  177.5370  139.0440 N   0  0  0  0  0  2  0  0  0  0  0  0
  192.4870  176.1760  138.5120 C   0  0  1  0  0  3  0  0  0  0  0  0
  190.7400  174.6350  138.1500 O   0  0  0  0  0  0  0  0  0  0  0  0
  191.1110  175.7850  138.0220 C   0  0  0  0  0  0  0  0  0  0  0  0
  190.1440  176.7870  137.4450 C   0  0  1  0  0  3  0  0  0  0  0  0
  189.5680  176.3800  136.0870 C   0  0  0  0  0  2  0  0  0  0  0  0
  189.9080  177.3190  135.1120 O   0  0  0  0  0  1  0  0  0  0  0  0
  189.1170  177.0530  138.3530 O   0  0  0  0  0  0  0  0  0  0  0  0
  188.3720  179.1560  137.9380 O   0  0  0  0  0  1  0  0  0  0  0  0
  189.2610  178.3970  138.6920 C   0  0  0  0  0  2  0  0  0  0  0  0
  193.5040  175.9070  137.5640 O   0  0  0  0  0  0  0  0  0  0  0  0
  193.9920  174.5970  137.7090 C   0  0  0  0  0  3  0  0  0  0  0  0
  195.4230  174.5410  137.1970 C   0  0  0  0  0  2  0  0  0  0  0  0
  195.1620  174.5670  138.6790 C   0  0  0  0  0  2  0  0  0  0  0  0
  183.5280  178.4650  141.2150 N   0  0  0  0  0  2  0  0  0  0  0  0
  182.3120  179.0470  140.6730 C   0  0  1  0  0  3  0  0  0  0  0  0
  183.7930  180.0390  139.0630 O   0  0  0  0  0  0  0  0  0  0  0  0
  181.5340  180.4210  138.7020 N   0  0  0  0  0  1  0  0  0  0  0  0
  182.6060  179.8630  139.4490 C   0  0  0  0  0  0  0  0  0  0  0  0
  181.2780  177.9650  140.4010 C   0  0  0  0  0  2  0  0  0  0  0  0
  181.8530  176.8720  139.6280 N   0  0  0  0  0  2  0  0  0  0  0  0
  180.7940  176.2920  138.8210 C   0  0  2  0  0  3  0  0  0  0  0  0
  180.4650  174.9020  139.3400 C   0  0  0  0  0  1  0  0  0  0  0  0
  181.3380  174.9370  136.9330 C   0  0  0  0  0  2  0  0  0  0  0  0
  181.2010  176.2970  137.4150 N   0  0  0  0  0  0  0  0  0  0  0  0
  182.3890  175.0280  135.8700 C   0  0  1  0  0  3  0  0  0  0  0  0
  182.9640  176.3990  136.1110 C   0  0  0  0  0  2  0  0  0  0  0  0
  182.4140  176.8930  137.2980 O   0  0  0  0  0  0  0  0  0  0  0  0
  183.4430  173.9210  136.0060 C   0  0  2  0  0  3  0  0  0  0  0  0
  182.9660  172.8840  136.8140 O   0  0  0  0  0  1  0  0  0  0  0  0
  184.7260  174.4810  136.6040 C   0  0  0  0  0  2  0  0  0  0  0  0
  186.4220  175.1910  135.1240 O   0  0  0  0  0  0  0  0  0  0  0  0
  185.8980  174.2510  135.7070 C   0  0  0  0  0  0  0  0  0  0  0  0
  186.4400  172.8730  135.5480 C   0  0  0  0  0  2  0  0  0  0  0  0
  188.0200  172.3240  137.2420 O   0  0  0  0  0  1  0  0  0  0  0  0
  187.8990  172.8370  135.9480 C   0  0  0  0  0  2  0  0  0  0  0  0
  1  3  1  0  0  0  0
  2  4  2  0  0  0  0
  3  6  2  0  0  0  0
  4  6  1  0  0  0  0
  6  5  1  0  0  0  0
  7  2  1  0  0  0  0
  7  1  2  0  0  0  0
  8 10  1  0  0  0  0
  8  2  1  0  0  0  0
  9  8  2  0  0  0  0
 11 18  1  6  0  0  0
 11 14  1  0  0  0  0
 12 11  1  0  0  0  0
 12 16  1  0  0  0  0
 13 10  1  6  0  0  0
 13 15  1  0  0  0  0
 14 13  1  0  0  0  0
 15 17  1  6  0  0  0
 16 15  1  0  0  0  0
 19 18  1  0  0  0  0
 20 19  1  0  0  0  0
 21 20  1  0  0  0  0
 22 31  1  6  0  0  0
 22 21  1  0  0  0  0
 24 23  2  0  0  0  0
 24 22  1  0  0  0  0
 25 26  1  6  0  0  0
 25 24  1  0  0  0  0
 25 28  1  0  0  0  0
 27 26  1  0  0  0  0
 28 30  1  0  0  0  0
 29 30  1  0  0  0  0
 31 32  1  0  0  0  0
 32 34  1  0  0  0  0
 33 32  1  0  0  0  0
 33 34  1  0  0  0  0
 35  7  1  0  0  0  0
 36 40  1  6  0  0  0
 36 35  1  0  0  0  0
 37 39  2  0  0  0  0
 38 39  1  0  0  0  0
 39 36  1  0  0  0  0
 41 40  1  0  0  0  0
 42 43  1  1  0  0  0
 42 41  1  0  0  0  0
 44 45  1  0  0  0  0
 45 42  1  0  0  0  0
 46 49  1  1  0  0  0
 46 47  1  0  0  0  0
 46 44  1  0  0  0  0
 47 48  1  0  0  0  0
 48 45  1  0  0  0  0
 49 51  1  0  0  0  0
 49 50  1  1  0  0  0
 52 53  2  0  0  0  0
 53 51  1  0  0  0  0
 54 53  1  0  0  0  0
 54 56  1  0  0  0  0
 56 55  1  0  0  0  0
M  END
>  <MODEL>
5

>  <REMARK>
 VINA RESULT:      -4.8      2.609      6.895
  Name = 
  26 active torsions:
  status: ('A' for Active; 'I' for Inactive)
    1  A    between atoms: C_1  and  C_8
    2  A    between atoms: O_3  and  C_15
    3  A    between atoms: O_3  and  C_44
    4  A    between atoms: N_4  and  C_25
    5  A    between atoms: C_10  and  C_14
    6  A    between atoms: C_10  and  C_42
    7  A    between atoms: C_12  and  C_18
    8  A    between atoms: C_12  and  N_30
    9  A    between atoms: C_12  and  C_33
   10  A    between atoms: N_13  and  C_28
   11  A    between atoms: C_15  and  N_43
   12  A    between atoms: C_15  and  C_56
   13  A    between atoms: C_18  and  N_29
   14  A    between atoms: C_22  and  O_38
   15  A    between atoms: C_23  and  O_37
   16  A    between atoms: C_23  and  O_38
   17  A    between atoms: C_27  and  C_52
   18  A    between atoms: C_28  and  N_29
   19  A    between atoms: N_30  and  C_48
   20  A    between atoms: C_31  and  O_51
   21  A    between atoms: C_34  and  C_35
   22  A    between atoms: C_35  and  C_39
   23  A    between atoms: O_37  and  N_43
   24  A    between atoms: C_39  and  C_42
   25  A    between atoms: O_51  and  C_52
   26  A    between atoms: C_52  and  C_56
                            x       y       z     vdW  Elec       q    Type
                         _______ _______ _______ _____ _____    ______ ____

>  <TORSDO>
F 26

$$$$
=
 OpenBabel10232408563D

 56 59  0  0  1  0  0  0  0  0999 V2000
  185.1650  177.0680  137.1840 C   0  0  0  0  0  3  0  0  0  0  0  0
  187.5170  177.6700  137.0180 C   0  0  0  0  0  0  0  0  0  0  0  0
  185.3180  176.1680  136.1250 C   0  0  0  0  0  3  0  0  0  0  0  0
  187.6410  176.7760  135.9430 C   0  0  0  0  0  3  0  0  0  0  0  0
  186.6950  175.1520  134.4300 O   0  0  0  0  0  1  0  0  0  0  0  0
  186.5520  176.0340  135.4940 C   0  0  0  0  0  0  0  0  0  0  0  0
  186.2510  177.8320  137.6320 C   0  0  0  0  0  0  0  0  0  0  0  0
  188.6850  178.4890  137.4170 C   0  0  0  0  0  0  0  0  0  0  0  0
  188.7880  179.6930  136.9700 N   0  0  0  0  0  2  0  0  0  0  0  0
  189.8110  177.9340  138.1030 N   0  0  0  0  0  2  0  0  0  0  0  0
  191.7640  176.7680  140.4720 C   0  0  2  0  0  3  0  0  0  0  0  0
  192.5370  177.2140  139.2340 C   0  0  0  0  0  2  0  0  0  0  0  0
  189.8450  176.6250  138.7560 C   0  0  2  0  0  3  0  0  0  0  0  0
  190.2470  176.7970  140.2340 C   0  0  0  0  0  2  0  0  0  0  0  0
  190.8380  175.7030  138.0370 C   0  0  2  0  0  3  0  0  0  0  0  0
  192.2610  176.2800  138.0550 C   0  0  0  0  0  2  0  0  0  0  0  0
  190.4080  175.4520  136.6120 C   0  0  0  0  0  1  0  0  0  0  0  0
  192.0830  177.5600  141.5780 O   0  0  0  0  0  0  0  0  0  0  0  0
  191.2370  177.1450  142.6140 C   0  0  0  0  0  2  0  0  0  0  0  0
  191.6740  177.6660  143.8370 O   0  0  0  0  0  0  0  0  0  0  0  0
  190.6100  178.3610  144.3100 N   0  0  0  0  0  2  0  0  0  0  0  0
  190.6250  178.2590  145.7680 C   0  0  1  0  0  3  0  0  0  0  0  0
  189.2410  177.3980  147.4710 O   0  0  0  0  0  0  0  0  0  0  0  0
  189.2930  177.8240  146.3340 C   0  0  0  0  0  0  0  0  0  0  0  0
  188.0030  177.9680  145.5670 C   0  0  1  0  0  3  0  0  0  0  0  0
  188.1100  177.5660  144.0940 C   0  0  0  0  0  2  0  0  0  0  0  0
  187.6260  176.2710  143.9060 O   0  0  0  0  0  1  0  0  0  0  0  0
  186.9790  177.2570  146.1960 O   0  0  0  0  0  0  0  0  0  0  0  0
  185.8150  179.2060  146.1840 O   0  0  0  0  0  1  0  0  0  0  0  0
  186.3160  178.1900  146.9920 C   0  0  0  0  0  2  0  0  0  0  0  0
  191.7100  177.5010  146.2730 O   0  0  0  0  0  0  0  0  0  0  0  0
  191.2880  176.2180  146.6620 C   0  0  0  0  0  3  0  0  0  0  0  0
  192.3980  175.2210  146.3690 C   0  0  0  0  0  2  0  0  0  0  0  0
  192.1660  175.6850  147.7820 C   0  0  0  0  0  2  0  0  0  0  0  0
  186.0820  178.7490  138.7260 N   0  0  0  0  0  2  0  0  0  0  0  0
  185.2960  178.4540  139.9130 C   0  0  1  0  0  3  0  0  0  0  0  0
  187.2710  178.4810  141.2800 O   0  0  0  0  0  0  0  0  0  0  0  0
  185.4100  179.5100  142.2040 N   0  0  0  0  0  1  0  0  0  0  0  0
  186.0570  178.7980  141.1590 C   0  0  0  0  0  0  0  0  0  0  0  0
  183.9520  179.1630  139.8530 C   0  0  0  0  0  2  0  0  0  0  0  0
  183.0380  178.4780  138.9490 N   0  0  0  0  0  2  0  0  0  0  0  0
  181.7740  178.3040  139.6430 C   0  0  2  0  0  3  0  0  0  0  0  0
  182.0060  178.3670  141.1440 C   0  0  0  0  0  1  0  0  0  0  0  0
  182.1270  176.2310  138.5120 C   0  0  0  0  0  2  0  0  0  0  0  0
  181.1550  177.0490  139.2120 N   0  0  0  0  0  0  0  0  0  0  0  0
  181.3070  175.4360  137.5430 C   0  0  1  0  0  3  0  0  0  0  0  0
  179.9820  176.1520  137.5860 C   0  0  0  0  0  2  0  0  0  0  0  0
  180.1490  177.3170  138.3430 O   0  0  0  0  0  0  0  0  0  0  0  0
  181.9210  175.4320  136.1370 C   0  0  2  0  0  3  0  0  0  0  0  0
  181.1800  176.2450  135.2730 O   0  0  0  0  0  1  0  0  0  0  0  0
  181.9690  174.0160  135.5820 C   0  0  0  0  0  2  0  0  0  0  0  0
  183.3070  172.8240  137.1190 O   0  0  0  0  0  0  0  0  0  0  0  0
  182.1860  173.0080  136.6630 C   0  0  0  0  0  0  0  0  0  0  0  0
  181.0240  172.2470  137.2000 C   0  0  0  0  0  2  0  0  0  0  0  0
  181.0090  170.3410  135.7740 O   0  0  0  0  0  1  0  0  0  0  0  0
  180.3160  171.5150  136.0820 C   0  0  0  0  0  2  0  0  0  0  0  0
  1  7  1  0  0  0  0
  2  8  1  0  0  0  0
  2  7  2  0  0  0  0
  3  1  2  0  0  0  0
  4  2  1  0  0  0  0
  5  6  1  0  0  0  0
  6  4  2  0  0  0  0
  6  3  1  0  0  0  0
  7 35  1  0  0  0  0
  8 10  1  0  0  0  0
  9  8  2  0  0  0  0
 11 18  1  1  0  0  0
 12 11  1  0  0  0  0
 13 10  1  6  0  0  0
 13 14  1  0  0  0  0
 14 11  1  0  0  0  0
 15 17  1  6  0  0  0
 15 16  1  0  0  0  0
 15 13  1  0  0  0  0
 16 12  1  0  0  0  0
 18 19  1  0  0  0  0
 19 20  1  0  0  0  0
 20 21  1  0  0  0  0
 22 21  1  6  0  0  0
 22 31  1  0  0  0  0
 22 24  1  0  0  0  0
 24 23  2  0  0  0  0
 25 26  1  6  0  0  0
 25 28  1  0  0  0  0
 25 24  1  0  0  0  0
 27 26  1  0  0  0  0
 28 30  1  0  0  0  0
 29 30  1  0  0  0  0
 31 32  1  0  0  0  0
 32 34  1  0  0  0  0
 33 32  1  0  0  0  0
 33 34  1  0  0  0  0
 35 36  1  0  0  0  0
 36 40  1  6  0  0  0
 36 39  1  0  0  0  0
 39 37  2  0  0  0  0
 39 38  1  0  0  0  0
 41 42  1  0  0  0  0
 41 40  1  0  0  0  0
 42 43  1  1  0  0  0
 44 45  1  0  0  0  0
 45 42  1  0  0  0  0
 46 49  1  6  0  0  0
 46 47  1  0  0  0  0
 46 44  1  0  0  0  0
 47 48  1  0  0  0  0
 48 45  1  0  0  0  0
 49 50  1  6  0  0  0
 51 49  1  0  0  0  0
 51 53  1  0  0  0  0
 53 52  2  0  0  0  0
 53 54  1  0  0  0  0
 55 56  1  0  0  0  0
 56 54  1  0  0  0  0
M  END
>  <MODEL>
6

>  <REMARK>
 VINA RESULT:      -4.7      1.542      3.227
  Name = 
  26 active torsions:
  status: ('A' for Active; 'I' for Inactive)
    1  A    between atoms: C_1  and  C_8
    2  A    between atoms: O_3  and  C_15
    3  A    between atoms: O_3  and  C_44
    4  A    between atoms: N_4  and  C_25
    5  A    between atoms: C_10  and  C_14
    6  A    between atoms: C_10  and  C_42
    7  A    between atoms: C_12  and  C_18
    8  A    between atoms: C_12  and  N_30
    9  A    between atoms: C_12  and  C_33
   10  A    between atoms: N_13  and  C_28
   11  A    between atoms: C_15  and  N_43
   12  A    between atoms: C_15  and  C_56
   13  A    between atoms: C_18  and  N_29
   14  A    between atoms: C_22  and  O_38
   15  A    between atoms: C_23  and  O_37
   16  A    between atoms: C_23  and  O_38
   17  A    between atoms: C_27  and  C_52
   18  A    between atoms: C_28  and  N_29
   19  A    between atoms: N_30  and  C_48
   20  A    between atoms: C_31  and  O_51
   21  A    between atoms: C_34  and  C_35
   22  A    between atoms: C_35  and  C_39
   23  A    between atoms: O_37  and  N_43
   24  A    between atoms: C_39  and  C_42
   25  A    between atoms: O_51  and  C_52
   26  A    between atoms: C_52  and  C_56
                            x       y       z     vdW  Elec       q    Type
                         _______ _______ _______ _____ _____    ______ ____

>  <TORSDO>
F 26

$$$$
=
 OpenBabel10232408563D

 56 59  0  0  1  0  0  0  0  0999 V2000
  189.5290  176.5520  147.0650 C   0  0  0  0  0  3  0  0  0  0  0  0
  190.7280  177.7650  145.3290 C   0  0  0  0  0  0  0  0  0  0  0  0
  190.6990  175.8610  147.3930 C   0  0  0  0  0  3  0  0  0  0  0  0
  191.8850  177.0440  145.6620 C   0  0  0  0  0  3  0  0  0  0  0  0
  193.0280  175.3930  147.0000 O   0  0  0  0  0  1  0  0  0  0  0  0
  191.8720  176.0950  146.6820 C   0  0  0  0  0  0  0  0  0  0  0  0
  189.5260  177.4970  146.0290 C   0  0  0  0  0  0  0  0  0  0  0  0
  190.7700  178.7150  144.1920 C   0  0  0  0  0  0  0  0  0  0  0  0
  190.7330  179.9800  144.4310 N   0  0  0  0  0  2  0  0  0  0  0  0
  190.6350  178.2880  142.8330 N   0  0  0  0  0  2  0  0  0  0  0  0
  191.4580  177.0820  139.8910 C   0  0  2  0  0  3  0  0  0  0  0  0
  190.2340  177.9920  139.8370 C   0  0  0  0  0  2  0  0  0  0  0  0
  190.7450  176.9070  142.3630 C   0  0  2  0  0  3  0  0  0  0  0  0
  191.8910  176.8010  141.3390 C   0  0  0  0  0  2  0  0  0  0  0  0
  189.4210  176.4580  141.7310 C   0  0  2  0  0  3  0  0  0  0  0  0
  189.0390  177.3390  140.5320 C   0  0  0  0  0  2  0  0  0  0  0  0
  188.3050  176.4690  142.7480 C   0  0  0  0  0  1  0  0  0  0  0  0
  192.5260  177.6300  139.1780 O   0  0  0  0  0  0  0  0  0  0  0  0
  193.4710  176.6060  139.0370 C   0  0  0  0  0  2  0  0  0  0  0  0
  193.1850  175.8340  137.9050 O   0  0  0  0  0  0  0  0  0  0  0  0
  193.6440  174.5960  138.2150 N   0  0  0  0  0  2  0  0  0  0  0  0
  194.8260  174.3410  137.3930 C   0  0  1  0  0  3  0  0  0  0  0  0
  195.2840  172.4820  138.7700 O   0  0  0  0  0  0  0  0  0  0  0  0
  195.7430  173.3040  138.0010 C   0  0  0  0  0  0  0  0  0  0  0  0
  197.2000  173.1990  137.6310 C   0  0  1  0  0  3  0  0  0  0  0  0
  197.4770  172.2420  136.4690 C   0  0  0  0  0  2  0  0  0  0  0  0
  198.8430  172.1990  136.1870 O   0  0  0  0  0  1  0  0  0  0  0  0
  197.7300  174.4630  137.3630 O   0  0  0  0  0  0  0  0  0  0  0  0
  199.9040  174.7920  137.9220 O   0  0  0  0  0  1  0  0  0  0  0  0
  198.6040  174.7290  138.4140 C   0  0  0  0  0  2  0  0  0  0  0  0
  194.5260  174.0790  136.0330 O   0  0  0  0  0  0  0  0  0  0  0  0
  193.5280  173.0960  135.9190 C   0  0  0  0  0  3  0  0  0  0  0  0
  193.2730  172.8180  134.4450 C   0  0  0  0  0  2  0  0  0  0  0  0
  194.0840  171.8460  135.2590 C   0  0  0  0  0  2  0  0  0  0  0  0
  188.3180  178.2050  145.7060 N   0  0  0  0  0  2  0  0  0  0  0  0
  187.0680  178.0430  146.4300 C   0  0  1  0  0  3  0  0  0  0  0  0
  186.7320  179.8430  147.9840 O   0  0  0  0  0  0  0  0  0  0  0  0
  187.6820  177.9250  148.8760 N   0  0  0  0  0  1  0  0  0  0  0  0
  187.1510  178.6700  147.7900 C   0  0  0  0  0  0  0  0  0  0  0  0
  185.9060  178.5940  145.6190 C   0  0  0  0  0  2  0  0  0  0  0  0
  185.6990  177.8170  144.4040 N   0  0  0  0  0  2  0  0  0  0  0  0
  185.2260  178.7210  143.3710 C   0  0  2  0  0  3  0  0  0  0  0  0
  184.6100  179.9510  144.0180 C   0  0  0  0  0  1  0  0  0  0  0  0
  184.9070  177.7850  141.1990 C   0  0  0  0  0  2  0  0  0  0  0  0
  184.2950  178.0100  142.4940 N   0  0  0  0  0  0  0  0  0  0  0  0
  183.7520  177.7690  140.2450 C   0  0  1  0  0  3  0  0  0  0  0  0
  182.6360  178.3250  141.0910 C   0  0  0  0  0  2  0  0  0  0  0  0
  183.1910  178.7710  142.2940 O   0  0  0  0  0  0  0  0  0  0  0  0
  184.0220  178.6260  139.0010 C   0  0  2  0  0  3  0  0  0  0  0  0
  183.9940  179.9860  139.3240 O   0  0  0  0  0  1  0  0  0  0  0  0
  182.9850  178.3390  137.9240 C   0  0  0  0  0  2  0  0  0  0  0  0
  182.6740  176.2020  136.9710 O   0  0  0  0  0  0  0  0  0  0  0  0
  183.3910  177.1890  137.0610 C   0  0  0  0  0  0  0  0  0  0  0  0
  184.6640  177.2640  136.2890 C   0  0  0  0  0  2  0  0  0  0  0  0
  186.6030  175.9550  135.8540 O   0  0  0  0  0  1  0  0  0  0  0  0
  185.2250  175.8770  136.0710 C   0  0  0  0  0  2  0  0  0  0  0  0
  1  3  1  0  0  0  0
  2  4  2  0  0  0  0
  2  7  1  0  0  0  0
  4  6  1  0  0  0  0
  6  5  1  0  0  0  0
  6  3  2  0  0  0  0
  7  1  2  0  0  0  0
  8  9  2  0  0  0  0
  8  2  1  0  0  0  0
 10  8  1  0  0  0  0
 11 18  1  6  0  0  0
 11 14  1  0  0  0  0
 12 11  1  0  0  0  0
 12 16  1  0  0  0  0
 13 10  1  6  0  0  0
 14 13  1  0  0  0  0
 15 13  1  0  0  0  0
 15 17  1  1  0  0  0
 16 15  1  0  0  0  0
 19 18  1  0  0  0  0
 20 21  1  0  0  0  0
 20 19  1  0  0  0  0
 22 31  1  6  0  0  0
 22 24  1  0  0  0  0
 22 21  1  0  0  0  0
 24 23  2  0  0  0  0
 25 26  1  6  0  0  0
 25 24  1  0  0  0  0
 27 26  1  0  0  0  0
 28 25  1  0  0  0  0
 28 30  1  0  0  0  0
 29 30  1  0  0  0  0
 32 31  1  0  0  0  0
 33 34  1  0  0  0  0
 33 32  1  0  0  0  0
 34 32  1  0  0  0  0
 35  7  1  0  0  0  0
 35 36  1  0  0  0  0
 36 40  1  6  0  0  0
 36 39  1  0  0  0  0
 39 37  2  0  0  0  0
 39 38  1  0  0  0  0
 41 40  1  0  0  0  0
 42 43  1  1  0  0  0
 42 41  1  0  0  0  0
 44 45  1  0  0  0  0
 45 42  1  0  0  0  0
 46 49  1  6  0  0  0
 46 47  1  0  0  0  0
 46 44  1  0  0  0  0
 47 48  1  0  0  0  0
 48 45  1  0  0  0  0
 49 50  1  1  0  0  0
 51 49  1  0  0  0  0
 52 53  2  0  0  0  0
 53 51  1  0  0  0  0
 54 53  1  0  0  0  0
 55 56  1  0  0  0  0
 56 54  1  0  0  0  0
M  END
>  <MODEL>
7

>  <REMARK>
 VINA RESULT:      -4.7      3.976      8.857
  Name = 
  26 active torsions:
  status: ('A' for Active; 'I' for Inactive)
    1  A    between atoms: C_1  and  C_8
    2  A    between atoms: O_3  and  C_15
    3  A    between atoms: O_3  and  C_44
    4  A    between atoms: N_4  and  C_25
    5  A    between atoms: C_10  and  C_14
    6  A    between atoms: C_10  and  C_42
    7  A    between atoms: C_12  and  C_18
    8  A    between atoms: C_12  and  N_30
    9  A    between atoms: C_12  and  C_33
   10  A    between atoms: N_13  and  C_28
   11  A    between atoms: C_15  and  N_43
   12  A    between atoms: C_15  and  C_56
   13  A    between atoms: C_18  and  N_29
   14  A    between atoms: C_22  and  O_38
   15  A    between atoms: C_23  and  O_37
   16  A    between atoms: C_23  and  O_38
   17  A    between atoms: C_27  and  C_52
   18  A    between atoms: C_28  and  N_29
   19  A    between atoms: N_30  and  C_48
   20  A    between atoms: C_31  and  O_51
   21  A    between atoms: C_34  and  C_35
   22  A    between atoms: C_35  and  C_39
   23  A    between atoms: O_37  and  N_43
   24  A    between atoms: C_39  and  C_42
   25  A    between atoms: O_51  and  C_52
   26  A    between atoms: C_52  and  C_56
                            x       y       z     vdW  Elec       q    Type
                         _______ _______ _______ _____ _____    ______ ____

>  <TORSDO>
F 26

$$$$
=
 OpenBabel10232408563D

 56 59  0  0  1  0  0  0  0  0999 V2000
  185.8600  179.0420  145.5950 C   0  0  0  0  0  3  0  0  0  0  0  0
  187.2960  177.2590  144.7710 C   0  0  0  0  0  0  0  0  0  0  0  0
  186.3770  178.8660  146.8820 C   0  0  0  0  0  3  0  0  0  0  0  0
  187.7850  177.0870  146.0750 C   0  0  0  0  0  3  0  0  0  0  0  0
  187.8250  177.6960  148.4100 O   0  0  0  0  0  1  0  0  0  0  0  0
  187.3270  177.8790  147.1250 C   0  0  0  0  0  0  0  0  0  0  0  0
  186.3010  178.2390  144.5340 C   0  0  0  0  0  0  0  0  0  0  0  0
  187.7610  176.3480  143.6980 C   0  0  0  0  0  0  0  0  0  0  0  0
  187.4160  175.1080  143.7360 N   0  0  0  0  0  2  0  0  0  0  0  0
  188.7480  176.7380  142.7380 N   0  0  0  0  0  2  0  0  0  0  0  0
  189.5320  178.2610  139.9360 C   0  0  2  0  0  3  0  0  0  0  0  0
  190.3980  177.0330  140.2040 C   0  0  0  0  0  2  0  0  0  0  0  0
  189.1930  178.1080  142.4870 C   0  0  2  0  0  3  0  0  0  0  0  0
  188.6320  178.5930  141.1360 C   0  0  0  0  0  2  0  0  0  0  0  0
  190.7260  178.1730  142.4830 C   0  0  2  0  0  3  0  0  0  0  0  0
  191.3270  177.2720  141.3940 C   0  0  0  0  0  2  0  0  0  0  0  0
  191.2870  177.7880  143.8310 C   0  0  0  0  0  1  0  0  0  0  0  0
  188.7470  178.0840  138.7940 O   0  0  0  0  0  0  0  0  0  0  0  0
  189.6330  178.0560  137.7100 C   0  0  0  0  0  2  0  0  0  0  0  0
  190.1830  176.7770  137.5640 O   0  0  0  0  0  0  0  0  0  0  0  0
  190.4290  176.6630  136.2350 N   0  0  0  0  0  2  0  0  0  0  0  0
  190.8280  175.2810  135.9740 C   0  0  1  0  0  3  0  0  0  0  0  0
  191.7400  173.9950  137.7280 O   0  0  0  0  0  0  0  0  0  0  0  0
  191.9600  174.8260  136.8670 C   0  0  0  0  0  0  0  0  0  0  0  0
  193.3770  175.3040  136.6840 C   0  0  1  0  0  3  0  0  0  0  0  0
  193.5920  176.7690  137.0720 C   0  0  0  0  0  2  0  0  0  0  0  0
  193.4540  176.9340  138.4510 O   0  0  0  0  0  1  0  0  0  0  0  0
  194.2650  174.4780  137.3770 O   0  0  0  0  0  0  0  0  0  0  0  0
  196.4700  175.0110  137.4600 O   0  0  0  0  0  1  0  0  0  0  0  0
  195.4530  174.5180  136.6480 C   0  0  0  0  0  2  0  0  0  0  0  0
  189.7440  174.3710  135.9550 O   0  0  0  0  0  0  0  0  0  0  0  0
  189.8510  173.4840  134.8700 C   0  0  0  0  0  3  0  0  0  0  0  0
  189.3550  172.1120  135.3000 C   0  0  0  0  0  2  0  0  0  0  0  0
  188.4790  172.9890  134.4470 C   0  0  0  0  0  2  0  0  0  0  0  0
  185.7660  178.4340  143.2140 N   0  0  0  0  0  2  0  0  0  0  0  0
  184.3680  178.2300  142.8720 C   0  0  1  0  0  3  0  0  0  0  0  0
  183.6010  180.3500  143.7000 O   0  0  0  0  0  0  0  0  0  0  0  0
  182.4680  178.4980  144.5130 N   0  0  0  0  0  1  0  0  0  0  0  0
  183.4780  179.0960  143.7130 C   0  0  0  0  0  0  0  0  0  0  0  0
  184.1450  178.4590  141.3850 C   0  0  0  0  0  2  0  0  0  0  0  0
  182.8680  177.9030  140.9550 N   0  0  0  0  0  2  0  0  0  0  0  0
  182.1140  178.9650  140.3120 C   0  0  2  0  0  3  0  0  0  0  0  0
  181.0320  179.4620  141.2560 C   0  0  0  0  0  1  0  0  0  0  0  0
  181.7250  177.0360  138.9610 C   0  0  0  0  0  2  0  0  0  0  0  0
  181.5830  178.4770  139.0390 N   0  0  0  0  0  0  0  0  0  0  0  0
  181.8710  176.7600  137.4960 C   0  0  1  0  0  3  0  0  0  0  0  0
  182.1280  178.1360  136.9390 C   0  0  0  0  0  2  0  0  0  0  0  0
  182.2980  179.0110  138.0170 O   0  0  0  0  0  0  0  0  0  0  0  0
  183.0240  175.7900  137.2050 C   0  0  2  0  0  3  0  0  0  0  0  0
  183.5970  176.0660  135.9600 O   0  0  0  0  0  1  0  0  0  0  0  0
  182.5260  174.3520  137.2260 C   0  0  0  0  0  2  0  0  0  0  0  0
  183.4810  173.1120  135.4590 O   0  0  0  0  0  0  0  0  0  0  0  0
  183.5310  173.4130  136.6440 C   0  0  0  0  0  0  0  0  0  0  0  0
  184.6120  172.8650  137.5120 C   0  0  0  0  0  2  0  0  0  0  0  0
  186.9910  172.8930  137.5620 O   0  0  0  0  0  1  0  0  0  0  0  0
  185.8660  173.6990  137.3740 C   0  0  0  0  0  2  0  0  0  0  0  0
  1  3  1  0  0  0  0
  2  4  2  0  0  0  0
  3  6  2  0  0  0  0
  4  6  1  0  0  0  0
  6  5  1  0  0  0  0
  7  2  1  0  0  0  0
  7  1  2  0  0  0  0
  8  9  2  0  0  0  0
  8  2  1  0  0  0  0
 10  8  1  0  0  0  0
 11 18  1  6  0  0  0
 11 12  1  0  0  0  0
 11 14  1  0  0  0  0
 12 16  1  0  0  0  0
 13 10  1  6  0  0  0
 14 13  1  0  0  0  0
 15 13  1  0  0  0  0
 15 17  1  1  0  0  0
 16 15  1  0  0  0  0
 19 18  1  0  0  0  0
 20 19  1  0  0  0  0
 21 20  1  0  0  0  0
 22 31  1  1  0  0  0
 22 21  1  0  0  0  0
 22 24  1  0  0  0  0
 24 23  2  0  0  0  0
 25 24  1  0  0  0  0
 25 26  1  1  0  0  0
 25 28  1  0  0  0  0
 26 27  1  0  0  0  0
 30 28  1  0  0  0  0
 30 29  1  0  0  0  0
 32 33  1  0  0  0  0
 32 31  1  0  0  0  0
 34 32  1  0  0  0  0
 34 33  1  0  0  0  0
 35  7  1  0  0  0  0
 36 40  1  6  0  0  0
 36 35  1  0  0  0  0
 36 39  1  0  0  0  0
 37 39  2  0  0  0  0
 39 38  1  0  0  0  0
 41 40  1  0  0  0  0
 42 41  1  0  0  0  0
 42 43  1  1  0  0  0
 44 45  1  0  0  0  0
 45 42  1  0  0  0  0
 46 49  1  1  0  0  0
 46 44  1  0  0  0  0
 47 46  1  0  0  0  0
 47 48  1  0  0  0  0
 48 45  1  0  0  0  0
 49 50  1  6  0  0  0
 49 51  1  0  0  0  0
 52 53  2  0  0  0  0
 53 51  1  0  0  0  0
 53 54  1  0  0  0  0
 56 54  1  0  0  0  0
 56 55  1  0  0  0  0
M  END
>  <MODEL>
8

>  <REMARK>
 VINA RESULT:      -4.6      2.826      7.372
  Name = 
  26 active torsions:
  status: ('A' for Active; 'I' for Inactive)
    1  A    between atoms: C_1  and  C_8
    2  A    between atoms: O_3  and  C_15
    3  A    between atoms: O_3  and  C_44
    4  A    between atoms: N_4  and  C_25
    5  A    between atoms: C_10  and  C_14
    6  A    between atoms: C_10  and  C_42
    7  A    between atoms: C_12  and  C_18
    8  A    between atoms: C_12  and  N_30
    9  A    between atoms: C_12  and  C_33
   10  A    between atoms: N_13  and  C_28
   11  A    between atoms: C_15  and  N_43
   12  A    between atoms: C_15  and  C_56
   13  A    between atoms: C_18  and  N_29
   14  A    between atoms: C_22  and  O_38
   15  A    between atoms: C_23  and  O_37
   16  A    between atoms: C_23  and  O_38
   17  A    between atoms: C_27  and  C_52
   18  A    between atoms: C_28  and  N_29
   19  A    between atoms: N_30  and  C_48
   20  A    between atoms: C_31  and  O_51
   21  A    between atoms: C_34  and  C_35
   22  A    between atoms: C_35  and  C_39
   23  A    between atoms: O_37  and  N_43
   24  A    between atoms: C_39  and  C_42
   25  A    between atoms: O_51  and  C_52
   26  A    between atoms: C_52  and  C_56
                            x       y       z     vdW  Elec       q    Type
                         _______ _______ _______ _____ _____    ______ ____

>  <TORSDO>
F 26

$$$$
=
 OpenBabel10232408563D

 56 59  0  0  1  0  0  0  0  0999 V2000
  189.8120  177.9100  146.4260 C   0  0  0  0  0  3  0  0  0  0  0  0
  189.5980  176.5290  144.4330 C   0  0  0  0  0  0  0  0  0  0  0  0
  191.0370  177.3020  146.7180 C   0  0  0  0  0  3  0  0  0  0  0  0
  190.8190  175.9190  144.7580 C   0  0  0  0  0  3  0  0  0  0  0  0
  192.7410  175.6820  146.1980 O   0  0  0  0  0  1  0  0  0  0  0  0
  191.5320  176.2960  145.8940 C   0  0  0  0  0  0  0  0  0  0  0  0
  189.0780  177.5260  145.2950 C   0  0  0  0  0  0  0  0  0  0  0  0
  188.8390  176.0490  143.2540 C   0  0  0  0  0  0  0  0  0  0  0  0
  188.1600  174.9590  143.3480 N   0  0  0  0  0  2  0  0  0  0  0  0
  188.9980  176.6280  141.9550 N   0  0  0  0  0  2  0  0  0  0  0  0
  188.8760  178.5530  139.2970 C   0  0  2  0  0  3  0  0  0  0  0  0
  189.3910  177.1500  138.9890 C   0  0  0  0  0  2  0  0  0  0  0  0
  189.6520  177.9040  141.6690 C   0  0  2  0  0  3  0  0  0  0  0  0
  188.7200  178.7800  140.8090 C   0  0  0  0  0  2  0  0  0  0  0  0
  190.9810  177.6630  140.9410 C   0  0  2  0  0  3  0  0  0  0  0  0
  190.7710  176.9280  139.6090 C   0  0  0  0  0  2  0  0  0  0  0  0
  191.9400  176.8840  141.8080 C   0  0  0  0  0  1  0  0  0  0  0  0
  187.6590  178.7960  138.6570 O   0  0  0  0  0  0  0  0  0  0  0  0
  187.4650  177.7320  137.7680 C   0  0  0  0  0  2  0  0  0  0  0  0
  186.2710  177.9020  137.0580 O   0  0  0  0  0  0  0  0  0  0  0  0
  186.1830  176.7990  136.2730 N   0  0  0  0  0  2  0  0  0  0  0  0
  187.4890  176.1440  136.2780 C   0  0  1  0  0  3  0  0  0  0  0  0
  188.2930  174.2240  137.3870 O   0  0  0  0  0  0  0  0  0  0  0  0
  187.4100  174.6930  136.6930 C   0  0  0  0  0  0  0  0  0  0  0  0
  186.2360  173.8150  136.3450 C   0  0  1  0  0  3  0  0  0  0  0  0
  186.6290  172.4740  135.7200 C   0  0  0  0  0  2  0  0  0  0  0  0
  185.5700  171.5690  135.8020 O   0  0  0  0  0  1  0  0  0  0  0  0
  185.4260  173.6150  137.4650 O   0  0  0  0  0  0  0  0  0  0  0  0
  183.4990  174.8110  137.5420 O   0  0  0  0  0  1  0  0  0  0  0  0
  184.1170  173.6920  136.9930 C   0  0  0  0  0  2  0  0  0  0  0  0
  188.2230  176.3340  135.0810 O   0  0  0  0  0  0  0  0  0  0  0  0
  189.4180  175.5940  135.1020 C   0  0  0  0  0  3  0  0  0  0  0  0
  190.4910  176.3650  134.3480 C   0  0  0  0  0  2  0  0  0  0  0  0
  190.5010  176.3500  135.8530 C   0  0  0  0  0  2  0  0  0  0  0  0
  187.8230  178.1640  145.0030 N   0  0  0  0  0  2  0  0  0  0  0  0
  186.5490  177.7270  145.5500 C   0  0  1  0  0  3  0  0  0  0  0  0
  185.1370  179.0960  146.9290 O   0  0  0  0  0  0  0  0  0  0  0  0
  187.1400  178.4420  147.8990 N   0  0  0  0  0  1  0  0  0  0  0  0
  186.2240  178.4690  146.8130 C   0  0  0  0  0  0  0  0  0  0  0  0
  185.4480  177.8640  144.5100 C   0  0  0  0  0  2  0  0  0  0  0  0
  185.9980  177.8700  143.1610 N   0  0  0  0  0  2  0  0  0  0  0  0
  185.3660  178.9520  142.4280 C   0  0  2  0  0  3  0  0  0  0  0  0
  184.2250  179.5250  143.2520 C   0  0  0  0  0  1  0  0  0  0  0  0
  184.3580  179.5440  140.3470 C   0  0  0  0  0  2  0  0  0  0  0  0
  184.9350  178.4610  141.1180 N   0  0  0  0  0  0  0  0  0  0  0  0
  183.3540  178.8710  139.4610 C   0  0  1  0  0  3  0  0  0  0  0  0
  183.2510  177.5030  140.0840 C   0  0  0  0  0  2  0  0  0  0  0  0
  183.9690  177.5220  141.2830 O   0  0  0  0  0  0  0  0  0  0  0  0
  182.0090  179.6100  139.4510 C   0  0  2  0  0  3  0  0  0  0  0  0
  180.9530  178.7120  139.6330 O   0  0  0  0  0  1  0  0  0  0  0  0
  181.8210  180.3530  138.1360 C   0  0  0  0  0  2  0  0  0  0  0  0
  180.3150  181.7060  139.3500 O   0  0  0  0  0  0  0  0  0  0  0  0
  180.8750  181.5000  138.2820 C   0  0  0  0  0  0  0  0  0  0  0  0
  180.6400  182.4080  137.1240 C   0  0  0  0  0  2  0  0  0  0  0  0
  180.7120  184.7820  136.9690 O   0  0  0  0  0  1  0  0  0  0  0  0
  181.4850  183.6550  137.2580 C   0  0  0  0  0  2  0  0  0  0  0  0
  1  3  1  0  0  0  0
  2  4  2  0  0  0  0
  2  7  1  0  0  0  0
  4  6  1  0  0  0  0
  6  5  1  0  0  0  0
  6  3  2  0  0  0  0
  7  1  2  0  0  0  0
  8  9  2  0  0  0  0
  8  2  1  0  0  0  0
 10  8  1  0  0  0  0
 11 18  1  6  0  0  0
 11 14  1  0  0  0  0
 12 11  1  0  0  0  0
 12 16  1  0  0  0  0
 13 10  1  6  0  0  0
 14 13  1  0  0  0  0
 15 13  1  0  0  0  0
 15 17  1  1  0  0  0
 16 15  1  0  0  0  0
 19 18  1  0  0  0  0
 20 19  1  0  0  0  0
 21 22  1  0  0  0  0
 21 20  1  0  0  0  0
 22 31  1  6  0  0  0
 22 24  1  0  0  0  0
 24 23  2  0  0  0  0
 25 26  1  1  0  0  0
 25 24  1  0  0  0  0
 25 28  1  0  0  0  0
 26 27  1  0  0  0  0
 30 28  1  0  0  0  0
 30 29  1  0  0  0  0
 31 32  1  0  0  0  0
 32 34  1  0  0  0  0
 33 32  1  0  0  0  0
 33 34  1  0  0  0  0
 35  7  1  0  0  0  0
 35 36  1  0  0  0  0
 36 40  1  6  0  0  0
 36 39  1  0  0  0  0
 39 37  2  0  0  0  0
 39 38  1  0  0  0  0
 41 40  1  0  0  0  0
 42 41  1  0  0  0  0
 42 43  1  1  0  0  0
 44 45  1  0  0  0  0
 45 48  1  0  0  0  0
 45 42  1  0  0  0  0
 46 49  1  1  0  0  0
 46 47  1  0  0  0  0
 46 44  1  0  0  0  0
 47 48  1  0  0  0  0
 49 50  1  6  0  0  0
 51 53  1  0  0  0  0
 51 49  1  0  0  0  0
 53 52  2  0  0  0  0
 54 56  1  0  0  0  0
 54 53  1  0  0  0  0
 55 56  1  0  0  0  0
M  END
>  <MODEL>
9

>  <REMARK>
 VINA RESULT:      -4.6      2.594      8.893
  Name = 
  26 active torsions:
  status: ('A' for Active; 'I' for Inactive)
    1  A    between atoms: C_1  and  C_8
    2  A    between atoms: O_3  and  C_15
    3  A    between atoms: O_3  and  C_44
    4  A    between atoms: N_4  and  C_25
    5  A    between atoms: C_10  and  C_14
    6  A    between atoms: C_10  and  C_42
    7  A    between atoms: C_12  and  C_18
    8  A    between atoms: C_12  and  N_30
    9  A    between atoms: C_12  and  C_33
   10  A    between atoms: N_13  and  C_28
   11  A    between atoms: C_15  and  N_43
   12  A    between atoms: C_15  and  C_56
   13  A    between atoms: C_18  and  N_29
   14  A    between atoms: C_22  and  O_38
   15  A    between atoms: C_23  and  O_37
   16  A    between atoms: C_23  and  O_38
   17  A    between atoms: C_27  and  C_52
   18  A    between atoms: C_28  and  N_29
   19  A    between atoms: N_30  and  C_48
   20  A    between atoms: C_31  and  O_51
   21  A    between atoms: C_34  and  C_35
   22  A    between atoms: C_35  and  C_39
   23  A    between atoms: O_37  and  N_43
   24  A    between atoms: C_39  and  C_42
   25  A    between atoms: O_51  and  C_52
   26  A    between atoms: C_52  and  C_56
                            x       y       z     vdW  Elec       q    Type
                         _______ _______ _______ _____ _____    ______ ____

>  <TORSDO>
F 26

$$$$
