=
 OpenBabel10232409103D

 59 64  0  0  1  0  0  0  0  0999 V2000
  188.8140  173.7110  134.7190 C   0  0  0  0  0  3  0  0  0  0  0  0
  189.2540  174.9800  134.7740 C   0  0  0  0  0  0  0  0  0  0  0  0
  184.6350  177.2710  134.7900 Cl  0  0  0  0  0  0  0  0  0  0  0  0
  187.1030  176.1570  135.1200 C   0  0  0  0  0  3  0  0  0  0  0  0
  188.7910  178.2660  136.5700 C   0  0  0  0  0  3  0  0  0  0  0  0
  187.5530  178.2280  137.3830 C   0  0  0  0  0  0  0  0  0  0  0  0
  186.2850  177.3520  135.4670 C   0  0  2  0  0  3  0  0  0  0  0  0
  189.1750  177.3810  135.6380 C   0  0  0  0  0  3  0  0  0  0  0  0
  188.4420  176.1660  135.1910 C   0  0  0  0  0  0  0  0  0  0  0  0
  186.4020  177.6890  136.9330 C   0  0  0  0  0  0  0  0  0  0  0  0
  188.4750  178.0630  139.7530 C   0  0  0  0  0  0  0  0  0  0  0  0
  187.6750  178.6800  138.7380 N   0  0  0  0  0  2  0  0  0  0  0  0
  188.9410  176.9050  139.5880 O   0  0  0  0  0  0  0  0  0  0  0  0
  188.7300  178.7870  141.0330 C   0  0  0  0  0  2  0  0  0  0  0  0
  190.3170  177.2950  144.9360 N   0  0  0  0  0  0  0  0  0  0  0  0
  191.0770  176.6540  147.6050 C   0  0  0  0  0  2  0  0  0  0  0  0
  187.9430  178.1830  142.1560 C   0  0  0  0  0  0  0  0  0  0  0  0
  186.2470  177.5450  143.4110 C   0  0  0  0  0  3  0  0  0  0  0  0
  187.4420  177.2390  144.0390 C   0  0  0  0  0  3  0  0  0  0  0  0
  191.7470  175.9680  146.4190 C   0  0  0  0  0  2  0  0  0  0  0  0
  186.5640  178.1520  142.2070 C   0  0  0  0  0  3  0  0  0  0  0  0
  191.6950  176.8780  145.1930 C   0  0  0  0  0  2  0  0  0  0  0  0
  189.5670  177.8910  146.0410 C   0  0  0  0  0  2  0  0  0  0  0  0
  189.6260  176.9810  147.2660 C   0  0  0  0  0  2  0  0  0  0  0  0
  188.4720  177.6370  143.2700 N   0  0  0  0  0  0  0  0  0  0  0  0
  189.8670  177.4550  143.5790 C   0  0  0  0  0  0  0  0  0  0  0  0
  190.7090  177.4110  142.6380 O   0  0  0  0  0  0  0  0  0  0  0  0
  184.5300  178.4160  138.4070 C   0  0  0  0  0  1  0  0  0  0  0  0
  185.3790  177.4210  137.8570 O   0  0  0  0  0  0  0  0  0  0  0  0
  185.3010  171.5790  135.9540 C   0  0  0  0  0  0  0  0  0  0  0  0
  184.0070  170.9280  136.2960 C   0  0  0  0  0  1  0  0  0  0  0  0
  187.2520  173.0890  136.5260 C   0  0  0  0  0  2  0  0  0  0  0  0
  187.1970  171.8860  134.3530 C   0  0  0  0  0  2  0  0  0  0  0  0
  185.8080  172.6960  136.8380 C   0  0  0  0  0  2  0  0  0  0  0  0
  185.8910  171.2730  134.7850 C   0  0  0  0  0  3  0  0  0  0  0  0
  187.4300  173.2420  135.0200 C   0  0  2  0  0  3  0  0  0  0  0  0
  190.6760  175.1950  134.3490 C   0  0  0  0  0  2  0  0  0  0  0  0
  193.5920  175.5680  134.3470 C   0  0  0  0  0  1  0  0  0  0  0  0
  193.0240  174.3250  134.8460 N   0  0  0  0  0  0  0  0  0  0  0  0
  191.1170  173.0670  135.3560 O   0  0  0  0  0  0  0  0  0  0  0  0
  191.5970  174.1400  134.8950 C   0  0  0  0  0  0  0  0  0  0  0  0
  193.7780  172.1270  134.5540 O   0  0  0  0  0  1  0  0  0  0  0  0
  193.9520  173.2910  135.3070 C   0  0  2  0  0  3  0  0  0  0  0  0
  195.3010  171.1600  137.6310 C   0  0  0  0  0  0  0  0  0  0  0  0
  194.0540  171.6010  137.0950 N   0  0  0  0  0  2  0  0  0  0  0  0
  195.5430  169.9300  137.7270 O   0  0  0  0  0  0  0  0  0  0  0  0
  193.7740  173.0030  136.8020 C   0  0  1  0  0  3  0  0  0  0  0  0
  194.0730  175.0070  138.1750 C   0  0  0  0  0  2  0  0  0  0  0  0
  194.6240  173.9170  137.6500 C   0  0  0  0  0  0  0  0  0  0  0  0
  196.2650  172.1120  138.0790 N   0  0  0  0  0  2  0  0  0  0  0  0
  196.0450  173.5570  138.0120 C   0  0  1  0  0  3  0  0  0  0  0  0
  198.4600  174.2820  137.8550 C   0  0  0  0  0  2  0  0  0  0  0  0
  197.7390  172.4360  135.4800 C   0  0  0  0  0  3  0  0  0  0  0  0
  197.1380  173.7950  135.6800 C   0  0  0  0  0  2  0  0  0  0  0  0
  197.0990  174.2620  137.1470 C   0  0  1  0  0  3  0  0  0  0  0  0
  198.9960  172.0970  135.7810 C   0  0  0  0  0  0  0  0  0  0  0  0
  199.6310  174.3360  136.8820 C   0  0  0  0  0  2  0  0  0  0  0  0
  199.4310  170.7090  135.4880 C   0  0  0  0  0  1  0  0  0  0  0  0
  199.9310  172.9920  136.4030 N   0  0  0  0  0  2  0  0  0  0  0  0
  1  2  2  0  0  0  0
  2  9  1  0  0  0  0
  4  9  2  0  0  0  0
  4  7  1  0  0  0  0
  5  6  1  0  0  0  0
  6 12  1  0  0  0  0
  7  3  1  1  0  0  0
  7 10  1  0  0  0  0
  8  5  2  0  0  0  0
  9  8  1  0  0  0  0
 10  6  2  0  0  0  0
 10 29  1  0  0  0  0
 11 14  1  0  0  0  0
 12 11  1  0  0  0  0
 13 11  2  0  0  0  0
 14 17  1  0  0  0  0
 15 22  1  0  0  0  0
 15 23  1  0  0  0  0
 17 21  2  0  0  0  0
 17 25  1  0  0  0  0
 18 19  2  0  0  0  0
 20 16  1  0  0  0  0
 21 18  1  0  0  0  0
 22 20  1  0  0  0  0
 23 24  1  0  0  0  0
 24 16  1  0  0  0  0
 25 26  1  0  0  0  0
 25 19  1  0  0  0  0
 26 15  1  0  0  0  0
 27 26  2  0  0  0  0
 29 28  1  0  0  0  0
 30 31  1  0  0  0  0
 30 34  1  0  0  0  0
 32 34  1  0  0  0  0
 33 35  1  0  0  0  0
 33 36  1  0  0  0  0
 35 30  2  0  0  0  0
 36  1  1  1  0  0  0
 36 32  1  0  0  0  0
 37  2  1  0  0  0  0
 37 41  1  0  0  0  0
 38 39  1  0  0  0  0
 39 41  1  0  0  0  0
 39 43  1  0  0  0  0
 41 40  2  0  0  0  0
 43 42  1  6  0  0  0
 44 46  2  0  0  0  0
 44 50  1  0  0  0  0
 45 44  1  0  0  0  0
 47 43  1  6  0  0  0
 47 45  1  0  0  0  0
 47 49  1  0  0  0  0
 49 48  2  0  0  0  0
 51 49  1  6  0  0  0
 51 50  1  0  0  0  0
 53 54  1  0  0  0  0
 53 56  2  0  0  0  0
 55 54  1  6  0  0  0
 55 52  1  0  0  0  0
 55 51  1  0  0  0  0
 56 59  1  0  0  0  0
 57 52  1  0  0  0  0
 58 56  1  0  0  0  0
 59 57  1  0  0  0  0
M  END
>  <MODEL>
1

>  <REMARK>
 VINA RESULT:      -8.5      0.000      0.000
  Name = 
  11 active torsions:
  status: ('A' for Active; 'I' for Inactive)
    1  A    between atoms: O_6  and  C_55
    2  A    between atoms: C_12  and  C_40
    3  A    between atoms: N_18  and  C_48
    4  A    between atoms: N_19  and  C_28
    5  A    between atoms: C_20  and  C_40
    6  A    between atoms: C_24  and  C_48
    7  A    between atoms: C_30  and  C_59
    8  A    between atoms: C_32  and  C_57
    9  A    between atoms: C_34  and  C_43
   10  A    between atoms: C_43  and  C_58
   11  A    between atoms: C_51  and  C_58
                            x       y       z     vdW  Elec       q    Type
                         _______ _______ _______ _____ _____    ______ ____

>  <TORSDO>
F 11

$$$$
=
 OpenBabel10232409103D

 59 64  0  0  1  0  0  0  0  0999 V2000
  185.2760  177.9410  144.2900 C   0  0  0  0  0  3  0  0  0  0  0  0
  185.3690  177.9330  142.9500 C   0  0  0  0  0  0  0  0  0  0  0  0
  190.5030  178.4050  142.9570 Cl  0  0  0  0  0  0  0  0  0  0  0  0
  187.8260  177.9840  142.6470 C   0  0  0  0  0  3  0  0  0  0  0  0
  187.1890  178.7260  139.7410 C   0  0  0  0  0  3  0  0  0  0  0  0
  188.3700  177.8440  139.5980 C   0  0  0  0  0  0  0  0  0  0  0  0
  189.0640  178.3460  141.9030 C   0  0  2  0  0  3  0  0  0  0  0  0
  186.4290  178.8910  140.8350 C   0  0  0  0  0  3  0  0  0  0  0  0
  186.6030  178.2400  142.1610 C   0  0  0  0  0  0  0  0  0  0  0  0
  189.1890  177.5490  140.6270 C   0  0  0  0  0  0  0  0  0  0  0  0
  189.0910  177.8070  137.1540 C   0  0  0  0  0  0  0  0  0  0  0  0
  188.5270  177.2040  138.3240 N   0  0  0  0  0  2  0  0  0  0  0  0
  189.2600  179.0530  137.0910 O   0  0  0  0  0  0  0  0  0  0  0  0
  189.4480  176.9530  135.9830 C   0  0  0  0  0  2  0  0  0  0  0  0
  186.9440  173.2670  135.6280 N   0  0  0  0  0  0  0  0  0  0  0  0
  185.6710  170.7660  135.1450 C   0  0  0  0  0  2  0  0  0  0  0  0
  189.8140  175.5680  136.4210 C   0  0  0  0  0  0  0  0  0  0  0  0
  190.9900  173.8440  137.1300 C   0  0  0  0  0  3  0  0  0  0  0  0
  189.6960  173.4470  136.8430 C   0  0  0  0  0  3  0  0  0  0  0  0
  184.9550  171.8670  135.9210 C   0  0  0  0  0  2  0  0  0  0  0  0
  191.0700  175.2000  136.8590 C   0  0  0  0  0  3  0  0  0  0  0  0
  185.4880  173.2340  135.4980 C   0  0  0  0  0  2  0  0  0  0  0  0
  187.7120  172.2030  134.9810 C   0  0  0  0  0  2  0  0  0  0  0  0
  187.1720  170.8370  135.4020 C   0  0  0  0  0  2  0  0  0  0  0  0
  188.9850  174.5030  136.4050 N   0  0  0  0  0  0  0  0  0  0  0  0
  187.5920  174.4840  136.0430 C   0  0  0  0  0  0  0  0  0  0  0  0
  186.9180  175.5490  136.1140 O   0  0  0  0  0  0  0  0  0  0  0  0
  191.4590  176.6440  140.1420 C   0  0  0  0  0  1  0  0  0  0  0  0
  190.0920  176.4820  140.4850 O   0  0  0  0  0  0  0  0  0  0  0  0
  188.0240  178.2190  147.5740 C   0  0  0  0  0  0  0  0  0  0  0  0
  189.0120  178.4470  148.6640 C   0  0  0  0  0  1  0  0  0  0  0  0
  187.3200  177.1200  145.4040 C   0  0  0  0  0  2  0  0  0  0  0  0
  185.7500  178.6180  146.6130 C   0  0  0  0  0  2  0  0  0  0  0  0
  188.4810  177.5160  146.3160 C   0  0  0  0  0  2  0  0  0  0  0  0
  186.8100  178.7890  147.6700 C   0  0  0  0  0  3  0  0  0  0  0  0
  186.3620  178.2950  145.2500 C   0  0  2  0  0  3  0  0  0  0  0  0
  184.1040  177.6100  142.2110 C   0  0  0  0  0  2  0  0  0  0  0  0
  183.3720  176.9870  139.4330 C   0  0  0  0  0  1  0  0  0  0  0  0
  183.4060  178.3720  139.8770 N   0  0  0  0  0  0  0  0  0  0  0  0
  183.7190  179.9000  141.6220 O   0  0  0  0  0  0  0  0  0  0  0  0
  183.7200  178.6950  141.2440 C   0  0  0  0  0  0  0  0  0  0  0  0
  183.9660  180.4880  139.0440 O   0  0  0  0  0  1  0  0  0  0  0  0
  183.0930  179.4080  138.8910 C   0  0  2  0  0  3  0  0  0  0  0  0
  181.1000  181.8110  137.4700 C   0  0  0  0  0  0  0  0  0  0  0  0
  181.5220  181.2980  138.7330 N   0  0  0  0  0  2  0  0  0  0  0  0
  181.1610  183.0460  137.2420 O   0  0  0  0  0  0  0  0  0  0  0  0
  181.6350  179.8690  139.0050 C   0  0  1  0  0  3  0  0  0  0  0  0
  180.0510  178.0430  138.6140 C   0  0  0  0  0  2  0  0  0  0  0  0
  180.7260  179.0690  138.1040 C   0  0  0  0  0  0  0  0  0  0  0  0
  180.5890  180.9270  136.4720 N   0  0  0  0  0  2  0  0  0  0  0  0
  180.4760  179.4820  136.6730 C   0  0  1  0  0  3  0  0  0  0  0  0
  182.5260  178.0510  136.3150 C   0  0  0  0  0  2  0  0  0  0  0  0
  179.9820  176.5120  135.4600 C   0  0  0  0  0  3  0  0  0  0  0  0
  180.4760  177.7430  134.7590 C   0  0  0  0  0  2  0  0  0  0  0  0
  181.3010  178.6910  135.6500 C   0  0  1  0  0  3  0  0  0  0  0  0
  180.7580  175.5720  136.0060 C   0  0  0  0  0  0  0  0  0  0  0  0
  182.9920  176.7870  135.6030 C   0  0  0  0  0  2  0  0  0  0  0  0
  180.0960  174.4020  136.6360 C   0  0  0  0  0  1  0  0  0  0  0  0
  182.1910  175.6520  136.0470 N   0  0  0  0  0  2  0  0  0  0  0  0
  2  1  2  0  0  0  0
  5  8  2  0  0  0  0
  6  5  1  0  0  0  0
  6 10  2  0  0  0  0
  7  4  1  0  0  0  0
  7  3  1  1  0  0  0
  8  9  1  0  0  0  0
  9  4  2  0  0  0  0
  9  2  1  0  0  0  0
 10  7  1  0  0  0  0
 11 12  1  0  0  0  0
 12  6  1  0  0  0  0
 13 11  2  0  0  0  0
 14 17  1  0  0  0  0
 14 11  1  0  0  0  0
 15 26  1  0  0  0  0
 16 24  1  0  0  0  0
 16 20  1  0  0  0  0
 17 21  2  0  0  0  0
 19 18  2  0  0  0  0
 21 18  1  0  0  0  0
 22 15  1  0  0  0  0
 22 20  1  0  0  0  0
 23 24  1  0  0  0  0
 23 15  1  0  0  0  0
 25 17  1  0  0  0  0
 25 19  1  0  0  0  0
 26 27  2  0  0  0  0
 26 25  1  0  0  0  0
 28 29  1  0  0  0  0
 29 10  1  0  0  0  0
 30 35  2  0  0  0  0
 30 31  1  0  0  0  0
 32 34  1  0  0  0  0
 33 35  1  0  0  0  0
 34 30  1  0  0  0  0
 36  1  1  6  0  0  0
 36 32  1  0  0  0  0
 36 33  1  0  0  0  0
 37  2  1  0  0  0  0
 38 39  1  0  0  0  0
 39 41  1  0  0  0  0
 41 40  2  0  0  0  0
 41 37  1  0  0  0  0
 43 42  1  1  0  0  0
 43 39  1  0  0  0  0
 44 45  1  0  0  0  0
 45 47  1  0  0  0  0
 46 44  2  0  0  0  0
 47 43  1  6  0  0  0
 49 48  2  0  0  0  0
 49 47  1  0  0  0  0
 50 44  1  0  0  0  0
 51 50  1  1  0  0  0
 51 49  1  0  0  0  0
 53 56  2  0  0  0  0
 54 53  1  0  0  0  0
 55 54  1  1  0  0  0
 55 52  1  0  0  0  0
 55 51  1  0  0  0  0
 56 59  1  0  0  0  0
 56 58  1  0  0  0  0
 57 59  1  0  0  0  0
 57 52  1  0  0  0  0
M  END
>  <MODEL>
2

>  <REMARK>
 VINA RESULT:      -8.1      4.550     12.348
  Name = 
  11 active torsions:
  status: ('A' for Active; 'I' for Inactive)
    1  A    between atoms: O_6  and  C_55
    2  A    between atoms: C_12  and  C_40
    3  A    between atoms: N_18  and  C_48
    4  A    between atoms: N_19  and  C_28
    5  A    between atoms: C_20  and  C_40
    6  A    between atoms: C_24  and  C_48
    7  A    between atoms: C_30  and  C_59
    8  A    between atoms: C_32  and  C_57
    9  A    between atoms: C_34  and  C_43
   10  A    between atoms: C_43  and  C_58
   11  A    between atoms: C_51  and  C_58
                            x       y       z     vdW  Elec       q    Type
                         _______ _______ _______ _____ _____    ______ ____

>  <TORSDO>
F 11

$$$$
=
 OpenBabel10232409103D

 59 64  0  0  1  0  0  0  0  0999 V2000
  189.9020  177.0120  140.1170 C   0  0  0  0  0  3  0  0  0  0  0  0
  189.7150  177.1340  138.7910 C   0  0  0  0  0  0  0  0  0  0  0  0
  186.5490  175.5870  135.0280 Cl  0  0  0  0  0  0  0  0  0  0  0  0
  187.9380  176.4100  137.2270 C   0  0  0  0  0  3  0  0  0  0  0  0
  186.2890  178.6790  138.4630 C   0  0  0  0  0  3  0  0  0  0  0  0
  185.2740  177.6210  138.2520 C   0  0  0  0  0  0  0  0  0  0  0  0
  186.6580  176.6030  136.4910 C   0  0  2  0  0  3  0  0  0  0  0  0
  187.6220  178.5450  138.4100 C   0  0  0  0  0  3  0  0  0  0  0  0
  188.3930  177.3080  138.1110 C   0  0  0  0  0  0  0  0  0  0  0  0
  185.4770  176.5710  137.4300 C   0  0  0  0  0  0  0  0  0  0  0  0
  183.7990  178.7530  139.9930 C   0  0  0  0  0  0  0  0  0  0  0  0
  184.1030  177.6980  139.0740 N   0  0  0  0  0  2  0  0  0  0  0  0
  184.6840  179.5810  140.3380 O   0  0  0  0  0  0  0  0  0  0  0  0
  182.4290  178.8510  140.5780 C   0  0  0  0  0  2  0  0  0  0  0  0
  180.9520  180.9280  136.9060 N   0  0  0  0  0  0  0  0  0  0  0  0
  180.1720  181.9070  134.3470 C   0  0  0  0  0  2  0  0  0  0  0  0
  181.3980  178.3530  139.6130 C   0  0  0  0  0  0  0  0  0  0  0  0
  179.9850  177.0220  138.5680 C   0  0  0  0  0  3  0  0  0  0  0  0
  180.0240  178.2560  137.9410 C   0  0  0  0  0  3  0  0  0  0  0  0
  179.9920  182.7630  135.5970 C   0  0  0  0  0  2  0  0  0  0  0  0
  180.8650  177.0800  139.6370 C   0  0  0  0  0  3  0  0  0  0  0  0
  181.0200  182.3670  136.6540 C   0  0  0  0  0  2  0  0  0  0  0  0
  181.0360  180.0290  135.7550 C   0  0  0  0  0  2  0  0  0  0  0  0
  180.0100  180.4320  134.6990 C   0  0  0  0  0  2  0  0  0  0  0  0
  180.8920  179.0610  138.5800 N   0  0  0  0  0  0  0  0  0  0  0  0
  181.1730  180.4310  138.2380 C   0  0  0  0  0  0  0  0  0  0  0  0
  181.5990  181.2180  139.1290 O   0  0  0  0  0  0  0  0  0  0  0  0
  183.3210  175.4330  136.9190 C   0  0  0  0  0  1  0  0  0  0  0  0
  184.6070  175.4720  137.5170 O   0  0  0  0  0  0  0  0  0  0  0  0
  187.5220  177.3780  143.6680 C   0  0  0  0  0  0  0  0  0  0  0  0
  186.6070  177.4070  144.8420 C   0  0  0  0  0  1  0  0  0  0  0  0
  188.4610  178.4080  141.5530 C   0  0  0  0  0  2  0  0  0  0  0  0
  189.3560  176.2500  142.3970 C   0  0  0  0  0  2  0  0  0  0  0  0
  187.3070  178.3800  142.5560 C   0  0  0  0  0  2  0  0  0  0  0  0
  188.3970  176.3640  143.5530 C   0  0  0  0  0  3  0  0  0  0  0  0
  188.8370  176.9840  141.1610 C   0  0  2  0  0  3  0  0  0  0  0  0
  190.9540  177.0570  137.9490 C   0  0  0  0  0  2  0  0  0  0  0  0
  193.8030  176.5840  137.3990 C   0  0  0  0  0  1  0  0  0  0  0  0
  192.9050  175.4530  137.5790 N   0  0  0  0  0  0  0  0  0  0  0  0
  190.7540  174.6730  138.0720 O   0  0  0  0  0  0  0  0  0  0  0  0
  191.5160  175.6640  137.8920 C   0  0  0  0  0  0  0  0  0  0  0  0
  194.6960  174.0450  138.1200 O   0  0  0  0  0  1  0  0  0  0  0  0
  193.4720  174.1100  137.4490 C   0  0  2  0  0  3  0  0  0  0  0  0
  196.0570  173.6940  135.2340 C   0  0  0  0  0  0  0  0  0  0  0  0
  194.8060  174.3590  135.3940 N   0  0  0  0  0  2  0  0  0  0  0  0
  197.0690  174.3400  134.8620 O   0  0  0  0  0  0  0  0  0  0  0  0
  193.6370  173.7100  135.9790 C   0  0  1  0  0  3  0  0  0  0  0  0
  192.6040  171.5460  135.4850 C   0  0  0  0  0  2  0  0  0  0  0  0
  193.7060  172.2110  135.8150 C   0  0  0  0  0  0  0  0  0  0  0  0
  196.1590  172.2900  135.4750 N   0  0  0  0  0  2  0  0  0  0  0  0
  195.0210  171.4720  135.8960 C   0  0  1  0  0  3  0  0  0  0  0  0
  194.6770  169.3800  137.2700 C   0  0  0  0  0  2  0  0  0  0  0  0
  197.6930  170.0320  137.0460 C   0  0  0  0  0  3  0  0  0  0  0  0
  196.7120  170.9060  137.7690 C   0  0  0  0  0  2  0  0  0  0  0  0
  195.2650  170.7970  137.2520 C   0  0  1  0  0  3  0  0  0  0  0  0
  197.6480  168.6970  136.9990 C   0  0  0  0  0  0  0  0  0  0  0  0
  195.4030  168.4510  138.2350 C   0  0  0  0  0  2  0  0  0  0  0  0
  198.7220  167.9900  136.2580 C   0  0  0  0  0  1  0  0  0  0  0  0
  196.5990  167.9180  137.5940 N   0  0  0  0  0  2  0  0  0  0  0  0
  2  1  2  0  0  0  0
  4  9  2  0  0  0  0
  6  5  1  0  0  0  0
  6 12  1  0  0  0  0
  7  3  1  6  0  0  0
  7  4  1  0  0  0  0
  7 10  1  0  0  0  0
  8  5  2  0  0  0  0
  9  8  1  0  0  0  0
  9  2  1  0  0  0  0
 10 29  1  0  0  0  0
 10  6  2  0  0  0  0
 11 13  2  0  0  0  0
 11 14  1  0  0  0  0
 12 11  1  0  0  0  0
 15 26  1  0  0  0  0
 16 24  1  0  0  0  0
 16 20  1  0  0  0  0
 17 21  2  0  0  0  0
 17 14  1  0  0  0  0
 18 21  1  0  0  0  0
 19 18  2  0  0  0  0
 19 25  1  0  0  0  0
 20 22  1  0  0  0  0
 22 15  1  0  0  0  0
 23 15  1  0  0  0  0
 24 23  1  0  0  0  0
 25 17  1  0  0  0  0
 26 25  1  0  0  0  0
 26 27  2  0  0  0  0
 28 29  1  0  0  0  0
 30 31  1  0  0  0  0
 32 34  1  0  0  0  0
 33 35  1  0  0  0  0
 34 30  1  0  0  0  0
 35 30  2  0  0  0  0
 36  1  1  6  0  0  0
 36 32  1  0  0  0  0
 36 33  1  0  0  0  0
 37  2  1  0  0  0  0
 38 39  1  0  0  0  0
 39 41  1  0  0  0  0
 41 37  1  0  0  0  0
 41 40  2  0  0  0  0
 43 39  1  0  0  0  0
 43 42  1  6  0  0  0
 44 45  1  0  0  0  0
 44 50  1  0  0  0  0
 45 47  1  0  0  0  0
 46 44  2  0  0  0  0
 47 43  1  1  0  0  0
 48 49  2  0  0  0  0
 49 51  1  0  0  0  0
 49 47  1  0  0  0  0
 51 50  1  1  0  0  0
 51 55  1  0  0  0  0
 52 57  1  0  0  0  0
 53 54  1  0  0  0  0
 55 52  1  6  0  0  0
 55 54  1  0  0  0  0
 56 53  2  0  0  0  0
 56 59  1  0  0  0  0
 58 56  1  0  0  0  0
 59 57  1  0  0  0  0
M  END
>  <MODEL>
3

>  <REMARK>
 VINA RESULT:      -7.9      3.307      7.365
  Name = 
  11 active torsions:
  status: ('A' for Active; 'I' for Inactive)
    1  A    between atoms: O_6  and  C_55
    2  A    between atoms: C_12  and  C_40
    3  A    between atoms: N_18  and  C_48
    4  A    between atoms: N_19  and  C_28
    5  A    between atoms: C_20  and  C_40
    6  A    between atoms: C_24  and  C_48
    7  A    between atoms: C_30  and  C_59
    8  A    between atoms: C_32  and  C_57
    9  A    between atoms: C_34  and  C_43
   10  A    between atoms: C_43  and  C_58
   11  A    between atoms: C_51  and  C_58
                            x       y       z     vdW  Elec       q    Type
                         _______ _______ _______ _____ _____    ______ ____

>  <TORSDO>
F 11

$$$$
=
 OpenBabel10232409103D

 59 64  0  0  1  0  0  0  0  0999 V2000
  189.1710  175.4010  134.6380 C   0  0  0  0  0  3  0  0  0  0  0  0
  190.2920  175.9280  135.1610 C   0  0  0  0  0  0  0  0  0  0  0  0
  188.6110  179.9620  137.8950 Cl  0  0  0  0  0  0  0  0  0  0  0  0
  189.4740  177.6420  136.7480 C   0  0  0  0  0  3  0  0  0  0  0  0
  191.5530  176.4740  138.6750 C   0  0  0  0  0  3  0  0  0  0  0  0
  190.4200  176.7910  139.5750 C   0  0  0  0  0  0  0  0  0  0  0  0
  189.5830  178.4670  137.9820 C   0  0  2  0  0  3  0  0  0  0  0  0
  191.5330  176.4290  137.3340 C   0  0  0  0  0  3  0  0  0  0  0  0
  190.3770  176.7020  136.4390 C   0  0  0  0  0  0  0  0  0  0  0  0
  189.4190  177.6220  139.2220 C   0  0  0  0  0  0  0  0  0  0  0  0
  190.8500  176.5250  142.0730 C   0  0  0  0  0  0  0  0  0  0  0  0
  190.3700  176.0580  140.8060 N   0  0  0  0  0  2  0  0  0  0  0  0
  191.5970  177.5360  142.1440 O   0  0  0  0  0  0  0  0  0  0  0  0
  190.4900  175.7830  143.3170 C   0  0  0  0  0  2  0  0  0  0  0  0
  186.7360  177.7620  144.7200 N   0  0  0  0  0  0  0  0  0  0  0  0
  184.4070  178.8010  145.9880 C   0  0  0  0  0  2  0  0  0  0  0  0
  190.3430  176.7190  144.4760 C   0  0  0  0  0  0  0  0  0  0  0  0
  190.7890  177.8610  146.3080 C   0  0  0  0  0  3  0  0  0  0  0  0
  189.4830  178.0940  145.9120 C   0  0  0  0  0  3  0  0  0  0  0  0
  184.7030  179.1160  144.5250 C   0  0  0  0  0  2  0  0  0  0  0  0
  191.3410  176.9800  145.3930 C   0  0  0  0  0  3  0  0  0  0  0  0
  185.5410  177.9970  143.9100 C   0  0  0  0  0  2  0  0  0  0  0  0
  186.5550  177.5300  146.1530 C   0  0  0  0  0  2  0  0  0  0  0  0
  185.7120  178.6480  146.7620 C   0  0  0  0  0  2  0  0  0  0  0  0
  189.2160  177.3890  144.7970 N   0  0  0  0  0  0  0  0  0  0  0  0
  187.9710  177.4040  144.0740 C   0  0  0  0  0  0  0  0  0  0  0  0
  187.9660  177.1210  142.8430 O   0  0  0  0  0  0  0  0  0  0  0  0
  186.9730  178.0020  139.4980 C   0  0  0  0  0  1  0  0  0  0  0  0
  188.2480  177.6320  139.9970 O   0  0  0  0  0  0  0  0  0  0  0  0
  184.9670  175.9170  135.3210 C   0  0  0  0  0  0  0  0  0  0  0  0
  183.5400  176.1100  135.6980 C   0  0  0  0  0  1  0  0  0  0  0  0
  186.8960  174.4460  134.5950 C   0  0  0  0  0  2  0  0  0  0  0  0
  187.2220  176.8940  134.8620 C   0  0  0  0  0  2  0  0  0  0  0  0
  185.5110  174.5080  135.2380 C   0  0  0  0  0  2  0  0  0  0  0  0
  185.7650  176.9950  135.2310 C   0  0  0  0  0  3  0  0  0  0  0  0
  187.7950  175.5180  135.2000 C   0  0  2  0  0  3  0  0  0  0  0  0
  191.5420  175.7270  134.3560 C   0  0  0  0  0  2  0  0  0  0  0  0
  194.3720  175.5870  135.1400 C   0  0  0  0  0  1  0  0  0  0  0  0
  193.6020  174.3610  134.9960 N   0  0  0  0  0  0  0  0  0  0  0  0
  191.5410  173.3400  134.5600 O   0  0  0  0  0  0  0  0  0  0  0  0
  192.2040  174.4110  134.6550 C   0  0  0  0  0  0  0  0  0  0  0  0
  193.8140  172.1210  134.3460 O   0  0  0  0  0  1  0  0  0  0  0  0
  194.2950  173.0930  135.2280 C   0  0  2  0  0  3  0  0  0  0  0  0
  194.5860  170.1510  136.9670 C   0  0  0  0  0  0  0  0  0  0  0  0
  193.6950  171.2420  136.7370 N   0  0  0  0  0  2  0  0  0  0  0  0
  194.1710  168.9690  136.8600 O   0  0  0  0  0  0  0  0  0  0  0  0
  194.1460  172.6290  136.6810 C   0  0  1  0  0  3  0  0  0  0  0  0
  195.5670  173.9040  138.2130 C   0  0  0  0  0  2  0  0  0  0  0  0
  195.4250  172.8180  137.4600 C   0  0  0  0  0  0  0  0  0  0  0  0
  195.9410  170.3980  137.3390 N   0  0  0  0  0  2  0  0  0  0  0  0
  196.4890  171.7470  137.4970 C   0  0  1  0  0  3  0  0  0  0  0  0
  197.4790  173.3440  135.8100 C   0  0  0  0  0  2  0  0  0  0  0  0
  199.4690  172.8650  138.1290 C   0  0  0  0  0  2  0  0  0  0  0  0
  199.0530  171.7940  137.1650 C   0  0  0  0  0  2  0  0  0  0  0  0
  197.6610  172.0090  136.5420 C   0  0  1  0  0  3  0  0  0  0  0  0
  199.6370  174.1550  137.8230 C   0  0  0  0  0  0  0  0  0  0  0  0
  198.8020  173.9750  135.3940 C   0  0  0  0  0  2  0  0  0  0  0  0
  200.0820  175.0740  138.9010 C   0  0  0  0  0  1  0  0  0  0  0  0
  199.3740  174.7020  136.5220 N   0  0  0  0  0  0  0  0  0  0  0  0
  1  2  2  0  0  0  0
  2  9  1  0  0  0  0
  4  7  1  0  0  0  0
  5  6  1  0  0  0  0
  6 12  1  0  0  0  0
  7  3  1  6  0  0  0
  7 10  1  0  0  0  0
  8  5  2  0  0  0  0
  9  4  2  0  0  0  0
  9  8  1  0  0  0  0
 10  6  2  0  0  0  0
 10 29  1  0  0  0  0
 11 13  2  0  0  0  0
 11 14  1  0  0  0  0
 12 11  1  0  0  0  0
 14 17  1  0  0  0  0
 15 23  1  0  0  0  0
 16 24  1  0  0  0  0
 17 25  1  0  0  0  0
 17 21  2  0  0  0  0
 19 18  2  0  0  0  0
 20 16  1  0  0  0  0
 21 18  1  0  0  0  0
 22 20  1  0  0  0  0
 22 15  1  0  0  0  0
 23 24  1  0  0  0  0
 25 19  1  0  0  0  0
 26 15  1  0  0  0  0
 26 25  1  0  0  0  0
 27 26  2  0  0  0  0
 28 29  1  0  0  0  0
 30 31  1  0  0  0  0
 32 36  1  0  0  0  0
 32 34  1  0  0  0  0
 33 36  1  0  0  0  0
 33 35  1  0  0  0  0
 34 30  1  0  0  0  0
 35 30  2  0  0  0  0
 36  1  1  6  0  0  0
 37 41  1  0  0  0  0
 37  2  1  0  0  0  0
 39 38  1  0  0  0  0
 39 43  1  0  0  0  0
 40 41  2  0  0  0  0
 41 39  1  0  0  0  0
 43 42  1  6  0  0  0
 44 50  1  0  0  0  0
 45 44  1  0  0  0  0
 46 44  2  0  0  0  0
 47 43  1  6  0  0  0
 47 45  1  0  0  0  0
 47 49  1  0  0  0  0
 49 51  1  0  0  0  0
 49 48  2  0  0  0  0
 51 50  1  6  0  0  0
 54 53  1  0  0  0  0
 55 52  1  1  0  0  0
 55 54  1  0  0  0  0
 55 51  1  0  0  0  0
 56 53  1  0  0  0  0
 56 58  1  0  0  0  0
 57 52  1  0  0  0  0
 57 59  1  0  0  0  0
 59 56  2  0  0  0  0
M  END
>  <MODEL>
4

>  <REMARK>
 VINA RESULT:      -7.7      1.890      3.514
  Name = 
  11 active torsions:
  status: ('A' for Active; 'I' for Inactive)
    1  A    between atoms: O_6  and  C_55
    2  A    between atoms: C_12  and  C_40
    3  A    between atoms: N_18  and  C_48
    4  A    between atoms: N_19  and  C_28
    5  A    between atoms: C_20  and  C_40
    6  A    between atoms: C_24  and  C_48
    7  A    between atoms: C_30  and  C_59
    8  A    between atoms: C_32  and  C_57
    9  A    between atoms: C_34  and  C_43
   10  A    between atoms: C_43  and  C_58
   11  A    between atoms: C_51  and  C_58
                            x       y       z     vdW  Elec       q    Type
                         _______ _______ _______ _____ _____    ______ ____

>  <TORSDO>
F 11

$$$$
=
 OpenBabel10232409103D

 59 64  0  0  1  0  0  0  0  0999 V2000
  190.3430  177.6050  141.2450 C   0  0  0  0  0  3  0  0  0  0  0  0
  190.0970  177.8090  139.9400 C   0  0  0  0  0  0  0  0  0  0  0  0
  187.2890  178.6110  135.6910 Cl  0  0  0  0  0  0  0  0  0  0  0  0
  188.4790  178.0550  138.0820 C   0  0  0  0  0  3  0  0  0  0  0  0
  186.5610  179.0920  140.2370 C   0  0  0  0  0  3  0  0  0  0  0  0
  185.6640  178.3110  139.3540 C   0  0  0  0  0  0  0  0  0  0  0  0
  187.2270  178.5820  137.4750 C   0  0  2  0  0  3  0  0  0  0  0  0
  187.9030  179.0760  140.2460 C   0  0  0  0  0  3  0  0  0  0  0  0
  188.8020  178.2870  139.3620 C   0  0  0  0  0  0  0  0  0  0  0  0
  186.0070  177.9510  138.1010 C   0  0  0  0  0  0  0  0  0  0  0  0
  183.8000  178.4150  141.0890 C   0  0  0  0  0  0  0  0  0  0  0  0
  184.4500  177.8370  139.9510 N   0  0  0  0  0  2  0  0  0  0  0  0
  184.4010  179.2480  141.8180 O   0  0  0  0  0  0  0  0  0  0  0  0
  182.4100  177.9970  141.4360 C   0  0  0  0  0  2  0  0  0  0  0  0
  181.1300  180.3200  137.8390 N   0  0  0  0  0  0  0  0  0  0  0  0
  180.5840  181.5360  135.3210 C   0  0  0  0  0  2  0  0  0  0  0  0
  181.6910  177.4720  140.2320 C   0  0  0  0  0  0  0  0  0  0  0  0
  180.8080  176.0790  138.7700 C   0  0  0  0  0  3  0  0  0  0  0  0
  180.6710  177.3830  138.3240 C   0  0  0  0  0  3  0  0  0  0  0  0
  180.0110  182.1190  136.6090 C   0  0  0  0  0  2  0  0  0  0  0  0
  181.4630  176.1320  139.9890 C   0  0  0  0  0  3  0  0  0  0  0  0
  180.9130  181.7650  137.7890 C   0  0  0  0  0  2  0  0  0  0  0  0
  181.6040  179.6590  136.6230 C   0  0  0  0  0  2  0  0  0  0  0  0
  180.7030  180.0200  135.4440 C   0  0  0  0  0  2  0  0  0  0  0  0
  181.2180  178.2270  139.2180 N   0  0  0  0  0  0  0  0  0  0  0  0
  181.2350  179.6620  139.1140 C   0  0  0  0  0  0  0  0  0  0  0  0
  181.3190  180.3590  140.1640 O   0  0  0  0  0  0  0  0  0  0  0  0
  184.3580  177.2420  136.3740 C   0  0  0  0  0  1  0  0  0  0  0  0
  185.2420  176.9690  137.4500 O   0  0  0  0  0  0  0  0  0  0  0  0
  188.0430  177.3310  144.8570 C   0  0  0  0  0  0  0  0  0  0  0  0
  187.1440  177.3170  146.0440 C   0  0  0  0  0  1  0  0  0  0  0  0
  190.1140  178.1380  143.6440 C   0  0  0  0  0  2  0  0  0  0  0  0
  188.6200  176.4590  142.5860 C   0  0  0  0  0  2  0  0  0  0  0  0
  189.1110  178.3970  144.7680 C   0  0  0  0  0  2  0  0  0  0  0  0
  187.7710  176.5080  143.8290 C   0  0  0  0  0  3  0  0  0  0  0  0
  189.3720  177.7720  142.3650 C   0  0  2  0  0  3  0  0  0  0  0  0
  191.2300  177.4970  139.0070 C   0  0  0  0  0  2  0  0  0  0  0  0
  193.4160  176.3760  137.3930 C   0  0  0  0  0  1  0  0  0  0  0  0
  192.2530  175.5570  137.7020 N   0  0  0  0  0  0  0  0  0  0  0  0
  190.2030  175.3420  138.8090 O   0  0  0  0  0  0  0  0  0  0  0  0
  191.1930  176.0730  138.5270 C   0  0  0  0  0  0  0  0  0  0  0  0
  193.3230  173.4750  137.6220 O   0  0  0  0  0  1  0  0  0  0  0  0
  192.2190  174.1970  137.1610 C   0  0  2  0  0  3  0  0  0  0  0  0
  191.3800  172.0010  134.6640 C   0  0  0  0  0  0  0  0  0  0  0  0
  192.4270  172.8660  135.0990 N   0  0  0  0  0  2  0  0  0  0  0  0
  191.6370  170.8100  134.3550 O   0  0  0  0  0  0  0  0  0  0  0  0
  192.1750  174.2030  135.6290 C   0  0  1  0  0  3  0  0  0  0  0  0
  190.8130  176.0350  134.7460 C   0  0  0  0  0  2  0  0  0  0  0  0
  190.8710  174.7580  135.1110 C   0  0  0  0  0  0  0  0  0  0  0  0
  190.0430  172.4900  134.5570 N   0  0  0  0  0  2  0  0  0  0  0  0
  189.6730  173.8680  134.8850 C   0  0  1  0  0  3  0  0  0  0  0  0
  187.2970  174.4740  135.4920 C   0  0  0  0  0  2  0  0  0  0  0  0
  187.8530  171.5070  136.1710 C   0  0  0  0  0  2  0  0  0  0  0  0
  188.5310  172.6530  136.8620 C   0  0  0  0  0  2  0  0  0  0  0  0
  188.6350  173.9330  136.0130 C   0  0  1  0  0  3  0  0  0  0  0  0
  186.5890  171.5070  135.7400 C   0  0  0  0  0  0  0  0  0  0  0  0
  186.1040  173.9730  136.2970 C   0  0  0  0  0  2  0  0  0  0  0  0
  186.0720  170.2710  135.1010 C   0  0  0  0  0  1  0  0  0  0  0  0
  185.7200  172.6470  135.8290 N   0  0  0  0  0  0  0  0  0  0  0  0
  2  1  2  0  0  0  0
  4  9  2  0  0  0  0
  5  8  2  0  0  0  0
  6 12  1  0  0  0  0
  6  5  1  0  0  0  0
  7  3  1  6  0  0  0
  7  4  1  0  0  0  0
  7 10  1  0  0  0  0
  9  2  1  0  0  0  0
  9  8  1  0  0  0  0
 10  6  2  0  0  0  0
 11 14  1  0  0  0  0
 11 13  2  0  0  0  0
 12 11  1  0  0  0  0
 15 26  1  0  0  0  0
 16 24  1  0  0  0  0
 16 20  1  0  0  0  0
 17 14  1  0  0  0  0
 18 21  1  0  0  0  0
 19 18  2  0  0  0  0
 19 25  1  0  0  0  0
 20 22  1  0  0  0  0
 21 17  2  0  0  0  0
 22 15  1  0  0  0  0
 23 15  1  0  0  0  0
 24 23  1  0  0  0  0
 25 17  1  0  0  0  0
 26 25  1  0  0  0  0
 26 27  2  0  0  0  0
 28 29  1  0  0  0  0
 29 10  1  0  0  0  0
 30 31  1  0  0  0  0
 32 34  1  0  0  0  0
 33 35  1  0  0  0  0
 34 30  1  0  0  0  0
 35 30  2  0  0  0  0
 36  1  1  6  0  0  0
 36 33  1  0  0  0  0
 36 32  1  0  0  0  0
 37  2  1  0  0  0  0
 38 39  1  0  0  0  0
 39 41  1  0  0  0  0
 41 40  2  0  0  0  0
 41 37  1  0  0  0  0
 43 42  1  6  0  0  0
 43 39  1  0  0  0  0
 44 45  1  0  0  0  0
 45 47  1  0  0  0  0
 46 44  2  0  0  0  0
 47 43  1  1  0  0  0
 48 49  2  0  0  0  0
 49 47  1  0  0  0  0
 50 44  1  0  0  0  0
 51 50  1  1  0  0  0
 51 49  1  0  0  0  0
 51 55  1  0  0  0  0
 52 57  1  0  0  0  0
 53 54  1  0  0  0  0
 55 52  1  6  0  0  0
 55 54  1  0  0  0  0
 56 59  2  0  0  0  0
 56 53  1  0  0  0  0
 58 56  1  0  0  0  0
 59 57  1  0  0  0  0
M  END
>  <MODEL>
5

>  <REMARK>
 VINA RESULT:      -7.5      3.399      8.464
  Name = 
  11 active torsions:
  status: ('A' for Active; 'I' for Inactive)
    1  A    between atoms: O_6  and  C_55
    2  A    between atoms: C_12  and  C_40
    3  A    between atoms: N_18  and  C_48
    4  A    between atoms: N_19  and  C_28
    5  A    between atoms: C_20  and  C_40
    6  A    between atoms: C_24  and  C_48
    7  A    between atoms: C_30  and  C_59
    8  A    between atoms: C_32  and  C_57
    9  A    between atoms: C_34  and  C_43
   10  A    between atoms: C_43  and  C_58
   11  A    between atoms: C_51  and  C_58
                            x       y       z     vdW  Elec       q    Type
                         _______ _______ _______ _____ _____    ______ ____

>  <TORSDO>
F 11

$$$$
=
 OpenBabel10232409103D

 59 64  0  0  1  0  0  0  0  0999 V2000
  189.7130  177.2920  140.2430 C   0  0  0  0  0  3  0  0  0  0  0  0
  189.5930  177.4510  138.9130 C   0  0  0  0  0  0  0  0  0  0  0  0
  187.2720  178.0500  134.3490 Cl  0  0  0  0  0  0  0  0  0  0  0  0
  188.2240  177.5320  136.8530 C   0  0  0  0  0  3  0  0  0  0  0  0
  185.8570  177.9530  138.7550 C   0  0  0  0  0  3  0  0  0  0  0  0
  185.2750  177.0900  137.7020 C   0  0  0  0  0  0  0  0  0  0  0  0
  186.9790  177.8450  136.0980 C   0  0  2  0  0  3  0  0  0  0  0  0
  187.1570  178.2110  138.9640 C   0  0  0  0  0  3  0  0  0  0  0  0
  188.3150  177.7050  138.1790 C   0  0  0  0  0  0  0  0  0  0  0  0
  185.8510  176.9240  136.4940 C   0  0  0  0  0  0  0  0  0  0  0  0
  182.7600  176.7300  137.9000 C   0  0  0  0  0  0  0  0  0  0  0  0
  184.1220  176.3260  138.0790 N   0  0  0  0  0  2  0  0  0  0  0  0
  182.4750  177.9250  137.6220 O   0  0  0  0  0  0  0  0  0  0  0  0
  181.6640  175.7330  138.0810 C   0  0  0  0  0  2  0  0  0  0  0  0
  182.2670  171.7010  136.2490 N   0  0  0  0  0  0  0  0  0  0  0  0
  182.2140  169.0940  135.1020 C   0  0  0  0  0  2  0  0  0  0  0  0
  181.1490  175.2570  136.7570 C   0  0  0  0  0  0  0  0  0  0  0  0
  180.0190  175.1640  134.8670 C   0  0  0  0  0  3  0  0  0  0  0  0
  180.7680  174.0110  135.0270 C   0  0  0  0  0  3  0  0  0  0  0  0
  183.5390  169.7720  135.4350 C   0  0  0  0  0  2  0  0  0  0  0  0
  180.2580  175.9620  135.9740 C   0  0  0  0  0  3  0  0  0  0  0  0
  183.3440  170.7670  136.5760 C   0  0  0  0  0  2  0  0  0  0  0  0
  180.9790  171.1400  135.8400 C   0  0  0  0  0  2  0  0  0  0  0  0
  181.1790  170.1410  134.7030 C   0  0  0  0  0  2  0  0  0  0  0  0
  181.4510  174.0720  136.1860 N   0  0  0  0  0  0  0  0  0  0  0  0
  182.3630  173.0720  136.6750 C   0  0  0  0  0  0  0  0  0  0  0  0
  183.2810  173.4080  137.4750 O   0  0  0  0  0  0  0  0  0  0  0  0
  186.0320  174.5980  135.6210 C   0  0  0  0  0  1  0  0  0  0  0  0
  185.4090  175.8710  135.6770 O   0  0  0  0  0  0  0  0  0  0  0  0
  187.2070  177.6500  143.7080 C   0  0  0  0  0  0  0  0  0  0  0  0
  186.2430  177.6890  144.8410 C   0  0  0  0  0  1  0  0  0  0  0  0
  188.3330  178.7210  141.7080 C   0  0  0  0  0  2  0  0  0  0  0  0
  188.9930  176.4420  142.4420 C   0  0  0  0  0  2  0  0  0  0  0  0
  187.1340  178.7350  142.6570 C   0  0  0  0  0  2  0  0  0  0  0  0
  187.9940  176.5700  143.5620 C   0  0  0  0  0  3  0  0  0  0  0  0
  188.6010  177.2960  141.2370 C   0  0  2  0  0  3  0  0  0  0  0  0
  190.8640  177.3300  138.1260 C   0  0  0  0  0  2  0  0  0  0  0  0
  193.6640  176.6370  137.5560 C   0  0  0  0  0  1  0  0  0  0  0  0
  192.6620  175.5850  137.6390 N   0  0  0  0  0  0  0  0  0  0  0  0
  190.4420  174.9740  138.0550 O   0  0  0  0  0  0  0  0  0  0  0  0
  191.2950  175.8990  137.9600 C   0  0  0  0  0  0  0  0  0  0  0  0
  194.3010  173.9720  138.0840 O   0  0  0  0  0  1  0  0  0  0  0  0
  193.1030  174.2090  137.4040 C   0  0  2  0  0  3  0  0  0  0  0  0
  195.6720  173.5160  135.2400 C   0  0  0  0  0  0  0  0  0  0  0  0
  194.5580  174.3870  135.4240 N   0  0  0  0  0  2  0  0  0  0  0  0
  196.8020  173.9920  134.9630 O   0  0  0  0  0  0  0  0  0  0  0  0
  193.2630  173.9180  135.9070 C   0  0  1  0  0  3  0  0  0  0  0  0
  191.8750  172.0390  135.1750 C   0  0  0  0  0  2  0  0  0  0  0  0
  193.0640  172.4530  135.6010 C   0  0  0  0  0  0  0  0  0  0  0  0
  195.5030  172.1020  135.3470 N   0  0  0  0  0  2  0  0  0  0  0  0
  194.2150  171.4770  135.6510 C   0  0  1  0  0  3  0  0  0  0  0  0
  193.8920  169.1880  136.6670 C   0  0  0  0  0  2  0  0  0  0  0  0
  196.7660  170.2000  137.1980 C   0  0  0  0  0  3  0  0  0  0  0  0
  195.5430  170.8470  137.7780 C   0  0  0  0  0  2  0  0  0  0  0  0
  194.2650  170.6500  136.9420 C   0  0  1  0  0  3  0  0  0  0  0  0
  196.9200  168.8890  136.9920 C   0  0  0  0  0  0  0  0  0  0  0  0
  194.5250  168.2200  137.6590 C   0  0  0  0  0  2  0  0  0  0  0  0
  198.2130  168.4200  136.4350 C   0  0  0  0  0  1  0  0  0  0  0  0
  195.8910  167.9200  137.2460 N   0  0  0  0  0  2  0  0  0  0  0  0
  2  1  2  0  0  0  0
  4  9  2  0  0  0  0
  5  8  2  0  0  0  0
  6 12  1  0  0  0  0
  6  5  1  0  0  0  0
  7  3  1  6  0  0  0
  7 10  1  0  0  0  0
  7  4  1  0  0  0  0
  9  2  1  0  0  0  0
  9  8  1  0  0  0  0
 10  6  2  0  0  0  0
 11 12  1  0  0  0  0
 11 14  1  0  0  0  0
 13 11  2  0  0  0  0
 15 22  1  0  0  0  0
 15 26  1  0  0  0  0
 16 20  1  0  0  0  0
 17 14  1  0  0  0  0
 18 19  2  0  0  0  0
 18 21  1  0  0  0  0
 19 25  1  0  0  0  0
 20 22  1  0  0  0  0
 21 17  2  0  0  0  0
 23 15  1  0  0  0  0
 24 16  1  0  0  0  0
 24 23  1  0  0  0  0
 25 26  1  0  0  0  0
 25 17  1  0  0  0  0
 26 27  2  0  0  0  0
 28 29  1  0  0  0  0
 29 10  1  0  0  0  0
 30 31  1  0  0  0  0
 32 34  1  0  0  0  0
 33 35  1  0  0  0  0
 34 30  1  0  0  0  0
 35 30  2  0  0  0  0
 36  1  1  6  0  0  0
 36 32  1  0  0  0  0
 36 33  1  0  0  0  0
 37  2  1  0  0  0  0
 38 39  1  0  0  0  0
 39 41  1  0  0  0  0
 41 40  2  0  0  0  0
 41 37  1  0  0  0  0
 43 39  1  0  0  0  0
 43 42  1  1  0  0  0
 44 50  1  0  0  0  0
 44 45  1  0  0  0  0
 45 47  1  0  0  0  0
 46 44  2  0  0  0  0
 47 43  1  1  0  0  0
 48 49  2  0  0  0  0
 49 51  1  0  0  0  0
 49 47  1  0  0  0  0
 51 50  1  1  0  0  0
 51 55  1  0  0  0  0
 52 57  1  0  0  0  0
 53 54  1  0  0  0  0
 55 52  1  6  0  0  0
 55 54  1  0  0  0  0
 56 53  2  0  0  0  0
 56 59  1  0  0  0  0
 58 56  1  0  0  0  0
 59 57  1  0  0  0  0
M  END
>  <MODEL>
6

>  <REMARK>
 VINA RESULT:      -7.5      3.080      7.683
  Name = 
  11 active torsions:
  status: ('A' for Active; 'I' for Inactive)
    1  A    between atoms: O_6  and  C_55
    2  A    between atoms: C_12  and  C_40
    3  A    between atoms: N_18  and  C_48
    4  A    between atoms: N_19  and  C_28
    5  A    between atoms: C_20  and  C_40
    6  A    between atoms: C_24  and  C_48
    7  A    between atoms: C_30  and  C_59
    8  A    between atoms: C_32  and  C_57
    9  A    between atoms: C_34  and  C_43
   10  A    between atoms: C_43  and  C_58
   11  A    between atoms: C_51  and  C_58
                            x       y       z     vdW  Elec       q    Type
                         _______ _______ _______ _____ _____    ______ ____

>  <TORSDO>
F 11

$$$$
=
 OpenBabel10232409103D

 59 64  0  0  1  0  0  0  0  0999 V2000
  190.8920  177.5270  142.0280 C   0  0  0  0  0  3  0  0  0  0  0  0
  189.8460  177.7230  141.2070 C   0  0  0  0  0  0  0  0  0  0  0  0
  186.4050  177.3590  145.0290 Cl  0  0  0  0  0  0  0  0  0  0  0  0
  188.0040  177.7850  142.8600 C   0  0  0  0  0  3  0  0  0  0  0  0
  186.1570  177.6640  140.4170 C   0  0  0  0  0  3  0  0  0  0  0  0
  185.4290  178.5790  141.3260 C   0  0  0  0  0  0  0  0  0  0  0  0
  186.5840  177.6130  143.2710 C   0  0  2  0  0  3  0  0  0  0  0  0
  187.4300  177.2560  140.5260 C   0  0  0  0  0  3  0  0  0  0  0  0
  188.4040  177.6140  141.5920 C   0  0  0  0  0  0  0  0  0  0  0  0
  185.7010  178.6650  142.6440 C   0  0  1  0  0  3  0  0  0  0  0  0
  184.2690  179.5930  139.2960 C   0  0  0  0  0  0  0  0  0  0  0  0
  184.5010  179.4770  140.7050 N   0  0  0  0  0  0  0  0  0  0  0  0
  185.0670  179.0780  138.4700 O   0  0  0  0  0  0  0  0  0  0  0  0
  183.0880  180.3610  138.8030 C   0  0  0  0  0  2  0  0  0  0  0  0
  181.4040  176.2910  138.0480 N   0  0  0  0  0  0  0  0  0  0  0  0
  180.3740  173.6350  138.0000 C   0  0  0  0  0  2  0  0  0  0  0  0
  181.8140  179.7970  139.3510 C   0  0  0  0  0  0  0  0  0  0  0  0
  179.9870  179.5520  140.5610 C   0  0  0  0  0  3  0  0  0  0  0  0
  180.1600  178.4530  139.7380 C   0  0  0  0  0  3  0  0  0  0  0  0
  180.6110  174.4030  136.7030 C   0  0  0  0  0  2  0  0  0  0  0  0
  181.0460  180.4130  140.3190 C   0  0  0  0  0  3  0  0  0  0  0  0
  181.7170  175.4370  136.9030 C   0  0  0  0  0  2  0  0  0  0  0  0
  181.0840  175.6390  139.3190 C   0  0  0  0  0  2  0  0  0  0  0  0
  179.9820  174.6020  139.1130 C   0  0  0  0  0  2  0  0  0  0  0  0
  181.2790  178.6060  139.0060 N   0  0  0  0  0  0  0  0  0  0  0  0
  181.7650  177.6830  138.0140 C   0  0  0  0  0  0  0  0  0  0  0  0
  182.5040  178.1080  137.0810 O   0  0  0  0  0  0  0  0  0  0  0  0
  183.9990  179.7030  144.1380 C   0  0  0  0  0  1  0  0  0  0  0  0
  185.1890  179.7550  143.3670 O   0  0  0  0  0  0  0  0  0  0  0  0
  191.6790  176.4670  146.1100 C   0  0  0  0  0  0  0  0  0  0  0  0
  191.8180  176.0450  147.5310 C   0  0  0  0  0  1  0  0  0  0  0  0
  191.3620  178.2500  144.3400 C   0  0  0  0  0  2  0  0  0  0  0  0
  191.6810  175.8760  143.6810 C   0  0  0  0  0  2  0  0  0  0  0  0
  191.2100  177.8730  145.8140 C   0  0  0  0  0  2  0  0  0  0  0  0
  191.8110  175.5420  145.1440 C   0  0  0  0  0  3  0  0  0  0  0  0
  190.8260  177.1250  143.4620 C   0  0  2  0  0  3  0  0  0  0  0  0
  190.1870  178.0510  139.7840 C   0  0  0  0  0  2  0  0  0  0  0  0
  193.1130  177.8710  139.5600 C   0  0  0  0  0  1  0  0  0  0  0  0
  192.2780  176.8520  138.9430 N   0  0  0  0  0  0  0  0  0  0  0  0
  190.1350  175.9920  138.5600 O   0  0  0  0  0  0  0  0  0  0  0  0
  190.8460  176.8980  139.0780 C   0  0  0  0  0  0  0  0  0  0  0  0
  194.2080  175.5360  138.7640 O   0  0  0  0  0  1  0  0  0  0  0  0
  192.9500  175.7800  138.2060 C   0  0  2  0  0  3  0  0  0  0  0  0
  195.4200  175.7720  135.8260 C   0  0  0  0  0  0  0  0  0  0  0  0
  194.4150  176.6030  136.4040 N   0  0  0  0  0  2  0  0  0  0  0  0
  196.5980  176.1970  135.7150 O   0  0  0  0  0  0  0  0  0  0  0  0
  193.0740  176.1160  136.7150 C   0  0  1  0  0  3  0  0  0  0  0  0
  191.4770  174.8640  135.3460 C   0  0  0  0  0  2  0  0  0  0  0  0
  192.7060  174.9380  135.8460 C   0  0  0  0  0  0  0  0  0  0  0  0
  195.0870  174.4660  135.3540 N   0  0  0  0  0  2  0  0  0  0  0  0
  193.7350  173.9120  135.4380 C   0  0  1  0  0  3  0  0  0  0  0  0
  193.0800  171.4730  135.4660 C   0  0  0  0  0  2  0  0  0  0  0  0
  196.0930  171.7810  136.0970 C   0  0  0  0  0  2  0  0  0  0  0  0
  195.0060  172.2870  136.9970 C   0  0  0  0  0  2  0  0  0  0  0  0
  193.6900  172.6260  136.2730 C   0  0  1  0  0  3  0  0  0  0  0  0
  196.0300  170.6650  135.3650 C   0  0  0  0  0  0  0  0  0  0  0  0
  193.5790  170.1060  135.9190 C   0  0  0  0  0  2  0  0  0  0  0  0
  197.2160  170.3000  134.5500 C   0  0  0  0  0  1  0  0  0  0  0  0
  194.8680  169.8250  135.2980 N   0  0  0  0  0  0  0  0  0  0  0  0
  2  9  1  0  0  0  0
  2  1  2  0  0  0  0
  4  7  1  0  0  0  0
  5  8  2  0  0  0  0
  5  6  1  0  0  0  0
  6 10  1  0  0  0  0
  7  3  1  1  0  0  0
  8  9  1  0  0  0  0
  9  4  2  0  0  0  0
 10  7  1  0  0  0  0
 10 29  1  6  0  0  0
 11 12  1  0  0  0  0
 12  6  2  0  0  0  0
 13 11  2  0  0  0  0
 14 11  1  0  0  0  0
 14 17  1  0  0  0  0
 15 23  1  0  0  0  0
 16 24  1  0  0  0  0
 17 21  2  0  0  0  0
 19 18  2  0  0  0  0
 20 22  1  0  0  0  0
 20 16  1  0  0  0  0
 21 18  1  0  0  0  0
 22 15  1  0  0  0  0
 24 23  1  0  0  0  0
 25 17  1  0  0  0  0
 25 19  1  0  0  0  0
 26 15  1  0  0  0  0
 26 25  1  0  0  0  0
 27 26  2  0  0  0  0
 29 28  1  0  0  0  0
 30 31  1  0  0  0  0
 32 34  1  0  0  0  0
 33 35  1  0  0  0  0
 34 30  1  0  0  0  0
 35 30  2  0  0  0  0
 36  1  1  6  0  0  0
 36 33  1  0  0  0  0
 36 32  1  0  0  0  0
 37  2  1  0  0  0  0
 39 41  1  0  0  0  0
 39 38  1  0  0  0  0
 40 41  2  0  0  0  0
 41 37  1  0  0  0  0
 43 42  1  1  0  0  0
 43 39  1  0  0  0  0
 44 45  1  0  0  0  0
 45 47  1  0  0  0  0
 46 44  2  0  0  0  0
 47 43  1  1  0  0  0
 48 49  2  0  0  0  0
 49 47  1  0  0  0  0
 50 44  1  0  0  0  0
 51 50  1  1  0  0  0
 51 49  1  0  0  0  0
 51 55  1  0  0  0  0
 52 57  1  0  0  0  0
 53 54  1  0  0  0  0
 55 52  1  6  0  0  0
 55 54  1  0  0  0  0
 56 53  1  0  0  0  0
 58 56  1  0  0  0  0
 59 56  2  0  0  0  0
 59 57  1  0  0  0  0
M  END
>  <MODEL>
7

>  <REMARK>
 VINA RESULT:      -7.2      3.568      7.906
  Name = 
  11 active torsions:
  status: ('A' for Active; 'I' for Inactive)
    1  A    between atoms: O_6  and  C_55
    2  A    between atoms: C_12  and  C_40
    3  A    between atoms: N_18  and  C_48
    4  A    between atoms: N_19  and  C_28
    5  A    between atoms: C_20  and  C_40
    6  A    between atoms: C_24  and  C_48
    7  A    between atoms: C_30  and  C_59
    8  A    between atoms: C_32  and  C_57
    9  A    between atoms: C_34  and  C_43
   10  A    between atoms: C_43  and  C_58
   11  A    between atoms: C_51  and  C_58
                            x       y       z     vdW  Elec       q    Type
                         _______ _______ _______ _____ _____    ______ ____

>  <TORSDO>
F 11

$$$$
=
 OpenBabel10232409103D

 59 64  0  0  1  0  0  0  0  0999 V2000
  191.7630  176.5090  138.9750 C   0  0  0  0  0  3  0  0  0  0  0  0
  190.4270  176.5520  138.8390 C   0  0  0  0  0  0  0  0  0  0  0  0
  190.2940  172.6570  135.4650 Cl  0  0  0  0  0  0  0  0  0  0  0  0
  190.0390  174.6160  137.3460 C   0  0  0  0  0  3  0  0  0  0  0  0
  187.2580  175.8330  136.9210 C   0  0  0  0  0  3  0  0  0  0  0  0
  186.9750  174.3790  136.9380 C   0  0  0  0  0  0  0  0  0  0  0  0
  189.2940  173.8890  136.2820 C   0  0  2  0  0  3  0  0  0  0  0  0
  188.3900  176.4420  137.3040 C   0  0  0  0  0  3  0  0  0  0  0  0
  189.6300  175.8020  137.8180 C   0  0  0  0  0  0  0  0  0  0  0  0
  187.9350  173.4480  136.7690 C   0  0  0  0  0  0  0  0  0  0  0  0
  184.6120  173.6290  136.3490 C   0  0  0  0  0  0  0  0  0  0  0  0
  185.6350  174.0020  137.2800 N   0  0  0  0  0  2  0  0  0  0  0  0
  184.7500  173.8560  135.1180 O   0  0  0  0  0  0  0  0  0  0  0  0
  183.3550  172.9980  136.8480 C   0  0  0  0  0  2  0  0  0  0  0  0
  182.0840  177.1060  138.0660 N   0  0  0  0  0  0  0  0  0  0  0  0
  181.3280  179.8290  138.4190 C   0  0  0  0  0  2  0  0  0  0  0  0
  182.1510  173.7480  136.3690 C   0  0  0  0  0  0  0  0  0  0  0  0
  180.3730  174.3150  135.1950 C   0  0  0  0  0  3  0  0  0  0  0  0
  180.6460  175.2890  136.1390 C   0  0  0  0  0  3  0  0  0  0  0  0
  181.4700  178.8980  139.6190 C   0  0  0  0  0  2  0  0  0  0  0  0
  181.3360  173.3280  135.3370 C   0  0  0  0  0  3  0  0  0  0  0  0
  182.4680  177.7870  139.3010 C   0  0  0  0  0  2  0  0  0  0  0  0
  181.8460  177.9270  136.8790 C   0  0  0  0  0  2  0  0  0  0  0  0
  180.8530  179.0410  137.2020 C   0  0  0  0  0  2  0  0  0  0  0  0
  181.7360  174.9400  136.8480 N   0  0  0  0  0  0  0  0  0  0  0  0
  182.3010  175.6890  137.9400 C   0  0  0  0  0  0  0  0  0  0  0  0
  182.9820  175.0870  138.8180 O   0  0  0  0  0  0  0  0  0  0  0  0
  187.4970  171.0780  136.1390 C   0  0  0  0  0  1  0  0  0  0  0  0
  187.6440  172.1140  137.0970 O   0  0  0  0  0  0  0  0  0  0  0  0
  195.0460  175.1230  136.5840 C   0  0  0  0  0  0  0  0  0  0  0  0
  196.0960  174.5380  135.7060 C   0  0  0  0  0  1  0  0  0  0  0  0
  194.0240  175.5240  138.8660 C   0  0  0  0  0  2  0  0  0  0  0  0
  193.0000  176.5380  136.8420 C   0  0  0  0  0  2  0  0  0  0  0  0
  194.9630  174.6630  138.0220 C   0  0  0  0  0  2  0  0  0  0  0  0
  194.1040  175.9080  136.0330 C   0  0  0  0  0  3  0  0  0  0  0  0
  192.7140  175.7450  138.1170 C   0  0  2  0  0  3  0  0  0  0  0  0
  189.7050  177.4610  139.7900 C   0  0  0  0  0  2  0  0  0  0  0  0
  188.7960  179.2570  141.9320 C   0  0  0  0  0  1  0  0  0  0  0  0
  189.7370  178.1890  142.2360 N   0  0  0  0  0  0  0  0  0  0  0  0
  190.9560  176.3350  141.4940 O   0  0  0  0  0  0  0  0  0  0  0  0
  190.1600  177.2730  141.2100 C   0  0  0  0  0  0  0  0  0  0  0  0
  191.6060  177.9630  143.6290 O   0  0  0  0  0  1  0  0  0  0  0  0
  190.2130  178.0780  143.6150 C   0  0  2  0  0  3  0  0  0  0  0  0
  188.5780  177.5370  146.5810 C   0  0  0  0  0  0  0  0  0  0  0  0
  189.6600  177.0550  145.7870 N   0  0  0  0  0  2  0  0  0  0  0  0
  188.7590  177.7970  147.7980 O   0  0  0  0  0  0  0  0  0  0  0  0
  189.5640  176.8930  144.3400 C   0  0  1  0  0  3  0  0  0  0  0  0
  187.8600  175.7890  142.9710 C   0  0  0  0  0  2  0  0  0  0  0  0
  188.1320  176.6920  143.9070 C   0  0  0  0  0  0  0  0  0  0  0  0
  187.2830  177.7030  146.0040 N   0  0  0  0  0  2  0  0  0  0  0  0
  186.9950  177.4070  144.5990 C   0  0  1  0  0  3  0  0  0  0  0  0
  185.9020  178.2410  142.4810 C   0  0  0  0  0  2  0  0  0  0  0  0
  184.2290  179.0670  144.9490 C   0  0  0  0  0  2  0  0  0  0  0  0
  185.6080  179.5880  144.6760 C   0  0  0  0  0  2  0  0  0  0  0  0
  186.4890  178.6400  143.8410 C   0  0  1  0  0  3  0  0  0  0  0  0
  183.3120  178.7880  144.0170 C   0  0  0  0  0  0  0  0  0  0  0  0
  184.8390  179.2150  141.9880 C   0  0  0  0  0  2  0  0  0  0  0  0
  181.9830  178.3070  144.4710 C   0  0  0  0  0  1  0  0  0  0  0  0
  183.5570  178.8940  142.6070 N   0  0  0  0  0  0  0  0  0  0  0  0
  2  1  2  0  0  0  0
  2 37  1  0  0  0  0
  4  9  2  0  0  0  0
  5  6  1  0  0  0  0
  5  8  2  0  0  0  0
  6 12  1  0  0  0  0
  7  3  1  1  0  0  0
  7 10  1  0  0  0  0
  7  4  1  0  0  0  0
  8  9  1  0  0  0  0
  9  2  1  0  0  0  0
 10  6  2  0  0  0  0
 10 29  1  0  0  0  0
 11 14  1  0  0  0  0
 11 12  1  0  0  0  0
 13 11  2  0  0  0  0
 15 22  1  0  0  0  0
 16 20  1  0  0  0  0
 17 14  1  0  0  0  0
 17 25  1  0  0  0  0
 18 21  1  0  0  0  0
 18 19  2  0  0  0  0
 19 25  1  0  0  0  0
 21 17  2  0  0  0  0
 22 20  1  0  0  0  0
 23 24  1  0  0  0  0
 23 15  1  0  0  0  0
 24 16  1  0  0  0  0
 25 26  1  0  0  0  0
 26 15  1  0  0  0  0
 26 27  2  0  0  0  0
 28 29  1  0  0  0  0
 30 34  1  0  0  0  0
 31 30  1  0  0  0  0
 33 36  1  0  0  0  0
 34 32  1  0  0  0  0
 35 30  2  0  0  0  0
 35 33  1  0  0  0  0
 36 32  1  0  0  0  0
 36  1  1  1  0  0  0
 37 41  1  0  0  0  0
 38 39  1  0  0  0  0
 39 43  1  0  0  0  0
 41 40  2  0  0  0  0
 41 39  1  0  0  0  0
 43 42  1  6  0  0  0
 44 46  2  0  0  0  0
 45 44  1  0  0  0  0
 47 43  1  6  0  0  0
 47 45  1  0  0  0  0
 48 49  2  0  0  0  0
 49 47  1  0  0  0  0
 50 44  1  0  0  0  0
 51 49  1  6  0  0  0
 51 50  1  0  0  0  0
 54 53  1  0  0  0  0
 55 52  1  6  0  0  0
 55 51  1  0  0  0  0
 55 54  1  0  0  0  0
 56 58  1  0  0  0  0
 56 53  1  0  0  0  0
 57 52  1  0  0  0  0
 57 59  1  0  0  0  0
 59 56  2  0  0  0  0
M  END
>  <MODEL>
8

>  <REMARK>
 VINA RESULT:      -7.0      3.788     10.610
  Name = 
  11 active torsions:
  status: ('A' for Active; 'I' for Inactive)
    1  A    between atoms: O_6  and  C_55
    2  A    between atoms: C_12  and  C_40
    3  A    between atoms: N_18  and  C_48
    4  A    between atoms: N_19  and  C_28
    5  A    between atoms: C_20  and  C_40
    6  A    between atoms: C_24  and  C_48
    7  A    between atoms: C_30  and  C_59
    8  A    between atoms: C_32  and  C_57
    9  A    between atoms: C_34  and  C_43
   10  A    between atoms: C_43  and  C_58
   11  A    between atoms: C_51  and  C_58
                            x       y       z     vdW  Elec       q    Type
                         _______ _______ _______ _____ _____    ______ ____

>  <TORSDO>
F 11

$$$$
=
 OpenBabel10232409103D

 59 64  0  0  1  0  0  0  0  0999 V2000
  189.0140  173.8440  135.1600 C   0  0  0  0  0  3  0  0  0  0  0  0
  189.6460  175.0310  135.1470 C   0  0  0  0  0  0  0  0  0  0  0  0
  186.3180  178.8850  134.3460 Cl  0  0  0  0  0  0  0  0  0  0  0  0
  187.9710  176.8530  135.1070 C   0  0  0  0  0  3  0  0  0  0  0  0
  189.3040  177.7820  137.7070 C   0  0  0  0  0  3  0  0  0  0  0  0
  187.8710  178.0620  137.9600 C   0  0  0  0  0  0  0  0  0  0  0  0
  187.4340  178.1710  135.5420 C   0  0  2  0  0  3  0  0  0  0  0  0
  189.8200  177.0330  136.7200 C   0  0  0  0  0  3  0  0  0  0  0  0
  189.0790  176.3240  135.6430 C   0  0  0  0  0  0  0  0  0  0  0  0
  186.9550  178.1220  136.9730 C   0  0  0  0  0  0  0  0  0  0  0  0
  188.1780  177.5420  140.4360 C   0  0  0  0  0  0  0  0  0  0  0  0
  187.4780  178.1370  139.3360 N   0  0  0  0  0  2  0  0  0  0  0  0
  189.0710  176.6780  140.2370 O   0  0  0  0  0  0  0  0  0  0  0  0
  187.8180  177.9250  141.8330 C   0  0  0  0  0  2  0  0  0  0  0  0
  188.0870  177.9600  146.2940 N   0  0  0  0  0  0  0  0  0  0  0  0
  188.5280  177.6400  149.0900 C   0  0  0  0  0  2  0  0  0  0  0  0
  189.0460  178.1480  142.6610 C   0  0  0  0  0  0  0  0  0  0  0  0
  191.1590  178.3930  143.2390 C   0  0  0  0  0  3  0  0  0  0  0  0
  190.3540  178.4250  144.3650 C   0  0  0  0  0  3  0  0  0  0  0  0
  187.5160  178.6570  148.5720 C   0  0  0  0  0  2  0  0  0  0  0  0
  190.3260  178.2130  142.1470 C   0  0  0  0  0  3  0  0  0  0  0  0
  186.9780  178.2130  147.2140 C   0  0  0  0  0  2  0  0  0  0  0  0
  189.1500  177.0580  146.7370 C   0  0  0  0  0  2  0  0  0  0  0  0
  189.6800  177.5020  148.0990 C   0  0  0  0  0  2  0  0  0  0  0  0
  189.0660  178.2680  144.0050 N   0  0  0  0  0  0  0  0  0  0  0  0
  187.9380  178.2820  144.8990 C   0  0  0  0  0  0  0  0  0  0  0  0
  186.8000  178.6060  144.4570 O   0  0  0  0  0  0  0  0  0  0  0  0
  184.5860  177.5100  136.5010 C   0  0  0  0  0  1  0  0  0  0  0  0
  185.5930  178.0890  137.3160 O   0  0  0  0  0  0  0  0  0  0  0  0
  185.2890  172.1710  136.4740 C   0  0  0  0  0  0  0  0  0  0  0  0
  183.9360  171.7180  136.8990 C   0  0  0  0  0  1  0  0  0  0  0  0
  187.6480  172.9250  136.9980 C   0  0  0  0  0  2  0  0  0  0  0  0
  186.9150  172.6600  134.6390 C   0  0  0  0  0  2  0  0  0  0  0  0
  186.2210  172.7470  137.5150 C   0  0  0  0  0  2  0  0  0  0  0  0
  185.5750  172.2100  135.1610 C   0  0  0  0  0  3  0  0  0  0  0  0
  187.6210  173.5890  135.6270 C   0  0  2  0  0  3  0  0  0  0  0  0
  191.0240  175.0290  134.5550 C   0  0  0  0  0  2  0  0  0  0  0  0
  193.6540  176.1230  135.2790 C   0  0  0  0  0  1  0  0  0  0  0  0
  193.2960  174.7740  135.6910 N   0  0  0  0  0  0  0  0  0  0  0  0
  191.6890  173.0750  135.7700 O   0  0  0  0  0  0  0  0  0  0  0  0
  191.9970  174.2360  135.3830 C   0  0  0  0  0  0  0  0  0  0  0  0
  194.0100  174.0640  137.8050 O   0  0  0  0  0  1  0  0  0  0  0  0
  194.2920  174.0050  136.4380 C   0  0  2  0  0  3  0  0  0  0  0  0
  197.1880  174.4760  138.2150 C   0  0  0  0  0  0  0  0  0  0  0  0
  196.2820  175.1440  137.3380 N   0  0  0  0  0  2  0  0  0  0  0  0
  197.5320  175.0200  139.2950 O   0  0  0  0  0  0  0  0  0  0  0  0
  195.7140  174.5040  136.1550 C   0  0  1  0  0  3  0  0  0  0  0  0
  196.7930  173.2560  134.3470 C   0  0  0  0  0  2  0  0  0  0  0  0
  196.6050  173.3930  135.6550 C   0  0  0  0  0  0  0  0  0  0  0  0
  197.7230  173.2010  137.8580 N   0  0  0  0  0  2  0  0  0  0  0  0
  197.3780  172.5160  136.6110 C   0  0  1  0  0  3  0  0  0  0  0  0
  195.8770  170.7230  135.6590 C   0  0  0  0  0  2  0  0  0  0  0  0
  198.6400  169.5340  136.3830 C   0  0  0  0  0  2  0  0  0  0  0  0
  197.6810  170.0730  137.4030 C   0  0  0  0  0  2  0  0  0  0  0  0
  196.7230  171.1520  136.8640 C   0  0  1  0  0  3  0  0  0  0  0  0
  198.2940  168.8870  135.2670 C   0  0  0  0  0  0  0  0  0  0  0  0
  195.7530  169.2090  135.5330 C   0  0  0  0  0  2  0  0  0  0  0  0
  199.3800  168.3960  134.3820 C   0  0  0  0  0  1  0  0  0  0  0  0
  196.9330  168.6760  134.8610 N   0  0  0  0  0  0  0  0  0  0  0  0
  2  1  2  0  0  0  0
  2  9  1  0  0  0  0
  4  7  1  0  0  0  0
  4  9  2  0  0  0  0
  5  6  1  0  0  0  0
  6 12  1  0  0  0  0
  7  3  1  6  0  0  0
  7 10  1  0  0  0  0
  8  5  2  0  0  0  0
  9  8  1  0  0  0  0
 10 29  1  0  0  0  0
 10  6  2  0  0  0  0
 11 14  1  0  0  0  0
 12 11  1  0  0  0  0
 13 11  2  0  0  0  0
 14 17  1  0  0  0  0
 15 23  1  0  0  0  0
 15 22  1  0  0  0  0
 17 25  1  0  0  0  0
 18 19  2  0  0  0  0
 20 16  1  0  0  0  0
 21 17  2  0  0  0  0
 21 18  1  0  0  0  0
 22 20  1  0  0  0  0
 23 24  1  0  0  0  0
 24 16  1  0  0  0  0
 25 19  1  0  0  0  0
 25 26  1  0  0  0  0
 26 15  1  0  0  0  0
 27 26  2  0  0  0  0
 28 29  1  0  0  0  0
 30 31  1  0  0  0  0
 30 34  1  0  0  0  0
 32 34  1  0  0  0  0
 33 35  1  0  0  0  0
 33 36  1  0  0  0  0
 35 30  2  0  0  0  0
 36  1  1  6  0  0  0
 36 32  1  0  0  0  0
 37  2  1  0  0  0  0
 37 41  1  0  0  0  0
 38 39  1  0  0  0  0
 39 43  1  0  0  0  0
 41 39  1  0  0  0  0
 41 40  2  0  0  0  0
 43 42  1  1  0  0  0
 44 46  2  0  0  0  0
 45 44  1  0  0  0  0
 47 43  1  1  0  0  0
 47 45  1  0  0  0  0
 48 49  2  0  0  0  0
 49 47  1  0  0  0  0
 50 44  1  0  0  0  0
 51 49  1  1  0  0  0
 51 55  1  0  0  0  0
 51 50  1  0  0  0  0
 53 54  1  0  0  0  0
 55 52  1  6  0  0  0
 55 54  1  0  0  0  0
 56 53  1  0  0  0  0
 57 52  1  0  0  0  0
 58 56  1  0  0  0  0
 59 56  2  0  0  0  0
 59 57  1  0  0  0  0
M  END
>  <MODEL>
9

>  <REMARK>
 VINA RESULT:      -7.0      1.927      2.818
  Name = 
  11 active torsions:
  status: ('A' for Active; 'I' for Inactive)
    1  A    between atoms: O_6  and  C_55
    2  A    between atoms: C_12  and  C_40
    3  A    between atoms: N_18  and  C_48
    4  A    between atoms: N_19  and  C_28
    5  A    between atoms: C_20  and  C_40
    6  A    between atoms: C_24  and  C_48
    7  A    between atoms: C_30  and  C_59
    8  A    between atoms: C_32  and  C_57
    9  A    between atoms: C_34  and  C_43
   10  A    between atoms: C_43  and  C_58
   11  A    between atoms: C_51  and  C_58
                            x       y       z     vdW  Elec       q    Type
                         _______ _______ _______ _____ _____    ______ ____

>  <TORSDO>
F 11

$$$$
