=
 OpenBabel10232411183D

 50 55  0  0  1  0  0  0  0  0999 V2000
  182.8000  178.7590  144.3440 C   0  0  0  0  0  2  0  0  0  0  0  0
  185.0070  178.4380  145.8230 N   0  0  0  0  0  2  0  0  0  0  0  0
  183.7880  179.6470  143.8670 C   0  0  2  0  0  3  0  0  0  0  0  0
  184.7660  178.9900  142.9800 N   0  0  0  0  0  0  0  0  0  0  0  0
  186.0590  178.0490  144.9220 C   0  0  0  0  0  0  0  0  0  0  0  0
  187.1860  177.3920  145.4190 C   0  0  0  0  0  3  0  0  0  0  0  0
  184.0300  179.0090  145.2220 C   0  0  1  0  0  3  0  0  0  0  0  0
  188.1010  177.2110  143.1770 C   0  0  0  0  0  0  0  0  0  0  0  0
  185.9440  178.3020  143.5160 C   0  0  0  0  0  0  0  0  0  0  0  0
  186.9720  177.8700  142.6660 C   0  0  0  0  0  3  0  0  0  0  0  0
  188.2000  176.9770  144.5520 C   0  0  0  0  0  3  0  0  0  0  0  0
  184.5900  179.1620  141.5430 C   0  0  0  0  0  2  0  0  0  0  0  0
  183.5950  178.1480  141.0130 C   0  0  0  0  0  2  0  0  0  0  0  0
  182.7840  178.7710  139.8810 C   0  0  0  0  0  2  0  0  0  0  0  0
  182.7440  177.9330  138.6790 N   0  0  0  0  0  0  0  0  0  0  0  0
  181.0470  177.1060  137.5800 C   0  0  0  0  0  1  0  0  0  0  0  0
  181.7290  177.0390  138.7980 O   0  0  0  0  0  0  0  0  0  0  0  0
  183.9920  177.1830  138.5910 C   0  0  0  0  0  2  0  0  0  0  0  0
  184.7830  177.6190  137.3670 C   0  0  0  0  0  2  0  0  0  0  0  0
  185.8610  176.6780  137.0880 N   0  0  0  0  0  0  0  0  0  0  0  0
  184.3560  175.0310  136.3780 O   0  0  0  0  0  1  0  0  0  0  0  0
  186.5690  174.4680  136.2840 O   0  0  0  0  0  0  0  0  0  0  0  0
  185.5530  175.3710  136.5710 C   0  0  0  0  0  0  0  0  0  0  0  0
  189.0430  178.7480  136.7300 C   0  0  0  0  0  2  0  0  0  0  0  0
  187.4160  177.5470  138.7870 C   0  0  0  0  0  2  0  0  0  0  0  0
  187.2380  177.1130  137.3310 C   0  0  2  0  0  3  0  0  0  0  0  0
  187.7030  177.6890  134.9370 C   0  0  0  0  0  1  0  0  0  0  0  0
  189.0460  179.2370  138.1070 N   0  0  0  0  0  2  0  0  0  0  0  0
  188.8230  178.1000  138.9960 C   0  0  0  0  0  2  0  0  0  0  0  0
  187.6590  178.2230  136.3560 C   0  0  2  0  0  3  0  0  0  0  0  0
  189.1320  176.7760  142.3410 O   0  0  0  0  0  0  0  0  0  0  0  0
  190.1930  175.9500  142.8010 C   0  0  0  0  0  2  0  0  0  0  0  0
  191.5100  176.6770  142.6260 C   0  0  0  0  0  2  0  0  0  0  0  0
  191.4110  177.6190  141.4400 C   0  0  0  0  0  2  0  0  0  0  0  0
  192.5130  177.3920  140.5210 N   0  0  0  0  0  2  0  0  0  0  0  0
  192.1030  176.4500  138.1250 C   0  0  0  0  0  0  0  0  0  0  0  0
  192.2940  176.8850  139.2320 C   0  0  0  0  0  0  0  0  0  0  0  0
  191.8670  175.9220  136.7770 C   0  0  2  0  0  3  0  0  0  0  0  0
  190.6590  175.2220  136.7350 O   0  0  0  0  0  1  0  0  0  0  0  0
  194.3230  175.7940  135.9990 C   0  0  1  0  0  0  0  0  0  0  0  0
  193.0310  175.0450  136.3110 C   0  0  1  0  0  3  0  0  0  0  0  0
  194.6830  173.8140  137.2170 C   0  0  2  0  0  3  0  0  0  0  0  0
  195.3960  175.0590  136.7330 C   0  0  1  0  0  3  0  0  0  0  0  0
  195.4170  175.0990  135.2140 C   0  0  2  0  0  3  0  0  0  0  0  0
  193.2970  174.0520  137.2670 O   0  0  0  0  0  0  0  0  0  0  0  0
  194.4230  177.1720  136.2140 O   0  0  0  0  0  1  0  0  0  0  0  0
  196.3740  176.0230  134.7870 O   0  0  0  0  0  1  0  0  0  0  0  0
  195.1870  173.4220  138.5650 C   0  0  0  0  0  0  0  0  0  0  0  0
  195.0980  172.2280  138.9590 O   0  0  0  0  0  0  0  0  0  0  0  0
  195.7390  174.3840  139.3980 O   0  0  0  0  0  1  0  0  0  0  0  0
  3  1  1  6  0  0  0
  3  7  1  0  0  0  0
  4  9  1  0  0  0  0
  4  3  1  0  0  0  0
  5  6  1  0  0  0  0
  5  2  1  0  0  0  0
  7  1  1  6  0  0  0
  7  2  1  0  0  0  0
  8 11  1  0  0  0  0
  9  5  2  0  0  0  0
 10  8  2  0  0  0  0
 10  9  1  0  0  0  0
 11  6  2  0  0  0  0
 12  4  1  0  0  0  0
 13 12  1  0  0  0  0
 14 13  1  0  0  0  0
 15 17  1  0  0  0  0
 15 14  1  0  0  0  0
 16 17  1  0  0  0  0
 18 15  1  0  0  0  0
 19 18  1  0  0  0  0
 20 19  1  0  0  0  0
 21 23  1  0  0  0  0
 22 23  2  0  0  0  0
 23 20  1  0  0  0  0
 24 28  1  0  0  0  0
 25 29  1  0  0  0  0
 26 20  1  1  0  0  0
 26 25  1  0  0  0  0
 28 29  1  0  0  0  0
 30 27  1  6  0  0  0
 30 24  1  0  0  0  0
 30 26  1  0  0  0  0
 31 32  1  0  0  0  0
 31  8  1  0  0  0  0
 33 32  1  0  0  0  0
 34 33  1  0  0  0  0
 35 34  1  0  0  0  0
 36 37  3  0  0  0  0
 37 35  1  0  0  0  0
 38 39  1  1  0  0  0
 38 36  1  0  0  0  0
 40 46  1  1  0  0  0
 40 41  1  0  0  0  0
 40 43  1  0  0  0  0
 41 38  1  1  0  0  0
 41 45  1  0  0  0  0
 42 45  1  0  0  0  0
 42 48  1  1  0  0  0
 43 42  1  0  0  0  0
 44 40  1  0  0  0  0
 44 43  1  0  0  0  0
 47 44  1  0  0  0  0
 48 49  2  0  0  0  0
 48 50  1  0  0  0  0
M  END
>  <MODEL>
1

>  <REMARK>
 VINA RESULT:      -7.3      0.000      0.000
  Name = 
  18 active torsions:
  status: ('A' for Active; 'I' for Inactive)
    1  A    between atoms: C_1  and  C_14
    2  A    between atoms: C_2  and  C_15
    3  A    between atoms: C_2  and  N_24
    4  A    between atoms: O_3  and  C_39
    5  A    between atoms: O_3  and  C_48
    6  A    between atoms: C_6  and  C_17
    7  A    between atoms: C_8  and  C_17
    8  A    between atoms: C_11  and  N_16
    9  A    between atoms: C_13  and  N_24
   10  A    between atoms: C_13  and  C_34
   11  A    between atoms: C_15  and  N_16
   12  A    between atoms: N_24  and  O_32
   13  A    between atoms: N_25  and  C_49
   14  A    between atoms: N_30  and  C_33
   15  A    between atoms: N_30  and  C_46
   16  A    between atoms: C_34  and  C_49
   17  A    between atoms: C_46  and  C_50
   18  A    between atoms: C_48  and  C_50
                            x       y       z     vdW  Elec       q    Type
                         _______ _______ _______ _____ _____    ______ ____

>  <TORSDO>
F 18

$$$$
=
 OpenBabel10232411183D

 50 55  0  0  1  0  0  0  0  0999 V2000
  191.5370  177.4260  144.7040 C   0  0  0  0  0  2  0  0  0  0  0  0
  190.5410  177.3600  147.1870 N   0  0  0  0  0  2  0  0  0  0  0  0
  190.4920  176.4780  144.7390 C   0  0  2  0  0  3  0  0  0  0  0  0
  189.1560  177.0980  144.6460 N   0  0  0  0  0  0  0  0  0  0  0  0
  189.1480  177.7070  147.0860 C   0  0  0  0  0  0  0  0  0  0  0  0
  188.4730  178.1850  148.2110 C   0  0  0  0  0  3  0  0  0  0  0  0
  191.0310  176.9600  146.0720 C   0  0  1  0  0  3  0  0  0  0  0  0
  186.4450  178.4640  146.9050 C   0  0  0  0  0  0  0  0  0  0  0  0
  188.4590  177.5970  145.8340 C   0  0  0  0  0  0  0  0  0  0  0  0
  187.1140  177.9860  145.7680 C   0  0  0  0  0  3  0  0  0  0  0  0
  187.1300  178.5600  148.1200 C   0  0  0  0  0  3  0  0  0  0  0  0
  188.4970  177.0780  143.3460 C   0  0  0  0  0  2  0  0  0  0  0  0
  189.4650  176.6120  142.2760 C   0  0  0  0  0  2  0  0  0  0  0  0
  189.8520  177.7910  141.3880 C   0  0  0  0  0  2  0  0  0  0  0  0
  189.9690  177.4250  139.9740 N   0  0  0  0  0  0  0  0  0  0  0  0
  191.6340  176.3770  139.0220 C   0  0  0  0  0  1  0  0  0  0  0  0
  191.2570  177.6030  139.5770 O   0  0  0  0  0  0  0  0  0  0  0  0
  189.1320  178.3240  139.1880 C   0  0  0  0  0  2  0  0  0  0  0  0
  187.8070  177.6530  138.8560 C   0  0  0  0  0  2  0  0  0  0  0  0
  187.7430  177.3140  137.4400 N   0  0  0  0  0  0  0  0  0  0  0  0
  187.5140  179.5610  136.8230 O   0  0  0  0  0  1  0  0  0  0  0  0
  187.5570  178.0540  135.1050 O   0  0  0  0  0  0  0  0  0  0  0  0
  187.6020  178.3590  136.4600 C   0  0  0  0  0  0  0  0  0  0  0  0
  186.8270  174.0130  135.7640 C   0  0  0  0  0  2  0  0  0  0  0  0
  189.1450  175.6450  136.2960 C   0  0  0  0  0  2  0  0  0  0  0  0
  187.8460  175.9030  137.0610 C   0  0  2  0  0  3  0  0  0  0  0  0
  185.3770  175.4840  137.1310 C   0  0  0  0  0  1  0  0  0  0  0  0
  188.0390  173.9290  134.9520 N   0  0  0  0  0  2  0  0  0  0  0  0
  189.1860  174.1980  135.8150 C   0  0  0  0  0  2  0  0  0  0  0  0
  186.6190  175.4420  136.2610 C   0  0  2  0  0  3  0  0  0  0  0  0
  185.1040  178.8540  146.8520 O   0  0  0  0  0  0  0  0  0  0  0  0
  184.1220  178.1170  146.1350 C   0  0  0  0  0  2  0  0  0  0  0  0
  183.3790  179.0470  145.1990 C   0  0  0  0  0  2  0  0  0  0  0  0
  184.3710  179.7270  144.2730 C   0  0  0  0  0  2  0  0  0  0  0  0
  185.0060  178.7480  143.4070 N   0  0  0  0  0  2  0  0  0  0  0  0
  184.4620  178.6450  140.8590 C   0  0  0  0  0  0  0  0  0  0  0  0
  184.7140  178.6920  142.0360 C   0  0  0  0  0  0  0  0  0  0  0  0
  184.1530  178.5920  139.4260 C   0  0  2  0  0  3  0  0  0  0  0  0
  184.9340  179.5160  138.7270 O   0  0  0  0  0  1  0  0  0  0  0  0
  181.8380  177.5540  138.9590 C   0  0  1  0  0  0  0  0  0  0  0  0
  182.6620  178.8200  139.1690 C   0  0  1  0  0  3  0  0  0  0  0  0
  180.7720  179.1190  140.3550 C   0  0  2  0  0  3  0  0  0  0  0  0
  180.6610  177.6900  139.8680 C   0  0  1  0  0  3  0  0  0  0  0  0
  180.4480  177.6590  138.3640 C   0  0  2  0  0  3  0  0  0  0  0  0
  182.1020  179.5620  140.2220 O   0  0  0  0  0  0  0  0  0  0  0  0
  182.4220  176.2900  139.0810 O   0  0  0  0  0  1  0  0  0  0  0  0
  179.9820  176.3980  137.9870 O   0  0  0  0  0  1  0  0  0  0  0  0
  180.3390  179.2150  141.7790 C   0  0  0  0  0  0  0  0  0  0  0  0
  180.2080  180.3380  142.3340 O   0  0  0  0  0  0  0  0  0  0  0  0
  180.0990  178.0560  142.5030 O   0  0  0  0  0  1  0  0  0  0  0  0
  3  1  1  6  0  0  0
  3  7  1  0  0  0  0
  4  3  1  0  0  0  0
  4  9  1  0  0  0  0
  5  2  1  0  0  0  0
  5  6  1  0  0  0  0
  7  1  1  6  0  0  0
  7  2  1  0  0  0  0
  8 11  1  0  0  0  0
  9  5  2  0  0  0  0
 10  9  1  0  0  0  0
 10  8  2  0  0  0  0
 11  6  2  0  0  0  0
 12  4  1  0  0  0  0
 13 12  1  0  0  0  0
 14 13  1  0  0  0  0
 15 14  1  0  0  0  0
 16 17  1  0  0  0  0
 17 15  1  0  0  0  0
 18 15  1  0  0  0  0
 19 18  1  0  0  0  0
 20 19  1  0  0  0  0
 22 23  2  0  0  0  0
 23 21  1  0  0  0  0
 23 20  1  0  0  0  0
 24 30  1  0  0  0  0
 25 26  1  0  0  0  0
 26 20  1  6  0  0  0
 28 24  1  0  0  0  0
 28 29  1  0  0  0  0
 29 25  1  0  0  0  0
 30 26  1  0  0  0  0
 30 27  1  1  0  0  0
 31  8  1  0  0  0  0
 32 31  1  0  0  0  0
 33 32  1  0  0  0  0
 34 33  1  0  0  0  0
 35 34  1  0  0  0  0
 36 37  3  0  0  0  0
 37 35  1  0  0  0  0
 38 39  1  6  0  0  0
 38 36  1  0  0  0  0
 40 46  1  6  0  0  0
 40 41  1  0  0  0  0
 40 43  1  0  0  0  0
 41 38  1  1  0  0  0
 41 45  1  0  0  0  0
 42 48  1  1  0  0  0
 43 42  1  0  0  0  0
 44 40  1  0  0  0  0
 44 43  1  0  0  0  0
 45 42  1  0  0  0  0
 47 44  1  0  0  0  0
 48 49  2  0  0  0  0
 48 50  1  0  0  0  0
M  END
>  <MODEL>
2

>  <REMARK>
 VINA RESULT:      -7.1      2.976      8.873
  Name = 
  18 active torsions:
  status: ('A' for Active; 'I' for Inactive)
    1  A    between atoms: C_1  and  C_14
    2  A    between atoms: C_2  and  C_15
    3  A    between atoms: C_2  and  N_24
    4  A    between atoms: O_3  and  C_39
    5  A    between atoms: O_3  and  C_48
    6  A    between atoms: C_6  and  C_17
    7  A    between atoms: C_8  and  C_17
    8  A    between atoms: C_11  and  N_16
    9  A    between atoms: C_13  and  N_24
   10  A    between atoms: C_13  and  C_34
   11  A    between atoms: C_15  and  N_16
   12  A    between atoms: N_24  and  O_32
   13  A    between atoms: N_25  and  C_49
   14  A    between atoms: N_30  and  C_33
   15  A    between atoms: N_30  and  C_46
   16  A    between atoms: C_34  and  C_49
   17  A    between atoms: C_46  and  C_50
   18  A    between atoms: C_48  and  C_50
                            x       y       z     vdW  Elec       q    Type
                         _______ _______ _______ _____ _____    ______ ____

>  <TORSDO>
F 18

$$$$
=
 OpenBabel10232411183D

 50 55  0  0  1  0  0  0  0  0999 V2000
  182.6570  178.7820  144.2300 C   0  0  0  0  0  2  0  0  0  0  0  0
  184.6080  178.6930  146.0590 N   0  0  0  0  0  2  0  0  0  0  0  0
  183.7020  179.6310  143.8070 C   0  0  2  0  0  3  0  0  0  0  0  0
  184.8100  178.8960  143.1680 N   0  0  0  0  0  0  0  0  0  0  0  0
  185.7900  178.2240  145.3850 C   0  0  0  0  0  0  0  0  0  0  0  0
  186.8280  177.6580  146.1260 C   0  0  0  0  0  3  0  0  0  0  0  0
  183.7340  179.1640  145.2500 C   0  0  1  0  0  3  0  0  0  0  0  0
  188.0820  177.2320  144.0910 C   0  0  0  0  0  0  0  0  0  0  0  0
  185.8940  178.3050  143.9580 C   0  0  0  0  0  0  0  0  0  0  0  0
  187.0430  177.7990  143.3360 C   0  0  0  0  0  3  0  0  0  0  0  0
  187.9670  177.1670  145.4820 C   0  0  0  0  0  3  0  0  0  0  0  0
  184.8590  178.8910  141.7110 C   0  0  0  0  0  2  0  0  0  0  0  0
  183.9520  177.8090  141.1600 C   0  0  0  0  0  2  0  0  0  0  0  0
  182.8370  178.4460  140.3360 C   0  0  0  0  0  2  0  0  0  0  0  0
  182.7240  177.8750  138.9910 N   0  0  0  0  0  0  0  0  0  0  0  0
  181.5570  178.7960  137.3900 C   0  0  0  0  0  1  0  0  0  0  0  0
  181.4470  178.0280  138.5520 O   0  0  0  0  0  0  0  0  0  0  0  0
  183.0030  176.4450  139.0660 C   0  0  0  0  0  2  0  0  0  0  0  0
  184.0630  176.0630  138.0440 C   0  0  0  0  0  2  0  0  0  0  0  0
  183.4770  175.2820  136.9610 N   0  0  0  0  0  0  0  0  0  0  0  0
  183.8580  176.9910  135.4070 O   0  0  0  0  0  1  0  0  0  0  0  0
  182.8810  175.0950  134.5860 O   0  0  0  0  0  0  0  0  0  0  0  0
  183.4210  175.8320  135.6330 C   0  0  0  0  0  0  0  0  0  0  0  0
  181.1270  172.2790  136.9390 C   0  0  0  0  0  2  0  0  0  0  0  0
  183.9420  172.8750  136.7440 C   0  0  0  0  0  2  0  0  0  0  0  0
  182.9770  173.9400  137.2680 C   0  0  2  0  0  3  0  0  0  0  0  0
  180.5790  174.6410  137.4430 C   0  0  0  0  0  1  0  0  0  0  0  0
  182.0700  171.3700  136.2920 N   0  0  0  0  0  2  0  0  0  0  0  0
  183.3560  171.4850  136.9740 C   0  0  0  0  0  2  0  0  0  0  0  0
  181.5560  173.7290  136.7260 C   0  0  2  0  0  3  0  0  0  0  0  0
  189.2340  176.7250  143.4820 O   0  0  0  0  0  0  0  0  0  0  0  0
  190.4820  176.6440  144.1570 C   0  0  0  0  0  2  0  0  0  0  0  0
  191.5940  177.0360  143.2070 C   0  0  0  0  0  2  0  0  0  0  0  0
  190.9930  177.5790  141.9240 C   0  0  0  0  0  2  0  0  0  0  0  0
  191.9850  177.5820  140.8630 N   0  0  0  0  0  2  0  0  0  0  0  0
  191.4690  176.5400  138.5290 C   0  0  0  0  0  0  0  0  0  0  0  0
  191.7090  177.0220  139.6070 C   0  0  0  0  0  0  0  0  0  0  0  0
  191.1750  175.9530  137.2180 C   0  0  2  0  0  3  0  0  0  0  0  0
  192.2460  176.1540  136.3450 O   0  0  0  0  0  1  0  0  0  0  0  0
  188.7350  175.5080  136.5060 C   0  0  1  0  0  0  0  0  0  0  0  0
  189.8740  176.5140  136.6370 C   0  0  1  0  0  3  0  0  0  0  0  0
  188.0300  177.5850  137.3550 C   0  0  2  0  0  3  0  0  0  0  0  0
  187.5480  176.1680  137.1270 C   0  0  1  0  0  3  0  0  0  0  0  0
  187.5370  175.8470  135.6420 C   0  0  2  0  0  3  0  0  0  0  0  0
  189.4360  177.6040  137.4050 O   0  0  0  0  0  0  0  0  0  0  0  0
  188.8790  174.1970  136.9700 O   0  0  0  0  0  1  0  0  0  0  0  0
  186.7580  174.7080  135.4190 O   0  0  0  0  0  1  0  0  0  0  0  0
  187.4630  178.1250  138.6250 C   0  0  0  0  0  0  0  0  0  0  0  0
  186.3190  178.6520  138.6420 O   0  0  0  0  0  0  0  0  0  0  0  0
  188.2120  178.0650  139.7920 O   0  0  0  0  0  1  0  0  0  0  0  0
  3  1  1  6  0  0  0
  3  7  1  0  0  0  0
  4  3  1  0  0  0  0
  4  9  1  0  0  0  0
  5  2  1  0  0  0  0
  5  6  1  0  0  0  0
  7  1  1  6  0  0  0
  7  2  1  0  0  0  0
  8 11  1  0  0  0  0
  9  5  2  0  0  0  0
 10  9  1  0  0  0  0
 10  8  2  0  0  0  0
 11  6  2  0  0  0  0
 12  4  1  0  0  0  0
 13 12  1  0  0  0  0
 14 13  1  0  0  0  0
 15 18  1  0  0  0  0
 15 14  1  0  0  0  0
 16 17  1  0  0  0  0
 17 15  1  0  0  0  0
 19 18  1  0  0  0  0
 20 19  1  0  0  0  0
 21 23  1  0  0  0  0
 22 23  2  0  0  0  0
 23 20  1  0  0  0  0
 25 29  1  0  0  0  0
 25 26  1  0  0  0  0
 26 20  1  6  0  0  0
 28 24  1  0  0  0  0
 28 29  1  0  0  0  0
 30 24  1  0  0  0  0
 30 26  1  0  0  0  0
 30 27  1  1  0  0  0
 31  8  1  0  0  0  0
 31 32  1  0  0  0  0
 33 32  1  0  0  0  0
 34 33  1  0  0  0  0
 35 34  1  0  0  0  0
 36 37  3  0  0  0  0
 37 35  1  0  0  0  0
 38 39  1  6  0  0  0
 38 36  1  0  0  0  0
 40 41  1  0  0  0  0
 40 46  1  1  0  0  0
 40 43  1  0  0  0  0
 41 38  1  1  0  0  0
 41 45  1  0  0  0  0
 42 45  1  0  0  0  0
 42 48  1  1  0  0  0
 43 42  1  0  0  0  0
 44 40  1  0  0  0  0
 44 43  1  0  0  0  0
 47 44  1  0  0  0  0
 48 49  2  0  0  0  0
 48 50  1  0  0  0  0
M  END
>  <MODEL>
3

>  <REMARK>
 VINA RESULT:      -7.1      2.270      4.913
  Name = 
  18 active torsions:
  status: ('A' for Active; 'I' for Inactive)
    1  A    between atoms: C_1  and  C_14
    2  A    between atoms: C_2  and  C_15
    3  A    between atoms: C_2  and  N_24
    4  A    between atoms: O_3  and  C_39
    5  A    between atoms: O_3  and  C_48
    6  A    between atoms: C_6  and  C_17
    7  A    between atoms: C_8  and  C_17
    8  A    between atoms: C_11  and  N_16
    9  A    between atoms: C_13  and  N_24
   10  A    between atoms: C_13  and  C_34
   11  A    between atoms: C_15  and  N_16
   12  A    between atoms: N_24  and  O_32
   13  A    between atoms: N_25  and  C_49
   14  A    between atoms: N_30  and  C_33
   15  A    between atoms: N_30  and  C_46
   16  A    between atoms: C_34  and  C_49
   17  A    between atoms: C_46  and  C_50
   18  A    between atoms: C_48  and  C_50
                            x       y       z     vdW  Elec       q    Type
                         _______ _______ _______ _____ _____    ______ ____

>  <TORSDO>
F 18

$$$$
=
 OpenBabel10232411183D

 50 55  0  0  1  0  0  0  0  0999 V2000
  190.0400  177.9260  147.3020 C   0  0  0  0  0  2  0  0  0  0  0  0
  187.5060  178.1650  148.1280 N   0  0  0  0  0  2  0  0  0  0  0  0
  189.3200  176.7980  146.8570 C   0  0  2  0  0  3  0  0  0  0  0  0
  188.5310  177.0680  145.6400 N   0  0  0  0  0  0  0  0  0  0  0  0
  186.6820  178.1620  146.9490 C   0  0  0  0  0  0  0  0  0  0  0  0
  185.3970  178.7020  147.0030 C   0  0  0  0  0  3  0  0  0  0  0  0
  188.6650  177.6590  147.9200 C   0  0  1  0  0  3  0  0  0  0  0  0
  185.0720  178.2360  144.6430 C   0  0  0  0  0  0  0  0  0  0  0  0
  187.1830  177.6380  145.7120 C   0  0  0  0  0  0  0  0  0  0  0  0
  186.3640  177.6910  144.5760 C   0  0  0  0  0  3  0  0  0  0  0  0
  184.5970  178.7380  145.8580 C   0  0  0  0  0  3  0  0  0  0  0  0
  189.0890  176.6260  144.3680 C   0  0  0  0  0  2  0  0  0  0  0  0
  189.9100  177.7360  143.7420 C   0  0  0  0  0  2  0  0  0  0  0  0
  190.3250  177.3320  142.3300 C   0  0  0  0  0  2  0  0  0  0  0  0
  189.5520  178.0140  141.2900 N   0  0  0  0  0  0  0  0  0  0  0  0
  187.5330  178.4220  140.5600 C   0  0  0  0  0  1  0  0  0  0  0  0
  188.2710  178.1640  141.7180 O   0  0  0  0  0  0  0  0  0  0  0  0
  189.5290  177.1740  140.0980 C   0  0  0  0  0  2  0  0  0  0  0  0
  190.6060  177.6190  139.1200 C   0  0  0  0  0  2  0  0  0  0  0  0
  190.1700  177.4110  137.7440 N   0  0  0  0  0  0  0  0  0  0  0  0
  189.0190  179.4500  137.7110 O   0  0  0  0  0  1  0  0  0  0  0  0
  188.9540  178.2360  135.7760 O   0  0  0  0  0  0  0  0  0  0  0  0
  189.3650  178.4100  137.0920 C   0  0  0  0  0  0  0  0  0  0  0  0
  192.2240  174.2810  137.0210 C   0  0  0  0  0  2  0  0  0  0  0  0
  189.4720  175.1440  137.0890 C   0  0  0  0  0  2  0  0  0  0  0  0
  190.5920  176.1860  137.0630 C   0  0  2  0  0  3  0  0  0  0  0  0
  193.0410  176.5880  137.4010 C   0  0  0  0  0  1  0  0  0  0  0  0
  191.1200  173.3430  137.2160 N   0  0  0  0  0  2  0  0  0  0  0  0
  189.9630  173.8370  136.4740 C   0  0  0  0  0  2  0  0  0  0  0  0
  191.8930  175.6290  137.6580 C   0  0  2  0  0  3  0  0  0  0  0  0
  184.2460  178.2950  143.5170 O   0  0  0  0  0  0  0  0  0  0  0  0
  184.6510  178.9120  142.3030 C   0  0  0  0  0  2  0  0  0  0  0  0
  183.8670  178.3200  141.1510 C   0  0  0  0  0  2  0  0  0  0  0  0
  183.9150  179.2690  139.9680 C   0  0  0  0  0  2  0  0  0  0  0  0
  184.4160  178.5820  138.7890 N   0  0  0  0  0  2  0  0  0  0  0  0
  183.0550  176.6650  137.6620 C   0  0  0  0  0  0  0  0  0  0  0  0
  183.6840  177.5510  138.1810 C   0  0  0  0  0  0  0  0  0  0  0  0
  182.2870  175.5850  137.0330 C   0  0  2  0  0  3  0  0  0  0  0  0
  180.9250  175.7390  137.2990 O   0  0  0  0  0  1  0  0  0  0  0  0
  182.5250  173.0710  136.5050 C   0  0  1  0  0  0  0  0  0  0  0  0
  182.7880  174.2110  137.4830 C   0  0  1  0  0  3  0  0  0  0  0  0
  184.6890  173.0060  137.4250 C   0  0  2  0  0  3  0  0  0  0  0  0
  183.8330  172.3680  136.3510 C   0  0  1  0  0  3  0  0  0  0  0  0
  182.6570  171.6370  136.9770 C   0  0  2  0  0  3  0  0  0  0  0  0
  184.1640  174.2680  137.7600 O   0  0  0  0  0  0  0  0  0  0  0  0
  181.9380  173.3160  135.2590 O   0  0  0  0  0  1  0  0  0  0  0  0
  182.1030  170.7610  136.0410 O   0  0  0  0  0  1  0  0  0  0  0  0
  186.0960  173.1440  136.9510 C   0  0  0  0  0  0  0  0  0  0  0  0
  186.3710  173.8860  135.9710 O   0  0  0  0  0  0  0  0  0  0  0  0
  187.1060  172.4300  137.5810 O   0  0  0  0  0  1  0  0  0  0  0  0
  3  1  1  6  0  0  0
  3  7  1  0  0  0  0
  4  9  1  0  0  0  0
  4  3  1  0  0  0  0
  5  6  1  0  0  0  0
  5  2  1  0  0  0  0
  7  1  1  6  0  0  0
  7  2  1  0  0  0  0
  8 11  1  0  0  0  0
  9  5  2  0  0  0  0
 10  8  2  0  0  0  0
 10  9  1  0  0  0  0
 11  6  2  0  0  0  0
 12  4  1  0  0  0  0
 13 12  1  0  0  0  0
 14 13  1  0  0  0  0
 15 17  1  0  0  0  0
 15 14  1  0  0  0  0
 16 17  1  0  0  0  0
 18 15  1  0  0  0  0
 19 18  1  0  0  0  0
 20 19  1  0  0  0  0
 22 23  2  0  0  0  0
 23 21  1  0  0  0  0
 23 20  1  0  0  0  0
 24 28  1  0  0  0  0
 24 30  1  0  0  0  0
 26 25  1  0  0  0  0
 26 30  1  0  0  0  0
 26 20  1  1  0  0  0
 29 25  1  0  0  0  0
 29 28  1  0  0  0  0
 30 27  1  6  0  0  0
 31  8  1  0  0  0  0
 32 31  1  0  0  0  0
 33 32  1  0  0  0  0
 34 33  1  0  0  0  0
 35 34  1  0  0  0  0
 36 37  3  0  0  0  0
 37 35  1  0  0  0  0
 38 39  1  1  0  0  0
 38 36  1  0  0  0  0
 40 46  1  6  0  0  0
 40 44  1  0  0  0  0
 40 41  1  0  0  0  0
 41 38  1  6  0  0  0
 41 45  1  0  0  0  0
 42 48  1  6  0  0  0
 42 45  1  0  0  0  0
 43 40  1  0  0  0  0
 43 44  1  0  0  0  0
 43 42  1  0  0  0  0
 47 44  1  0  0  0  0
 48 50  1  0  0  0  0
 49 48  2  0  0  0  0
M  END
>  <MODEL>
4

>  <REMARK>
 VINA RESULT:      -7.0      3.048      7.640
  Name = 
  18 active torsions:
  status: ('A' for Active; 'I' for Inactive)
    1  A    between atoms: C_1  and  C_14
    2  A    between atoms: C_2  and  C_15
    3  A    between atoms: C_2  and  N_24
    4  A    between atoms: O_3  and  C_39
    5  A    between atoms: O_3  and  C_48
    6  A    between atoms: C_6  and  C_17
    7  A    between atoms: C_8  and  C_17
    8  A    between atoms: C_11  and  N_16
    9  A    between atoms: C_13  and  N_24
   10  A    between atoms: C_13  and  C_34
   11  A    between atoms: C_15  and  N_16
   12  A    between atoms: N_24  and  O_32
   13  A    between atoms: N_25  and  C_49
   14  A    between atoms: N_30  and  C_33
   15  A    between atoms: N_30  and  C_46
   16  A    between atoms: C_34  and  C_49
   17  A    between atoms: C_46  and  C_50
   18  A    between atoms: C_48  and  C_50
                            x       y       z     vdW  Elec       q    Type
                         _______ _______ _______ _____ _____    ______ ____

>  <TORSDO>
F 18

$$$$
=
 OpenBabel10232411183D

 50 55  0  0  1  0  0  0  0  0999 V2000
  191.5550  177.7810  145.0370 C   0  0  0  0  0  2  0  0  0  0  0  0
  189.5300  176.9510  146.5760 N   0  0  0  0  0  2  0  0  0  0  0  0
  190.7790  176.8650  144.2950 C   0  0  2  0  0  3  0  0  0  0  0  0
  189.5670  177.4790  143.7200 N   0  0  0  0  0  0  0  0  0  0  0  0
  188.3140  177.3070  145.8940 C   0  0  0  0  0  0  0  0  0  0  0  0
  187.1240  177.4140  146.6150 C   0  0  0  0  0  3  0  0  0  0  0  0
  190.5430  176.9150  145.7920 C   0  0  1  0  0  3  0  0  0  0  0  0
  185.9350  178.0730  144.6030 C   0  0  0  0  0  0  0  0  0  0  0  0
  188.3240  177.5860  144.4880 C   0  0  0  0  0  0  0  0  0  0  0  0
  187.1270  177.9710  143.8680 C   0  0  0  0  0  3  0  0  0  0  0  0
  185.9430  177.7930  145.9730 C   0  0  0  0  0  3  0  0  0  0  0  0
  189.6110  177.8570  142.3120 C   0  0  0  0  0  2  0  0  0  0  0  0
  190.2060  176.7330  141.4870 C   0  0  0  0  0  2  0  0  0  0  0  0
  191.1490  177.3140  140.4370 C   0  0  0  0  0  2  0  0  0  0  0  0
  190.5210  177.4560  139.1210 N   0  0  0  0  0  0  0  0  0  0  0  0
  188.3690  177.7680  138.9140 C   0  0  0  0  0  1  0  0  0  0  0  0
  189.5710  178.4250  139.1880 O   0  0  0  0  0  0  0  0  0  0  0  0
  189.8570  176.2020  138.7830 C   0  0  0  0  0  2  0  0  0  0  0  0
  190.7740  175.3340  137.9350 C   0  0  0  0  0  2  0  0  0  0  0  0
  190.0720  174.8460  136.7530 N   0  0  0  0  0  0  0  0  0  0  0  0
  191.9850  173.7480  135.9650 O   0  0  0  0  0  1  0  0  0  0  0  0
  190.1100  173.5390  134.6730 O   0  0  0  0  0  0  0  0  0  0  0  0
  190.7680  174.0270  135.7960 C   0  0  0  0  0  0  0  0  0  0  0  0
  186.9110  176.1650  135.0780 C   0  0  0  0  0  2  0  0  0  0  0  0
  187.7800  173.9500  136.7100 C   0  0  0  0  0  2  0  0  0  0  0  0
  188.6590  175.1970  136.5940 C   0  0  2  0  0  3  0  0  0  0  0  0
  189.1070  177.2900  135.2920 C   0  0  0  0  0  1  0  0  0  0  0  0
  186.2020  174.8870  135.0960 N   0  0  0  0  0  2  0  0  0  0  0  0
  186.3250  174.3140  136.4330 C   0  0  0  0  0  2  0  0  0  0  0  0
  188.4080  175.9430  135.2760 C   0  0  2  0  0  3  0  0  0  0  0  0
  184.7350  178.4550  143.9970 O   0  0  0  0  0  0  0  0  0  0  0  0
  183.5630  178.7550  144.7430 C   0  0  0  0  0  2  0  0  0  0  0  0
  182.5770  179.4870  143.8580 C   0  0  0  0  0  2  0  0  0  0  0  0
  181.2350  178.7770  143.9050 C   0  0  0  0  0  2  0  0  0  0  0  0
  180.4900  179.0260  142.6820 N   0  0  0  0  0  2  0  0  0  0  0  0
  180.6810  177.4270  140.6310 C   0  0  0  0  0  0  0  0  0  0  0  0
  180.5940  178.1670  141.5780 C   0  0  0  0  0  0  0  0  0  0  0  0
  180.7840  176.5260  139.4790 C   0  0  2  0  0  3  0  0  0  0  0  0
  180.3850  175.2360  139.8360 O   0  0  0  0  0  1  0  0  0  0  0  0
  182.3330  177.1630  137.5170 C   0  0  1  0  0  0  0  0  0  0  0  0
  182.1990  176.5260  138.8970 C   0  0  1  0  0  3  0  0  0  0  0  0
  184.0600  177.7910  138.9870 C   0  0  2  0  0  3  0  0  0  0  0  0
  183.4750  178.1180  137.6290 C   0  0  1  0  0  3  0  0  0  0  0  0
  183.5880  176.9190  136.7020 C   0  0  2  0  0  3  0  0  0  0  0  0
  183.0830  177.1650  139.7830 O   0  0  0  0  0  0  0  0  0  0  0  0
  181.2350  177.7640  136.8950 O   0  0  0  0  0  1  0  0  0  0  0  0
  183.4000  177.3330  135.3820 O   0  0  0  0  0  1  0  0  0  0  0  0
  184.5460  179.0340  139.6530 C   0  0  0  0  0  0  0  0  0  0  0  0
  185.1760  178.9710  140.7420 O   0  0  0  0  0  1  0  0  0  0  0  0
  184.2840  180.2690  139.0770 O   0  0  0  0  0  0  0  0  0  0  0  0
  3  1  1  1  0  0  0
  3  7  1  0  0  0  0
  4  3  1  0  0  0  0
  4  9  1  0  0  0  0
  5  2  1  0  0  0  0
  5  6  1  0  0  0  0
  7  1  1  6  0  0  0
  7  2  1  0  0  0  0
  8 11  1  0  0  0  0
  9  5  2  0  0  0  0
 10  9  1  0  0  0  0
 10  8  2  0  0  0  0
 11  6  2  0  0  0  0
 12  4  1  0  0  0  0
 13 12  1  0  0  0  0
 14 13  1  0  0  0  0
 15 17  1  0  0  0  0
 15 14  1  0  0  0  0
 16 17  1  0  0  0  0
 18 15  1  0  0  0  0
 19 18  1  0  0  0  0
 20 19  1  0  0  0  0
 22 23  2  0  0  0  0
 23 21  1  0  0  0  0
 23 20  1  0  0  0  0
 24 28  1  0  0  0  0
 24 30  1  0  0  0  0
 26 25  1  0  0  0  0
 26 20  1  6  0  0  0
 28 29  1  0  0  0  0
 29 25  1  0  0  0  0
 30 27  1  1  0  0  0
 30 26  1  0  0  0  0
 31  8  1  0  0  0  0
 31 32  1  0  0  0  0
 33 34  1  0  0  0  0
 33 32  1  0  0  0  0
 35 34  1  0  0  0  0
 36 37  3  0  0  0  0
 37 35  1  0  0  0  0
 38 39  1  1  0  0  0
 38 36  1  0  0  0  0
 40 46  1  6  0  0  0
 40 43  1  0  0  0  0
 40 41  1  0  0  0  0
 41 38  1  1  0  0  0
 41 45  1  0  0  0  0
 42 48  1  1  0  0  0
 42 45  1  0  0  0  0
 43 42  1  0  0  0  0
 44 40  1  0  0  0  0
 44 43  1  0  0  0  0
 47 44  1  0  0  0  0
 48 49  1  0  0  0  0
 50 48  2  0  0  0  0
M  END
>  <MODEL>
5

>  <REMARK>
 VINA RESULT:      -6.8      2.784      8.356
  Name = 
  18 active torsions:
  status: ('A' for Active; 'I' for Inactive)
    1  A    between atoms: C_1  and  C_14
    2  A    between atoms: C_2  and  C_15
    3  A    between atoms: C_2  and  N_24
    4  A    between atoms: O_3  and  C_39
    5  A    between atoms: O_3  and  C_48
    6  A    between atoms: C_6  and  C_17
    7  A    between atoms: C_8  and  C_17
    8  A    between atoms: C_11  and  N_16
    9  A    between atoms: C_13  and  N_24
   10  A    between atoms: C_13  and  C_34
   11  A    between atoms: C_15  and  N_16
   12  A    between atoms: N_24  and  O_32
   13  A    between atoms: N_25  and  C_49
   14  A    between atoms: N_30  and  C_33
   15  A    between atoms: N_30  and  C_46
   16  A    between atoms: C_34  and  C_49
   17  A    between atoms: C_46  and  C_50
   18  A    between atoms: C_48  and  C_50
                            x       y       z     vdW  Elec       q    Type
                         _______ _______ _______ _____ _____    ______ ____

>  <TORSDO>
F 18

$$$$
=
 OpenBabel10232411183D

 50 55  0  0  1  0  0  0  0  0999 V2000
  187.9280  177.2010  148.6000 C   0  0  0  0  0  2  0  0  0  0  0  0
  190.1520  177.8510  147.2600 N   0  0  0  0  0  2  0  0  0  0  0  0
  187.6210  178.2540  147.7110 C   0  0  2  0  0  3  0  0  0  0  0  0
  187.4010  177.7880  146.3290 N   0  0  0  0  0  0  0  0  0  0  0  0
  189.8690  177.6550  145.8640 C   0  0  0  0  0  0  0  0  0  0  0  0
  190.9220  177.4800  144.9640 C   0  0  0  0  0  3  0  0  0  0  0  0
  189.0900  177.9730  147.9660 C   0  0  1  0  0  3  0  0  0  0  0  0
  189.3470  177.1990  143.1370 C   0  0  0  0  0  0  0  0  0  0  0  0
  188.5150  177.6070  145.3950 C   0  0  0  0  0  0  0  0  0  0  0  0
  188.2810  177.3730  144.0330 C   0  0  0  0  0  3  0  0  0  0  0  0
  190.6620  177.2550  143.6100 C   0  0  0  0  0  3  0  0  0  0  0  0
  186.0200  177.6390  145.8840 C   0  0  0  0  0  2  0  0  0  0  0  0
  185.5220  178.9390  145.2840 C   0  0  0  0  0  2  0  0  0  0  0  0
  184.0170  178.8500  145.0490 C   0  0  0  0  0  2  0  0  0  0  0  0
  183.6010  179.4520  143.7800 N   0  0  0  0  0  0  0  0  0  0  0  0
  181.7700  178.5320  144.5390 C   0  0  0  0  0  1  0  0  0  0  0  0
  182.4530  178.8560  143.3640 O   0  0  0  0  0  0  0  0  0  0  0  0
  184.6290  179.1880  142.7780 C   0  0  0  0  0  2  0  0  0  0  0  0
  184.2040  178.0370  141.8800 C   0  0  0  0  0  2  0  0  0  0  0  0
  184.2700  178.4280  140.4760 N   0  0  0  0  0  0  0  0  0  0  0  0
  186.5700  178.8450  140.6110 O   0  0  0  0  0  1  0  0  0  0  0  0
  185.6130  179.1790  138.5620 O   0  0  0  0  0  0  0  0  0  0  0  0
  185.5300  178.8200  139.9020 C   0  0  0  0  0  0  0  0  0  0  0  0
  181.0120  177.0490  139.0540 C   0  0  0  0  0  2  0  0  0  0  0  0
  182.0830  179.5040  140.1250 C   0  0  0  0  0  2  0  0  0  0  0  0
  183.0350  178.3880  139.6890 C   0  0  2  0  0  3  0  0  0  0  0  0
  183.2350  175.9600  139.1070 C   0  0  0  0  0  1  0  0  0  0  0  0
  180.1570  178.0790  139.6410 N   0  0  0  0  0  2  0  0  0  0  0  0
  180.7620  179.3810  139.3730 C   0  0  0  0  0  2  0  0  0  0  0  0
  182.3620  177.0100  139.7670 C   0  0  2  0  0  3  0  0  0  0  0  0
  189.1260  176.9660  141.7770 O   0  0  0  0  0  0  0  0  0  0  0  0
  190.1690  176.5920  140.8860 C   0  0  0  0  0  2  0  0  0  0  0  0
  190.0590  177.4030  139.6130 C   0  0  0  0  0  2  0  0  0  0  0  0
  189.7680  176.4750  138.4480 C   0  0  0  0  0  2  0  0  0  0  0  0
  190.7450  175.4020  138.4010 N   0  0  0  0  0  2  0  0  0  0  0  0
  192.9720  175.6530  137.0670 C   0  0  0  0  0  0  0  0  0  0  0  0
  191.9430  175.5380  137.6830 C   0  0  0  0  0  0  0  0  0  0  0  0
  194.2260  175.7900  136.3190 C   0  0  2  0  0  3  0  0  0  0  0  0
  193.9670  175.8540  134.9480 O   0  0  0  0  0  1  0  0  0  0  0  0
  196.4060  174.5460  135.7240 C   0  0  1  0  0  0  0  0  0  0  0  0
  195.1970  174.6540  136.6470 C   0  0  1  0  0  3  0  0  0  0  0  0
  196.9610  174.2790  137.9940 C   0  0  2  0  0  3  0  0  0  0  0  0
  197.5910  174.4540  136.6290 C   0  0  1  0  0  3  0  0  0  0  0  0
  197.2390  173.2800  135.7300 C   0  0  2  0  0  3  0  0  0  0  0  0
  195.6420  174.7720  137.9730 O   0  0  0  0  0  0  0  0  0  0  0  0
  196.6210  175.4860  134.7110 O   0  0  0  0  0  1  0  0  0  0  0  0
  198.1040  173.2590  134.6340 O   0  0  0  0  0  1  0  0  0  0  0  0
  197.7610  174.9960  139.0290 C   0  0  0  0  0  0  0  0  0  0  0  0
  197.2840  175.2080  140.1750 O   0  0  0  0  0  1  0  0  0  0  0  0
  199.0340  175.4520  138.7170 O   0  0  0  0  0  0  0  0  0  0  0  0
  2  7  1  0  0  0  0
  3  7  1  0  0  0  0
  3  1  1  1  0  0  0
  4  3  1  0  0  0  0
  5  2  1  0  0  0  0
  6  5  2  0  0  0  0
  7  1  1  6  0  0  0
  8 11  2  0  0  0  0
  8 10  1  0  0  0  0
  9  5  1  0  0  0  0
  9  4  1  0  0  0  0
 10  9  2  0  0  0  0
 11  6  1  0  0  0  0
 12  4  1  0  0  0  0
 13 12  1  0  0  0  0
 14 13  1  0  0  0  0
 15 14  1  0  0  0  0
 17 15  1  0  0  0  0
 17 16  1  0  0  0  0
 18 15  1  0  0  0  0
 19 18  1  0  0  0  0
 20 19  1  0  0  0  0
 22 23  2  0  0  0  0
 23 20  1  0  0  0  0
 23 21  1  0  0  0  0
 24 28  1  0  0  0  0
 24 30  1  0  0  0  0
 26 30  1  0  0  0  0
 26 25  1  0  0  0  0
 26 20  1  1  0  0  0
 29 28  1  0  0  0  0
 29 25  1  0  0  0  0
 30 27  1  6  0  0  0
 31  8  1  0  0  0  0
 32 31  1  0  0  0  0
 33 32  1  0  0  0  0
 34 33  1  0  0  0  0
 35 34  1  0  0  0  0
 36 37  3  0  0  0  0
 37 35  1  0  0  0  0
 38 39  1  6  0  0  0
 38 36  1  0  0  0  0
 40 46  1  6  0  0  0
 40 44  1  0  0  0  0
 40 43  1  0  0  0  0
 40 41  1  0  0  0  0
 41 38  1  6  0  0  0
 41 45  1  0  0  0  0
 42 48  1  1  0  0  0
 43 42  1  0  0  0  0
 44 43  1  0  0  0  0
 45 42  1  0  0  0  0
 47 44  1  0  0  0  0
 48 49  1  0  0  0  0
 50 48  2  0  0  0  0
M  END
>  <MODEL>
6

>  <REMARK>
 VINA RESULT:      -6.7      2.395      4.614
  Name = 
  18 active torsions:
  status: ('A' for Active; 'I' for Inactive)
    1  A    between atoms: C_1  and  C_14
    2  A    between atoms: C_2  and  C_15
    3  A    between atoms: C_2  and  N_24
    4  A    between atoms: O_3  and  C_39
    5  A    between atoms: O_3  and  C_48
    6  A    between atoms: C_6  and  C_17
    7  A    between atoms: C_8  and  C_17
    8  A    between atoms: C_11  and  N_16
    9  A    between atoms: C_13  and  N_24
   10  A    between atoms: C_13  and  C_34
   11  A    between atoms: C_15  and  N_16
   12  A    between atoms: N_24  and  O_32
   13  A    between atoms: N_25  and  C_49
   14  A    between atoms: N_30  and  C_33
   15  A    between atoms: N_30  and  C_46
   16  A    between atoms: C_34  and  C_49
   17  A    between atoms: C_46  and  C_50
   18  A    between atoms: C_48  and  C_50
                            x       y       z     vdW  Elec       q    Type
                         _______ _______ _______ _____ _____    ______ ____

>  <TORSDO>
F 18

$$$$
=
 OpenBabel10232411183D

 50 55  0  0  1  0  0  0  0  0999 V2000
  185.5350  179.6640  145.1590 C   0  0  0  0  0  2  0  0  0  0  0  0
  183.0030  178.8010  145.2350 N   0  0  0  0  0  2  0  0  0  0  0  0
  185.4420  178.4890  144.3840 C   0  0  2  0  0  3  0  0  0  0  0  0
  184.8990  178.7370  143.0350 N   0  0  0  0  0  0  0  0  0  0  0  0
  182.5290  178.7800  143.8770 C   0  0  0  0  0  0  0  0  0  0  0  0
  181.1570  178.8070  143.6240 C   0  0  0  0  0  3  0  0  0  0  0  0
  184.2820  178.7970  145.3110 C   0  0  1  0  0  3  0  0  0  0  0  0
  181.5720  178.8130  141.2320 C   0  0  0  0  0  0  0  0  0  0  0  0
  183.4550  178.7650  142.7830 C   0  0  0  0  0  0  0  0  0  0  0  0
  182.9540  178.7870  141.4750 C   0  0  0  0  0  3  0  0  0  0  0  0
  180.6820  178.8220  142.3100 C   0  0  0  0  0  3  0  0  0  0  0  0
  185.8510  178.8230  141.9340 C   0  0  0  0  0  2  0  0  0  0  0  0
  187.0990  178.0250  142.2580 C   0  0  0  0  0  2  0  0  0  0  0  0
  188.2070  178.3870  141.2740 C   0  0  0  0  0  2  0  0  0  0  0  0
  189.3410  177.4600  141.3250 N   0  0  0  0  0  0  0  0  0  0  0  0
  190.7260  177.3360  139.6410 C   0  0  0  0  0  1  0  0  0  0  0  0
  189.4910  176.8780  140.1070 O   0  0  0  0  0  0  0  0  0  0  0  0
  189.0400  176.4080  142.2900 C   0  0  0  0  0  2  0  0  0  0  0  0
  190.3090  175.9790  143.0120 C   0  0  0  0  0  2  0  0  0  0  0  0
  190.6620  176.9440  144.0470 N   0  0  0  0  0  0  0  0  0  0  0  0
  192.1450  178.0620  142.6210 O   0  0  0  0  0  0  0  0  0  0  0  0
  191.9410  178.9270  144.7270 O   0  0  0  0  0  1  0  0  0  0  0  0
  191.6070  177.9890  143.7570 C   0  0  0  0  0  0  0  0  0  0  0  0
  190.3110  176.9290  147.8440 C   0  0  0  0  0  2  0  0  0  0  0  0
  188.9040  177.8620  145.5060 C   0  0  0  0  0  2  0  0  0  0  0  0
  190.0150  176.8210  145.3560 C   0  0  2  0  0  3  0  0  0  0  0  0
  191.9810  175.7320  146.4620 C   0  0  0  0  0  1  0  0  0  0  0  0
  189.3610  178.0380  147.9000 N   0  0  0  0  0  2  0  0  0  0  0  0
  188.3150  177.7940  146.9110 C   0  0  0  0  0  2  0  0  0  0  0  0
  191.0350  176.9170  146.5000 C   0  0  2  0  0  3  0  0  0  0  0  0
  181.0600  178.8340  139.9320 O   0  0  0  0  0  0  0  0  0  0  0  0
  181.8060  178.3840  138.8090 C   0  0  0  0  0  2  0  0  0  0  0  0
  181.3370  176.9990  138.4160 C   0  0  0  0  0  2  0  0  0  0  0  0
  181.5620  176.7950  136.9280 C   0  0  0  0  0  2  0  0  0  0  0  0
  182.7210  177.5510  136.4840 N   0  0  0  0  0  2  0  0  0  0  0  0
  184.9990  176.3740  136.0110 C   0  0  0  0  0  0  0  0  0  0  0  0
  183.9470  176.9190  136.2300 C   0  0  0  0  0  0  0  0  0  0  0  0
  186.2790  175.7080  135.7460 C   0  0  2  0  0  3  0  0  0  0  0  0
  186.6160  174.8660  136.8080 O   0  0  0  0  0  1  0  0  0  0  0  0
  187.8400  177.5380  136.6780 C   0  0  1  0  0  0  0  0  0  0  0  0
  187.3890  176.7240  135.4690 C   0  0  1  0  0  3  0  0  0  0  0  0
  189.6370  176.7790  135.3630 C   0  0  2  0  0  3  0  0  0  0  0  0
  189.3300  177.4400  136.6900 C   0  0  1  0  0  3  0  0  0  0  0  0
  188.6680  178.7900  136.4670 C   0  0  2  0  0  3  0  0  0  0  0  0
  188.5040  176.0770  134.9110 O   0  0  0  0  0  0  0  0  0  0  0  0
  187.3110  177.2890  137.9480 O   0  0  0  0  0  1  0  0  0  0  0  0
  188.7300  179.5380  137.6450 O   0  0  0  0  0  1  0  0  0  0  0  0
  190.7950  175.8500  135.5050 C   0  0  0  0  0  0  0  0  0  0  0  0
  190.8290  175.0080  136.4410 O   0  0  0  0  0  1  0  0  0  0  0  0
  191.8520  175.9290  134.6090 O   0  0  0  0  0  0  0  0  0  0  0  0
  2  7  1  0  0  0  0
  3  1  1  1  0  0  0
  3  7  1  0  0  0  0
  4  3  1  0  0  0  0
  5  2  1  0  0  0  0
  6  5  1  0  0  0  0
  7  1  1  6  0  0  0
  8 10  2  0  0  0  0
  8 11  1  0  0  0  0
  9  4  1  0  0  0  0
  9  5  2  0  0  0  0
 10  9  1  0  0  0  0
 11  6  2  0  0  0  0
 12 13  1  0  0  0  0
 12  4  1  0  0  0  0
 14 15  1  0  0  0  0
 14 13  1  0  0  0  0
 15 18  1  0  0  0  0
 16 17  1  0  0  0  0
 17 15  1  0  0  0  0
 18 19  1  0  0  0  0
 19 20  1  0  0  0  0
 21 23  2  0  0  0  0
 23 20  1  0  0  0  0
 23 22  1  0  0  0  0
 24 28  1  0  0  0  0
 25 29  1  0  0  0  0
 26 20  1  6  0  0  0
 26 25  1  0  0  0  0
 26 30  1  0  0  0  0
 29 28  1  0  0  0  0
 30 27  1  1  0  0  0
 30 24  1  0  0  0  0
 31  8  1  0  0  0  0
 32 31  1  0  0  0  0
 33 32  1  0  0  0  0
 34 33  1  0  0  0  0
 35 34  1  0  0  0  0
 36 37  3  0  0  0  0
 37 35  1  0  0  0  0
 38 36  1  0  0  0  0
 38 39  1  1  0  0  0
 40 43  1  0  0  0  0
 40 46  1  1  0  0  0
 41 38  1  1  0  0  0
 41 40  1  0  0  0  0
 42 48  1  1  0  0  0
 42 43  1  0  0  0  0
 44 40  1  0  0  0  0
 44 43  1  0  0  0  0
 44 47  1  0  0  0  0
 45 42  1  0  0  0  0
 45 41  1  0  0  0  0
 48 49  1  0  0  0  0
 50 48  2  0  0  0  0
M  END
>  <MODEL>
7

>  <REMARK>
 VINA RESULT:      -6.7      2.619      7.545
  Name = 
  18 active torsions:
  status: ('A' for Active; 'I' for Inactive)
    1  A    between atoms: C_1  and  C_14
    2  A    between atoms: C_2  and  C_15
    3  A    between atoms: C_2  and  N_24
    4  A    between atoms: O_3  and  C_39
    5  A    between atoms: O_3  and  C_48
    6  A    between atoms: C_6  and  C_17
    7  A    between atoms: C_8  and  C_17
    8  A    between atoms: C_11  and  N_16
    9  A    between atoms: C_13  and  N_24
   10  A    between atoms: C_13  and  C_34
   11  A    between atoms: C_15  and  N_16
   12  A    between atoms: N_24  and  O_32
   13  A    between atoms: N_25  and  C_49
   14  A    between atoms: N_30  and  C_33
   15  A    between atoms: N_30  and  C_46
   16  A    between atoms: C_34  and  C_49
   17  A    between atoms: C_46  and  C_50
   18  A    between atoms: C_48  and  C_50
                            x       y       z     vdW  Elec       q    Type
                         _______ _______ _______ _____ _____    ______ ____

>  <TORSDO>
F 18

$$$$
=
 OpenBabel10232411183D

 50 55  0  0  1  0  0  0  0  0999 V2000
  184.5860  179.9270  144.1370 C   0  0  0  0  0  2  0  0  0  0  0  0
  182.1730  178.9380  143.5360 N   0  0  0  0  0  2  0  0  0  0  0  0
  184.7610  178.6700  143.5220 C   0  0  2  0  0  3  0  0  0  0  0  0
  184.6620  178.7350  142.0510 N   0  0  0  0  0  0  0  0  0  0  0  0
  182.1480  178.7390  142.1110 C   0  0  0  0  0  0  0  0  0  0  0  0
  180.9230  178.6610  141.4470 C   0  0  0  0  0  3  0  0  0  0  0  0
  183.3650  179.0130  144.0020 C   0  0  1  0  0  3  0  0  0  0  0  0
  182.0640  178.4230  139.3180 C   0  0  0  0  0  0  0  0  0  0  0  0
  183.3690  178.6540  141.3670 C   0  0  0  0  0  0  0  0  0  0  0  0
  183.3020  178.5010  139.9750 C   0  0  0  0  0  3  0  0  0  0  0  0
  180.8820  178.5030  140.0600 C   0  0  0  0  0  3  0  0  0  0  0  0
  185.9090  178.7520  141.2950 C   0  0  0  0  0  2  0  0  0  0  0  0
  187.0560  178.2800  142.1680 C   0  0  0  0  0  2  0  0  0  0  0  0
  188.3080  178.1010  141.3140 C   0  0  0  0  0  2  0  0  0  0  0  0
  189.5350  178.0240  142.1100 N   0  0  0  0  0  0  0  0  0  0  0  0
  191.6650  177.5380  142.0850 C   0  0  0  0  0  1  0  0  0  0  0  0
  190.4540  177.2840  141.4350 O   0  0  0  0  0  0  0  0  0  0  0  0
  189.2390  177.3350  143.3610 C   0  0  0  0  0  2  0  0  0  0  0  0
  189.7600  178.1410  144.5410 C   0  0  0  0  0  2  0  0  0  0  0  0
  189.7480  177.3370  145.7580 N   0  0  0  0  0  0  0  0  0  0  0  0
  191.9760  176.6840  145.4510 O   0  0  0  0  0  0  0  0  0  0  0  0
  190.9470  175.8720  147.3240 O   0  0  0  0  0  1  0  0  0  0  0  0
  190.9350  176.6290  146.1580 C   0  0  0  0  0  0  0  0  0  0  0  0
  187.1020  178.4610  148.2630 C   0  0  0  0  0  2  0  0  0  0  0  0
  187.2900  177.2920  145.6320 C   0  0  0  0  0  2  0  0  0  0  0  0
  188.5160  177.2980  146.5480 C   0  0  2  0  0  3  0  0  0  0  0  0
  189.5500  178.2920  148.6020 C   0  0  0  0  0  1  0  0  0  0  0  0
  186.0240  178.5740  147.2840 N   0  0  0  0  0  2  0  0  0  0  0  0
  186.0170  177.3620  146.4690 C   0  0  0  0  0  2  0  0  0  0  0  0
  188.4580  178.4510  147.5600 C   0  0  2  0  0  3  0  0  0  0  0  0
  181.9830  178.2700  137.9310 O   0  0  0  0  0  0  0  0  0  0  0  0
  182.9440  177.5340  137.1860 C   0  0  0  0  0  2  0  0  0  0  0  0
  182.4880  176.0950  137.0610 C   0  0  0  0  0  2  0  0  0  0  0  0
  183.3260  175.2200  137.9750 C   0  0  0  0  0  2  0  0  0  0  0  0
  183.9820  174.1740  137.2090 N   0  0  0  0  0  2  0  0  0  0  0  0
  186.5620  174.1910  136.8290 C   0  0  0  0  0  0  0  0  0  0  0  0
  185.3710  174.1820  137.0060 C   0  0  0  0  0  0  0  0  0  0  0  0
  188.0120  174.2030  136.6100 C   0  0  2  0  0  3  0  0  0  0  0  0
  188.5360  172.9170  136.7650 O   0  0  0  0  0  1  0  0  0  0  0  0
  190.1560  175.5180  137.1830 C   0  0  1  0  0  0  0  0  0  0  0  0
  188.7070  175.2010  137.5390 C   0  0  1  0  0  3  0  0  0  0  0  0
  188.9150  177.4300  137.7660 C   0  0  2  0  0  3  0  0  0  0  0  0
  190.2480  177.0090  137.1840 C   0  0  1  0  0  3  0  0  0  0  0  0
  191.0400  176.2080  138.2030 C   0  0  2  0  0  3  0  0  0  0  0  0
  187.9750  176.3980  137.5910 O   0  0  0  0  0  0  0  0  0  0  0  0
  190.7470  174.9800  136.0360 O   0  0  0  0  0  1  0  0  0  0  0  0
  192.3790  176.1480  137.8080 O   0  0  0  0  0  1  0  0  0  0  0  0
  188.4360  178.6800  137.1080 C   0  0  0  0  0  0  0  0  0  0  0  0
  187.5560  178.6320  136.2070 O   0  0  0  0  0  0  0  0  0  0  0  0
  188.9790  179.9020  137.4770 O   0  0  0  0  0  1  0  0  0  0  0  0
  2  7  1  0  0  0  0
  3  7  1  0  0  0  0
  3  1  1  1  0  0  0
  4  3  1  0  0  0  0
  5  2  1  0  0  0  0
  6  5  1  0  0  0  0
  7  1  1  6  0  0  0
  8 10  2  0  0  0  0
  8 11  1  0  0  0  0
  9  4  1  0  0  0  0
  9  5  2  0  0  0  0
 10  9  1  0  0  0  0
 11  6  2  0  0  0  0
 12  4  1  0  0  0  0
 12 13  1  0  0  0  0
 14 15  1  0  0  0  0
 14 13  1  0  0  0  0
 15 18  1  0  0  0  0
 17 16  1  0  0  0  0
 17 15  1  0  0  0  0
 18 19  1  0  0  0  0
 19 20  1  0  0  0  0
 20 23  1  0  0  0  0
 21 23  2  0  0  0  0
 23 22  1  0  0  0  0
 25 29  1  0  0  0  0
 25 26  1  0  0  0  0
 26 20  1  6  0  0  0
 26 30  1  0  0  0  0
 28 24  1  0  0  0  0
 29 28  1  0  0  0  0
 30 24  1  0  0  0  0
 30 27  1  1  0  0  0
 31  8  1  0  0  0  0
 32 31  1  0  0  0  0
 33 32  1  0  0  0  0
 33 34  1  0  0  0  0
 35 34  1  0  0  0  0
 36 37  3  0  0  0  0
 37 35  1  0  0  0  0
 38 39  1  1  0  0  0
 38 36  1  0  0  0  0
 40 46  1  6  0  0  0
 40 43  1  0  0  0  0
 40 41  1  0  0  0  0
 40 44  1  0  0  0  0
 41 38  1  6  0  0  0
 41 45  1  0  0  0  0
 42 48  1  6  0  0  0
 43 42  1  0  0  0  0
 43 44  1  0  0  0  0
 45 42  1  0  0  0  0
 47 44  1  0  0  0  0
 48 50  1  0  0  0  0
 49 48  2  0  0  0  0
M  END
>  <MODEL>
8

>  <REMARK>
 VINA RESULT:      -6.7      2.617      7.768
  Name = 
  18 active torsions:
  status: ('A' for Active; 'I' for Inactive)
    1  A    between atoms: C_1  and  C_14
    2  A    between atoms: C_2  and  C_15
    3  A    between atoms: C_2  and  N_24
    4  A    between atoms: O_3  and  C_39
    5  A    between atoms: O_3  and  C_48
    6  A    between atoms: C_6  and  C_17
    7  A    between atoms: C_8  and  C_17
    8  A    between atoms: C_11  and  N_16
    9  A    between atoms: C_13  and  N_24
   10  A    between atoms: C_13  and  C_34
   11  A    between atoms: C_15  and  N_16
   12  A    between atoms: N_24  and  O_32
   13  A    between atoms: N_25  and  C_49
   14  A    between atoms: N_30  and  C_33
   15  A    between atoms: N_30  and  C_46
   16  A    between atoms: C_34  and  C_49
   17  A    between atoms: C_46  and  C_50
   18  A    between atoms: C_48  and  C_50
                            x       y       z     vdW  Elec       q    Type
                         _______ _______ _______ _____ _____    ______ ____

>  <TORSDO>
F 18

$$$$
=
 OpenBabel10232411183D

 50 55  0  0  1  0  0  0  0  0999 V2000
  191.4390  177.8570  144.4510 C   0  0  0  0  0  2  0  0  0  0  0  0
  189.4520  177.2060  146.1200 N   0  0  0  0  0  2  0  0  0  0  0  0
  190.6410  176.8740  143.8290 C   0  0  2  0  0  3  0  0  0  0  0  0
  189.4170  177.4320  143.2240 N   0  0  0  0  0  0  0  0  0  0  0  0
  188.2210  177.4970  145.4360 C   0  0  0  0  0  0  0  0  0  0  0  0
  187.0500  177.6860  146.1720 C   0  0  0  0  0  3  0  0  0  0  0  0
  190.4450  177.0820  145.3190 C   0  0  1  0  0  3  0  0  0  0  0  0
  185.8120  178.1390  144.1330 C   0  0  0  0  0  0  0  0  0  0  0  0
  188.1950  177.6270  144.0090 C   0  0  0  0  0  0  0  0  0  0  0  0
  186.9830  177.9520  143.3830 C   0  0  0  0  0  3  0  0  0  0  0  0
  185.8540  178.0040  145.5240 C   0  0  0  0  0  3  0  0  0  0  0  0
  189.4250  177.6600  141.7840 C   0  0  0  0  0  2  0  0  0  0  0  0
  190.2780  176.6140  141.0930 C   0  0  0  0  0  2  0  0  0  0  0  0
  191.1320  177.2790  140.0170 C   0  0  0  0  0  2  0  0  0  0  0  0
  190.5040  177.2520  138.6940 N   0  0  0  0  0  0  0  0  0  0  0  0
  188.7460  176.6210  137.5610 C   0  0  0  0  0  1  0  0  0  0  0  0
  189.5070  176.3290  138.6960 O   0  0  0  0  0  0  0  0  0  0  0  0
  191.4990  176.8320  137.7130 C   0  0  0  0  0  2  0  0  0  0  0  0
  192.5800  175.9980  138.3860 C   0  0  0  0  0  2  0  0  0  0  0  0
  193.1560  175.0460  137.4430 N   0  0  0  0  0  0  0  0  0  0  0  0
  191.1850  173.7850  137.3780 O   0  0  0  0  0  1  0  0  0  0  0  0
  192.8920  173.0370  136.0560 O   0  0  0  0  0  0  0  0  0  0  0  0
  192.3640  173.9430  136.9680 C   0  0  0  0  0  0  0  0  0  0  0  0
  196.8220  174.2740  136.7320 C   0  0  0  0  0  2  0  0  0  0  0  0
  194.5660  175.5810  135.4970 C   0  0  0  0  0  2  0  0  0  0  0  0
  194.5330  175.2660  136.9940 C   0  0  2  0  0  3  0  0  0  0  0  0
  195.5730  173.9350  138.8430 C   0  0  0  0  0  1  0  0  0  0  0  0
  196.7220  174.4490  135.2840 N   0  0  0  0  0  2  0  0  0  0  0  0
  196.0110  175.6980  135.0230 C   0  0  0  0  0  2  0  0  0  0  0  0
  195.4360  174.0720  137.3390 C   0  0  2  0  0  3  0  0  0  0  0  0
  184.5980  178.4630  143.5210 O   0  0  0  0  0  0  0  0  0  0  0  0
  183.7200  179.4540  144.0410 C   0  0  0  0  0  2  0  0  0  0  0  0
  182.5680  178.7800  144.7550 C   0  0  0  0  0  2  0  0  0  0  0  0
  181.2820  179.0400  143.9920 C   0  0  0  0  0  2  0  0  0  0  0  0
  181.5750  179.3980  142.6140 N   0  0  0  0  0  2  0  0  0  0  0  0
  181.1970  177.7040  140.6680 C   0  0  0  0  0  0  0  0  0  0  0  0
  181.3720  178.4880  141.5660 C   0  0  0  0  0  0  0  0  0  0  0  0
  180.9860  176.7480  139.5760 C   0  0  2  0  0  3  0  0  0  0  0  0
  180.6140  175.5030  140.0880 O   0  0  0  0  0  1  0  0  0  0  0  0
  182.1470  177.3780  137.3600 C   0  0  1  0  0  0  0  0  0  0  0  0
  182.2280  176.6340  138.6890 C   0  0  1  0  0  3  0  0  0  0  0  0
  184.2210  177.6490  138.4370 C   0  0  2  0  0  3  0  0  0  0  0  0
  183.4080  178.1740  137.2720 C   0  0  1  0  0  3  0  0  0  0  0  0
  183.1490  177.0640  136.2670 C   0  0  2  0  0  3  0  0  0  0  0  0
  183.3620  177.0720  139.3910 O   0  0  0  0  0  0  0  0  0  0  0  0
  181.0350  178.1650  137.0460 O   0  0  0  0  0  1  0  0  0  0  0  0
  182.7390  177.6230  135.0540 O   0  0  0  0  0  1  0  0  0  0  0  0
  185.0080  178.7550  139.0560 C   0  0  0  0  0  0  0  0  0  0  0  0
  186.1430  178.5300  139.5560 O   0  0  0  0  0  1  0  0  0  0  0  0
  184.4770  180.0350  139.1000 O   0  0  0  0  0  0  0  0  0  0  0  0
  3  1  1  6  0  0  0
  3  7  1  0  0  0  0
  4  3  1  0  0  0  0
  4  9  1  0  0  0  0
  5  2  1  0  0  0  0
  5  6  1  0  0  0  0
  7  1  1  6  0  0  0
  7  2  1  0  0  0  0
  8 11  1  0  0  0  0
  9  5  2  0  0  0  0
 10  9  1  0  0  0  0
 10  8  2  0  0  0  0
 11  6  2  0  0  0  0
 12  4  1  0  0  0  0
 13 12  1  0  0  0  0
 14 13  1  0  0  0  0
 15 17  1  0  0  0  0
 15 14  1  0  0  0  0
 16 17  1  0  0  0  0
 18 19  1  0  0  0  0
 18 15  1  0  0  0  0
 20 19  1  0  0  0  0
 22 23  2  0  0  0  0
 23 21  1  0  0  0  0
 23 20  1  0  0  0  0
 24 30  1  0  0  0  0
 25 26  1  0  0  0  0
 26 30  1  0  0  0  0
 26 20  1  6  0  0  0
 28 24  1  0  0  0  0
 29 28  1  0  0  0  0
 29 25  1  0  0  0  0
 30 27  1  1  0  0  0
 31 32  1  0  0  0  0
 31  8  1  0  0  0  0
 32 33  1  0  0  0  0
 34 33  1  0  0  0  0
 35 34  1  0  0  0  0
 36 37  3  0  0  0  0
 37 35  1  0  0  0  0
 38 39  1  1  0  0  0
 38 36  1  0  0  0  0
 40 46  1  6  0  0  0
 40 41  1  0  0  0  0
 41 45  1  0  0  0  0
 41 38  1  1  0  0  0
 42 48  1  1  0  0  0
 42 45  1  0  0  0  0
 43 40  1  0  0  0  0
 43 42  1  0  0  0  0
 44 43  1  0  0  0  0
 44 40  1  0  0  0  0
 47 44  1  0  0  0  0
 48 50  2  0  0  0  0
 48 49  1  0  0  0  0
M  END
>  <MODEL>
9

>  <REMARK>
 VINA RESULT:      -6.7      2.438      8.871
  Name = 
  18 active torsions:
  status: ('A' for Active; 'I' for Inactive)
    1  A    between atoms: C_1  and  C_14
    2  A    between atoms: C_2  and  C_15
    3  A    between atoms: C_2  and  N_24
    4  A    between atoms: O_3  and  C_39
    5  A    between atoms: O_3  and  C_48
    6  A    between atoms: C_6  and  C_17
    7  A    between atoms: C_8  and  C_17
    8  A    between atoms: C_11  and  N_16
    9  A    between atoms: C_13  and  N_24
   10  A    between atoms: C_13  and  C_34
   11  A    between atoms: C_15  and  N_16
   12  A    between atoms: N_24  and  O_32
   13  A    between atoms: N_25  and  C_49
   14  A    between atoms: N_30  and  C_33
   15  A    between atoms: N_30  and  C_46
   16  A    between atoms: C_34  and  C_49
   17  A    between atoms: C_46  and  C_50
   18  A    between atoms: C_48  and  C_50
                            x       y       z     vdW  Elec       q    Type
                         _______ _______ _______ _____ _____    ______ ____

>  <TORSDO>
F 18

$$$$
