=
 OpenBabel10232411433D

 27 30  0  0  1  0  0  0  0  0999 V2000
  190.7560  176.6840  137.7210 C   0  0  0  0  0  3  0  0  0  0  0  0
  189.4660  177.6770  139.5910 C   0  0  0  0  0  0  0  0  0  0  0  0
  188.0440  177.8850  141.6440 C   0  0  0  0  0  0  0  0  0  0  0  0
  184.3340  178.6800  143.4420 C   0  0  0  0  0  0  0  0  0  0  0  0
  190.2900  176.9490  142.4150 C   0  0  2  0  0  3  0  0  0  0  0  0
  187.9360  177.0040  144.0060 S   0  0  0  0  0  0  0  0  0  0  0  0
  188.8200  177.1820  142.5650 C   0  0  0  0  0  0  0  0  0  0  0  0
  185.3630  177.9950  144.1160 C   0  0  0  0  0  3  0  0  0  0  0  0
  186.7710  178.2040  142.1420 C   0  0  0  0  0  0  0  0  0  0  0  0
  190.6350  176.2730  141.1670 N   0  0  0  0  0  0  0  0  0  0  0  0
  190.3500  176.6460  139.9530 C   0  0  0  0  0  0  0  0  0  0  0  0
  184.5400  179.1210  142.1180 C   0  0  0  0  0  3  0  0  0  0  0  0
  186.5600  177.7720  143.4410 C   0  0  0  0  0  0  0  0  0  0  0  0
  189.6360  177.9170  137.9410 S   0  0  0  0  0  0  0  0  0  0  0  0
  188.4650  178.2320  140.2790 C   0  0  0  0  0  3  0  0  0  0  0  0
  191.0250  176.0950  138.9070 N   0  0  0  0  0  0  0  0  0  0  0  0
  185.7590  178.8870  141.4610 C   0  0  0  0  0  3  0  0  0  0  0  0
  181.8220  178.8150  143.3920 N   0  0  0  0  0  2  0  0  0  0  0  0
  183.0490  178.9370  144.1170 C   0  0  0  0  0  0  0  0  0  0  0  0
  183.0310  179.2650  145.3350 O   0  0  0  0  0  0  0  0  0  0  0  0
  180.5320  179.0570  144.0140 C   0  0  0  0  0  1  0  0  0  0  0  0
  190.8720  176.1700  143.5870 C   0  0  0  0  0  2  0  0  0  0  0  0
  191.5600  177.1120  144.5590 C   0  0  0  0  0  2  0  0  0  0  0  0
  190.9280  177.0070  145.9370 C   0  0  0  0  0  2  0  0  0  0  0  0
  191.8550  176.3370  146.8950 C   0  0  0  0  0  0  0  0  0  0  0  0
  192.1620  176.9460  148.1040 O   0  0  0  0  0  1  0  0  0  0  0  0
  192.3830  175.2350  146.5940 O   0  0  0  0  0  0  0  0  0  0  0  0
  1 14  1  0  0  0  0
  1 16  2  0  0  0  0
  2 11  1  0  0  0  0
  2 15  2  0  0  0  0
  3  9  1  0  0  0  0
  3  7  2  0  0  0  0
  4  8  1  0  0  0  0
  4 19  1  0  0  0  0
  5  7  1  0  0  0  0
  5 22  1  1  0  0  0
  7  6  1  0  0  0  0
  9 13  1  0  0  0  0
 10  5  1  0  0  0  0
 11 10  2  0  0  0  0
 12  4  2  0  0  0  0
 13  6  1  0  0  0  0
 13  8  2  0  0  0  0
 14  2  1  0  0  0  0
 15  3  1  0  0  0  0
 16 11  1  0  0  0  0
 17 12  1  0  0  0  0
 17  9  2  0  0  0  0
 18 21  1  0  0  0  0
 18 19  1  0  0  0  0
 19 20  2  0  0  0  0
 22 23  1  0  0  0  0
 23 24  1  0  0  0  0
 24 25  1  0  0  0  0
 25 26  1  0  0  0  0
 27 25  2  0  0  0  0
M  END
>  <MODEL>
1

>  <REMARK>
 VINA RESULT:      -8.9      0.000      0.000
  Name = 
  5 active torsions:
  status: ('A' for Active; 'I' for Inactive)
    1  A    between atoms: C_1  and  C_14
    2  A    between atoms: C_1  and  C_18
    3  A    between atoms: C_6  and  C_7
    4  A    between atoms: C_8  and  C_11
    5  A    between atoms: C_11  and  C_14
                            x       y       z     vdW  Elec       q    Type
                         _______ _______ _______ _____ _____    ______ ____

>  <TORSDO>
F 5

$$$$
=
 OpenBabel10232411433D

 27 30  0  0  1  0  0  0  0  0999 V2000
  189.5590  178.0860  148.4570 C   0  0  0  0  0  3  0  0  0  0  0  0
  187.7060  177.6380  146.8730 C   0  0  0  0  0  0  0  0  0  0  0  0
  186.2230  177.7770  144.8570 C   0  0  0  0  0  0  0  0  0  0  0  0
  182.6530  179.0320  143.0380 C   0  0  0  0  0  0  0  0  0  0  0  0
  188.4320  176.7780  144.0590 C   0  0  2  0  0  3  0  0  0  0  0  0
  186.3930  177.7570  142.3400 S   0  0  0  0  0  0  0  0  0  0  0  0
  187.1410  177.5030  143.8440 C   0  0  0  0  0  0  0  0  0  0  0  0
  183.7860  178.6600  142.2900 C   0  0  0  0  0  3  0  0  0  0  0  0
  184.9830  178.2110  144.3600 C   0  0  0  0  0  0  0  0  0  0  0  0
  189.2830  177.4140  145.0620 N   0  0  0  0  0  0  0  0  0  0  0  0
  188.9850  177.6980  146.2970 C   0  0  0  0  0  0  0  0  0  0  0  0
  182.7020  178.9880  144.4480 C   0  0  0  0  0  3  0  0  0  0  0  0
  184.9280  178.2600  142.9770 C   0  0  0  0  0  0  0  0  0  0  0  0
  187.8960  177.8590  148.5240 S   0  0  0  0  0  0  0  0  0  0  0  0
  186.5010  177.6750  146.2970 C   0  0  0  0  0  3  0  0  0  0  0  0
  189.9840  177.9750  147.1790 N   0  0  0  0  0  0  0  0  0  0  0  0
  183.8660  178.5760  145.1160 C   0  0  0  0  0  3  0  0  0  0  0  0
  181.1810  179.0750  140.9980 N   0  0  0  0  0  2  0  0  0  0  0  0
  181.4220  179.4650  142.3530 C   0  0  0  0  0  0  0  0  0  0  0  0
  180.5780  180.1780  142.9620 O   0  0  0  0  0  0  0  0  0  0  0  0
  179.9820  179.4760  140.2820 C   0  0  0  0  0  1  0  0  0  0  0  0
  189.2180  176.6060  142.7660 C   0  0  0  0  0  2  0  0  0  0  0  0
  190.2500  177.7110  142.6240 C   0  0  0  0  0  2  0  0  0  0  0  0
  191.2380  177.3760  141.5200 C   0  0  0  0  0  2  0  0  0  0  0  0
  190.5300  177.1520  140.2270 C   0  0  0  0  0  0  0  0  0  0  0  0
  189.6940  178.1350  139.7130 O   0  0  0  0  0  1  0  0  0  0  0  0
  190.6640  176.0600  139.6150 O   0  0  0  0  0  0  0  0  0  0  0  0
  1 14  1  0  0  0  0
  2 14  1  0  0  0  0
  3 15  1  0  0  0  0
  4 12  1  0  0  0  0
  5 22  1  6  0  0  0
  5 10  1  0  0  0  0
  6 13  1  0  0  0  0
  6  7  1  0  0  0  0
  7  5  1  0  0  0  0
  7  3  2  0  0  0  0
  8 13  1  0  0  0  0
  8  4  2  0  0  0  0
  9  3  1  0  0  0  0
  9 17  1  0  0  0  0
 10 11  2  0  0  0  0
 11  2  1  0  0  0  0
 11 16  1  0  0  0  0
 12 17  2  0  0  0  0
 13  9  2  0  0  0  0
 15  2  2  0  0  0  0
 16  1  2  0  0  0  0
 18 19  1  0  0  0  0
 19 20  2  0  0  0  0
 19  4  1  0  0  0  0
 21 18  1  0  0  0  0
 23 22  1  0  0  0  0
 24 23  1  0  0  0  0
 25 24  1  0  0  0  0
 26 25  1  0  0  0  0
 27 25  2  0  0  0  0
M  END
>  <MODEL>
2

>  <REMARK>
 VINA RESULT:      -8.6      3.332      5.398
  Name = 
  5 active torsions:
  status: ('A' for Active; 'I' for Inactive)
    1  A    between atoms: C_1  and  C_14
    2  A    between atoms: C_1  and  C_18
    3  A    between atoms: C_6  and  C_7
    4  A    between atoms: C_8  and  C_11
    5  A    between atoms: C_11  and  C_14
                            x       y       z     vdW  Elec       q    Type
                         _______ _______ _______ _____ _____    ______ ____

>  <TORSDO>
F 5

$$$$
=
 OpenBabel10232411433D

 27 30  0  0  1  0  0  0  0  0999 V2000
  180.1050  178.3520  142.0960 C   0  0  0  0  0  3  0  0  0  0  0  0
  182.3770  178.8200  142.9730 C   0  0  0  0  0  0  0  0  0  0  0  0
  184.8140  178.5700  143.4980 C   0  0  0  0  0  0  0  0  0  0  0  0
  187.8840  177.6710  146.2180 C   0  0  0  0  0  0  0  0  0  0  0  0
  184.6560  178.9680  140.9820 C   0  0  2  0  0  3  0  0  0  0  0  0
  186.9920  178.0700  142.3260 S   0  0  0  0  0  0  0  0  0  0  0  0
  185.3430  178.4670  142.2120 C   0  0  0  0  0  0  0  0  0  0  0  0
  188.0920  177.6740  144.8260 C   0  0  0  0  0  3  0  0  0  0  0  0
  185.7600  178.2860  144.4960 C   0  0  0  0  0  0  0  0  0  0  0  0
  183.3260  178.3920  140.7980 N   0  0  0  0  0  0  0  0  0  0  0  0
  182.3250  178.4130  141.6300 C   0  0  0  0  0  0  0  0  0  0  0  0
  186.6060  177.9770  146.7340 C   0  0  0  0  0  3  0  0  0  0  0  0
  187.0160  177.9810  143.9980 C   0  0  0  0  0  0  0  0  0  0  0  0
  180.7960  178.8920  143.5280 S   0  0  0  0  0  0  0  0  0  0  0  0
  183.4150  178.8960  143.8100 C   0  0  0  0  0  3  0  0  0  0  0  0
  181.0730  178.1320  141.1770 N   0  0  0  0  0  0  0  0  0  0  0  0
  185.5380  178.2870  145.8760 C   0  0  0  0  0  3  0  0  0  0  0  0
  190.2310  176.8550  146.6130 N   0  0  0  0  0  2  0  0  0  0  0  0
  188.9940  177.3500  147.1330 C   0  0  0  0  0  0  0  0  0  0  0  0
  188.8540  177.5120  148.3760 O   0  0  0  0  0  0  0  0  0  0  0  0
  191.3530  176.5260  147.4740 C   0  0  0  0  0  1  0  0  0  0  0  0
  185.4830  178.7370  139.7250 C   0  0  0  0  0  2  0  0  0  0  0  0
  184.5790  178.6140  138.5110 C   0  0  0  0  0  2  0  0  0  0  0  0
  185.1850  177.6640  137.4920 C   0  0  0  0  0  2  0  0  0  0  0  0
  186.6460  177.9160  137.3370 C   0  0  0  0  0  0  0  0  0  0  0  0
  187.0950  179.1590  136.9100 O   0  0  0  0  0  0  0  0  0  0  0  0
  187.4730  176.9940  137.5620 O   0  0  0  0  0  1  0  0  0  0  0  0
  1 14  1  0  0  0  0
  2 14  1  0  0  0  0
  2 15  2  0  0  0  0
  3 15  1  0  0  0  0
  3  9  1  0  0  0  0
  4 12  1  0  0  0  0
  4 19  1  0  0  0  0
  5 22  1  6  0  0  0
  5  7  1  0  0  0  0
  6 13  1  0  0  0  0
  7  6  1  0  0  0  0
  7  3  2  0  0  0  0
  8  4  2  0  0  0  0
  9 17  1  0  0  0  0
 10  5  1  0  0  0  0
 10 11  2  0  0  0  0
 11  2  1  0  0  0  0
 13  9  2  0  0  0  0
 13  8  1  0  0  0  0
 16 11  1  0  0  0  0
 16  1  2  0  0  0  0
 17 12  2  0  0  0  0
 18 19  1  0  0  0  0
 18 21  1  0  0  0  0
 19 20  2  0  0  0  0
 23 22  1  0  0  0  0
 24 23  1  0  0  0  0
 25 24  1  0  0  0  0
 25 27  1  0  0  0  0
 26 25  2  0  0  0  0
M  END
>  <MODEL>
3

>  <REMARK>
 VINA RESULT:      -8.5      3.745      7.888
  Name = 
  5 active torsions:
  status: ('A' for Active; 'I' for Inactive)
    1  A    between atoms: C_1  and  C_14
    2  A    between atoms: C_1  and  C_18
    3  A    between atoms: C_6  and  C_7
    4  A    between atoms: C_8  and  C_11
    5  A    between atoms: C_11  and  C_14
                            x       y       z     vdW  Elec       q    Type
                         _______ _______ _______ _____ _____    ______ ____

>  <TORSDO>
F 5

$$$$
=
 OpenBabel10232411433D

 27 30  0  0  1  0  0  0  0  0999 V2000
  188.3410  178.3440  139.0230 C   0  0  0  0  0  3  0  0  0  0  0  0
  188.7230  177.3110  141.2450 C   0  0  0  0  0  0  0  0  0  0  0  0
  189.0390  177.0530  143.7170 C   0  0  0  0  0  0  0  0  0  0  0  0
  191.5500  176.4480  147.0270 C   0  0  0  0  0  0  0  0  0  0  0  0
  186.5950  177.7010  143.3670 C   0  0  2  0  0  3  0  0  0  0  0  0
  187.9230  177.7220  145.8780 S   0  0  0  0  0  0  0  0  0  0  0  0
  187.8420  177.5940  144.1860 C   0  0  0  0  0  0  0  0  0  0  0  0
  190.2490  176.9700  147.1580 C   0  0  0  0  0  3  0  0  0  0  0  0
  189.9620  176.8090  144.7470 C   0  0  0  0  0  0  0  0  0  0  0  0
  186.7900  178.4510  142.1290 N   0  0  0  0  0  0  0  0  0  0  0  0
  187.6520  178.2180  141.1820 C   0  0  0  0  0  0  0  0  0  0  0  0
  192.0420  176.1110  145.7480 C   0  0  0  0  0  3  0  0  0  0  0  0
  189.4880  177.1410  146.0050 C   0  0  0  0  0  0  0  0  0  0  0  0
  189.3740  177.2070  139.7030 S   0  0  0  0  0  0  0  0  0  0  0  0
  189.3490  176.7920  142.3040 C   0  0  0  0  0  3  0  0  0  0  0  0
  187.4790  178.7960  139.9610 N   0  0  0  0  0  0  0  0  0  0  0  0
  191.2510  176.2890  144.6020 C   0  0  0  0  0  3  0  0  0  0  0  0
  192.7210  177.3660  149.0560 N   0  0  0  0  0  2  0  0  0  0  0  0
  192.3930  176.2520  148.2200 C   0  0  0  0  0  0  0  0  0  0  0  0
  192.8260  175.1030  148.5050 O   0  0  0  0  0  0  0  0  0  0  0  0
  193.5480  177.2220  150.2410 C   0  0  0  0  0  1  0  0  0  0  0  0
  185.4420  178.3130  144.1510 C   0  0  0  0  0  2  0  0  0  0  0  0
  184.3050  178.6860  143.2150 C   0  0  0  0  0  2  0  0  0  0  0  0
  183.0090  178.8410  143.9920 C   0  0  0  0  0  2  0  0  0  0  0  0
  181.8520  179.0040  143.0640 C   0  0  0  0  0  0  0  0  0  0  0  0
  180.5910  179.2900  143.5700 O   0  0  0  0  0  1  0  0  0  0  0  0
  182.0120  178.8520  141.8250 O   0  0  0  0  0  0  0  0  0  0  0  0
  1 14  1  0  0  0  0
  1 16  2  0  0  0  0
  2 15  2  0  0  0  0
  3  7  2  0  0  0  0
  3  9  1  0  0  0  0
  4  8  1  0  0  0  0
  4 19  1  0  0  0  0
  5 22  1  1  0  0  0
  5  7  1  0  0  0  0
  6 13  1  0  0  0  0
  7  6  1  0  0  0  0
  9 13  1  0  0  0  0
 10  5  1  0  0  0  0
 11  2  1  0  0  0  0
 11 10  2  0  0  0  0
 12  4  2  0  0  0  0
 13  8  2  0  0  0  0
 14  2  1  0  0  0  0
 15  3  1  0  0  0  0
 16 11  1  0  0  0  0
 17  9  2  0  0  0  0
 17 12  1  0  0  0  0
 18 21  1  0  0  0  0
 19 20  2  0  0  0  0
 19 18  1  0  0  0  0
 23 24  1  0  0  0  0
 23 22  1  0  0  0  0
 25 26  1  0  0  0  0
 25 24  1  0  0  0  0
 27 25  2  0  0  0  0
M  END
>  <MODEL>
4

>  <REMARK>
 VINA RESULT:      -8.3      2.551      7.590
  Name = 
  5 active torsions:
  status: ('A' for Active; 'I' for Inactive)
    1  A    between atoms: C_1  and  C_14
    2  A    between atoms: C_1  and  C_18
    3  A    between atoms: C_6  and  C_7
    4  A    between atoms: C_8  and  C_11
    5  A    between atoms: C_11  and  C_14
                            x       y       z     vdW  Elec       q    Type
                         _______ _______ _______ _____ _____    ______ ____

>  <TORSDO>
F 5

$$$$
=
 OpenBabel10232411433D

 27 30  0  0  1  0  0  0  0  0999 V2000
  183.7180  179.3440  144.5720 C   0  0  0  0  0  3  0  0  0  0  0  0
  185.7180  178.1260  143.7570 C   0  0  0  0  0  0  0  0  0  0  0  0
  188.1050  177.5670  143.2330 C   0  0  0  0  0  0  0  0  0  0  0  0
  191.2520  177.2470  140.4740 C   0  0  0  0  0  0  0  0  0  0  0  0
  187.8760  177.4460  145.7730 C   0  0  2  0  0  3  0  0  0  0  0  0
  190.3510  177.4660  144.3770 S   0  0  0  0  0  0  0  0  0  0  0  0
  188.6620  177.6080  144.5110 C   0  0  0  0  0  0  0  0  0  0  0  0
  191.4740  177.2940  141.8630 C   0  0  0  0  0  3  0  0  0  0  0  0
  189.0730  177.4610  142.2230 C   0  0  0  0  0  0  0  0  0  0  0  0
  186.7920  178.4180  145.8960 N   0  0  0  0  0  0  0  0  0  0  0  0
  185.8190  178.6390  145.0610 C   0  0  0  0  0  0  0  0  0  0  0  0
  189.9330  177.3080  139.9750 C   0  0  0  0  0  3  0  0  0  0  0  0
  190.3710  177.4040  142.7040 C   0  0  0  0  0  0  0  0  0  0  0  0
  184.1830  178.5000  143.1960 S   0  0  0  0  0  0  0  0  0  0  0  0
  186.6670  177.6640  142.9390 C   0  0  0  0  0  3  0  0  0  0  0  0
  184.7220  179.3290  145.4780 N   0  0  0  0  0  0  0  0  0  0  0  0
  188.8380  177.4150  140.8460 C   0  0  0  0  0  3  0  0  0  0  0  0
  192.2010  176.5610  138.2470 N   0  0  0  0  0  2  0  0  0  0  0  0
  192.3900  177.1320  139.5440 C   0  0  0  0  0  0  0  0  0  0  0  0
  193.5320  177.5390  139.8930 O   0  0  0  0  0  0  0  0  0  0  0  0
  193.2920  176.4270  137.2970 C   0  0  0  0  0  1  0  0  0  0  0  0
  188.7570  177.5140  147.0130 C   0  0  0  0  0  2  0  0  0  0  0  0
  189.9810  176.6310  146.8410 C   0  0  0  0  0  2  0  0  0  0  0  0
  191.0540  177.0100  147.8470 C   0  0  0  0  0  2  0  0  0  0  0  0
  192.2450  176.1230  147.7100 C   0  0  0  0  0  0  0  0  0  0  0  0
  193.2560  176.1660  148.6620 O   0  0  0  0  0  1  0  0  0  0  0  0
  192.3500  175.3570  146.7170 O   0  0  0  0  0  0  0  0  0  0  0  0
  1 16  2  0  0  0  0
  2 11  1  0  0  0  0
  3  7  2  0  0  0  0
  4  8  1  0  0  0  0
  5 10  1  0  0  0  0
  5 22  1  1  0  0  0
  6  7  1  0  0  0  0
  7  5  1  0  0  0  0
  8 13  2  0  0  0  0
  9 13  1  0  0  0  0
  9  3  1  0  0  0  0
 11 16  1  0  0  0  0
 11 10  2  0  0  0  0
 12  4  2  0  0  0  0
 12 17  1  0  0  0  0
 13  6  1  0  0  0  0
 14  2  1  0  0  0  0
 14  1  1  0  0  0  0
 15  3  1  0  0  0  0
 15  2  2  0  0  0  0
 17  9  2  0  0  0  0
 18 19  1  0  0  0  0
 19 20  2  0  0  0  0
 19  4  1  0  0  0  0
 21 18  1  0  0  0  0
 23 22  1  0  0  0  0
 23 24  1  0  0  0  0
 25 24  1  0  0  0  0
 25 26  1  0  0  0  0
 27 25  2  0  0  0  0
M  END
>  <MODEL>
5

>  <REMARK>
 VINA RESULT:      -8.0      2.892      6.755
  Name = 
  5 active torsions:
  status: ('A' for Active; 'I' for Inactive)
    1  A    between atoms: C_1  and  C_14
    2  A    between atoms: C_1  and  C_18
    3  A    between atoms: C_6  and  C_7
    4  A    between atoms: C_8  and  C_11
    5  A    between atoms: C_11  and  C_14
                            x       y       z     vdW  Elec       q    Type
                         _______ _______ _______ _____ _____    ______ ____

>  <TORSDO>
F 5

$$$$
=
 OpenBabel10232411433D

 27 30  0  0  1  0  0  0  0  0999 V2000
  191.0200  176.7320  138.6310 C   0  0  0  0  0  3  0  0  0  0  0  0
  189.2320  177.8560  139.9300 C   0  0  0  0  0  0  0  0  0  0  0  0
  187.3650  178.2360  141.5570 C   0  0  0  0  0  0  0  0  0  0  0  0
  183.2760  178.7620  142.3550 C   0  0  0  0  0  0  0  0  0  0  0  0
  189.4680  177.8520  142.9510 C   0  0  2  0  0  3  0  0  0  0  0  0
  186.8230  177.8410  143.9890 S   0  0  0  0  0  0  0  0  0  0  0  0
  187.9860  177.8680  142.7500 C   0  0  0  0  0  0  0  0  0  0  0  0
  184.1960  178.4020  143.3580 C   0  0  0  0  0  3  0  0  0  0  0  0
  185.9830  178.4380  141.7060 C   0  0  0  0  0  0  0  0  0  0  0  0
  190.1640  177.0050  141.9850 N   0  0  0  0  0  0  0  0  0  0  0  0
  190.1230  177.0760  140.6860 C   0  0  0  0  0  0  0  0  0  0  0  0
  183.7270  178.9570  141.0310 C   0  0  0  0  0  3  0  0  0  0  0  0
  185.5330  178.2460  143.0020 C   0  0  0  0  0  0  0  0  0  0  0  0
  189.7450  177.7840  138.3350 S   0  0  0  0  0  0  0  0  0  0  0  0
  188.0430  178.3670  140.2590 C   0  0  0  0  0  3  0  0  0  0  0  0
  191.0770  176.4440  139.9500 N   0  0  0  0  0  0  0  0  0  0  0  0
  185.0820  178.7970  140.7010 C   0  0  0  0  0  3  0  0  0  0  0  0
  181.3770  178.6330  144.0000 N   0  0  0  0  0  2  0  0  0  0  0  0
  181.8510  178.9370  142.6850 C   0  0  0  0  0  0  0  0  0  0  0  0
  181.0460  179.3540  141.8080 O   0  0  0  0  0  0  0  0  0  0  0  0
  179.9820  178.7900  144.3720 C   0  0  0  0  0  1  0  0  0  0  0  0
  189.8530  177.4280  144.3620 C   0  0  0  0  0  2  0  0  0  0  0  0
  191.3400  177.1320  144.4380 C   0  0  0  0  0  2  0  0  0  0  0  0
  191.5890  175.8640  145.2380 C   0  0  0  0  0  2  0  0  0  0  0  0
  191.9580  176.1900  146.6460 C   0  0  0  0  0  0  0  0  0  0  0  0
  192.8000  175.3450  147.3570 O   0  0  0  0  0  1  0  0  0  0  0  0
  191.4830  177.2150  147.2010 O   0  0  0  0  0  0  0  0  0  0  0  0
  1 16  2  0  0  0  0
  2 15  2  0  0  0  0
  2 11  1  0  0  0  0
  3  9  1  0  0  0  0
  3  7  2  0  0  0  0
  4 19  1  0  0  0  0
  4  8  1  0  0  0  0
  5 22  1  1  0  0  0
  7  5  1  0  0  0  0
  7  6  1  0  0  0  0
  9 13  1  0  0  0  0
 10  5  1  0  0  0  0
 11 10  2  0  0  0  0
 12  4  2  0  0  0  0
 13  8  2  0  0  0  0
 13  6  1  0  0  0  0
 14  1  1  0  0  0  0
 14  2  1  0  0  0  0
 15  3  1  0  0  0  0
 16 11  1  0  0  0  0
 17 12  1  0  0  0  0
 17  9  2  0  0  0  0
 18 21  1  0  0  0  0
 19 18  1  0  0  0  0
 20 19  2  0  0  0  0
 22 23  1  0  0  0  0
 23 24  1  0  0  0  0
 24 25  1  0  0  0  0
 25 27  2  0  0  0  0
 25 26  1  0  0  0  0
M  END
>  <MODEL>
6

>  <REMARK>
 VINA RESULT:      -7.9      1.283      1.431
  Name = 
  5 active torsions:
  status: ('A' for Active; 'I' for Inactive)
    1  A    between atoms: C_1  and  C_14
    2  A    between atoms: C_1  and  C_18
    3  A    between atoms: C_6  and  C_7
    4  A    between atoms: C_8  and  C_11
    5  A    between atoms: C_11  and  C_14
                            x       y       z     vdW  Elec       q    Type
                         _______ _______ _______ _____ _____    ______ ____

>  <TORSDO>
F 5

$$$$
=
 OpenBabel10232411433D

 27 30  0  0  1  0  0  0  0  0999 V2000
  183.4270  178.4820  138.5460 C   0  0  0  0  0  3  0  0  0  0  0  0
  185.2630  178.7900  140.1830 C   0  0  0  0  0  0  0  0  0  0  0  0
  187.3350  178.3720  141.5300 C   0  0  0  0  0  0  0  0  0  0  0  0
  189.1740  177.2570  145.1360 C   0  0  0  0  0  0  0  0  0  0  0  0
  188.1060  178.7840  139.1320 C   0  0  2  0  0  3  0  0  0  0  0  0
  189.7490  177.7230  141.1930 S   0  0  0  0  0  0  0  0  0  0  0  0
  188.2780  178.2340  140.5130 C   0  0  0  0  0  0  0  0  0  0  0  0
  189.8630  177.2490  143.9080 C   0  0  0  0  0  3  0  0  0  0  0  0
  187.8440  178.0210  142.7900 C   0  0  0  0  0  0  0  0  0  0  0  0
  186.8940  178.3010  138.4740 N   0  0  0  0  0  0  0  0  0  0  0  0
  185.6660  178.3900  138.8980 C   0  0  0  0  0  0  0  0  0  0  0  0
  187.8190  177.6510  145.1740 C   0  0  0  0  0  3  0  0  0  0  0  0
  189.1730  177.6300  142.7610 C   0  0  0  0  0  0  0  0  0  0  0  0
  183.5970  178.9710  140.1440 S   0  0  0  0  0  0  0  0  0  0  0  0
  185.9400  178.7930  141.3340 C   0  0  0  0  0  3  0  0  0  0  0  0
  184.6410  178.1980  138.0240 N   0  0  0  0  0  0  0  0  0  0  0  0
  187.1480  178.0350  144.0020 C   0  0  0  0  0  3  0  0  0  0  0  0
  191.2470  176.4970  146.3410 N   0  0  0  0  0  2  0  0  0  0  0  0
  189.8640  176.8590  146.3760 C   0  0  0  0  0  0  0  0  0  0  0  0
  189.2350  176.8370  147.4690 O   0  0  0  0  0  0  0  0  0  0  0  0
  191.9690  176.0980  147.5370 C   0  0  0  0  0  1  0  0  0  0  0  0
  189.3090  178.4980  138.2440 C   0  0  0  0  0  2  0  0  0  0  0  0
  189.0910  177.2200  137.4530 C   0  0  0  0  0  2  0  0  0  0  0  0
  190.3910  176.7650  136.8110 C   0  0  0  0  0  2  0  0  0  0  0  0
  191.2820  176.1200  137.8180 C   0  0  0  0  0  0  0  0  0  0  0  0
  190.8830  174.9490  138.4480 O   0  0  0  0  0  1  0  0  0  0  0  0
  192.3810  176.6540  138.1210 O   0  0  0  0  0  0  0  0  0  0  0  0
  1 14  1  0  0  0  0
  2 15  2  0  0  0  0
  3  9  1  0  0  0  0
  4 12  1  0  0  0  0
  4 19  1  0  0  0  0
  5 22  1  6  0  0  0
  5  7  1  0  0  0  0
  6 13  1  0  0  0  0
  7  6  1  0  0  0  0
  7  3  2  0  0  0  0
  8  4  2  0  0  0  0
  9 17  1  0  0  0  0
 10 11  2  0  0  0  0
 10  5  1  0  0  0  0
 11  2  1  0  0  0  0
 13  9  2  0  0  0  0
 13  8  1  0  0  0  0
 14  2  1  0  0  0  0
 15  3  1  0  0  0  0
 16  1  2  0  0  0  0
 16 11  1  0  0  0  0
 17 12  2  0  0  0  0
 18 19  1  0  0  0  0
 18 21  1  0  0  0  0
 19 20  2  0  0  0  0
 23 22  1  0  0  0  0
 24 23  1  0  0  0  0
 24 25  1  0  0  0  0
 25 27  2  0  0  0  0
 25 26  1  0  0  0  0
M  END
>  <MODEL>
7

>  <REMARK>
 VINA RESULT:      -7.9      3.516      6.506
  Name = 
  5 active torsions:
  status: ('A' for Active; 'I' for Inactive)
    1  A    between atoms: C_1  and  C_14
    2  A    between atoms: C_1  and  C_18
    3  A    between atoms: C_6  and  C_7
    4  A    between atoms: C_8  and  C_11
    5  A    between atoms: C_11  and  C_14
                            x       y       z     vdW  Elec       q    Type
                         _______ _______ _______ _____ _____    ______ ____

>  <TORSDO>
F 5

$$$$
=
 OpenBabel10232411433D

 27 30  0  0  1  0  0  0  0  0999 V2000
  182.8990  178.6300  143.2670 C   0  0  0  0  0  3  0  0  0  0  0  0
  185.2870  178.7140  143.9270 C   0  0  0  0  0  0  0  0  0  0  0  0
  187.7010  178.0900  144.1820 C   0  0  0  0  0  0  0  0  0  0  0  0
  190.8500  176.5880  146.5180 C   0  0  0  0  0  0  0  0  0  0  0  0
  187.3630  178.6740  141.7200 C   0  0  2  0  0  3  0  0  0  0  0  0
  189.6600  177.3680  142.7660 S   0  0  0  0  0  0  0  0  0  0  0  0
  188.0840  178.0000  142.8450 C   0  0  0  0  0  0  0  0  0  0  0  0
  190.9230  176.6560  145.1140 C   0  0  0  0  0  3  0  0  0  0  0  0
  188.6850  177.6100  145.0600 C   0  0  0  0  0  0  0  0  0  0  0  0
  185.9520  178.3040  141.6450 N   0  0  0  0  0  0  0  0  0  0  0  0
  185.0490  178.4100  142.5770 C   0  0  0  0  0  0  0  0  0  0  0  0
  189.6860  177.0360  147.1790 C   0  0  0  0  0  3  0  0  0  0  0  0
  189.8300  177.1650  144.4190 C   0  0  0  0  0  0  0  0  0  0  0  0
  183.7940  178.9710  144.6470 S   0  0  0  0  0  0  0  0  0  0  0  0
  186.4000  178.5880  144.6540 C   0  0  0  0  0  3  0  0  0  0  0  0
  183.7310  178.3380  142.2430 N   0  0  0  0  0  0  0  0  0  0  0  0
  188.5990  177.5500  146.4540 C   0  0  0  0  0  3  0  0  0  0  0  0
  192.3720  176.6830  148.5180 N   0  0  0  0  0  2  0  0  0  0  0  0
  191.9830  176.0540  147.2940 C   0  0  0  0  0  0  0  0  0  0  0  0
  192.6100  175.0420  146.8800 O   0  0  0  0  0  0  0  0  0  0  0  0
  193.4810  176.1930  149.3180 C   0  0  0  0  0  1  0  0  0  0  0  0
  188.0250  178.4130  140.3740 C   0  0  0  0  0  2  0  0  0  0  0  0
  186.9730  178.2410  139.2920 C   0  0  0  0  0  2  0  0  0  0  0  0
  187.5710  177.5590  138.0740 C   0  0  0  0  0  2  0  0  0  0  0  0
  187.7800  178.5380  136.9680 C   0  0  0  0  0  0  0  0  0  0  0  0
  187.0950  178.3880  135.7690 O   0  0  0  0  0  0  0  0  0  0  0  0
  188.6000  179.4830  137.1090 O   0  0  0  0  0  1  0  0  0  0  0  0
  1 14  1  0  0  0  0
  2 14  1  0  0  0  0
  2 15  2  0  0  0  0
  3 15  1  0  0  0  0
  3  9  1  0  0  0  0
  4 12  1  0  0  0  0
  4 19  1  0  0  0  0
  5 22  1  6  0  0  0
  5  7  1  0  0  0  0
  6  7  1  0  0  0  0
  6 13  1  0  0  0  0
  7  3  2  0  0  0  0
  8  4  2  0  0  0  0
  9 17  1  0  0  0  0
 10  5  1  0  0  0  0
 10 11  2  0  0  0  0
 11  2  1  0  0  0  0
 13  9  2  0  0  0  0
 13  8  1  0  0  0  0
 16 11  1  0  0  0  0
 16  1  2  0  0  0  0
 17 12  2  0  0  0  0
 18 21  1  0  0  0  0
 19 18  1  0  0  0  0
 20 19  2  0  0  0  0
 23 22  1  0  0  0  0
 24 23  1  0  0  0  0
 25 27  1  0  0  0  0
 25 24  1  0  0  0  0
 26 25  2  0  0  0  0
M  END
>  <MODEL>
8

>  <REMARK>
 VINA RESULT:      -7.9      3.715      7.997
  Name = 
  5 active torsions:
  status: ('A' for Active; 'I' for Inactive)
    1  A    between atoms: C_1  and  C_14
    2  A    between atoms: C_1  and  C_18
    3  A    between atoms: C_6  and  C_7
    4  A    between atoms: C_8  and  C_11
    5  A    between atoms: C_11  and  C_14
                            x       y       z     vdW  Elec       q    Type
                         _______ _______ _______ _____ _____    ______ ____

>  <TORSDO>
F 5

$$$$
=
 OpenBabel10232411433D

 27 30  0  0  1  0  0  0  0  0999 V2000
  189.3500  178.2120  137.3190 C   0  0  0  0  0  3  0  0  0  0  0  0
  189.2030  177.3940  139.6550 C   0  0  0  0  0  0  0  0  0  0  0  0
  189.0260  177.3750  142.1550 C   0  0  0  0  0  0  0  0  0  0  0  0
  190.8020  176.9130  145.9310 C   0  0  0  0  0  0  0  0  0  0  0  0
  186.7720  178.1920  141.2790 C   0  0  2  0  0  3  0  0  0  0  0  0
  187.6060  178.3670  143.9890 S   0  0  0  0  0  0  0  0  0  0  0  0
  187.8270  178.0650  142.3320 C   0  0  0  0  0  0  0  0  0  0  0  0
  189.5620  177.5570  145.7590 C   0  0  0  0  0  3  0  0  0  0  0  0
  189.7110  177.1650  143.3620 C   0  0  0  0  0  0  0  0  0  0  0  0
  187.2710  178.7850  140.0410 N   0  0  0  0  0  0  0  0  0  0  0  0
  188.2640  178.3780  139.3050 C   0  0  0  0  0  0  0  0  0  0  0  0
  191.4850  176.4000  144.8070 C   0  0  0  0  0  3  0  0  0  0  0  0
  189.0500  177.6690  144.4690 C   0  0  0  0  0  0  0  0  0  0  0  0
  190.1130  177.0690  138.2850 S   0  0  0  0  0  0  0  0  0  0  0  0
  189.5640  176.9400  140.8580 C   0  0  0  0  0  3  0  0  0  0  0  0
  188.3820  178.8350  138.0280 N   0  0  0  0  0  0  0  0  0  0  0  0
  190.9430  176.5220  143.5180 C   0  0  0  0  0  3  0  0  0  0  0  0
  192.4990  175.9030  147.4900 N   0  0  0  0  0  2  0  0  0  0  0  0
  191.3840  176.7740  147.2780 C   0  0  0  0  0  0  0  0  0  0  0  0
  190.9000  177.4230  148.2450 O   0  0  0  0  0  0  0  0  0  0  0  0
  193.1070  175.7340  148.7980 C   0  0  0  0  0  1  0  0  0  0  0  0
  185.5650  178.9820  141.7660 C   0  0  0  0  0  2  0  0  0  0  0  0
  184.4600  178.0390  142.2120 C   0  0  0  0  0  2  0  0  0  0  0  0
  183.1450  178.7880  142.3460 C   0  0  0  0  0  2  0  0  0  0  0  0
  182.7170  178.8550  143.7730 C   0  0  0  0  0  0  0  0  0  0  0  0
  181.3680  178.7880  144.0960 O   0  0  0  0  0  0  0  0  0  0  0  0
  183.5740  179.0020  144.6820 O   0  0  0  0  0  1  0  0  0  0  0  0
  1 16  2  0  0  0  0
  1 14  1  0  0  0  0
  2 15  2  0  0  0  0
  3  7  2  0  0  0  0
  3  9  1  0  0  0  0
  4 19  1  0  0  0  0
  5 22  1  1  0  0  0
  5  7  1  0  0  0  0
  6 13  1  0  0  0  0
  7  6  1  0  0  0  0
  8  4  1  0  0  0  0
  9 17  2  0  0  0  0
  9 13  1  0  0  0  0
 10  5  1  0  0  0  0
 11  2  1  0  0  0  0
 11 10  2  0  0  0  0
 12  4  2  0  0  0  0
 13  8  2  0  0  0  0
 14  2  1  0  0  0  0
 15  3  1  0  0  0  0
 16 11  1  0  0  0  0
 17 12  1  0  0  0  0
 18 21  1  0  0  0  0
 19 18  1  0  0  0  0
 19 20  2  0  0  0  0
 22 23  1  0  0  0  0
 23 24  1  0  0  0  0
 24 25  1  0  0  0  0
 25 26  2  0  0  0  0
 25 27  1  0  0  0  0
M  END
>  <MODEL>
9

>  <REMARK>
 VINA RESULT:      -7.7      2.086      6.815
  Name = 
  5 active torsions:
  status: ('A' for Active; 'I' for Inactive)
    1  A    between atoms: C_1  and  C_14
    2  A    between atoms: C_1  and  C_18
    3  A    between atoms: C_6  and  C_7
    4  A    between atoms: C_8  and  C_11
    5  A    between atoms: C_11  and  C_14
                            x       y       z     vdW  Elec       q    Type
                         _______ _______ _______ _____ _____    ______ ____

>  <TORSDO>
F 5

$$$$
