=
 OpenBabel10232411453D

 27 31  0  0  1  0  0  0  0  0999 V2000
  188.2290  178.7170  139.6110 N   0  0  0  0  0  0  0  0  0  0  0  0
  189.9930  177.1050  139.8220 C   0  0  0  0  0  0  0  0  0  0  0  0
  189.1710  177.8920  139.0660 C   0  0  0  0  0  0  0  0  0  0  0  0
  190.6160  176.4540  142.1740 N   0  0  0  0  0  2  0  0  0  0  0  0
  188.9130  177.9560  141.7760 C   0  0  0  0  0  0  0  0  0  0  0  0
  190.9150  176.3590  138.9220 C   0  0  0  0  0  3  0  0  0  0  0  0
  190.5010  176.8260  137.5880 N   0  0  0  0  0  0  0  0  0  0  0  0
  188.9830  177.8150  143.2630 C   0  0  2  0  0  3  0  0  0  0  0  0
  188.8940  178.3360  136.5130 C   0  0  0  0  0  1  0  0  0  0  0  0
  188.0830  178.7640  140.9740 C   0  0  0  0  0  2  0  0  0  0  0  0
  189.8580  177.1390  141.2010 C   0  0  0  0  0  0  0  0  0  0  0  0
  190.1080  176.8730  143.4150 N   0  0  0  0  0  0  0  0  0  0  0  0
  189.5290  177.6800  137.6870 C   0  0  0  0  0  0  0  0  0  0  0  0
  192.0500  175.9080  147.0630 C   0  0  0  0  0  0  0  0  0  0  0  0
  191.6800  175.4930  144.7060 C   0  0  0  0  0  3  0  0  0  0  0  0
  192.3250  175.1740  145.9050 C   0  0  0  0  0  3  0  0  0  0  0  0
  190.7580  176.5480  144.6530 C   0  0  0  0  0  0  0  0  0  0  0  0
  191.1430  176.9710  147.0160 C   0  0  0  0  0  3  0  0  0  0  0  0
  190.4990  177.2890  145.8160 C   0  0  0  0  0  3  0  0  0  0  0  0
  192.7520  175.5860  148.3340 C   0  0  0  0  0  2  0  0  0  0  0  0
  193.1980  176.7610  148.9380 O   0  0  0  0  0  1  0  0  0  0  0  0
  187.6970  177.1740  143.7770 C   0  0  1  0  0  3  0  0  0  0  0  0
  187.4880  177.5240  145.2380 C   0  0  0  0  0  2  0  0  0  0  0  0
  186.7070  178.2560  144.1690 C   0  0  2  0  0  3  0  0  0  0  0  0
  184.3140  179.8320  143.9190 N   0  0  0  0  0  2  0  0  0  0  0  0
  184.2060  178.5450  143.9750 C   0  0  0  0  0  3  0  0  0  0  0  0
  185.3600  177.7130  144.1000 N   0  0  0  0  0  2  0  0  0  0  0  0
  1 10  1  0  0  0  0
  2 11  1  0  0  0  0
  3  1  2  0  0  0  0
  3  2  1  0  0  0  0
  4 12  1  0  0  0  0
  6  2  2  0  0  0  0
  7 13  2  0  0  0  0
  7  6  1  0  0  0  0
  8  5  1  6  0  0  0
  8 12  1  0  0  0  0
  8 22  1  0  0  0  0
  9 13  1  0  0  0  0
 10  5  1  0  0  0  0
 11  5  2  0  0  0  0
 11  4  1  0  0  0  0
 12 17  1  0  0  0  0
 13  3  1  0  0  0  0
 14 20  1  0  0  0  0
 15 16  1  0  0  0  0
 16 14  2  0  0  0  0
 17 15  2  0  0  0  0
 17 19  1  0  0  0  0
 18 14  1  0  0  0  0
 19 18  2  0  0  0  0
 20 21  1  0  0  0  0
 22 24  1  0  0  0  0
 22 23  1  1  0  0  0
 24 27  1  1  0  0  0
 24 23  1  0  0  0  0
 25 26  2  0  0  0  0
 26 27  1  0  0  0  0
M  END
>  <MODEL>
1

>  <REMARK>
 VINA RESULT:      -8.4      0.000      0.000
  Name = 
  4 active torsions:
  status: ('A' for Active; 'I' for Inactive)
    1  A    between atoms: C_2  and  C_4
    2  A    between atoms: C_6  and  C_14
    3  A    between atoms: N_18  and  C_25
    4  A    between atoms: C_21  and  N_26
                            x       y       z     vdW  Elec       q    Type
                         _______ _______ _______ _____ _____    ______ ____

>  <TORSDO>
F 4

$$$$
=
 OpenBabel10232411453D

 27 31  0  0  1  0  0  0  0  0999 V2000
  190.4620  176.3220  141.7760 N   0  0  0  0  0  0  0  0  0  0  0  0
  189.0970  177.7540  140.4190 C   0  0  0  0  0  0  0  0  0  0  0  0
  190.2370  177.0300  140.6300 C   0  0  0  0  0  0  0  0  0  0  0  0
  186.8760  178.4160  141.4020 N   0  0  0  0  0  2  0  0  0  0  0  0
  188.3380  177.0810  142.5810 C   0  0  0  0  0  0  0  0  0  0  0  0
  189.1600  178.3740  139.0670 C   0  0  0  0  0  3  0  0  0  0  0  0
  190.4630  177.9080  138.5640 N   0  0  0  0  0  0  0  0  0  0  0  0
  187.1530  177.2620  143.4760 C   0  0  2  0  0  3  0  0  0  0  0  0
  192.3810  176.5330  139.2340 C   0  0  0  0  0  1  0  0  0  0  0  0
  189.5180  176.3340  142.7710 C   0  0  0  0  0  2  0  0  0  0  0  0
  188.1340  177.7790  141.4150 C   0  0  0  0  0  0  0  0  0  0  0  0
  186.2730  178.0910  142.6290 N   0  0  0  0  0  0  0  0  0  0  0  0
  191.0490  177.1600  139.4480 C   0  0  0  0  0  0  0  0  0  0  0  0
  182.1960  178.9540  143.4290 C   0  0  0  0  0  0  0  0  0  0  0  0
  183.9470  178.3380  141.8740 C   0  0  0  0  0  3  0  0  0  0  0  0
  182.6020  178.6180  142.1340 C   0  0  0  0  0  3  0  0  0  0  0  0
  184.8960  178.3890  142.9050 C   0  0  0  0  0  0  0  0  0  0  0  0
  183.1330  178.9930  144.4650 C   0  0  0  0  0  3  0  0  0  0  0  0
  184.4780  178.7130  144.2040 C   0  0  0  0  0  3  0  0  0  0  0  0
  180.7620  179.2290  143.7120 C   0  0  0  0  0  2  0  0  0  0  0  0
  180.3450  180.3490  142.9920 O   0  0  0  0  0  1  0  0  0  0  0  0
  187.5640  178.0460  144.7180 C   0  0  1  0  0  3  0  0  0  0  0  0
  186.8040  177.5410  145.9280 C   0  0  0  0  0  2  0  0  0  0  0  0
  188.2390  177.1150  145.7110 C   0  0  2  0  0  3  0  0  0  0  0  0
  190.5140  176.0660  147.1230 N   0  0  0  0  0  2  0  0  0  0  0  0
  190.2280  177.3200  147.2530 C   0  0  0  0  0  3  0  0  0  0  0  0
  189.1100  177.8950  146.5750 N   0  0  0  0  0  2  0  0  0  0  0  0
  1 10  1  0  0  0  0
  2  3  1  0  0  0  0
  2 11  1  0  0  0  0
  3  1  2  0  0  0  0
  4 11  1  0  0  0  0
  4 12  1  0  0  0  0
  5 10  1  0  0  0  0
  6  2  2  0  0  0  0
  7  6  1  0  0  0  0
  7 13  2  0  0  0  0
  8  5  1  6  0  0  0
  8 22  1  0  0  0  0
  9 13  1  0  0  0  0
 11  5  2  0  0  0  0
 12 17  1  0  0  0  0
 12  8  1  0  0  0  0
 13  3  1  0  0  0  0
 14 20  1  0  0  0  0
 14 18  1  0  0  0  0
 15 16  1  0  0  0  0
 15 17  2  0  0  0  0
 16 14  2  0  0  0  0
 17 19  1  0  0  0  0
 19 18  2  0  0  0  0
 21 20  1  0  0  0  0
 22 24  1  0  0  0  0
 22 23  1  1  0  0  0
 24 23  1  0  0  0  0
 24 27  1  1  0  0  0
 25 26  2  0  0  0  0
 27 26  1  0  0  0  0
M  END
>  <MODEL>
2

>  <REMARK>
 VINA RESULT:      -8.3      3.316      6.438
  Name = 
  4 active torsions:
  status: ('A' for Active; 'I' for Inactive)
    1  A    between atoms: C_2  and  C_4
    2  A    between atoms: C_6  and  C_14
    3  A    between atoms: N_18  and  C_25
    4  A    between atoms: C_21  and  N_26
                            x       y       z     vdW  Elec       q    Type
                         _______ _______ _______ _____ _____    ______ ____

>  <TORSDO>
F 4

$$$$
=
 OpenBabel10232411453D

 27 31  0  0  1  0  0  0  0  0999 V2000
  187.3280  177.2050  145.4390 N   0  0  0  0  0  0  0  0  0  0  0  0
  189.7190  177.3770  145.3500 C   0  0  0  0  0  0  0  0  0  0  0  0
  188.5450  177.3160  146.0480 C   0  0  0  0  0  0  0  0  0  0  0  0
  190.7430  177.3400  143.0500 N   0  0  0  0  0  2  0  0  0  0  0  0
  188.4580  177.2300  143.3280 C   0  0  0  0  0  0  0  0  0  0  0  0
  190.8520  177.4640  146.3130 C   0  0  0  0  0  2  0  0  0  0  0  0
  190.1640  177.4450  147.6150 N   0  0  0  0  0  0  0  0  0  0  0  0
  188.6830  177.1920  141.8500 C   0  0  2  0  0  3  0  0  0  0  0  0
  187.9100  177.3180  148.5750 C   0  0  0  0  0  1  0  0  0  0  0  0
  187.2620  177.1600  144.0690 C   0  0  0  0  0  3  0  0  0  0  0  0
  189.6710  177.3350  143.9660 C   0  0  0  0  0  0  0  0  0  0  0  0
  190.1560  177.2330  141.7780 N   0  0  0  0  0  0  0  0  0  0  0  0
  188.8800  177.3620  147.4480 C   0  0  0  0  0  0  0  0  0  0  0  0
  192.4850  176.5460  138.2970 C   0  0  0  0  0  0  0  0  0  0  0  0
  192.2570  177.4730  140.5230 C   0  0  0  0  0  3  0  0  0  0  0  0
  193.0280  177.2450  139.3790 C   0  0  0  0  0  3  0  0  0  0  0  0
  190.9370  177.0020  140.5960 C   0  0  0  0  0  0  0  0  0  0  0  0
  191.1760  176.0610  138.3670 C   0  0  0  0  0  3  0  0  0  0  0  0
  190.4050  176.2890  139.5120 C   0  0  0  0  0  3  0  0  0  0  0  0
  193.3120  176.2830  137.0900 C   0  0  0  0  0  2  0  0  0  0  0  0
  194.5340  175.7260  137.4660 O   0  0  0  0  0  1  0  0  0  0  0  0
  188.0990  178.4480  141.2100 C   0  0  1  0  0  3  0  0  0  0  0  0
  188.1280  178.3250  139.6990 C   0  0  0  0  0  2  0  0  0  0  0  0
  186.8340  178.0930  140.4480 C   0  0  2  0  0  3  0  0  0  0  0  0
  184.0650  178.2150  141.2140 N   0  0  0  0  0  2  0  0  0  0  0  0
  184.6240  179.2790  140.7390 C   0  0  0  0  0  3  0  0  0  0  0  0
  185.9970  179.2760  140.3420 N   0  0  0  0  0  2  0  0  0  0  0  0
  1  3  1  0  0  0  0
  2  3  2  0  0  0  0
  2  6  1  0  0  0  0
  3 13  1  0  0  0  0
  4 11  1  0  0  0  0
  5 11  2  0  0  0  0
  5 10  1  0  0  0  0
  6  7  1  0  0  0  0
  8  5  1  1  0  0  0
 10  1  2  0  0  0  0
 11  2  1  0  0  0  0
 12  8  1  0  0  0  0
 12  4  1  0  0  0  0
 13  7  2  0  0  0  0
 13  9  1  0  0  0  0
 14 18  2  0  0  0  0
 14 16  1  0  0  0  0
 15 17  1  0  0  0  0
 16 15  2  0  0  0  0
 17 12  1  0  0  0  0
 18 19  1  0  0  0  0
 19 17  2  0  0  0  0
 20 21  1  0  0  0  0
 20 14  1  0  0  0  0
 22 23  1  6  0  0  0
 22  8  1  0  0  0  0
 23 24  1  0  0  0  0
 24 27  1  6  0  0  0
 24 22  1  0  0  0  0
 26 25  2  0  0  0  0
 27 26  1  0  0  0  0
M  END
>  <MODEL>
3

>  <REMARK>
 VINA RESULT:      -7.9      3.023      6.615
  Name = 
  4 active torsions:
  status: ('A' for Active; 'I' for Inactive)
    1  A    between atoms: C_2  and  C_4
    2  A    between atoms: C_6  and  C_14
    3  A    between atoms: N_18  and  C_25
    4  A    between atoms: C_21  and  N_26
                            x       y       z     vdW  Elec       q    Type
                         _______ _______ _______ _____ _____    ______ ____

>  <TORSDO>
F 4

$$$$
=
 OpenBabel10232411453D

 27 31  0  0  1  0  0  0  0  0999 V2000
  186.8770  178.4140  145.5220 N   0  0  0  0  0  0  0  0  0  0  0  0
  186.3300  177.9710  143.2290 C   0  0  0  0  0  0  0  0  0  0  0  0
  185.9740  178.3140  144.5030 C   0  0  0  0  0  0  0  0  0  0  0  0
  188.2640  177.3790  141.7290 N   0  0  0  0  0  2  0  0  0  0  0  0
  188.5930  177.7940  143.9720 C   0  0  0  0  0  0  0  0  0  0  0  0
  185.1170  177.9820  142.3650 C   0  0  0  0  0  3  0  0  0  0  0  0
  184.0570  178.3680  143.3120 N   0  0  0  0  0  0  0  0  0  0  0  0
  189.9460  177.4730  143.4220 C   0  0  2  0  0  3  0  0  0  0  0  0
  183.7340  178.9490  145.6740 C   0  0  0  0  0  1  0  0  0  0  0  0
  188.2010  178.1570  145.2750 C   0  0  0  0  0  2  0  0  0  0  0  0
  187.6640  177.7060  142.9630 C   0  0  0  0  0  0  0  0  0  0  0  0
  189.6380  177.2590  141.9950 N   0  0  0  0  0  0  0  0  0  0  0  0
  184.5520  178.5490  144.4980 C   0  0  0  0  0  0  0  0  0  0  0  0
  192.4920  176.8900  138.8760 C   0  0  0  0  0  0  0  0  0  0  0  0
  190.2530  176.5370  139.7270 C   0  0  0  0  0  3  0  0  0  0  0  0
  191.1890  176.4170  138.6960 C   0  0  0  0  0  3  0  0  0  0  0  0
  190.6100  177.1320  140.9460 C   0  0  0  0  0  0  0  0  0  0  0  0
  192.8520  177.4980  140.0830 C   0  0  0  0  0  3  0  0  0  0  0  0
  191.9150  177.6180  141.1130 C   0  0  0  0  0  3  0  0  0  0  0  0
  193.4830  176.7850  137.7720 C   0  0  0  0  0  2  0  0  0  0  0  0
  194.4100  175.7850  138.0630 O   0  0  0  0  0  1  0  0  0  0  0  0
  190.4570  176.1760  144.0420 C   0  0  1  0  0  3  0  0  0  0  0  0
  191.8870  175.9190  143.6090 C   0  0  0  0  0  2  0  0  0  0  0  0
  191.6070  176.4780  144.9870 C   0  0  2  0  0  3  0  0  0  0  0  0
  191.9810  176.8780  147.8100 N   0  0  0  0  0  2  0  0  0  0  0  0
  191.8910  175.6690  147.3620 C   0  0  0  0  0  3  0  0  0  0  0  0
  191.7060  175.4110  145.9690 N   0  0  0  0  0  2  0  0  0  0  0  0
  2  3  1  0  0  0  0
  3  1  2  0  0  0  0
  4 12  1  0  0  0  0
  4 11  1  0  0  0  0
  5 10  1  0  0  0  0
  6  2  2  0  0  0  0
  6  7  1  0  0  0  0
  7 13  2  0  0  0  0
  8  5  1  1  0  0  0
  8 22  1  0  0  0  0
 10  1  1  0  0  0  0
 11  2  1  0  0  0  0
 11  5  2  0  0  0  0
 12  8  1  0  0  0  0
 13  3  1  0  0  0  0
 13  9  1  0  0  0  0
 14 18  1  0  0  0  0
 15 17  2  0  0  0  0
 16 14  2  0  0  0  0
 16 15  1  0  0  0  0
 17 19  1  0  0  0  0
 17 12  1  0  0  0  0
 18 19  2  0  0  0  0
 20 21  1  0  0  0  0
 20 14  1  0  0  0  0
 22 23  1  6  0  0  0
 22 24  1  0  0  0  0
 23 24  1  0  0  0  0
 24 27  1  1  0  0  0
 26 25  2  0  0  0  0
 27 26  1  0  0  0  0
M  END
>  <MODEL>
4

>  <REMARK>
 VINA RESULT:      -7.7      2.780      6.663
  Name = 
  4 active torsions:
  status: ('A' for Active; 'I' for Inactive)
    1  A    between atoms: C_2  and  C_4
    2  A    between atoms: C_6  and  C_14
    3  A    between atoms: N_18  and  C_25
    4  A    between atoms: C_21  and  N_26
                            x       y       z     vdW  Elec       q    Type
                         _______ _______ _______ _____ _____    ______ ____

>  <TORSDO>
F 4

$$$$
=
 OpenBabel10232411453D

 27 31  0  0  1  0  0  0  0  0999 V2000
  188.3000  177.0130  145.3230 N   0  0  0  0  0  0  0  0  0  0  0  0
  190.1620  177.5240  143.9000 C   0  0  0  0  0  0  0  0  0  0  0  0
  189.6360  177.2150  145.1220 C   0  0  2  0  0  3  0  0  0  0  0  0
  189.6200  177.9160  141.4730 N   0  0  0  0  0  2  0  0  0  0  0  0
  187.9530  177.4580  142.9960 C   0  0  0  0  0  0  0  0  0  0  0  0
  191.6410  177.6460  144.0250 C   0  0  0  0  0  3  0  0  0  0  0  0
  191.8620  177.3690  145.4550 N   0  0  0  0  0  0  0  0  0  0  0  0
  187.2570  177.6360  141.6840 C   0  0  2  0  0  3  0  0  0  0  0  0
  190.6260  176.8130  147.5000 C   0  0  0  0  0  1  0  0  0  0  0  0
  187.4350  177.1310  144.2650 C   0  0  0  0  0  3  0  0  0  0  0  0
  189.3030  177.6490  142.8210 C   0  0  0  0  0  0  0  0  0  0  0  0
  188.3970  177.8890  140.7820 N   0  0  0  0  0  0  0  0  0  0  0  0
  190.7340  177.1310  146.0510 C   0  0  0  0  0  0  0  0  0  0  0  0
  188.2260  177.9780  136.5420 C   0  0  0  0  0  0  0  0  0  0  0  0
  189.0800  178.8610  138.6290 C   0  0  0  0  0  3  0  0  0  0  0  0
  189.0290  178.8910  137.2320 C   0  0  0  0  0  3  0  0  0  0  0  0
  188.3310  177.9180  139.3480 C   0  0  0  0  0  0  0  0  0  0  0  0
  187.4870  177.0260  137.2500 C   0  0  0  0  0  3  0  0  0  0  0  0
  187.5390  176.9960  138.6470 C   0  0  0  0  0  3  0  0  0  0  0  0
  188.1890  177.9940  135.0560 C   0  0  0  0  0  2  0  0  0  0  0  0
  186.8680  178.0760  134.6170 O   0  0  0  0  0  1  0  0  0  0  0  0
  186.3600  178.8690  141.7430 C   0  0  1  0  0  3  0  0  0  0  0  0
  185.2670  178.7680  140.6980 C   0  0  0  0  0  2  0  0  0  0  0  0
  184.9540  178.4600  142.1450 C   0  0  2  0  0  3  0  0  0  0  0  0
  184.2010  178.6450  144.9150 N   0  0  0  0  0  2  0  0  0  0  0  0
  183.9320  179.6370  144.1320 C   0  0  0  0  0  3  0  0  0  0  0  0
  184.2830  179.6000  142.7470 N   0  0  0  0  0  2  0  0  0  0  0  0
  2  6  2  0  0  0  0
  3  2  1  6  0  0  0
  3  1  1  0  0  0  0
  3 13  1  0  0  0  0
  4 11  1  0  0  0  0
  5 10  1  0  0  0  0
  6  7  1  0  0  0  0
  7 13  2  0  0  0  0
  8 22  1  0  0  0  0
  8  5  1  1  0  0  0
 10  1  2  0  0  0  0
 11  5  2  0  0  0  0
 11  2  1  0  0  0  0
 12  4  1  0  0  0  0
 12  8  1  0  0  0  0
 13  9  1  0  0  0  0
 14 16  2  0  0  0  0
 14 18  1  0  0  0  0
 15 17  2  0  0  0  0
 16 15  1  0  0  0  0
 17 12  1  0  0  0  0
 18 19  2  0  0  0  0
 19 17  1  0  0  0  0
 20 14  1  0  0  0  0
 21 20  1  0  0  0  0
 22 23  1  6  0  0  0
 22 24  1  0  0  0  0
 23 24  1  0  0  0  0
 24 27  1  1  0  0  0
 26 25  2  0  0  0  0
 27 26  1  0  0  0  0
M  END
>  <MODEL>
5

>  <REMARK>
 VINA RESULT:      -7.6      3.494      7.232
  Name = 
  4 active torsions:
  status: ('A' for Active; 'I' for Inactive)
    1  A    between atoms: C_2  and  C_4
    2  A    between atoms: C_6  and  C_14
    3  A    between atoms: N_18  and  C_25
    4  A    between atoms: C_21  and  N_26
                            x       y       z     vdW  Elec       q    Type
                         _______ _______ _______ _____ _____    ______ ____

>  <TORSDO>
F 4

$$$$
=
 OpenBabel10232411453D

 27 31  0  0  1  0  0  0  0  0999 V2000
  187.7680  178.4460  138.1000 N   0  0  0  0  0  0  0  0  0  0  0  0
  189.3670  177.0700  139.2420 C   0  0  0  0  0  0  0  0  0  0  0  0
  188.8360  177.5960  138.0980 C   0  0  0  0  0  0  0  0  0  0  0  0
  189.1870  177.0250  141.7530 N   0  0  0  0  0  2  0  0  0  0  0  0
  187.7080  178.2570  140.4860 C   0  0  0  0  0  0  0  0  0  0  0  0
  190.5320  176.2130  138.8890 C   0  0  0  0  0  3  0  0  0  0  0  0
  190.5770  176.3300  137.4210 N   0  0  0  0  0  0  0  0  0  0  0  0
  187.2880  178.4650  141.9060 C   0  0  2  0  0  3  0  0  0  0  0  0
  189.4090  177.4220  135.5610 C   0  0  0  0  0  1  0  0  0  0  0  0
  187.1850  178.7920  139.2930 C   0  0  0  0  0  2  0  0  0  0  0  0
  188.7890  177.4080  140.4560 C   0  0  0  0  0  0  0  0  0  0  0  0
  188.3020  177.6750  142.6300 N   0  0  0  0  0  0  0  0  0  0  0  0
  189.6260  177.1040  136.9980 C   0  0  0  0  0  0  0  0  0  0  0  0
  188.9410  177.7460  146.8250 C   0  0  0  0  0  0  0  0  0  0  0  0
  189.8150  177.7470  144.5660 C   0  0  0  0  0  3  0  0  0  0  0  0
  190.0290  177.7750  145.9480 C   0  0  0  0  0  3  0  0  0  0  0  0
  188.5120  177.6940  144.0500 C   0  0  0  0  0  0  0  0  0  0  0  0
  187.6380  177.7070  146.3180 C   0  0  0  0  0  3  0  0  0  0  0  0
  187.4250  177.6800  144.9360 C   0  0  0  0  0  3  0  0  0  0  0  0
  189.1660  177.7990  148.2940 C   0  0  0  0  0  2  0  0  0  0  0  0
  187.9420  177.8920  148.9560 O   0  0  0  0  0  1  0  0  0  0  0  0
  185.9050  177.8590  142.1260 C   0  0  1  0  0  3  0  0  0  0  0  0
  185.0830  178.7510  143.0350 C   0  0  0  0  0  2  0  0  0  0  0  0
  184.8450  178.7760  141.5420 C   0  0  2  0  0  3  0  0  0  0  0  0
  182.9330  179.4410  139.4990 N   0  0  0  0  0  2  0  0  0  0  0  0
  182.7440  178.3720  140.2000 C   0  0  0  0  0  3  0  0  0  0  0  0
  183.6610  177.9930  141.2280 N   0  0  0  0  0  2  0  0  0  0  0  0
  1 10  1  0  0  0  0
  2 11  1  0  0  0  0
  3  1  2  0  0  0  0
  3  2  1  0  0  0  0
  4 12  1  0  0  0  0
  6  2  2  0  0  0  0
  7  6  1  0  0  0  0
  8  5  1  6  0  0  0
  8 22  1  0  0  0  0
  8 12  1  0  0  0  0
  9 13  1  0  0  0  0
 10  5  1  0  0  0  0
 11  5  2  0  0  0  0
 11  4  1  0  0  0  0
 12 17  1  0  0  0  0
 13  7  2  0  0  0  0
 13  3  1  0  0  0  0
 14 20  1  0  0  0  0
 15 16  1  0  0  0  0
 16 14  2  0  0  0  0
 17 15  2  0  0  0  0
 17 19  1  0  0  0  0
 18 14  1  0  0  0  0
 19 18  2  0  0  0  0
 20 21  1  0  0  0  0
 22 23  1  1  0  0  0
 24 27  1  1  0  0  0
 24 22  1  0  0  0  0
 24 23  1  0  0  0  0
 25 26  2  0  0  0  0
 26 27  1  0  0  0  0
M  END
>  <MODEL>
6

>  <REMARK>
 VINA RESULT:      -7.4      2.175      2.840
  Name = 
  4 active torsions:
  status: ('A' for Active; 'I' for Inactive)
    1  A    between atoms: C_2  and  C_4
    2  A    between atoms: C_6  and  C_14
    3  A    between atoms: N_18  and  C_25
    4  A    between atoms: C_21  and  N_26
                            x       y       z     vdW  Elec       q    Type
                         _______ _______ _______ _____ _____    ______ ____

>  <TORSDO>
F 4

$$$$
=
 OpenBabel10232411453D

 27 31  0  0  1  0  0  0  0  0999 V2000
  191.8280  177.2970  142.9110 N   0  0  0  0  0  0  0  0  0  0  0  0
  189.4510  177.0060  142.7550 C   0  0  0  0  0  0  0  0  0  0  0  0
  190.6010  177.1210  143.4850 C   0  0  0  0  0  0  0  0  0  0  0  0
  188.4910  177.0080  140.4280 N   0  0  0  0  0  2  0  0  0  0  0  0
  190.7590  177.2300  140.7690 C   0  0  0  0  0  0  0  0  0  0  0  0
  188.2980  176.8570  143.6860 C   0  0  0  0  0  2  0  0  0  0  0  0
  188.9490  176.9010  145.0060 N   0  0  0  0  0  0  0  0  0  0  0  0
  190.5730  177.2660  139.2860 C   0  0  2  0  0  3  0  0  0  0  0  0
  191.1660  177.1340  146.0300 C   0  0  0  0  0  1  0  0  0  0  0  0
  191.9290  177.3550  141.5440 C   0  0  0  0  0  3  0  0  0  0  0  0
  189.5360  177.0600  141.3730 C   0  0  0  0  0  0  0  0  0  0  0  0
  189.1070  177.1530  139.1730 N   0  0  0  0  0  0  0  0  0  0  0  0
  190.2310  177.0490  144.8760 C   0  0  0  0  0  0  0  0  0  0  0  0
  186.8820  177.7560  135.6100 C   0  0  0  0  0  0  0  0  0  0  0  0
  188.3780  178.5940  137.3190 C   0  0  0  0  0  3  0  0  0  0  0  0
  187.6490  178.7960  136.1430 C   0  0  0  0  0  3  0  0  0  0  0  0
  188.3480  177.3520  137.9710 C   0  0  0  0  0  0  0  0  0  0  0  0
  186.8570  176.5110  136.2450 C   0  0  0  0  0  3  0  0  0  0  0  0
  187.5870  176.3100  137.4200 C   0  0  0  0  0  3  0  0  0  0  0  0
  186.1250  177.9620  134.3460 C   0  0  0  0  0  2  0  0  0  0  0  0
  184.9040  177.2920  134.4130 O   0  0  0  0  0  1  0  0  0  0  0  0
  191.2370  176.0460  138.6560 C   0  0  1  0  0  3  0  0  0  0  0  0
  191.3220  176.2170  137.1520 C   0  0  0  0  0  2  0  0  0  0  0  0
  192.5470  176.4540  138.0060 C   0  0  2  0  0  3  0  0  0  0  0  0
  194.8120  176.2180  136.2480 N   0  0  0  0  0  2  0  0  0  0  0  0
  194.5330  175.2320  137.0370 C   0  0  0  0  0  3  0  0  0  0  0  0
  193.4200  175.2950  137.9300 N   0  0  0  0  0  2  0  0  0  0  0  0
  1  3  1  0  0  0  0
  2  3  2  0  0  0  0
  2  6  1  0  0  0  0
  3 13  1  0  0  0  0
  4 11  1  0  0  0  0
  5 11  2  0  0  0  0
  5 10  1  0  0  0  0
  6  7  1  0  0  0  0
  8  5  1  1  0  0  0
 10  1  2  0  0  0  0
 11  2  1  0  0  0  0
 12  8  1  0  0  0  0
 12  4  1  0  0  0  0
 13  7  2  0  0  0  0
 13  9  1  0  0  0  0
 14 16  2  0  0  0  0
 14 18  1  0  0  0  0
 15 17  2  0  0  0  0
 16 15  1  0  0  0  0
 17 12  1  0  0  0  0
 18 19  2  0  0  0  0
 19 17  1  0  0  0  0
 20 21  1  0  0  0  0
 20 14  1  0  0  0  0
 22 23  1  6  0  0  0
 22  8  1  0  0  0  0
 23 24  1  0  0  0  0
 24 27  1  6  0  0  0
 24 22  1  0  0  0  0
 25 26  2  0  0  0  0
 26 27  1  0  0  0  0
M  END
>  <MODEL>
7

>  <REMARK>
 VINA RESULT:      -7.3      3.883      8.972
  Name = 
  4 active torsions:
  status: ('A' for Active; 'I' for Inactive)
    1  A    between atoms: C_2  and  C_4
    2  A    between atoms: C_6  and  C_14
    3  A    between atoms: N_18  and  C_25
    4  A    between atoms: C_21  and  N_26
                            x       y       z     vdW  Elec       q    Type
                         _______ _______ _______ _____ _____    ______ ____

>  <TORSDO>
F 4

$$$$
=
 OpenBabel10232411453D

 27 31  0  0  1  0  0  0  0  0999 V2000
  183.0560  179.5100  144.5430 N   0  0  0  0  0  0  0  0  0  0  0  0
  183.2150  178.5730  142.3400 C   0  0  0  0  0  0  0  0  0  0  0  0
  182.4910  179.1180  143.3630 C   0  0  0  0  0  0  0  0  0  0  0  0
  185.5250  177.9070  141.5900 N   0  0  0  0  0  2  0  0  0  0  0  0
  185.1730  178.7820  143.6920 C   0  0  0  0  0  0  0  0  0  0  0  0
  182.3040  178.2880  141.1970 C   0  0  0  0  0  3  0  0  0  0  0  0
  181.0000  178.7380  141.7130 N   0  0  0  0  0  0  0  0  0  0  0  0
  186.6400  178.5050  143.6160 C   0  0  2  0  0  3  0  0  0  0  0  0
  179.9820  179.7300  143.7120 C   0  0  0  0  0  1  0  0  0  0  0  0
  184.4060  179.3500  144.7290 C   0  0  0  0  0  2  0  0  0  0  0  0
  184.5800  178.4020  142.5120 C   0  0  0  0  0  0  0  0  0  0  0  0
  186.7680  177.9860  142.2410 N   0  0  0  0  0  0  0  0  0  0  0  0
  181.1220  179.1970  142.9200 C   0  0  0  0  0  0  0  0  0  0  0  0
  190.4270  177.3420  140.1900 C   0  0  0  0  0  0  0  0  0  0  0  0
  188.2610  178.4130  140.3340 C   0  0  0  0  0  3  0  0  0  0  0  0
  189.4660  178.2070  139.6580 C   0  0  0  0  0  3  0  0  0  0  0  0
  188.0050  177.7600  141.5490 C   0  0  0  0  0  0  0  0  0  0  0  0
  190.1870  176.6970  141.4070 C   0  0  0  0  0  3  0  0  0  0  0  0
  188.9810  176.9050  142.0830 C   0  0  0  0  0  3  0  0  0  0  0  0
  191.7200  177.1390  139.4840 C   0  0  0  0  0  2  0  0  0  0  0  0
  192.7780  177.4560  140.3350 O   0  0  0  0  0  1  0  0  0  0  0  0
  187.0090  177.4140  144.6170 C   0  0  1  0  0  3  0  0  0  0  0  0
  188.5070  177.4030  144.8470 C   0  0  0  0  0  2  0  0  0  0  0  0
  187.5940  178.0450  145.8680 C   0  0  2  0  0  3  0  0  0  0  0  0
  188.9550  178.2530  148.3930 N   0  0  0  0  0  2  0  0  0  0  0  0
  188.1120  177.2880  148.2210 C   0  0  0  0  0  3  0  0  0  0  0  0
  187.4080  177.1360  146.9880 N   0  0  0  0  0  2  0  0  0  0  0  0
  1 10  1  0  0  0  0
  2 11  1  0  0  0  0
  2  3  1  0  0  0  0
  3  1  2  0  0  0  0
  4 12  1  0  0  0  0
  4 11  1  0  0  0  0
  5 10  1  0  0  0  0
  6  7  1  0  0  0  0
  6  2  2  0  0  0  0
  7 13  2  0  0  0  0
  8  5  1  1  0  0  0
  8 22  1  0  0  0  0
 11  5  2  0  0  0  0
 12  8  1  0  0  0  0
 13  3  1  0  0  0  0
 13  9  1  0  0  0  0
 14 18  1  0  0  0  0
 15 17  2  0  0  0  0
 16 14  2  0  0  0  0
 16 15  1  0  0  0  0
 17 19  1  0  0  0  0
 17 12  1  0  0  0  0
 18 19  2  0  0  0  0
 20 14  1  0  0  0  0
 20 21  1  0  0  0  0
 22 23  1  6  0  0  0
 22 24  1  0  0  0  0
 23 24  1  0  0  0  0
 24 27  1  1  0  0  0
 26 25  2  0  0  0  0
 27 26  1  0  0  0  0
M  END
>  <MODEL>
8

>  <REMARK>
 VINA RESULT:      -7.2      3.238      6.649
  Name = 
  4 active torsions:
  status: ('A' for Active; 'I' for Inactive)
    1  A    between atoms: C_2  and  C_4
    2  A    between atoms: C_6  and  C_14
    3  A    between atoms: N_18  and  C_25
    4  A    between atoms: C_21  and  N_26
                            x       y       z     vdW  Elec       q    Type
                         _______ _______ _______ _____ _____    ______ ____

>  <TORSDO>
F 4

$$$$
=
 OpenBabel10232411453D

 27 31  0  0  1  0  0  0  0  0999 V2000
  190.9610  177.6160  144.8060 N   0  0  0  0  0  0  0  0  0  0  0  0
  188.7190  177.2950  145.5980 C   0  0  0  0  0  0  0  0  0  0  0  0
  190.0710  177.3150  145.7970 C   0  0  0  0  0  0  0  0  0  0  0  0
  186.8890  177.6640  143.9080 N   0  0  0  0  0  2  0  0  0  0  0  0
  189.1060  177.8840  143.3150 C   0  0  0  0  0  0  0  0  0  0  0  0
  188.0440  176.9610  146.8820 C   0  0  0  0  0  2  0  0  0  0  0  0
  189.1800  176.7990  147.8050 N   0  0  0  0  0  0  0  0  0  0  0  0
  188.3290  178.1650  142.0680 C   0  0  2  0  0  3  0  0  0  0  0  0
  191.6300  176.9130  147.8460 C   0  0  0  0  0  1  0  0  0  0  0  0
  190.4950  177.9060  143.5480 C   0  0  0  0  0  3  0  0  0  0  0  0
  188.2320  177.5830  144.3330 C   0  0  0  0  0  0  0  0  0  0  0  0
  186.9420  178.0340  142.5530 N   0  0  0  0  0  0  0  0  0  0  0  0
  190.3020  177.0000  147.1830 C   0  0  0  0  0  0  0  0  0  0  0  0
  183.4760  179.1450  140.3700 C   0  0  0  0  0  0  0  0  0  0  0  0
  185.8700  178.7970  140.4760 C   0  0  0  0  0  3  0  0  0  0  0  0
  184.7300  179.1600  139.7530 C   0  0  0  0  0  3  0  0  0  0  0  0
  185.7660  178.4130  141.8210 C   0  0  0  0  0  0  0  0  0  0  0  0
  183.3620  178.7500  141.7070 C   0  0  0  0  0  3  0  0  0  0  0  0
  184.5020  178.3870  142.4290 C   0  0  0  0  0  3  0  0  0  0  0  0
  182.2600  179.5080  139.5950 C   0  0  0  0  0  2  0  0  0  0  0  0
  182.5420  180.5800  138.7490 O   0  0  0  0  0  1  0  0  0  0  0  0
  188.6190  177.0850  141.0300 C   0  0  1  0  0  3  0  0  0  0  0  0
  188.6040  177.6850  139.6370 C   0  0  0  0  0  2  0  0  0  0  0  0
  189.9240  177.3970  140.3180 C   0  0  2  0  0  3  0  0  0  0  0  0
  190.9750  177.0800  137.6600 N   0  0  0  0  0  2  0  0  0  0  0  0
  190.9900  176.0630  138.4580 C   0  0  0  0  0  3  0  0  0  0  0  0
  190.4810  176.1630  139.7890 N   0  0  0  0  0  2  0  0  0  0  0  0
  1  3  1  0  0  0  0
  2  3  2  0  0  0  0
  2  6  1  0  0  0  0
  3 13  1  0  0  0  0
  4 11  1  0  0  0  0
  5 10  1  0  0  0  0
  5 11  2  0  0  0  0
  6  7  1  0  0  0  0
  8 12  1  0  0  0  0
  8  5  1  1  0  0  0
 10  1  2  0  0  0  0
 11  2  1  0  0  0  0
 12  4  1  0  0  0  0
 13  7  2  0  0  0  0
 13  9  1  0  0  0  0
 14 18  1  0  0  0  0
 15 17  2  0  0  0  0
 16 14  2  0  0  0  0
 16 15  1  0  0  0  0
 17 19  1  0  0  0  0
 17 12  1  0  0  0  0
 18 19  2  0  0  0  0
 20 14  1  0  0  0  0
 21 20  1  0  0  0  0
 22 23  1  6  0  0  0
 22  8  1  0  0  0  0
 23 24  1  0  0  0  0
 24 27  1  6  0  0  0
 24 22  1  0  0  0  0
 25 26  2  0  0  0  0
 26 27  1  0  0  0  0
M  END
>  <MODEL>
9

>  <REMARK>
 VINA RESULT:      -7.2      3.610      8.134
  Name = 
  4 active torsions:
  status: ('A' for Active; 'I' for Inactive)
    1  A    between atoms: C_2  and  C_4
    2  A    between atoms: C_6  and  C_14
    3  A    between atoms: N_18  and  C_25
    4  A    between atoms: C_21  and  N_26
                            x       y       z     vdW  Elec       q    Type
                         _______ _______ _______ _____ _____    ______ ____

>  <TORSDO>
F 4

$$$$
