=
 OpenBabel10232412423D

 45 49  0  0  1  0  0  0  0  0999 V2000
  191.4280  177.3220  140.4770 C   0  0  0  0  0  0  0  0  0  0  0  0
  190.8320  177.1700  139.1720 N   0  0  0  0  0  0  0  0  0  0  0  0
  192.6690  177.5420  140.5600 O   0  0  0  0  0  0  0  0  0  0  0  0
  190.6390  177.2240  141.7250 C   0  0  0  0  0  0  0  0  0  0  0  0
  190.1000  175.9930  142.1200 C   0  0  0  0  0  3  0  0  0  0  0  0
  189.3600  175.8960  143.2570 N   0  0  0  0  0  0  0  0  0  0  0  0
  188.3310  176.8120  145.2320 N   0  0  0  0  0  2  0  0  0  0  0  0
  189.6120  178.2300  143.6780 C   0  0  0  0  0  3  0  0  0  0  0  0
  189.1060  176.9770  144.0430 C   0  0  0  0  0  0  0  0  0  0  0  0
  190.3740  178.3490  142.5160 C   0  0  0  0  0  3  0  0  0  0  0  0
  188.0100  177.9120  146.1280 C   0  0  0  0  0  2  0  0  0  0  0  0
  185.9600  178.3850  144.7780 N   0  0  0  0  0  0  0  0  0  0  0  0
  185.6960  178.5180  146.9970 C   0  0  0  0  0  3  0  0  0  0  0  0
  186.5780  178.2870  145.9660 C   0  0  0  0  0  0  0  0  0  0  0  0
  184.4930  178.7830  146.4510 N   0  0  0  0  0  2  0  0  0  0  0  0
  183.6160  178.9130  144.1220 C   0  0  0  0  0  1  0  0  0  0  0  0
  184.6950  178.6950  145.1210 C   0  0  0  0  0  0  0  0  0  0  0  0
  189.4070  177.3630  138.9290 C   0  0  0  0  0  2  0  0  0  0  0  0
  189.1370  178.7850  138.4650 C   0  0  0  0  0  2  0  0  0  0  0  0
  188.6120  178.7770  137.0430 C   0  0  0  0  0  2  0  0  0  0  0  0
  186.3360  177.7700  136.6200 C   0  0  0  0  0  3  0  0  0  0  0  0
  186.8590  176.6680  136.1820 N   0  0  0  0  0  0  0  0  0  0  0  0
  187.1600  178.8560  137.0490 N   0  0  0  0  0  2  0  0  0  0  0  0
  186.0600  175.5620  135.7430 C   0  0  0  0  0  0  0  0  0  0  0  0
  184.8400  175.7350  135.4680 O   0  0  0  0  0  0  0  0  0  0  0  0
  186.6490  174.2550  135.6130 N   0  0  0  0  0  0  0  0  0  0  0  0
  186.2600  171.9180  135.7570 O   0  0  0  0  0  0  0  0  0  0  0  0
  185.0930  172.4760  136.3020 C   0  0  0  0  0  0  0  0  0  0  0  0
  185.3240  172.8810  137.7500 C   0  0  0  0  0  1  0  0  0  0  0  0
  183.8840  171.6310  135.9660 C   0  0  0  0  0  1  0  0  0  0  0  0
  185.8150  173.1270  135.1710 C   0  0  1  0  0  3  0  0  0  0  0  0
  188.0790  174.1360  135.7370 C   0  0  0  0  0  3  0  0  0  0  0  0
  188.6910  173.9610  136.9030 C   0  0  0  0  0  2  0  0  0  0  0  0
  191.6670  176.8100  138.0340 C   0  0  0  0  0  2  0  0  0  0  0  0
  194.5200  171.6680  136.5850 C   0  0  0  0  0  2  0  0  0  0  0  0
  193.5420  174.2710  136.3130 C   0  0  0  0  0  0  0  0  0  0  0  0
  193.7030  171.9390  135.3250 C   0  0  2  0  0  3  0  0  0  0  0  0
  192.6880  174.8050  137.1460 C   0  0  0  0  0  0  0  0  0  0  0  0
  195.8210  172.1830  136.4530 O   0  0  0  0  0  0  0  0  0  0  0  0
  195.5150  173.3000  138.6580 C   0  0  0  0  0  1  0  0  0  0  0  0
  195.9260  173.3870  137.1880 C   0  0  2  0  0  3  0  0  0  0  0  0
  195.2410  174.8410  136.3120 S   0  0  0  0  0  0  0  0  0  0  0  0
  193.0840  173.3430  135.2230 C   0  0  1  0  0  3  0  0  0  0  0  0
  191.8390  175.3330  137.9800 C   0  0  0  0  0  3  0  0  0  0  0  0
  192.2700  172.1700  135.7470 C   0  0  0  0  0  2  0  0  0  0  0  0
  1  3  2  0  0  0  0
  1  4  1  0  0  0  0
  2  1  1  0  0  0  0
  4  5  2  0  0  0  0
  4 10  1  0  0  0  0
  5  6  1  0  0  0  0
  6  9  2  0  0  0  0
  7 11  1  0  0  0  0
  8  9  1  0  0  0  0
  9  7  1  0  0  0  0
 10  8  2  0  0  0  0
 12 17  2  0  0  0  0
 12 14  1  0  0  0  0
 14 11  1  0  0  0  0
 14 13  2  0  0  0  0
 15 13  1  0  0  0  0
 16 17  1  0  0  0  0
 17 15  1  0  0  0  0
 18  2  1  0  0  0  0
 19 18  1  0  0  0  0
 20 23  1  0  0  0  0
 20 19  1  0  0  0  0
 21 23  1  0  0  0  0
 22 21  2  0  0  0  0
 24 22  1  0  0  0  0
 25 24  2  0  0  0  0
 26 32  1  0  0  0  0
 26 24  1  0  0  0  0
 27 28  1  0  0  0  0
 28 29  1  0  0  0  0
 30 28  1  0  0  0  0
 31 26  1  1  0  0  0
 31 27  1  0  0  0  0
 31 28  1  0  0  0  0
 32 33  2  0  0  0  0
 34  2  1  0  0  0  0
 36 38  2  0  0  0  0
 37 45  1  1  0  0  0
 37 35  1  0  0  0  0
 38 44  2  0  0  0  0
 39 35  1  0  0  0  0
 39 41  1  0  0  0  0
 41 40  1  1  0  0  0
 42 36  1  0  0  0  0
 42 41  1  0  0  0  0
 43 37  1  0  0  0  0
 43 45  1  1  0  0  0
 43 36  1  0  0  0  0
 44 34  1  0  0  0  0
M  END
>  <MODEL>
1

>  <REMARK>
 VINA RESULT:      -7.8      0.000      0.000
  Name = 
  12 active torsions:
  status: ('A' for Active; 'I' for Inactive)
    1  A    between atoms: C_3  and  C_20
    2  A    between atoms: C_5  and  C_7
    3  A    between atoms: C_7  and  N_32
    4  A    between atoms: C_9  and  N_45
    5  A    between atoms: N_11  and  C_38
    6  A    between atoms: C_15  and  C_26
    7  A    between atoms: C_15  and  C_29
    8  A    between atoms: N_17  and  C_29
    9  A    between atoms: C_26  and  N_34
   10  A    between atoms: C_27  and  N_34
   11  A    between atoms: C_27  and  C_41
   12  A    between atoms: C_36  and  N_45
                            x       y       z     vdW  Elec       q    Type
                         _______ _______ _______ _____ _____    ______ ____

>  <TORSDO>
F 12

$$$$
=
 OpenBabel10232412423D

 45 49  0  0  1  0  0  0  0  0999 V2000
  191.4580  177.3160  140.4040 C   0  0  0  0  0  0  0  0  0  0  0  0
  190.8250  177.1610  139.1170 N   0  0  0  0  0  0  0  0  0  0  0  0
  192.7000  177.5380  140.4520 O   0  0  0  0  0  0  0  0  0  0  0  0
  190.7060  177.2190  141.6750 C   0  0  0  0  0  0  0  0  0  0  0  0
  190.0830  176.0160  142.0320 C   0  0  0  0  0  3  0  0  0  0  0  0
  189.3750  175.9220  143.1890 N   0  0  0  0  0  0  0  0  0  0  0  0
  188.4900  176.8160  145.2420 N   0  0  0  0  0  2  0  0  0  0  0  0
  189.8280  178.2050  143.7090 C   0  0  0  0  0  3  0  0  0  0  0  0
  189.2360  176.9780  144.0340 C   0  0  0  0  0  0  0  0  0  0  0  0
  190.5590  178.3210  142.5270 C   0  0  0  0  0  3  0  0  0  0  0  0
  188.2880  177.8930  146.2000 C   0  0  0  0  0  2  0  0  0  0  0  0
  186.0840  178.3240  145.1030 N   0  0  0  0  0  0  0  0  0  0  0  0
  186.1280  178.6370  147.3200 C   0  0  0  0  0  3  0  0  0  0  0  0
  186.8560  178.2980  146.2020 C   0  0  0  0  0  0  0  0  0  0  0  0
  184.8680  178.8970  146.9200 N   0  0  0  0  0  2  0  0  0  0  0  0
  183.6830  178.8720  144.7280 C   0  0  0  0  0  1  0  0  0  0  0  0
  184.8840  178.6990  145.5870 C   0  0  0  0  0  0  0  0  0  0  0  0
  189.3930  177.3520  138.9160 C   0  0  0  0  0  2  0  0  0  0  0  0
  189.1250  178.6990  138.2660 C   0  0  0  0  0  2  0  0  0  0  0  0
  188.4120  178.5060  136.9420 C   0  0  0  0  0  2  0  0  0  0  0  0
  186.4650  176.9420  137.3130 C   0  0  0  0  0  3  0  0  0  0  0  0
  185.7300  177.9000  137.7830 N   0  0  0  0  0  0  0  0  0  0  0  0
  187.8090  177.1830  136.8920 N   0  0  0  0  0  2  0  0  0  0  0  0
  184.3800  177.6900  138.2140 C   0  0  0  0  0  0  0  0  0  0  0  0
  183.6110  176.9460  137.5430 O   0  0  0  0  0  0  0  0  0  0  0  0
  183.9000  178.3240  139.4150 N   0  0  0  0  0  0  0  0  0  0  0  0
  182.0540  179.1890  140.6290 O   0  0  0  0  0  0  0  0  0  0  0  0
  181.5820  179.1480  139.3080 C   0  0  0  0  0  0  0  0  0  0  0  0
  182.0820  180.3530  138.5260 C   0  0  0  0  0  1  0  0  0  0  0  0
  180.1060  178.8170  139.2730 C   0  0  0  0  0  1  0  0  0  0  0  0
  182.5090  178.1060  139.8400 C   0  0  1  0  0  3  0  0  0  0  0  0
  184.8530  178.9950  140.2590 C   0  0  0  0  0  3  0  0  0  0  0  0
  185.2120  178.5320  141.4520 C   0  0  0  0  0  2  0  0  0  0  0  0
  191.6270  176.8010  137.9560 C   0  0  0  0  0  2  0  0  0  0  0  0
  194.5120  171.6610  136.5620 C   0  0  0  0  0  2  0  0  0  0  0  0
  193.5480  174.2680  136.2770 C   0  0  0  0  0  0  0  0  0  0  0  0
  193.7350  171.9420  135.2790 C   0  0  2  0  0  3  0  0  0  0  0  0
  192.6710  174.7980  137.0870 C   0  0  0  0  0  0  0  0  0  0  0  0
  195.8170  172.1730  136.4730 O   0  0  0  0  0  0  0  0  0  0  0  0
  195.4470  173.2770  138.6750 C   0  0  0  0  0  1  0  0  0  0  0  0
  195.9030  173.3730  137.2190 C   0  0  2  0  0  3  0  0  0  0  0  0
  195.2480  174.8340  136.3320 S   0  0  0  0  0  0  0  0  0  0  0  0
  193.1220  173.3480  135.1680 C   0  0  1  0  0  3  0  0  0  0  0  0
  191.7980  175.3230  137.8980 C   0  0  0  0  0  3  0  0  0  0  0  0
  192.2900  172.1740  135.6590 C   0  0  0  0  0  2  0  0  0  0  0  0
  1  3  2  0  0  0  0
  1  4  1  0  0  0  0
  2  1  1  0  0  0  0
  4  5  2  0  0  0  0
  4 10  1  0  0  0  0
  5  6  1  0  0  0  0
  6  9  2  0  0  0  0
  7 11  1  0  0  0  0
  8  9  1  0  0  0  0
  9  7  1  0  0  0  0
 10  8  2  0  0  0  0
 11 14  1  0  0  0  0
 12 17  2  0  0  0  0
 12 14  1  0  0  0  0
 14 13  2  0  0  0  0
 15 13  1  0  0  0  0
 16 17  1  0  0  0  0
 17 15  1  0  0  0  0
 18  2  1  0  0  0  0
 19 18  1  0  0  0  0
 20 19  1  0  0  0  0
 21 22  2  0  0  0  0
 22 24  1  0  0  0  0
 23 20  1  0  0  0  0
 23 21  1  0  0  0  0
 24 26  1  0  0  0  0
 25 24  2  0  0  0  0
 26 32  1  0  0  0  0
 28 31  1  0  0  0  0
 28 27  1  0  0  0  0
 29 28  1  0  0  0  0
 30 28  1  0  0  0  0
 31 26  1  6  0  0  0
 31 27  1  0  0  0  0
 32 33  2  0  0  0  0
 34  2  1  0  0  0  0
 36 42  1  0  0  0  0
 36 38  2  0  0  0  0
 37 45  1  1  0  0  0
 37 35  1  0  0  0  0
 38 44  2  0  0  0  0
 39 35  1  0  0  0  0
 39 41  1  0  0  0  0
 41 40  1  1  0  0  0
 42 41  1  0  0  0  0
 43 37  1  0  0  0  0
 43 45  1  1  0  0  0
 43 36  1  0  0  0  0
 44 34  1  0  0  0  0
M  END
>  <MODEL>
2

>  <REMARK>
 VINA RESULT:      -7.8      2.226      3.467
  Name = 
  12 active torsions:
  status: ('A' for Active; 'I' for Inactive)
    1  A    between atoms: C_3  and  C_20
    2  A    between atoms: C_5  and  C_7
    3  A    between atoms: C_7  and  N_32
    4  A    between atoms: C_9  and  N_45
    5  A    between atoms: N_11  and  C_38
    6  A    between atoms: C_15  and  C_26
    7  A    between atoms: C_15  and  C_29
    8  A    between atoms: N_17  and  C_29
    9  A    between atoms: C_26  and  N_34
   10  A    between atoms: C_27  and  N_34
   11  A    between atoms: C_27  and  C_41
   12  A    between atoms: C_36  and  N_45
                            x       y       z     vdW  Elec       q    Type
                         _______ _______ _______ _____ _____    ______ ____

>  <TORSDO>
F 12

$$$$
=
 OpenBabel10232412423D

 45 49  0  0  1  0  0  0  0  0999 V2000
  183.4500  177.3260  137.6000 C   0  0  0  0  0  0  0  0  0  0  0  0
  184.4650  176.7900  136.7260 N   0  0  0  0  0  0  0  0  0  0  0  0
  182.2490  177.3310  137.2110 O   0  0  0  0  0  0  0  0  0  0  0  0
  183.7650  177.8760  138.9380 C   0  0  0  0  0  0  0  0  0  0  0  0
  184.6150  178.9830  139.0590 C   0  0  0  0  0  3  0  0  0  0  0  0
  184.9230  179.4850  140.2840 N   0  0  0  0  0  0  0  0  0  0  0  0
  184.7850  179.5150  142.6880 N   0  0  0  0  0  2  0  0  0  0  0  0
  183.5950  177.8190  141.3560 C   0  0  0  0  0  3  0  0  0  0  0  0
  184.4350  178.9370  141.4290 C   0  0  0  0  0  0  0  0  0  0  0  0
  183.2660  177.2900  140.1080 C   0  0  0  0  0  3  0  0  0  0  0  0
  184.3110  178.9920  143.9610 C   0  0  0  0  0  2  0  0  0  0  0  0
  185.6520  178.8010  146.0610 N   0  0  0  0  0  0  0  0  0  0  0  0
  186.4510  177.6590  144.3090 C   0  0  0  0  0  3  0  0  0  0  0  0
  185.4670  178.5070  144.7630 C   0  0  0  0  0  0  0  0  0  0  0  0
  187.2880  177.4190  145.3370 N   0  0  0  0  0  2  0  0  0  0  0  0
  187.3890  178.1410  147.7200 C   0  0  0  0  0  1  0  0  0  0  0  0
  186.7740  178.1220  146.3660 C   0  0  0  0  0  0  0  0  0  0  0  0
  185.7590  176.3240  137.2140 C   0  0  0  0  0  2  0  0  0  0  0  0
  186.8860  177.0380  136.4870 C   0  0  0  0  0  2  0  0  0  0  0  0
  188.1040  176.1380  136.4060 C   0  0  0  0  0  2  0  0  0  0  0  0
  190.1290  177.2280  137.4480 C   0  0  0  0  0  3  0  0  0  0  0  0
  189.8100  176.7920  138.6260 N   0  0  0  0  0  0  0  0  0  0  0  0
  189.3110  176.9440  136.3110 N   0  0  0  0  0  2  0  0  0  0  0  0
  190.6080  177.0600  139.7850 C   0  0  0  0  0  0  0  0  0  0  0  0
  191.8660  176.9700  139.7200 O   0  0  0  0  0  0  0  0  0  0  0  0
  189.9770  177.4370  141.0230 N   0  0  0  0  0  0  0  0  0  0  0  0
  189.9990  177.8860  143.3530 O   0  0  0  0  0  0  0  0  0  0  0  0
  190.6550  176.6490  143.2550 C   0  0  0  0  0  0  0  0  0  0  0  0
  189.6440  175.5200  143.1270 C   0  0  0  0  0  1  0  0  0  0  0  0
  191.7480  176.5350  144.2950 C   0  0  0  0  0  1  0  0  0  0  0  0
  190.8090  177.7000  142.2080 C   0  0  1  0  0  3  0  0  0  0  0  0
  188.5670  177.7280  141.0090 C   0  0  0  0  0  3  0  0  0  0  0  0
  188.0790  178.9460  141.2190 C   0  0  0  0  0  2  0  0  0  0  0  0
  184.2120  176.6990  135.2950 C   0  0  0  0  0  2  0  0  0  0  0  0
  182.1880  171.0020  135.6500 C   0  0  0  0  0  2  0  0  0  0  0  0
  183.0960  173.5020  136.5030 C   0  0  0  0  0  0  0  0  0  0  0  0
  183.3560  170.9810  136.6320 C   0  0  2  0  0  3  0  0  0  0  0  0
  183.6130  174.3890  135.6960 C   0  0  0  0  0  0  0  0  0  0  0  0
  180.9810  171.2520  136.3220 O   0  0  0  0  0  0  0  0  0  0  0  0
  180.5130  173.0350  134.6470 C   0  0  0  0  0  1  0  0  0  0  0  0
  180.5950  172.5970  136.1100 C   0  0  2  0  0  3  0  0  0  0  0  0
  181.4660  173.7880  137.1920 S   0  0  0  0  0  0  0  0  0  0  0  0
  183.9180  172.3580  137.0260 C   0  0  1  0  0  3  0  0  0  0  0  0
  184.1260  175.2700  134.8860 C   0  0  0  0  0  3  0  0  0  0  0  0
  184.5660  171.5410  135.9190 C   0  0  0  0  0  2  0  0  0  0  0  0
  1  4  1  0  0  0  0
  2 18  1  0  0  0  0
  2  1  1  0  0  0  0
  3  1  2  0  0  0  0
  4  5  2  0  0  0  0
  4 10  1  0  0  0  0
  5  6  1  0  0  0  0
  6  9  2  0  0  0  0
  7 11  1  0  0  0  0
  8  9  1  0  0  0  0
  9  7  1  0  0  0  0
 10  8  2  0  0  0  0
 11 14  1  0  0  0  0
 12 17  2  0  0  0  0
 13 14  2  0  0  0  0
 13 15  1  0  0  0  0
 14 12  1  0  0  0  0
 15 17  1  0  0  0  0
 17 16  1  0  0  0  0
 19 18  1  0  0  0  0
 20 19  1  0  0  0  0
 21 22  2  0  0  0  0
 22 24  1  0  0  0  0
 23 20  1  0  0  0  0
 23 21  1  0  0  0  0
 24 26  1  0  0  0  0
 25 24  2  0  0  0  0
 28 27  1  0  0  0  0
 28 30  1  0  0  0  0
 29 28  1  0  0  0  0
 31 26  1  6  0  0  0
 31 28  1  0  0  0  0
 31 27  1  0  0  0  0
 32 26  1  0  0  0  0
 32 33  2  0  0  0  0
 34  2  1  0  0  0  0
 35 39  1  0  0  0  0
 36 43  1  0  0  0  0
 36 42  1  0  0  0  0
 37 35  1  6  0  0  0
 37 43  1  0  0  0  0
 38 36  2  0  0  0  0
 41 40  1  6  0  0  0
 41 39  1  0  0  0  0
 41 42  1  0  0  0  0
 43 45  1  6  0  0  0
 44 34  1  0  0  0  0
 44 38  2  0  0  0  0
 45 37  1  0  0  0  0
M  END
>  <MODEL>
3

>  <REMARK>
 VINA RESULT:      -7.7      3.843      8.268
  Name = 
  12 active torsions:
  status: ('A' for Active; 'I' for Inactive)
    1  A    between atoms: C_3  and  C_20
    2  A    between atoms: C_5  and  C_7
    3  A    between atoms: C_7  and  N_32
    4  A    between atoms: C_9  and  N_45
    5  A    between atoms: N_11  and  C_38
    6  A    between atoms: C_15  and  C_26
    7  A    between atoms: C_15  and  C_29
    8  A    between atoms: N_17  and  C_29
    9  A    between atoms: C_26  and  N_34
   10  A    between atoms: C_27  and  N_34
   11  A    between atoms: C_27  and  C_41
   12  A    between atoms: C_36  and  N_45
                            x       y       z     vdW  Elec       q    Type
                         _______ _______ _______ _____ _____    ______ ____

>  <TORSDO>
F 12

$$$$
=
 OpenBabel10232412423D

 45 49  0  0  1  0  0  0  0  0999 V2000
  189.5450  176.2170  135.8430 C   0  0  0  0  0  0  0  0  0  0  0  0
  190.7100  175.7300  136.5420 N   0  0  0  0  0  0  0  0  0  0  0  0
  189.4790  176.0740  134.5900 O   0  0  0  0  0  0  0  0  0  0  0  0
  188.4220  176.8830  136.5410 C   0  0  0  0  0  0  0  0  0  0  0  0
  188.6250  178.1120  137.1820 C   0  0  0  0  0  3  0  0  0  0  0  0
  187.6040  178.7240  137.8390 N   0  0  0  0  0  0  0  0  0  0  0  0
  185.3260  178.8680  138.6070 N   0  0  0  0  0  2  0  0  0  0  0  0
  186.1200  176.9370  137.2990 C   0  0  0  0  0  3  0  0  0  0  0  0
  186.3630  178.1720  137.9120 C   0  0  0  0  0  0  0  0  0  0  0  0
  187.1540  176.2950  136.6190 C   0  0  0  0  0  3  0  0  0  0  0  0
  183.9720  178.3500  138.7360 C   0  0  0  0  0  2  0  0  0  0  0  0
  184.3530  178.5770  141.1960 N   0  0  0  0  0  0  0  0  0  0  0  0
  182.2080  178.5820  140.5550 C   0  0  0  0  0  3  0  0  0  0  0  0
  183.5190  178.4810  140.1470 C   0  0  0  0  0  0  0  0  0  0  0  0
  182.2090  178.7300  141.8940 N   0  0  0  0  0  2  0  0  0  0  0  0
  183.9800  178.8650  143.6410 C   0  0  0  0  0  1  0  0  0  0  0  0
  183.5120  178.7220  142.2380 C   0  0  0  0  0  0  0  0  0  0  0  0
  190.7050  175.4320  137.9690 C   0  0  0  0  0  2  0  0  0  0  0  0
  191.6110  176.3970  138.7150 C   0  0  0  0  0  2  0  0  0  0  0  0
  190.9450  176.8490  140.0000 C   0  0  0  0  0  2  0  0  0  0  0  0
  191.6030  177.8590  142.2180 C   0  0  0  0  0  3  0  0  0  0  0  0
  190.3820  177.8130  142.6490 N   0  0  0  0  0  0  0  0  0  0  0  0
  191.9380  177.4050  140.9050 N   0  0  0  0  0  2  0  0  0  0  0  0
  190.0150  178.2610  143.9600 C   0  0  0  0  0  0  0  0  0  0  0  0
  190.6130  179.2420  144.4820 O   0  0  0  0  0  0  0  0  0  0  0  0
  188.9600  177.5950  144.6790 N   0  0  0  0  0  0  0  0  0  0  0  0
  188.2340  176.9680  146.8500 O   0  0  0  0  0  0  0  0  0  0  0  0
  189.5060  177.5140  147.0790 C   0  0  0  0  0  0  0  0  0  0  0  0
  190.5880  176.4930  146.7640 C   0  0  0  0  0  1  0  0  0  0  0  0
  189.5520  178.2390  148.4060 C   0  0  0  0  0  1  0  0  0  0  0  0
  188.5990  178.0600  146.0270 C   0  0  1  0  0  3  0  0  0  0  0  0
  188.1670  176.6190  143.9790 C   0  0  0  0  0  3  0  0  0  0  0  0
  186.8650  176.7690  143.7600 C   0  0  0  0  0  2  0  0  0  0  0  0
  191.9540  175.5210  135.8130 C   0  0  0  0  0  2  0  0  0  0  0  0
  196.5110  171.7250  137.0380 C   0  0  0  0  0  2  0  0  0  0  0  0
  195.0780  173.7430  135.7440 C   0  0  0  0  0  0  0  0  0  0  0  0
  196.3750  171.5730  135.5260 C   0  0  2  0  0  3  0  0  0  0  0  0
  193.8140  173.9810  135.9710 C   0  0  0  0  0  0  0  0  0  0  0  0
  197.4940  172.6760  137.3550 O   0  0  0  0  0  0  0  0  0  0  0  0
  195.8400  173.7620  138.8670 C   0  0  0  0  0  1  0  0  0  0  0  0
  196.8710  173.8850  137.7440 C   0  0  2  0  0  3  0  0  0  0  0  0
  196.3090  174.9060  136.3320 S   0  0  0  0  0  0  0  0  0  0  0  0
  195.5050  172.6310  134.8280 C   0  0  1  0  0  3  0  0  0  0  0  0
  192.5540  174.2150  136.2030 C   0  0  0  0  0  3  0  0  0  0  0  0
  194.9230  171.2830  135.2220 C   0  0  0  0  0  2  0  0  0  0  0  0
  1  4  1  0  0  0  0
  1  2  1  0  0  0  0
  2 18  1  0  0  0  0
  3  1  2  0  0  0  0
  4 10  1  0  0  0  0
  4  5  2  0  0  0  0
  5  6  1  0  0  0  0
  6  9  2  0  0  0  0
  7 11  1  0  0  0  0
  8  9  1  0  0  0  0
  9  7  1  0  0  0  0
 10  8  2  0  0  0  0
 11 14  1  0  0  0  0
 12 17  2  0  0  0  0
 13 15  1  0  0  0  0
 14 13  2  0  0  0  0
 14 12  1  0  0  0  0
 15 17  1  0  0  0  0
 17 16  1  0  0  0  0
 18 19  1  0  0  0  0
 19 20  1  0  0  0  0
 20 23  1  0  0  0  0
 21 22  2  0  0  0  0
 22 24  1  0  0  0  0
 23 21  1  0  0  0  0
 24 25  2  0  0  0  0
 24 26  1  0  0  0  0
 27 28  1  0  0  0  0
 28 30  1  0  0  0  0
 29 28  1  0  0  0  0
 31 26  1  6  0  0  0
 31 27  1  0  0  0  0
 31 28  1  0  0  0  0
 32 26  1  0  0  0  0
 33 32  2  0  0  0  0
 34 44  1  0  0  0  0
 34  2  1  0  0  0  0
 35 39  1  0  0  0  0
 36 38  2  0  0  0  0
 36 42  1  0  0  0  0
 37 45  1  1  0  0  0
 37 35  1  0  0  0  0
 38 44  2  0  0  0  0
 39 41  1  0  0  0  0
 41 40  1  1  0  0  0
 42 41  1  0  0  0  0
 43 45  1  1  0  0  0
 43 37  1  0  0  0  0
 43 36  1  0  0  0  0
M  END
>  <MODEL>
4

>  <REMARK>
 VINA RESULT:      -7.5      2.585      6.863
  Name = 
  12 active torsions:
  status: ('A' for Active; 'I' for Inactive)
    1  A    between atoms: C_3  and  C_20
    2  A    between atoms: C_5  and  C_7
    3  A    between atoms: C_7  and  N_32
    4  A    between atoms: C_9  and  N_45
    5  A    between atoms: N_11  and  C_38
    6  A    between atoms: C_15  and  C_26
    7  A    between atoms: C_15  and  C_29
    8  A    between atoms: N_17  and  C_29
    9  A    between atoms: C_26  and  N_34
   10  A    between atoms: C_27  and  N_34
   11  A    between atoms: C_27  and  C_41
   12  A    between atoms: C_36  and  N_45
                            x       y       z     vdW  Elec       q    Type
                         _______ _______ _______ _____ _____    ______ ____

>  <TORSDO>
F 12

$$$$
=
 OpenBabel10232412423D

 45 49  0  0  1  0  0  0  0  0999 V2000
  187.6630  176.1420  135.7760 C   0  0  0  0  0  0  0  0  0  0  0  0
  186.8810  177.2100  136.3490 N   0  0  0  0  0  0  0  0  0  0  0  0
  187.1860  175.4840  134.8100 O   0  0  0  0  0  0  0  0  0  0  0  0
  189.0070  175.7830  136.2830 C   0  0  0  0  0  0  0  0  0  0  0  0
  189.1630  174.6910  137.1460 C   0  0  0  0  0  3  0  0  0  0  0  0
  190.3910  174.3630  137.6300 N   0  0  0  0  0  0  0  0  0  0  0  0
  192.7690  174.6790  137.8400 N   0  0  0  0  0  2  0  0  0  0  0  0
  191.3910  176.1870  136.4630 C   0  0  0  0  0  3  0  0  0  0  0  0
  191.5030  175.0780  137.3100 C   0  0  0  0  0  0  0  0  0  0  0  0
  190.1400  176.5380  135.9560 C   0  0  0  0  0  3  0  0  0  0  0  0
  194.0080  175.3870  137.5530 C   0  0  0  0  0  2  0  0  0  0  0  0
  196.4320  174.7820  137.4770 N   0  0  0  0  0  0  0  0  0  0  0  0
  195.0150  173.0500  137.5700 C   0  0  0  0  0  3  0  0  0  0  0  0
  195.1380  174.4200  137.5140 C   0  0  0  0  0  0  0  0  0  0  0  0
  196.2570  172.5300  137.5550 N   0  0  0  0  0  2  0  0  0  0  0  0
  198.5580  173.4850  137.4670 C   0  0  0  0  0  1  0  0  0  0  0  0
  197.0760  173.5990  137.4980 C   0  0  0  0  0  0  0  0  0  0  0  0
  187.4740  178.2920  137.1260 C   0  0  0  0  0  2  0  0  0  0  0  0
  187.6980  177.8510  138.5630 C   0  0  0  0  0  2  0  0  0  0  0  0
  188.9570  178.4940  139.1130 C   0  0  0  0  0  2  0  0  0  0  0  0
  189.9730  176.9330  140.8190 C   0  0  0  0  0  3  0  0  0  0  0  0
  189.1820  177.3680  141.7490 N   0  0  0  0  0  0  0  0  0  0  0  0
  189.9130  177.4660  139.4940 N   0  0  0  0  0  2  0  0  0  0  0  0
  189.2180  176.8550  143.0870 C   0  0  0  0  0  0  0  0  0  0  0  0
  188.8110  175.6840  143.3250 O   0  0  0  0  0  0  0  0  0  0  0  0
  189.7220  177.6740  144.1590 N   0  0  0  0  0  0  0  0  0  0  0  0
  189.6260  178.1840  146.4750 O   0  0  0  0  0  0  0  0  0  0  0  0
  188.4760  177.4070  146.2650 C   0  0  0  0  0  0  0  0  0  0  0  0
  187.3610  178.2560  145.6730 C   0  0  0  0  0  1  0  0  0  0  0  0
  188.1760  176.5500  147.4750 C   0  0  0  0  0  1  0  0  0  0  0  0
  189.7450  177.1380  145.5280 C   0  0  1  0  0  3  0  0  0  0  0  0
  190.3640  178.9180  143.8230 C   0  0  0  0  0  3  0  0  0  0  0  0
  191.6670  179.1250  143.9800 C   0  0  0  0  0  2  0  0  0  0  0  0
  185.4370  177.2300  136.1580 C   0  0  0  0  0  2  0  0  0  0  0  0
  181.1620  177.5220  140.4380 C   0  0  0  0  0  2  0  0  0  0  0  0
  183.0390  178.4030  138.5660 C   0  0  0  0  0  0  0  0  0  0  0  0
  182.1920  178.5220  140.9550 C   0  0  2  0  0  3  0  0  0  0  0  0
  183.9000  177.6090  137.9880 C   0  0  0  0  0  0  0  0  0  0  0  0
  180.1670  178.1760  139.6930 O   0  0  0  0  0  0  0  0  0  0  0  0
  180.5370  176.5040  137.8850 C   0  0  0  0  0  1  0  0  0  0  0  0
  180.3980  177.9650  138.3130 C   0  0  2  0  0  3  0  0  0  0  0  0
  181.6780  179.0680  137.6090 S   0  0  0  0  0  0  0  0  0  0  0  0
  183.2830  178.9320  139.9520 C   0  0  1  0  0  3  0  0  0  0  0  0
  184.7540  176.8120  137.4130 C   0  0  0  0  0  3  0  0  0  0  0  0
  183.5370  177.8310  140.9690 C   0  0  0  0  0  2  0  0  0  0  0  0
  1  4  1  0  0  0  0
  1  2  1  0  0  0  0
  2 18  1  0  0  0  0
  3  1  2  0  0  0  0
  4  5  2  0  0  0  0
  5  6  1  0  0  0  0
  8  9  1  0  0  0  0
  9  6  2  0  0  0  0
  9  7  1  0  0  0  0
 10  4  1  0  0  0  0
 10  8  2  0  0  0  0
 11  7  1  0  0  0  0
 12 17  2  0  0  0  0
 12 14  1  0  0  0  0
 14 11  1  0  0  0  0
 14 13  2  0  0  0  0
 15 13  1  0  0  0  0
 16 17  1  0  0  0  0
 17 15  1  0  0  0  0
 18 19  1  0  0  0  0
 19 20  1  0  0  0  0
 20 23  1  0  0  0  0
 21 22  2  0  0  0  0
 22 24  1  0  0  0  0
 23 21  1  0  0  0  0
 24 25  2  0  0  0  0
 24 26  1  0  0  0  0
 28 27  1  0  0  0  0
 28 30  1  0  0  0  0
 29 28  1  0  0  0  0
 31 26  1  6  0  0  0
 31 28  1  0  0  0  0
 31 27  1  0  0  0  0
 32 33  2  0  0  0  0
 32 26  1  0  0  0  0
 34  2  1  0  0  0  0
 34 44  1  0  0  0  0
 36 43  1  0  0  0  0
 37 35  1  6  0  0  0
 37 45  1  0  0  0  0
 38 36  2  0  0  0  0
 39 35  1  0  0  0  0
 41 40  1  1  0  0  0
 41 39  1  0  0  0  0
 42 41  1  0  0  0  0
 42 36  1  0  0  0  0
 43 37  1  0  0  0  0
 43 45  1  1  0  0  0
 44 38  2  0  0  0  0
M  END
>  <MODEL>
5

>  <REMARK>
 VINA RESULT:      -7.2      3.852     10.714
  Name = 
  12 active torsions:
  status: ('A' for Active; 'I' for Inactive)
    1  A    between atoms: C_3  and  C_20
    2  A    between atoms: C_5  and  C_7
    3  A    between atoms: C_7  and  N_32
    4  A    between atoms: C_9  and  N_45
    5  A    between atoms: N_11  and  C_38
    6  A    between atoms: C_15  and  C_26
    7  A    between atoms: C_15  and  C_29
    8  A    between atoms: N_17  and  C_29
    9  A    between atoms: C_26  and  N_34
   10  A    between atoms: C_27  and  N_34
   11  A    between atoms: C_27  and  C_41
   12  A    between atoms: C_36  and  N_45
                            x       y       z     vdW  Elec       q    Type
                         _______ _______ _______ _____ _____    ______ ____

>  <TORSDO>
F 12

$$$$
=
 OpenBabel10232412423D

 45 49  0  0  1  0  0  0  0  0999 V2000
  191.6040  177.3200  140.3100 C   0  0  0  0  0  0  0  0  0  0  0  0
  191.0610  177.0220  139.0070 N   0  0  0  0  0  0  0  0  0  0  0  0
  192.8170  177.6600  140.4040 O   0  0  0  0  0  0  0  0  0  0  0  0
  190.7940  177.2360  141.5460 C   0  0  0  0  0  0  0  0  0  0  0  0
  190.1290  176.0460  141.8700 C   0  0  0  0  0  3  0  0  0  0  0  0
  189.3690  175.9640  142.9940 N   0  0  0  0  0  0  0  0  0  0  0  0
  188.4120  176.8720  145.0080 N   0  0  0  0  0  2  0  0  0  0  0  0
  189.8470  178.2350  143.5420 C   0  0  0  0  0  3  0  0  0  0  0  0
  189.2140  177.0210  143.8350 C   0  0  0  0  0  0  0  0  0  0  0  0
  190.6320  178.3380  142.3940 C   0  0  0  0  0  3  0  0  0  0  0  0
  188.1900  177.9510  145.9600 C   0  0  0  0  0  2  0  0  0  0  0  0
  185.9870  178.4150  144.8740 N   0  0  0  0  0  0  0  0  0  0  0  0
  185.9960  178.5310  147.1100 C   0  0  0  0  0  3  0  0  0  0  0  0
  186.7470  178.3140  145.9770 C   0  0  0  0  0  0  0  0  0  0  0  0
  184.7340  178.7900  146.7170 N   0  0  0  0  0  2  0  0  0  0  0  0
  183.5760  178.9270  144.5140 C   0  0  0  0  0  1  0  0  0  0  0  0
  184.7720  178.7120  145.3720 C   0  0  0  0  0  0  0  0  0  0  0  0
  189.6310  177.0640  138.7220 C   0  0  0  0  0  2  0  0  0  0  0  0
  189.2280  178.4480  138.2400 C   0  0  0  0  0  2  0  0  0  0  0  0
  187.9250  178.3700  137.4680 C   0  0  0  0  0  2  0  0  0  0  0  0
  185.5330  177.8320  138.0680 C   0  0  0  0  0  3  0  0  0  0  0  0
  185.3280  177.2650  136.9210 N   0  0  0  0  0  0  0  0  0  0  0  0
  186.8000  178.4090  138.3880 N   0  0  0  0  0  2  0  0  0  0  0  0
  184.0690  176.6780  136.5690 C   0  0  0  0  0  0  0  0  0  0  0  0
  183.1680  177.3870  136.0400 O   0  0  0  0  0  0  0  0  0  0  0  0
  183.8320  175.2790  136.8140 N   0  0  0  0  0  0  0  0  0  0  0  0
  182.1940  173.6480  137.3490 O   0  0  0  0  0  0  0  0  0  0  0  0
  181.5150  174.8620  137.5350 C   0  0  0  0  0  0  0  0  0  0  0  0
  181.8630  175.4640  138.8880 C   0  0  0  0  0  1  0  0  0  0  0  0
  180.0580  174.7310  137.1480 C   0  0  0  0  0  1  0  0  0  0  0  0
  182.5320  174.6920  136.4560 C   0  0  1  0  0  3  0  0  0  0  0  0
  184.9430  174.4610  137.2260 C   0  0  0  0  0  3  0  0  0  0  0  0
  185.4160  173.4620  136.4890 C   0  0  0  0  0  2  0  0  0  0  0  0
  191.9560  176.6640  137.9160 C   0  0  0  0  0  2  0  0  0  0  0  0
  195.5550  171.8770  137.0120 C   0  0  0  0  0  2  0  0  0  0  0  0
  194.1780  174.2430  136.4570 C   0  0  0  0  0  0  0  0  0  0  0  0
  194.6870  171.8580  135.7580 C   0  0  2  0  0  3  0  0  0  0  0  0
  193.2640  174.7420  137.2460 C   0  0  0  0  0  0  0  0  0  0  0  0
  196.7570  172.5630  136.7730 O   0  0  0  0  0  0  0  0  0  0  0  0
  196.3150  173.8910  138.8330 C   0  0  0  0  0  1  0  0  0  0  0  0
  196.6850  173.8530  137.3500 C   0  0  2  0  0  3  0  0  0  0  0  0
  195.7670  175.0620  136.3260 S   0  0  0  0  0  0  0  0  0  0  0  0
  193.8540  173.1250  135.5060 C   0  0  1  0  0  3  0  0  0  0  0  0
  192.3560  175.2350  138.0380 C   0  0  0  0  0  3  0  0  0  0  0  0
  193.2420  171.9180  136.1980 C   0  0  0  0  0  2  0  0  0  0  0  0
  1  3  2  0  0  0  0
  1  4  1  0  0  0  0
  2  1  1  0  0  0  0
  4  5  2  0  0  0  0
  4 10  1  0  0  0  0
  5  6  1  0  0  0  0
  6  9  2  0  0  0  0
  7 11  1  0  0  0  0
  8  9  1  0  0  0  0
  9  7  1  0  0  0  0
 10  8  2  0  0  0  0
 11 14  1  0  0  0  0
 12 17  2  0  0  0  0
 12 14  1  0  0  0  0
 14 13  2  0  0  0  0
 15 13  1  0  0  0  0
 16 17  1  0  0  0  0
 17 15  1  0  0  0  0
 18  2  1  0  0  0  0
 19 18  1  0  0  0  0
 20 19  1  0  0  0  0
 20 23  1  0  0  0  0
 21 23  1  0  0  0  0
 22 21  2  0  0  0  0
 24 26  1  0  0  0  0
 24 22  1  0  0  0  0
 25 24  2  0  0  0  0
 26 32  1  0  0  0  0
 27 28  1  0  0  0  0
 28 29  1  0  0  0  0
 30 28  1  0  0  0  0
 31 26  1  1  0  0  0
 31 27  1  0  0  0  0
 31 28  1  0  0  0  0
 33 32  2  0  0  0  0
 34 44  1  0  0  0  0
 34  2  1  0  0  0  0
 36 38  2  0  0  0  0
 37 45  1  1  0  0  0
 37 35  1  0  0  0  0
 38 44  2  0  0  0  0
 39 35  1  0  0  0  0
 39 41  1  0  0  0  0
 41 40  1  1  0  0  0
 42 36  1  0  0  0  0
 42 41  1  0  0  0  0
 43 37  1  0  0  0  0
 43 45  1  1  0  0  0
 43 36  1  0  0  0  0
M  END
>  <MODEL>
6

>  <REMARK>
 VINA RESULT:      -7.0      1.734      1.929
  Name = 
  12 active torsions:
  status: ('A' for Active; 'I' for Inactive)
    1  A    between atoms: C_3  and  C_20
    2  A    between atoms: C_5  and  C_7
    3  A    between atoms: C_7  and  N_32
    4  A    between atoms: C_9  and  N_45
    5  A    between atoms: N_11  and  C_38
    6  A    between atoms: C_15  and  C_26
    7  A    between atoms: C_15  and  C_29
    8  A    between atoms: N_17  and  C_29
    9  A    between atoms: C_26  and  N_34
   10  A    between atoms: C_27  and  N_34
   11  A    between atoms: C_27  and  C_41
   12  A    between atoms: C_36  and  N_45
                            x       y       z     vdW  Elec       q    Type
                         _______ _______ _______ _____ _____    ______ ____

>  <TORSDO>
F 12

$$$$
=
 OpenBabel10232412423D

 45 49  0  0  1  0  0  0  0  0999 V2000
  188.3700  175.5680  135.7670 C   0  0  0  0  0  0  0  0  0  0  0  0
  187.4140  175.9430  136.7800 N   0  0  0  0  0  0  0  0  0  0  0  0
  187.9780  175.4360  134.5750 O   0  0  0  0  0  0  0  0  0  0  0  0
  189.7980  175.3270  136.0750 C   0  0  0  0  0  0  0  0  0  0  0  0
  190.7920  176.0570  135.4110 C   0  0  0  0  0  3  0  0  0  0  0  0
  192.1070  175.8310  135.6750 N   0  0  0  0  0  0  0  0  0  0  0  0
  193.9040  174.7080  136.8180 N   0  0  0  0  0  2  0  0  0  0  0  0
  191.5490  174.1290  137.2490 C   0  0  0  0  0  3  0  0  0  0  0  0
  192.5080  174.8930  136.5740 C   0  0  0  0  0  0  0  0  0  0  0  0
  190.1950  174.3470  136.9930 C   0  0  0  0  0  3  0  0  0  0  0  0
  194.4210  173.7270  137.7600 C   0  0  0  0  0  2  0  0  0  0  0  0
  195.7320  174.7490  139.6260 N   0  0  0  0  0  0  0  0  0  0  0  0
  196.9190  174.2130  137.8040 C   0  0  0  0  0  3  0  0  0  0  0  0
  195.6700  174.2420  138.3830 C   0  0  0  0  0  0  0  0  0  0  0  0
  197.7910  174.7260  138.6930 N   0  0  0  0  0  2  0  0  0  0  0  0
  197.6070  175.6330  141.0070 C   0  0  0  0  0  1  0  0  0  0  0  0
  197.0410  175.0350  139.7690 C   0  0  0  0  0  0  0  0  0  0  0  0
  187.8050  176.5480  138.0480 C   0  0  0  0  0  2  0  0  0  0  0  0
  188.5140  177.8710  137.8060 C   0  0  0  0  0  2  0  0  0  0  0  0
  189.0930  178.3960  139.1050 C   0  0  0  0  0  2  0  0  0  0  0  0
  190.2710  177.0360  140.8770 C   0  0  0  0  0  3  0  0  0  0  0  0
  189.3800  177.3440  141.7660 N   0  0  0  0  0  0  0  0  0  0  0  0
  190.1850  177.5400  139.5430 N   0  0  0  0  0  2  0  0  0  0  0  0
  189.4380  176.8560  143.1110 C   0  0  0  0  0  0  0  0  0  0  0  0
  189.0960  175.6680  143.3670 O   0  0  0  0  0  0  0  0  0  0  0  0
  189.8900  177.7190  144.1720 N   0  0  0  0  0  0  0  0  0  0  0  0
  189.6740  178.2440  146.4760 O   0  0  0  0  0  0  0  0  0  0  0  0
  188.6260  177.3390  146.2500 C   0  0  0  0  0  0  0  0  0  0  0  0
  187.4380  178.0480  145.6170 C   0  0  0  0  0  1  0  0  0  0  0  0
  188.3920  176.4690  147.4660 C   0  0  0  0  0  1  0  0  0  0  0  0
  189.9360  177.2070  145.5500 C   0  0  1  0  0  3  0  0  0  0  0  0
  190.4620  178.9920  143.8180 C   0  0  0  0  0  3  0  0  0  0  0  0
  191.7200  179.3200  144.0940 C   0  0  0  0  0  2  0  0  0  0  0  0
  185.9930  175.7180  136.5510 C   0  0  0  0  0  2  0  0  0  0  0  0
  181.9020  179.6460  138.6750 C   0  0  0  0  0  2  0  0  0  0  0  0
  183.0000  177.2050  137.8760 C   0  0  0  0  0  0  0  0  0  0  0  0
  181.0780  178.8480  137.6690 C   0  0  2  0  0  3  0  0  0  0  0  0
  184.1320  177.1070  137.2320 C   0  0  0  0  0  0  0  0  0  0  0  0
  181.7560  179.1160  139.9670 O   0  0  0  0  0  0  0  0  0  0  0  0
  184.2400  179.1040  140.1540 C   0  0  0  0  0  1  0  0  0  0  0  0
  182.9090  178.3650  140.3000 C   0  0  2  0  0  3  0  0  0  0  0  0
  182.9150  176.6800  139.5870 S   0  0  0  0  0  0  0  0  0  0  0  0
  181.7280  177.5530  137.1560 C   0  0  1  0  0  3  0  0  0  0  0  0
  185.2630  177.0140  136.5920 C   0  0  0  0  0  3  0  0  0  0  0  0
  181.8320  178.8430  136.3580 C   0  0  0  0  0  2  0  0  0  0  0  0
  1  4  1  0  0  0  0
  1  2  1  0  0  0  0
  2 18  1  0  0  0  0
  3  1  2  0  0  0  0
  4 10  1  0  0  0  0
  5  6  1  0  0  0  0
  5  4  2  0  0  0  0
  6  9  2  0  0  0  0
  7 11  1  0  0  0  0
  9  7  1  0  0  0  0
  9  8  1  0  0  0  0
 10  8  2  0  0  0  0
 11 14  1  0  0  0  0
 12 17  2  0  0  0  0
 13 14  2  0  0  0  0
 13 15  1  0  0  0  0
 14 12  1  0  0  0  0
 15 17  1  0  0  0  0
 17 16  1  0  0  0  0
 19 18  1  0  0  0  0
 19 20  1  0  0  0  0
 20 23  1  0  0  0  0
 21 22  2  0  0  0  0
 22 24  1  0  0  0  0
 23 21  1  0  0  0  0
 24 25  2  0  0  0  0
 24 26  1  0  0  0  0
 28 27  1  0  0  0  0
 28 30  1  0  0  0  0
 29 28  1  0  0  0  0
 31 26  1  6  0  0  0
 31 28  1  0  0  0  0
 31 27  1  0  0  0  0
 32 33  2  0  0  0  0
 32 26  1  0  0  0  0
 34 44  1  0  0  0  0
 34  2  1  0  0  0  0
 35 39  1  0  0  0  0
 36 42  1  0  0  0  0
 37 45  1  6  0  0  0
 37 35  1  0  0  0  0
 38 36  2  0  0  0  0
 39 41  1  0  0  0  0
 41 40  1  6  0  0  0
 42 41  1  0  0  0  0
 43 45  1  6  0  0  0
 43 37  1  0  0  0  0
 43 36  1  0  0  0  0
 44 38  2  0  0  0  0
M  END
>  <MODEL>
7

>  <REMARK>
 VINA RESULT:      -7.0      3.772     10.458
  Name = 
  12 active torsions:
  status: ('A' for Active; 'I' for Inactive)
    1  A    between atoms: C_3  and  C_20
    2  A    between atoms: C_5  and  C_7
    3  A    between atoms: C_7  and  N_32
    4  A    between atoms: C_9  and  N_45
    5  A    between atoms: N_11  and  C_38
    6  A    between atoms: C_15  and  C_26
    7  A    between atoms: C_15  and  C_29
    8  A    between atoms: N_17  and  C_29
    9  A    between atoms: C_26  and  N_34
   10  A    between atoms: C_27  and  N_34
   11  A    between atoms: C_27  and  C_41
   12  A    between atoms: C_36  and  N_45
                            x       y       z     vdW  Elec       q    Type
                         _______ _______ _______ _____ _____    ______ ____

>  <TORSDO>
F 12

$$$$
=
 OpenBabel10232412423D

 45 49  0  0  1  0  0  0  0  0999 V2000
  182.8230  178.7650  142.2880 C   0  0  0  0  0  0  0  0  0  0  0  0
  184.0000  179.0010  143.0880 N   0  0  0  0  0  0  0  0  0  0  0  0
  181.6870  178.8240  142.8370 O   0  0  0  0  0  0  0  0  0  0  0  0
  182.8960  178.4490  140.8430 C   0  0  0  0  0  0  0  0  0  0  0  0
  182.8710  179.4820  139.8970 C   0  0  0  0  0  3  0  0  0  0  0  0
  182.9220  179.2010  138.5680 N   0  0  0  0  0  0  0  0  0  0  0  0
  183.0490  177.6910  136.6970 N   0  0  0  0  0  2  0  0  0  0  0  0
  182.9980  176.8590  139.0150 C   0  0  0  0  0  3  0  0  0  0  0  0
  182.9870  177.9240  138.1050 C   0  0  0  0  0  0  0  0  0  0  0  0
  182.9480  177.1270  140.3830 C   0  0  0  0  0  3  0  0  0  0  0  0
  183.1170  176.3580  136.1160 C   0  0  0  0  0  2  0  0  0  0  0  0
  185.0160  174.7960  135.6660 N   0  0  0  0  0  0  0  0  0  0  0  0
  185.4810  176.9700  135.3970 C   0  0  0  0  0  3  0  0  0  0  0  0
  184.5250  176.0440  135.7500 C   0  0  0  0  0  0  0  0  0  0  0  0
  186.6070  176.2960  135.0950 N   0  0  0  0  0  2  0  0  0  0  0  0
  187.2490  173.8890  135.0380 C   0  0  0  0  0  1  0  0  0  0  0  0
  186.2870  174.9990  135.2700 C   0  0  0  0  0  0  0  0  0  0  0  0
  185.2780  179.3980  142.5100 C   0  0  0  0  0  2  0  0  0  0  0  0
  185.8750  178.2540  141.7080 C   0  0  0  0  0  2  0  0  0  0  0  0
  186.8910  178.7870  140.7170 C   0  0  0  0  0  2  0  0  0  0  0  0
  187.4630  177.9670  138.3990 C   0  0  0  0  0  3  0  0  0  0  0  0
  188.7240  177.9000  138.6880 N   0  0  0  0  0  0  0  0  0  0  0  0
  186.5090  178.4120  139.3640 N   0  0  0  0  0  2  0  0  0  0  0  0
  189.7060  177.4590  137.7420 C   0  0  0  0  0  0  0  0  0  0  0  0
  189.6060  177.7910  136.5270 O   0  0  0  0  0  0  0  0  0  0  0  0
  190.8080  176.6390  138.1760 N   0  0  0  0  0  0  0  0  0  0  0  0
  192.4700  175.0280  137.6560 O   0  0  0  0  0  0  0  0  0  0  0  0
  191.4990  174.8240  136.6630 C   0  0  0  0  0  0  0  0  0  0  0  0
  190.3540  173.9820  137.2040 C   0  0  0  0  0  1  0  0  0  0  0  0
  192.1430  174.4240  135.3530 C   0  0  0  0  0  1  0  0  0  0  0  0
  191.8030  176.1860  137.1920 C   0  0  1  0  0  3  0  0  0  0  0  0
  191.0020  176.4510  139.5900 C   0  0  0  0  0  3  0  0  0  0  0  0
  191.7070  177.2920  140.3400 C   0  0  0  0  0  2  0  0  0  0  0  0
  183.9330  178.8440  144.5340 C   0  0  0  0  0  2  0  0  0  0  0  0
  189.7320  178.0290  146.0820 C   0  0  0  0  0  2  0  0  0  0  0  0
  187.0390  177.4210  145.6540 C   0  0  0  0  0  0  0  0  0  0  0  0
  189.0000  177.4000  147.2640 C   0  0  2  0  0  3  0  0  0  0  0  0
  186.1330  178.3270  145.4010 C   0  0  0  0  0  0  0  0  0  0  0  0
  190.0660  177.0530  145.1290 O   0  0  0  0  0  0  0  0  0  0  0  0
  189.0430  178.5160  143.3920 C   0  0  0  0  0  1  0  0  0  0  0  0
  189.1690  177.1350  144.0380 C   0  0  2  0  0  3  0  0  0  0  0  0
  187.5630  176.3130  144.3460 S   0  0  0  0  0  0  0  0  0  0  0  0
  187.4960  177.1550  147.0610 C   0  0  1  0  0  3  0  0  0  0  0  0
  185.2340  179.2340  145.1460 C   0  0  0  0  0  3  0  0  0  0  0  0
  187.9910  178.4060  147.7690 C   0  0  0  0  0  2  0  0  0  0  0  0
  1  3  2  0  0  0  0
  1  2  1  0  0  0  0
  2 34  1  0  0  0  0
  4  1  1  0  0  0  0
  5  4  2  0  0  0  0
  6  5  1  0  0  0  0
  7  9  1  0  0  0  0
  8 10  2  0  0  0  0
  9  6  2  0  0  0  0
  9  8  1  0  0  0  0
 10  4  1  0  0  0  0
 11  7  1  0  0  0  0
 12 14  1  0  0  0  0
 13 14  2  0  0  0  0
 14 11  1  0  0  0  0
 15 17  1  0  0  0  0
 15 13  1  0  0  0  0
 16 17  1  0  0  0  0
 17 12  2  0  0  0  0
 18  2  1  0  0  0  0
 19 18  1  0  0  0  0
 20 19  1  0  0  0  0
 21 22  2  0  0  0  0
 21 23  1  0  0  0  0
 23 20  1  0  0  0  0
 24 26  1  0  0  0  0
 24 22  1  0  0  0  0
 25 24  2  0  0  0  0
 26 32  1  0  0  0  0
 28 31  1  0  0  0  0
 28 29  1  0  0  0  0
 28 27  1  0  0  0  0
 30 28  1  0  0  0  0
 31 27  1  0  0  0  0
 31 26  1  1  0  0  0
 32 33  2  0  0  0  0
 34 44  1  0  0  0  0
 36 43  1  0  0  0  0
 37 35  1  6  0  0  0
 37 45  1  0  0  0  0
 38 36  2  0  0  0  0
 39 35  1  0  0  0  0
 41 40  1  1  0  0  0
 41 42  1  0  0  0  0
 41 39  1  0  0  0  0
 42 36  1  0  0  0  0
 43 37  1  0  0  0  0
 43 45  1  1  0  0  0
 44 38  2  0  0  0  0
M  END
>  <MODEL>
8

>  <REMARK>
 VINA RESULT:      -6.9      3.272      9.171
  Name = 
  12 active torsions:
  status: ('A' for Active; 'I' for Inactive)
    1  A    between atoms: C_3  and  C_20
    2  A    between atoms: C_5  and  C_7
    3  A    between atoms: C_7  and  N_32
    4  A    between atoms: C_9  and  N_45
    5  A    between atoms: N_11  and  C_38
    6  A    between atoms: C_15  and  C_26
    7  A    between atoms: C_15  and  C_29
    8  A    between atoms: N_17  and  C_29
    9  A    between atoms: C_26  and  N_34
   10  A    between atoms: C_27  and  N_34
   11  A    between atoms: C_27  and  C_41
   12  A    between atoms: C_36  and  N_45
                            x       y       z     vdW  Elec       q    Type
                         _______ _______ _______ _____ _____    ______ ____

>  <TORSDO>
F 12

$$$$
=
 OpenBabel10232412423D

 45 49  0  0  1  0  0  0  0  0999 V2000
  191.8570  177.1420  139.8730 C   0  0  0  0  0  0  0  0  0  0  0  0
  191.1610  177.1350  138.6100 N   0  0  0  0  0  0  0  0  0  0  0  0
  193.1150  177.0300  139.8800 O   0  0  0  0  0  0  0  0  0  0  0  0
  191.1500  177.2720  141.1680 C   0  0  0  0  0  0  0  0  0  0  0  0
  191.5810  178.2130  142.1110 C   0  0  0  0  0  3  0  0  0  0  0  0
  190.9490  178.3290  143.3090 N   0  0  0  0  0  0  0  0  0  0  0  0
  189.2600  177.7160  144.9120 N   0  0  0  0  0  2  0  0  0  0  0  0
  189.4370  176.5750  142.7360 C   0  0  0  0  0  3  0  0  0  0  0  0
  189.8920  177.5410  143.6430 C   0  0  0  0  0  0  0  0  0  0  0  0
  190.0730  176.4420  141.5020 C   0  0  0  0  0  3  0  0  0  0  0  0
  188.1270  176.9150  145.3510 C   0  0  0  0  0  2  0  0  0  0  0  0
  186.0290  178.0100  144.5470 N   0  0  0  0  0  0  0  0  0  0  0  0
  186.5660  178.4220  146.6810 C   0  0  0  0  0  3  0  0  0  0  0  0
  186.9320  177.7870  145.5160 C   0  0  0  0  0  0  0  0  0  0  0  0
  185.4120  179.0750  146.4430 N   0  0  0  0  0  2  0  0  0  0  0  0
  183.9160  179.3260  144.4660 C   0  0  0  0  0  1  0  0  0  0  0  0
  185.1260  178.8030  145.1540 C   0  0  0  0  0  0  0  0  0  0  0  0
  189.8240  177.6920  138.4440 C   0  0  0  0  0  2  0  0  0  0  0  0
  188.9270  176.7080  137.7110 C   0  0  0  0  0  2  0  0  0  0  0  0
  187.4760  176.9620  138.0670 C   0  0  0  0  0  2  0  0  0  0  0  0
  186.1670  178.7440  139.2870 C   0  0  0  0  0  3  0  0  0  0  0  0
  185.0880  178.4630  138.6260 N   0  0  0  0  0  0  0  0  0  0  0  0
  187.3850  178.0380  139.0420 N   0  0  0  0  0  2  0  0  0  0  0  0
  183.8520  179.1530  138.8480 C   0  0  0  0  0  0  0  0  0  0  0  0
  183.8590  180.3750  139.1660 O   0  0  0  0  0  0  0  0  0  0  0  0
  182.6010  178.4540  138.7050 N   0  0  0  0  0  0  0  0  0  0  0  0
  180.3680  178.3030  139.4940 O   0  0  0  0  0  0  0  0  0  0  0  0
  180.9680  179.2010  140.3900 C   0  0  0  0  0  0  0  0  0  0  0  0
  181.7630  178.4480  141.4450 C   0  0  0  0  0  1  0  0  0  0  0  0
  179.9820  180.2580  140.8360 C   0  0  0  0  0  1  0  0  0  0  0  0
  181.3400  179.1720  138.9450 C   0  0  1  0  0  3  0  0  0  0  0  0
  182.6210  177.1270  138.1470 C   0  0  0  0  0  3  0  0  0  0  0  0
  182.5430  176.8920  136.8420 C   0  0  0  0  0  2  0  0  0  0  0  0
  191.7990  176.5530  137.4370 C   0  0  0  0  0  2  0  0  0  0  0  0
  195.6550  171.8830  137.4550 C   0  0  0  0  0  2  0  0  0  0  0  0
  194.2930  174.1340  136.5150 C   0  0  0  0  0  0  0  0  0  0  0  0
  194.9800  171.7270  136.0950 C   0  0  2  0  0  3  0  0  0  0  0  0
  193.2570  174.6480  137.1220 C   0  0  0  0  0  0  0  0  0  0  0  0
  196.8540  172.6040  137.3340 O   0  0  0  0  0  0  0  0  0  0  0  0
  196.0700  174.0640  139.1930 C   0  0  0  0  0  1  0  0  0  0  0  0
  196.6540  173.9290  137.7860 C   0  0  2  0  0  3  0  0  0  0  0  0
  195.8550  175.0130  136.5460 S   0  0  0  0  0  0  0  0  0  0  0  0
  194.1500  172.9320  135.6230 C   0  0  1  0  0  3  0  0  0  0  0  0
  192.2260  175.1580  137.7330 C   0  0  0  0  0  3  0  0  0  0  0  0
  193.4850  171.7550  136.3180 C   0  0  0  0  0  2  0  0  0  0  0  0
  1  3  2  0  0  0  0
  1  4  1  0  0  0  0
  2  1  1  0  0  0  0
  4 10  1  0  0  0  0
  4  5  2  0  0  0  0
  5  6  1  0  0  0  0
  6  9  2  0  0  0  0
  7 11  1  0  0  0  0
  8  9  1  0  0  0  0
  9  7  1  0  0  0  0
 10  8  2  0  0  0  0
 11 14  1  0  0  0  0
 12 17  2  0  0  0  0
 12 14  1  0  0  0  0
 14 13  2  0  0  0  0
 15 13  1  0  0  0  0
 16 17  1  0  0  0  0
 17 15  1  0  0  0  0
 18  2  1  0  0  0  0
 19 20  1  0  0  0  0
 19 18  1  0  0  0  0
 20 23  1  0  0  0  0
 22 24  1  0  0  0  0
 22 21  2  0  0  0  0
 23 21  1  0  0  0  0
 24 25  2  0  0  0  0
 26 24  1  0  0  0  0
 27 28  1  0  0  0  0
 28 30  1  0  0  0  0
 28 29  1  0  0  0  0
 31 26  1  1  0  0  0
 31 27  1  0  0  0  0
 31 28  1  0  0  0  0
 32 26  1  0  0  0  0
 33 32  2  0  0  0  0
 34 44  1  0  0  0  0
 34  2  1  0  0  0  0
 36 42  1  0  0  0  0
 36 38  2  0  0  0  0
 37 45  1  1  0  0  0
 37 35  1  0  0  0  0
 38 44  2  0  0  0  0
 39 35  1  0  0  0  0
 39 41  1  0  0  0  0
 41 40  1  1  0  0  0
 42 41  1  0  0  0  0
 43 37  1  0  0  0  0
 43 45  1  1  0  0  0
 43 36  1  0  0  0  0
M  END
>  <MODEL>
9

>  <REMARK>
 VINA RESULT:      -6.9      2.751      3.923
  Name = 
  12 active torsions:
  status: ('A' for Active; 'I' for Inactive)
    1  A    between atoms: C_3  and  C_20
    2  A    between atoms: C_5  and  C_7
    3  A    between atoms: C_7  and  N_32
    4  A    between atoms: C_9  and  N_45
    5  A    between atoms: N_11  and  C_38
    6  A    between atoms: C_15  and  C_26
    7  A    between atoms: C_15  and  C_29
    8  A    between atoms: N_17  and  C_29
    9  A    between atoms: C_26  and  N_34
   10  A    between atoms: C_27  and  N_34
   11  A    between atoms: C_27  and  C_41
   12  A    between atoms: C_36  and  N_45
                            x       y       z     vdW  Elec       q    Type
                         _______ _______ _______ _____ _____    ______ ____

>  <TORSDO>
F 12

$$$$
