=
 OpenBabel10232409213D

 60 65  0  0  1  0  0  0  0  0999 V2000
  185.2090  178.5400  142.0730 C   0  0  0  0  0  0  0  0  0  0  0  0
  184.3850  178.5150  141.0640 N   0  0  0  0  0  0  0  0  0  0  0  0
  184.7270  178.3890  143.4170 N   0  0  0  0  0  2  0  0  0  0  0  0
  185.5160  178.1320  144.5860 C   0  0  0  0  0  0  0  0  0  0  0  0
  186.0140  178.4560  146.9420 C   0  0  0  0  0  3  0  0  0  0  0  0
  186.6460  177.3160  144.4690 C   0  0  0  0  0  3  0  0  0  0  0  0
  187.4470  177.0530  145.5860 C   0  0  0  0  0  3  0  0  0  0  0  0
  187.1240  177.6060  146.8320 C   0  0  0  0  0  0  0  0  0  0  0  0
  185.2140  178.7120  145.8270 C   0  0  0  0  0  3  0  0  0  0  0  0
  188.8220  178.5920  148.3320 C   0  0  0  0  0  2  0  0  0  0  0  0
  189.4800  177.4290  147.6250 C   0  0  0  0  0  2  0  0  0  0  0  0
  188.0120  177.3450  148.0120 C   0  0  0  0  0  3  0  0  0  0  0  0
  182.9700  178.2670  141.1020 C   0  0  0  0  0  0  0  0  0  0  0  0
  182.2260  178.8670  141.9180 O   0  0  0  0  0  0  0  0  0  0  0  0
  182.4060  177.3040  140.2180 N   0  0  0  0  0  2  0  0  0  0  0  0
  183.2020  176.6660  139.2580 N   0  0  0  0  0  2  0  0  0  0  0  0
  182.9990  177.5320  136.9910 C   0  0  0  0  0  3  0  0  0  0  0  0
  182.1480  175.3200  137.4870 C   0  0  0  0  0  3  0  0  0  0  0  0
  182.7720  176.5030  137.9090 C   0  0  0  0  0  0  0  0  0  0  0  0
  181.7480  175.1640  136.1540 C   0  0  0  0  0  0  0  0  0  0  0  0
  182.6080  177.3820  135.6580 C   0  0  0  0  0  3  0  0  0  0  0  0
  181.9910  176.2010  135.2410 C   0  0  0  0  0  3  0  0  0  0  0  0
  181.1550  171.6550  135.2720 O   0  0  0  0  0  0  0  0  0  0  0  0
  181.8050  172.7320  135.3190 C   0  0  0  0  0  0  0  0  0  0  0  0
  181.1410  173.9260  135.7550 N   0  0  0  0  0  2  0  0  0  0  0  0
  183.2500  172.7290  134.9100 C   0  0  0  0  0  2  0  0  0  0  0  0
  184.2210  172.0840  135.9180 C   0  0  0  0  0  0  0  0  0  0  0  0
  184.8190  170.8160  135.3180 C   0  0  0  0  0  1  0  0  0  0  0  0
  183.3690  171.6580  137.1060 C   0  0  0  0  0  1  0  0  0  0  0  0
  185.1100  174.3380  135.8550 O   0  0  0  0  0  1  0  0  0  0  0  0
  185.3430  173.0610  136.3890 C   0  0  0  0  0  0  0  0  0  0  0  0
  185.3160  173.1570  137.7840 O   0  0  0  0  0  1  0  0  0  0  0  0
  187.8680  173.5040  136.2830 C   0  0  0  0  0  2  0  0  0  0  0  0
  187.6470  172.3030  137.1780 C   0  0  0  0  0  2  0  0  0  0  0  0
  186.7460  172.5280  135.9810 C   0  0  0  0  0  3  0  0  0  0  0  0
  186.6600  178.8360  141.8110 C   0  0  0  0  0  2  0  0  0  0  0  0
  187.4630  176.8230  137.8020 O   0  0  0  0  0  0  0  0  0  0  0  0
  189.3050  177.7640  141.0020 C   0  0  0  0  0  3  0  0  0  0  0  0
  190.5620  177.4420  140.6730 C   0  0  0  0  0  0  0  0  0  0  0  0
  188.5820  179.0060  137.5180 O   0  0  0  0  0  0  0  0  0  0  0  0
  188.5390  177.7380  138.3270 S   0  0  0  0  0  0  0  0  0  0  0  0
  190.1050  176.9060  138.2470 C   0  0  0  0  0  2  0  0  0  0  0  0
  187.0590  178.5570  140.3910 C   0  0  0  0  0  3  0  0  0  0  0  0
  191.0650  177.5440  139.2450 C   0  0  2  0  0  3  0  0  0  0  0  0
  191.6520  177.0230  141.9830 Cl  0  0  0  0  0  0  0  0  0  0  0  0
  188.2560  178.0990  140.0180 C   0  0  0  0  0  0  0  0  0  0  0  0
  192.3780  176.9370  139.0990 N   0  0  0  0  0  2  0  0  0  0  0  0
  194.4960  175.4050  138.1420 O   0  0  0  0  0  0  0  0  0  0  0  0
  193.3280  175.0580  137.8100 C   0  0  0  0  0  0  0  0  0  0  0  0
  192.2060  175.7980  138.3010 N   0  0  0  0  0  2  0  0  0  0  0  0
  193.9800  171.7250  136.1600 C   0  0  0  0  0  0  0  0  0  0  0  0
  192.6300  170.2700  134.6350 C   0  0  0  0  0  1  0  0  0  0  0  0
  194.9740  170.8050  136.1450 F   0  0  0  0  0  0  0  0  0  0  0  0
  191.7880  172.4820  135.4600 C   0  0  0  0  0  0  0  0  0  0  0  0
  194.1360  172.8880  136.9150 C   0  0  0  0  0  3  0  0  0  0  0  0
  191.9390  173.6450  136.2250 C   0  0  0  0  0  0  0  0  0  0  0  0
  190.9340  174.5590  136.2300 F   0  0  0  0  0  0  0  0  0  0  0  0
  192.8060  171.5180  135.4310 C   0  0  0  0  0  0  0  0  0  0  0  0
  190.6480  172.2960  134.7490 F   0  0  0  0  0  0  0  0  0  0  0  0
  193.1250  173.8580  136.9640 C   0  0  0  0  0  0  0  0  0  0  0  0
  1  3  1  0  0  0  0
  2 13  1  0  0  0  0
  2  1  2  0  0  0  0
  3  4  1  0  0  0  0
  4  9  1  0  0  0  0
  6  4  2  0  0  0  0
  6  7  1  0  0  0  0
  7  8  2  0  0  0  0
  8  5  1  0  0  0  0
  8 12  1  0  0  0  0
  9  5  2  0  0  0  0
 11 12  1  0  0  0  0
 11 10  1  0  0  0  0
 12 10  1  0  0  0  0
 13 14  2  0  0  0  0
 15 13  1  0  0  0  0
 16 15  1  0  0  0  0
 17 19  1  0  0  0  0
 18 19  2  0  0  0  0
 19 16  1  0  0  0  0
 20 18  1  0  0  0  0
 21 17  2  0  0  0  0
 22 21  1  0  0  0  0
 22 20  2  0  0  0  0
 23 24  2  0  0  0  0
 24 25  1  0  0  0  0
 25 20  1  0  0  0  0
 26 24  1  0  0  0  0
 26 27  1  0  0  0  0
 27 31  1  0  0  0  0
 27 29  1  0  0  0  0
 28 27  1  0  0  0  0
 30 31  1  0  0  0  0
 31 32  1  0  0  0  0
 33 34  1  0  0  0  0
 35 33  1  0  0  0  0
 35 31  1  0  0  0  0
 35 34  1  0  0  0  0
 36  1  1  0  0  0  0
 37 41  2  0  0  0  0
 39 38  2  0  0  0  0
 39 45  1  0  0  0  0
 40 41  2  0  0  0  0
 41 46  1  0  0  0  0
 42 41  1  0  0  0  0
 42 44  1  0  0  0  0
 43 36  1  0  0  0  0
 44 47  1  1  0  0  0
 44 39  1  0  0  0  0
 46 43  2  0  0  0  0
 46 38  1  0  0  0  0
 49 48  2  0  0  0  0
 49 50  1  0  0  0  0
 50 47  1  0  0  0  0
 51 55  1  0  0  0  0
 52 58  1  0  0  0  0
 53 51  1  0  0  0  0
 54 56  2  0  0  0  0
 55 60  2  0  0  0  0
 56 57  1  0  0  0  0
 56 60  1  0  0  0  0
 58 54  1  0  0  0  0
 58 51  2  0  0  0  0
 59 54  1  0  0  0  0
 60 49  1  0  0  0  0
M  END
>  <MODEL>
1

>  <REMARK>
 VINA RESULT:      -8.9      0.000      0.000
  Name = 
  15 active torsions:
  status: ('A' for Active; 'I' for Inactive)
    1  A    between atoms: C_2  and  C_14
    2  A    between atoms: C_2  and  C_54
    3  A    between atoms: C_7  and  C_13
    4  A    between atoms: C_8  and  N_32
    5  A    between atoms: C_13  and  C_36
    6  A    between atoms: C_14  and  C_15
    7  A    between atoms: C_18  and  N_45
    8  A    between atoms: C_21  and  N_51
    9  A    between atoms: C_29  and  C_57
   10  A    between atoms: C_31  and  C_50
   11  A    between atoms: N_34  and  C_35
   12  A    between atoms: N_38  and  N_44
   13  A    between atoms: N_38  and  C_47
   14  A    between atoms: N_45  and  N_53
   15  A    between atoms: C_54  and  C_59
                            x       y       z     vdW  Elec       q    Type
                         _______ _______ _______ _____ _____    ______ ____

>  <TORSDO>
F 15

$$$$
=
 OpenBabel10232409213D

 60 65  0  0  1  0  0  0  0  0999 V2000
  183.0360  177.6160  138.9170 C   0  0  0  0  0  0  0  0  0  0  0  0
  182.6130  178.4370  139.8350 N   0  0  0  0  0  0  0  0  0  0  0  0
  182.8130  176.2020  139.0370 N   0  0  0  0  0  2  0  0  0  0  0  0
  182.9750  175.2180  138.0070 C   0  0  0  0  0  0  0  0  0  0  0  0
  182.2400  174.1150  135.9710 C   0  0  0  0  0  3  0  0  0  0  0  0
  184.0480  174.3260  138.0930 C   0  0  0  0  0  3  0  0  0  0  0  0
  184.2310  173.3440  137.1130 C   0  0  0  0  0  3  0  0  0  0  0  0
  183.3390  173.2460  136.0370 C   0  0  0  0  0  0  0  0  0  0  0  0
  182.0640  175.0970  136.9480 C   0  0  0  0  0  3  0  0  0  0  0  0
  183.5650  170.8090  135.6990 C   0  0  0  0  0  2  0  0  0  0  0  0
  184.8480  171.4420  135.2140 C   0  0  0  0  0  2  0  0  0  0  0  0
  183.5250  172.1650  135.0140 C   0  0  0  0  0  3  0  0  0  0  0  0
  181.8350  178.1140  140.9990 C   0  0  0  0  0  0  0  0  0  0  0  0
  180.7960  177.4110  140.9140 O   0  0  0  0  0  0  0  0  0  0  0  0
  182.2340  178.6230  142.2680 N   0  0  0  0  0  2  0  0  0  0  0  0
  183.4190  179.3570  142.4000 N   0  0  0  0  0  2  0  0  0  0  0  0
  184.4470  178.7050  144.5100 C   0  0  0  0  0  3  0  0  0  0  0  0
  185.7240  178.4940  142.4640 C   0  0  0  0  0  3  0  0  0  0  0  0
  184.5410  178.8560  143.1240 C   0  0  0  0  0  0  0  0  0  0  0  0
  186.8120  177.9840  143.1830 C   0  0  0  0  0  0  0  0  0  0  0  0
  185.5250  178.1920  145.2350 C   0  0  0  0  0  3  0  0  0  0  0  0
  186.7000  177.8280  144.5730 C   0  0  0  0  0  3  0  0  0  0  0  0
  189.8700  176.2800  142.0960 O   0  0  0  0  0  0  0  0  0  0  0  0
  189.0510  176.7450  142.9310 C   0  0  0  0  0  0  0  0  0  0  0  0
  187.9940  177.5960  142.4680 N   0  0  0  0  0  2  0  0  0  0  0  0
  189.2150  176.3980  144.3840 C   0  0  0  0  0  2  0  0  0  0  0  0
  190.3230  177.1690  145.1260 C   0  0  0  0  0  0  0  0  0  0  0  0
  190.3510  178.6180  144.6470 C   0  0  0  0  0  1  0  0  0  0  0  0
  191.6380  176.5310  144.6970 C   0  0  0  0  0  1  0  0  0  0  0  0
  189.8430  175.7890  147.0600 O   0  0  0  0  0  1  0  0  0  0  0  0
  190.1760  177.0980  146.6780 C   0  0  0  0  0  0  0  0  0  0  0  0
  191.3960  177.4330  147.2730 O   0  0  0  0  0  1  0  0  0  0  0  0
  188.0300  177.4830  148.0300 C   0  0  0  0  0  2  0  0  0  0  0  0
  189.1370  178.2820  148.6840 C   0  0  0  0  0  2  0  0  0  0  0  0
  189.1130  178.1180  147.1790 C   0  0  0  0  0  3  0  0  0  0  0  0
  183.8560  178.1640  137.7810 C   0  0  0  0  0  2  0  0  0  0  0  0
  188.3120  179.1190  137.8050 O   0  0  0  0  0  0  0  0  0  0  0  0
  185.8900  176.5890  136.3040 C   0  0  0  0  0  3  0  0  0  0  0  0
  186.7440  175.7370  135.7240 C   0  0  0  0  0  0  0  0  0  0  0  0
  188.2070  177.1070  139.2320 O   0  0  0  0  0  0  0  0  0  0  0  0
  187.9320  177.6630  137.8610 S   0  0  0  0  0  0  0  0  0  0  0  0
  188.8600  176.7680  136.6400 C   0  0  0  0  0  2  0  0  0  0  0  0
  185.3250  178.1860  138.0870 C   0  0  0  0  0  3  0  0  0  0  0  0
  188.1260  175.4780  136.2950 C   0  0  2  0  0  3  0  0  0  0  0  0
  186.1530  174.8240  134.3460 Cl  0  0  0  0  0  0  0  0  0  0  0  0
  186.2420  177.4600  137.4440 C   0  0  0  0  0  0  0  0  0  0  0  0
  188.9400  174.6950  135.3800 N   0  0  0  0  0  2  0  0  0  0  0  0
  190.6420  172.5380  134.9330 O   0  0  0  0  0  0  0  0  0  0  0  0
  191.0330  173.4330  135.7330 C   0  0  0  0  0  0  0  0  0  0  0  0
  190.2050  174.5750  135.9720 N   0  0  0  0  0  2  0  0  0  0  0  0
  194.4440  172.0800  136.6240 C   0  0  0  0  0  0  0  0  0  0  0  0
  196.3040  172.9280  138.0670 C   0  0  0  0  0  1  0  0  0  0  0  0
  195.1940  170.9980  136.3060 F   0  0  0  0  0  0  0  0  0  0  0  0
  194.1440  174.1730  137.8050 C   0  0  0  0  0  0  0  0  0  0  0  0
  193.1670  172.2120  136.0740 C   0  0  0  0  0  3  0  0  0  0  0  0
  192.8680  174.3130  137.2470 C   0  0  0  0  0  0  0  0  0  0  0  0
  192.1280  175.4030  137.5760 F   0  0  0  0  0  0  0  0  0  0  0  0
  194.9360  173.0600  137.4900 C   0  0  0  0  0  0  0  0  0  0  0  0
  194.6090  175.1260  138.6520 F   0  0  0  0  0  0  0  0  0  0  0  0
  192.3660  173.3240  136.3700 C   0  0  0  0  0  0  0  0  0  0  0  0
  1  3  1  0  0  0  0
  1  2  2  0  0  0  0
  2 13  1  0  0  0  0
  4  6  1  0  0  0  0
  4  3  1  0  0  0  0
  5  8  2  0  0  0  0
  5  9  1  0  0  0  0
  7  6  2  0  0  0  0
  8  7  1  0  0  0  0
  9  4  2  0  0  0  0
 11 10  1  0  0  0  0
 12 11  1  0  0  0  0
 12 10  1  0  0  0  0
 12  8  1  0  0  0  0
 13 15  1  0  0  0  0
 14 13  2  0  0  0  0
 15 16  1  0  0  0  0
 16 19  1  0  0  0  0
 17 21  1  0  0  0  0
 18 19  1  0  0  0  0
 18 20  2  0  0  0  0
 19 17  2  0  0  0  0
 20 22  1  0  0  0  0
 22 21  2  0  0  0  0
 23 24  2  0  0  0  0
 24 26  1  0  0  0  0
 25 24  1  0  0  0  0
 25 20  1  0  0  0  0
 26 27  1  0  0  0  0
 27 31  1  0  0  0  0
 28 27  1  0  0  0  0
 29 27  1  0  0  0  0
 31 30  1  0  0  0  0
 31 35  1  0  0  0  0
 31 32  1  0  0  0  0
 33 34  1  0  0  0  0
 35 33  1  0  0  0  0
 35 34  1  0  0  0  0
 36 43  1  0  0  0  0
 36  1  1  0  0  0  0
 37 41  2  0  0  0  0
 38 46  1  0  0  0  0
 39 44  1  0  0  0  0
 39 38  2  0  0  0  0
 41 40  2  0  0  0  0
 42 41  1  0  0  0  0
 44 47  1  6  0  0  0
 44 42  1  0  0  0  0
 45 39  1  0  0  0  0
 46 41  1  0  0  0  0
 46 43  2  0  0  0  0
 47 50  1  0  0  0  0
 48 49  2  0  0  0  0
 49 50  1  0  0  0  0
 49 60  1  0  0  0  0
 51 58  1  0  0  0  0
 53 51  1  0  0  0  0
 54 59  1  0  0  0  0
 55 60  1  0  0  0  0
 55 51  2  0  0  0  0
 56 57  1  0  0  0  0
 56 54  1  0  0  0  0
 58 54  2  0  0  0  0
 58 52  1  0  0  0  0
 60 56  2  0  0  0  0
M  END
>  <MODEL>
2

>  <REMARK>
 VINA RESULT:      -8.7      3.032      8.340
  Name = 
  15 active torsions:
  status: ('A' for Active; 'I' for Inactive)
    1  A    between atoms: C_2  and  C_14
    2  A    between atoms: C_2  and  C_54
    3  A    between atoms: C_7  and  C_13
    4  A    between atoms: C_8  and  N_32
    5  A    between atoms: C_13  and  C_36
    6  A    between atoms: C_14  and  C_15
    7  A    between atoms: C_18  and  N_45
    8  A    between atoms: C_21  and  N_51
    9  A    between atoms: C_29  and  C_57
   10  A    between atoms: C_31  and  C_50
   11  A    between atoms: N_34  and  C_35
   12  A    between atoms: N_38  and  N_44
   13  A    between atoms: N_38  and  C_47
   14  A    between atoms: N_45  and  N_53
   15  A    between atoms: C_54  and  C_59
                            x       y       z     vdW  Elec       q    Type
                         _______ _______ _______ _____ _____    ______ ____

>  <TORSDO>
F 15

$$$$
=
 OpenBabel10232409213D

 60 65  0  0  1  0  0  0  0  0999 V2000
  183.2660  178.5160  140.0450 C   0  0  0  0  0  0  0  0  0  0  0  0
  183.1110  179.1880  141.1500 N   0  0  0  0  0  0  0  0  0  0  0  0
  182.7520  177.1810  139.9190 N   0  0  0  0  0  2  0  0  0  0  0  0
  182.6090  176.4290  138.7080 C   0  0  0  0  0  0  0  0  0  0  0  0
  183.2060  174.5660  137.2660 C   0  0  0  0  0  3  0  0  0  0  0  0
  181.7340  176.8980  137.7230 C   0  0  0  0  0  3  0  0  0  0  0  0
  181.5780  176.1970  136.5230 C   0  0  0  0  0  3  0  0  0  0  0  0
  182.2990  175.0170  136.2960 C   0  0  0  0  0  0  0  0  0  0  0  0
  183.3550  175.2660  138.4650 C   0  0  0  0  0  3  0  0  0  0  0  0
  180.7800  174.5840  134.3960 C   0  0  0  0  0  2  0  0  0  0  0  0
  181.0440  173.2530  135.0610 C   0  0  0  0  0  2  0  0  0  0  0  0
  182.1500  174.2950  134.9900 C   0  0  0  0  0  3  0  0  0  0  0  0
  182.3830  178.7810  142.3210 C   0  0  0  0  0  0  0  0  0  0  0  0
  181.1260  178.7540  142.3300 O   0  0  0  0  0  0  0  0  0  0  0  0
  183.0990  178.4270  143.5000 N   0  0  0  0  0  0  0  0  0  0  0  0
  184.4990  178.3900  143.4990 N   0  0  0  0  0  0  0  0  0  0  0  0
  184.7860  179.1510  145.7950 C   0  0  0  0  0  3  0  0  0  0  0  0
  186.4490  177.6820  144.8250 C   0  0  0  0  0  3  0  0  0  0  0  0
  185.2560  178.4100  144.7070 C   0  0  0  0  0  0  0  0  0  0  0  0
  187.1720  177.6940  146.0240 C   0  0  0  0  0  0  0  0  0  0  0  0
  185.4980  179.1640  146.9960 C   0  0  0  0  0  3  0  0  0  0  0  0
  186.6840  178.4340  147.1110 C   0  0  0  0  0  3  0  0  0  0  0  0
  190.6590  176.5660  145.9130 O   0  0  0  0  0  0  0  0  0  0  0  0
  189.6430  177.1940  145.5140 C   0  0  0  0  0  0  0  0  0  0  0  0
  188.3720  176.9110  146.1150 N   0  0  0  0  0  2  0  0  0  0  0  0
  189.7980  178.2120  144.4210 C   0  0  0  0  0  2  0  0  0  0  0  0
  189.8060  177.6460  142.9870 C   0  0  0  0  0  0  0  0  0  0  0  0
  188.9480  178.5250  142.0820 C   0  0  0  0  0  1  0  0  0  0  0  0
  189.1220  176.2870  143.0700 C   0  0  0  0  0  1  0  0  0  0  0  0
  192.1290  178.3290  143.0980 O   0  0  0  0  0  1  0  0  0  0  0  0
  191.2460  177.4840  142.4080 C   0  0  0  0  0  0  0  0  0  0  0  0
  191.6700  176.1640  142.5870 O   0  0  0  0  0  1  0  0  0  0  0  0
  192.5960  177.4730  140.2260 C   0  0  0  0  0  2  0  0  0  0  0  0
  191.4290  176.5230  140.0520 C   0  0  0  0  0  2  0  0  0  0  0  0
  191.2620  177.7800  140.8810 C   0  0  0  0  0  3  0  0  0  0  0  0
  184.0860  179.1250  138.9410 C   0  0  0  0  0  2  0  0  0  0  0  0
  188.6300  179.1500  138.5930 O   0  0  0  0  0  0  0  0  0  0  0  0
  185.5930  177.6080  136.8850 C   0  0  0  0  0  3  0  0  0  0  0  0
  186.1870  176.7800  136.0160 C   0  0  0  0  0  0  0  0  0  0  0  0
  188.1950  176.9030  139.5190 O   0  0  0  0  0  0  0  0  0  0  0  0
  187.9410  177.8310  138.3620 S   0  0  0  0  0  0  0  0  0  0  0  0
  188.5460  177.1110  136.8560 C   0  0  0  0  0  2  0  0  0  0  0  0
  185.5430  178.7790  139.0460 C   0  0  0  0  0  3  0  0  0  0  0  0
  187.5170  176.1200  136.3230 C   0  0  2  0  0  3  0  0  0  0  0  0
  185.2990  176.3810  134.5550 Cl  0  0  0  0  0  0  0  0  0  0  0  0
  186.2210  178.0750  138.1380 C   0  0  0  0  0  0  0  0  0  0  0  0
  188.0610  175.4500  135.1520 N   0  0  0  0  0  2  0  0  0  0  0  0
  189.1280  172.9290  135.6560 O   0  0  0  0  0  0  0  0  0  0  0  0
  189.9170  173.9150  135.6940 C   0  0  0  0  0  0  0  0  0  0  0  0
  189.4200  175.2270  135.4140 N   0  0  0  0  0  2  0  0  0  0  0  0
  193.2910  172.2270  135.8420 C   0  0  0  0  0  0  0  0  0  0  0  0
  195.5510  172.9700  136.6190 C   0  0  0  0  0  1  0  0  0  0  0  0
  193.8140  171.0270  135.4930 F   0  0  0  0  0  0  0  0  0  0  0  0
  193.5360  174.4550  136.7600 C   0  0  0  0  0  0  0  0  0  0  0  0
  191.9320  172.4670  135.6320 C   0  0  0  0  0  3  0  0  0  0  0  0
  192.1750  174.7010  136.5410 C   0  0  0  0  0  0  0  0  0  0  0  0
  191.6650  175.9080  136.8980 F   0  0  0  0  0  0  0  0  0  0  0  0
  194.0970  173.2190  136.4070 C   0  0  0  0  0  0  0  0  0  0  0  0
  194.3070  175.4220  137.3170 F   0  0  0  0  0  0  0  0  0  0  0  0
  191.3570  173.7000  135.9710 C   0  0  0  0  0  0  0  0  0  0  0  0
  1  2  2  0  0  0  0
  2 13  1  0  0  0  0
  3  1  1  0  0  0  0
  4  3  1  0  0  0  0
  5  9  2  0  0  0  0
  6  4  2  0  0  0  0
  7  6  1  0  0  0  0
  8  7  2  0  0  0  0
  8  5  1  0  0  0  0
  9  4  1  0  0  0  0
 10 12  1  0  0  0  0
 10 11  1  0  0  0  0
 12 11  1  0  0  0  0
 12  8  1  0  0  0  0
 13 14  2  0  0  0  0
 13 15  1  0  0  0  0
 16 15  2  0  0  0  0
 16 19  1  0  0  0  0
 17 21  1  0  0  0  0
 18 20  2  0  0  0  0
 19 18  1  0  0  0  0
 19 17  2  0  0  0  0
 20 25  1  0  0  0  0
 20 22  1  0  0  0  0
 21 22  2  0  0  0  0
 24 23  2  0  0  0  0
 24 25  1  0  0  0  0
 26 24  1  0  0  0  0
 27 29  1  0  0  0  0
 27 26  1  0  0  0  0
 28 27  1  0  0  0  0
 31 32  1  0  0  0  0
 31 27  1  0  0  0  0
 31 30  1  0  0  0  0
 33 35  1  0  0  0  0
 34 33  1  0  0  0  0
 34 35  1  0  0  0  0
 35 31  1  0  0  0  0
 36 43  1  0  0  0  0
 36  1  1  0  0  0  0
 38 46  1  0  0  0  0
 39 44  1  0  0  0  0
 39 38  2  0  0  0  0
 41 37  2  0  0  0  0
 41 40  2  0  0  0  0
 42 41  1  0  0  0  0
 44 47  1  6  0  0  0
 44 42  1  0  0  0  0
 45 39  1  0  0  0  0
 46 41  1  0  0  0  0
 46 43  2  0  0  0  0
 47 50  1  0  0  0  0
 48 49  2  0  0  0  0
 49 60  1  0  0  0  0
 50 49  1  0  0  0  0
 51 58  1  0  0  0  0
 53 51  1  0  0  0  0
 54 59  1  0  0  0  0
 55 51  2  0  0  0  0
 55 60  1  0  0  0  0
 56 54  1  0  0  0  0
 56 57  1  0  0  0  0
 58 52  1  0  0  0  0
 58 54  2  0  0  0  0
 60 56  2  0  0  0  0
M  END
>  <MODEL>
3

>  <REMARK>
 VINA RESULT:      -8.6      2.800      8.131
  Name = 
  15 active torsions:
  status: ('A' for Active; 'I' for Inactive)
    1  A    between atoms: C_2  and  C_14
    2  A    between atoms: C_2  and  C_54
    3  A    between atoms: C_7  and  C_13
    4  A    between atoms: C_8  and  N_32
    5  A    between atoms: C_13  and  C_36
    6  A    between atoms: C_14  and  C_15
    7  A    between atoms: C_18  and  N_45
    8  A    between atoms: C_21  and  N_51
    9  A    between atoms: C_29  and  C_57
   10  A    between atoms: C_31  and  C_50
   11  A    between atoms: N_34  and  C_35
   12  A    between atoms: N_38  and  N_44
   13  A    between atoms: N_38  and  C_47
   14  A    between atoms: N_45  and  N_53
   15  A    between atoms: C_54  and  C_59
                            x       y       z     vdW  Elec       q    Type
                         _______ _______ _______ _____ _____    ______ ____

>  <TORSDO>
F 15

$$$$
=
 OpenBabel10232409213D

 60 65  0  0  1  0  0  0  0  0999 V2000
  183.2740  178.4760  139.7900 C   0  0  0  0  0  0  0  0  0  0  0  0
  182.9610  179.1430  140.8650 N   0  0  0  0  0  0  0  0  0  0  0  0
  182.8050  177.1330  139.5970 N   0  0  0  0  0  2  0  0  0  0  0  0
  182.8370  176.3810  138.3780 C   0  0  0  0  0  0  0  0  0  0  0  0
  182.2560  176.0780  136.0380 C   0  0  0  0  0  3  0  0  0  0  0  0
  183.4580  175.1270  138.3760 C   0  0  0  0  0  3  0  0  0  0  0  0
  183.4980  174.3600  137.2080 C   0  0  0  0  0  3  0  0  0  0  0  0
  182.9140  174.8390  136.0270 C   0  0  0  0  0  0  0  0  0  0  0  0
  182.2240  176.8440  137.2040 C   0  0  0  0  0  3  0  0  0  0  0  0
  183.4230  172.5920  135.1350 C   0  0  0  0  0  2  0  0  0  0  0  0
  184.3480  173.5630  134.4380 C   0  0  0  0  0  2  0  0  0  0  0  0
  182.9320  173.9900  134.7920 C   0  0  0  0  0  3  0  0  0  0  0  0
  182.0920  178.7200  141.9290 C   0  0  0  0  0  0  0  0  0  0  0  0
  181.0010  178.1430  141.6880 O   0  0  0  0  0  0  0  0  0  0  0  0
  182.4600  178.9850  143.2780 N   0  0  0  0  0  2  0  0  0  0  0  0
  183.6970  179.5720  143.5760 N   0  0  0  0  0  2  0  0  0  0  0  0
  185.5980  178.1570  143.0120 C   0  0  0  0  0  3  0  0  0  0  0  0
  185.1720  178.6840  145.3370 C   0  0  0  0  0  3  0  0  0  0  0  0
  184.8220  178.7960  143.9830 C   0  0  0  0  0  0  0  0  0  0  0  0
  186.2900  177.9350  145.7210 C   0  0  0  0  0  0  0  0  0  0  0  0
  186.7180  177.4130  143.3860 C   0  0  0  0  0  3  0  0  0  0  0  0
  187.0670  177.3080  144.7350 C   0  0  0  0  0  3  0  0  0  0  0  0
  188.1120  177.6500  148.8910 O   0  0  0  0  0  0  0  0  0  0  0  0
  187.8550  177.3850  147.6870 C   0  0  0  0  0  0  0  0  0  0  0  0
  186.6330  177.8710  147.1140 N   0  0  0  0  0  2  0  0  0  0  0  0
  188.8340  176.5640  146.8970 C   0  0  0  0  0  2  0  0  0  0  0  0
  190.2580  177.1450  146.8010 C   0  0  0  0  0  0  0  0  0  0  0  0
  191.2590  176.1540  147.3900 C   0  0  0  0  0  1  0  0  0  0  0  0
  190.2690  178.3770  147.6970 C   0  0  0  0  0  1  0  0  0  0  0  0
  189.9820  178.7150  144.9750 O   0  0  0  0  0  1  0  0  0  0  0  0
  190.6550  177.5400  145.3450 C   0  0  0  0  0  0  0  0  0  0  0  0
  192.0300  177.7860  145.2920 O   0  0  0  0  0  1  0  0  0  0  0  0
  190.7860  176.6740  142.9330 C   0  0  0  0  0  2  0  0  0  0  0  0
  191.6060  175.7450  143.8030 C   0  0  0  0  0  2  0  0  0  0  0  0
  190.3470  176.3800  144.3550 C   0  0  0  0  0  3  0  0  0  0  0  0
  184.2220  179.1020  138.8040 C   0  0  0  0  0  2  0  0  0  0  0  0
  188.7680  179.2570  139.0910 O   0  0  0  0  0  0  0  0  0  0  0  0
  186.0420  177.6230  136.9880 C   0  0  0  0  0  3  0  0  0  0  0  0
  186.7740  176.8100  136.2160 C   0  0  0  0  0  0  0  0  0  0  0  0
  188.2710  177.0010  139.9630 O   0  0  0  0  0  0  0  0  0  0  0  0
  188.1550  177.9170  138.7760 S   0  0  0  0  0  0  0  0  0  0  0  0
  188.9830  177.2110  137.3730 C   0  0  0  0  0  2  0  0  0  0  0  0
  185.6590  178.7990  139.1140 C   0  0  0  0  0  3  0  0  0  0  0  0
  188.0660  176.1880  136.7090 C   0  0  2  0  0  3  0  0  0  0  0  0
  186.1090  176.3810  134.6490 Cl  0  0  0  0  0  0  0  0  0  0  0  0
  186.4760  178.1120  138.3130 C   0  0  0  0  0  0  0  0  0  0  0  0
  188.7860  175.5310  135.6310 N   0  0  0  0  0  2  0  0  0  0  0  0
  191.4040  175.9350  134.7770 O   0  0  0  0  0  0  0  0  0  0  0  0
  191.2180  175.1190  135.7220 C   0  0  0  0  0  0  0  0  0  0  0  0
  189.8930  174.9000  136.2140 N   0  0  0  0  0  2  0  0  0  0  0  0
  193.8110  172.4770  136.4680 C   0  0  0  0  0  0  0  0  0  0  0  0
  195.7750  172.3870  138.0180 C   0  0  0  0  0  1  0  0  0  0  0  0
  194.1110  171.2320  136.0290 F   0  0  0  0  0  0  0  0  0  0  0  0
  194.2640  174.3840  137.8920 C   0  0  0  0  0  0  0  0  0  0  0  0
  192.7110  173.1460  135.9300 C   0  0  0  0  0  3  0  0  0  0  0  0
  193.1670  175.0600  137.3450 C   0  0  0  0  0  0  0  0  0  0  0  0
  192.8790  176.3090  137.7980 F   0  0  0  0  0  0  0  0  0  0  0  0
  194.5910  173.0940  137.4510 C   0  0  0  0  0  0  0  0  0  0  0  0
  195.0090  174.9890  138.8510 F   0  0  0  0  0  0  0  0  0  0  0  0
  192.3760  174.4400  136.3520 C   0  0  0  0  0  0  0  0  0  0  0  0
  1  2  2  0  0  0  0
  2 13  1  0  0  0  0
  3  1  1  0  0  0  0
  4  3  1  0  0  0  0
  5  9  1  0  0  0  0
  6  4  1  0  0  0  0
  7  6  2  0  0  0  0
  8  5  2  0  0  0  0
  8  7  1  0  0  0  0
  9  4  2  0  0  0  0
 11 12  1  0  0  0  0
 11 10  1  0  0  0  0
 12 10  1  0  0  0  0
 12  8  1  0  0  0  0
 13 15  1  0  0  0  0
 14 13  2  0  0  0  0
 15 16  1  0  0  0  0
 16 19  1  0  0  0  0
 17 21  2  0  0  0  0
 17 19  1  0  0  0  0
 18 20  1  0  0  0  0
 19 18  2  0  0  0  0
 20 25  1  0  0  0  0
 21 22  1  0  0  0  0
 22 20  2  0  0  0  0
 24 23  2  0  0  0  0
 25 24  1  0  0  0  0
 26 24  1  0  0  0  0
 27 26  1  0  0  0  0
 27 28  1  0  0  0  0
 27 29  1  0  0  0  0
 30 31  1  0  0  0  0
 31 27  1  0  0  0  0
 32 31  1  0  0  0  0
 33 34  1  0  0  0  0
 33 35  1  0  0  0  0
 34 35  1  0  0  0  0
 35 31  1  0  0  0  0
 36 43  1  0  0  0  0
 36  1  1  0  0  0  0
 38 46  1  0  0  0  0
 39 44  1  0  0  0  0
 39 38  2  0  0  0  0
 41 37  2  0  0  0  0
 41 40  2  0  0  0  0
 42 41  1  0  0  0  0
 44 47  1  6  0  0  0
 44 42  1  0  0  0  0
 45 39  1  0  0  0  0
 46 41  1  0  0  0  0
 46 43  2  0  0  0  0
 47 50  1  0  0  0  0
 48 49  2  0  0  0  0
 49 50  1  0  0  0  0
 49 60  1  0  0  0  0
 51 58  1  0  0  0  0
 53 51  1  0  0  0  0
 54 59  1  0  0  0  0
 55 60  1  0  0  0  0
 55 51  2  0  0  0  0
 56 57  1  0  0  0  0
 56 54  1  0  0  0  0
 58 54  2  0  0  0  0
 58 52  1  0  0  0  0
 60 56  2  0  0  0  0
M  END
>  <MODEL>
4

>  <REMARK>
 VINA RESULT:      -8.3      2.999      8.402
  Name = 
  15 active torsions:
  status: ('A' for Active; 'I' for Inactive)
    1  A    between atoms: C_2  and  C_14
    2  A    between atoms: C_2  and  C_54
    3  A    between atoms: C_7  and  C_13
    4  A    between atoms: C_8  and  N_32
    5  A    between atoms: C_13  and  C_36
    6  A    between atoms: C_14  and  C_15
    7  A    between atoms: C_18  and  N_45
    8  A    between atoms: C_21  and  N_51
    9  A    between atoms: C_29  and  C_57
   10  A    between atoms: C_31  and  C_50
   11  A    between atoms: N_34  and  C_35
   12  A    between atoms: N_38  and  N_44
   13  A    between atoms: N_38  and  C_47
   14  A    between atoms: N_45  and  N_53
   15  A    between atoms: C_54  and  C_59
                            x       y       z     vdW  Elec       q    Type
                         _______ _______ _______ _____ _____    ______ ____

>  <TORSDO>
F 15

$$$$
=
 OpenBabel10232409213D

 60 65  0  0  1  0  0  0  0  0999 V2000
  186.4600  177.8220  143.9340 C   0  0  0  0  0  0  0  0  0  0  0  0
  185.2920  178.2270  143.5240 N   0  0  0  0  0  0  0  0  0  0  0  0
  187.0400  178.3500  145.1370 N   0  0  0  0  0  2  0  0  0  0  0  0
  188.1670  177.8230  145.8480 C   0  0  0  0  0  0  0  0  0  0  0  0
  189.1370  176.5690  147.6890 C   0  0  0  0  0  3  0  0  0  0  0  0
  189.4530  178.1310  145.3930 C   0  0  0  0  0  3  0  0  0  0  0  0
  190.5780  177.6460  146.0690 C   0  0  0  0  0  3  0  0  0  0  0  0
  190.4250  176.8460  147.2090 C   0  0  0  0  0  0  0  0  0  0  0  0
  188.0170  177.0510  147.0090 C   0  0  0  0  0  3  0  0  0  0  0  0
  192.6110  175.7200  146.9680 C   0  0  0  0  0  2  0  0  0  0  0  0
  191.7640  174.8490  147.8650 C   0  0  0  0  0  2  0  0  0  0  0  0
  191.6390  176.3630  147.9450 C   0  0  0  0  0  3  0  0  0  0  0  0
  184.4040  179.1400  144.1910 C   0  0  0  0  0  0  0  0  0  0  0  0
  184.8190  179.9090  145.0950 O   0  0  0  0  0  0  0  0  0  0  0  0
  183.0250  179.1540  143.8390 N   0  0  0  0  0  2  0  0  0  0  0  0
  182.5480  178.3520  142.7950 N   0  0  0  0  0  2  0  0  0  0  0  0
  181.3430  179.1860  140.8490 C   0  0  0  0  0  3  0  0  0  0  0  0
  183.7400  178.8760  140.7040 C   0  0  0  0  0  3  0  0  0  0  0  0
  182.5480  178.7990  141.4400 C   0  0  0  0  0  0  0  0  0  0  0  0
  183.7290  179.3350  139.3820 C   0  0  0  0  0  0  0  0  0  0  0  0
  181.3240  179.6500  139.5320 C   0  0  0  0  0  3  0  0  0  0  0  0
  182.5130  179.7300  138.8040 C   0  0  0  0  0  3  0  0  0  0  0  0
  186.5510  178.7190  137.1240 O   0  0  0  0  0  0  0  0  0  0  0  0
  185.6180  178.4010  137.9070 C   0  0  0  0  0  0  0  0  0  0  0  0
  184.9740  179.4290  138.6730 N   0  0  0  0  0  2  0  0  0  0  0  0
  185.2170  176.9580  138.0160 C   0  0  0  0  0  2  0  0  0  0  0  0
  184.3950  176.4090  136.8320 C   0  0  0  0  0  0  0  0  0  0  0  0
  185.3190  175.6860  135.8570 C   0  0  0  0  0  1  0  0  0  0  0  0
  183.8430  177.6280  136.1050 C   0  0  0  0  0  1  0  0  0  0  0  0
  182.6880  174.8220  136.1690 O   0  0  0  0  0  1  0  0  0  0  0  0
  183.2260  175.4820  137.2850 C   0  0  0  0  0  0  0  0  0  0  0  0
  183.7170  174.5180  138.1710 O   0  0  0  0  0  1  0  0  0  0  0  0
  180.8500  175.5190  138.2530 C   0  0  0  0  0  2  0  0  0  0  0  0
  181.8190  175.7180  139.4000 C   0  0  0  0  0  2  0  0  0  0  0  0
  182.1340  176.2970  138.0360 C   0  0  0  0  0  3  0  0  0  0  0  0
  187.2380  176.8700  143.0670 C   0  0  0  0  0  2  0  0  0  0  0  0
  191.3310  178.8700  142.9330 O   0  0  0  0  0  0  0  0  0  0  0  0
  188.9720  176.9230  140.6610 C   0  0  0  0  0  3  0  0  0  0  0  0
  189.7390  176.7690  139.5740 C   0  0  0  0  0  0  0  0  0  0  0  0
  191.9270  176.4740  142.9570 O   0  0  0  0  0  0  0  0  0  0  0  0
  191.1960  177.5550  142.2090 S   0  0  0  0  0  0  0  0  0  0  0  0
  191.8570  177.7200  140.5700 C   0  0  0  0  0  2  0  0  0  0  0  0
  188.7150  177.1370  143.0970 C   0  0  0  0  0  3  0  0  0  0  0  0
  191.2480  176.6490  139.6710 C   0  0  2  0  0  3  0  0  0  0  0  0
  188.9180  176.5780  138.0350 Cl  0  0  0  0  0  0  0  0  0  0  0  0
  189.5050  177.1370  142.0220 C   0  0  0  0  0  0  0  0  0  0  0  0
  191.8720  176.7140  138.3600 N   0  0  0  0  0  2  0  0  0  0  0  0
  194.1940  176.6170  136.8290 O   0  0  0  0  0  0  0  0  0  0  0  0
  193.8380  175.5570  137.4160 C   0  0  0  0  0  0  0  0  0  0  0  0
  192.6670  175.5660  138.2370 N   0  0  0  0  0  2  0  0  0  0  0  0
  196.8500  173.2820  137.5120 C   0  0  0  0  0  0  0  0  0  0  0  0
  197.1670  170.8340  137.0980 C   0  0  0  0  0  1  0  0  0  0  0  0
  198.1690  173.3960  137.7990 F   0  0  0  0  0  0  0  0  0  0  0  0
  194.9340  171.9490  136.8620 C   0  0  0  0  0  0  0  0  0  0  0  0
  196.0350  174.4140  137.5770 C   0  0  0  0  0  3  0  0  0  0  0  0
  194.1140  173.0810  136.9370 C   0  0  0  0  0  0  0  0  0  0  0  0
  192.7940  172.9510  136.6450 F   0  0  0  0  0  0  0  0  0  0  0  0
  196.3020  172.0470  137.1540 C   0  0  0  0  0  0  0  0  0  0  0  0
  194.3940  170.7570  136.5050 F   0  0  0  0  0  0  0  0  0  0  0  0
  194.6640  174.3320  137.2980 C   0  0  0  0  0  0  0  0  0  0  0  0
  1  3  1  0  0  0  0
  2  1  2  0  0  0  0
  2 13  1  0  0  0  0
  3  4  1  0  0  0  0
  4  9  1  0  0  0  0
  6  4  2  0  0  0  0
  6  7  1  0  0  0  0
  7  8  2  0  0  0  0
  8  5  1  0  0  0  0
  8 12  1  0  0  0  0
  9  5  2  0  0  0  0
 10 11  1  0  0  0  0
 10 12  1  0  0  0  0
 11 12  1  0  0  0  0
 13 14  2  0  0  0  0
 15 13  1  0  0  0  0
 16 15  1  0  0  0  0
 17 19  1  0  0  0  0
 18 19  2  0  0  0  0
 19 16  1  0  0  0  0
 20 18  1  0  0  0  0
 21 17  2  0  0  0  0
 22 20  2  0  0  0  0
 22 21  1  0  0  0  0
 23 24  2  0  0  0  0
 24 26  1  0  0  0  0
 24 25  1  0  0  0  0
 25 20  1  0  0  0  0
 27 31  1  0  0  0  0
 27 26  1  0  0  0  0
 28 27  1  0  0  0  0
 29 27  1  0  0  0  0
 30 31  1  0  0  0  0
 31 35  1  0  0  0  0
 31 32  1  0  0  0  0
 33 34  1  0  0  0  0
 35 33  1  0  0  0  0
 35 34  1  0  0  0  0
 36 43  1  0  0  0  0
 36  1  1  0  0  0  0
 38 46  1  0  0  0  0
 39 44  1  0  0  0  0
 39 38  2  0  0  0  0
 41 37  2  0  0  0  0
 41 40  2  0  0  0  0
 42 41  1  0  0  0  0
 44 47  1  6  0  0  0
 44 42  1  0  0  0  0
 45 39  1  0  0  0  0
 46 41  1  0  0  0  0
 46 43  2  0  0  0  0
 48 49  2  0  0  0  0
 49 50  1  0  0  0  0
 50 47  1  0  0  0  0
 51 55  1  0  0  0  0
 51 53  1  0  0  0  0
 52 58  1  0  0  0  0
 54 56  2  0  0  0  0
 54 58  1  0  0  0  0
 56 60  1  0  0  0  0
 57 56  1  0  0  0  0
 58 51  2  0  0  0  0
 59 54  1  0  0  0  0
 60 49  1  0  0  0  0
 60 55  2  0  0  0  0
M  END
>  <MODEL>
5

>  <REMARK>
 VINA RESULT:      -7.3      2.649      4.324
  Name = 
  15 active torsions:
  status: ('A' for Active; 'I' for Inactive)
    1  A    between atoms: C_2  and  C_14
    2  A    between atoms: C_2  and  C_54
    3  A    between atoms: C_7  and  C_13
    4  A    between atoms: C_8  and  N_32
    5  A    between atoms: C_13  and  C_36
    6  A    between atoms: C_14  and  C_15
    7  A    between atoms: C_18  and  N_45
    8  A    between atoms: C_21  and  N_51
    9  A    between atoms: C_29  and  C_57
   10  A    between atoms: C_31  and  C_50
   11  A    between atoms: N_34  and  C_35
   12  A    between atoms: N_38  and  N_44
   13  A    between atoms: N_38  and  C_47
   14  A    between atoms: N_45  and  N_53
   15  A    between atoms: C_54  and  C_59
                            x       y       z     vdW  Elec       q    Type
                         _______ _______ _______ _____ _____    ______ ____

>  <TORSDO>
F 15

$$$$
=
 OpenBabel10232409213D

 60 65  0  0  1  0  0  0  0  0999 V2000
  186.5840  178.3930  140.7260 C   0  0  0  0  0  0  0  0  0  0  0  0
  185.9020  178.5780  139.6320 N   0  0  0  0  0  0  0  0  0  0  0  0
  185.9790  178.6020  142.0120 N   0  0  0  0  0  2  0  0  0  0  0  0
  186.5020  178.1920  143.2810 C   0  0  0  0  0  0  0  0  0  0  0  0
  186.4890  178.2280  145.7110 C   0  0  0  0  0  3  0  0  0  0  0  0
  187.6330  177.3690  143.3090 C   0  0  0  0  0  3  0  0  0  0  0  0
  188.1790  176.9590  144.5300 C   0  0  0  0  0  3  0  0  0  0  0  0
  187.5980  177.3710  145.7370 C   0  0  0  0  0  0  0  0  0  0  0  0
  185.9430  178.6310  144.4910 C   0  0  0  0  0  3  0  0  0  0  0  0
  188.4470  178.1760  147.9140 C   0  0  0  0  0  2  0  0  0  0  0  0
  189.6120  177.5360  147.1960 C   0  0  0  0  0  2  0  0  0  0  0  0
  188.2160  176.9540  147.0390 C   0  0  0  0  0  3  0  0  0  0  0  0
  184.5090  178.9150  139.5210 C   0  0  0  0  0  0  0  0  0  0  0  0
  184.0030  179.8310  140.2180 O   0  0  0  0  0  0  0  0  0  0  0  0
  183.6820  178.1800  138.6250 N   0  0  0  0  0  0  0  0  0  0  0  0
  184.2310  177.1960  137.7940 N   0  0  0  0  0  0  0  0  0  0  0  0
  183.0900  177.2770  135.6430 C   0  0  0  0  0  3  0  0  0  0  0  0
  183.1040  175.2020  136.8910 C   0  0  0  0  0  3  0  0  0  0  0  0
  183.4650  176.5530  136.7780 C   0  0  0  0  0  0  0  0  0  0  0  0
  182.3690  174.5760  135.8780 C   0  0  0  0  0  0  0  0  0  0  0  0
  182.3610  176.6600  134.6250 C   0  0  0  0  0  3  0  0  0  0  0  0
  182.0070  175.3130  134.7390 C   0  0  0  0  0  3  0  0  0  0  0  0
  182.3380  171.0510  136.8840 O   0  0  0  0  0  0  0  0  0  0  0  0
  182.8660  172.1530  136.5820 C   0  0  0  0  0  0  0  0  0  0  0  0
  182.0450  173.1840  136.0170 N   0  0  0  0  0  2  0  0  0  0  0  0
  184.3370  172.3460  136.8190 C   0  0  0  0  0  2  0  0  0  0  0  0
  185.2470  172.0170  135.6200 C   0  0  0  0  0  0  0  0  0  0  0  0
  184.6570  172.6160  134.3460 C   0  0  0  0  0  1  0  0  0  0  0  0
  185.2040  170.5030  135.4640 C   0  0  0  0  0  1  0  0  0  0  0  0
  186.9840  173.5890  134.9960 O   0  0  0  0  0  1  0  0  0  0  0  0
  186.7190  172.4910  135.8290 C   0  0  0  0  0  0  0  0  0  0  0  0
  186.8890  172.8950  137.1570 O   0  0  0  0  0  1  0  0  0  0  0  0
  188.6150  171.5750  134.3620 C   0  0  0  0  0  2  0  0  0  0  0  0
  189.1580  171.7470  135.7650 C   0  0  0  0  0  2  0  0  0  0  0  0
  187.7160  171.3280  135.5600 C   0  0  0  0  0  3  0  0  0  0  0  0
  188.0460  178.0600  140.6160 C   0  0  0  0  0  2  0  0  0  0  0  0
  188.9860  175.0110  137.3610 O   0  0  0  0  0  0  0  0  0  0  0  0
  190.7980  177.3030  139.8070 C   0  0  0  0  0  3  0  0  0  0  0  0
  192.0670  177.1350  139.4150 C   0  0  0  0  0  0  0  0  0  0  0  0
  189.5540  177.1430  136.2530 O   0  0  0  0  0  0  0  0  0  0  0  0
  189.8610  176.2360  137.4130 S   0  0  0  0  0  0  0  0  0  0  0  0
  191.5650  175.7400  137.3700 C   0  0  0  0  0  2  0  0  0  0  0  0
  188.3910  177.4020  139.3110 C   0  0  0  0  0  3  0  0  0  0  0  0
  192.4270  176.8460  137.9700 C   0  0  2  0  0  3  0  0  0  0  0  0
  193.3180  177.3950  140.6190 Cl  0  0  0  0  0  0  0  0  0  0  0  0
  189.6300  177.0820  138.9300 C   0  0  0  0  0  0  0  0  0  0  0  0
  193.8280  176.4860  137.8320 N   0  0  0  0  0  2  0  0  0  0  0  0
  195.9560  175.1160  136.6740 O   0  0  0  0  0  0  0  0  0  0  0  0
  194.9790  174.4330  137.0880 C   0  0  0  0  0  0  0  0  0  0  0  0
  193.8750  175.0910  137.7170 N   0  0  0  0  0  2  0  0  0  0  0  0
  193.8720  170.9090  136.3070 C   0  0  0  0  0  0  0  0  0  0  0  0
  194.9890  168.6760  136.4910 C   0  0  0  0  0  1  0  0  0  0  0  0
  192.7700  170.3060  135.8000 F   0  0  0  0  0  0  0  0  0  0  0  0
  196.1230  170.7990  137.1930 C   0  0  0  0  0  0  0  0  0  0  0  0
  193.8820  172.2950  136.4640 C   0  0  0  0  0  3  0  0  0  0  0  0
  196.1390  172.1910  137.3410 C   0  0  0  0  0  0  0  0  0  0  0  0
  197.2510  172.7800  137.8520 F   0  0  0  0  0  0  0  0  0  0  0  0
  194.9920  170.1560  136.6710 C   0  0  0  0  0  0  0  0  0  0  0  0
  197.2130  170.0780  137.5580 F   0  0  0  0  0  0  0  0  0  0  0  0
  195.0080  172.9550  136.9750 C   0  0  0  0  0  0  0  0  0  0  0  0
  1  3  1  0  0  0  0
  2  1  2  0  0  0  0
  3  4  1  0  0  0  0
  4  6  2  0  0  0  0
  4  9  1  0  0  0  0
  5  8  1  0  0  0  0
  6  7  1  0  0  0  0
  7  8  2  0  0  0  0
  8 12  1  0  0  0  0
  9  5  2  0  0  0  0
 11 10  1  0  0  0  0
 12 11  1  0  0  0  0
 12 10  1  0  0  0  0
 13  2  1  0  0  0  0
 13 14  2  0  0  0  0
 15 13  1  0  0  0  0
 16 15  2  0  0  0  0
 17 19  1  0  0  0  0
 19 18  2  0  0  0  0
 19 16  1  0  0  0  0
 20 25  1  0  0  0  0
 20 18  1  0  0  0  0
 21 22  1  0  0  0  0
 21 17  2  0  0  0  0
 22 20  2  0  0  0  0
 24 26  1  0  0  0  0
 24 23  2  0  0  0  0
 25 24  1  0  0  0  0
 27 31  1  0  0  0  0
 27 26  1  0  0  0  0
 28 27  1  0  0  0  0
 29 27  1  0  0  0  0
 30 31  1  0  0  0  0
 31 32  1  0  0  0  0
 33 35  1  0  0  0  0
 33 34  1  0  0  0  0
 35 34  1  0  0  0  0
 35 31  1  0  0  0  0
 36  1  1  0  0  0  0
 37 41  2  0  0  0  0
 39 38  2  0  0  0  0
 39 45  1  0  0  0  0
 40 41  2  0  0  0  0
 41 46  1  0  0  0  0
 42 41  1  0  0  0  0
 42 44  1  0  0  0  0
 43 36  1  0  0  0  0
 44 47  1  1  0  0  0
 44 39  1  0  0  0  0
 46 43  2  0  0  0  0
 46 38  1  0  0  0  0
 48 49  2  0  0  0  0
 49 50  1  0  0  0  0
 50 47  1  0  0  0  0
 51 55  2  0  0  0  0
 51 58  1  0  0  0  0
 52 58  1  0  0  0  0
 53 51  1  0  0  0  0
 54 56  1  0  0  0  0
 54 59  1  0  0  0  0
 55 60  1  0  0  0  0
 56 57  1  0  0  0  0
 58 54  2  0  0  0  0
 60 49  1  0  0  0  0
 60 56  2  0  0  0  0
M  END
>  <MODEL>
6

>  <REMARK>
 VINA RESULT:      -7.2      1.709      2.416
  Name = 
  15 active torsions:
  status: ('A' for Active; 'I' for Inactive)
    1  A    between atoms: C_2  and  C_14
    2  A    between atoms: C_2  and  C_54
    3  A    between atoms: C_7  and  C_13
    4  A    between atoms: C_8  and  N_32
    5  A    between atoms: C_13  and  C_36
    6  A    between atoms: C_14  and  C_15
    7  A    between atoms: C_18  and  N_45
    8  A    between atoms: C_21  and  N_51
    9  A    between atoms: C_29  and  C_57
   10  A    between atoms: C_31  and  C_50
   11  A    between atoms: N_34  and  C_35
   12  A    between atoms: N_38  and  N_44
   13  A    between atoms: N_38  and  C_47
   14  A    between atoms: N_45  and  N_53
   15  A    between atoms: C_54  and  C_59
                            x       y       z     vdW  Elec       q    Type
                         _______ _______ _______ _____ _____    ______ ____

>  <TORSDO>
F 15

$$$$
=
 OpenBabel10232409213D

 60 65  0  0  1  0  0  0  0  0999 V2000
  187.6390  178.2930  141.5760 C   0  0  0  0  0  0  0  0  0  0  0  0
  186.5320  178.5650  140.9480 N   0  0  0  0  0  0  0  0  0  0  0  0
  187.7310  178.4430  143.0020 N   0  0  0  0  0  2  0  0  0  0  0  0
  188.7690  177.9400  143.8510 C   0  0  0  0  0  0  0  0  0  0  0  0
  189.5360  176.5820  145.7150 C   0  0  0  0  0  3  0  0  0  0  0  0
  190.0760  178.4030  143.6640 C   0  0  0  0  0  3  0  0  0  0  0  0
  191.1130  177.9450  144.4820 C   0  0  0  0  0  3  0  0  0  0  0  0
  190.8520  177.0170  145.5000 C   0  0  0  0  0  0  0  0  0  0  0  0
  188.5040  177.0380  144.8920 C   0  0  0  0  0  3  0  0  0  0  0  0
  191.4310  175.5810  147.4250 C   0  0  0  0  0  2  0  0  0  0  0  0
  191.7350  177.0050  147.8300 C   0  0  0  0  0  2  0  0  0  0  0  0
  191.9670  176.5620  146.3940 C   0  0  0  0  0  3  0  0  0  0  0  0
  185.2750  178.9540  141.5270 C   0  0  0  0  0  0  0  0  0  0  0  0
  185.2270  179.6010  142.6040 O   0  0  0  0  0  0  0  0  0  0  0  0
  184.0630  178.5750  140.8840 N   0  0  0  0  0  0  0  0  0  0  0  0
  184.0880  177.9080  139.6530 N   0  0  0  0  0  0  0  0  0  0  0  0
  182.1270  178.5690  138.3690 C   0  0  0  0  0  3  0  0  0  0  0  0
  182.4890  176.2220  138.8390 C   0  0  0  0  0  3  0  0  0  0  0  0
  182.8930  177.5600  138.9580 C   0  0  0  0  0  0  0  0  0  0  0  0
  181.3240  175.8920  138.1370 C   0  0  0  0  0  0  0  0  0  0  0  0
  180.9660  178.2490  137.6630 C   0  0  0  0  0  3  0  0  0  0  0  0
  180.5700  176.9140  137.5420 C   0  0  0  0  0  3  0  0  0  0  0  0
  181.3190  172.3080  137.3620 O   0  0  0  0  0  0  0  0  0  0  0  0
  181.5620  173.5260  137.1560 C   0  0  0  0  0  0  0  0  0  0  0  0
  180.9610  174.5080  138.0110 N   0  0  0  0  0  2  0  0  0  0  0  0
  182.4650  173.9070  136.0180 C   0  0  0  0  0  2  0  0  0  0  0  0
  183.9250  173.4300  136.1460 C   0  0  0  0  0  0  0  0  0  0  0  0
  184.3100  173.3420  137.6200 C   0  0  0  0  0  1  0  0  0  0  0  0
  184.7800  174.5280  135.5250 C   0  0  0  0  0  1  0  0  0  0  0  0
  184.1180  171.0220  136.3440 O   0  0  0  0  0  1  0  0  0  0  0  0
  184.1860  172.0750  135.4190 C   0  0  0  0  0  0  0  0  0  0  0  0
  183.1970  171.8730  134.4500 O   0  0  0  0  0  1  0  0  0  0  0  0
  186.6760  171.4610  135.4980 C   0  0  0  0  0  2  0  0  0  0  0  0
  186.0500  170.7040  134.3460 C   0  0  0  0  0  2  0  0  0  0  0  0
  185.5600  172.0950  134.6900 C   0  0  0  0  0  3  0  0  0  0  0  0
  188.8530  177.9190  140.7690 C   0  0  0  0  0  2  0  0  0  0  0  0
  187.7620  175.2000  137.2780 O   0  0  0  0  0  0  0  0  0  0  0  0
  190.8280  176.8380  138.8390 C   0  0  0  0  0  3  0  0  0  0  0  0
  191.7690  176.5190  137.9410 C   0  0  0  0  0  0  0  0  0  0  0  0
  188.2470  177.3360  136.1380 O   0  0  0  0  0  0  0  0  0  0  0  0
  188.8090  176.2510  137.0160 S   0  0  0  0  0  0  0  0  0  0  0  0
  190.2130  175.4970  136.2340 C   0  0  0  0  0  2  0  0  0  0  0  0
  188.5000  177.3870  139.4110 C   0  0  0  0  0  3  0  0  0  0  0  0
  191.4460  176.3630  136.4670 C   0  0  2  0  0  3  0  0  0  0  0  0
  193.4240  176.4180  138.5150 Cl  0  0  0  0  0  0  0  0  0  0  0  0
  189.3870  176.9230  138.5280 C   0  0  0  0  0  0  0  0  0  0  0  0
  192.5680  175.8030  135.7330 N   0  0  0  0  0  2  0  0  0  0  0  0
  194.6110  174.1090  134.8930 O   0  0  0  0  0  0  0  0  0  0  0  0
  193.6870  173.6070  135.5920 C   0  0  0  0  0  0  0  0  0  0  0  0
  192.6310  174.4440  136.0710 N   0  0  0  0  0  2  0  0  0  0  0  0
  192.9370  169.9060  135.5600 C   0  0  0  0  0  0  0  0  0  0  0  0
  193.8390  167.9600  136.8490 C   0  0  0  0  0  1  0  0  0  0  0  0
  192.1300  169.0650  134.8700 F   0  0  0  0  0  0  0  0  0  0  0  0
  194.6220  170.3070  137.2530 C   0  0  0  0  0  0  0  0  0  0  0  0
  192.9060  171.2720  135.2740 C   0  0  0  0  0  3  0  0  0  0  0  0
  194.6000  171.6750  136.9600 C   0  0  0  0  0  0  0  0  0  0  0  0
  195.4140  172.5060  137.6620 F   0  0  0  0  0  0  0  0  0  0  0  0
  193.7940  169.4190  136.5500 C   0  0  0  0  0  0  0  0  0  0  0  0
  195.4520  169.8460  138.2230 F   0  0  0  0  0  0  0  0  0  0  0  0
  193.7340  172.1720  135.9600 C   0  0  0  0  0  0  0  0  0  0  0  0
  1  3  1  0  0  0  0
  2 13  1  0  0  0  0
  2  1  2  0  0  0  0
  3  4  1  0  0  0  0
  4  9  1  0  0  0  0
  6  4  2  0  0  0  0
  6  7  1  0  0  0  0
  7  8  2  0  0  0  0
  8  5  1  0  0  0  0
  8 12  1  0  0  0  0
  9  5  2  0  0  0  0
 10 11  1  0  0  0  0
 12 10  1  0  0  0  0
 12 11  1  0  0  0  0
 13 14  2  0  0  0  0
 15 13  1  0  0  0  0
 16 15  2  0  0  0  0
 17 19  1  0  0  0  0
 18 19  2  0  0  0  0
 19 16  1  0  0  0  0
 20 18  1  0  0  0  0
 21 17  2  0  0  0  0
 22 21  1  0  0  0  0
 22 20  2  0  0  0  0
 24 23  2  0  0  0  0
 24 25  1  0  0  0  0
 25 20  1  0  0  0  0
 26 27  1  0  0  0  0
 26 24  1  0  0  0  0
 27 28  1  0  0  0  0
 29 27  1  0  0  0  0
 31 27  1  0  0  0  0
 31 30  1  0  0  0  0
 32 31  1  0  0  0  0
 34 35  1  0  0  0  0
 34 33  1  0  0  0  0
 35 31  1  0  0  0  0
 35 33  1  0  0  0  0
 36  1  1  0  0  0  0
 39 45  1  0  0  0  0
 39 38  2  0  0  0  0
 40 41  2  0  0  0  0
 41 37  2  0  0  0  0
 41 46  1  0  0  0  0
 42 44  1  0  0  0  0
 42 41  1  0  0  0  0
 43 36  1  0  0  0  0
 44 47  1  6  0  0  0
 44 39  1  0  0  0  0
 46 38  1  0  0  0  0
 46 43  2  0  0  0  0
 47 50  1  0  0  0  0
 48 49  2  0  0  0  0
 49 60  1  0  0  0  0
 49 50  1  0  0  0  0
 51 58  1  0  0  0  0
 53 51  1  0  0  0  0
 54 59  1  0  0  0  0
 55 51  2  0  0  0  0
 55 60  1  0  0  0  0
 56 54  1  0  0  0  0
 56 57  1  0  0  0  0
 58 52  1  0  0  0  0
 58 54  2  0  0  0  0
 60 56  2  0  0  0  0
M  END
>  <MODEL>
7

>  <REMARK>
 VINA RESULT:      -7.1      2.248      3.049
  Name = 
  15 active torsions:
  status: ('A' for Active; 'I' for Inactive)
    1  A    between atoms: C_2  and  C_14
    2  A    between atoms: C_2  and  C_54
    3  A    between atoms: C_7  and  C_13
    4  A    between atoms: C_8  and  N_32
    5  A    between atoms: C_13  and  C_36
    6  A    between atoms: C_14  and  C_15
    7  A    between atoms: C_18  and  N_45
    8  A    between atoms: C_21  and  N_51
    9  A    between atoms: C_29  and  C_57
   10  A    between atoms: C_31  and  C_50
   11  A    between atoms: N_34  and  C_35
   12  A    between atoms: N_38  and  N_44
   13  A    between atoms: N_38  and  C_47
   14  A    between atoms: N_45  and  N_53
   15  A    between atoms: C_54  and  C_59
                            x       y       z     vdW  Elec       q    Type
                         _______ _______ _______ _____ _____    ______ ____

>  <TORSDO>
F 15

$$$$
=
 OpenBabel10232409213D

 60 65  0  0  1  0  0  0  0  0999 V2000
  187.2600  178.0460  142.2160 C   0  0  0  0  0  0  0  0  0  0  0  0
  186.0840  178.2180  141.6820 N   0  0  0  0  0  0  0  0  0  0  0  0
  187.4670  178.2600  143.6200 N   0  0  0  0  0  2  0  0  0  0  0  0
  188.6100  177.8640  144.3880 C   0  0  0  0  0  0  0  0  0  0  0  0
  191.0060  177.5520  144.6480 C   0  0  0  0  0  3  0  0  0  0  0  0
  188.4110  177.3150  145.6590 C   0  0  0  0  0  3  0  0  0  0  0  0
  189.5020  176.9050  146.4320 C   0  0  0  0  0  3  0  0  0  0  0  0
  190.8070  177.0390  145.9380 C   0  0  0  0  0  0  0  0  0  0  0  0
  189.9150  177.9650  143.8820 C   0  0  0  0  0  3  0  0  0  0  0  0
  192.3500  175.1520  146.3410 C   0  0  0  0  0  2  0  0  0  0  0  0
  191.5740  175.3680  147.6200 C   0  0  0  0  0  2  0  0  0  0  0  0
  191.9650  176.5620  146.7630 C   0  0  0  0  0  3  0  0  0  0  0  0
  184.8600  178.5440  142.3610 C   0  0  0  0  0  0  0  0  0  0  0  0
  184.8640  179.2170  143.4240 O   0  0  0  0  0  0  0  0  0  0  0  0
  183.6230  178.0740  141.8350 N   0  0  0  0  0  0  0  0  0  0  0  0
  183.5850  177.3750  140.6220 N   0  0  0  0  0  0  0  0  0  0  0  0
  181.5870  178.2000  139.4990 C   0  0  0  0  0  3  0  0  0  0  0  0
  181.9380  175.8110  139.6720 C   0  0  0  0  0  3  0  0  0  0  0  0
  182.3620  177.1220  139.9350 C   0  0  0  0  0  0  0  0  0  0  0  0
  180.7450  175.5760  138.9800 C   0  0  0  0  0  0  0  0  0  0  0  0
  180.3980  177.9750  138.8030 C   0  0  0  0  0  3  0  0  0  0  0  0
  179.9820  176.6680  138.5390 C   0  0  0  0  0  3  0  0  0  0  0  0
  180.5380  172.1860  137.5980 O   0  0  0  0  0  0  0  0  0  0  0  0
  180.7190  173.4310  137.5600 C   0  0  0  0  0  0  0  0  0  0  0  0
  180.3610  174.2200  138.7030 N   0  0  0  0  0  2  0  0  0  0  0  0
  181.2960  174.0460  136.3170 C   0  0  0  0  0  2  0  0  0  0  0  0
  182.7960  173.7810  136.0840 C   0  0  0  0  0  0  0  0  0  0  0  0
  182.9810  172.9480  134.8180 C   0  0  0  0  0  1  0  0  0  0  0  0
  183.2570  172.9220  137.2550 C   0  0  0  0  0  1  0  0  0  0  0  0
  184.4390  175.0800  134.8650 O   0  0  0  0  0  1  0  0  0  0  0  0
  183.6400  175.0910  136.0180 C   0  0  0  0  0  0  0  0  0  0  0  0
  182.7790  176.1910  135.9460 O   0  0  0  0  0  1  0  0  0  0  0  0
  185.9720  175.5020  137.0040 C   0  0  0  0  0  2  0  0  0  0  0  0
  185.0820  176.6500  137.4310 C   0  0  0  0  0  2  0  0  0  0  0  0
  184.5050  175.2560  137.3000 C   0  0  0  0  0  3  0  0  0  0  0  0
  188.4200  177.7230  141.3140 C   0  0  0  0  0  2  0  0  0  0  0  0
  187.0350  179.1700  137.2200 O   0  0  0  0  0  0  0  0  0  0  0  0
  189.3080  176.5220  138.7510 C   0  0  0  0  0  3  0  0  0  0  0  0
  189.8740  176.0100  137.6510 C   0  0  0  0  0  0  0  0  0  0  0  0
  189.3580  180.0010  137.3040 O   0  0  0  0  0  0  0  0  0  0  0  0
  188.4840  178.7780  137.3450 S   0  0  0  0  0  0  0  0  0  0  0  0
  188.9080  177.6770  136.0180 C   0  0  0  0  0  2  0  0  0  0  0  0
  188.3250  178.4100  139.9830 C   0  0  0  0  0  3  0  0  0  0  0  0
  190.1280  176.8540  136.4170 C   0  0  2  0  0  3  0  0  0  0  0  0
  190.4360  174.3500  137.7380 Cl  0  0  0  0  0  0  0  0  0  0  0  0
  188.7460  177.8860  138.8300 C   0  0  0  0  0  0  0  0  0  0  0  0
  190.5410  176.0350  135.2890 N   0  0  0  0  0  2  0  0  0  0  0  0
  192.1330  173.7850  134.9010 O   0  0  0  0  0  0  0  0  0  0  0  0
  192.7180  174.8900  135.0790 C   0  0  0  0  0  0  0  0  0  0  0  0
  191.9420  176.0790  135.2540 N   0  0  0  0  0  2  0  0  0  0  0  0
  196.3140  173.8150  134.6610 C   0  0  0  0  0  0  0  0  0  0  0  0
  198.4980  175.0270  134.8150 C   0  0  0  0  0  1  0  0  0  0  0  0
  196.9770  172.6760  134.3460 F   0  0  0  0  0  0  0  0  0  0  0  0
  196.3050  176.1690  135.2300 C   0  0  0  0  0  0  0  0  0  0  0  0
  194.9200  173.7960  134.7350 C   0  0  0  0  0  3  0  0  0  0  0  0
  194.9070  176.1540  135.2960 C   0  0  0  0  0  0  0  0  0  0  0  0
  194.2560  177.3040  135.6130 F   0  0  0  0  0  0  0  0  0  0  0  0
  197.0100  175.0010  134.9080 C   0  0  0  0  0  0  0  0  0  0  0  0
  196.9720  177.3240  135.4810 F   0  0  0  0  0  0  0  0  0  0  0  0
  194.1980  174.9570  135.0470 C   0  0  0  0  0  0  0  0  0  0  0  0
  1  3  1  0  0  0  0
  2  1  2  0  0  0  0
  2 13  1  0  0  0  0
  3  4  1  0  0  0  0
  4  6  1  0  0  0  0
  5  8  2  0  0  0  0
  6  7  2  0  0  0  0
  8  7  1  0  0  0  0
  8 12  1  0  0  0  0
  9  4  2  0  0  0  0
  9  5  1  0  0  0  0
 10 12  1  0  0  0  0
 10 11  1  0  0  0  0
 12 11  1  0  0  0  0
 13 14  2  0  0  0  0
 15 13  1  0  0  0  0
 16 15  2  0  0  0  0
 17 19  1  0  0  0  0
 18 19  2  0  0  0  0
 19 16  1  0  0  0  0
 20 18  1  0  0  0  0
 21 17  2  0  0  0  0
 22 21  1  0  0  0  0
 22 20  2  0  0  0  0
 24 23  2  0  0  0  0
 24 25  1  0  0  0  0
 25 20  1  0  0  0  0
 26 24  1  0  0  0  0
 27 26  1  0  0  0  0
 27 29  1  0  0  0  0
 28 27  1  0  0  0  0
 30 31  1  0  0  0  0
 31 27  1  0  0  0  0
 31 35  1  0  0  0  0
 32 31  1  0  0  0  0
 33 35  1  0  0  0  0
 33 34  1  0  0  0  0
 35 34  1  0  0  0  0
 36  1  1  0  0  0  0
 37 41  2  0  0  0  0
 38 46  1  0  0  0  0
 39 45  1  0  0  0  0
 39 38  2  0  0  0  0
 40 41  2  0  0  0  0
 41 46  1  0  0  0  0
 42 44  1  0  0  0  0
 42 41  1  0  0  0  0
 43 36  1  0  0  0  0
 44 47  1  6  0  0  0
 44 39  1  0  0  0  0
 46 43  2  0  0  0  0
 48 49  2  0  0  0  0
 49 50  1  0  0  0  0
 50 47  1  0  0  0  0
 51 55  2  0  0  0  0
 51 58  1  0  0  0  0
 52 58  1  0  0  0  0
 53 51  1  0  0  0  0
 54 56  1  0  0  0  0
 54 59  1  0  0  0  0
 55 60  1  0  0  0  0
 56 57  1  0  0  0  0
 58 54  2  0  0  0  0
 60 49  1  0  0  0  0
 60 56  2  0  0  0  0
M  END
>  <MODEL>
8

>  <REMARK>
 VINA RESULT:      -7.0      2.702      3.541
  Name = 
  15 active torsions:
  status: ('A' for Active; 'I' for Inactive)
    1  A    between atoms: C_2  and  C_14
    2  A    between atoms: C_2  and  C_54
    3  A    between atoms: C_7  and  C_13
    4  A    between atoms: C_8  and  N_32
    5  A    between atoms: C_13  and  C_36
    6  A    between atoms: C_14  and  C_15
    7  A    between atoms: C_18  and  N_45
    8  A    between atoms: C_21  and  N_51
    9  A    between atoms: C_29  and  C_57
   10  A    between atoms: C_31  and  C_50
   11  A    between atoms: N_34  and  C_35
   12  A    between atoms: N_38  and  N_44
   13  A    between atoms: N_38  and  C_47
   14  A    between atoms: N_45  and  N_53
   15  A    between atoms: C_54  and  C_59
                            x       y       z     vdW  Elec       q    Type
                         _______ _______ _______ _____ _____    ______ ____

>  <TORSDO>
F 15

$$$$
=
 OpenBabel10232409213D

 60 65  0  0  1  0  0  0  0  0999 V2000
  192.3930  175.1540  136.9150 C   0  0  0  0  0  0  0  0  0  0  0  0
  192.1050  176.1060  137.7550 N   0  0  0  0  0  0  0  0  0  0  0  0
  193.6230  174.4210  137.0280 N   0  0  0  0  0  2  0  0  0  0  0  0
  193.9550  173.1960  136.3630 C   0  0  0  0  0  0  0  0  0  0  0  0
  194.3000  171.8850  134.3460 C   0  0  0  0  0  3  0  0  0  0  0  0
  194.2030  172.0570  137.1340 C   0  0  0  0  0  3  0  0  0  0  0  0
  194.5180  170.8410  136.5190 C   0  0  0  0  0  3  0  0  0  0  0  0
  194.5870  170.7530  135.1220 C   0  0  0  0  0  0  0  0  0  0  0  0
  193.9910  173.0990  134.9640 C   0  0  0  0  0  3  0  0  0  0  0  0
  195.4780  168.4800  135.5010 C   0  0  0  0  0  2  0  0  0  0  0  0
  196.3820  169.1450  134.4900 C   0  0  0  0  0  2  0  0  0  0  0  0
  194.8890  169.4350  134.4750 C   0  0  0  0  0  3  0  0  0  0  0  0
  192.8660  176.5100  138.9070 C   0  0  0  0  0  0  0  0  0  0  0  0
  194.0670  176.1660  139.0470 O   0  0  0  0  0  0  0  0  0  0  0  0
  192.2380  177.2900  139.9190 N   0  0  0  0  0  2  0  0  0  0  0  0
  190.9210  177.7370  139.7590 N   0  0  0  0  0  2  0  0  0  0  0  0
  190.3380  177.0960  142.0360 C   0  0  0  0  0  3  0  0  0  0  0  0
  188.6230  178.0200  140.5980 C   0  0  0  0  0  3  0  0  0  0  0  0
  189.9510  177.6120  140.7970 C   0  0  0  0  0  0  0  0  0  0  0  0
  187.6850  177.9110  141.6310 C   0  0  0  0  0  0  0  0  0  0  0  0
  189.4100  176.9890  143.0740 C   0  0  0  0  0  3  0  0  0  0  0  0
  188.0900  177.4000  142.8740 C   0  0  0  0  0  3  0  0  0  0  0  0
  184.2910  179.2340  142.0520 O   0  0  0  0  0  0  0  0  0  0  0  0
  185.3130  178.5720  142.3740 C   0  0  0  0  0  0  0  0  0  0  0  0
  186.3440  178.3670  141.3980 N   0  0  0  0  0  2  0  0  0  0  0  0
  185.4120  178.0140  143.7650 C   0  0  0  0  0  2  0  0  0  0  0  0
  184.8750  178.9300  144.8830 C   0  0  0  0  0  0  0  0  0  0  0  0
  183.3520  178.8450  144.9310 C   0  0  0  0  0  1  0  0  0  0  0  0
  185.2310  180.3510  144.4680 C   0  0  0  0  0  1  0  0  0  0  0  0
  185.9450  179.7960  146.8780 O   0  0  0  0  0  1  0  0  0  0  0  0
  185.4960  178.6100  146.2780 C   0  0  0  0  0  0  0  0  0  0  0  0
  184.5160  178.0440  147.1000 O   0  0  0  0  0  1  0  0  0  0  0  0
  188.0260  178.1850  146.3480 C   0  0  0  0  0  2  0  0  0  0  0  0
  187.3890  177.3640  147.4500 C   0  0  0  0  0  2  0  0  0  0  0  0
  186.6510  177.5760  146.1440 C   0  0  0  0  0  3  0  0  0  0  0  0
  191.4610  174.9060  135.7600 C   0  0  0  0  0  2  0  0  0  0  0  0
  188.2400  177.9160  136.9150 O   0  0  0  0  0  0  0  0  0  0  0  0
  188.6600  174.1650  136.3950 C   0  0  0  0  0  3  0  0  0  0  0  0
  187.3930  173.7500  136.5230 C   0  0  0  0  0  0  0  0  0  0  0  0
  187.5780  177.3070  134.6160 O   0  0  0  0  0  0  0  0  0  0  0  0
  187.8190  176.7900  136.0080 S   0  0  0  0  0  0  0  0  0  0  0  0
  186.3420  176.0430  136.6490 C   0  0  0  0  0  2  0  0  0  0  0  0
  190.3080  175.8660  135.7330 C   0  0  0  0  0  3  0  0  0  0  0  0
  186.2220  174.6210  136.1120 C   0  0  2  0  0  3  0  0  0  0  0  0
  187.1420  172.0990  137.0620 Cl  0  0  0  0  0  0  0  0  0  0  0  0
  189.0410  175.5340  135.9920 C   0  0  0  0  0  0  0  0  0  0  0  0
  184.9570  174.0510  136.5470 N   0  0  0  0  0  2  0  0  0  0  0  0
  182.6740  175.5440  135.9930 O   0  0  0  0  0  0  0  0  0  0  0  0
  183.2360  175.7290  137.1090 C   0  0  0  0  0  0  0  0  0  0  0  0
  184.3950  174.9650  137.4500 N   0  0  0  0  0  2  0  0  0  0  0  0
  182.5300  178.9830  138.8910 C   0  0  0  0  0  0  0  0  0  0  0  0
  180.9890  179.6190  140.7580 C   0  0  0  0  0  1  0  0  0  0  0  0
  182.9410  180.2700  138.8020 F   0  0  0  0  0  0  0  0  0  0  0  0
  181.1630  177.2650  139.9140 C   0  0  0  0  0  0  0  0  0  0  0  0
  183.0680  178.0320  138.0220 C   0  0  0  0  0  3  0  0  0  0  0  0
  181.6930  176.3120  139.0370 C   0  0  0  0  0  0  0  0  0  0  0  0
  181.2720  175.0240  139.1390 F   0  0  0  0  0  0  0  0  0  0  0  0
  181.5760  178.6030  139.8390 C   0  0  0  0  0  0  0  0  0  0  0  0
  180.2440  176.8830  140.8360 F   0  0  0  0  0  0  0  0  0  0  0  0
  182.6580  176.6920  138.0770 C   0  0  0  0  0  0  0  0  0  0  0  0
  1  3  1  0  0  0  0
  1  2  2  0  0  0  0
  2 13  1  0  0  0  0
  4  3  1  0  0  0  0
  4  6  1  0  0  0  0
  5  9  1  0  0  0  0
  5  8  2  0  0  0  0
  7  6  2  0  0  0  0
  8  7  1  0  0  0  0
  9  4  2  0  0  0  0
 11 10  1  0  0  0  0
 12 11  1  0  0  0  0
 12  8  1  0  0  0  0
 12 10  1  0  0  0  0
 13 14  2  0  0  0  0
 13 15  1  0  0  0  0
 16 15  1  0  0  0  0
 16 19  1  0  0  0  0
 17 21  1  0  0  0  0
 18 19  1  0  0  0  0
 18 20  2  0  0  0  0
 19 17  2  0  0  0  0
 20 22  1  0  0  0  0
 22 21  2  0  0  0  0
 23 24  2  0  0  0  0
 24 26  1  0  0  0  0
 25 20  1  0  0  0  0
 25 24  1  0  0  0  0
 26 27  1  0  0  0  0
 27 28  1  0  0  0  0
 27 31  1  0  0  0  0
 29 27  1  0  0  0  0
 31 30  1  0  0  0  0
 31 32  1  0  0  0  0
 33 34  1  0  0  0  0
 35 31  1  0  0  0  0
 35 33  1  0  0  0  0
 35 34  1  0  0  0  0
 36  1  1  0  0  0  0
 38 39  2  0  0  0  0
 39 45  1  0  0  0  0
 40 41  2  0  0  0  0
 41 42  1  0  0  0  0
 41 37  2  0  0  0  0
 43 36  1  0  0  0  0
 43 46  2  0  0  0  0
 44 39  1  0  0  0  0
 44 47  1  1  0  0  0
 44 42  1  0  0  0  0
 46 41  1  0  0  0  0
 46 38  1  0  0  0  0
 47 50  1  0  0  0  0
 48 49  2  0  0  0  0
 49 50  1  0  0  0  0
 49 60  1  0  0  0  0
 51 58  1  0  0  0  0
 53 51  1  0  0  0  0
 54 59  1  0  0  0  0
 55 60  1  0  0  0  0
 55 51  2  0  0  0  0
 56 57  1  0  0  0  0
 56 54  1  0  0  0  0
 58 54  2  0  0  0  0
 58 52  1  0  0  0  0
 60 56  2  0  0  0  0
M  END
>  <MODEL>
9

>  <REMARK>
 VINA RESULT:      -6.9      3.564     11.055
  Name = 
  15 active torsions:
  status: ('A' for Active; 'I' for Inactive)
    1  A    between atoms: C_2  and  C_14
    2  A    between atoms: C_2  and  C_54
    3  A    between atoms: C_7  and  C_13
    4  A    between atoms: C_8  and  N_32
    5  A    between atoms: C_13  and  C_36
    6  A    between atoms: C_14  and  C_15
    7  A    between atoms: C_18  and  N_45
    8  A    between atoms: C_21  and  N_51
    9  A    between atoms: C_29  and  C_57
   10  A    between atoms: C_31  and  C_50
   11  A    between atoms: N_34  and  C_35
   12  A    between atoms: N_38  and  N_44
   13  A    between atoms: N_38  and  C_47
   14  A    between atoms: N_45  and  N_53
   15  A    between atoms: C_54  and  C_59
                            x       y       z     vdW  Elec       q    Type
                         _______ _______ _______ _____ _____    ______ ____

>  <TORSDO>
F 15

$$$$
