=
 OpenBabel10232409283D

 53 55  0  0  1  0  0  0  0  0999 V2000
  190.5090  176.1410  142.1400 C   0  0  0  0  0  2  0  0  0  0  0  0
  189.8000  176.7890  135.6980 N   0  0  0  0  0  2  0  0  0  0  0  0
  189.6170  178.2450  143.9970 C   0  0  0  0  0  3  0  0  0  0  0  0
  188.5620  178.3410  137.0790 C   0  0  0  0  0  0  0  0  0  0  0  0
  191.8910  175.4780  143.9600 O   0  0  0  0  0  0  0  0  0  0  0  0
  191.3120  176.2640  138.2830 C   0  0  0  0  0  3  0  0  0  0  0  0
  187.7690  178.7850  136.2070 O   0  0  0  0  0  0  0  0  0  0  0  0
  188.9650  178.1600  142.6450 C   0  0  1  0  0  3  0  0  0  0  0  0
  190.5400  177.3760  144.4230 C   0  0  0  0  0  0  0  0  0  0  0  0
  189.6980  177.4790  136.7870 C   0  0  0  0  0  0  0  0  0  0  0  0
  191.0330  176.2980  143.5370 C   0  0  0  0  0  0  0  0  0  0  0  0
  190.2890  177.0980  138.0670 C   0  0  0  0  0  0  0  0  0  0  0  0
  188.4210  178.6090  138.5420 C   0  0  0  0  0  2  0  0  0  0  0  0
  189.6890  177.5960  140.3970 C   0  0  0  0  0  0  0  0  0  0  0  0
  189.5430  177.8000  139.1150 C   0  0  0  0  0  0  0  0  0  0  0  0
  189.8190  177.3860  141.6770 C   0  0  0  0  0  0  0  0  0  0  0  0
  192.4900  173.6170  136.0250 C   0  0  1  0  0  3  0  0  0  0  0  0
  193.6550  173.9910  136.9220 C   0  0  2  0  0  3  0  0  0  0  0  0
  192.0740  175.5790  137.1910 C   0  0  1  0  0  3  0  0  0  0  0  0
  193.3380  175.1590  137.6480 O   0  0  0  0  0  0  0  0  0  0  0  0
  190.7190  173.6450  137.6200 O   0  0  0  0  0  1  0  0  0  0  0  0
  192.2700  172.2370  136.0530 O   0  0  0  0  0  1  0  0  0  0  0  0
  191.3400  174.3880  136.6070 C   0  0  2  0  0  3  0  0  0  0  0  0
  196.0590  173.4430  136.4500 C   0  0  0  0  0  3  0  0  0  0  0  0
  197.1110  173.5940  135.7740 O   0  0  0  0  0  0  0  0  0  0  0  0
  194.8730  174.1910  136.1450 N   0  0  0  0  0  0  0  0  0  0  0  0
  194.8320  175.0860  134.9980 C   0  0  0  0  0  2  0  0  0  0  0  0
  195.7400  176.2860  135.2250 C   0  0  0  0  0  2  0  0  0  0  0  0
  195.0250  177.3170  135.8360 O   0  0  0  0  0  1  0  0  0  0  0  0
  186.5500  178.2850  143.0830 C   0  0  0  0  0  3  0  0  0  0  0  0
  187.6110  177.5350  142.7840 C   0  0  0  0  0  3  0  0  0  0  0  0
  185.2010  177.6610  143.2210 C   0  0  0  0  0  2  0  0  0  0  0  0
  184.2550  178.2110  142.1650 C   0  0  0  0  0  2  0  0  0  0  0  0
  180.6880  179.5430  142.9390 C   0  0  0  0  0  1  0  0  0  0  0  0
  183.1140  178.9480  142.7990 C   0  0  0  0  0  0  0  0  0  0  0  0
  181.7930  178.8970  142.2380 N   0  0  0  0  0  0  0  0  0  0  0  0
  183.3290  179.5980  143.8570 O   0  0  0  0  0  0  0  0  0  0  0  0
  180.1580  177.6290  140.8830 C   0  0  0  0  0  1  0  0  0  0  0  0
  181.5600  178.2180  140.9610 C   0  0  1  0  0  3  0  0  0  0  0  0
  181.9030  179.1110  139.7640 C   0  0  0  0  0  2  0  0  0  0  0  0
  184.6380  179.9840  139.2910 O   0  0  0  0  0  1  0  0  0  0  0  0
  184.8960  178.2150  137.8540 O   0  0  0  0  0  0  0  0  0  0  0  0
  182.7940  178.4410  138.8240 N   0  0  0  0  0  2  0  0  0  0  0  0
  184.1470  178.8600  138.6330 C   0  0  0  0  0  0  0  0  0  0  0  0
  191.0780  177.5250  145.8110 C   0  0  0  0  0  2  0  0  0  0  0  0
  190.1430  176.8780  146.8300 C   0  0  1  0  0  3  0  0  0  0  0  0
  192.3280  175.7870  147.5030 C   0  0  0  0  0  1  0  0  0  0  0  0
  190.8110  175.6810  147.5070 C   0  0  0  0  0  2  0  0  0  0  0  0
  189.6520  177.8940  147.8570 C   0  0  0  0  0  2  0  0  0  0  0  0
  188.1690  177.6990  148.1510 C   0  0  0  0  0  2  0  0  0  0  0  0
  187.3770  177.3900  146.8890 C   0  0  0  0  0  2  0  0  0  0  0  0
  185.6800  178.9600  147.4450 O   0  0  0  0  0  1  0  0  0  0  0  0
  186.5840  178.6070  146.4450 C   0  0  0  0  0  2  0  0  0  0  0  0
  1 11  1  0  0  0  0
  2 10  2  0  0  0  0
  3  9  2  0  0  0  0
  4 13  1  0  0  0  0
  7  4  2  0  0  0  0
  8 31  1  1  0  0  0
  8  3  1  0  0  0  0
  9 45  1  0  0  0  0
 10  4  1  0  0  0  0
 10 12  1  0  0  0  0
 11  5  2  0  0  0  0
 11  9  1  0  0  0  0
 12  6  2  0  0  0  0
 12 15  1  0  0  0  0
 13 15  1  0  0  0  0
 14 16  2  0  0  0  0
 15 14  2  0  0  0  0
 16  1  1  0  0  0  0
 16  8  1  0  0  0  0
 17 22  1  1  0  0  0
 17 23  1  0  0  0  0
 17 18  1  0  0  0  0
 18 26  1  6  0  0  0
 18 20  1  0  0  0  0
 19 20  1  0  0  0  0
 19  6  1  1  0  0  0
 23 19  1  0  0  0  0
 23 21  1  1  0  0  0
 25 24  2  0  0  0  0
 26 24  1  0  0  0  0
 27 28  1  0  0  0  0
 27 26  1  0  0  0  0
 28 29  1  0  0  0  0
 30 32  1  0  0  0  0
 31 30  2  0  0  0  0
 33 35  1  0  0  0  0
 33 32  1  0  0  0  0
 35 37  2  0  0  0  0
 36 35  1  0  0  0  0
 36 34  1  0  0  0  0
 39 38  1  6  0  0  0
 39 36  1  0  0  0  0
 40 39  1  0  0  0  0
 42 44  2  0  0  0  0
 43 40  1  0  0  0  0
 44 43  1  0  0  0  0
 44 41  1  0  0  0  0
 46 45  1  6  0  0  0
 46 48  1  0  0  0  0
 46 49  1  0  0  0  0
 47 48  1  0  0  0  0
 49 50  1  0  0  0  0
 51 50  1  0  0  0  0
 53 51  1  0  0  0  0
 53 52  1  0  0  0  0
M  END
>  <MODEL>
1

>  <REMARK>
 VINA RESULT:      -8.6      0.000      0.000
  Name = 
  18 active torsions:
  status: ('A' for Active; 'I' for Inactive)
    1  A    between atoms: C_1  and  C_47
    2  A    between atoms: C_1  and  N_48
    3  A    between atoms: C_6  and  C_16
    4  A    between atoms: C_6  and  C_26
    5  A    between atoms: C_9  and  C_41
    6  A    between atoms: C_9  and  C_44
    7  A    between atoms: C_9  and  C_50
    8  A    between atoms: C_12  and  N_48
    9  A    between atoms: C_14  and  C_19
   10  A    between atoms: C_16  and  C_18
   11  A    between atoms: C_17  and  C_22
   12  A    between atoms: C_20  and  N_27
   13  A    between atoms: C_20  and  C_31
   14  A    between atoms: C_21  and  C_50
   15  A    between atoms: C_30  and  C_38
   16  A    between atoms: C_31  and  N_42
   17  A    between atoms: C_38  and  C_51
   18  A    between atoms: C_44  and  C_51
                            x       y       z     vdW  Elec       q    Type
                         _______ _______ _______ _____ _____    ______ ____

>  <TORSDO>
F 18

$$$$
=
 OpenBabel10232409283D

 53 55  0  0  1  0  0  0  0  0999 V2000
  189.6340  176.5530  141.2140 C   0  0  0  0  0  2  0  0  0  0  0  0
  189.2640  176.6760  134.7120 N   0  0  0  0  0  2  0  0  0  0  0  0
  188.6660  178.8060  142.8450 C   0  0  0  0  0  3  0  0  0  0  0  0
  187.9690  178.3410  135.8960 C   0  0  0  0  0  0  0  0  0  0  0  0
  190.9150  176.0350  143.1510 O   0  0  0  0  0  0  0  0  0  0  0  0
  190.6360  176.3570  137.4070 C   0  0  0  0  0  3  0  0  0  0  0  0
  187.2260  178.7150  134.9510 O   0  0  0  0  0  0  0  0  0  0  0  0
  188.0840  178.6130  141.4720 C   0  0  1  0  0  3  0  0  0  0  0  0
  189.5580  177.9700  143.3870 C   0  0  0  0  0  0  0  0  0  0  0  0
  189.1120  177.4520  135.7350 C   0  0  0  0  0  0  0  0  0  0  0  0
  190.0870  176.8210  142.6190 C   0  0  0  0  0  0  0  0  0  0  0  0
  189.6320  177.1750  137.0700 C   0  0  0  0  0  0  0  0  0  0  0  0
  187.7560  178.7280  137.3230 C   0  0  0  0  0  2  0  0  0  0  0  0
  188.9180  177.8640  139.3180 C   0  0  0  0  0  0  0  0  0  0  0  0
  188.8400  177.9630  138.0170 C   0  0  0  0  0  0  0  0  0  0  0  0
  188.9800  177.7590  140.6160 C   0  0  0  0  0  0  0  0  0  0  0  0
  192.2000  173.5090  135.6910 C   0  0  1  0  0  3  0  0  0  0  0  0
  193.3160  174.3200  136.3220 C   0  0  2  0  0  3  0  0  0  0  0  0
  191.4470  175.5810  136.4150 C   0  0  1  0  0  3  0  0  0  0  0  0
  192.8030  175.5480  136.7930 O   0  0  0  0  0  0  0  0  0  0  0  0
  190.5900  173.5920  137.4480 O   0  0  0  0  0  1  0  0  0  0  0  0
  192.2940  172.1660  136.0660 O   0  0  0  0  0  1  0  0  0  0  0  0
  190.9540  174.1610  136.2210 C   0  0  2  0  0  3  0  0  0  0  0  0
  195.4280  173.5700  135.1920 C   0  0  0  0  0  3  0  0  0  0  0  0
  196.3580  173.7510  134.3610 O   0  0  0  0  0  0  0  0  0  0  0  0
  194.3980  174.5520  135.3720 N   0  0  0  0  0  0  0  0  0  0  0  0
  194.3580  175.7490  134.5440 C   0  0  0  0  0  2  0  0  0  0  0  0
  195.5230  176.6680  134.8790 C   0  0  0  0  0  2  0  0  0  0  0  0
  195.1420  177.5880  135.8560 O   0  0  0  0  0  1  0  0  0  0  0  0
  185.7910  178.5810  142.3580 C   0  0  0  0  0  3  0  0  0  0  0  0
  186.7190  178.0080  141.5910 C   0  0  0  0  0  3  0  0  0  0  0  0
  184.4320  177.9770  142.4750 C   0  0  0  0  0  2  0  0  0  0  0  0
  183.7860  177.8620  141.1020 C   0  0  0  0  0  2  0  0  0  0  0  0
  180.7130  179.8480  139.7950 C   0  0  0  0  0  1  0  0  0  0  0  0
  182.4960  178.6210  141.0520 C   0  0  0  0  0  0  0  0  0  0  0  0
  182.0240  179.2050  139.8280 N   0  0  0  0  0  0  0  0  0  0  0  0
  181.8110  178.7190  142.1070 O   0  0  0  0  0  0  0  0  0  0  0  0
  184.2760  179.6490  138.9100 C   0  0  0  0  0  1  0  0  0  0  0  0
  182.8590  179.1710  138.6250 C   0  0  1  0  0  3  0  0  0  0  0  0
  182.8130  177.8060  137.9310 C   0  0  0  0  0  2  0  0  0  0  0  0
  183.8680  175.0950  137.9380 O   0  0  0  0  0  1  0  0  0  0  0  0
  185.6680  175.8510  136.7320 O   0  0  0  0  0  0  0  0  0  0  0  0
  184.0970  177.4570  137.3330 N   0  0  0  0  0  2  0  0  0  0  0  0
  184.5820  176.1130  137.3110 C   0  0  0  0  0  0  0  0  0  0  0  0
  190.0250  178.2300  144.7850 C   0  0  0  0  0  2  0  0  0  0  0  0
  188.8550  178.1950  145.7660 C   0  0  1  0  0  3  0  0  0  0  0  0
  186.4260  177.5010  145.9570 C   0  0  0  0  0  1  0  0  0  0  0  0
  187.7650  177.2350  145.2870 C   0  0  0  0  0  2  0  0  0  0  0  0
  189.3240  177.8460  147.1750 C   0  0  0  0  0  2  0  0  0  0  0  0
  190.1460  176.5610  147.1740 C   0  0  0  0  0  2  0  0  0  0  0  0
  191.5690  176.7990  147.6600 C   0  0  0  0  0  2  0  0  0  0  0  0
  192.4160  175.1110  146.2150 O   0  0  0  0  0  1  0  0  0  0  0  0
  192.3920  175.5280  147.5450 C   0  0  0  0  0  2  0  0  0  0  0  0
  1 11  1  0  0  0  0
  2 10  2  0  0  0  0
  3  9  2  0  0  0  0
  4 13  1  0  0  0  0
  7  4  2  0  0  0  0
  8 31  1  1  0  0  0
  8  3  1  0  0  0  0
  9 45  1  0  0  0  0
 10  4  1  0  0  0  0
 10 12  1  0  0  0  0
 11  5  2  0  0  0  0
 11  9  1  0  0  0  0
 12  6  2  0  0  0  0
 12 15  1  0  0  0  0
 13 15  1  0  0  0  0
 14 16  2  0  0  0  0
 15 14  2  0  0  0  0
 16  1  1  0  0  0  0
 16  8  1  0  0  0  0
 17 22  1  1  0  0  0
 17 23  1  0  0  0  0
 17 18  1  0  0  0  0
 18 26  1  6  0  0  0
 18 20  1  0  0  0  0
 19 20  1  0  0  0  0
 19  6  1  1  0  0  0
 23 19  1  0  0  0  0
 23 21  1  1  0  0  0
 24 26  1  0  0  0  0
 25 24  2  0  0  0  0
 27 28  1  0  0  0  0
 27 26  1  0  0  0  0
 28 29  1  0  0  0  0
 30 32  1  0  0  0  0
 31 30  2  0  0  0  0
 33 32  1  0  0  0  0
 34 36  1  0  0  0  0
 35 33  1  0  0  0  0
 35 37  2  0  0  0  0
 36 35  1  0  0  0  0
 39 38  1  1  0  0  0
 39 36  1  0  0  0  0
 40 39  1  0  0  0  0
 42 44  2  0  0  0  0
 43 40  1  0  0  0  0
 44 43  1  0  0  0  0
 44 41  1  0  0  0  0
 46 45  1  6  0  0  0
 46 49  1  0  0  0  0
 48 46  1  0  0  0  0
 48 47  1  0  0  0  0
 50 49  1  0  0  0  0
 50 51  1  0  0  0  0
 52 53  1  0  0  0  0
 53 51  1  0  0  0  0
M  END
>  <MODEL>
2

>  <REMARK>
 VINA RESULT:      -7.1      1.656      2.584
  Name = 
  18 active torsions:
  status: ('A' for Active; 'I' for Inactive)
    1  A    between atoms: C_1  and  C_47
    2  A    between atoms: C_1  and  N_48
    3  A    between atoms: C_6  and  C_16
    4  A    between atoms: C_6  and  C_26
    5  A    between atoms: C_9  and  C_41
    6  A    between atoms: C_9  and  C_44
    7  A    between atoms: C_9  and  C_50
    8  A    between atoms: C_12  and  N_48
    9  A    between atoms: C_14  and  C_19
   10  A    between atoms: C_16  and  C_18
   11  A    between atoms: C_17  and  C_22
   12  A    between atoms: C_20  and  N_27
   13  A    between atoms: C_20  and  C_31
   14  A    between atoms: C_21  and  C_50
   15  A    between atoms: C_30  and  C_38
   16  A    between atoms: C_31  and  N_42
   17  A    between atoms: C_38  and  C_51
   18  A    between atoms: C_44  and  C_51
                            x       y       z     vdW  Elec       q    Type
                         _______ _______ _______ _____ _____    ______ ____

>  <TORSDO>
F 18

$$$$
=
 OpenBabel10232409283D

 53 55  0  0  1  0  0  0  0  0999 V2000
  184.0340  178.0780  141.0260 C   0  0  0  0  0  2  0  0  0  0  0  0
  190.3150  176.7310  142.1010 N   0  0  0  0  0  2  0  0  0  0  0  0
  183.2040  179.8450  138.8210 C   0  0  0  0  0  3  0  0  0  0  0  0
  189.7810  177.7510  139.9740 C   0  0  0  0  0  0  0  0  0  0  0  0
  181.9080  178.6390  141.9350 O   0  0  0  0  0  0  0  0  0  0  0  0
  187.5120  177.6540  142.8320 C   0  0  0  0  0  3  0  0  0  0  0  0
  190.8650  177.5240  139.3740 O   0  0  0  0  0  0  0  0  0  0  0  0
  184.5210  179.1290  138.7080 C   0  0  1  0  0  3  0  0  0  0  0  0
  182.3620  179.6740  139.8460 C   0  0  0  0  0  0  0  0  0  0  0  0
  189.5710  177.5190  141.3960 C   0  0  0  0  0  0  0  0  0  0  0  0
  182.7210  178.8020  140.9870 C   0  0  0  0  0  0  0  0  0  0  0  0
  188.1650  177.7970  141.6730 C   0  0  0  0  0  0  0  0  0  0  0  0
  188.5490  178.2560  139.2990 C   0  0  0  0  0  2  0  0  0  0  0  0
  186.2830  178.4760  140.2450 C   0  0  0  0  0  0  0  0  0  0  0  0
  187.5610  178.2680  140.4230 C   0  0  0  0  0  0  0  0  0  0  0  0
  185.0080  178.6710  140.0560 C   0  0  0  0  0  0  0  0  0  0  0  0
  188.1300  177.1740  146.4220 C   0  0  1  0  0  3  0  0  0  0  0  0
  189.2560  178.0370  145.8840 C   0  0  2  0  0  3  0  0  0  0  0  0
  188.1590  177.1940  144.1010 C   0  0  1  0  0  3  0  0  0  0  0  0
  189.2040  178.0600  144.4740 O   0  0  0  0  0  0  0  0  0  0  0  0
  186.2840  178.1410  145.2620 O   0  0  0  0  0  1  0  0  0  0  0  0
  187.5330  177.7770  147.5320 O   0  0  0  0  0  1  0  0  0  0  0  0
  187.1860  177.0690  145.2570 C   0  0  2  0  0  3  0  0  0  0  0  0
  190.7840  177.2850  147.7290 C   0  0  0  0  0  3  0  0  0  0  0  0
  191.8950  176.8450  148.1300 O   0  0  0  0  0  0  0  0  0  0  0  0
  190.5540  177.5470  146.3380 N   0  0  0  0  0  0  0  0  0  0  0  0
  191.5710  177.2390  145.3430 C   0  0  0  0  0  2  0  0  0  0  0  0
  191.9290  175.7600  145.3870 C   0  0  0  0  0  2  0  0  0  0  0  0
  192.0010  175.2470  144.0910 O   0  0  0  0  0  1  0  0  0  0  0  0
  185.3880  177.6300  136.9640 C   0  0  0  0  0  3  0  0  0  0  0  0
  184.3800  177.9730  137.7660 C   0  0  0  0  0  3  0  0  0  0  0  0
  185.2450  176.4790  136.0260 C   0  0  0  0  0  2  0  0  0  0  0  0
  186.5490  176.2440  135.2780 C   0  0  0  0  0  2  0  0  0  0  0  0
  188.1530  172.7040  135.2360 C   0  0  0  0  0  1  0  0  0  0  0  0
  186.7720  174.7820  135.0350 C   0  0  0  0  0  0  0  0  0  0  0  0
  188.0110  174.1490  135.3930 N   0  0  0  0  0  0  0  0  0  0  0  0
  185.8360  174.1040  134.5300 O   0  0  0  0  0  0  0  0  0  0  0  0
  189.0200  175.1960  137.3930 C   0  0  0  0  0  1  0  0  0  0  0  0
  189.1300  174.9500  135.8950 C   0  0  1  0  0  3  0  0  0  0  0  0
  190.4850  174.3690  135.4790 C   0  0  0  0  0  2  0  0  0  0  0  0
  192.5010  174.4480  137.5750 O   0  0  0  0  0  1  0  0  0  0  0  0
  193.4740  176.2230  136.4960 O   0  0  0  0  0  0  0  0  0  0  0  0
  191.5420  175.3720  135.5200 N   0  0  0  0  0  2  0  0  0  0  0  0
  192.5470  175.3720  136.5350 C   0  0  0  0  0  0  0  0  0  0  0  0
  181.0500  180.3960  139.8240 C   0  0  0  0  0  2  0  0  0  0  0  0
  180.2000  179.9440  138.6380 C   0  0  1  0  0  3  0  0  0  0  0  0
  180.6330  182.3820  138.1000 C   0  0  0  0  0  1  0  0  0  0  0  0
  180.0540  181.0640  137.6080 C   0  0  0  0  0  2  0  0  0  0  0  0
  180.7620  178.6750  138.0040 C   0  0  0  0  0  2  0  0  0  0  0  0
  179.9830  177.4470  138.4620 C   0  0  0  0  0  2  0  0  0  0  0  0
  180.7960  176.1700  138.3030 C   0  0  0  0  0  2  0  0  0  0  0  0
  180.4250  174.5110  139.9660 O   0  0  0  0  0  1  0  0  0  0  0  0
  181.2050  175.6250  139.6600 C   0  0  0  0  0  2  0  0  0  0  0  0
  3  9  2  0  0  0  0
  4 10  1  0  0  0  0
  7  4  2  0  0  0  0
  8 31  1  6  0  0  0
  8  3  1  0  0  0  0
  8 16  1  0  0  0  0
  9 11  1  0  0  0  0
 10 12  1  0  0  0  0
 10  2  2  0  0  0  0
 11  1  1  0  0  0  0
 11  5  2  0  0  0  0
 12  6  2  0  0  0  0
 13  4  1  0  0  0  0
 13 15  1  0  0  0  0
 14 15  2  0  0  0  0
 15 12  1  0  0  0  0
 16 14  2  0  0  0  0
 16  1  1  0  0  0  0
 17 22  1  1  0  0  0
 18 26  1  6  0  0  0
 18 17  1  0  0  0  0
 19  6  1  6  0  0  0
 19 20  1  0  0  0  0
 19 23  1  0  0  0  0
 20 18  1  0  0  0  0
 23 21  1  1  0  0  0
 23 17  1  0  0  0  0
 24 25  2  0  0  0  0
 26 24  1  0  0  0  0
 27 28  1  0  0  0  0
 27 26  1  0  0  0  0
 29 28  1  0  0  0  0
 30 31  2  0  0  0  0
 32 30  1  0  0  0  0
 33 32  1  0  0  0  0
 34 36  1  0  0  0  0
 35 33  1  0  0  0  0
 35 36  1  0  0  0  0
 36 39  1  0  0  0  0
 37 35  2  0  0  0  0
 39 38  1  1  0  0  0
 40 43  1  0  0  0  0
 40 39  1  0  0  0  0
 42 44  2  0  0  0  0
 43 44  1  0  0  0  0
 44 41  1  0  0  0  0
 45  9  1  0  0  0  0
 46 48  1  6  0  0  0
 46 45  1  0  0  0  0
 48 47  1  0  0  0  0
 49 50  1  0  0  0  0
 49 46  1  0  0  0  0
 51 50  1  0  0  0  0
 51 53  1  0  0  0  0
 53 52  1  0  0  0  0
M  END
>  <MODEL>
3

>  <REMARK>
 VINA RESULT:      -6.2      2.967      9.749
  Name = 
  18 active torsions:
  status: ('A' for Active; 'I' for Inactive)
    1  A    between atoms: C_1  and  C_47
    2  A    between atoms: C_1  and  N_48
    3  A    between atoms: C_6  and  C_16
    4  A    between atoms: C_6  and  C_26
    5  A    between atoms: C_9  and  C_41
    6  A    between atoms: C_9  and  C_44
    7  A    between atoms: C_9  and  C_50
    8  A    between atoms: C_12  and  N_48
    9  A    between atoms: C_14  and  C_19
   10  A    between atoms: C_16  and  C_18
   11  A    between atoms: C_17  and  C_22
   12  A    between atoms: C_20  and  N_27
   13  A    between atoms: C_20  and  C_31
   14  A    between atoms: C_21  and  C_50
   15  A    between atoms: C_30  and  C_38
   16  A    between atoms: C_31  and  N_42
   17  A    between atoms: C_38  and  C_51
   18  A    between atoms: C_44  and  C_51
                            x       y       z     vdW  Elec       q    Type
                         _______ _______ _______ _____ _____    ______ ____

>  <TORSDO>
F 18

$$$$
=
 OpenBabel10232409283D

 53 55  0  0  1  0  0  0  0  0999 V2000
  188.3780  176.1910  137.8660 C   0  0  0  0  0  2  0  0  0  0  0  0
  183.0610  178.7000  140.6690 N   0  0  0  0  0  2  0  0  0  0  0  0
  191.0600  177.2680  138.4330 C   0  0  0  0  0  3  0  0  0  0  0  0
  185.1870  179.3410  141.6270 C   0  0  0  0  0  0  0  0  0  0  0  0
  189.4120  175.3500  135.8950 O   0  0  0  0  0  0  0  0  0  0  0  0
  184.7990  177.7690  138.3550 C   0  0  0  0  0  3  0  0  0  0  0  0
  184.7720  179.8250  142.7130 O   0  0  0  0  0  0  0  0  0  0  0  0
  189.9780  177.4630  139.4580 C   0  0  1  0  0  3  0  0  0  0  0  0
  190.8810  176.5770  137.3010 C   0  0  0  0  0  0  0  0  0  0  0  0
  184.3220  178.9450  140.5240 C   0  0  0  0  0  0  0  0  0  0  0  0
  189.5570  176.0120  136.9560 C   0  0  0  0  0  0  0  0  0  0  0  0
  185.1730  178.3340  139.5080 C   0  0  0  0  0  0  0  0  0  0  0  0
  186.6270  179.0710  141.3350 C   0  0  0  0  0  2  0  0  0  0  0  0
  187.5850  177.8710  139.4070 C   0  0  0  0  0  0  0  0  0  0  0  0
  186.5560  178.4380  139.9810 C   0  0  0  0  0  0  0  0  0  0  0  0
  188.6120  177.2970  138.8470 C   0  0  0  0  0  0  0  0  0  0  0  0
  181.7600  176.5250  136.7060 C   0  0  1  0  0  3  0  0  0  0  0  0
  182.1900  177.7780  135.9670 C   0  0  2  0  0  3  0  0  0  0  0  0
  183.3790  177.6980  137.8830 C   0  0  1  0  0  3  0  0  0  0  0  0
  183.2090  178.4310  136.6930 O   0  0  0  0  0  0  0  0  0  0  0  0
  183.8880  175.5050  137.0530 O   0  0  0  0  0  1  0  0  0  0  0  0
  181.5830  175.4630  135.8150 O   0  0  0  0  0  1  0  0  0  0  0  0
  182.8920  176.2800  137.6640 C   0  0  2  0  0  3  0  0  0  0  0  0
  180.9660  179.4540  134.5550 C   0  0  0  0  0  3  0  0  0  0  0  0
  179.9860  180.2200  134.3540 O   0  0  0  0  0  0  0  0  0  0  0  0
  181.0600  178.6760  135.7570 N   0  0  0  0  0  0  0  0  0  0  0  0
  179.9860  178.6920  136.7400 C   0  0  0  0  0  2  0  0  0  0  0  0
  179.9820  180.0090  137.5030 C   0  0  0  0  0  2  0  0  0  0  0  0
  180.6420  179.8560  138.7230 O   0  0  0  0  0  1  0  0  0  0  0  0
  189.9950  176.8900  141.8480 C   0  0  0  0  0  3  0  0  0  0  0  0
  190.1830  176.5000  140.5870 C   0  0  0  0  0  3  0  0  0  0  0  0
  190.2000  175.9300  142.9710 C   0  0  0  0  0  2  0  0  0  0  0  0
  189.4970  176.4280  144.2250 C   0  0  0  0  0  2  0  0  0  0  0  0
  191.0080  177.0420  147.7520 C   0  0  0  0  0  1  0  0  0  0  0  0
  190.4750  176.6390  145.3410 C   0  0  0  0  0  0  0  0  0  0  0  0
  190.0310  176.9450  146.6720 N   0  0  0  0  0  0  0  0  0  0  0  0
  191.7060  176.5170  145.0950 O   0  0  0  0  0  0  0  0  0  0  0  0
  188.3330  177.3180  148.4300 C   0  0  0  0  0  1  0  0  0  0  0  0
  188.6100  177.1760  146.9390 C   0  0  1  0  0  3  0  0  0  0  0  0
  188.0500  178.3370  146.1110 C   0  0  0  0  0  2  0  0  0  0  0  0
  185.6840  179.5580  147.2850 O   0  0  0  0  0  1  0  0  0  0  0  0
  184.4130  178.4760  145.7100 O   0  0  0  0  0  0  0  0  0  0  0  0
  186.7000  178.0630  145.6330 N   0  0  0  0  0  2  0  0  0  0  0  0
  185.5530  178.7010  146.1950 C   0  0  0  0  0  0  0  0  0  0  0  0
  192.0480  176.3980  136.3800 C   0  0  0  0  0  2  0  0  0  0  0  0
  192.9820  175.3030  136.8910 C   0  0  1  0  0  3  0  0  0  0  0  0
  192.5540  172.8880  136.2580 C   0  0  0  0  0  1  0  0  0  0  0  0
  192.2090  174.0240  137.2090 C   0  0  0  0  0  2  0  0  0  0  0  0
  194.1160  175.0380  135.9050 C   0  0  0  0  0  2  0  0  0  0  0  0
  195.3990  174.6620  136.6370 C   0  0  0  0  0  2  0  0  0  0  0  0
  196.4560  174.1190  135.6860 C   0  0  0  0  0  2  0  0  0  0  0  0
  197.3310  176.2930  136.0880 O   0  0  0  0  0  1  0  0  0  0  0  0
  197.3400  175.2420  135.1720 C   0  0  0  0  0  2  0  0  0  0  0  0
  1 16  1  0  0  0  0
  3  8  1  0  0  0  0
  4  7  2  0  0  0  0
  5 11  2  0  0  0  0
  6 12  2  0  0  0  0
  8 31  1  1  0  0  0
  9  3  2  0  0  0  0
 10  2  2  0  0  0  0
 10  4  1  0  0  0  0
 11  9  1  0  0  0  0
 11  1  1  0  0  0  0
 12 15  1  0  0  0  0
 12 10  1  0  0  0  0
 13  4  1  0  0  0  0
 14 15  2  0  0  0  0
 15 13  1  0  0  0  0
 16 14  2  0  0  0  0
 16  8  1  0  0  0  0
 17 22  1  6  0  0  0
 17 23  1  0  0  0  0
 18 26  1  1  0  0  0
 18 20  1  0  0  0  0
 18 17  1  0  0  0  0
 19  6  1  6  0  0  0
 20 19  1  0  0  0  0
 23 21  1  6  0  0  0
 23 19  1  0  0  0  0
 24 26  1  0  0  0  0
 25 24  2  0  0  0  0
 26 27  1  0  0  0  0
 27 28  1  0  0  0  0
 28 29  1  0  0  0  0
 30 32  1  0  0  0  0
 31 30  2  0  0  0  0
 32 33  1  0  0  0  0
 33 35  1  0  0  0  0
 35 36  1  0  0  0  0
 36 39  1  0  0  0  0
 36 34  1  0  0  0  0
 37 35  2  0  0  0  0
 39 38  1  1  0  0  0
 40 39  1  0  0  0  0
 42 44  2  0  0  0  0
 43 40  1  0  0  0  0
 43 44  1  0  0  0  0
 44 41  1  0  0  0  0
 45 46  1  0  0  0  0
 45  9  1  0  0  0  0
 46 49  1  6  0  0  0
 46 48  1  0  0  0  0
 47 48  1  0  0  0  0
 49 50  1  0  0  0  0
 51 50  1  0  0  0  0
 53 51  1  0  0  0  0
 53 52  1  0  0  0  0
M  END
>  <MODEL>
4

>  <REMARK>
 VINA RESULT:      -6.0      2.881     10.066
  Name = 
  18 active torsions:
  status: ('A' for Active; 'I' for Inactive)
    1  A    between atoms: C_1  and  C_47
    2  A    between atoms: C_1  and  N_48
    3  A    between atoms: C_6  and  C_16
    4  A    between atoms: C_6  and  C_26
    5  A    between atoms: C_9  and  C_41
    6  A    between atoms: C_9  and  C_44
    7  A    between atoms: C_9  and  C_50
    8  A    between atoms: C_12  and  N_48
    9  A    between atoms: C_14  and  C_19
   10  A    between atoms: C_16  and  C_18
   11  A    between atoms: C_17  and  C_22
   12  A    between atoms: C_20  and  N_27
   13  A    between atoms: C_20  and  C_31
   14  A    between atoms: C_21  and  C_50
   15  A    between atoms: C_30  and  C_38
   16  A    between atoms: C_31  and  N_42
   17  A    between atoms: C_38  and  C_51
   18  A    between atoms: C_44  and  C_51
                            x       y       z     vdW  Elec       q    Type
                         _______ _______ _______ _____ _____    ______ ____

>  <TORSDO>
F 18

$$$$
=
 OpenBabel10232409283D

 53 55  0  0  1  0  0  0  0  0999 V2000
  191.5420  173.8130  136.6740 C   0  0  0  0  0  2  0  0  0  0  0  0
  185.8630  176.9440  137.2820 N   0  0  0  0  0  2  0  0  0  0  0  0
  193.8920  175.1250  135.4770 C   0  0  0  0  0  3  0  0  0  0  0  0
  187.7960  178.3070  136.7740 C   0  0  0  0  0  0  0  0  0  0  0  0
  192.6880  171.8090  136.0990 O   0  0  0  0  0  0  0  0  0  0  0  0
  187.7030  174.6730  136.4430 C   0  0  0  0  0  3  0  0  0  0  0  0
  187.3080  179.4380  137.0380 O   0  0  0  0  0  0  0  0  0  0  0  0
  192.8290  175.9870  136.0980 C   0  0  1  0  0  3  0  0  0  0  0  0
  193.8540  173.7880  135.4940 C   0  0  0  0  0  0  0  0  0  0  0  0
  187.0200  177.0770  136.7190 C   0  0  0  0  0  0  0  0  0  0  0  0
  192.6990  173.0680  136.0770 C   0  0  0  0  0  0  0  0  0  0  0  0
  187.9630  175.9840  136.4970 C   0  0  0  0  0  0  0  0  0  0  0  0
  189.2470  178.0680  136.5170 C   0  0  0  0  0  2  0  0  0  0  0  0
  190.4090  175.9080  136.2780 C   0  0  0  0  0  0  0  0  0  0  0  0
  189.2920  176.5820  136.3460 C   0  0  0  0  0  0  0  0  0  0  0  0
  191.5280  175.2410  136.2250 C   0  0  0  0  0  0  0  0  0  0  0  0
  184.9730  172.2140  136.4180 C   0  0  1  0  0  3  0  0  0  0  0  0
  184.7020  173.1960  135.2940 C   0  0  2  0  0  3  0  0  0  0  0  0
  186.3300  174.0900  136.5760 C   0  0  1  0  0  3  0  0  0  0  0  0
  185.5820  174.2940  135.4010 O   0  0  0  0  0  0  0  0  0  0  0  0
  187.3290  171.9460  136.1670 O   0  0  0  0  0  1  0  0  0  0  0  0
  184.9420  170.9000  135.9420 O   0  0  0  0  0  1  0  0  0  0  0  0
  186.3390  172.6090  136.9030 C   0  0  2  0  0  3  0  0  0  0  0  0
  182.2640  172.7990  134.8430 C   0  0  0  0  0  3  0  0  0  0  0  0
  181.0620  173.1750  134.8760 O   0  0  0  0  0  0  0  0  0  0  0  0
  183.3160  173.6510  135.3180 N   0  0  0  0  0  0  0  0  0  0  0  0
  183.0130  174.9410  135.9230 C   0  0  0  0  0  2  0  0  0  0  0  0
  182.6700  174.7720  137.3960 C   0  0  0  0  0  2  0  0  0  0  0  0
  181.5910  175.5910  137.7330 O   0  0  0  0  0  1  0  0  0  0  0  0
  192.4260  176.9110  138.3400 C   0  0  0  0  0  3  0  0  0  0  0  0
  193.3010  176.4750  137.4330 C   0  0  0  0  0  3  0  0  0  0  0  0
  192.8980  177.3970  139.6690 C   0  0  0  0  0  2  0  0  0  0  0  0
  192.2480  176.5930  140.7850 C   0  0  0  0  0  2  0  0  0  0  0  0
  189.2160  178.2690  142.5450 C   0  0  0  0  0  1  0  0  0  0  0  0
  190.8660  177.0970  141.0740 C   0  0  0  0  0  0  0  0  0  0  0  0
  190.5430  177.6980  142.3380 N   0  0  0  0  0  0  0  0  0  0  0  0
  189.9900  177.0080  140.1710 O   0  0  0  0  0  0  0  0  0  0  0  0
  191.5980  179.0830  144.0940 C   0  0  0  0  0  1  0  0  0  0  0  0
  191.5320  177.7200  143.4180 C   0  0  1  0  0  3  0  0  0  0  0  0
  191.3290  176.5680  144.4070 C   0  0  0  0  0  2  0  0  0  0  0  0
  188.7700  176.8920  145.7520 O   0  0  0  0  0  0  0  0  0  0  0  0
  189.9060  177.5210  147.6440 O   0  0  0  0  0  1  0  0  0  0  0  0
  191.2140  177.0440  145.7810 N   0  0  0  0  0  2  0  0  0  0  0  0
  189.9510  177.1600  146.4380 C   0  0  0  0  0  0  0  0  0  0  0  0
  194.9980  173.0310  134.8950 C   0  0  0  0  0  2  0  0  0  0  0  0
  195.9720  172.5700  135.9770 C   0  0  1  0  0  3  0  0  0  0  0  0
  196.4280  170.1230  136.4470 C   0  0  0  0  0  1  0  0  0  0  0  0
  196.7210  171.3100  135.5430 C   0  0  0  0  0  2  0  0  0  0  0  0
  196.9380  173.6860  136.3640 C   0  0  0  0  0  2  0  0  0  0  0  0
  197.1940  173.6880  137.8680 C   0  0  0  0  0  2  0  0  0  0  0  0
  195.8970  173.6440  138.6630 C   0  0  0  0  0  2  0  0  0  0  0  0
  197.1050  175.3120  139.8520 O   0  0  0  0  0  1  0  0  0  0  0  0
  195.8220  174.8150  139.6270 C   0  0  0  0  0  2  0  0  0  0  0  0
  3  9  2  0  0  0  0
  3  8  1  0  0  0  0
  4  7  2  0  0  0  0
  6 12  2  0  0  0  0
  8 16  1  0  0  0  0
  8 31  1  1  0  0  0
  9 11  1  0  0  0  0
 10  4  1  0  0  0  0
 10  2  2  0  0  0  0
 11  5  2  0  0  0  0
 11  1  1  0  0  0  0
 12 10  1  0  0  0  0
 13  4  1  0  0  0  0
 14 15  2  0  0  0  0
 15 12  1  0  0  0  0
 15 13  1  0  0  0  0
 16 14  2  0  0  0  0
 16  1  1  0  0  0  0
 17 22  1  6  0  0  0
 17 23  1  0  0  0  0
 18 26  1  1  0  0  0
 18 20  1  0  0  0  0
 18 17  1  0  0  0  0
 19  6  1  6  0  0  0
 19 23  1  0  0  0  0
 20 19  1  0  0  0  0
 23 21  1  6  0  0  0
 24 25  2  0  0  0  0
 24 26  1  0  0  0  0
 26 27  1  0  0  0  0
 27 28  1  0  0  0  0
 28 29  1  0  0  0  0
 30 32  1  0  0  0  0
 31 30  2  0  0  0  0
 32 33  1  0  0  0  0
 33 35  1  0  0  0  0
 35 36  1  0  0  0  0
 36 34  1  0  0  0  0
 36 39  1  0  0  0  0
 37 35  2  0  0  0  0
 39 38  1  1  0  0  0
 39 40  1  0  0  0  0
 40 43  1  0  0  0  0
 41 44  2  0  0  0  0
 43 44  1  0  0  0  0
 44 42  1  0  0  0  0
 45  9  1  0  0  0  0
 46 45  1  6  0  0  0
 46 49  1  0  0  0  0
 48 46  1  0  0  0  0
 48 47  1  0  0  0  0
 49 50  1  0  0  0  0
 50 51  1  0  0  0  0
 51 53  1  0  0  0  0
 53 52  1  0  0  0  0
M  END
>  <MODEL>
5

>  <REMARK>
 VINA RESULT:      -5.8      3.790      9.647
  Name = 
  18 active torsions:
  status: ('A' for Active; 'I' for Inactive)
    1  A    between atoms: C_1  and  C_47
    2  A    between atoms: C_1  and  N_48
    3  A    between atoms: C_6  and  C_16
    4  A    between atoms: C_6  and  C_26
    5  A    between atoms: C_9  and  C_41
    6  A    between atoms: C_9  and  C_44
    7  A    between atoms: C_9  and  C_50
    8  A    between atoms: C_12  and  N_48
    9  A    between atoms: C_14  and  C_19
   10  A    between atoms: C_16  and  C_18
   11  A    between atoms: C_17  and  C_22
   12  A    between atoms: C_20  and  N_27
   13  A    between atoms: C_20  and  C_31
   14  A    between atoms: C_21  and  C_50
   15  A    between atoms: C_30  and  C_38
   16  A    between atoms: C_31  and  N_42
   17  A    between atoms: C_38  and  C_51
   18  A    between atoms: C_44  and  C_51
                            x       y       z     vdW  Elec       q    Type
                         _______ _______ _______ _____ _____    ______ ____

>  <TORSDO>
F 18

$$$$
=
 OpenBabel10232409283D

 53 55  0  0  1  0  0  0  0  0999 V2000
  188.4780  177.0790  138.4200 C   0  0  0  0  0  2  0  0  0  0  0  0
  186.2780  172.4980  134.3460 N   0  0  0  0  0  2  0  0  0  0  0  0
  190.8330  176.6070  140.1250 C   0  0  0  0  0  3  0  0  0  0  0  0
  188.4880  172.1490  135.2670 C   0  0  0  0  0  0  0  0  0  0  0  0
  187.9730  178.7620  140.0240 O   0  0  0  0  0  0  0  0  0  0  0  0
  186.0760  174.5590  136.5720 C   0  0  0  0  0  3  0  0  0  0  0  0
  188.8810  171.2420  134.4860 O   0  0  0  0  0  0  0  0  0  0  0  0
  190.6950  175.8100  138.8580 C   0  0  1  0  0  3  0  0  0  0  0  0
  189.9700  177.5630  140.4880 C   0  0  0  0  0  0  0  0  0  0  0  0
  187.1210  172.6490  135.3150 C   0  0  0  0  0  0  0  0  0  0  0  0
  188.7650  177.8470  139.6760 C   0  0  0  0  0  0  0  0  0  0  0  0
  187.1040  173.7610  136.2610 C   0  0  0  0  0  0  0  0  0  0  0  0
  189.3810  172.8630  136.2270 C   0  0  0  0  0  2  0  0  0  0  0  0
  188.8570  174.8380  137.6050 C   0  0  0  0  0  0  0  0  0  0  0  0
  188.4500  173.8680  136.8290 C   0  0  0  0  0  0  0  0  0  0  0  0
  189.2730  175.8110  138.3660 C   0  0  0  0  0  0  0  0  0  0  0  0
  182.8190  175.4520  135.1240 C   0  0  1  0  0  3  0  0  0  0  0  0
  182.5550  174.8810  136.5040 C   0  0  2  0  0  3  0  0  0  0  0  0
  184.7020  174.4120  135.9940 C   0  0  1  0  0  3  0  0  0  0  0  0
  183.7380  174.3040  137.0140 O   0  0  0  0  0  0  0  0  0  0  0  0
  184.7460  176.7770  135.5920 O   0  0  0  0  0  1  0  0  0  0  0  0
  182.2030  176.6980  134.9800 O   0  0  0  0  0  1  0  0  0  0  0  0
  184.3180  175.5500  135.0690 C   0  0  2  0  0  3  0  0  0  0  0  0
  181.4640  172.8820  135.4480 C   0  0  0  0  0  3  0  0  0  0  0  0
  180.5530  172.0120  135.4150 O   0  0  0  0  0  0  0  0  0  0  0  0
  181.4830  173.8920  136.4660 N   0  0  0  0  0  0  0  0  0  0  0  0
  180.4940  173.8910  137.5340 C   0  0  0  0  0  2  0  0  0  0  0  0
  180.6630  175.1180  138.4190 C   0  0  0  0  0  2  0  0  0  0  0  0
  180.4500  174.7770  139.7550 O   0  0  0  0  0  1  0  0  0  0  0  0
  192.6760  175.6550  137.4110 C   0  0  0  0  0  3  0  0  0  0  0  0
  191.6230  176.3630  137.8190 C   0  0  0  0  0  3  0  0  0  0  0  0
  193.5990  176.2070  136.3770 C   0  0  0  0  0  2  0  0  0  0  0  0
  194.4780  175.1020  135.8100 C   0  0  0  0  0  2  0  0  0  0  0  0
  198.3540  175.1190  136.0750 C   0  0  0  0  0  1  0  0  0  0  0  0
  195.9100  175.5380  135.7420 C   0  0  0  0  0  0  0  0  0  0  0  0
  196.9650  174.7070  136.2520 N   0  0  0  0  0  0  0  0  0  0  0  0
  196.1790  176.6450  135.2010 O   0  0  0  0  0  0  0  0  0  0  0  0
  197.8750  172.5760  137.1150 C   0  0  0  0  0  1  0  0  0  0  0  0
  196.6480  173.4650  136.9610 C   0  0  1  0  0  3  0  0  0  0  0  0
  195.9260  173.7270  138.2860 C   0  0  0  0  0  2  0  0  0  0  0  0
  195.6130  175.9740  140.1080 O   0  0  0  0  0  0  0  0  0  0  0  0
  197.4730  175.2460  141.2370 O   0  0  0  0  0  1  0  0  0  0  0  0
  196.8610  174.0000  139.3710 N   0  0  0  0  0  2  0  0  0  0  0  0
  196.6710  175.0850  140.2800 C   0  0  0  0  0  0  0  0  0  0  0  0
  190.2400  178.3320  141.7430 C   0  0  0  0  0  2  0  0  0  0  0  0
  190.0740  177.4430  142.9730 C   0  0  1  0  0  3  0  0  0  0  0  0
  191.2650  179.2800  144.2480 C   0  0  0  0  0  1  0  0  0  0  0  0
  191.1140  177.7810  144.0410 C   0  0  0  0  0  2  0  0  0  0  0  0
  188.6560  177.5280  143.5310 C   0  0  0  0  0  2  0  0  0  0  0  0
  188.5920  176.9610  144.9450 C   0  0  0  0  0  2  0  0  0  0  0  0
  187.6910  177.7920  145.8480 C   0  0  0  0  0  2  0  0  0  0  0  0
  189.1890  176.8080  147.4100 O   0  0  0  0  0  1  0  0  0  0  0  0
  187.9830  177.4990  147.3090 C   0  0  0  0  0  2  0  0  0  0  0  0
  1 11  1  0  0  0  0
  2 10  2  0  0  0  0
  3  9  2  0  0  0  0
  4 10  1  0  0  0  0
  4 13  1  0  0  0  0
  7  4  2  0  0  0  0
  8 31  1  6  0  0  0
  8  3  1  0  0  0  0
  9 45  1  0  0  0  0
 10 12  1  0  0  0  0
 11  5  2  0  0  0  0
 11  9  1  0  0  0  0
 12  6  2  0  0  0  0
 12 15  1  0  0  0  0
 13 15  1  0  0  0  0
 14 16  2  0  0  0  0
 15 14  2  0  0  0  0
 16  1  1  0  0  0  0
 16  8  1  0  0  0  0
 17 22  1  1  0  0  0
 17 18  1  0  0  0  0
 18 26  1  6  0  0  0
 18 20  1  0  0  0  0
 19  6  1  1  0  0  0
 19 20  1  0  0  0  0
 23 17  1  0  0  0  0
 23 21  1  1  0  0  0
 23 19  1  0  0  0  0
 24 26  1  0  0  0  0
 25 24  2  0  0  0  0
 26 27  1  0  0  0  0
 27 28  1  0  0  0  0
 28 29  1  0  0  0  0
 30 31  2  0  0  0  0
 32 30  1  0  0  0  0
 33 32  1  0  0  0  0
 34 36  1  0  0  0  0
 35 33  1  0  0  0  0
 35 36  1  0  0  0  0
 36 39  1  0  0  0  0
 37 35  2  0  0  0  0
 39 38  1  1  0  0  0
 39 40  1  0  0  0  0
 40 43  1  0  0  0  0
 41 44  2  0  0  0  0
 43 44  1  0  0  0  0
 44 42  1  0  0  0  0
 46 45  1  6  0  0  0
 46 49  1  0  0  0  0
 46 48  1  0  0  0  0
 48 47  1  0  0  0  0
 49 50  1  0  0  0  0
 50 51  1  0  0  0  0
 51 53  1  0  0  0  0
 53 52  1  0  0  0  0
M  END
>  <MODEL>
6

>  <REMARK>
 VINA RESULT:      -5.7      3.536     10.300
  Name = 
  18 active torsions:
  status: ('A' for Active; 'I' for Inactive)
    1  A    between atoms: C_1  and  C_47
    2  A    between atoms: C_1  and  N_48
    3  A    between atoms: C_6  and  C_16
    4  A    between atoms: C_6  and  C_26
    5  A    between atoms: C_9  and  C_41
    6  A    between atoms: C_9  and  C_44
    7  A    between atoms: C_9  and  C_50
    8  A    between atoms: C_12  and  N_48
    9  A    between atoms: C_14  and  C_19
   10  A    between atoms: C_16  and  C_18
   11  A    between atoms: C_17  and  C_22
   12  A    between atoms: C_20  and  N_27
   13  A    between atoms: C_20  and  C_31
   14  A    between atoms: C_21  and  C_50
   15  A    between atoms: C_30  and  C_38
   16  A    between atoms: C_31  and  N_42
   17  A    between atoms: C_38  and  C_51
   18  A    between atoms: C_44  and  C_51
                            x       y       z     vdW  Elec       q    Type
                         _______ _______ _______ _____ _____    ______ ____

>  <TORSDO>
F 18

$$$$
