=
 OpenBabel10232411303D

 59 68  0  0  1  0  0  0  0  0999 V2000
  191.2460  176.3430  138.4570 C   0  0  0  0  0  0  0  0  0  0  0  0
  192.5620  176.8350  138.5420 C   0  0  0  0  0  3  0  0  0  0  0  0
  190.8770  175.5620  137.3380 C   0  0  0  0  0  0  0  0  0  0  0  0
  191.8270  175.2810  136.3500 C   0  0  0  0  0  3  0  0  0  0  0  0
  193.1400  175.7500  136.4520 C   0  0  0  0  0  0  0  0  0  0  0  0
  193.5020  176.5350  137.5510 C   0  0  0  0  0  3  0  0  0  0  0  0
  197.6120  172.5590  137.1760 N   0  0  0  0  0  2  0  0  0  0  0  0
  195.1910  171.5230  135.7170 C   0  0  0  0  0  2  0  0  0  0  0  0
  199.1600  173.3460  135.4620 C   0  0  0  0  0  1  0  0  0  0  0  0
  195.5270  175.8440  135.9380 C   0  0  1  0  0  3  0  0  0  0  0  0
  197.6290  175.8140  134.9750 O   0  0  0  0  0  0  0  0  0  0  0  0
  194.2490  173.7210  135.7300 N   0  0  0  0  0  0  0  0  0  0  0  0
  194.2050  175.1620  135.5790 C   0  0  1  0  0  3  0  0  0  0  0  0
  197.0680  171.2180  137.3620 C   0  0  0  0  0  2  0  0  0  0  0  0
  197.7830  172.7710  135.7400 C   0  0  2  0  0  3  0  0  0  0  0  0
  196.7580  175.0850  135.7180 C   0  0  1  0  0  0  0  0  0  0  0  0
  195.0230  169.8270  137.5190 C   0  0  0  0  0  1  0  0  0  0  0  0
  196.6380  173.6430  135.1750 C   0  0  2  0  0  3  0  0  0  0  0  0
  195.2860  173.0050  135.4690 C   0  0  0  0  0  0  0  0  0  0  0  0
  195.5540  171.2010  137.1610 C   0  0  2  0  0  3  0  0  0  0  0  0
  196.2890  176.0250  134.6960 N   0  0  1  0  0  0  0  0  0  0  0  0
  188.9830  177.1770  139.2610 C   0  0  0  0  0  2  0  0  0  0  0  0
  188.8280  177.8400  141.7160 O   0  0  0  0  0  0  0  0  0  0  0  0
  192.0700  177.6560  140.7400 O   0  0  0  0  0  0  0  0  0  0  0  0
  190.3040  176.4910  139.6310 C   0  0  2  0  0  3  0  0  0  0  0  0
  187.0370  178.2170  140.2500 N   0  0  0  0  0  0  0  0  0  0  0  0
  190.9440  177.1940  140.7970 C   0  0  0  0  0  0  0  0  0  0  0  0
  190.1260  177.3390  142.0320 C   0  0  0  0  0  2  0  0  0  0  0  0
  188.2250  177.7320  140.4490 C   0  0  0  0  0  0  0  0  0  0  0  0
  186.2040  178.7980  141.2710 C   0  0  0  0  0  0  0  0  0  0  0  0
  186.1680  180.0480  141.4290 O   0  0  0  0  0  0  0  0  0  0  0  0
  183.6700  179.1800  143.5260 C   0  0  0  0  0  2  0  0  0  0  0  0
  187.1180  177.8680  145.5530 C   0  0  0  0  0  0  0  0  0  0  0  0
  186.2730  178.6550  146.2580 C   0  0  0  0  0  0  0  0  0  0  0  0
  185.9180  179.8780  148.2570 O   0  0  0  0  0  0  0  0  0  0  0  0
  185.3270  177.9310  142.1380 C   0  0  2  0  0  3  0  0  0  0  0  0
  188.3630  177.2820  146.1730 C   0  0  0  0  0  2  0  0  0  0  0  0
  186.6040  179.0140  147.6400 C   0  0  0  0  0  0  0  0  0  0  0  0
  187.7510  178.4390  148.2650 N   0  0  0  0  0  0  0  0  0  0  0  0
  183.8760  178.4680  142.1760 C   0  0  0  0  0  2  0  0  0  0  0  0
  184.8340  178.8230  144.3020 N   0  0  0  0  0  0  0  0  0  0  0  0
  185.0750  179.1570  145.6410 N   0  0  0  0  0  2  0  0  0  0  0  0
  186.8510  177.5780  144.1210 C   0  0  0  0  0  3  0  0  0  0  0  0
  188.5570  177.6460  147.6260 C   0  0  0  0  0  3  0  0  0  0  0  0
  185.7420  178.0600  143.5550 C   0  0  0  0  0  0  0  0  0  0  0  0
  189.5210  174.9200  137.2330 C   0  0  0  0  0  2  0  0  0  0  0  0
  188.7720  175.4510  136.0130 C   0  0  0  0  0  2  0  0  0  0  0  0
  185.6690  177.4430  136.6340 N   0  0  0  0  0  0  0  0  0  0  0  0
  186.4870  174.8190  136.8210 C   0  0  0  0  0  3  0  0  0  0  0  0
  185.1860  175.1610  137.2010 C   0  0  0  0  0  0  0  0  0  0  0  0
  184.7820  176.5130  137.0870 C   0  0  0  0  0  0  0  0  0  0  0  0
  186.9360  177.1170  136.2660 C   0  0  0  0  0  3  0  0  0  0  0  0
  187.3680  175.7950  136.3530 C   0  0  0  0  0  0  0  0  0  0  0  0
  184.6820  172.7650  137.6450 C   0  0  0  0  0  1  0  0  0  0  0  0
  184.3540  174.1430  137.6910 O   0  0  0  0  0  0  0  0  0  0  0  0
  183.4760  176.8970  137.4140 O   0  0  0  0  0  0  0  0  0  0  0  0
  183.1580  177.6580  138.5790 C   0  0  0  0  0  2  0  0  0  0  0  0
  183.6100  179.8050  138.8710 C   0  0  0  0  0  1  0  0  0  0  0  0
  182.7200  178.9380  138.2300 O   0  0  0  0  0  0  0  0  0  0  0  0
  1  2  1  0  0  0  0
  1 25  1  0  0  0  0
  3  1  2  0  0  0  0
  4  5  2  0  0  0  0
  4  3  1  0  0  0  0
  5  6  1  0  0  0  0
  6  2  2  0  0  0  0
  7 14  1  0  0  0  0
  8 20  1  0  0  0  0
  9 15  1  0  0  0  0
 11 16  1  0  0  0  0
 13 12  1  0  0  0  0
 13 10  1  0  0  0  0
 13  5  1  0  0  0  0
 15  7  1  0  0  0  0
 16 10  1  0  0  0  0
 18 19  1  0  0  0  0
 18 16  1  0  0  0  0
 18 15  1  0  0  0  0
 19  8  1  0  0  0  0
 19 12  2  0  0  0  0
 20 14  1  0  0  0  0
 20 17  1  0  0  0  0
 21 11  1  0  0  0  0
 21 16  1  0  0  0  0
 21 10  1  0  0  0  0
 22 25  1  0  0  0  0
 22 29  1  0  0  0  0
 23 28  1  0  0  0  0
 24 27  2  0  0  0  0
 25 27  1  0  0  0  0
 26 29  2  0  0  0  0
 26 30  1  0  0  0  0
 27 28  1  0  0  0  0
 29 23  1  0  0  0  0
 30 31  2  0  0  0  0
 30 36  1  0  0  0  0
 32 41  1  0  0  0  0
 33 37  1  0  0  0  0
 33 34  2  0  0  0  0
 34 38  1  0  0  0  0
 36 40  1  0  0  0  0
 36 45  1  0  0  0  0
 37 44  1  0  0  0  0
 38 35  2  0  0  0  0
 38 39  1  0  0  0  0
 40 32  1  0  0  0  0
 41 42  1  0  0  0  0
 42 34  1  0  0  0  0
 43 33  1  0  0  0  0
 44 39  2  0  0  0  0
 45 43  2  0  0  0  0
 45 41  1  0  0  0  0
 46  3  1  0  0  0  0
 47 53  1  0  0  0  0
 47 46  1  0  0  0  0
 48 51  2  0  0  0  0
 49 50  2  0  0  0  0
 50 55  1  0  0  0  0
 51 50  1  0  0  0  0
 51 56  1  0  0  0  0
 52 53  2  0  0  0  0
 52 48  1  0  0  0  0
 53 49  1  0  0  0  0
 54 55  1  0  0  0  0
 56 57  1  0  0  0  0
 59 57  1  0  0  0  0
 59 58  1  0  0  0  0
M  END
>  <MODEL>
1

>  <REMARK>
 VINA RESULT:      -9.3      0.000      0.000
  Name = 
  11 active torsions:
  status: ('A' for Active; 'I' for Inactive)
    1  A    between atoms: C_10  and  C_24
    2  A    between atoms: C_10  and  N_44
    3  A    between atoms: C_13  and  C_43
    4  A    between atoms: C_13  and  C_53
    5  A    between atoms: C_14  and  C_32
    6  A    between atoms: C_20  and  C_51
    7  A    between atoms: C_25  and  O_45
    8  A    between atoms: C_29  and  O_52
    9  A    between atoms: C_29  and  O_57
   10  A    between atoms: C_33  and  C_53
   11  A    between atoms: C_36  and  O_57
                            x       y       z     vdW  Elec       q    Type
                         _______ _______ _______ _____ _____    ______ ____

>  <TORSDO>
F 11

$$$$
=
 OpenBabel10232411303D

 59 68  0  0  1  0  0  0  0  0999 V2000
  190.5740  176.5420  137.6150 C   0  0  0  0  0  0  0  0  0  0  0  0
  190.0910  176.8940  136.3410 C   0  0  0  0  0  3  0  0  0  0  0  0
  189.7980  176.8590  138.7530 C   0  0  0  0  0  0  0  0  0  0  0  0
  188.5640  177.4960  138.5910 C   0  0  0  0  0  3  0  0  0  0  0  0
  188.0760  177.8200  137.3220 C   0  0  0  0  0  0  0  0  0  0  0  0
  188.8490  177.5220  136.1960 C   0  0  0  0  0  3  0  0  0  0  0  0
  183.3240  176.6600  139.9230 N   0  0  0  0  0  2  0  0  0  0  0  0
  184.4920  179.4330  139.9980 C   0  0  0  0  0  2  0  0  0  0  0  0
  181.6730  176.6600  138.1270 C   0  0  0  0  0  1  0  0  0  0  0  0
  185.8810  176.9120  136.7510 C   0  0  1  0  0  3  0  0  0  0  0  0
  183.7220  176.5240  136.0170 O   0  0  0  0  0  0  0  0  0  0  0  0
  186.1160  178.7870  138.3670 N   0  0  0  0  0  0  0  0  0  0  0  0
  186.6330  178.1820  137.1540 C   0  0  1  0  0  3  0  0  0  0  0  0
  183.3610  177.4900  141.1220 C   0  0  0  0  0  2  0  0  0  0  0  0
  182.7400  177.4610  138.8490 C   0  0  2  0  0  3  0  0  0  0  0  0
  184.4670  176.8230  137.1120 C   0  0  1  0  0  0  0  0  0  0  0  0
  184.6550  179.1310  142.4540 C   0  0  0  0  0  1  0  0  0  0  0  0
  183.8410  177.9940  137.9030 C   0  0  2  0  0  3  0  0  0  0  0  0
  184.8690  178.8040  138.6830 C   0  0  0  0  0  0  0  0  0  0  0  0
  184.5800  178.4100  141.1220 C   0  0  2  0  0  3  0  0  0  0  0  0
  184.8490  177.2930  135.7780 N   0  0  1  0  0  0  0  0  0  0  0  0
  193.0570  176.3110  137.1190 C   0  0  0  0  0  2  0  0  0  0  0  0
  193.9490  173.9360  136.8920 O   0  0  0  0  0  0  0  0  0  0  0  0
  190.5680  173.9610  136.6390 O   0  0  0  0  0  0  0  0  0  0  0  0
  191.8080  175.6770  137.7450 C   0  0  2  0  0  3  0  0  0  0  0  0
  195.3130  175.7860  136.4260 N   0  0  0  0  0  0  0  0  0  0  0  0
  191.6000  174.2920  137.1960 C   0  0  0  0  0  0  0  0  0  0  0  0
  192.7320  173.3350  137.3290 C   0  0  0  0  0  2  0  0  0  0  0  0
  194.1700  175.3250  136.8360 C   0  0  0  0  0  0  0  0  0  0  0  0
  196.4560  174.9760  136.0950 C   0  0  0  0  0  0  0  0  0  0  0  0
  196.7170  174.7010  134.8930 O   0  0  0  0  0  0  0  0  0  0  0  0
  199.4960  173.4400  136.3300 C   0  0  0  0  0  2  0  0  0  0  0  0
  196.5040  170.7460  137.5610 C   0  0  0  0  0  0  0  0  0  0  0  0
  197.5990  170.2010  136.9840 C   0  0  0  0  0  0  0  0  0  0  0  0
  198.6050  168.2350  136.1230 O   0  0  0  0  0  0  0  0  0  0  0  0
  197.3880  174.4810  137.1720 C   0  0  2  0  0  3  0  0  0  0  0  0
  195.3800  169.8950  138.0980 C   0  0  0  0  0  2  0  0  0  0  0  0
  197.6730  168.7470  136.8050 C   0  0  0  0  0  0  0  0  0  0  0  0
  196.6450  167.9150  137.3430 N   0  0  0  0  0  0  0  0  0  0  0  0
  198.8650  174.7620  136.8050 C   0  0  0  0  0  2  0  0  0  0  0  0
  198.5210  172.4320  136.6750 N   0  0  0  0  0  0  0  0  0  0  0  0
  198.6670  171.0480  136.5250 N   0  0  0  0  0  2  0  0  0  0  0  0
  196.3660  172.2220  137.6570 C   0  0  0  0  0  3  0  0  0  0  0  0
  195.6040  168.4090  137.9400 C   0  0  0  0  0  3  0  0  0  0  0  0
  197.3570  172.9990  137.2160 C   0  0  0  0  0  0  0  0  0  0  0  0
  190.2050  176.4210  140.1340 C   0  0  0  0  0  2  0  0  0  0  0  0
  190.7130  177.6120  140.9420 C   0  0  0  0  0  2  0  0  0  0  0  0
  188.5260  177.6150  143.9760 N   0  0  0  0  0  0  0  0  0  0  0  0
  191.2090  177.4010  143.3890 C   0  0  0  0  0  3  0  0  0  0  0  0
  190.7960  177.3850  144.7240 C   0  0  0  0  0  0  0  0  0  0  0  0
  189.4120  177.4860  145.0030 C   0  0  0  0  0  0  0  0  0  0  0  0
  188.9230  177.6340  142.6760 C   0  0  0  0  0  3  0  0  0  0  0  0
  190.2760  177.5250  142.3590 C   0  0  0  0  0  0  0  0  0  0  0  0
  191.8510  176.2280  146.6580 C   0  0  0  0  0  1  0  0  0  0  0  0
  191.7810  177.2870  145.7180 O   0  0  0  0  0  0  0  0  0  0  0  0
  188.9450  177.4320  146.3220 O   0  0  0  0  0  0  0  0  0  0  0  0
  187.5750  177.6240  146.6710 C   0  0  0  0  0  2  0  0  0  0  0  0
  188.5630  178.0010  148.6150 C   0  0  0  0  0  1  0  0  0  0  0  0
  187.4620  178.3800  147.8400 O   0  0  0  0  0  0  0  0  0  0  0  0
  1 25  1  0  0  0  0
  1  3  1  0  0  0  0
  2  1  2  0  0  0  0
  3 46  1  0  0  0  0
  4  3  2  0  0  0  0
  5  4  1  0  0  0  0
  6  2  1  0  0  0  0
  6  5  2  0  0  0  0
  7 14  1  0  0  0  0
  8 20  1  0  0  0  0
  9 15  1  0  0  0  0
 10 16  1  0  0  0  0
 10 13  1  0  0  0  0
 11 16  1  0  0  0  0
 12 19  2  0  0  0  0
 13  5  1  0  0  0  0
 13 12  1  0  0  0  0
 15  7  1  0  0  0  0
 16 18  1  0  0  0  0
 18 19  1  0  0  0  0
 18 15  1  0  0  0  0
 19  8  1  0  0  0  0
 20 14  1  0  0  0  0
 20 17  1  0  0  0  0
 21 11  1  0  0  0  0
 21 10  1  0  0  0  0
 21 16  1  0  0  0  0
 22 25  1  0  0  0  0
 23 28  1  0  0  0  0
 24 27  2  0  0  0  0
 26 29  2  0  0  0  0
 27 28  1  0  0  0  0
 27 25  1  0  0  0  0
 29 23  1  0  0  0  0
 29 22  1  0  0  0  0
 30 26  1  0  0  0  0
 30 36  1  0  0  0  0
 31 30  2  0  0  0  0
 32 41  1  0  0  0  0
 32 40  1  0  0  0  0
 33 43  1  0  0  0  0
 33 37  1  0  0  0  0
 34 33  2  0  0  0  0
 35 38  2  0  0  0  0
 36 45  1  0  0  0  0
 38 34  1  0  0  0  0
 38 39  1  0  0  0  0
 39 44  2  0  0  0  0
 40 36  1  0  0  0  0
 41 45  1  0  0  0  0
 42 41  1  0  0  0  0
 42 34  1  0  0  0  0
 44 37  1  0  0  0  0
 45 43  2  0  0  0  0
 46 47  1  0  0  0  0
 47 53  1  0  0  0  0
 48 51  2  0  0  0  0
 49 50  2  0  0  0  0
 50 51  1  0  0  0  0
 50 55  1  0  0  0  0
 51 56  1  0  0  0  0
 52 48  1  0  0  0  0
 53 52  2  0  0  0  0
 53 49  1  0  0  0  0
 55 54  1  0  0  0  0
 56 57  1  0  0  0  0
 57 59  1  0  0  0  0
 59 58  1  0  0  0  0
M  END
>  <MODEL>
2

>  <REMARK>
 VINA RESULT:      -9.3      2.371     11.937
  Name = 
  11 active torsions:
  status: ('A' for Active; 'I' for Inactive)
    1  A    between atoms: C_10  and  C_24
    2  A    between atoms: C_10  and  N_44
    3  A    between atoms: C_13  and  C_43
    4  A    between atoms: C_13  and  C_53
    5  A    between atoms: C_14  and  C_32
    6  A    between atoms: C_20  and  C_51
    7  A    between atoms: C_25  and  O_45
    8  A    between atoms: C_29  and  O_52
    9  A    between atoms: C_29  and  O_57
   10  A    between atoms: C_33  and  C_53
   11  A    between atoms: C_36  and  O_57
                            x       y       z     vdW  Elec       q    Type
                         _______ _______ _______ _____ _____    ______ ____

>  <TORSDO>
F 11

$$$$
=
 OpenBabel10232411303D

 59 68  0  0  1  0  0  0  0  0999 V2000
  189.5830  174.8760  136.8620 C   0  0  0  0  0  0  0  0  0  0  0  0
  190.0060  173.7120  136.1940 C   0  0  0  0  0  3  0  0  0  0  0  0
  190.5570  175.7740  137.3570 C   0  0  0  0  0  0  0  0  0  0  0  0
  191.9130  175.4990  137.1580 C   0  0  0  0  0  3  0  0  0  0  0  0
  192.3280  174.3540  136.4700 C   0  0  0  0  0  0  0  0  0  0  0  0
  191.3670  173.4570  135.9940 C   0  0  0  0  0  3  0  0  0  0  0  0
  196.7650  171.2370  137.6110 N   0  0  0  0  0  2  0  0  0  0  0  0
  195.3370  170.9900  134.9730 C   0  0  0  0  0  2  0  0  0  0  0  0
  198.6400  172.7520  137.2360 C   0  0  0  0  0  1  0  0  0  0  0  0
  194.6580  174.7000  137.1200 C   0  0  1  0  0  3  0  0  0  0  0  0
  196.9240  175.1450  137.2370 O   0  0  0  0  0  0  0  0  0  0  0  0
  194.0230  172.9150  135.5100 N   0  0  0  0  0  0  0  0  0  0  0  0
  193.7390  174.2570  135.9790 C   0  0  1  0  0  3  0  0  0  0  0  0
  196.4830  169.9630  136.9600 C   0  0  0  0  0  2  0  0  0  0  0  0
  197.4110  172.1030  136.6270 C   0  0  2  0  0  3  0  0  0  0  0  0
  196.0110  174.1450  137.1500 C   0  0  1  0  0  0  0  0  0  0  0  0
  194.8660  168.6440  135.6230 C   0  0  0  0  0  1  0  0  0  0  0  0
  196.4060  173.1290  136.0550 C   0  0  2  0  0  3  0  0  0  0  0  0
  195.2070  172.4150  135.4410 C   0  0  0  0  0  0  0  0  0  0  0  0
  195.1930  170.0300  136.1450 C   0  0  2  0  0  3  0  0  0  0  0  0
  195.7730  175.4520  136.5300 N   0  0  1  0  0  0  0  0  0  0  0  0
  187.1880  174.0280  136.9320 C   0  0  0  0  0  2  0  0  0  0  0  0
  185.4220  175.5370  135.8850 O   0  0  0  0  0  0  0  0  0  0  0  0
  188.5220  176.4540  134.8620 O   0  0  0  0  0  0  0  0  0  0  0  0
  188.1180  175.2480  136.8840 C   0  0  2  0  0  3  0  0  0  0  0  0
  184.8740  173.3880  136.6450 N   0  0  0  0  0  0  0  0  0  0  0  0
  187.7350  176.1460  135.7400 C   0  0  0  0  0  0  0  0  0  0  0  0
  186.3260  176.6250  135.6970 C   0  0  0  0  0  2  0  0  0  0  0  0
  185.7630  174.3260  136.5150 C   0  0  0  0  0  0  0  0  0  0  0  0
  183.4890  173.5090  136.2730 C   0  0  0  0  0  0  0  0  0  0  0  0
  183.1400  173.4020  135.0670 O   0  0  0  0  0  0  0  0  0  0  0  0
  180.2570  174.5960  136.4420 C   0  0  0  0  0  2  0  0  0  0  0  0
  182.7540  177.4420  138.2820 C   0  0  0  0  0  0  0  0  0  0  0  0
  181.6360  177.9210  137.6890 C   0  0  0  0  0  0  0  0  0  0  0  0
  180.4300  179.8460  137.0130 O   0  0  0  0  0  0  0  0  0  0  0  0
  182.4240  173.7210  137.3190 C   0  0  2  0  0  3  0  0  0  0  0  0
  183.7090  178.3430  139.0250 C   0  0  0  0  0  2  0  0  0  0  0  0
  181.3740  179.3640  137.7000 C   0  0  0  0  0  0  0  0  0  0  0  0
  182.2370  180.2330  138.4340 N   0  0  0  0  0  0  0  0  0  0  0  0
  181.0300  173.3090  136.7890 C   0  0  0  0  0  2  0  0  0  0  0  0
  181.0560  175.6590  137.0040 N   0  0  0  0  0  0  0  0  0  0  0  0
  180.7310  177.0200  137.0280 N   0  0  0  0  0  2  0  0  0  0  0  0
  183.0880  175.9980  138.1920 C   0  0  0  0  0  3  0  0  0  0  0  0
  183.2930  179.7960  139.0480 C   0  0  0  0  0  3  0  0  0  0  0  0
  182.2460  175.1730  137.5640 C   0  0  0  0  0  0  0  0  0  0  0  0
  190.1760  177.0840  137.9900 C   0  0  0  0  0  2  0  0  0  0  0  0
  190.3720  177.0240  139.5020 C   0  0  0  0  0  2  0  0  0  0  0  0
  187.0510  178.6110  140.1630 N   0  0  0  0  0  0  0  0  0  0  0  0
  189.1020  177.4790  141.6130 C   0  0  0  0  0  3  0  0  0  0  0  0
  187.9970  178.0090  142.2850 C   0  0  0  0  0  0  0  0  0  0  0  0
  186.9490  178.5770  141.5210 C   0  0  0  0  0  0  0  0  0  0  0  0
  188.1240  178.1000  139.5040 C   0  0  0  0  0  3  0  0  0  0  0  0
  189.1710  177.5220  140.2200 C   0  0  0  0  0  0  0  0  0  0  0  0
  187.5570  176.8460  144.4400 C   0  0  0  0  0  1  0  0  0  0  0  0
  187.9950  177.9640  143.6880 O   0  0  0  0  0  0  0  0  0  0  0  0
  185.8030  179.0820  142.1470 O   0  0  0  0  0  0  0  0  0  0  0  0
  184.6810  178.2690  142.4880 C   0  0  0  0  0  2  0  0  0  0  0  0
  183.4400  178.9350  144.1960 C   0  0  0  0  0  1  0  0  0  0  0  0
  183.5760  179.0610  142.8100 O   0  0  0  0  0  0  0  0  0  0  0  0
  1 25  1  0  0  0  0
  1  3  1  0  0  0  0
  2  1  2  0  0  0  0
  3 46  1  0  0  0  0
  4  3  2  0  0  0  0
  5  4  1  0  0  0  0
  6  2  1  0  0  0  0
  6  5  2  0  0  0  0
  8 19  1  0  0  0  0
  8 20  1  0  0  0  0
 10 16  1  0  0  0  0
 12 13  1  0  0  0  0
 13  5  1  0  0  0  0
 13 10  1  0  0  0  0
 14  7  1  0  0  0  0
 15  9  1  0  0  0  0
 15  7  1  0  0  0  0
 16 11  1  0  0  0  0
 17 20  1  0  0  0  0
 18 15  1  0  0  0  0
 18 16  1  0  0  0  0
 19 12  2  0  0  0  0
 19 18  1  0  0  0  0
 20 14  1  0  0  0  0
 21 10  1  0  0  0  0
 21 16  1  0  0  0  0
 21 11  1  0  0  0  0
 23 29  1  0  0  0  0
 24 27  2  0  0  0  0
 25 22  1  0  0  0  0
 27 25  1  0  0  0  0
 28 27  1  0  0  0  0
 28 23  1  0  0  0  0
 29 26  2  0  0  0  0
 29 22  1  0  0  0  0
 30 26  1  0  0  0  0
 30 36  1  0  0  0  0
 31 30  2  0  0  0  0
 32 40  1  0  0  0  0
 32 41  1  0  0  0  0
 33 37  1  0  0  0  0
 34 38  1  0  0  0  0
 34 33  2  0  0  0  0
 35 38  2  0  0  0  0
 36 45  1  0  0  0  0
 37 44  1  0  0  0  0
 38 39  1  0  0  0  0
 39 44  2  0  0  0  0
 40 36  1  0  0  0  0
 41 42  1  0  0  0  0
 41 45  1  0  0  0  0
 42 34  1  0  0  0  0
 43 33  1  0  0  0  0
 45 43  2  0  0  0  0
 46 47  1  0  0  0  0
 47 53  1  0  0  0  0
 48 51  2  0  0  0  0
 49 50  2  0  0  0  0
 50 55  1  0  0  0  0
 51 56  1  0  0  0  0
 51 50  1  0  0  0  0
 52 48  1  0  0  0  0
 52 53  2  0  0  0  0
 53 49  1  0  0  0  0
 55 54  1  0  0  0  0
 56 57  1  0  0  0  0
 57 59  1  0  0  0  0
 59 58  1  0  0  0  0
M  END
>  <MODEL>
3

>  <REMARK>
 VINA RESULT:      -8.7      2.387      6.101
  Name = 
  11 active torsions:
  status: ('A' for Active; 'I' for Inactive)
    1  A    between atoms: C_10  and  C_24
    2  A    between atoms: C_10  and  N_44
    3  A    between atoms: C_13  and  C_43
    4  A    between atoms: C_13  and  C_53
    5  A    between atoms: C_14  and  C_32
    6  A    between atoms: C_20  and  C_51
    7  A    between atoms: C_25  and  O_45
    8  A    between atoms: C_29  and  O_52
    9  A    between atoms: C_29  and  O_57
   10  A    between atoms: C_33  and  C_53
   11  A    between atoms: C_36  and  O_57
                            x       y       z     vdW  Elec       q    Type
                         _______ _______ _______ _____ _____    ______ ____

>  <TORSDO>
F 11

$$$$
=
 OpenBabel10232411303D

 59 68  0  0  1  0  0  0  0  0999 V2000
  189.4040  174.8050  137.1480 C   0  0  0  0  0  0  0  0  0  0  0  0
  189.8150  173.8200  136.2310 C   0  0  0  0  0  3  0  0  0  0  0  0
  190.3860  175.5320  137.8580 C   0  0  0  0  0  0  0  0  0  0  0  0
  191.7400  175.2720  137.6240 C   0  0  0  0  0  3  0  0  0  0  0  0
  192.1440  174.3110  136.6920 C   0  0  0  0  0  0  0  0  0  0  0  0
  191.1740  173.5800  136.0000 C   0  0  0  0  0  3  0  0  0  0  0  0
  196.5920  171.1040  137.4830 N   0  0  0  0  0  2  0  0  0  0  0  0
  195.2110  171.2020  134.8110 C   0  0  0  0  0  2  0  0  0  0  0  0
  198.4580  172.6700  137.3480 C   0  0  0  0  0  1  0  0  0  0  0  0
  194.4590  174.5840  137.4240 C   0  0  1  0  0  3  0  0  0  0  0  0
  196.7180  175.0280  137.6390 O   0  0  0  0  0  0  0  0  0  0  0  0
  193.8690  173.0260  135.5780 N   0  0  0  0  0  0  0  0  0  0  0  0
  193.5630  174.2910  136.2180 C   0  0  1  0  0  3  0  0  0  0  0  0
  196.3340  169.9260  136.6620 C   0  0  0  0  0  2  0  0  0  0  0  0
  197.2460  172.0980  136.6350 C   0  0  2  0  0  3  0  0  0  0  0  0
  195.8170  174.0410  137.4020 C   0  0  1  0  0  0  0  0  0  0  0  0
  194.7520  168.7860  135.1320 C   0  0  0  0  0  1  0  0  0  0  0  0
  196.2400  173.1840  136.1880 C   0  0  2  0  0  3  0  0  0  0  0  0
  195.0590  172.5500  135.4640 C   0  0  0  0  0  0  0  0  0  0  0  0
  195.0570  170.0910  135.8410 C   0  0  2  0  0  3  0  0  0  0  0  0
  195.5760  175.4170  136.9590 N   0  0  1  0  0  0  0  0  0  0  0  0
  186.9870  174.0350  136.9690 C   0  0  0  0  0  2  0  0  0  0  0  0
  185.2850  175.8000  136.2800 O   0  0  0  0  0  0  0  0  0  0  0  0
  188.4300  176.8430  135.5620 O   0  0  0  0  0  0  0  0  0  0  0  0
  187.9470  175.2030  137.2300 C   0  0  2  0  0  3  0  0  0  0  0  0
  184.6670  173.5490  136.4950 N   0  0  0  0  0  0  0  0  0  0  0  0
  187.6140  176.3580  136.3260 C   0  0  0  0  0  0  0  0  0  0  0  0
  186.2190  176.8740  136.3740 C   0  0  0  0  0  2  0  0  0  0  0  0
  185.5810  174.4640  136.6090 C   0  0  0  0  0  0  0  0  0  0  0  0
  183.2940  173.7960  136.1370 C   0  0  0  0  0  0  0  0  0  0  0  0
  182.9940  174.1500  134.9660 O   0  0  0  0  0  0  0  0  0  0  0  0
  180.0210  174.6770  136.5380 C   0  0  0  0  0  2  0  0  0  0  0  0
  182.3460  176.7210  139.3910 C   0  0  0  0  0  0  0  0  0  0  0  0
  181.2330  177.3570  138.9600 C   0  0  0  0  0  0  0  0  0  0  0  0
  179.9820  179.3700  138.9670 O   0  0  0  0  0  0  0  0  0  0  0  0
  182.1870  173.5920  137.1400 C   0  0  2  0  0  3  0  0  0  0  0  0
  183.2410  177.3130  140.4520 C   0  0  0  0  0  2  0  0  0  0  0  0
  180.9180  178.6930  139.4770 C   0  0  0  0  0  0  0  0  0  0  0  0
  181.7220  179.2570  140.5130 N   0  0  0  0  0  0  0  0  0  0  0  0
  180.8280  173.3700  136.4340 C   0  0  0  0  0  2  0  0  0  0  0  0
  180.7610  175.4830  137.4810 N   0  0  0  0  0  0  0  0  0  0  0  0
  180.3850  176.7370  137.9780 N   0  0  0  0  0  2  0  0  0  0  0  0
  182.7360  175.4140  138.8030 C   0  0  0  0  0  3  0  0  0  0  0  0
  182.7710  178.6500  140.9770 C   0  0  0  0  0  3  0  0  0  0  0  0
  181.9480  174.8530  137.8830 C   0  0  0  0  0  0  0  0  0  0  0  0
  190.0210  176.6670  138.7760 C   0  0  0  0  0  2  0  0  0  0  0  0
  191.1450  176.9270  139.7750 C   0  0  0  0  0  2  0  0  0  0  0  0
  190.9460  177.5380  143.4590 N   0  0  0  0  0  0  0  0  0  0  0  0
  189.2400  177.5070  141.2960 C   0  0  0  0  0  3  0  0  0  0  0  0
  188.7270  177.7630  142.5700 C   0  0  0  0  0  0  0  0  0  0  0  0
  189.6220  177.7850  143.6670 C   0  0  0  0  0  0  0  0  0  0  0  0
  191.4490  177.2860  142.2220 C   0  0  0  0  0  3  0  0  0  0  0  0
  190.6030  177.2670  141.1160 C   0  0  0  0  0  0  0  0  0  0  0  0
  186.5800  178.7520  141.7940 C   0  0  0  0  0  1  0  0  0  0  0  0
  187.3450  177.9690  142.6950 O   0  0  0  0  0  0  0  0  0  0  0  0
  189.1620  178.0780  144.9570 O   0  0  0  0  0  0  0  0  0  0  0  0
  189.5830  177.3590  146.1150 C   0  0  0  0  0  2  0  0  0  0  0  0
  187.5010  177.6670  146.8000 C   0  0  0  0  0  1  0  0  0  0  0  0
  188.8300  177.7330  147.2300 O   0  0  0  0  0  0  0  0  0  0  0  0
  1 25  1  0  0  0  0
  1  3  1  0  0  0  0
  2  1  2  0  0  0  0
  3 46  1  0  0  0  0
  4  3  2  0  0  0  0
  5  4  1  0  0  0  0
  6  2  1  0  0  0  0
  6  5  2  0  0  0  0
  8 19  1  0  0  0  0
  8 20  1  0  0  0  0
 12 13  1  0  0  0  0
 13  5  1  0  0  0  0
 13 10  1  0  0  0  0
 14  7  1  0  0  0  0
 15  9  1  0  0  0  0
 15  7  1  0  0  0  0
 16 10  1  0  0  0  0
 16 11  1  0  0  0  0
 17 20  1  0  0  0  0
 18 15  1  0  0  0  0
 18 16  1  0  0  0  0
 19 12  2  0  0  0  0
 19 18  1  0  0  0  0
 20 14  1  0  0  0  0
 21 16  1  0  0  0  0
 21 10  1  0  0  0  0
 21 11  1  0  0  0  0
 22 25  1  0  0  0  0
 23 28  1  0  0  0  0
 23 29  1  0  0  0  0
 24 27  2  0  0  0  0
 26 29  2  0  0  0  0
 27 28  1  0  0  0  0
 27 25  1  0  0  0  0
 29 22  1  0  0  0  0
 30 26  1  0  0  0  0
 30 36  1  0  0  0  0
 31 30  2  0  0  0  0
 32 41  1  0  0  0  0
 33 37  1  0  0  0  0
 34 33  2  0  0  0  0
 34 38  1  0  0  0  0
 35 38  2  0  0  0  0
 36 45  1  0  0  0  0
 37 44  1  0  0  0  0
 38 39  1  0  0  0  0
 39 44  2  0  0  0  0
 40 32  1  0  0  0  0
 40 36  1  0  0  0  0
 41 45  1  0  0  0  0
 41 42  1  0  0  0  0
 42 34  1  0  0  0  0
 43 33  1  0  0  0  0
 45 43  2  0  0  0  0
 46 47  1  0  0  0  0
 47 53  1  0  0  0  0
 48 51  2  0  0  0  0
 49 50  2  0  0  0  0
 50 55  1  0  0  0  0
 50 51  1  0  0  0  0
 51 56  1  0  0  0  0
 52 48  1  0  0  0  0
 53 49  1  0  0  0  0
 53 52  2  0  0  0  0
 54 55  1  0  0  0  0
 56 57  1  0  0  0  0
 57 59  1  0  0  0  0
 58 59  1  0  0  0  0
M  END
>  <MODEL>
4

>  <REMARK>
 VINA RESULT:      -8.7      2.485      6.421
  Name = 
  11 active torsions:
  status: ('A' for Active; 'I' for Inactive)
    1  A    between atoms: C_10  and  C_24
    2  A    between atoms: C_10  and  N_44
    3  A    between atoms: C_13  and  C_43
    4  A    between atoms: C_13  and  C_53
    5  A    between atoms: C_14  and  C_32
    6  A    between atoms: C_20  and  C_51
    7  A    between atoms: C_25  and  O_45
    8  A    between atoms: C_29  and  O_52
    9  A    between atoms: C_29  and  O_57
   10  A    between atoms: C_33  and  C_53
   11  A    between atoms: C_36  and  O_57
                            x       y       z     vdW  Elec       q    Type
                         _______ _______ _______ _____ _____    ______ ____

>  <TORSDO>
F 11

$$$$
=
 OpenBabel10232411303D

 59 68  0  0  1  0  0  0  0  0999 V2000
  191.1900  176.3410  138.4800 C   0  0  0  0  0  0  0  0  0  0  0  0
  192.5110  176.8210  138.5480 C   0  0  0  0  0  3  0  0  0  0  0  0
  190.8020  175.5610  137.3670 C   0  0  0  0  0  0  0  0  0  0  0  0
  191.7370  175.2680  136.3700 C   0  0  0  0  0  3  0  0  0  0  0  0
  193.0560  175.7250  136.4550 C   0  0  0  0  0  0  0  0  0  0  0  0
  193.4370  176.5110  137.5470 C   0  0  0  0  0  3  0  0  0  0  0  0
  197.5260  172.5250  137.1400 N   0  0  0  0  0  2  0  0  0  0  0  0
  195.0800  171.4850  135.7280 C   0  0  0  0  0  2  0  0  0  0  0  0
  199.0510  173.2910  135.3960 C   0  0  0  0  0  1  0  0  0  0  0  0
  195.4350  175.8060  135.9050 C   0  0  1  0  0  3  0  0  0  0  0  0
  197.5220  175.7600  134.9100 O   0  0  0  0  0  0  0  0  0  0  0  0
  194.1470  173.6860  135.7350 N   0  0  0  0  0  0  0  0  0  0  0  0
  194.1050  175.1270  135.5720 C   0  0  1  0  0  3  0  0  0  0  0  0
  196.9810  171.1880  137.3460 C   0  0  0  0  0  2  0  0  0  0  0  0
  197.6760  172.7240  135.7000 C   0  0  2  0  0  3  0  0  0  0  0  0
  196.6590  175.0410  135.6730 C   0  0  1  0  0  0  0  0  0  0  0  0
  194.9340  169.8060  137.5470 C   0  0  0  0  0  1  0  0  0  0  0  0
  196.5260  173.5950  135.1440 C   0  0  2  0  0  3  0  0  0  0  0  0
  195.1770  172.9640  135.4650 C   0  0  0  0  0  0  0  0  0  0  0  0
  195.4630  171.1750  137.1680 C   0  0  2  0  0  3  0  0  0  0  0  0
  196.1780  175.9740  134.6490 N   0  0  1  0  0  0  0  0  0  0  0  0
  188.9300  177.1660  139.3010 C   0  0  0  0  0  2  0  0  0  0  0  0
  188.8030  177.8720  141.7460 O   0  0  0  0  0  0  0  0  0  0  0  0
  192.0330  177.7030  140.7280 O   0  0  0  0  0  0  0  0  0  0  0  0
  190.2630  176.5000  139.6650 C   0  0  2  0  0  3  0  0  0  0  0  0
  186.9870  178.2040  140.3000 N   0  0  0  0  0  0  0  0  0  0  0  0
  190.9120  177.2300  140.8080 C   0  0  0  0  0  0  0  0  0  0  0  0
  190.1100  177.3890  142.0520 C   0  0  0  0  0  2  0  0  0  0  0  0
  188.1840  177.7350  140.4900 C   0  0  0  0  0  0  0  0  0  0  0  0
  186.1630  178.7960  141.3210 C   0  0  0  0  0  0  0  0  0  0  0  0
  186.1320  180.0460  141.4710 O   0  0  0  0  0  0  0  0  0  0  0  0
  183.6640  179.2030  143.6110 C   0  0  0  0  0  2  0  0  0  0  0  0
  187.1250  177.8550  145.5910 C   0  0  0  0  0  0  0  0  0  0  0  0
  186.2980  178.6500  146.3070 C   0  0  0  0  0  0  0  0  0  0  0  0
  185.9830  179.8760  148.3110 O   0  0  0  0  0  0  0  0  0  0  0  0
  185.2890  177.9370  142.2000 C   0  0  2  0  0  3  0  0  0  0  0  0
  188.3720  177.2560  146.1930 C   0  0  0  0  0  2  0  0  0  0  0  0
  186.6520  179.0050  147.6850 C   0  0  0  0  0  0  0  0  0  0  0  0
  187.8020  178.4180  148.2940 N   0  0  0  0  0  0  0  0  0  0  0  0
  183.8440  178.4890  142.2580 C   0  0  0  0  0  2  0  0  0  0  0  0
  184.8350  178.8340  144.3710 N   0  0  0  0  0  0  0  0  0  0  0  0
  185.0970  179.1640  145.7060 N   0  0  0  0  0  2  0  0  0  0  0  0
  186.8360  177.5680  144.1630 C   0  0  0  0  0  3  0  0  0  0  0  0
  188.5900  177.6170  147.6440 C   0  0  0  0  0  3  0  0  0  0  0  0
  185.7250  178.0610  143.6120 C   0  0  0  0  0  0  0  0  0  0  0  0
  189.4390  174.9300  137.2800 C   0  0  0  0  0  2  0  0  0  0  0  0
  189.5440  173.5030  136.7480 C   0  0  0  0  0  2  0  0  0  0  0  0
  186.8670  171.2700  135.3950 N   0  0  0  0  0  0  0  0  0  0  0  0
  187.0430  173.6290  136.8080 C   0  0  0  0  0  3  0  0  0  0  0  0
  185.7840  173.1290  136.4600 C   0  0  0  0  0  0  0  0  0  0  0  0
  185.7160  171.9100  135.7430 C   0  0  0  0  0  0  0  0  0  0  0  0
  188.0930  171.7530  135.7280 C   0  0  0  0  0  3  0  0  0  0  0  0
  188.2020  172.9440  136.4430 C   0  0  0  0  0  0  0  0  0  0  0  0
  184.6540  175.2840  136.9790 C   0  0  0  0  0  1  0  0  0  0  0  0
  184.6550  173.8750  136.8280 O   0  0  0  0  0  0  0  0  0  0  0  0
  184.4780  171.3480  135.4100 O   0  0  0  0  0  0  0  0  0  0  0  0
  183.6650  170.6440  136.3480 C   0  0  0  0  0  2  0  0  0  0  0  0
  183.5170  168.9930  134.8810 C   0  0  0  0  0  1  0  0  0  0  0  0
  183.8380  169.2640  136.2150 O   0  0  0  0  0  0  0  0  0  0  0  0
  1  2  1  0  0  0  0
  1 25  1  0  0  0  0
  3  1  2  0  0  0  0
  4  5  2  0  0  0  0
  4  3  1  0  0  0  0
  5  6  1  0  0  0  0
  6  2  2  0  0  0  0
  7 14  1  0  0  0  0
  8 20  1  0  0  0  0
  9 15  1  0  0  0  0
 11 16  1  0  0  0  0
 13 12  1  0  0  0  0
 13 10  1  0  0  0  0
 13  5  1  0  0  0  0
 15  7  1  0  0  0  0
 16 10  1  0  0  0  0
 18 19  1  0  0  0  0
 18 16  1  0  0  0  0
 18 15  1  0  0  0  0
 19  8  1  0  0  0  0
 19 12  2  0  0  0  0
 20 14  1  0  0  0  0
 20 17  1  0  0  0  0
 21 11  1  0  0  0  0
 21 16  1  0  0  0  0
 21 10  1  0  0  0  0
 22 25  1  0  0  0  0
 22 29  1  0  0  0  0
 23 28  1  0  0  0  0
 24 27  2  0  0  0  0
 25 27  1  0  0  0  0
 26 29  2  0  0  0  0
 26 30  1  0  0  0  0
 27 28  1  0  0  0  0
 29 23  1  0  0  0  0
 30 31  2  0  0  0  0
 30 36  1  0  0  0  0
 32 41  1  0  0  0  0
 33 37  1  0  0  0  0
 33 34  2  0  0  0  0
 34 38  1  0  0  0  0
 36 40  1  0  0  0  0
 36 45  1  0  0  0  0
 37 44  1  0  0  0  0
 38 39  1  0  0  0  0
 38 35  2  0  0  0  0
 40 32  1  0  0  0  0
 41 42  1  0  0  0  0
 42 34  1  0  0  0  0
 43 33  1  0  0  0  0
 44 39  2  0  0  0  0
 45 43  2  0  0  0  0
 45 41  1  0  0  0  0
 46  3  1  0  0  0  0
 47 46  1  0  0  0  0
 48 52  1  0  0  0  0
 48 51  2  0  0  0  0
 50 49  2  0  0  0  0
 50 55  1  0  0  0  0
 51 50  1  0  0  0  0
 52 53  2  0  0  0  0
 53 47  1  0  0  0  0
 53 49  1  0  0  0  0
 55 54  1  0  0  0  0
 56 51  1  0  0  0  0
 56 57  1  0  0  0  0
 58 59  1  0  0  0  0
 59 57  1  0  0  0  0
M  END
>  <MODEL>
5

>  <REMARK>
 VINA RESULT:      -8.6      1.562      2.749
  Name = 
  11 active torsions:
  status: ('A' for Active; 'I' for Inactive)
    1  A    between atoms: C_10  and  C_24
    2  A    between atoms: C_10  and  N_44
    3  A    between atoms: C_13  and  C_43
    4  A    between atoms: C_13  and  C_53
    5  A    between atoms: C_14  and  C_32
    6  A    between atoms: C_20  and  C_51
    7  A    between atoms: C_25  and  O_45
    8  A    between atoms: C_29  and  O_52
    9  A    between atoms: C_29  and  O_57
   10  A    between atoms: C_33  and  C_53
   11  A    between atoms: C_36  and  O_57
                            x       y       z     vdW  Elec       q    Type
                         _______ _______ _______ _____ _____    ______ ____

>  <TORSDO>
F 11

$$$$
=
 OpenBabel10232411303D

 59 68  0  0  1  0  0  0  0  0999 V2000
  187.9160  175.2980  136.7770 C   0  0  0  0  0  0  0  0  0  0  0  0
  188.4110  174.3670  135.8440 C   0  0  0  0  0  3  0  0  0  0  0  0
  188.8220  175.9370  137.6530 C   0  0  0  0  0  0  0  0  0  0  0  0
  190.1870  175.6480  137.5650 C   0  0  0  0  0  3  0  0  0  0  0  0
  190.6780  174.7430  136.6190 C   0  0  0  0  0  0  0  0  0  0  0  0
  189.7810  174.0980  135.7620 C   0  0  0  0  0  3  0  0  0  0  0  0
  194.9590  171.4710  137.9080 N   0  0  0  0  0  2  0  0  0  0  0  0
  193.9110  171.6100  135.0900 C   0  0  0  0  0  2  0  0  0  0  0  0
  196.8460  173.0130  138.0140 C   0  0  0  0  0  1  0  0  0  0  0  0
  192.8900  174.9800  137.6260 C   0  0  1  0  0  3  0  0  0  0  0  0
  195.1130  175.3910  138.1170 O   0  0  0  0  0  0  0  0  0  0  0  0
  192.5080  173.4450  135.7080 N   0  0  0  0  0  0  0  0  0  0  0  0
  192.1440  174.7090  136.3190 C   0  0  1  0  0  3  0  0  0  0  0  0
  194.7870  170.3030  137.0510 C   0  0  0  0  0  2  0  0  0  0  0  0
  195.7220  172.4640  137.1550 C   0  0  2  0  0  3  0  0  0  0  0  0
  194.2340  174.4180  137.7640 C   0  0  1  0  0  0  0  0  0  0  0  0
  193.3880  169.1970  135.3300 C   0  0  0  0  0  1  0  0  0  0  0  0
  194.7910  173.5660  136.6010 C   0  0  2  0  0  3  0  0  0  0  0  0
  193.6980  172.9540  135.7330 C   0  0  0  0  0  0  0  0  0  0  0  0
  193.6200  170.4930  136.0830 C   0  0  2  0  0  3  0  0  0  0  0  0
  194.0650  175.8020  137.3090 N   0  0  1  0  0  0  0  0  0  0  0  0
  185.5040  174.7290  137.3450 C   0  0  0  0  0  2  0  0  0  0  0  0
  183.7170  175.7440  135.8390 O   0  0  0  0  0  0  0  0  0  0  0  0
  186.7580  175.9100  134.3480 O   0  0  0  0  0  0  0  0  0  0  0  0
  186.4710  175.7390  136.7130 C   0  0  2  0  0  3  0  0  0  0  0  0
  183.1520  174.1850  137.4970 N   0  0  0  0  0  0  0  0  0  0  0  0
  186.0320  176.0700  135.3130 C   0  0  0  0  0  0  0  0  0  0  0  0
  184.6420  176.5770  135.1420 C   0  0  0  0  0  2  0  0  0  0  0  0
  184.0620  174.9100  136.9180 C   0  0  0  0  0  0  0  0  0  0  0  0
  181.7470  174.2260  137.1860 C   0  0  0  0  0  0  0  0  0  0  0  0
  181.2400  173.3690  136.4140 O   0  0  0  0  0  0  0  0  0  0  0  0
  180.6750  177.4010  136.5390 C   0  0  0  0  0  2  0  0  0  0  0  0
  183.2330  177.4770  139.8810 C   0  0  0  0  0  0  0  0  0  0  0  0
  183.2270  178.5860  139.1080 C   0  0  0  0  0  0  0  0  0  0  0  0
  184.2340  180.6840  138.6560 O   0  0  0  0  0  0  0  0  0  0  0  0
  180.8480  175.2610  137.8120 C   0  0  2  0  0  3  0  0  0  0  0  0
  184.0610  177.3890  141.1400 C   0  0  0  0  0  2  0  0  0  0  0  0
  184.1010  179.7130  139.4530 C   0  0  0  0  0  0  0  0  0  0  0  0
  184.8600  179.6740  140.6610 N   0  0  0  0  0  0  0  0  0  0  0  0
  180.0320  176.0160  136.7360 C   0  0  0  0  0  2  0  0  0  0  0  0
  181.6140  177.5200  137.6290 N   0  0  0  0  0  0  0  0  0  0  0  0
  182.3900  178.6440  137.9400 N   0  0  0  0  0  2  0  0  0  0  0  0
  182.4330  176.2880  139.4910 C   0  0  0  0  0  3  0  0  0  0  0  0
  184.8520  178.6400  141.4450 C   0  0  0  0  0  3  0  0  0  0  0  0
  181.6690  176.3480  138.3970 C   0  0  0  0  0  0  0  0  0  0  0  0
  188.3760  177.0140  138.6040 C   0  0  0  0  0  2  0  0  0  0  0  0
  189.5460  177.9270  138.9610 C   0  0  0  0  0  2  0  0  0  0  0  0
  191.9060  177.1660  141.7600 N   0  0  0  0  0  0  0  0  0  0  0  0
  189.1880  177.4160  141.3870 C   0  0  0  0  0  3  0  0  0  0  0  0
  189.6780  177.0730  142.6510 C   0  0  0  0  0  0  0  0  0  0  0  0
  191.0790  176.9600  142.8230 C   0  0  0  0  0  0  0  0  0  0  0  0
  191.4340  177.4980  140.5290 C   0  0  0  0  0  3  0  0  0  0  0  0
  190.0630  177.6300  140.3220 C   0  0  0  0  0  0  0  0  0  0  0  0
  187.3460  176.8350  143.4850 C   0  0  0  0  0  1  0  0  0  0  0  0
  188.7500  176.8420  143.6770 O   0  0  0  0  0  0  0  0  0  0  0  0
  191.6200  176.6590  144.0790 O   0  0  0  0  0  0  0  0  0  0  0  0
  191.4560  177.5030  145.2180 C   0  0  0  0  0  2  0  0  0  0  0  0
  192.0810  175.8310  146.5270 C   0  0  0  0  0  1  0  0  0  0  0  0
  191.0540  176.7590  146.3310 O   0  0  0  0  0  0  0  0  0  0  0  0
  1  3  1  0  0  0  0
  2  1  2  0  0  0  0
  3 46  1  0  0  0  0
  4  3  2  0  0  0  0
  5  4  1  0  0  0  0
  6  2  1  0  0  0  0
  6  5  2  0  0  0  0
  8 19  1  0  0  0  0
  8 20  1  0  0  0  0
 10 16  1  0  0  0  0
 12 19  2  0  0  0  0
 12 13  1  0  0  0  0
 13  5  1  0  0  0  0
 13 10  1  0  0  0  0
 14  7  1  0  0  0  0
 15  7  1  0  0  0  0
 15  9  1  0  0  0  0
 16 11  1  0  0  0  0
 17 20  1  0  0  0  0
 18 15  1  0  0  0  0
 18 16  1  0  0  0  0
 19 18  1  0  0  0  0
 20 14  1  0  0  0  0
 21 10  1  0  0  0  0
 21 16  1  0  0  0  0
 21 11  1  0  0  0  0
 23 29  1  0  0  0  0
 24 27  2  0  0  0  0
 25  1  1  0  0  0  0
 25 22  1  0  0  0  0
 27 25  1  0  0  0  0
 28 27  1  0  0  0  0
 28 23  1  0  0  0  0
 29 22  1  0  0  0  0
 29 26  2  0  0  0  0
 30 26  1  0  0  0  0
 30 36  1  0  0  0  0
 31 30  2  0  0  0  0
 32 40  1  0  0  0  0
 32 41  1  0  0  0  0
 33 37  1  0  0  0  0
 34 38  1  0  0  0  0
 34 33  2  0  0  0  0
 35 38  2  0  0  0  0
 36 45  1  0  0  0  0
 37 44  1  0  0  0  0
 38 39  1  0  0  0  0
 39 44  2  0  0  0  0
 40 36  1  0  0  0  0
 41 42  1  0  0  0  0
 41 45  1  0  0  0  0
 42 34  1  0  0  0  0
 43 33  1  0  0  0  0
 45 43  2  0  0  0  0
 46 47  1  0  0  0  0
 47 53  1  0  0  0  0
 48 51  2  0  0  0  0
 49 50  2  0  0  0  0
 50 51  1  0  0  0  0
 50 55  1  0  0  0  0
 51 56  1  0  0  0  0
 52 48  1  0  0  0  0
 53 52  2  0  0  0  0
 53 49  1  0  0  0  0
 54 55  1  0  0  0  0
 56 57  1  0  0  0  0
 57 59  1  0  0  0  0
 59 58  1  0  0  0  0
M  END
>  <MODEL>
6

>  <REMARK>
 VINA RESULT:      -8.2      2.627      6.508
  Name = 
  11 active torsions:
  status: ('A' for Active; 'I' for Inactive)
    1  A    between atoms: C_10  and  C_24
    2  A    between atoms: C_10  and  N_44
    3  A    between atoms: C_13  and  C_43
    4  A    between atoms: C_13  and  C_53
    5  A    between atoms: C_14  and  C_32
    6  A    between atoms: C_20  and  C_51
    7  A    between atoms: C_25  and  O_45
    8  A    between atoms: C_29  and  O_52
    9  A    between atoms: C_29  and  O_57
   10  A    between atoms: C_33  and  C_53
   11  A    between atoms: C_36  and  O_57
                            x       y       z     vdW  Elec       q    Type
                         _______ _______ _______ _____ _____    ______ ____

>  <TORSDO>
F 11

$$$$
=
 OpenBabel10232411303D

 59 68  0  0  1  0  0  0  0  0999 V2000
  191.3000  177.0150  140.6870 C   0  0  0  0  0  0  0  0  0  0  0  0
  192.7050  176.9220  140.7020 C   0  0  0  0  0  3  0  0  0  0  0  0
  190.6240  176.9720  139.4470 C   0  0  0  0  0  0  0  0  0  0  0  0
  191.3570  176.8200  138.2660 C   0  0  0  0  0  3  0  0  0  0  0  0
  192.7510  176.7020  138.2870 C   0  0  0  0  0  0  0  0  0  0  0  0
  193.4230  176.7610  139.5120 C   0  0  0  0  0  3  0  0  0  0  0  0
  193.2240  171.8840  135.5930 N   0  0  0  0  0  2  0  0  0  0  0  0
  191.7690  174.2110  134.3580 C   0  0  0  0  0  2  0  0  0  0  0  0
  195.4960  171.9460  134.7050 C   0  0  0  0  0  1  0  0  0  0  0  0
  194.5440  175.2230  137.5370 C   0  0  1  0  0  3  0  0  0  0  0  0
  196.2980  174.1740  136.4540 O   0  0  0  0  0  0  0  0  0  0  0  0
  192.5340  175.6230  136.1300 N   0  0  0  0  0  0  0  0  0  0  0  0
  193.4690  176.2070  137.0710 C   0  0  1  0  0  3  0  0  0  0  0  0
  191.9670  171.7570  134.8650 C   0  0  0  0  0  2  0  0  0  0  0  0
  194.1480  172.6420  134.7520 C   0  0  2  0  0  3  0  0  0  0  0  0
  194.9490  174.1740  136.6010 C   0  0  1  0  0  0  0  0  0  0  0  0
  189.7550  172.7630  134.3790 C   0  0  0  0  0  1  0  0  0  0  0  0
  194.2420  174.1100  135.2280 C   0  0  2  0  0  3  0  0  0  0  0  0
  192.8630  174.7580  135.2360 C   0  0  0  0  0  0  0  0  0  0  0  0
  191.1070  173.0100  135.0190 C   0  0  2  0  0  3  0  0  0  0  0  0
  195.7260  175.4140  136.6860 N   0  0  1  0  0  0  0  0  0  0  0  0
  189.0120  177.1310  141.7880 C   0  0  0  0  0  2  0  0  0  0  0  0
  188.9530  177.9800  144.1890 O   0  0  0  0  0  0  0  0  0  0  0  0
  191.9030  178.7800  142.7220 O   0  0  0  0  0  0  0  0  0  0  0  0
  190.5250  176.9730  141.9850 C   0  0  2  0  0  3  0  0  0  0  0  0
  186.9700  177.5670  143.0080 N   0  0  0  0  0  0  0  0  0  0  0  0
  191.0250  177.9770  142.9870 C   0  0  0  0  0  0  0  0  0  0  0  0
  190.3730  177.9800  144.3250 C   0  0  0  0  0  2  0  0  0  0  0  0
  188.2680  177.5330  143.0440 C   0  0  0  0  0  0  0  0  0  0  0  0
  186.1260  177.9490  144.1090 C   0  0  0  0  0  0  0  0  0  0  0  0
  186.1380  177.2880  145.1820 O   0  0  0  0  0  0  0  0  0  0  0  0
  182.8610  178.7890  144.6490 C   0  0  0  0  0  2  0  0  0  0  0  0
  183.6480  178.9470  140.5170 C   0  0  0  0  0  0  0  0  0  0  0  0
  182.3860  178.6140  140.8730 C   0  0  0  0  0  0  0  0  0  0  0  0
  180.2680  177.8410  140.1430 O   0  0  0  0  0  0  0  0  0  0  0  0
  185.2460  179.1710  144.0200 C   0  0  2  0  0  3  0  0  0  0  0  0
  184.0540  179.0940  139.0710 C   0  0  0  0  0  2  0  0  0  0  0  0
  181.3970  178.3140  139.8320 C   0  0  0  0  0  0  0  0  0  0  0  0
  181.7410  178.4890  138.4580 N   0  0  0  0  0  0  0  0  0  0  0  0
  184.2370  179.2190  145.1920 C   0  0  0  0  0  2  0  0  0  0  0  0
  183.0290  178.7730  143.2150 N   0  0  0  0  0  0  0  0  0  0  0  0
  182.0310  178.5260  142.2640 N   0  0  0  0  0  2  0  0  0  0  0  0
  184.6890  179.1530  141.5560 C   0  0  0  0  0  3  0  0  0  0  0  0
  182.9320  178.8490  138.0880 C   0  0  0  0  0  3  0  0  0  0  0  0
  184.3510  179.0570  142.8440 C   0  0  0  0  0  0  0  0  0  0  0  0
  189.1220  176.9630  139.3650 C   0  0  0  0  0  2  0  0  0  0  0  0
  188.6470  177.7940  138.1770 C   0  0  0  0  0  2  0  0  0  0  0  0
  185.5670  177.2840  136.1180 N   0  0  0  0  0  0  0  0  0  0  0  0
  187.3190  175.7520  137.5930 C   0  0  0  0  0  3  0  0  0  0  0  0
  186.2240  175.1400  136.9760 C   0  0  0  0  0  0  0  0  0  0  0  0
  185.3420  175.9430  136.2140 C   0  0  0  0  0  0  0  0  0  0  0  0
  186.6290  177.8840  136.7180 C   0  0  0  0  0  3  0  0  0  0  0  0
  187.5260  177.1260  137.4670 C   0  0  0  0  0  0  0  0  0  0  0  0
  186.5810  172.7750  136.2910 C   0  0  0  0  0  1  0  0  0  0  0  0
  186.0510  173.7600  137.1600 O   0  0  0  0  0  0  0  0  0  0  0  0
  184.2560  175.3700  135.5420 O   0  0  0  0  0  0  0  0  0  0  0  0
  182.9020  175.5470  135.9580 C   0  0  0  0  0  2  0  0  0  0  0  0
  181.3720  175.0290  137.4710 C   0  0  0  0  0  1  0  0  0  0  0  0
  182.7490  175.2030  137.3040 O   0  0  0  0  0  0  0  0  0  0  0  0
  1  2  1  0  0  0  0
  1 25  1  0  0  0  0
  3  1  2  0  0  0  0
  4  5  2  0  0  0  0
  4  3  1  0  0  0  0
  5  6  1  0  0  0  0
  6  2  2  0  0  0  0
  8 20  1  0  0  0  0
  8 19  1  0  0  0  0
  9 15  1  0  0  0  0
 11 16  1  0  0  0  0
 11 21  1  0  0  0  0
 12 13  1  0  0  0  0
 13 10  1  0  0  0  0
 13  5  1  0  0  0  0
 14 20  1  0  0  0  0
 14  7  1  0  0  0  0
 15 18  1  0  0  0  0
 15  7  1  0  0  0  0
 16 21  1  0  0  0  0
 16 10  1  0  0  0  0
 17 20  1  0  0  0  0
 18 19  1  0  0  0  0
 18 16  1  0  0  0  0
 19 12  2  0  0  0  0
 21 10  1  0  0  0  0
 22 25  1  0  0  0  0
 22 29  1  0  0  0  0
 23 28  1  0  0  0  0
 24 27  2  0  0  0  0
 25 27  1  0  0  0  0
 26 29  2  0  0  0  0
 26 30  1  0  0  0  0
 27 28  1  0  0  0  0
 29 23  1  0  0  0  0
 30 31  2  0  0  0  0
 32 40  1  0  0  0  0
 33 34  2  0  0  0  0
 33 43  1  0  0  0  0
 34 42  1  0  0  0  0
 36 30  1  0  0  0  0
 36 40  1  0  0  0  0
 37 33  1  0  0  0  0
 38 35  2  0  0  0  0
 38 34  1  0  0  0  0
 39 38  1  0  0  0  0
 41 32  1  0  0  0  0
 42 41  1  0  0  0  0
 43 45  2  0  0  0  0
 44 39  2  0  0  0  0
 44 37  1  0  0  0  0
 45 41  1  0  0  0  0
 45 36  1  0  0  0  0
 46  3  1  0  0  0  0
 47 46  1  0  0  0  0
 48 51  2  0  0  0  0
 48 52  1  0  0  0  0
 50 55  1  0  0  0  0
 50 49  2  0  0  0  0
 51 50  1  0  0  0  0
 52 53  2  0  0  0  0
 53 49  1  0  0  0  0
 53 47  1  0  0  0  0
 54 55  1  0  0  0  0
 56 57  1  0  0  0  0
 56 51  1  0  0  0  0
 57 59  1  0  0  0  0
 59 58  1  0  0  0  0
M  END
>  <MODEL>
7

>  <REMARK>
 VINA RESULT:      -8.0      2.245      4.312
  Name = 
  11 active torsions:
  status: ('A' for Active; 'I' for Inactive)
    1  A    between atoms: C_10  and  C_24
    2  A    between atoms: C_10  and  N_44
    3  A    between atoms: C_13  and  C_43
    4  A    between atoms: C_13  and  C_53
    5  A    between atoms: C_14  and  C_32
    6  A    between atoms: C_20  and  C_51
    7  A    between atoms: C_25  and  O_45
    8  A    between atoms: C_29  and  O_52
    9  A    between atoms: C_29  and  O_57
   10  A    between atoms: C_33  and  C_53
   11  A    between atoms: C_36  and  O_57
                            x       y       z     vdW  Elec       q    Type
                         _______ _______ _______ _____ _____    ______ ____

>  <TORSDO>
F 11

$$$$
=
 OpenBabel10232411303D

 59 68  0  0  1  0  0  0  0  0999 V2000
  187.2700  176.5390  136.0890 C   0  0  0  0  0  0  0  0  0  0  0  0
  186.0890  176.3820  135.3380 C   0  0  0  0  0  3  0  0  0  0  0  0
  187.1890  177.1030  137.3820 C   0  0  0  0  0  0  0  0  0  0  0  0
  185.9430  177.4770  137.8950 C   0  0  0  0  0  3  0  0  0  0  0  0
  184.7700  177.2950  137.1570 C   0  0  0  0  0  0  0  0  0  0  0  0
  184.8490  176.7520  135.8710 C   0  0  0  0  0  3  0  0  0  0  0  0
  181.2210  181.3200  138.5340 N   0  0  0  0  0  2  0  0  0  0  0  0
  180.5190  179.2960  136.4200 C   0  0  0  0  0  2  0  0  0  0  0  0
  180.2220  180.5170  140.6110 C   0  0  0  0  0  1  0  0  0  0  0  0
  183.6560  178.1060  139.1740 C   0  0  1  0  0  3  0  0  0  0  0  0
  182.2960  178.4650  141.0100 O   0  0  0  0  0  0  0  0  0  0  0  0
  182.4690  178.0340  136.9900 N   0  0  0  0  0  0  0  0  0  0  0  0
  183.4430  177.3810  137.8430 C   0  0  1  0  0  3  0  0  0  0  0  0
  180.5580  181.6580  137.2800 C   0  0  0  0  0  2  0  0  0  0  0  0
  180.4770  180.2200  139.1440 C   0  0  2  0  0  3  0  0  0  0  0  0
  182.5220  178.8470  139.7270 C   0  0  1  0  0  0  0  0  0  0  0  0
  180.3980  181.2090  134.8470 C   0  0  0  0  0  1  0  0  0  0  0  0
  181.2050  178.8750  138.9180 C   0  0  2  0  0  3  0  0  0  0  0  0
  181.4140  178.6260  137.4290 C   0  0  0  0  0  0  0  0  0  0  0  0
  180.9900  180.7190  136.1540 C   0  0  2  0  0  3  0  0  0  0  0  0
  182.7840  177.4750  140.1730 N   0  0  1  0  0  0  0  0  0  0  0  0
  189.3420  175.1920  136.6840 C   0  0  0  0  0  2  0  0  0  0  0  0
  191.4250  175.6430  135.2890 O   0  0  0  0  0  0  0  0  0  0  0  0
  189.1710  178.1460  134.8980 O   0  0  0  0  0  0  0  0  0  0  0  0
  188.5670  175.9420  135.5930 C   0  0  2  0  0  3  0  0  0  0  0  0
  191.5110  174.2370  137.1630 N   0  0  0  0  0  0  0  0  0  0  0  0
  189.4560  176.9620  134.9360 C   0  0  0  0  0  0  0  0  0  0  0  0
  190.7350  176.4710  134.3540 C   0  0  0  0  0  2  0  0  0  0  0  0
  190.8040  174.9730  136.3590 C   0  0  0  0  0  0  0  0  0  0  0  0
  192.9140  173.9560  137.0020 C   0  0  0  0  0  0  0  0  0  0  0  0
  193.7500  174.3780  137.8450 O   0  0  0  0  0  0  0  0  0  0  0  0
  194.4950  170.9700  136.5170 C   0  0  0  0  0  2  0  0  0  0  0  0
  197.1180  174.0910  135.4680 C   0  0  0  0  0  0  0  0  0  0  0  0
  197.6910  172.9660  135.9530 C   0  0  0  0  0  0  0  0  0  0  0  0
  199.6870  171.9340  136.7050 O   0  0  0  0  0  0  0  0  0  0  0  0
  193.4060  173.1150  135.8510 C   0  0  2  0  0  3  0  0  0  0  0  0
  197.9410  175.2670  135.0020 C   0  0  0  0  0  2  0  0  0  0  0  0
  199.1480  172.9050  136.1020 C   0  0  0  0  0  0  0  0  0  0  0  0
  199.9540  173.9840  135.6280 N   0  0  0  0  0  0  0  0  0  0  0  0
  193.1540  171.6110  136.1120 C   0  0  0  0  0  2  0  0  0  0  0  0
  195.4810  171.9850  136.2290 N   0  0  0  0  0  0  0  0  0  0  0  0
  196.8700  171.8530  136.3450 N   0  0  0  0  0  2  0  0  0  0  0  0
  195.6380  174.2100  135.4060 C   0  0  0  0  0  3  0  0  0  0  0  0
  199.4330  175.0580  135.1190 C   0  0  0  0  0  3  0  0  0  0  0  0
  194.8860  173.1750  135.7850 C   0  0  0  0  0  0  0  0  0  0  0  0
  188.3940  177.2050  138.2770 C   0  0  0  0  0  2  0  0  0  0  0  0
  188.2710  178.4130  139.2010 C   0  0  0  0  0  2  0  0  0  0  0  0
  189.4650  176.8280  142.3710 N   0  0  0  0  0  0  0  0  0  0  0  0
  187.3110  178.3170  141.5130 C   0  0  0  0  0  3  0  0  0  0  0  0
  187.3560  177.8760  142.8390 C   0  0  0  0  0  0  0  0  0  0  0  0
  188.4760  177.1210  143.2620 C   0  0  0  0  0  0  0  0  0  0  0  0
  189.4250  177.2520  141.0800 C   0  0  0  0  0  3  0  0  0  0  0  0
  188.3440  178.0070  140.6280 C   0  0  0  0  0  0  0  0  0  0  0  0
  184.9310  178.2690  143.2340 C   0  0  0  0  0  1  0  0  0  0  0  0
  186.2750  178.1930  143.6760 O   0  0  0  0  0  0  0  0  0  0  0  0
  188.5870  176.6930  144.5910 O   0  0  0  0  0  0  0  0  0  0  0  0
  188.7690  177.5920  145.6840 C   0  0  0  0  0  2  0  0  0  0  0  0
  188.4740  177.8890  147.8580 C   0  0  0  0  0  1  0  0  0  0  0  0
  188.7340  176.9040  146.9000 O   0  0  0  0  0  0  0  0  0  0  0  0
  1  3  1  0  0  0  0
  2  6  1  0  0  0  0
  2  1  2  0  0  0  0
  3  4  2  0  0  0  0
  3 46  1  0  0  0  0
  5 13  1  0  0  0  0
  5  4  1  0  0  0  0
  6  5  2  0  0  0  0
  7 15  1  0  0  0  0
  8 19  1  0  0  0  0
 10 16  1  0  0  0  0
 10 21  1  0  0  0  0
 12 19  2  0  0  0  0
 12 13  1  0  0  0  0
 13 10  1  0  0  0  0
 14  7  1  0  0  0  0
 15  9  1  0  0  0  0
 16 21  1  0  0  0  0
 16 11  1  0  0  0  0
 17 20  1  0  0  0  0
 18 15  1  0  0  0  0
 18 16  1  0  0  0  0
 19 18  1  0  0  0  0
 20  8  1  0  0  0  0
 20 14  1  0  0  0  0
 21 11  1  0  0  0  0
 23 29  1  0  0  0  0
 24 27  2  0  0  0  0
 25  1  1  0  0  0  0
 25 22  1  0  0  0  0
 27 25  1  0  0  0  0
 28 27  1  0  0  0  0
 28 23  1  0  0  0  0
 29 22  1  0  0  0  0
 29 26  2  0  0  0  0
 30 26  1  0  0  0  0
 30 31  2  0  0  0  0
 33 34  2  0  0  0  0
 34 38  1  0  0  0  0
 34 42  1  0  0  0  0
 36 40  1  0  0  0  0
 36 30  1  0  0  0  0
 37 44  1  0  0  0  0
 37 33  1  0  0  0  0
 38 35  2  0  0  0  0
 39 38  1  0  0  0  0
 40 32  1  0  0  0  0
 41 42  1  0  0  0  0
 41 32  1  0  0  0  0
 43 33  1  0  0  0  0
 43 45  2  0  0  0  0
 44 39  2  0  0  0  0
 45 36  1  0  0  0  0
 45 41  1  0  0  0  0
 46 47  1  0  0  0  0
 47 53  1  0  0  0  0
 48 51  2  0  0  0  0
 49 50  2  0  0  0  0
 50 51  1  0  0  0  0
 50 55  1  0  0  0  0
 51 56  1  0  0  0  0
 52 48  1  0  0  0  0
 53 52  2  0  0  0  0
 53 49  1  0  0  0  0
 54 55  1  0  0  0  0
 56 57  1  0  0  0  0
 57 59  1  0  0  0  0
 59 58  1  0  0  0  0
M  END
>  <MODEL>
8

>  <REMARK>
 VINA RESULT:      -7.9      2.727     12.395
  Name = 
  11 active torsions:
  status: ('A' for Active; 'I' for Inactive)
    1  A    between atoms: C_10  and  C_24
    2  A    between atoms: C_10  and  N_44
    3  A    between atoms: C_13  and  C_43
    4  A    between atoms: C_13  and  C_53
    5  A    between atoms: C_14  and  C_32
    6  A    between atoms: C_20  and  C_51
    7  A    between atoms: C_25  and  O_45
    8  A    between atoms: C_29  and  O_52
    9  A    between atoms: C_29  and  O_57
   10  A    between atoms: C_33  and  C_53
   11  A    between atoms: C_36  and  O_57
                            x       y       z     vdW  Elec       q    Type
                         _______ _______ _______ _____ _____    ______ ____

>  <TORSDO>
F 11

$$$$
=
 OpenBabel10232411303D

 59 68  0  0  1  0  0  0  0  0999 V2000
  186.9650  176.2220  135.5510 C   0  0  0  0  0  0  0  0  0  0  0  0
  185.8460  176.1380  134.7010 C   0  0  0  0  0  3  0  0  0  0  0  0
  186.7650  176.5220  136.9170 C   0  0  0  0  0  0  0  0  0  0  0  0
  185.4660  176.7110  137.4000 C   0  0  0  0  0  3  0  0  0  0  0  0
  184.3560  176.6010  136.5570 C   0  0  0  0  0  0  0  0  0  0  0  0
  184.5520  176.3200  135.2010 C   0  0  0  0  0  3  0  0  0  0  0  0
  181.3180  179.3570  140.2810 N   0  0  0  0  0  2  0  0  0  0  0  0
  180.5650  179.3540  137.3670 C   0  0  0  0  0  2  0  0  0  0  0  0
  179.9820  177.6090  141.3360 C   0  0  0  0  0  1  0  0  0  0  0  0
  183.1550  176.1080  138.6260 C   0  0  1  0  0  3  0  0  0  0  0  0
  181.6660  175.4430  140.2660 O   0  0  0  0  0  0  0  0  0  0  0  0
  182.2260  177.6860  136.9450 N   0  0  0  0  0  0  0  0  0  0  0  0
  182.9880  176.4700  137.1490 C   0  0  1  0  0  3  0  0  0  0  0  0
  180.8600  180.5410  139.5630 C   0  0  0  0  0  2  0  0  0  0  0  0
  180.3540  178.2880  140.0310 C   0  0  2  0  0  3  0  0  0  0  0  0
  182.0900  176.5120  139.5440 C   0  0  1  0  0  0  0  0  0  0  0  0
  180.9110  181.8090  137.4340 C   0  0  0  0  0  1  0  0  0  0  0  0
  180.8930  177.3020  138.9690 C   0  0  2  0  0  3  0  0  0  0  0  0
  181.2290  178.0390  137.6780 C   0  0  0  0  0  0  0  0  0  0  0  0
  181.2710  180.4910  138.0930 C   0  0  2  0  0  3  0  0  0  0  0  0
  182.0910  175.1590  138.9790 N   0  0  1  0  0  0  0  0  0  0  0  0
  188.9860  174.7200  135.9010 C   0  0  0  0  0  2  0  0  0  0  0  0
  191.2110  175.5950  135.0240 O   0  0  0  0  0  0  0  0  0  0  0  0
  188.9510  178.1130  135.2410 O   0  0  0  0  0  0  0  0  0  0  0  0
  188.3310  175.8140  135.0470 C   0  0  2  0  0  3  0  0  0  0  0  0
  191.1060  173.6250  136.2910 N   0  0  0  0  0  0  0  0  0  0  0  0
  189.2640  176.9840  134.9020 C   0  0  0  0  0  0  0  0  0  0  0  0
  190.6190  176.7060  134.3530 C   0  0  0  0  0  2  0  0  0  0  0  0
  190.4830  174.6040  135.7080 C   0  0  0  0  0  0  0  0  0  0  0  0
  192.5260  173.3950  136.2220 C   0  0  0  0  0  0  0  0  0  0  0  0
  193.0290  172.8060  135.2280 O   0  0  0  0  0  0  0  0  0  0  0  0
  195.3030  175.3570  136.5210 C   0  0  0  0  0  2  0  0  0  0  0  0
  196.3550  171.3650  137.3440 C   0  0  0  0  0  0  0  0  0  0  0  0
  197.3200  172.1370  136.7940 C   0  0  0  0  0  0  0  0  0  0  0  0
  199.4890  172.2050  135.8420 O   0  0  0  0  0  0  0  0  0  0  0  0
  193.4410  173.8930  137.3110 C   0  0  2  0  0  3  0  0  0  0  0  0
  196.6110  169.9320  137.7400 C   0  0  0  0  0  2  0  0  0  0  0  0
  198.6340  171.5530  136.5040 C   0  0  0  0  0  0  0  0  0  0  0  0
  198.9180  170.2140  136.9090 N   0  0  0  0  0  0  0  0  0  0  0  0
  193.8600  175.3620  137.0600 C   0  0  0  0  0  2  0  0  0  0  0  0
  195.7580  174.0020  136.7230 N   0  0  0  0  0  0  0  0  0  0  0  0
  197.0450  173.5110  136.4710 N   0  0  0  0  0  2  0  0  0  0  0  0
  194.9890  171.9100  137.5500 C   0  0  0  0  0  3  0  0  0  0  0  0
  198.0240  169.4640  137.4770 C   0  0  0  0  0  3  0  0  0  0  0  0
  194.7410  173.1830  137.2340 C   0  0  0  0  0  0  0  0  0  0  0  0
  187.9030  176.5260  137.9010 C   0  0  0  0  0  2  0  0  0  0  0  0
  187.9870  177.8730  138.6140 C   0  0  0  0  0  2  0  0  0  0  0  0
  190.9970  177.3270  140.7660 N   0  0  0  0  0  0  0  0  0  0  0  0
  188.3410  177.9840  141.0920 C   0  0  0  0  0  3  0  0  0  0  0  0
  189.1560  177.8430  142.2190 C   0  0  0  0  0  0  0  0  0  0  0  0
  190.5200  177.5150  142.0280 C   0  0  0  0  0  0  0  0  0  0  0  0
  190.2080  177.4590  139.6670 C   0  0  0  0  0  3  0  0  0  0  0  0
  188.8630  177.7930  139.8120 C   0  0  0  0  0  0  0  0  0  0  0  0
  187.8820  176.9980  144.1810 C   0  0  0  0  0  1  0  0  0  0  0  0
  188.5700  178.0200  143.4810 O   0  0  0  0  0  0  0  0  0  0  0  0
  191.3860  177.4050  143.1240 O   0  0  0  0  0  0  0  0  0  0  0  0
  191.6360  176.1710  143.7960 C   0  0  0  0  0  2  0  0  0  0  0  0
  191.5700  177.6640  145.4290 C   0  0  0  0  0  1  0  0  0  0  0  0
  191.4060  176.3000  145.1680 O   0  0  0  0  0  0  0  0  0  0  0  0
  1  3  1  0  0  0  0
  2  6  1  0  0  0  0
  2  1  2  0  0  0  0
  3  4  2  0  0  0  0
  3 46  1  0  0  0  0
  5 13  1  0  0  0  0
  5  4  1  0  0  0  0
  6  5  2  0  0  0  0
  8 19  1  0  0  0  0
  8 20  1  0  0  0  0
 10 21  1  0  0  0  0
 10 16  1  0  0  0  0
 12 13  1  0  0  0  0
 12 19  2  0  0  0  0
 13 10  1  0  0  0  0
 14  7  1  0  0  0  0
 15  7  1  0  0  0  0
 15  9  1  0  0  0  0
 16 11  1  0  0  0  0
 17 20  1  0  0  0  0
 18 16  1  0  0  0  0
 18 15  1  0  0  0  0
 19 18  1  0  0  0  0
 20 14  1  0  0  0  0
 21 16  1  0  0  0  0
 21 11  1  0  0  0  0
 23 29  1  0  0  0  0
 25  1  1  0  0  0  0
 25 22  1  0  0  0  0
 27 25  1  0  0  0  0
 27 24  2  0  0  0  0
 28 27  1  0  0  0  0
 28 23  1  0  0  0  0
 29 22  1  0  0  0  0
 29 26  2  0  0  0  0
 30 26  1  0  0  0  0
 30 36  1  0  0  0  0
 31 30  2  0  0  0  0
 32 41  1  0  0  0  0
 32 40  1  0  0  0  0
 33 43  1  0  0  0  0
 33 37  1  0  0  0  0
 34 33  2  0  0  0  0
 35 38  2  0  0  0  0
 38 34  1  0  0  0  0
 38 39  1  0  0  0  0
 39 44  2  0  0  0  0
 40 36  1  0  0  0  0
 41 45  1  0  0  0  0
 42 41  1  0  0  0  0
 42 34  1  0  0  0  0
 44 37  1  0  0  0  0
 45 36  1  0  0  0  0
 45 43  2  0  0  0  0
 46 47  1  0  0  0  0
 47 53  1  0  0  0  0
 48 51  2  0  0  0  0
 49 50  2  0  0  0  0
 50 55  1  0  0  0  0
 51 50  1  0  0  0  0
 51 56  1  0  0  0  0
 52 53  2  0  0  0  0
 52 48  1  0  0  0  0
 53 49  1  0  0  0  0
 55 54  1  0  0  0  0
 56 57  1  0  0  0  0
 57 59  1  0  0  0  0
 59 58  1  0  0  0  0
M  END
>  <MODEL>
9

>  <REMARK>
 VINA RESULT:      -7.4      2.891     12.262
  Name = 
  11 active torsions:
  status: ('A' for Active; 'I' for Inactive)
    1  A    between atoms: C_10  and  C_24
    2  A    between atoms: C_10  and  N_44
    3  A    between atoms: C_13  and  C_43
    4  A    between atoms: C_13  and  C_53
    5  A    between atoms: C_14  and  C_32
    6  A    between atoms: C_20  and  C_51
    7  A    between atoms: C_25  and  O_45
    8  A    between atoms: C_29  and  O_52
    9  A    between atoms: C_29  and  O_57
   10  A    between atoms: C_33  and  C_53
   11  A    between atoms: C_36  and  O_57
                            x       y       z     vdW  Elec       q    Type
                         _______ _______ _______ _____ _____    ______ ____

>  <TORSDO>
F 11

$$$$
