=
 OpenBabel10232409153D

 67 70  0  0  1  0  0  0  0  0999 V2000
  190.6360  177.9100  142.6510 N   0  0  0  0  0  0  0  0  0  0  0  0
  191.1140  179.2430  143.0750 C   0  0  0  0  0  2  0  0  0  0  0  0
  190.6450  179.4690  144.4380 N   0  0  0  0  0  0  0  0  0  0  0  0
  189.9170  177.4610  143.7710 N   0  0  0  0  0  2  0  0  0  0  0  0
  189.9770  178.4340  144.7800 C   0  0  0  0  0  0  0  0  0  0  0  0
  189.3390  178.2710  146.1160 C   0  0  0  0  0  2  0  0  0  0  0  0
  188.0060  177.5510  145.9780 C   0  0  0  0  0  2  0  0  0  0  0  0
  186.9350  178.2430  146.8140 C   0  0  0  0  0  2  0  0  0  0  0  0
  185.6640  177.9280  146.3210 O   0  0  0  0  0  0  0  0  0  0  0  0
  185.3120  179.0040  145.4980 C   0  0  0  0  0  2  0  0  0  0  0  0
  185.1670  178.5440  144.0810 C   0  0  0  0  0  0  0  0  0  0  0  0
  185.5790  177.4410  143.7530 O   0  0  0  0  0  0  0  0  0  0  0  0
  184.5190  179.4290  143.0580 C   0  0  0  0  0  2  0  0  0  0  0  0
  184.7210  178.9530  141.6120 C   0  0  1  0  0  3  0  0  0  0  0  0
  187.8170  177.7100  140.0970 O   0  0  0  0  0  0  0  0  0  0  0  0
  186.0050  178.2840  141.4300 N   0  0  0  0  0  2  0  0  0  0  0  0
  186.7060  178.2950  140.1830 C   0  0  0  0  0  0  0  0  0  0  0  0
  186.1430  178.9910  138.9840 C   0  0  0  0  0  2  0  0  0  0  0  0
  186.9830  178.6750  137.7550 C   0  0  0  0  0  2  0  0  0  0  0  0
  186.2660  176.0810  137.5540 O   0  0  0  0  0  0  0  0  0  0  0  0
  186.2270  177.3800  136.7910 S   0  0  0  0  0  0  0  0  0  0  0  0
  184.8000  177.7520  136.5030 O   0  0  0  0  0  0  0  0  0  0  0  0
  186.6020  178.2290  134.3790 C   0  0  0  0  0  1  0  0  0  0  0  0
  187.0950  177.2100  135.2960 N   0  0  0  0  0  2  0  0  0  0  0  0
  182.3730  178.1890  141.5870 C   0  0  0  0  0  3  0  0  0  0  0  0
  183.5970  178.1200  141.0510 C   0  0  0  0  0  0  0  0  0  0  0  0
  183.8310  177.2770  139.9160 N   0  0  0  0  0  2  0  0  0  0  0  0
  182.8810  177.1040  138.8240 C   0  0  0  0  0  2  0  0  0  0  0  0
  181.6450  174.9870  139.2170 C   0  0  0  0  0  1  0  0  0  0  0  0
  182.5020  175.5240  136.9630 C   0  0  0  0  0  1  0  0  0  0  0  0
  182.7800  175.6360  138.4460 C   0  0  0  0  0  3  0  0  0  0  0  0
  182.0410  179.0440  142.7670 C   0  0  0  0  0  2  0  0  0  0  0  0
  180.0030  179.4490  142.0300 C   0  0  0  0  0  1  0  0  0  0  0  0
  181.1960  180.0830  142.3740 O   0  0  0  0  0  0  0  0  0  0  0  0
  191.8040  177.0330  142.4910 C   0  0  1  0  0  3  0  0  0  0  0  0
  191.7300  175.8510  143.3740 C   0  0  0  0  0  0  0  0  0  0  0  0
  191.6660  174.8860  144.0920 C   0  0  0  0  0  3  0  0  0  0  0  0
  191.9950  176.6380  141.0890 N   0  0  0  0  0  2  0  0  0  0  0  0
  190.8540  177.0570  140.2740 C   0  0  0  0  0  2  0  0  0  0  0  0
  190.4520  177.4410  137.9690 O   0  0  0  0  0  0  0  0  0  0  0  0
  191.1950  176.9050  138.8320 C   0  0  0  0  0  0  0  0  0  0  0  0
  192.9510  174.5650  136.1060 C   0  0  1  0  0  3  0  0  0  0  0  0
  192.3290  175.4150  137.1680 N   0  0  0  0  0  0  0  0  0  0  0  0
  192.3560  176.1100  138.4110 C   0  0  0  0  0  0  0  0  0  0  0  0
  193.3720  176.0280  139.1500 O   0  0  0  0  0  0  0  0  0  0  0  0
  191.6260  174.9380  135.9390 C   0  0  2  0  0  3  0  0  0  0  0  0
  196.5400  174.5640  136.4050 C   0  0  0  0  0  0  0  0  0  0  0  0
  195.9190  175.6410  136.9170 C   0  0  0  0  0  3  0  0  0  0  0  0
  194.7580  176.3260  136.2440 C   0  0  0  0  0  2  0  0  0  0  0  0
  198.4230  172.8640  136.4150 C   0  0  0  0  0  0  0  0  0  0  0  0
  198.6110  174.9690  137.5140 O   0  0  0  0  0  1  0  0  0  0  0  0
  193.9850  175.3930  135.3120 C   0  0  1  0  0  3  0  0  0  0  0  0
  197.6990  173.9610  137.1700 C   0  0  1  0  0  3  0  0  0  0  0  0
  195.9570  173.8180  135.2220 C   0  0  2  0  0  3  0  0  0  0  0  0
  197.0630  173.2610  134.3520 C   0  0  0  0  0  2  0  0  0  0  0  0
  197.8610  172.2530  135.1600 C   0  0  0  0  0  2  0  0  0  0  0  0
  194.9640  174.6380  134.3980 C   0  0  0  0  0  2  0  0  0  0  0  0
  199.3950  172.2050  137.0400 C   0  0  0  0  0  2  0  0  0  0  0  0
  191.0010  172.5920  136.1020 C   0  0  0  0  0  2  0  0  0  0  0  0
  190.6430  173.8590  136.3080 C   0  0  0  0  0  0  0  0  0  0  0  0
  189.2140  174.1560  136.6890 C   0  0  0  0  0  2  0  0  0  0  0  0
  188.3650  172.8880  136.7370 C   0  0  0  0  0  2  0  0  0  0  0  0
  187.0620  173.0720  136.0230 C   0  0  0  0  0  0  0  0  0  0  0  0
  186.9710  173.8810  135.1110 O   0  0  0  0  0  0  0  0  0  0  0  0
  185.8710  172.2650  136.4430 C   0  0  2  0  0  3  0  0  0  0  0  0
  184.9770  172.1500  135.3810 O   0  0  0  0  0  1  0  0  0  0  0  0
  185.1760  172.9120  137.6280 C   0  0  0  0  0  1  0  0  0  0  0  0
  1  2  1  0  0  0  0
  1  4  1  0  0  0  0
  2  3  1  0  0  0  0
  3  5  2  0  0  0  0
  4  5  1  0  0  0  0
  5  6  1  0  0  0  0
  7  6  1  0  0  0  0
  7  8  1  0  0  0  0
  9  8  1  0  0  0  0
 10  9  1  0  0  0  0
 11 10  1  0  0  0  0
 12 11  2  0  0  0  0
 13 11  1  0  0  0  0
 14 13  1  1  0  0  0
 15 17  2  0  0  0  0
 16 14  1  0  0  0  0
 17 16  1  0  0  0  0
 18 17  1  0  0  0  0
 19 18  1  0  0  0  0
 21 20  2  0  0  0  0
 21 19  1  0  0  0  0
 22 21  2  0  0  0  0
 23 24  1  0  0  0  0
 24 21  1  0  0  0  0
 25 32  1  0  0  0  0
 26 25  2  0  0  0  0
 26 14  1  0  0  0  0
 27 26  1  0  0  0  0
 28 27  1  0  0  0  0
 30 31  1  0  0  0  0
 31 28  1  0  0  0  0
 31 29  1  0  0  0  0
 33 34  1  0  0  0  0
 34 32  1  0  0  0  0
 35  1  1  0  0  0  0
 35 36  1  1  0  0  0
 36 37  3  0  0  0  0
 38 35  1  0  0  0  0
 39 38  1  0  0  0  0
 40 41  2  0  0  0  0
 41 39  1  0  0  0  0
 42 43  1  1  0  0  0
 43 44  1  0  0  0  0
 44 41  1  0  0  0  0
 44 45  2  0  0  0  0
 46 42  1  0  0  0  0
 46 60  1  1  0  0  0
 46 43  1  0  0  0  0
 47 48  2  0  0  0  0
 47 53  1  0  0  0  0
 49 48  1  0  0  0  0
 50 58  2  0  0  0  0
 50 53  1  0  0  0  0
 52 57  1  1  0  0  0
 52 42  1  0  0  0  0
 52 49  1  0  0  0  0
 53 51  1  6  0  0  0
 54 55  1  6  0  0  0
 54 47  1  0  0  0  0
 55 56  1  0  0  0  0
 56 50  1  0  0  0  0
 57 54  1  0  0  0  0
 59 60  2  0  0  0  0
 60 61  1  0  0  0  0
 61 62  1  0  0  0  0
 63 65  1  0  0  0  0
 63 62  1  0  0  0  0
 64 63  2  0  0  0  0
 65 67  1  1  0  0  0
 66 65  1  0  0  0  0
M  END
>  <MODEL>
1

>  <REMARK>
 VINA RESULT:      -2.9      0.000      0.000
  Name = 
  31 active torsions:
  status: ('A' for Active; 'I' for Inactive)
    1  A    between atoms: C_3  and  C_5
    2  A    between atoms: C_5  and  C_46
    3  A    between atoms: N_6  and  C_20
    4  A    between atoms: C_7  and  C_37
    5  A    between atoms: O_11  and  C_40
    6  A    between atoms: O_11  and  C_50
    7  A    between atoms: N_13  and  C_63
    8  A    between atoms: C_14  and  S_22
    9  A    between atoms: C_14  and  C_64
   10  A    between atoms: C_15  and  C_32
   11  A    between atoms: C_15  and  C_46
   12  A    between atoms: C_17  and  C_57
   13  A    between atoms: C_18  and  C_38
   14  A    between atoms: C_18  and  C_50
   15  A    between atoms: C_19  and  C_39
   16  A    between atoms: C_19  and  N_62
   17  A    between atoms: C_20  and  C_24
   18  A    between atoms: C_20  and  N_28
   19  A    between atoms: S_22  and  N_65
   20  A    between atoms: C_23  and  C_40
   21  A    between atoms: C_23  and  C_42
   22  A    between atoms: C_26  and  N_62
   23  A    between atoms: C_26  and  C_63
   24  A    between atoms: N_28  and  C_60
   25  A    between atoms: C_31  and  C_44
   26  A    between atoms: C_32  and  C_48
   27  A    between atoms: C_38  and  C_67
   28  A    between atoms: C_42  and  C_63
   29  A    between atoms: C_44  and  C_60
   30  A    between atoms: C_47  and  C_64
   31  A    between atoms: O_55  and  C_57
                            x       y       z     vdW  Elec       q    Type
                         _______ _______ _______ _____ _____    ______ ____

>  <TORSDO>
F 31

$$$$
=
 OpenBabel10232409153D

 67 70  0  0  1  0  0  0  0  0999 V2000
  191.0520  177.8130  142.3070 N   0  0  0  0  0  0  0  0  0  0  0  0
  192.0240  177.7100  143.4160 C   0  0  0  0  0  2  0  0  0  0  0  0
  191.3150  178.0200  144.6540 N   0  0  0  0  0  0  0  0  0  0  0  0
  189.8650  178.1860  142.9580 N   0  0  0  0  0  2  0  0  0  0  0  0
  190.1040  178.2790  144.3380 C   0  0  0  0  0  0  0  0  0  0  0  0
  189.0530  178.6310  145.3310 C   0  0  0  0  0  2  0  0  0  0  0  0
  187.7760  177.8560  145.0420 C   0  0  0  0  0  2  0  0  0  0  0  0
  186.8290  177.9200  146.2350 C   0  0  0  0  0  2  0  0  0  0  0  0
  185.5330  178.2270  145.8030 O   0  0  0  0  0  0  0  0  0  0  0  0
  185.6620  178.5290  144.4420 C   0  0  0  0  0  2  0  0  0  0  0  0
  184.3530  179.0030  143.8940 C   0  0  0  0  0  0  0  0  0  0  0  0
  183.8940  180.0780  144.2510 O   0  0  0  0  0  0  0  0  0  0  0  0
  183.5960  178.1650  142.9070 C   0  0  0  0  0  2  0  0  0  0  0  0
  183.7260  178.6510  141.4560 C   0  0  1  0  0  3  0  0  0  0  0  0
  186.6090  178.4730  139.2010 O   0  0  0  0  0  0  0  0  0  0  0  0
  185.0920  178.5310  140.9580 N   0  0  0  0  0  2  0  0  0  0  0  0
  185.4080  178.5680  139.5630 C   0  0  0  0  0  0  0  0  0  0  0  0
  184.3350  178.7210  138.5300 C   0  0  0  0  0  2  0  0  0  0  0  0
  184.9050  178.4580  137.1440 C   0  0  0  0  0  2  0  0  0  0  0  0
  182.5930  177.0730  136.9990 O   0  0  0  0  0  0  0  0  0  0  0  0
  183.8800  177.3050  136.2500 S   0  0  0  0  0  0  0  0  0  0  0  0
  183.5760  177.8700  134.8910 O   0  0  0  0  0  0  0  0  0  0  0  0
  183.7590  174.7690  135.7730 C   0  0  0  0  0  1  0  0  0  0  0  0
  184.7370  175.8050  136.0750 N   0  0  0  0  0  2  0  0  0  0  0  0
  181.5920  178.6630  140.2140 C   0  0  0  0  0  3  0  0  0  0  0  0
  182.7460  178.0420  140.4860 C   0  0  0  0  0  0  0  0  0  0  0  0
  183.0650  176.8100  139.8270 N   0  0  0  0  0  2  0  0  0  0  0  0
  182.1860  175.6480  139.8080 C   0  0  0  0  0  2  0  0  0  0  0  0
  180.1070  175.3890  138.4770 C   0  0  0  0  0  1  0  0  0  0  0  0
  179.9820  175.7140  140.9230 C   0  0  0  0  0  1  0  0  0  0  0  0
  180.7390  176.0880  139.6670 C   0  0  0  0  0  3  0  0  0  0  0  0
  181.1820  179.9500  140.8520 C   0  0  0  0  0  2  0  0  0  0  0  0
  180.7510  180.1260  138.6980 C   0  0  0  0  0  1  0  0  0  0  0  0
  180.5060  180.7430  139.9240 O   0  0  0  0  0  0  0  0  0  0  0  0
  190.8500  176.4690  141.7480 C   0  0  1  0  0  3  0  0  0  0  0  0
  190.7210  175.4460  142.8060 C   0  0  0  0  0  0  0  0  0  0  0  0
  190.6190  174.6130  143.6700 C   0  0  0  0  0  3  0  0  0  0  0  0
  189.7040  176.4330  140.8300 N   0  0  0  0  0  2  0  0  0  0  0  0
  190.0590  177.0170  139.5360 C   0  0  0  0  0  2  0  0  0  0  0  0
  191.0340  174.8890  139.1550 O   0  0  0  0  0  0  0  0  0  0  0  0
  190.9890  176.1010  138.8180 C   0  0  0  0  0  0  0  0  0  0  0  0
  193.8860  175.4110  136.1490 C   0  0  1  0  0  3  0  0  0  0  0  0
  192.8190  175.7280  137.1480 N   0  0  0  0  0  0  0  0  0  0  0  0
  191.8740  176.6020  137.7580 C   0  0  0  0  0  0  0  0  0  0  0  0
  191.8110  177.8060  137.3950 O   0  0  0  0  0  0  0  0  0  0  0  0
  193.5370  174.4210  137.0540 C   0  0  2  0  0  3  0  0  0  0  0  0
  190.7210  173.9710  135.2110 C   0  0  0  0  0  0  0  0  0  0  0  0
  191.8040  173.2310  134.9110 C   0  0  0  0  0  3  0  0  0  0  0  0
  193.0810  173.8150  134.3650 C   0  0  0  0  0  2  0  0  0  0  0  0
  188.2860  174.1840  135.8880 C   0  0  0  0  0  0  0  0  0  0  0  0
  189.1640  172.1890  134.9260 O   0  0  0  0  0  1  0  0  0  0  0  0
  193.2640  175.2840  134.7420 C   0  0  1  0  0  3  0  0  0  0  0  0
  189.4910  173.2740  135.7510 C   0  0  1  0  0  3  0  0  0  0  0  0
  190.7960  175.4830  135.2400 C   0  0  2  0  0  3  0  0  0  0  0  0
  189.4840  176.0870  134.7900 C   0  0  0  0  0  2  0  0  0  0  0  0
  188.3970  175.6790  135.7690 C   0  0  0  0  0  2  0  0  0  0  0  0
  191.9710  176.0640  134.4520 C   0  0  0  0  0  2  0  0  0  0  0  0
  187.1840  173.6890  136.4460 C   0  0  0  0  0  2  0  0  0  0  0  0
  194.8650  175.4020  138.8410 C   0  0  0  0  0  2  0  0  0  0  0  0
  194.4960  174.2900  138.2070 C   0  0  0  0  0  0  0  0  0  0  0  0
  195.2120  173.0010  138.5270 C   0  0  0  0  0  2  0  0  0  0  0  0
  195.8580  172.3900  137.2870 C   0  0  0  0  0  2  0  0  0  0  0  0
  195.2800  171.0440  136.9730 C   0  0  0  0  0  0  0  0  0  0  0  0
  194.1020  170.9390  136.6670 O   0  0  0  0  0  0  0  0  0  0  0  0
  196.1560  169.8300  137.0490 C   0  0  2  0  0  3  0  0  0  0  0  0
  196.6970  169.5560  135.7950 O   0  0  0  0  0  1  0  0  0  0  0  0
  195.3660  168.6290  137.5380 C   0  0  0  0  0  1  0  0  0  0  0  0
  1  4  1  0  0  0  0
  1  2  1  0  0  0  0
  2  3  1  0  0  0  0
  4  5  1  0  0  0  0
  5  3  2  0  0  0  0
  5  6  1  0  0  0  0
  7  6  1  0  0  0  0
  7  8  1  0  0  0  0
  9  8  1  0  0  0  0
 10  9  1  0  0  0  0
 11 12  2  0  0  0  0
 11 10  1  0  0  0  0
 13 11  1  0  0  0  0
 14 13  1  1  0  0  0
 15 17  2  0  0  0  0
 16 14  1  0  0  0  0
 17 16  1  0  0  0  0
 18 17  1  0  0  0  0
 19 18  1  0  0  0  0
 21 20  2  0  0  0  0
 21 19  1  0  0  0  0
 22 21  2  0  0  0  0
 23 24  1  0  0  0  0
 24 21  1  0  0  0  0
 25 26  2  0  0  0  0
 25 32  1  0  0  0  0
 26 14  1  0  0  0  0
 27 26  1  0  0  0  0
 28 27  1  0  0  0  0
 29 31  1  0  0  0  0
 31 28  1  0  0  0  0
 31 30  1  0  0  0  0
 33 34  1  0  0  0  0
 34 32  1  0  0  0  0
 35  1  1  0  0  0  0
 35 36  1  1  0  0  0
 36 37  3  0  0  0  0
 38 35  1  0  0  0  0
 39 38  1  0  0  0  0
 41 40  2  0  0  0  0
 41 39  1  0  0  0  0
 42 46  1  0  0  0  0
 42 43  1  1  0  0  0
 43 44  1  0  0  0  0
 44 41  1  0  0  0  0
 45 44  2  0  0  0  0
 46 43  1  0  0  0  0
 46 60  1  1  0  0  0
 47 54  1  0  0  0  0
 47 53  1  0  0  0  0
 48 47  2  0  0  0  0
 49 48  1  0  0  0  0
 50 58  2  0  0  0  0
 52 49  1  1  0  0  0
 52 42  1  0  0  0  0
 53 51  1  6  0  0  0
 53 50  1  0  0  0  0
 54 57  1  6  0  0  0
 55 54  1  0  0  0  0
 55 56  1  0  0  0  0
 56 50  1  0  0  0  0
 57 52  1  0  0  0  0
 60 61  1  0  0  0  0
 60 59  2  0  0  0  0
 62 61  1  0  0  0  0
 63 65  1  0  0  0  0
 63 62  1  0  0  0  0
 64 63  2  0  0  0  0
 65 67  1  6  0  0  0
 66 65  1  0  0  0  0
M  END
>  <MODEL>
2

>  <REMARK>
 VINA RESULT:      -0.9      2.130      4.839
  Name = 
  31 active torsions:
  status: ('A' for Active; 'I' for Inactive)
    1  A    between atoms: C_3  and  C_5
    2  A    between atoms: C_5  and  C_46
    3  A    between atoms: N_6  and  C_20
    4  A    between atoms: C_7  and  C_37
    5  A    between atoms: O_11  and  C_40
    6  A    between atoms: O_11  and  C_50
    7  A    between atoms: N_13  and  C_63
    8  A    between atoms: C_14  and  S_22
    9  A    between atoms: C_14  and  C_64
   10  A    between atoms: C_15  and  C_32
   11  A    between atoms: C_15  and  C_46
   12  A    between atoms: C_17  and  C_57
   13  A    between atoms: C_18  and  C_38
   14  A    between atoms: C_18  and  C_50
   15  A    between atoms: C_19  and  C_39
   16  A    between atoms: C_19  and  N_62
   17  A    between atoms: C_20  and  C_24
   18  A    between atoms: C_20  and  N_28
   19  A    between atoms: S_22  and  N_65
   20  A    between atoms: C_23  and  C_40
   21  A    between atoms: C_23  and  C_42
   22  A    between atoms: C_26  and  N_62
   23  A    between atoms: C_26  and  C_63
   24  A    between atoms: N_28  and  C_60
   25  A    between atoms: C_31  and  C_44
   26  A    between atoms: C_32  and  C_48
   27  A    between atoms: C_38  and  C_67
   28  A    between atoms: C_42  and  C_63
   29  A    between atoms: C_44  and  C_60
   30  A    between atoms: C_47  and  C_64
   31  A    between atoms: O_55  and  C_57
                            x       y       z     vdW  Elec       q    Type
                         _______ _______ _______ _____ _____    ______ ____

>  <TORSDO>
F 31

$$$$
