=
 OpenBabel10232409343D

 33 37  0  0  1  0  0  0  0  0999 V2000
  188.0910  176.8990  144.0930 C   0  0  0  0  0  2  0  0  0  0  0  0
  188.9300  177.9760  148.6880 N   0  0  0  0  0  0  0  0  0  0  0  0
  191.6270  176.7910  145.3690 C   0  0  0  0  0  3  0  0  0  0  0  0
  187.3700  177.5870  146.8930 C   0  0  1  0  0  3  0  0  0  0  0  0
  190.5350  177.1210  144.6810 C   0  0  0  0  0  3  0  0  0  0  0  0
  188.7710  177.2760  146.4410 C   0  0  0  0  0  0  0  0  0  0  0  0
  189.6510  177.4650  147.5890 C   0  0  0  0  0  0  0  0  0  0  0  0
  187.5090  177.9820  148.3740 C   0  0  0  0  0  3  0  0  0  0  0  0
  189.1360  177.0450  145.1570 C   0  0  0  0  0  0  0  0  0  0  0  0
  190.8960  177.0170  147.7350 C   0  0  0  0  0  3  0  0  0  0  0  0
  191.5920  176.1670  146.7230 C   0  0  2  0  0  3  0  0  0  0  0  0
  185.0540  180.0530  145.4940 O   0  0  0  0  0  0  0  0  0  0  0  0
  186.8440  178.7290  146.1570 N   0  0  0  0  0  2  0  0  0  0  0  0
  185.4520  179.0440  146.1310 C   0  0  0  0  0  0  0  0  0  0  0  0
  184.5340  178.2440  146.7980 O   0  0  0  0  0  1  0  0  0  0  0  0
  192.8070  175.8260  148.5420 C   0  0  0  0  0  1  0  0  0  0  0  0
  192.8950  175.9020  147.1510 O   0  0  0  0  0  0  0  0  0  0  0  0
  188.4130  177.7840  142.9030 C   0  0  1  0  0  3  0  0  0  0  0  0
  188.4690  177.0350  141.7430 C   0  0  1  0  0  3  0  0  0  0  0  0
  187.2290  177.8280  141.9930 N   0  0  0  0  0  0  0  0  0  0  0  0
  191.6750  177.6670  141.2540 O   0  0  0  0  0  1  0  0  0  0  0  0
  189.3440  177.6730  140.6440 C   0  0  1  0  0  3  0  0  0  0  0  0
  190.7410  177.0340  140.4350 C   0  0  1  0  0  3  0  0  0  0  0  0
  191.1970  177.1200  138.9820 C   0  0  0  0  0  2  0  0  0  0  0  0
  188.5380  177.8150  139.3470 C   0  0  0  0  0  2  0  0  0  0  0  0
  190.2090  176.4140  138.0450 C   0  0  0  0  0  2  0  0  0  0  0  0
  188.7370  176.5970  138.4470 C   0  0  0  0  0  2  0  0  0  0  0  0
  183.6110  178.6390  142.2140 C   0  0  0  0  0  3  0  0  0  0  0  0
  185.9230  178.2740  141.6450 C   0  0  0  0  0  0  0  0  0  0  0  0
  184.3890  179.2200  140.0470 C   0  0  0  0  0  3  0  0  0  0  0  0
  184.8860  178.1970  142.5770 C   0  0  0  0  0  3  0  0  0  0  0  0
  185.6770  178.7890  140.3710 C   0  0  0  0  0  3  0  0  0  0  0  0
  183.3910  179.1380  140.9680 N   0  0  0  0  0  0  0  0  0  0  0  0
  1  9  1  0  0  0  0
  3 11  1  0  0  0  0
  4 13  1  6  0  0  0
  4  8  1  0  0  0  0
  5  9  1  0  0  0  0
  5  3  2  0  0  0  0
  6  4  1  0  0  0  0
  6  7  1  0  0  0  0
  7 10  2  0  0  0  0
  7  2  1  0  0  0  0
  8  2  2  0  0  0  0
  9  6  2  0  0  0  0
 11 17  1  1  0  0  0
 11 10  1  0  0  0  0
 12 14  2  0  0  0  0
 14 13  1  0  0  0  0
 14 15  1  0  0  0  0
 17 16  1  0  0  0  0
 18  1  1  1  0  0  0
 19 20  1  6  0  0  0
 19 18  1  0  0  0  0
 20 18  1  0  0  0  0
 22 25  1  6  0  0  0
 22 19  1  0  0  0  0
 23 22  1  0  0  0  0
 23 21  1  1  0  0  0
 24 23  1  0  0  0  0
 26 27  1  0  0  0  0
 26 24  1  0  0  0  0
 27 25  1  0  0  0  0
 28 31  1  0  0  0  0
 29 20  1  0  0  0  0
 29 31  2  0  0  0  0
 30 32  2  0  0  0  0
 30 33  1  0  0  0  0
 32 29  1  0  0  0  0
 33 28  2  0  0  0  0
M  END
>  <MODEL>
1

>  <REMARK>
 VINA RESULT:      -9.4      0.000      0.000
  Name = 
  6 active torsions:
  status: ('A' for Active; 'I' for Inactive)
    1  A    between atoms: C_4  and  N_13
    2  A    between atoms: C_5  and  N_32
    3  A    between atoms: C_7  and  C_16
    4  A    between atoms: C_7  and  C_24
    5  A    between atoms: C_14  and  C_30
    6  A    between atoms: O_20  and  C_33
                            x       y       z     vdW  Elec       q    Type
                         _______ _______ _______ _____ _____    ______ ____

>  <TORSDO>
F 6

$$$$
=
 OpenBabel10232409343D

 33 37  0  0  1  0  0  0  0  0999 V2000
  187.9420  178.2930  140.9120 C   0  0  0  0  0  2  0  0  0  0  0  0
  187.6710  177.6120  136.1750 N   0  0  0  0  0  0  0  0  0  0  0  0
  190.6690  176.3540  139.1970 C   0  0  0  0  0  3  0  0  0  0  0  0
  186.8070  178.6230  138.1850 C   0  0  1  0  0  3  0  0  0  0  0  0
  189.6530  176.6830  139.9930 C   0  0  0  0  0  3  0  0  0  0  0  0
  188.1080  177.9210  138.4730 C   0  0  0  0  0  0  0  0  0  0  0  0
  188.6070  177.3940  137.2080 C   0  0  0  0  0  0  0  0  0  0  0  0
  186.5890  178.4480  136.6720 C   0  0  0  0  0  2  0  0  0  0  0  0
  188.6000  177.6840  139.7120 C   0  0  0  0  0  0  0  0  0  0  0  0
  189.8430  176.9820  136.9360 C   0  0  0  0  0  2  0  0  0  0  0  0
  190.9710  177.0530  137.9140 C   0  0  2  0  0  3  0  0  0  0  0  0
  183.6370  178.0610  139.9260 O   0  0  0  0  0  1  0  0  0  0  0  0
  185.7130  177.9670  138.8900 N   0  0  0  0  0  2  0  0  0  0  0  0
  184.5610  178.6790  139.3390 C   0  0  0  0  0  0  0  0  0  0  0  0
  184.4540  180.0500  139.1380 O   0  0  0  0  0  0  0  0  0  0  0  0
  193.0630  176.4920  138.3700 C   0  0  0  0  0  1  0  0  0  0  0  0
  192.1210  176.5040  137.3410 O   0  0  0  0  0  0  0  0  0  0  0  0
  187.9540  177.3240  142.0800 C   0  0  1  0  0  3  0  0  0  0  0  0
  188.6860  177.8410  143.1320 C   0  0  1  0  0  3  0  0  0  0  0  0
  187.1980  177.9220  143.2200 N   0  0  0  0  0  0  0  0  0  0  0  0
  190.5690  175.1400  142.8630 O   0  0  0  0  0  1  0  0  0  0  0  0
  189.2570  176.7590  144.0710 C   0  0  1  0  0  3  0  0  0  0  0  0
  190.6730  176.2350  143.7200 C   0  0  1  0  0  3  0  0  0  0  0  0
  191.4600  175.8350  144.9640 C   0  0  0  0  0  2  0  0  0  0  0  0
  189.1170  177.2040  145.5330 C   0  0  0  0  0  2  0  0  0  0  0  0
  191.6190  177.0190  145.9260 C   0  0  0  0  0  2  0  0  0  0  0  0
  190.3790  177.9230  146.0040 C   0  0  0  0  0  2  0  0  0  0  0  0
  183.6960  179.0240  143.7840 C   0  0  0  0  0  3  0  0  0  0  0  0
  185.9890  178.2920  143.8740 C   0  0  0  0  0  0  0  0  0  0  0  0
  184.7260  178.6540  145.8920 C   0  0  0  0  0  3  0  0  0  0  0  0
  184.8720  178.6620  143.1230 C   0  0  0  0  0  3  0  0  0  0  0  0
  185.9200  178.2870  145.2680 C   0  0  0  0  0  3  0  0  0  0  0  0
  183.6470  179.0130  145.1440 N   0  0  0  0  0  0  0  0  0  0  0  0
  2  8  1  0  0  0  0
  2  7  2  0  0  0  0
  3  5  2  0  0  0  0
  4  6  1  0  0  0  0
  4 13  1  1  0  0  0
  6  9  2  0  0  0  0
  7  6  1  0  0  0  0
  8  4  1  0  0  0  0
  9  5  1  0  0  0  0
  9  1  1  0  0  0  0
 10  7  1  0  0  0  0
 10 11  1  0  0  0  0
 11 17  1  6  0  0  0
 11  3  1  0  0  0  0
 13 14  1  0  0  0  0
 14 12  1  0  0  0  0
 15 14  2  0  0  0  0
 17 16  1  0  0  0  0
 18  1  1  6  0  0  0
 18 19  1  0  0  0  0
 18 20  1  0  0  0  0
 19 20  1  1  0  0  0
 19 22  1  0  0  0  0
 20 29  1  0  0  0  0
 22 25  1  1  0  0  0
 23 21  1  6  0  0  0
 23 22  1  0  0  0  0
 23 24  1  0  0  0  0
 24 26  1  0  0  0  0
 25 27  1  0  0  0  0
 26 27  1  0  0  0  0
 28 33  1  0  0  0  0
 29 32  2  0  0  0  0
 31 28  2  0  0  0  0
 31 29  1  0  0  0  0
 32 30  1  0  0  0  0
 33 30  2  0  0  0  0
M  END
>  <MODEL>
2

>  <REMARK>
 VINA RESULT:      -8.8      2.649      6.911
  Name = 
  6 active torsions:
  status: ('A' for Active; 'I' for Inactive)
    1  A    between atoms: C_4  and  N_13
    2  A    between atoms: C_5  and  N_32
    3  A    between atoms: C_7  and  C_16
    4  A    between atoms: C_7  and  C_24
    5  A    between atoms: C_14  and  C_30
    6  A    between atoms: O_20  and  C_33
                            x       y       z     vdW  Elec       q    Type
                         _______ _______ _______ _____ _____    ______ ____

>  <TORSDO>
F 6

$$$$
=
 OpenBabel10232409343D

 33 37  0  0  1  0  0  0  0  0999 V2000
  188.8590  178.1910  142.5750 C   0  0  0  0  0  2  0  0  0  0  0  0
  187.8220  177.3640  147.1810 N   0  0  0  0  0  0  0  0  0  0  0  0
  185.2560  178.1560  143.6480 C   0  0  0  0  0  3  0  0  0  0  0  0
  189.4570  177.7340  145.4490 C   0  0  1  0  0  3  0  0  0  0  0  0
  186.4030  177.8520  143.0440 C   0  0  0  0  0  3  0  0  0  0  0  0
  188.0680  177.9250  144.9020 C   0  0  0  0  0  0  0  0  0  0  0  0
  187.1370  177.7560  146.0120 C   0  0  0  0  0  0  0  0  0  0  0  0
  189.2570  177.4280  146.9450 C   0  0  0  0  0  3  0  0  0  0  0  0
  187.7650  178.0490  143.5880 C   0  0  0  0  0  0  0  0  0  0  0  0
  185.8600  178.1320  146.0600 C   0  0  0  0  0  3  0  0  0  0  0  0
  185.1750  178.8680  144.9560 C   0  0  2  0  0  3  0  0  0  0  0  0
  191.8820  175.6350  143.6850 O   0  0  0  0  0  0  0  0  0  0  0  0
  190.0920  176.5820  144.8230 N   0  0  0  0  0  2  0  0  0  0  0  0
  191.3710  176.6650  144.1950 C   0  0  0  0  0  0  0  0  0  0  0  0
  192.0540  177.8730  144.1380 O   0  0  0  0  0  1  0  0  0  0  0  0
  183.1860  179.2870  144.0770 C   0  0  0  0  0  1  0  0  0  0  0  0
  183.8360  179.0760  145.2940 O   0  0  0  0  0  0  0  0  0  0  0  0
  188.5420  177.3860  141.3280 C   0  0  1  0  0  3  0  0  0  0  0  0
  188.3550  178.2220  140.2440 C   0  0  1  0  0  3  0  0  0  0  0  0
  189.6690  177.5230  140.3570 N   0  0  0  0  0  0  0  0  0  0  0  0
  185.1480  178.1540  139.4560 O   0  0  0  0  0  1  0  0  0  0  0  0
  187.4720  177.6060  139.1400 C   0  0  1  0  0  3  0  0  0  0  0  0
  186.2640  178.4630  138.6810 C   0  0  1  0  0  3  0  0  0  0  0  0
  185.9370  178.2470  137.2070 C   0  0  0  0  0  2  0  0  0  0  0  0
  188.3470  177.1150  137.9800 C   0  0  0  0  0  2  0  0  0  0  0  0
  187.1330  178.5980  136.3140 C   0  0  0  0  0  2  0  0  0  0  0  0
  188.4900  178.1970  136.9120 C   0  0  0  0  0  2  0  0  0  0  0  0
  193.3740  177.3180  140.1920 C   0  0  0  0  0  3  0  0  0  0  0  0
  190.9850  177.2240  139.9040 C   0  0  0  0  0  0  0  0  0  0  0  0
  192.4670  176.2510  138.2730 C   0  0  0  0  0  3  0  0  0  0  0  0
  192.0920  177.6200  140.6560 C   0  0  0  0  0  3  0  0  0  0  0  0
  191.1690  176.5350  138.7030 C   0  0  0  0  0  3  0  0  0  0  0  0
  193.5340  176.6460  139.0200 N   0  0  0  0  0  0  0  0  0  0  0  0
  1  9  1  0  0  0  0
  3 11  1  0  0  0  0
  4 13  1  6  0  0  0
  4  8  1  0  0  0  0
  5  9  1  0  0  0  0
  5  3  2  0  0  0  0
  6  4  1  0  0  0  0
  6  7  1  0  0  0  0
  7 10  2  0  0  0  0
  7  2  1  0  0  0  0
  8  2  2  0  0  0  0
  9  6  2  0  0  0  0
 11 17  1  1  0  0  0
 11 10  1  0  0  0  0
 12 14  2  0  0  0  0
 14 13  1  0  0  0  0
 15 14  1  0  0  0  0
 16 17  1  0  0  0  0
 18  1  1  1  0  0  0
 19 20  1  6  0  0  0
 19 18  1  0  0  0  0
 20 18  1  0  0  0  0
 22 25  1  6  0  0  0
 22 19  1  0  0  0  0
 23 22  1  0  0  0  0
 23 21  1  1  0  0  0
 24 23  1  0  0  0  0
 26 27  1  0  0  0  0
 26 24  1  0  0  0  0
 27 25  1  0  0  0  0
 28 31  1  0  0  0  0
 29 20  1  0  0  0  0
 29 31  2  0  0  0  0
 30 32  2  0  0  0  0
 30 33  1  0  0  0  0
 32 29  1  0  0  0  0
 33 28  2  0  0  0  0
M  END
>  <MODEL>
3

>  <REMARK>
 VINA RESULT:      -8.7      2.476      5.936
  Name = 
  6 active torsions:
  status: ('A' for Active; 'I' for Inactive)
    1  A    between atoms: C_4  and  N_13
    2  A    between atoms: C_5  and  N_32
    3  A    between atoms: C_7  and  C_16
    4  A    between atoms: C_7  and  C_24
    5  A    between atoms: C_14  and  C_30
    6  A    between atoms: O_20  and  C_33
                            x       y       z     vdW  Elec       q    Type
                         _______ _______ _______ _____ _____    ______ ____

>  <TORSDO>
F 6

$$$$
=
 OpenBabel10232409343D

 33 37  0  0  1  0  0  0  0  0999 V2000
  186.9010  177.5260  142.3550 C   0  0  0  0  0  2  0  0  0  0  0  0
  183.4290  179.1630  145.2240 N   0  0  0  0  0  0  0  0  0  0  0  0
  187.6850  178.1560  145.9780 C   0  0  0  0  0  3  0  0  0  0  0  0
  184.1350  178.3410  143.0720 C   0  0  1  0  0  3  0  0  0  0  0  0
  187.6890  178.2240  144.6480 C   0  0  0  0  0  3  0  0  0  0  0  0
  185.2620  178.2360  144.0640 C   0  0  0  0  0  0  0  0  0  0  0  0
  184.7490  178.6830  145.3540 C   0  0  0  0  0  0  0  0  0  0  0  0
  182.9460  178.8920  143.8780 C   0  0  0  0  0  2  0  0  0  0  0  0
  186.5470  177.9510  143.7470 C   0  0  0  0  0  0  0  0  0  0  0  0
  185.2860  178.4750  146.5540 C   0  0  0  0  0  2  0  0  0  0  0  0
  186.5230  177.6670  146.7750 C   0  0  2  0  0  3  0  0  0  0  0  0
  184.5040  179.9130  139.7860 O   0  0  0  0  0  0  0  0  0  0  0  0
  184.4700  179.2990  142.0270 N   0  0  0  0  0  2  0  0  0  0  0  0
  184.2120  179.0420  140.6470 C   0  0  0  0  0  0  0  0  0  0  0  0
  183.6450  177.8390  140.2450 O   0  0  0  0  0  1  0  0  0  0  0  0
  188.2230  177.4280  148.1730 C   0  0  0  0  0  1  0  0  0  0  0  0
  186.8500  177.6750  148.1330 O   0  0  0  0  0  0  0  0  0  0  0  0
  188.3920  177.6750  142.1120 C   0  0  1  0  0  3  0  0  0  0  0  0
  188.9770  176.4390  141.9080 C   0  0  1  0  0  3  0  0  0  0  0  0
  188.7010  177.2790  140.7050 N   0  0  0  0  0  0  0  0  0  0  0  0
  191.7650  177.7630  140.7300 O   0  0  0  0  0  1  0  0  0  0  0  0
  190.4800  176.4080  142.2520 C   0  0  1  0  0  3  0  0  0  0  0  0
  191.2530  177.7330  142.0270 C   0  0  1  0  0  3  0  0  0  0  0  0
  192.3920  177.9070  143.0270 C   0  0  0  0  0  2  0  0  0  0  0  0
  190.6860  175.8120  143.6500 C   0  0  0  0  0  2  0  0  0  0  0  0
  191.8710  177.9030  144.4700 C   0  0  0  0  0  2  0  0  0  0  0  0
  190.7230  176.9110  144.7100 C   0  0  0  0  0  2  0  0  0  0  0  0
  188.4730  176.7330  137.0380 C   0  0  0  0  0  3  0  0  0  0  0  0
  188.7100  177.5200  139.3020 C   0  0  0  0  0  0  0  0  0  0  0  0
  188.9800  179.0190  137.4360 C   0  0  0  0  0  3  0  0  0  0  0  0
  188.4570  176.4750  138.4110 C   0  0  0  0  0  3  0  0  0  0  0  0
  188.9740  178.8020  138.8160 C   0  0  0  0  0  3  0  0  0  0  0  0
  188.7320  177.9880  136.5830 N   0  0  0  0  0  0  0  0  0  0  0  0
  1  9  1  0  0  0  0
  2  7  2  0  0  0  0
  3 11  1  0  0  0  0
  4 13  1  6  0  0  0
  4  8  1  0  0  0  0
  4  6  1  0  0  0  0
  5  3  2  0  0  0  0
  6  7  1  0  0  0  0
  7 10  1  0  0  0  0
  8  2  1  0  0  0  0
  9  6  2  0  0  0  0
  9  5  1  0  0  0  0
 10 11  1  0  0  0  0
 11 17  1  1  0  0  0
 12 14  2  0  0  0  0
 14 13  1  0  0  0  0
 15 14  1  0  0  0  0
 17 16  1  0  0  0  0
 18  1  1  6  0  0  0
 19 20  1  6  0  0  0
 19 18  1  0  0  0  0
 19 22  1  0  0  0  0
 20 18  1  0  0  0  0
 22 25  1  1  0  0  0
 23 21  1  6  0  0  0
 23 22  1  0  0  0  0
 23 24  1  0  0  0  0
 24 26  1  0  0  0  0
 25 27  1  0  0  0  0
 26 27  1  0  0  0  0
 28 31  1  0  0  0  0
 29 20  1  0  0  0  0
 30 32  2  0  0  0  0
 31 29  2  0  0  0  0
 32 29  1  0  0  0  0
 33 28  2  0  0  0  0
 33 30  1  0  0  0  0
M  END
>  <MODEL>
4

>  <REMARK>
 VINA RESULT:      -8.6      2.439      4.928
  Name = 
  6 active torsions:
  status: ('A' for Active; 'I' for Inactive)
    1  A    between atoms: C_4  and  N_13
    2  A    between atoms: C_5  and  N_32
    3  A    between atoms: C_7  and  C_16
    4  A    between atoms: C_7  and  C_24
    5  A    between atoms: C_14  and  C_30
    6  A    between atoms: O_20  and  C_33
                            x       y       z     vdW  Elec       q    Type
                         _______ _______ _______ _____ _____    ______ ____

>  <TORSDO>
F 6

$$$$
=
 OpenBabel10232409343D

 33 37  0  0  1  0  0  0  0  0999 V2000
  187.5210  178.4310  141.1310 C   0  0  0  0  0  2  0  0  0  0  0  0
  188.9580  177.4520  136.6640 N   0  0  0  0  0  0  0  0  0  0  0  0
  190.8190  176.7000  140.6220 C   0  0  0  0  0  3  0  0  0  0  0  0
  187.3750  178.4790  138.1630 C   0  0  1  0  0  3  0  0  0  0  0  0
  189.5680  176.9630  140.9950 C   0  0  0  0  0  3  0  0  0  0  0  0
  188.5480  177.9390  138.9360 C   0  0  0  0  0  0  0  0  0  0  0  0
  189.4940  177.3960  137.9680 C   0  0  0  0  0  0  0  0  0  0  0  0
  187.7070  178.1950  136.6870 C   0  0  0  0  0  2  0  0  0  0  0  0
  188.5990  177.8280  140.2850 C   0  0  0  0  0  0  0  0  0  0  0  0
  190.7770  177.1030  138.1690 C   0  0  0  0  0  2  0  0  0  0  0  0
  191.4880  177.3510  139.4590 C   0  0  2  0  0  3  0  0  0  0  0  0
  183.9170  177.7400  139.1100 O   0  0  0  0  0  1  0  0  0  0  0  0
  186.1610  177.7520  138.5120 N   0  0  0  0  0  2  0  0  0  0  0  0
  184.9410  178.4170  138.8330 C   0  0  0  0  0  0  0  0  0  0  0  0
  184.8730  179.8040  138.8480 O   0  0  0  0  0  0  0  0  0  0  0  0
  192.9610  176.5330  138.0230 C   0  0  0  0  0  1  0  0  0  0  0  0
  192.8050  176.8970  139.3610 O   0  0  0  0  0  0  0  0  0  0  0  0
  187.2320  177.5550  142.3360 C   0  0  1  0  0  3  0  0  0  0  0  0
  187.5780  178.2080  143.5040 C   0  0  1  0  0  3  0  0  0  0  0  0
  186.1310  178.1710  143.1360 N   0  0  0  0  0  0  0  0  0  0  0  0
  190.1980  176.5410  144.6300 O   0  0  0  0  0  1  0  0  0  0  0  0
  187.8970  177.2500  144.6700 C   0  0  1  0  0  3  0  0  0  0  0  0
  189.3100  177.3870  145.2920 C   0  0  1  0  0  3  0  0  0  0  0  0
  189.3130  177.0620  146.7830 C   0  0  0  0  0  2  0  0  0  0  0  0
  186.7680  177.2920  145.7080 C   0  0  0  0  0  2  0  0  0  0  0  0
  188.3650  177.9870  147.5560 C   0  0  0  0  0  2  0  0  0  0  0  0
  187.0690  178.3170  146.7990 C   0  0  0  0  0  2  0  0  0  0  0  0
  182.5160  178.7800  142.5400 C   0  0  0  0  0  3  0  0  0  0  0  0
  184.7610  178.4860  143.3600 C   0  0  0  0  0  0  0  0  0  0  0  0
  182.9760  179.1260  144.8450 C   0  0  0  0  0  3  0  0  0  0  0  0
  183.8550  178.4650  142.2990 C   0  0  0  0  0  3  0  0  0  0  0  0
  184.3230  178.8180  144.6440 C   0  0  0  0  0  3  0  0  0  0  0  0
  182.1070  179.1000  143.7980 N   0  0  0  0  0  0  0  0  0  0  0  0
  2  8  1  0  0  0  0
  2  7  2  0  0  0  0
  3  5  2  0  0  0  0
  4 13  1  1  0  0  0
  4  6  1  0  0  0  0
  6  9  2  0  0  0  0
  7 10  1  0  0  0  0
  7  6  1  0  0  0  0
  8  4  1  0  0  0  0
  9  5  1  0  0  0  0
  9  1  1  0  0  0  0
 10 11  1  0  0  0  0
 11 17  1  6  0  0  0
 11  3  1  0  0  0  0
 13 14  1  0  0  0  0
 14 15  2  0  0  0  0
 14 12  1  0  0  0  0
 16 17  1  0  0  0  0
 18  1  1  6  0  0  0
 18 20  1  0  0  0  0
 18 19  1  0  0  0  0
 19 20  1  1  0  0  0
 19 22  1  0  0  0  0
 20 29  1  0  0  0  0
 22 23  1  0  0  0  0
 22 25  1  1  0  0  0
 23 21  1  6  0  0  0
 23 24  1  0  0  0  0
 24 26  1  0  0  0  0
 25 27  1  0  0  0  0
 27 26  1  0  0  0  0
 28 33  1  0  0  0  0
 29 32  2  0  0  0  0
 31 28  2  0  0  0  0
 31 29  1  0  0  0  0
 32 30  1  0  0  0  0
 33 30  2  0  0  0  0
M  END
>  <MODEL>
5

>  <REMARK>
 VINA RESULT:      -8.4      2.563      6.826
  Name = 
  6 active torsions:
  status: ('A' for Active; 'I' for Inactive)
    1  A    between atoms: C_4  and  N_13
    2  A    between atoms: C_5  and  N_32
    3  A    between atoms: C_7  and  C_16
    4  A    between atoms: C_7  and  C_24
    5  A    between atoms: C_14  and  C_30
    6  A    between atoms: O_20  and  C_33
                            x       y       z     vdW  Elec       q    Type
                         _______ _______ _______ _____ _____    ______ ____

>  <TORSDO>
F 6

$$$$
=
 OpenBabel10232409343D

 33 37  0  0  1  0  0  0  0  0999 V2000
  188.4700  177.0710  142.2920 C   0  0  0  0  0  2  0  0  0  0  0  0
  191.9540  177.4390  139.0200 N   0  0  0  0  0  0  0  0  0  0  0  0
  187.5560  177.9680  138.7570 C   0  0  0  0  0  3  0  0  0  0  0  0
  191.2510  176.8900  141.2580 C   0  0  1  0  0  3  0  0  0  0  0  0
  187.7220  178.0200  140.0770 C   0  0  0  0  0  3  0  0  0  0  0  0
  190.0540  177.1890  140.3960 C   0  0  0  0  0  0  0  0  0  0  0  0
  190.5440  177.4450  139.0460 C   0  0  0  0  0  0  0  0  0  0  0  0
  192.4600  177.0050  140.3130 C   0  0  0  0  0  3  0  0  0  0  0  0
  188.7930  177.3620  140.8580 C   0  0  0  0  0  0  0  0  0  0  0  0
  189.8380  177.4460  137.9170 C   0  0  0  0  0  3  0  0  0  0  0  0
  188.3820  177.1160  137.8540 C   0  0  2  0  0  3  0  0  0  0  0  0
  191.7780  178.4570  144.5240 O   0  0  0  0  0  1  0  0  0  0  0  0
  191.3840  177.8940  142.3050 N   0  0  0  0  0  2  0  0  0  0  0  0
  191.6550  177.5480  143.6630 C   0  0  0  0  0  0  0  0  0  0  0  0
  191.7800  176.2180  144.0430 O   0  0  0  0  0  0  0  0  0  0  0  0
  187.3110  178.4990  136.4980 C   0  0  0  0  0  1  0  0  0  0  0  0
  187.9300  177.2490  136.5390 O   0  0  0  0  0  0  0  0  0  0  0  0
  187.6400  178.1900  142.8910 C   0  0  1  0  0  3  0  0  0  0  0  0
  186.3760  177.7360  143.2180 C   0  0  1  0  0  3  0  0  0  0  0  0
  187.3650  177.8810  144.3270 N   0  0  0  0  0  0  0  0  0  0  0  0
  184.2160  179.0920  141.1190 O   0  0  0  0  0  1  0  0  0  0  0  0
  185.3130  178.8520  143.2500 C   0  0  1  0  0  3  0  0  0  0  0  0
  184.0360  178.5960  142.4090 C   0  0  1  0  0  3  0  0  0  0  0  0
  182.8010  179.2390  143.0340 C   0  0  0  0  0  2  0  0  0  0  0  0
  185.0170  179.2550  144.7010 C   0  0  0  0  0  2  0  0  0  0  0  0
  182.5510  178.7030  144.4490 C   0  0  0  0  0  2  0  0  0  0  0  0
  183.8370  178.4600  145.2550 C   0  0  0  0  0  2  0  0  0  0  0  0
  189.3050  177.0520  147.3840 C   0  0  0  0  0  3  0  0  0  0  0  0
  187.7560  177.7870  145.6920 C   0  0  0  0  0  0  0  0  0  0  0  0
  187.3500  178.2410  148.0230 C   0  0  0  0  0  3  0  0  0  0  0  0
  188.9420  177.1350  146.0380 C   0  0  0  0  0  3  0  0  0  0  0  0
  186.9520  178.3450  146.6880 C   0  0  0  0  0  3  0  0  0  0  0  0
  188.5090  177.6030  148.3410 N   0  0  0  0  0  0  0  0  0  0  0  0
  2  7  1  0  0  0  0
  2  8  2  0  0  0  0
  3  5  2  0  0  0  0
  4 13  1  1  0  0  0
  5  9  1  0  0  0  0
  6  9  2  0  0  0  0
  6  4  1  0  0  0  0
  7  6  1  0  0  0  0
  8  4  1  0  0  0  0
  9  1  1  0  0  0  0
 10  7  2  0  0  0  0
 11 17  1  6  0  0  0
 11 10  1  0  0  0  0
 11  3  1  0  0  0  0
 13 14  1  0  0  0  0
 14 15  2  0  0  0  0
 14 12  1  0  0  0  0
 16 17  1  0  0  0  0
 18  1  1  6  0  0  0
 18 19  1  0  0  0  0
 18 20  1  0  0  0  0
 19 22  1  0  0  0  0
 19 20  1  1  0  0  0
 20 29  1  0  0  0  0
 22 25  1  1  0  0  0
 23 21  1  6  0  0  0
 23 24  1  0  0  0  0
 23 22  1  0  0  0  0
 24 26  1  0  0  0  0
 25 27  1  0  0  0  0
 26 27  1  0  0  0  0
 28 33  1  0  0  0  0
 29 31  1  0  0  0  0
 29 32  2  0  0  0  0
 30 33  2  0  0  0  0
 31 28  2  0  0  0  0
 32 30  1  0  0  0  0
M  END
>  <MODEL>
6

>  <REMARK>
 VINA RESULT:      -8.3      2.309      7.668
  Name = 
  6 active torsions:
  status: ('A' for Active; 'I' for Inactive)
    1  A    between atoms: C_4  and  N_13
    2  A    between atoms: C_5  and  N_32
    3  A    between atoms: C_7  and  C_16
    4  A    between atoms: C_7  and  C_24
    5  A    between atoms: C_14  and  C_30
    6  A    between atoms: O_20  and  C_33
                            x       y       z     vdW  Elec       q    Type
                         _______ _______ _______ _____ _____    ______ ____

>  <TORSDO>
F 6

$$$$
=
 OpenBabel10232409343D

 33 37  0  0  1  0  0  0  0  0999 V2000
  186.8340  178.9590  141.5190 C   0  0  0  0  0  2  0  0  0  0  0  0
  182.2250  178.7700  142.8230 N   0  0  0  0  0  0  0  0  0  0  0  0
  184.2180  178.4190  138.8730 C   0  0  0  0  0  3  0  0  0  0  0  0
  184.5370  179.1380  143.3960 C   0  0  1  0  0  3  0  0  0  0  0  0
  185.2610  178.2410  139.6810 C   0  0  0  0  0  3  0  0  0  0  0  0
  184.3920  178.9590  141.9090 C   0  0  0  0  0  0  0  0  0  0  0  0
  182.9690  178.8110  141.6250 C   0  0  0  0  0  0  0  0  0  0  0  0
  183.1010  179.0670  143.9460 C   0  0  0  0  0  3  0  0  0  0  0  0
  185.4230  178.7890  141.0470 C   0  0  0  0  0  0  0  0  0  0  0  0
  182.3620  178.9360  140.4460 C   0  0  0  0  0  3  0  0  0  0  0  0
  183.0730  179.3210  139.1900 C   0  0  2  0  0  3  0  0  0  0  0  0
  186.5630  177.1390  145.6990 O   0  0  0  0  0  0  0  0  0  0  0  0
  185.3060  178.0390  143.9650 N   0  0  0  0  0  2  0  0  0  0  0  0
  185.9250  178.1250  145.2470 C   0  0  0  0  0  0  0  0  0  0  0  0
  185.8360  179.2900  145.9990 O   0  0  0  0  0  1  0  0  0  0  0  0
  181.4900  180.5370  138.2330 C   0  0  0  0  0  1  0  0  0  0  0  0
  182.1690  179.3230  138.1250 O   0  0  0  0  0  0  0  0  0  0  0  0
  187.7720  178.0560  140.7390 C   0  0  1  0  0  3  0  0  0  0  0  0
  188.8120  178.7880  140.1970 C   0  0  1  0  0  3  0  0  0  0  0  0
  189.0920  178.0040  141.4360 N   0  0  0  0  0  0  0  0  0  0  0  0
  190.3880  175.9790  139.4650 O   0  0  0  0  0  1  0  0  0  0  0  0
  189.4380  178.1320  138.9500 C   0  0  1  0  0  3  0  0  0  0  0  0
  189.2960  176.5920  138.8520 C   0  0  1  0  0  3  0  0  0  0  0  0
  189.1920  176.1180  137.4050 C   0  0  0  0  0  2  0  0  0  0  0  0
  188.9820  178.8690  137.6840 C   0  0  0  0  0  2  0  0  0  0  0  0
  187.9880  176.7500  136.6980 C   0  0  0  0  0  2  0  0  0  0  0  0
  187.7360  178.2130  137.0940 C   0  0  0  0  0  2  0  0  0  0  0  0
  191.3910  178.0220  144.3540 C   0  0  0  0  0  3  0  0  0  0  0  0
  189.9470  177.5570  142.4830 C   0  0  0  0  0  0  0  0  0  0  0  0
  191.0240  175.7710  143.6890 C   0  0  0  0  0  3  0  0  0  0  0  0
  190.5540  178.4820  143.3350 C   0  0  0  0  0  3  0  0  0  0  0  0
  190.1810  176.1910  142.6580 C   0  0  0  0  0  3  0  0  0  0  0  0
  191.6070  176.6870  144.5090 N   0  0  0  0  0  0  0  0  0  0  0  0
  2  8  2  0  0  0  0
  3 11  1  0  0  0  0
  3  5  2  0  0  0  0
  4  8  1  0  0  0  0
  4 13  1  1  0  0  0
  5  9  1  0  0  0  0
  6  4  1  0  0  0  0
  7  6  1  0  0  0  0
  7  2  1  0  0  0  0
  9  1  1  0  0  0  0
  9  6  2  0  0  0  0
 10  7  2  0  0  0  0
 11 17  1  6  0  0  0
 11 10  1  0  0  0  0
 13 14  1  0  0  0  0
 14 12  2  0  0  0  0
 14 15  1  0  0  0  0
 17 16  1  0  0  0  0
 18 20  1  0  0  0  0
 18  1  1  1  0  0  0
 19 18  1  0  0  0  0
 19 20  1  1  0  0  0
 20 29  1  0  0  0  0
 22 25  1  6  0  0  0
 22 19  1  0  0  0  0
 23 22  1  0  0  0  0
 23 21  1  6  0  0  0
 24 23  1  0  0  0  0
 26 27  1  0  0  0  0
 26 24  1  0  0  0  0
 27 25  1  0  0  0  0
 28 33  1  0  0  0  0
 29 32  2  0  0  0  0
 29 31  1  0  0  0  0
 30 33  2  0  0  0  0
 31 28  2  0  0  0  0
 32 30  1  0  0  0  0
M  END
>  <MODEL>
7

>  <REMARK>
 VINA RESULT:      -8.3      2.639      6.924
  Name = 
  6 active torsions:
  status: ('A' for Active; 'I' for Inactive)
    1  A    between atoms: C_4  and  N_13
    2  A    between atoms: C_5  and  N_32
    3  A    between atoms: C_7  and  C_16
    4  A    between atoms: C_7  and  C_24
    5  A    between atoms: C_14  and  C_30
    6  A    between atoms: O_20  and  C_33
                            x       y       z     vdW  Elec       q    Type
                         _______ _______ _______ _____ _____    ______ ____

>  <TORSDO>
F 6

$$$$
=
 OpenBabel10232409343D

 33 37  0  0  1  0  0  0  0  0999 V2000
  187.1420  178.0440  141.6070 C   0  0  0  0  0  2  0  0  0  0  0  0
  191.7780  177.0120  142.2600 N   0  0  0  0  0  0  0  0  0  0  0  0
  188.2910  176.9140  145.0040 C   0  0  0  0  0  3  0  0  0  0  0  0
  190.0090  177.8410  140.8480 C   0  0  1  0  0  3  0  0  0  0  0  0
  187.6670  176.9700  143.8290 C   0  0  0  0  0  3  0  0  0  0  0  0
  189.4890  177.5850  142.2370 C   0  0  0  0  0  0  0  0  0  0  0  0
  190.6190  177.1540  143.0520 C   0  0  0  0  0  0  0  0  0  0  0  0
  191.5110  177.5130  140.9200 C   0  0  0  0  0  2  0  0  0  0  0  0
  188.1800  177.5870  142.5850 C   0  0  0  0  0  0  0  0  0  0  0  0
  190.6900  177.1170  144.3810 C   0  0  0  0  0  2  0  0  0  0  0  0
  189.5930  177.5870  145.2790 C   0  0  2  0  0  3  0  0  0  0  0  0
  188.2600  176.5610  137.8980 O   0  0  0  0  0  0  0  0  0  0  0  0
  189.3810  176.9320  139.8980 N   0  0  0  0  0  2  0  0  0  0  0  0
  188.7730  177.3920  138.6920 C   0  0  0  0  0  0  0  0  0  0  0  0
  188.7360  178.7470  138.3900 O   0  0  0  0  0  1  0  0  0  0  0  0
  188.7660  177.4850  147.3300 C   0  0  0  0  0  1  0  0  0  0  0  0
  189.9570  177.3770  146.6110 O   0  0  0  0  0  0  0  0  0  0  0  0
  185.7960  178.2040  142.2890 C   0  0  1  0  0  3  0  0  0  0  0  0
  185.4330  179.5370  142.3380 C   0  0  1  0  0  3  0  0  0  0  0  0
  184.7960  178.6860  141.2900 N   0  0  0  0  0  0  0  0  0  0  0  0
  182.2380  179.0440  143.0150 O   0  0  0  0  0  1  0  0  0  0  0  0
  184.4540  179.8630  143.4840 C   0  0  1  0  0  3  0  0  0  0  0  0
  183.3750  178.7890  143.7790 C   0  0  1  0  0  3  0  0  0  0  0  0
  182.9970  178.7490  145.2570 C   0  0  0  0  0  2  0  0  0  0  0  0
  185.2320  180.3040  144.7310 C   0  0  0  0  0  2  0  0  0  0  0  0
  184.2180  178.4470  146.1350 C   0  0  0  0  0  2  0  0  0  0  0  0
  185.5120  179.1140  145.6450 C   0  0  0  0  0  2  0  0  0  0  0  0
  182.4970  177.0540  138.8720 C   0  0  0  0  0  3  0  0  0  0  0  0
  183.9220  178.4840  140.1840 C   0  0  0  0  0  0  0  0  0  0  0  0
  182.7810  179.3250  138.2370 C   0  0  0  0  0  3  0  0  0  0  0  0
  183.3490  177.2310  139.9640 C   0  0  0  0  0  3  0  0  0  0  0  0
  183.6390  179.5420  139.3170 C   0  0  0  0  0  3  0  0  0  0  0  0
  182.2320  178.0960  138.0380 N   0  0  0  0  0  0  0  0  0  0  0  0
  1  9  1  0  0  0  0
  2  7  2  0  0  0  0
  3 11  1  0  0  0  0
  4 13  1  6  0  0  0
  4  8  1  0  0  0  0
  4  6  1  0  0  0  0
  5  3  2  0  0  0  0
  6  9  2  0  0  0  0
  6  7  1  0  0  0  0
  7 10  1  0  0  0  0
  8  2  1  0  0  0  0
  9  5  1  0  0  0  0
 10 11  1  0  0  0  0
 11 17  1  1  0  0  0
 12 14  2  0  0  0  0
 14 13  1  0  0  0  0
 15 14  1  0  0  0  0
 17 16  1  0  0  0  0
 18  1  1  6  0  0  0
 18 19  1  0  0  0  0
 19 20  1  6  0  0  0
 19 22  1  0  0  0  0
 20 18  1  0  0  0  0
 22 23  1  0  0  0  0
 22 25  1  1  0  0  0
 23 21  1  6  0  0  0
 23 24  1  0  0  0  0
 24 26  1  0  0  0  0
 25 27  1  0  0  0  0
 27 26  1  0  0  0  0
 28 31  1  0  0  0  0
 29 20  1  0  0  0  0
 30 32  2  0  0  0  0
 31 29  2  0  0  0  0
 32 29  1  0  0  0  0
 33 30  1  0  0  0  0
 33 28  2  0  0  0  0
M  END
>  <MODEL>
8

>  <REMARK>
 VINA RESULT:      -8.2      2.547      6.012
  Name = 
  6 active torsions:
  status: ('A' for Active; 'I' for Inactive)
    1  A    between atoms: C_4  and  N_13
    2  A    between atoms: C_5  and  N_32
    3  A    between atoms: C_7  and  C_16
    4  A    between atoms: C_7  and  C_24
    5  A    between atoms: C_14  and  C_30
    6  A    between atoms: O_20  and  C_33
                            x       y       z     vdW  Elec       q    Type
                         _______ _______ _______ _____ _____    ______ ____

>  <TORSDO>
F 6

$$$$
=
 OpenBabel10232409343D

 33 37  0  0  1  0  0  0  0  0999 V2000
  186.4770  179.2210  142.3690 C   0  0  0  0  0  2  0  0  0  0  0  0
  183.8760  178.4820  146.3270 N   0  0  0  0  0  0  0  0  0  0  0  0
  182.7940  178.5460  142.0230 C   0  0  0  0  0  3  0  0  0  0  0  0
  185.9750  179.0610  145.2940 C   0  0  1  0  0  3  0  0  0  0  0  0
  184.1180  178.4380  141.9330 C   0  0  0  0  0  3  0  0  0  0  0  0
  184.8960  178.9450  144.2500 C   0  0  0  0  0  0  0  0  0  0  0  0
  183.6460  178.6620  144.9470 C   0  0  0  0  0  0  0  0  0  0  0  0
  185.2600  178.8110  146.6340 C   0  0  0  0  0  3  0  0  0  0  0  0
  185.1120  178.9280  142.9130 C   0  0  0  0  0  0  0  0  0  0  0  0
  182.4090  178.7840  144.4690 C   0  0  0  0  0  3  0  0  0  0  0  0
  182.1000  179.3050  143.1030 C   0  0  2  0  0  3  0  0  0  0  0  0
  188.7810  176.7870  145.8890 O   0  0  0  0  0  0  0  0  0  0  0  0
  186.9770  178.0200  145.1030 N   0  0  0  0  0  2  0  0  0  0  0  0
  187.9500  177.7080  146.0980 C   0  0  0  0  0  0  0  0  0  0  0  0
  187.9900  178.4140  147.2940 O   0  0  0  0  0  1  0  0  0  0  0  0
  180.5520  179.6400  141.5570 C   0  0  0  0  0  1  0  0  0  0  0  0
  180.7200  179.2670  142.8910 O   0  0  0  0  0  0  0  0  0  0  0  0
  186.9820  178.0570  141.5370 C   0  0  1  0  0  3  0  0  0  0  0  0
  187.8260  178.5050  140.5370 C   0  0  1  0  0  3  0  0  0  0  0  0
  188.4530  177.9050  141.7520 N   0  0  0  0  0  0  0  0  0  0  0  0
  185.8660  177.6050  138.0350 O   0  0  0  0  0  1  0  0  0  0  0  0
  187.8990  177.5540  139.3260 C   0  0  1  0  0  3  0  0  0  0  0  0
  187.1890  178.0430  138.0370 C   0  0  1  0  0  3  0  0  0  0  0  0
  187.8910  177.5490  136.7750 C   0  0  0  0  0  2  0  0  0  0  0  0
  189.3490  177.1110  139.0920 C   0  0  0  0  0  2  0  0  0  0  0  0
  189.3460  178.0280  136.7240 C   0  0  0  0  0  2  0  0  0  0  0  0
  190.0440  178.0330  138.0930 C   0  0  0  0  0  2  0  0  0  0  0  0
  191.4310  178.0460  143.9670 C   0  0  0  0  0  3  0  0  0  0  0  0
  189.5780  177.5050  142.5280 C   0  0  0  0  0  0  0  0  0  0  0  0
  191.0380  175.7820  143.3640 C   0  0  0  0  0  3  0  0  0  0  0  0
  190.3300  178.4600  143.2140 C   0  0  0  0  0  3  0  0  0  0  0  0
  189.9310  176.1560  142.6000 C   0  0  0  0  0  3  0  0  0  0  0  0
  191.7600  176.7270  144.0270 N   0  0  0  0  0  0  0  0  0  0  0  0
  1  9  1  0  0  0  0
  2  8  2  0  0  0  0
  3 11  1  0  0  0  0
  4 13  1  6  0  0  0
  4  8  1  0  0  0  0
  5  3  2  0  0  0  0
  5  9  1  0  0  0  0
  6  7  1  0  0  0  0
  6  4  1  0  0  0  0
  7  2  1  0  0  0  0
  9  6  2  0  0  0  0
 10  7  2  0  0  0  0
 11 17  1  6  0  0  0
 11 10  1  0  0  0  0
 12 14  2  0  0  0  0
 13 14  1  0  0  0  0
 14 15  1  0  0  0  0
 16 17  1  0  0  0  0
 18 20  1  0  0  0  0
 18  1  1  1  0  0  0
 19 18  1  0  0  0  0
 19 20  1  1  0  0  0
 20 29  1  0  0  0  0
 22 25  1  6  0  0  0
 22 19  1  0  0  0  0
 23 21  1  1  0  0  0
 23 22  1  0  0  0  0
 24 23  1  0  0  0  0
 26 24  1  0  0  0  0
 26 27  1  0  0  0  0
 27 25  1  0  0  0  0
 28 33  1  0  0  0  0
 29 32  2  0  0  0  0
 29 31  1  0  0  0  0
 30 33  2  0  0  0  0
 31 28  2  0  0  0  0
 32 30  1  0  0  0  0
M  END
>  <MODEL>
9

>  <REMARK>
 VINA RESULT:      -8.2      2.630      6.334
  Name = 
  6 active torsions:
  status: ('A' for Active; 'I' for Inactive)
    1  A    between atoms: C_4  and  N_13
    2  A    between atoms: C_5  and  N_32
    3  A    between atoms: C_7  and  C_16
    4  A    between atoms: C_7  and  C_24
    5  A    between atoms: C_14  and  C_30
    6  A    between atoms: O_20  and  C_33
                            x       y       z     vdW  Elec       q    Type
                         _______ _______ _______ _____ _____    ______ ____

>  <TORSDO>
F 6

$$$$
