=
 OpenBabel10222421453D

 31 37  0  0  1  0  0  0  0  0999 V2000
  188.5090  178.1020  141.7550 C   0  0  2  0  0  3  0  0  0  0  0  0
  181.7750  179.1850  142.7450 C   0  0  0  0  0  1  0  0  0  0  0  0
  190.9910  177.3310  141.4880 C   0  0  0  0  0  2  0  0  0  0  0  0
  187.6270  178.4130  146.0230 C   0  0  1  0  0  3  0  0  0  0  0  0
  183.6490  179.3630  139.6880 C   0  0  0  0  0  3  0  0  0  0  0  0
  184.2160  178.2600  145.2970 C   0  0  0  0  0  3  0  0  0  0  0  0
  186.0460  178.6930  142.2220 C   0  0  1  0  0  3  0  0  0  0  0  0
  189.7320  178.2820  139.5390 C   0  0  0  0  0  2  0  0  0  0  0  0
  182.5650  179.5860  140.3590 N   0  0  0  0  0  0  0  0  0  0  0  0
  189.6900  177.2900  142.2410 C   0  0  0  0  0  0  0  0  0  0  0  0
  182.6570  178.8760  141.5840 C   0  0  1  0  0  3  0  0  0  0  0  0
  184.7350  178.2010  142.7460 C   0  0  0  0  0  0  0  0  0  0  0  0
  184.4250  178.2420  144.0140 C   0  0  0  0  0  0  0  0  0  0  0  0
  187.1790  177.6510  142.4060 C   0  0  2  0  0  3  0  0  0  0  0  0
  189.7110  176.7560  143.4630 C   0  0  0  0  0  3  0  0  0  0  0  0
  183.8060  178.2140  141.6460 C   0  0  2  0  0  3  0  0  0  0  0  0
  188.4020  177.9870  140.2290 C   0  0  0  0  0  2  0  0  0  0  0  0
  188.1480  178.2100  144.6510 N   0  0  2  0  0  0  0  0  0  0  0  0
  190.8070  177.2830  139.9700 C   0  0  2  0  0  0  0  0  0  0  0  0
  186.3380  179.0000  146.0730 O   0  0  0  0  0  0  0  0  0  0  0  0
  187.2770  177.2710  143.9110 C   0  0  2  0  0  3  0  0  0  0  0  0
  188.5660  176.8020  144.4320 C   0  0  1  0  0  3  0  0  0  0  0  0
  190.4390  175.8690  139.5340 C   0  0  0  0  0  1  0  0  0  0  0  0
  185.3670  177.9900  146.2110 C   0  0  0  0  0  2  0  0  0  0  0  0
  185.8240  179.0390  140.8030 N   0  0  0  0  0  2  0  0  0  0  0  0
  184.5580  178.4130  140.4040 C   0  0  2  0  0  3  0  0  0  0  0  0
  189.2880  177.7680  147.7750 C   0  0  0  0  0  2  0  0  0  0  0  0
  187.9730  178.0470  148.4710 C   0  0  0  0  0  2  0  0  0  0  0  0
  187.9800  177.3780  147.1100 C   0  0  0  0  0  3  0  0  0  0  0  0
  192.1360  177.6630  139.3330 C   0  0  0  0  0  2  0  0  0  0  0  0
  193.2030  177.2960  140.1390 F   0  0  0  0  0  0  0  0  0  0  0  0
  1 17  1  6  0  0  0
  1 10  1  0  0  0  0
  1 14  1  0  0  0  0
  3 10  1  0  0  0  0
  4 20  1  0  0  0  0
  4 29  1  6  0  0  0
  5  9  2  0  0  0  0
  5 26  1  0  0  0  0
  6 24  1  0  0  0  0
  7 25  1  6  0  0  0
  7 14  1  0  0  0  0
  7 12  1  0  0  0  0
  8 19  1  0  0  0  0
  8 17  1  0  0  0  0
  9 11  1  0  0  0  0
 10 15  2  0  0  0  0
 11 16  1  0  0  0  0
 11  2  1  1  0  0  0
 12 13  2  0  0  0  0
 13  6  2  0  0  0  0
 14 21  1  0  0  0  0
 15 22  1  0  0  0  0
 16 12  1  0  0  0  0
 18  4  1  0  0  0  0
 19  3  1  0  0  0  0
 20 24  1  0  0  0  0
 21 22  1  0  0  0  0
 21 18  1  0  0  0  0
 22 18  1  0  0  0  0
 23 19  1  0  0  0  0
 26 25  1  0  0  0  0
 26 16  1  0  0  0  0
 27 28  1  0  0  0  0
 29 27  1  0  0  0  0
 29 28  1  0  0  0  0
 30 19  1  0  0  0  0
 30 31  1  0  0  0  0
M  END
>  <MODEL>
1

>  <REMARK>
 VINA RESULT:      -9.2      0.000      0.000
  Name = 
  2 active torsions:
  status: ('A' for Active; 'I' for Inactive)
    1  A    between atoms: C_4  and  C_24
    2  A    between atoms: C_5  and  C_21
                            x       y       z     vdW  Elec       q    Type
                         _______ _______ _______ _____ _____    ______ ____

>  <TORSDO>
F 2

$$$$
=
 OpenBabel10222421453D

 31 37  0  0  1  0  0  0  0  0999 V2000
  187.9460  177.3970  140.8730 C   0  0  2  0  0  3  0  0  0  0  0  0
  190.2990  176.9080  147.3330 C   0  0  0  0  0  1  0  0  0  0  0  0
  187.0550  177.9610  138.4820 C   0  0  0  0  0  2  0  0  0  0  0  0
  184.7070  178.0630  143.7290 C   0  0  1  0  0  3  0  0  0  0  0  0
  191.9320  175.9750  144.2750 C   0  0  0  0  0  3  0  0  0  0  0  0
  187.0560  178.2350  146.3050 C   0  0  0  0  0  3  0  0  0  0  0  0
  188.6850  177.0510  143.3160 C   0  0  1  0  0  3  0  0  0  0  0  0
  189.1890  176.6770  138.7820 C   0  0  0  0  0  2  0  0  0  0  0  0
  191.8680  175.9590  145.5670 N   0  0  0  0  0  0  0  0  0  0  0  0
  187.0730  178.2320  139.9610 C   0  0  0  0  0  0  0  0  0  0  0  0
  190.8940  176.9110  145.9660 C   0  0  1  0  0  3  0  0  0  0  0  0
  188.9750  177.7120  144.6240 C   0  0  0  0  0  0  0  0  0  0  0  0
  188.0460  177.9630  145.5070 C   0  0  0  0  0  0  0  0  0  0  0  0
  188.1310  178.0470  142.2660 C   0  0  2  0  0  3  0  0  0  0  0  0
  186.1090  179.0160  140.4470 C   0  0  0  0  0  3  0  0  0  0  0  0
  190.3740  177.5100  144.9030 C   0  0  2  0  0  3  0  0  0  0  0  0
  189.3150  177.1840  140.2160 C   0  0  0  0  0  2  0  0  0  0  0  0
  185.6460  177.9370  142.5900 N   0  0  2  0  0  0  0  0  0  0  0  0
  188.4460  177.6890  137.9060 C   0  0  2  0  0  0  0  0  0  0  0  0
  185.2150  177.5700  144.9560 O   0  0  0  0  0  0  0  0  0  0  0  0
  186.8640  178.7380  142.8440 C   0  0  2  0  0  3  0  0  0  0  0  0
  185.8520  179.2400  141.9090 C   0  0  1  0  0  3  0  0  0  0  0  0
  189.2300  178.9910  137.7990 C   0  0  0  0  0  1  0  0  0  0  0  0
  185.7470  178.6350  145.7080 C   0  0  0  0  0  2  0  0  0  0  0  0
  189.9480  176.4180  142.8800 N   0  0  0  0  0  2  0  0  0  0  0  0
  191.0220  177.0070  143.6870 C   0  0  2  0  0  3  0  0  0  0  0  0
  182.5040  178.9960  143.0090 C   0  0  0  0  0  2  0  0  0  0  0  0
  182.4980  178.9230  144.5210 C   0  0  0  0  0  2  0  0  0  0  0  0
  183.7730  179.2890  143.7870 C   0  0  0  0  0  3  0  0  0  0  0  0
  188.2610  177.1100  136.5110 C   0  0  0  0  0  2  0  0  0  0  0  0
  187.4310  177.9110  135.7410 F   0  0  0  0  0  0  0  0  0  0  0  0
  1 17  1  6  0  0  0
  1 14  1  0  0  0  0
  3 10  1  0  0  0  0
  4 29  1  1  0  0  0
  4 20  1  0  0  0  0
  5  9  2  0  0  0  0
  7 25  1  6  0  0  0
  7 12  1  0  0  0  0
  8 17  1  0  0  0  0
  9 11  1  0  0  0  0
 10 15  2  0  0  0  0
 10  1  1  0  0  0  0
 11  2  1  6  0  0  0
 12 16  1  0  0  0  0
 12 13  2  0  0  0  0
 13  6  2  0  0  0  0
 14 21  1  0  0  0  0
 14  7  1  0  0  0  0
 15 22  1  0  0  0  0
 16 11  1  0  0  0  0
 18 21  1  0  0  0  0
 18  4  1  0  0  0  0
 19  3  1  0  0  0  0
 19  8  1  0  0  0  0
 20 24  1  0  0  0  0
 22 18  1  0  0  0  0
 22 21  1  0  0  0  0
 23 19  1  0  0  0  0
 24  6  1  0  0  0  0
 25 26  1  0  0  0  0
 26  5  1  0  0  0  0
 26 16  1  0  0  0  0
 27 29  1  0  0  0  0
 27 28  1  0  0  0  0
 29 28  1  0  0  0  0
 30 19  1  0  0  0  0
 31 30  1  0  0  0  0
M  END
>  <MODEL>
2

>  <REMARK>
 VINA RESULT:      -9.0      2.265      5.643
  Name = 
  2 active torsions:
  status: ('A' for Active; 'I' for Inactive)
    1  A    between atoms: C_4  and  C_24
    2  A    between atoms: C_5  and  C_21
                            x       y       z     vdW  Elec       q    Type
                         _______ _______ _______ _____ _____    ______ ____

>  <TORSDO>
F 2

$$$$
=
 OpenBabel10222421453D

 31 37  0  0  1  0  0  0  0  0999 V2000
  188.7680  177.6970  141.0890 C   0  0  2  0  0  3  0  0  0  0  0  0
  183.1420  179.0110  144.8450 C   0  0  0  0  0  1  0  0  0  0  0  0
  190.8550  176.8340  139.7730 C   0  0  0  0  0  2  0  0  0  0  0  0
  189.7470  177.7020  145.3470 C   0  0  1  0  0  3  0  0  0  0  0  0
  183.6000  179.3480  141.3000 C   0  0  0  0  0  3  0  0  0  0  0  0
  186.3380  177.7680  146.0980 C   0  0  0  0  0  3  0  0  0  0  0  0
  186.7690  178.3630  142.5690 C   0  0  1  0  0  3  0  0  0  0  0  0
  188.9820  177.9990  138.5790 C   0  0  0  0  0  2  0  0  0  0  0  0
  182.9090  179.5670  142.3720 N   0  0  0  0  0  0  0  0  0  0  0  0
  189.9790  176.7930  140.9950 C   0  0  0  0  0  0  0  0  0  0  0  0
  183.4420  178.7570  143.4070 C   0  0  1  0  0  3  0  0  0  0  0  0
  185.7560  177.8930  143.5620 C   0  0  0  0  0  0  0  0  0  0  0  0
  185.9980  177.8450  144.8440 C   0  0  0  0  0  0  0  0  0  0  0  0
  187.7930  177.2570  142.2080 C   0  0  2  0  0  3  0  0  0  0  0  0
  190.4600  176.1620  142.0670 C   0  0  0  0  0  3  0  0  0  0  0  0
  184.4600  178.0380  142.9510 C   0  0  2  0  0  3  0  0  0  0  0  0
  188.0360  177.7110  139.7420 C   0  0  0  0  0  2  0  0  0  0  0  0
  189.6400  177.5860  143.8740 N   0  0  2  0  0  0  0  0  0  0  0  0
  190.0600  176.9180  138.4690 C   0  0  2  0  0  0  0  0  0  0  0  0
  188.6410  178.3420  145.9600 O   0  0  0  0  0  0  0  0  0  0  0  0
  188.4730  176.7530  143.5130 C   0  0  2  0  0  3  0  0  0  0  0  0
  189.8220  176.1830  143.4250 C   0  0  1  0  0  3  0  0  0  0  0  0
  189.4380  175.5640  138.1490 C   0  0  0  0  0  1  0  0  0  0  0  0
  187.7380  177.3710  146.4340 C   0  0  0  0  0  2  0  0  0  0  0  0
  186.0100  178.8330  141.3910 N   0  0  0  0  0  2  0  0  0  0  0  0
  184.6480  178.3020  141.5210 C   0  0  2  0  0  3  0  0  0  0  0  0
  191.8980  176.9120  146.3420 C   0  0  0  0  0  2  0  0  0  0  0  0
  190.9080  177.0890  147.4740 C   0  0  0  0  0  2  0  0  0  0  0  0
  190.4350  176.5660  146.1310 C   0  0  0  0  0  3  0  0  0  0  0  0
  191.0340  177.2870  137.3590 C   0  0  0  0  0  2  0  0  0  0  0  0
  192.1510  176.4650  137.3780 F   0  0  0  0  0  0  0  0  0  0  0  0
  1 17  1  6  0  0  0
  1 14  1  0  0  0  0
  3 10  1  0  0  0  0
  4 20  1  0  0  0  0
  4 29  1  1  0  0  0
  5 26  1  0  0  0  0
  5  9  2  0  0  0  0
  6 24  1  0  0  0  0
  7 25  1  6  0  0  0
  7 12  1  0  0  0  0
  8 17  1  0  0  0  0
  9 11  1  0  0  0  0
 10  1  1  0  0  0  0
 10 15  2  0  0  0  0
 11  2  1  1  0  0  0
 12 13  2  0  0  0  0
 13  6  2  0  0  0  0
 14  7  1  0  0  0  0
 14 21  1  0  0  0  0
 15 22  1  0  0  0  0
 16 11  1  0  0  0  0
 16 12  1  0  0  0  0
 18  4  1  0  0  0  0
 19  8  1  0  0  0  0
 19  3  1  0  0  0  0
 20 24  1  0  0  0  0
 21 18  1  0  0  0  0
 22 21  1  0  0  0  0
 22 18  1  0  0  0  0
 23 19  1  0  0  0  0
 25 26  1  0  0  0  0
 26 16  1  0  0  0  0
 27 28  1  0  0  0  0
 29 27  1  0  0  0  0
 29 28  1  0  0  0  0
 30 31  1  0  0  0  0
 30 19  1  0  0  0  0
M  END
>  <MODEL>
3

>  <REMARK>
 VINA RESULT:      -8.6      1.555      1.944
  Name = 
  2 active torsions:
  status: ('A' for Active; 'I' for Inactive)
    1  A    between atoms: C_4  and  C_24
    2  A    between atoms: C_5  and  C_21
                            x       y       z     vdW  Elec       q    Type
                         _______ _______ _______ _____ _____    ______ ____

>  <TORSDO>
F 2

$$$$
=
 OpenBabel10222421453D

 31 37  0  0  1  0  0  0  0  0999 V2000
  186.7320  177.7010  143.2920 C   0  0  2  0  0  3  0  0  0  0  0  0
  191.4690  177.0130  138.3330 C   0  0  0  0  0  1  0  0  0  0  0  0
  185.1260  178.2790  145.2710 C   0  0  0  0  0  2  0  0  0  0  0  0
  190.4910  176.2330  144.9690 C   0  0  1  0  0  3  0  0  0  0  0  0
  187.9370  177.5660  137.9990 C   0  0  0  0  0  3  0  0  0  0  0  0
  192.0740  176.9140  141.9320 C   0  0  0  0  0  3  0  0  0  0  0  0
  188.5110  177.2330  141.4890 C   0  0  1  0  0  3  0  0  0  0  0  0
  184.2470  178.0650  142.9320 C   0  0  0  0  0  2  0  0  0  0  0  0
  189.0820  177.2590  137.4810 N   0  0  0  0  0  0  0  0  0  0  0  0
  186.5150  178.2200  144.6970 C   0  0  0  0  0  0  0  0  0  0  0  0
  190.0870  177.5650  138.4350 C   0  0  1  0  0  3  0  0  0  0  0  0
  189.8090  177.6700  140.8920 C   0  0  0  0  0  0  0  0  0  0  0  0
  190.9650  177.2880  141.3650 C   0  0  0  0  0  0  0  0  0  0  0  0
  188.1330  178.0640  142.7420 C   0  0  2  0  0  3  0  0  0  0  0  0
  187.5320  178.3660  145.5490 C   0  0  0  0  0  3  0  0  0  0  0  0
  189.5400  178.0690  139.5340 C   0  0  2  0  0  3  0  0  0  0  0  0
  185.6500  178.2680  142.3650 C   0  0  0  0  0  2  0  0  0  0  0  0
  189.1540  176.7810  144.6410 N   0  0  2  0  0  0  0  0  0  0  0  0
  184.0870  178.7880  144.2710 C   0  0  2  0  0  0  0  0  0  0  0  0
  191.2240  175.7820  143.8430 O   0  0  0  0  0  0  0  0  0  0  0  0
  189.2910  177.9730  143.7760 C   0  0  2  0  0  3  0  0  0  0  0  0
  188.9740  178.1450  145.1980 C   0  0  1  0  0  3  0  0  0  0  0  0
  184.2280  180.2950  144.0930 C   0  0  0  0  0  1  0  0  0  0  0  0
  192.1080  176.7940  143.4210 C   0  0  0  0  0  2  0  0  0  0  0  0
  187.5000  177.3420  140.4160 N   0  0  0  0  0  2  0  0  0  0  0  0
  188.0880  178.1730  139.3590 C   0  0  2  0  0  3  0  0  0  0  0  0
  190.7800  176.3140  147.4490 C   0  0  0  0  0  2  0  0  0  0  0  0
  192.0700  175.7890  146.8540 C   0  0  0  0  0  2  0  0  0  0  0  0
  191.2860  176.8650  146.1290 C   0  0  0  0  0  3  0  0  0  0  0  0
  182.7100  178.4880  144.8460 C   0  0  0  0  0  2  0  0  0  0  0  0
  181.7110  178.7520  143.9210 F   0  0  0  0  0  0  0  0  0  0  0  0
  1 17  1  6  0  0  0
  1 10  1  0  0  0  0
  4 29  1  6  0  0  0
  5 26  1  0  0  0  0
  6 24  1  0  0  0  0
  7 25  1  6  0  0  0
  7 14  1  0  0  0  0
  8 19  1  0  0  0  0
  9  5  2  0  0  0  0
  9 11  1  0  0  0  0
 10  3  1  0  0  0  0
 10 15  2  0  0  0  0
 11  2  1  1  0  0  0
 11 16  1  0  0  0  0
 12 13  2  0  0  0  0
 12  7  1  0  0  0  0
 13  6  2  0  0  0  0
 14  1  1  0  0  0  0
 14 21  1  0  0  0  0
 16 12  1  0  0  0  0
 17  8  1  0  0  0  0
 18  4  1  0  0  0  0
 18 22  1  0  0  0  0
 19 30  1  0  0  0  0
 19  3  1  0  0  0  0
 20  4  1  0  0  0  0
 21 18  1  0  0  0  0
 21 22  1  0  0  0  0
 22 15  1  0  0  0  0
 23 19  1  0  0  0  0
 24 20  1  0  0  0  0
 26 16  1  0  0  0  0
 26 25  1  0  0  0  0
 28 27  1  0  0  0  0
 29 28  1  0  0  0  0
 29 27  1  0  0  0  0
 31 30  1  0  0  0  0
M  END
>  <MODEL>
4

>  <REMARK>
 VINA RESULT:      -8.5      3.077      6.216
  Name = 
  2 active torsions:
  status: ('A' for Active; 'I' for Inactive)
    1  A    between atoms: C_4  and  C_24
    2  A    between atoms: C_5  and  C_21
                            x       y       z     vdW  Elec       q    Type
                         _______ _______ _______ _____ _____    ______ ____

>  <TORSDO>
F 2

$$$$
=
 OpenBabel10222421453D

 31 37  0  0  1  0  0  0  0  0999 V2000
  189.3700  177.0800  142.8280 C   0  0  2  0  0  3  0  0  0  0  0  0
  183.9130  178.9590  139.0600 C   0  0  0  0  0  1  0  0  0  0  0  0
  191.6080  176.6820  144.1170 C   0  0  0  0  0  2  0  0  0  0  0  0
  190.0440  176.1640  138.6090 C   0  0  1  0  0  3  0  0  0  0  0  0
  184.1940  178.7080  142.6300 C   0  0  0  0  0  3  0  0  0  0  0  0
  187.2030  178.0190  137.7850 C   0  0  0  0  0  3  0  0  0  0  0  0
  187.3120  177.5740  141.3610 C   0  0  1  0  0  3  0  0  0  0  0  0
  189.4410  176.9150  145.3590 C   0  0  0  0  0  2  0  0  0  0  0  0
  183.4730  178.8440  141.5640 N   0  0  0  0  0  0  0  0  0  0  0  0
  190.8820  177.1220  142.8760 C   0  0  0  0  0  0  0  0  0  0  0  0
  184.3470  179.1090  140.4780 C   0  0  1  0  0  3  0  0  0  0  0  0
  186.7290  178.4600  140.3080 C   0  0  0  0  0  0  0  0  0  0  0  0
  186.9170  178.2550  139.0320 C   0  0  0  0  0  0  0  0  0  0  0  0
  188.7960  177.9090  141.6530 C   0  0  2  0  0  3  0  0  0  0  0  0
  191.6090  177.2690  141.7670 C   0  0  0  0  0  3  0  0  0  0  0  0
  185.6050  179.1410  140.8980 C   0  0  2  0  0  3  0  0  0  0  0  0
  188.8020  177.6010  144.1530 C   0  0  0  0  0  2  0  0  0  0  0  0
  190.0650  176.4390  140.0640 N   0  0  2  0  0  0  0  0  0  0  0  0
  190.9470  177.1790  145.4050 C   0  0  2  0  0  0  0  0  0  0  0  0
  188.7540  176.2340  138.0250 O   0  0  0  0  0  0  0  0  0  0  0  0
  189.6050  177.8200  140.3280 C   0  0  2  0  0  3  0  0  0  0  0  0
  191.0370  177.5110  140.4000 C   0  0  1  0  0  3  0  0  0  0  0  0
  191.2320  178.6640  145.5960 C   0  0  0  0  0  1  0  0  0  0  0  0
  188.5650  177.5050  137.4510 C   0  0  0  0  0  2  0  0  0  0  0  0
  186.4550  177.7270  142.5550 N   0  0  0  0  0  2  0  0  0  0  0  0
  185.6470  178.9340  142.3490 C   0  0  2  0  0  3  0  0  0  0  0  0
  192.2920  175.5330  137.7230 C   0  0  0  0  0  2  0  0  0  0  0  0
  191.3710  175.7240  136.5370 C   0  0  0  0  0  2  0  0  0  0  0  0
  191.2390  176.6250  137.7500 C   0  0  0  0  0  3  0  0  0  0  0  0
  191.5610  176.4070  146.5640 C   0  0  0  0  0  2  0  0  0  0  0  0
  192.3560  175.3660  146.1100 F   0  0  0  0  0  0  0  0  0  0  0  0
  1 10  1  0  0  0  0
  1 17  1  1  0  0  0
  3 19  1  0  0  0  0
  4 29  1  6  0  0  0
  4 18  1  0  0  0  0
  6 13  2  0  0  0  0
  7 12  1  6  0  0  0
  7 14  1  0  0  0  0
  7 25  1  0  0  0  0
  8 19  1  0  0  0  0
  9  5  2  0  0  0  0
 10  3  1  0  0  0  0
 11  2  1  6  0  0  0
 11 16  1  0  0  0  0
 11  9  1  0  0  0  0
 12 16  1  0  0  0  0
 13 12  2  0  0  0  0
 14  1  1  0  0  0  0
 15 10  2  0  0  0  0
 16 26  1  0  0  0  0
 17  8  1  0  0  0  0
 18 21  1  0  0  0  0
 18 22  1  0  0  0  0
 19 23  1  0  0  0  0
 19 30  1  0  0  0  0
 20  4  1  0  0  0  0
 21 22  1  0  0  0  0
 21 14  1  0  0  0  0
 22 15  1  0  0  0  0
 24  6  1  0  0  0  0
 24 20  1  0  0  0  0
 26 25  1  0  0  0  0
 26  5  1  0  0  0  0
 27 29  1  0  0  0  0
 28 27  1  0  0  0  0
 28 29  1  0  0  0  0
 31 30  1  0  0  0  0
M  END
>  <MODEL>
5

>  <REMARK>
 VINA RESULT:      -8.1      2.742      5.893
  Name = 
  2 active torsions:
  status: ('A' for Active; 'I' for Inactive)
    1  A    between atoms: C_4  and  C_24
    2  A    between atoms: C_5  and  C_21
                            x       y       z     vdW  Elec       q    Type
                         _______ _______ _______ _____ _____    ______ ____

>  <TORSDO>
F 2

$$$$
=
 OpenBabel10222421453D

 31 37  0  0  1  0  0  0  0  0999 V2000
  189.5580  176.7360  145.1860 C   0  0  2  0  0  3  0  0  0  0  0  0
  183.5460  179.2750  142.9680 C   0  0  0  0  0  1  0  0  0  0  0  0
  191.9820  176.1180  145.9410 C   0  0  0  0  0  2  0  0  0  0  0  0
  189.4880  176.8910  140.8190 C   0  0  1  0  0  3  0  0  0  0  0  0
  184.4370  178.1790  146.2690 C   0  0  0  0  0  3  0  0  0  0  0  0
  186.5610  178.7890  140.9660 C   0  0  0  0  0  3  0  0  0  0  0  0
  187.2810  177.4970  144.2530 C   0  0  1  0  0  3  0  0  0  0  0  0
  190.0640  175.9680  147.5500 C   0  0  0  0  0  2  0  0  0  0  0  0
  183.5440  178.5430  145.4060 N   0  0  0  0  0  0  0  0  0  0  0  0
  191.0560  176.8190  144.9860 C   0  0  0  0  0  0  0  0  0  0  0  0
  184.2190  179.0930  144.2860 C   0  0  1  0  0  3  0  0  0  0  0  0
  186.5320  178.5900  143.5620 C   0  0  0  0  0  0  0  0  0  0  0  0
  186.4960  178.7060  142.2620 C   0  0  0  0  0  0  0  0  0  0  0  0
  188.7960  177.8040  144.3630 C   0  0  2  0  0  3  0  0  0  0  0  0
  191.5820  177.2550  143.8400 C   0  0  0  0  0  3  0  0  0  0  0  0
  185.5310  179.0680  144.4820 C   0  0  2  0  0  3  0  0  0  0  0  0
  189.2310  176.9010  146.6750 C   0  0  0  0  0  2  0  0  0  0  0  0
  189.7620  176.8070  142.2730 N   0  0  2  0  0  0  0  0  0  0  0  0
  191.5570  176.2660  147.4040 C   0  0  2  0  0  0  0  0  0  0  0  0
  188.1170  177.0540  140.4970 O   0  0  0  0  0  0  0  0  0  0  0  0
  189.3630  178.0670  142.9390 C   0  0  2  0  0  3  0  0  0  0  0  0
  190.7840  177.7990  142.6910 C   0  0  1  0  0  3  0  0  0  0  0  0
  191.8810  177.6700  147.9010 C   0  0  0  0  0  1  0  0  0  0  0  0
  187.8410  178.4190  140.2910 C   0  0  0  0  0  2  0  0  0  0  0  0
  186.6440  177.3260  145.5760 N   0  0  0  0  0  2  0  0  0  0  0  0
  185.8210  178.5180  145.8100 C   0  0  2  0  0  3  0  0  0  0  0  0
  191.3970  176.5420  139.2480 C   0  0  0  0  0  2  0  0  0  0  0  0
  190.2750  177.1920  138.4660 C   0  0  0  0  0  2  0  0  0  0  0  0
  190.5200  177.5880  139.9100 C   0  0  0  0  0  3  0  0  0  0  0  0
  192.3560  175.2590  148.2190 C   0  0  0  0  0  2  0  0  0  0  0  0
  193.2410  175.8950  149.0760 F   0  0  0  0  0  0  0  0  0  0  0  0
  1 17  1  1  0  0  0
  3 19  1  0  0  0  0
  4 29  1  1  0  0  0
  4 18  1  0  0  0  0
  6 13  2  0  0  0  0
  7 12  1  1  0  0  0
  7 14  1  0  0  0  0
  7 25  1  0  0  0  0
  9  5  2  0  0  0  0
 10  1  1  0  0  0  0
 10  3  1  0  0  0  0
 11  2  1  6  0  0  0
 11 16  1  0  0  0  0
 11  9  1  0  0  0  0
 12 16  1  0  0  0  0
 13 12  2  0  0  0  0
 14  1  1  0  0  0  0
 15 10  2  0  0  0  0
 16 26  1  0  0  0  0
 17  8  1  0  0  0  0
 18 22  1  0  0  0  0
 18 21  1  0  0  0  0
 19  8  1  0  0  0  0
 19 23  1  0  0  0  0
 19 30  1  0  0  0  0
 20  4  1  0  0  0  0
 21 14  1  0  0  0  0
 22 21  1  0  0  0  0
 22 15  1  0  0  0  0
 24 20  1  0  0  0  0
 24  6  1  0  0  0  0
 25 26  1  0  0  0  0
 26  5  1  0  0  0  0
 27 29  1  0  0  0  0
 28 27  1  0  0  0  0
 28 29  1  0  0  0  0
 30 31  1  0  0  0  0
M  END
>  <MODEL>
6

>  <REMARK>
 VINA RESULT:      -8.0      2.756      5.813
  Name = 
  2 active torsions:
  status: ('A' for Active; 'I' for Inactive)
    1  A    between atoms: C_4  and  C_24
    2  A    between atoms: C_5  and  C_21
                            x       y       z     vdW  Elec       q    Type
                         _______ _______ _______ _____ _____    ______ ____

>  <TORSDO>
F 2

$$$$
=
 OpenBabel10222421453D

 31 37  0  0  1  0  0  0  0  0999 V2000
  188.9930  177.2470  142.4390 C   0  0  2  0  0  3  0  0  0  0  0  0
  182.7720  179.0890  140.1120 C   0  0  0  0  0  1  0  0  0  0  0  0
  191.4730  176.8800  143.1730 C   0  0  0  0  0  2  0  0  0  0  0  0
  188.7480  176.6600  138.1150 C   0  0  1  0  0  3  0  0  0  0  0  0
  183.8460  178.6090  143.5040 C   0  0  0  0  0  3  0  0  0  0  0  0
  185.7300  178.4140  138.0800 C   0  0  0  0  0  3  0  0  0  0  0  0
  186.6440  177.7310  141.4990 C   0  0  1  0  0  3  0  0  0  0  0  0
  189.6290  176.9130  144.8720 C   0  0  0  0  0  2  0  0  0  0  0  0
  182.9020  178.7790  142.6350 N   0  0  0  0  0  0  0  0  0  0  0  0
  190.4750  177.3650  142.1580 C   0  0  0  0  0  0  0  0  0  0  0  0
  183.5030  179.1640  141.4090 C   0  0  1  0  0  3  0  0  0  0  0  0
  185.8100  178.6550  140.6720 C   0  0  0  0  0  0  0  0  0  0  0  0
  185.7190  178.5480  139.3740 C   0  0  0  0  0  0  0  0  0  0  0  0
  188.1430  178.1240  141.4860 C   0  0  2  0  0  3  0  0  0  0  0  0
  190.9320  177.6270  140.9320 C   0  0  0  0  0  3  0  0  0  0  0  0
  184.8210  179.2340  141.5450 C   0  0  2  0  0  3  0  0  0  0  0  0
  188.7140  177.6450  143.8930 C   0  0  0  0  0  2  0  0  0  0  0  0
  189.0810  176.8350  139.5480 N   0  0  2  0  0  0  0  0  0  0  0  0
  191.0970  177.2530  144.6080 C   0  0  2  0  0  0  0  0  0  0  0  0
  187.3590  176.7010  137.8340 O   0  0  0  0  0  0  0  0  0  0  0  0
  188.6400  178.1680  140.0130 C   0  0  2  0  0  3  0  0  0  0  0  0
  190.0630  177.9310  139.7470 C   0  0  1  0  0  3  0  0  0  0  0  0
  191.3630  178.7340  144.8490 C   0  0  0  0  0  1  0  0  0  0  0  0
  187.0010  177.9970  137.4170 C   0  0  0  0  0  2  0  0  0  0  0  0
  186.0680  177.7560  142.8600 N   0  0  0  0  0  2  0  0  0  0  0  0
  185.1910  178.9300  142.9310 C   0  0  2  0  0  3  0  0  0  0  0  0
  190.7490  176.2000  136.6930 C   0  0  0  0  0  2  0  0  0  0  0  0
  189.5770  176.4500  135.7670 C   0  0  0  0  0  2  0  0  0  0  0  0
  189.7050  177.2400  137.0560 C   0  0  0  0  0  3  0  0  0  0  0  0
  191.9800  176.4370  145.5410 C   0  0  0  0  0  2  0  0  0  0  0  0
  191.3380  176.1780  146.7430 F   0  0  0  0  0  0  0  0  0  0  0  0
  1 17  1  1  0  0  0
  3 19  1  0  0  0  0
  4 29  1  6  0  0  0
  4 18  1  0  0  0  0
  6 13  2  0  0  0  0
  7 12  1  6  0  0  0
  7 25  1  0  0  0  0
  9  5  2  0  0  0  0
 10  1  1  0  0  0  0
 10  3  1  0  0  0  0
 11  2  1  6  0  0  0
 11 16  1  0  0  0  0
 11  9  1  0  0  0  0
 12 16  1  0  0  0  0
 13 12  2  0  0  0  0
 14  7  1  0  0  0  0
 14  1  1  0  0  0  0
 15 10  2  0  0  0  0
 16 26  1  0  0  0  0
 17  8  1  0  0  0  0
 18 22  1  0  0  0  0
 18 21  1  0  0  0  0
 19 23  1  0  0  0  0
 19  8  1  0  0  0  0
 19 30  1  0  0  0  0
 20  4  1  0  0  0  0
 21 14  1  0  0  0  0
 22 21  1  0  0  0  0
 22 15  1  0  0  0  0
 24 20  1  0  0  0  0
 24  6  1  0  0  0  0
 25 26  1  0  0  0  0
 26  5  1  0  0  0  0
 27 29  1  0  0  0  0
 28 27  1  0  0  0  0
 28 29  1  0  0  0  0
 30 31  1  0  0  0  0
M  END
>  <MODEL>
7

>  <REMARK>
 VINA RESULT:      -8.0      2.808      5.760
  Name = 
  2 active torsions:
  status: ('A' for Active; 'I' for Inactive)
    1  A    between atoms: C_4  and  C_24
    2  A    between atoms: C_5  and  C_21
                            x       y       z     vdW  Elec       q    Type
                         _______ _______ _______ _____ _____    ______ ____

>  <TORSDO>
F 2

$$$$
=
 OpenBabel10222421453D

 31 37  0  0  1  0  0  0  0  0999 V2000
  189.4460  177.6680  144.6390 C   0  0  2  0  0  3  0  0  0  0  0  0
  188.8370  177.9000  137.7780 C   0  0  0  0  0  1  0  0  0  0  0  0
  189.4600  177.2650  147.2210 C   0  0  0  0  0  2  0  0  0  0  0  0
  185.4890  179.1400  143.5090 C   0  0  1  0  0  3  0  0  0  0  0  0
  191.7970  177.4220  139.7510 C   0  0  0  0  0  3  0  0  0  0  0  0
  186.1260  178.2190  140.2030 C   0  0  0  0  0  3  0  0  0  0  0  0
  189.1840  177.9680  142.0950 C   0  0  1  0  0  3  0  0  0  0  0  0
  191.6070  177.3480  145.9280 C   0  0  0  0  0  2  0  0  0  0  0  0
  191.2290  177.6630  138.6140 N   0  0  0  0  0  0  0  0  0  0  0  0
  188.7310  177.2490  145.9060 C   0  0  0  0  0  0  0  0  0  0  0  0
  189.8430  177.3940  138.7540 C   0  0  1  0  0  3  0  0  0  0  0  0
  188.5300  177.4580  140.8510 C   0  0  0  0  0  0  0  0  0  0  0  0
  187.3400  177.8390  140.4750 C   0  0  0  0  0  0  0  0  0  0  0  0
  188.6840  177.2320  143.3640 C   0  0  2  0  0  3  0  0  0  0  0  0
  187.4020  177.1320  145.9480 C   0  0  0  0  0  3  0  0  0  0  0  0
  189.5780  176.9780  139.9860 C   0  0  2  0  0  3  0  0  0  0  0  0
  190.8580  177.0710  144.6270 C   0  0  0  0  0  2  0  0  0  0  0  0
  186.7290  178.6090  144.1220 N   0  0  2  0  0  0  0  0  0  0  0  0
  190.8860  176.7200  147.1220 C   0  0  2  0  0  0  0  0  0  0  0  0
  185.6250  179.4960  142.1440 O   0  0  0  0  0  0  0  0  0  0  0  0
  187.1360  177.3590  143.4440 C   0  0  2  0  0  3  0  0  0  0  0  0
  186.4960  177.2900  144.7630 C   0  0  1  0  0  3  0  0  0  0  0  0
  190.8560  175.2010  146.9980 C   0  0  0  0  0  1  0  0  0  0  0  0
  185.1750  178.4360  141.3340 C   0  0  0  0  0  2  0  0  0  0  0  0
  190.6400  177.8160  141.8930 N   0  0  0  0  0  2  0  0  0  0  0  0
  190.8210  176.9020  140.7600 C   0  0  2  0  0  3  0  0  0  0  0  0
  183.7520  179.1630  145.3050 C   0  0  0  0  0  2  0  0  0  0  0  0
  183.1060  179.6790  144.0360 C   0  0  0  0  0  2  0  0  0  0  0  0
  184.1330  178.5650  143.9630 C   0  0  0  0  0  3  0  0  0  0  0  0
  191.6120  177.0940  148.4060 C   0  0  0  0  0  2  0  0  0  0  0  0
  192.7360  176.3050  148.5960 F   0  0  0  0  0  0  0  0  0  0  0  0
  1 17  1  6  0  0  0
  1 10  1  0  0  0  0
  4 29  1  6  0  0  0
  4 18  1  0  0  0  0
  5 26  1  0  0  0  0
  6 13  2  0  0  0  0
  6 24  1  0  0  0  0
  7 12  1  6  0  0  0
  7 14  1  0  0  0  0
  8 19  1  0  0  0  0
  9 11  1  0  0  0  0
  9  5  2  0  0  0  0
 10 15  2  0  0  0  0
 10  3  1  0  0  0  0
 11  2  1  1  0  0  0
 11 16  1  0  0  0  0
 13 12  2  0  0  0  0
 14 21  1  0  0  0  0
 14  1  1  0  0  0  0
 16 26  1  0  0  0  0
 16 12  1  0  0  0  0
 17  8  1  0  0  0  0
 18 22  1  0  0  0  0
 19  3  1  0  0  0  0
 19 30  1  0  0  0  0
 20  4  1  0  0  0  0
 21 18  1  0  0  0  0
 21 22  1  0  0  0  0
 22 15  1  0  0  0  0
 23 19  1  0  0  0  0
 24 20  1  0  0  0  0
 25  7  1  0  0  0  0
 26 25  1  0  0  0  0
 28 27  1  0  0  0  0
 29 28  1  0  0  0  0
 29 27  1  0  0  0  0
 30 31  1  0  0  0  0
M  END
>  <MODEL>
8

>  <REMARK>
 VINA RESULT:      -7.9      2.560      5.829
  Name = 
  2 active torsions:
  status: ('A' for Active; 'I' for Inactive)
    1  A    between atoms: C_4  and  C_24
    2  A    between atoms: C_5  and  C_21
                            x       y       z     vdW  Elec       q    Type
                         _______ _______ _______ _____ _____    ______ ____

>  <TORSDO>
F 2

$$$$
=
 OpenBabel10222421453D

 31 37  0  0  1  0  0  0  0  0999 V2000
  187.1020  177.5500  143.6620 C   0  0  2  0  0  3  0  0  0  0  0  0
  182.7250  179.0570  138.5570 C   0  0  0  0  0  1  0  0  0  0  0  0
  188.9240  177.3160  145.5210 C   0  0  0  0  0  2  0  0  0  0  0  0
  189.0260  176.9630  139.7830 C   0  0  1  0  0  3  0  0  0  0  0  0
  182.0300  178.6260  142.0520 C   0  0  0  0  0  3  0  0  0  0  0  0
  186.3270  178.5510  138.2400 C   0  0  0  0  0  3  0  0  0  0  0  0
  185.4890  177.9080  141.6870 C   0  0  1  0  0  3  0  0  0  0  0  0
  186.4860  177.2430  146.1050 C   0  0  0  0  0  2  0  0  0  0  0  0
  181.6220  178.7460  140.8300 N   0  0  0  0  0  0  0  0  0  0  0  0
  188.5250  177.7490  144.1370 C   0  0  0  0  0  0  0  0  0  0  0  0
  182.7260  179.1670  140.0430 C   0  0  1  0  0  3  0  0  0  0  0  0
  185.1210  178.7880  140.5360 C   0  0  0  0  0  0  0  0  0  0  0  0
  185.6800  178.6800  139.3610 C   0  0  0  0  0  0  0  0  0  0  0  0
  186.7830  178.3810  142.3960 C   0  0  2  0  0  3  0  0  0  0  0  0
  189.5090  178.0390  143.2840 C   0  0  0  0  0  3  0  0  0  0  0  0
  183.8050  179.3090  140.8030 C   0  0  2  0  0  3  0  0  0  0  0  0
  186.1300  177.9270  144.7870 C   0  0  0  0  0  2  0  0  0  0  0  0
  188.6090  177.1520  141.1920 N   0  0  2  0  0  0  0  0  0  0  0  0
  187.8780  177.6630  146.5820 C   0  0  2  0  0  0  0  0  0  0  0  0
  187.9510  176.9300  138.8600 O   0  0  0  0  0  0  0  0  0  0  0  0
  187.9330  178.4580  141.3520 C   0  0  2  0  0  3  0  0  0  0  0  0
  189.3150  178.2990  141.8180 C   0  0  1  0  0  3  0  0  0  0  0  0
  187.9190  179.1550  146.8870 C   0  0  0  0  0  1  0  0  0  0  0  0
  187.7790  178.2060  138.2910 C   0  0  0  0  0  2  0  0  0  0  0  0
  184.3220  177.8970  142.5940 N   0  0  0  0  0  2  0  0  0  0  0  0
  183.4660  179.0210  142.2000 C   0  0  2  0  0  3  0  0  0  0  0  0
  191.4570  176.5630  139.3700 C   0  0  0  0  0  2  0  0  0  0  0  0
  190.8190  176.9130  138.0420 C   0  0  0  0  0  2  0  0  0  0  0  0
  190.3490  177.5990  139.3110 C   0  0  0  0  0  3  0  0  0  0  0  0
  188.2320  176.8930  147.8460 C   0  0  0  0  0  2  0  0  0  0  0  0
  188.3130  177.7380  148.9430 F   0  0  0  0  0  0  0  0  0  0  0  0
  1 10  1  0  0  0  0
  1 17  1  1  0  0  0
  3 19  1  0  0  0  0
  4 29  1  6  0  0  0
  4 18  1  0  0  0  0
  5 26  1  0  0  0  0
  6 24  1  0  0  0  0
  6 13  2  0  0  0  0
  7 12  1  6  0  0  0
  7 14  1  0  0  0  0
  7 25  1  0  0  0  0
  8 19  1  0  0  0  0
  9  5  2  0  0  0  0
 10  3  1  0  0  0  0
 11  2  1  6  0  0  0
 11 16  1  0  0  0  0
 11  9  1  0  0  0  0
 12 16  1  0  0  0  0
 13 12  2  0  0  0  0
 14  1  1  0  0  0  0
 15 10  2  0  0  0  0
 16 26  1  0  0  0  0
 17  8  1  0  0  0  0
 18 21  1  0  0  0  0
 18 22  1  0  0  0  0
 19 23  1  0  0  0  0
 19 30  1  0  0  0  0
 20  4  1  0  0  0  0
 21 22  1  0  0  0  0
 21 14  1  0  0  0  0
 22 15  1  0  0  0  0
 24 20  1  0  0  0  0
 26 25  1  0  0  0  0
 28 29  1  0  0  0  0
 28 27  1  0  0  0  0
 29 27  1  0  0  0  0
 30 31  1  0  0  0  0
M  END
>  <MODEL>
9

>  <REMARK>
 VINA RESULT:      -7.7      2.685      5.738
  Name = 
  2 active torsions:
  status: ('A' for Active; 'I' for Inactive)
    1  A    between atoms: C_4  and  C_24
    2  A    between atoms: C_5  and  C_21
                            x       y       z     vdW  Elec       q    Type
                         _______ _______ _______ _____ _____    ______ ____

>  <TORSDO>
F 2

$$$$
