=
 OpenBabel10232408523D

 51 55  0  0  1  0  0  0  0  0999 V2000
  181.0190  179.0530  143.4840 N   0  0  0  0  0  0  0  0  0  0  0  0
  185.9410  178.6770  146.3750 C   0  0  0  0  0  3  0  0  0  0  0  0
  185.7990  178.3780  141.9200 C   0  0  0  0  0  0  0  0  0  0  0  0
  186.9330  177.7850  146.1860 C   0  0  2  0  0  3  0  0  0  0  0  0
  186.4550  176.9830  143.8730 C   0  0  0  0  0  3  0  0  0  0  0  0
  185.9320  178.3130  143.4340 C   0  0  0  0  0  0  0  0  0  0  0  0
  186.9270  176.7800  145.1030 C   0  0  0  0  0  3  0  0  0  0  0  0
  184.7460  178.8720  145.5290 C   0  0  0  0  0  3  0  0  0  0  0  0
  183.3590  178.6800  142.1050 C   0  0  0  0  0  0  0  0  0  0  0  0
  182.1400  178.7810  141.4370 C   0  0  0  0  0  3  0  0  0  0  0  0
  182.1810  178.9660  144.1810 C   0  0  0  0  0  3  0  0  0  0  0  0
  184.5990  178.5210  141.3380 C   0  0  0  0  0  3  0  0  0  0  0  0
  184.6820  178.6620  144.2080 C   0  0  0  0  0  0  0  0  0  0  0  0
  180.9990  178.9630  142.1530 N   0  0  0  0  0  0  0  0  0  0  0  0
  183.3890  178.7780  143.4980 C   0  0  0  0  0  0  0  0  0  0  0  0
  187.0170  178.3070  141.0680 C   0  0  0  0  0  0  0  0  0  0  0  0
  188.2830  178.1310  141.6490 C   0  0  0  0  0  3  0  0  0  0  0  0
  189.4300  178.0690  140.8540 C   0  0  0  0  0  3  0  0  0  0  0  0
  189.3270  178.1890  139.4670 C   0  0  0  0  0  3  0  0  0  0  0  0
  188.0780  178.3710  138.8680 C   0  0  0  0  0  0  0  0  0  0  0  0
  186.9290  178.4300  139.6690 C   0  0  0  0  0  3  0  0  0  0  0  0
  187.9970  178.5000  137.4470 N   0  0  0  0  0  2  0  0  0  0  0  0
  189.1720  178.5900  136.5940 C   0  0  0  0  0  2  0  0  0  0  0  0
  189.1070  177.5260  135.5150 C   0  0  0  0  0  2  0  0  0  0  0  0
  189.1850  176.2590  136.0930 O   0  0  0  0  0  0  0  0  0  0  0  0
  188.1220  175.5520  135.5340 C   0  0  0  0  0  2  0  0  0  0  0  0
  187.2220  175.0250  136.6420 C   0  0  0  0  0  2  0  0  0  0  0  0
  186.3240  173.8670  136.1890 C   0  0  1  0  0  3  0  0  0  0  0  0
  187.7630  172.1700  137.3190 O   0  0  0  0  0  1  0  0  0  0  0  0
  186.8660  171.7200  135.2610 O   0  0  0  0  0  0  0  0  0  0  0  0
  186.9920  172.5250  136.2200 C   0  0  0  0  0  0  0  0  0  0  0  0
  184.5340  172.5620  137.4560 C   0  0  0  0  0  1  0  0  0  0  0  0
  184.8960  173.8640  136.7590 C   0  0  1  0  0  3  0  0  0  0  0  0
  184.7030  174.9790  137.6740 N   0  0  0  0  0  2  0  0  0  0  0  0
  183.3710  175.5230  137.4390 C   0  0  1  0  0  3  0  0  0  0  0  0
  182.6200  175.4580  138.6180 O   0  0  0  0  0  1  0  0  0  0  0  0
  183.4520  176.9610  136.9160 C   0  0  0  0  0  0  0  0  0  0  0  0
  182.5270  177.8820  137.6960 C   0  0  0  0  0  1  0  0  0  0  0  0
  184.7630  177.4260  137.0330 O   0  0  0  0  0  1  0  0  0  0  0  0
  183.0570  176.9950  135.4520 C   0  0  0  0  0  1  0  0  0  0  0  0
  187.9970  177.7010  147.1420 N   0  0  0  0  0  2  0  0  0  0  0  0
  190.2700  177.1530  147.7620 C   0  0  0  0  0  3  0  0  0  0  0  0
  189.6810  177.5570  145.3680 C   0  0  0  0  0  2  0  0  0  0  0  0
  189.4000  177.9370  146.8240 C   0  0  1  0  0  3  0  0  0  0  0  0
  191.1820  177.6800  145.1120 C   0  0  1  0  0  3  0  0  0  0  0  0
  191.9070  176.8860  146.0530 O   0  0  0  0  0  0  0  0  0  0  0  0
  191.4600  176.6930  147.3690 C   0  0  0  0  0  3  0  0  0  0  0  0
  191.5230  177.2340  143.7010 C   0  0  0  0  0  2  0  0  0  0  0  0
  192.1990  174.8760  144.1590 O   0  0  0  0  0  1  0  0  0  0  0  0
  191.3260  175.7650  143.5460 C   0  0  0  0  0  0  0  0  0  0  0  0
  190.3460  175.3290  142.8880 O   0  0  0  0  0  0  0  0  0  0  0  0
  1 11  1  0  0  0  0
  3  6  1  0  0  0  0
  4  2  1  0  0  0  0
  4 41  1  1  0  0  0
  5  7  2  0  0  0  0
  6  5  1  0  0  0  0
  6 13  2  0  0  0  0
  7  4  1  0  0  0  0
  8  2  2  0  0  0  0
  9 15  1  0  0  0  0
 10  9  2  0  0  0  0
 10 14  1  0  0  0  0
 12  3  2  0  0  0  0
 12  9  1  0  0  0  0
 13  8  1  0  0  0  0
 14  1  2  0  0  0  0
 15 11  2  0  0  0  0
 15 13  1  0  0  0  0
 16 17  1  0  0  0  0
 16  3  1  0  0  0  0
 18 17  2  0  0  0  0
 19 18  1  0  0  0  0
 20 19  2  0  0  0  0
 20 21  1  0  0  0  0
 21 16  2  0  0  0  0
 22 20  1  0  0  0  0
 23 22  1  0  0  0  0
 24 25  1  0  0  0  0
 24 23  1  0  0  0  0
 26 25  1  0  0  0  0
 26 27  1  0  0  0  0
 28 31  1  0  0  0  0
 28 27  1  1  0  0  0
 28 33  1  0  0  0  0
 30 31  2  0  0  0  0
 31 29  1  0  0  0  0
 33 32  1  1  0  0  0
 33 34  1  0  0  0  0
 35 34  1  0  0  0  0
 35 36  1  1  0  0  0
 37 39  1  0  0  0  0
 37 35  1  0  0  0  0
 37 38  1  0  0  0  0
 40 37  1  0  0  0  0
 43 44  1  0  0  0  0
 44 41  1  1  0  0  0
 44 42  1  0  0  0  0
 45 48  1  6  0  0  0
 45 43  1  0  0  0  0
 45 46  1  0  0  0  0
 46 47  1  0  0  0  0
 47 42  2  0  0  0  0
 50 48  1  0  0  0  0
 50 49  1  0  0  0  0
 51 50  2  0  0  0  0
M  END
>  <MODEL>
1

>  <REMARK>
 VINA RESULT:      -8.6      0.000      0.000
  Name = 
  17 active torsions:
  status: ('A' for Active; 'I' for Inactive)
    1  A    between atoms: C_4  and  C_5
    2  A    between atoms: C_8  and  C_24
    3  A    between atoms: C_8  and  N_51
    4  A    between atoms: C_10  and  N_33
    5  A    between atoms: C_18  and  C_19
    6  A    between atoms: C_18  and  C_48
    7  A    between atoms: C_19  and  O_45
    8  A    between atoms: C_21  and  N_33
    9  A    between atoms: C_22  and  C_48
   10  A    between atoms: C_22  and  N_51
   11  A    between atoms: C_26  and  C_31
   12  A    between atoms: C_27  and  N_50
   13  A    between atoms: C_29  and  C_31
   14  A    between atoms: C_39  and  C_44
   15  A    between atoms: C_39  and  N_50
   16  A    between atoms: C_44  and  O_45
   17  A    between atoms: C_48  and  C_49
                            x       y       z     vdW  Elec       q    Type
                         _______ _______ _______ _____ _____    ______ ____

>  <TORSDO>
F 17

$$$$
=
 OpenBabel10232408523D

 51 55  0  0  1  0  0  0  0  0999 V2000
  180.9390  179.0800  143.5420 N   0  0  0  0  0  0  0  0  0  0  0  0
  185.9050  178.7220  146.3590 C   0  0  0  0  0  3  0  0  0  0  0  0
  185.6950  178.4090  141.9090 C   0  0  0  0  0  0  0  0  0  0  0  0
  186.8950  177.8320  146.1590 C   0  0  2  0  0  3  0  0  0  0  0  0
  186.3840  177.0220  143.8550 C   0  0  0  0  0  3  0  0  0  0  0  0
  185.8510  178.3490  143.4210 C   0  0  0  0  0  0  0  0  0  0  0  0
  186.8750  176.8240  145.0780 C   0  0  0  0  0  3  0  0  0  0  0  0
  184.6960  178.9120  145.5320 C   0  0  0  0  0  3  0  0  0  0  0  0
  183.2580  178.7070  142.1290 C   0  0  0  0  0  0  0  0  0  0  0  0
  182.0290  178.8040  141.4800 C   0  0  0  0  0  3  0  0  0  0  0  0
  182.1110  178.9980  144.2220 C   0  0  0  0  0  3  0  0  0  0  0  0
  184.4860  178.5490  141.3440 C   0  0  0  0  0  3  0  0  0  0  0  0
  184.6130  178.6990  144.2120 C   0  0  0  0  0  0  0  0  0  0  0  0
  180.8980  178.9850  142.2120 N   0  0  0  0  0  0  0  0  0  0  0  0
  183.3090  178.8100  143.5220 C   0  0  0  0  0  0  0  0  0  0  0  0
  186.9010  178.3380  141.0380 C   0  0  0  0  0  0  0  0  0  0  0  0
  188.1630  178.6930  141.5400 C   0  0  0  0  0  3  0  0  0  0  0  0
  189.2970  178.6340  140.7250 C   0  0  0  0  0  3  0  0  0  0  0  0
  189.1820  178.2230  139.3960 C   0  0  0  0  0  3  0  0  0  0  0  0
  187.9350  177.8720  138.8740 C   0  0  0  0  0  0  0  0  0  0  0  0
  186.8000  177.9300  139.6960 C   0  0  0  0  0  3  0  0  0  0  0  0
  187.8400  177.4630  137.5080 N   0  0  0  0  0  2  0  0  0  0  0  0
  187.9650  178.3910  136.3950 C   0  0  0  0  0  2  0  0  0  0  0  0
  189.0630  177.9260  135.4580 C   0  0  0  0  0  2  0  0  0  0  0  0
  189.1400  176.5330  135.4710 O   0  0  0  0  0  0  0  0  0  0  0  0
  190.3530  176.2420  134.8490 C   0  0  0  0  0  2  0  0  0  0  0  0
  191.1150  175.2150  135.6740 C   0  0  0  0  0  2  0  0  0  0  0  0
  192.2390  175.8330  136.5150 C   0  0  1  0  0  3  0  0  0  0  0  0
  190.8940  175.1940  138.5170 O   0  0  0  0  0  0  0  0  0  0  0  0
  192.5500  176.7650  138.7060 O   0  0  0  0  0  1  0  0  0  0  0  0
  191.9140  175.9630  137.9730 C   0  0  0  0  0  0  0  0  0  0  0  0
  194.6490  176.3930  135.8870 C   0  0  0  0  0  1  0  0  0  0  0  0
  193.6550  175.2980  136.2390 C   0  0  1  0  0  3  0  0  0  0  0  0
  194.1480  174.5370  137.3770 N   0  0  0  0  0  2  0  0  0  0  0  0
  194.4600  173.1910  136.9110 C   0  0  1  0  0  3  0  0  0  0  0  0
  194.7640  173.2240  135.5460 O   0  0  0  0  0  1  0  0  0  0  0  0
  195.6140  172.5860  137.7170 C   0  0  0  0  0  0  0  0  0  0  0  0
  196.9360  172.7360  136.9810 C   0  0  0  0  0  1  0  0  0  0  0  0
  195.7060  173.2290  138.9530 O   0  0  0  0  0  1  0  0  0  0  0  0
  195.3520  171.1120  137.9590 C   0  0  0  0  0  1  0  0  0  0  0  0
  187.9730  177.7540  147.0980 N   0  0  0  0  0  2  0  0  0  0  0  0
  190.2600  177.1700  147.6350 C   0  0  0  0  0  3  0  0  0  0  0  0
  189.6160  177.7080  145.2810 C   0  0  0  0  0  2  0  0  0  0  0  0
  189.3690  178.0060  146.7610 C   0  0  1  0  0  3  0  0  0  0  0  0
  191.1110  177.8430  144.9980 C   0  0  1  0  0  3  0  0  0  0  0  0
  191.8570  176.9980  145.8760 O   0  0  0  0  0  0  0  0  0  0  0  0
  191.4400  176.7320  147.1890 C   0  0  0  0  0  3  0  0  0  0  0  0
  191.4190  177.4770  143.5570 C   0  0  0  0  0  2  0  0  0  0  0  0
  191.9390  175.0790  144.0100 O   0  0  0  0  0  1  0  0  0  0  0  0
  191.1920  176.0230  143.3180 C   0  0  0  0  0  0  0  0  0  0  0  0
  190.2980  175.6500  142.5150 O   0  0  0  0  0  0  0  0  0  0  0  0
  1 11  1  0  0  0  0
  3  6  1  0  0  0  0
  4  2  1  0  0  0  0
  4 41  1  1  0  0  0
  5  7  2  0  0  0  0
  6  5  1  0  0  0  0
  6 13  2  0  0  0  0
  7  4  1  0  0  0  0
  8  2  2  0  0  0  0
  9 15  1  0  0  0  0
 10  9  2  0  0  0  0
 10 14  1  0  0  0  0
 12  3  2  0  0  0  0
 12  9  1  0  0  0  0
 13  8  1  0  0  0  0
 14  1  2  0  0  0  0
 15 13  1  0  0  0  0
 15 11  2  0  0  0  0
 16 17  1  0  0  0  0
 16  3  1  0  0  0  0
 18 17  2  0  0  0  0
 19 18  1  0  0  0  0
 20 19  2  0  0  0  0
 20 21  1  0  0  0  0
 21 16  2  0  0  0  0
 22 20  1  0  0  0  0
 23 22  1  0  0  0  0
 24 25  1  0  0  0  0
 24 23  1  0  0  0  0
 26 25  1  0  0  0  0
 26 27  1  0  0  0  0
 28 27  1  1  0  0  0
 28 31  1  0  0  0  0
 31 29  2  0  0  0  0
 31 30  1  0  0  0  0
 33 32  1  1  0  0  0
 33 28  1  0  0  0  0
 33 34  1  0  0  0  0
 35 36  1  6  0  0  0
 35 34  1  0  0  0  0
 35 37  1  0  0  0  0
 37 40  1  0  0  0  0
 37 39  1  0  0  0  0
 38 37  1  0  0  0  0
 43 44  1  0  0  0  0
 44 41  1  1  0  0  0
 44 42  1  0  0  0  0
 45 48  1  6  0  0  0
 45 43  1  0  0  0  0
 45 46  1  0  0  0  0
 46 47  1  0  0  0  0
 47 42  2  0  0  0  0
 50 48  1  0  0  0  0
 50 49  1  0  0  0  0
 51 50  2  0  0  0  0
M  END
>  <MODEL>
2

>  <REMARK>
 VINA RESULT:      -8.4      3.229      5.441
  Name = 
  17 active torsions:
  status: ('A' for Active; 'I' for Inactive)
    1  A    between atoms: C_4  and  C_5
    2  A    between atoms: C_8  and  C_24
    3  A    between atoms: C_8  and  N_51
    4  A    between atoms: C_10  and  N_33
    5  A    between atoms: C_18  and  C_19
    6  A    between atoms: C_18  and  C_48
    7  A    between atoms: C_19  and  O_45
    8  A    between atoms: C_21  and  N_33
    9  A    between atoms: C_22  and  C_48
   10  A    between atoms: C_22  and  N_51
   11  A    between atoms: C_26  and  C_31
   12  A    between atoms: C_27  and  N_50
   13  A    between atoms: C_29  and  C_31
   14  A    between atoms: C_39  and  C_44
   15  A    between atoms: C_39  and  N_50
   16  A    between atoms: C_44  and  O_45
   17  A    between atoms: C_48  and  C_49
                            x       y       z     vdW  Elec       q    Type
                         _______ _______ _______ _____ _____    ______ ____

>  <TORSDO>
F 17

$$$$
=
 OpenBabel10232408523D

 51 55  0  0  1  0  0  0  0  0999 V2000
  191.9530  176.7180  147.2840 N   0  0  0  0  0  0  0  0  0  0  0  0
  191.0570  177.8440  141.7470 C   0  0  0  0  0  3  0  0  0  0  0  0
  187.7180  177.8170  144.7140 C   0  0  0  0  0  0  0  0  0  0  0  0
  190.0750  177.3580  140.9640 C   0  0  0  0  0  0  0  0  0  0  0  0
  188.4080  176.5990  142.6570 C   0  0  0  0  0  3  0  0  0  0  0  0
  188.7570  177.6980  143.6090 C   0  0  2  0  0  3  0  0  0  0  0  0
  188.9910  176.4870  141.4640 C   0  0  0  0  0  3  0  0  0  0  0  0
  191.1950  177.6770  143.2090 C   0  0  0  0  0  3  0  0  0  0  0  0
  189.4080  177.2580  146.4210 C   0  0  0  0  0  0  0  0  0  0  0  0
  189.6680  176.9830  147.7610 C   0  0  0  0  0  3  0  0  0  0  0  0
  191.7530  176.9850  145.9680 C   0  0  0  0  0  3  0  0  0  0  0  0
  188.0420  177.5820  145.9950 C   0  0  0  0  0  3  0  0  0  0  0  0
  190.1850  177.5490  144.0790 C   0  0  0  0  0  0  0  0  0  0  0  0
  190.9410  176.7170  148.1550 N   0  0  0  0  0  0  0  0  0  0  0  0
  190.4620  177.2650  145.5040 C   0  0  0  0  0  0  0  0  0  0  0  0
  186.3250  178.2220  144.3800 C   0  0  0  0  0  0  0  0  0  0  0  0
  185.4040  178.5110  145.3980 C   0  0  0  0  0  3  0  0  0  0  0  0
  184.0940  178.8880  145.0900 C   0  0  0  0  0  3  0  0  0  0  0  0
  183.6870  178.9750  143.7580 C   0  0  0  0  0  3  0  0  0  0  0  0
  184.5850  178.6850  142.7280 C   0  0  0  0  0  0  0  0  0  0  0  0
  185.9000  178.3100  143.0420 C   0  0  0  0  0  3  0  0  0  0  0  0
  184.1440  178.7720  141.3710 N   0  0  0  0  0  2  0  0  0  0  0  0
  183.4810  177.6740  140.6840 C   0  0  0  0  0  2  0  0  0  0  0  0
  182.5460  178.2220  139.6230 C   0  0  0  0  0  2  0  0  0  0  0  0
  182.7600  177.5590  138.4140 O   0  0  0  0  0  0  0  0  0  0  0  0
  182.8520  176.2140  138.7640 C   0  0  0  0  0  2  0  0  0  0  0  0
  182.0490  175.3760  137.7800 C   0  0  0  0  0  2  0  0  0  0  0  0
  182.8030  174.1320  137.2920 C   0  0  1  0  0  3  0  0  0  0  0  0
  182.4900  172.2620  135.6690 O   0  0  0  0  0  1  0  0  0  0  0  0
  181.8000  174.3760  135.1240 O   0  0  0  0  0  0  0  0  0  0  0  0
  182.3320  173.6090  135.9680 C   0  0  0  0  0  0  0  0  0  0  0  0
  184.9470  172.8240  137.7450 C   0  0  0  0  0  1  0  0  0  0  0  0
  184.3340  174.1800  137.4310 C   0  0  1  0  0  3  0  0  0  0  0  0
  184.9450  174.7260  136.2280 N   0  0  0  0  0  2  0  0  0  0  0  0
  186.1160  175.4940  136.6330 C   0  0  1  0  0  3  0  0  0  0  0  0
  187.2750  174.8750  136.1520 O   0  0  0  0  0  1  0  0  0  0  0  0
  186.0190  176.9410  136.1390 C   0  0  0  0  0  0  0  0  0  0  0  0
  186.1570  177.9250  137.2890 C   0  0  0  0  0  1  0  0  0  0  0  0
  187.0300  177.1840  135.2080 O   0  0  0  0  0  1  0  0  0  0  0  0
  184.6790  177.1610  135.4630 C   0  0  0  0  0  1  0  0  0  0  0  0
  190.1290  177.5760  139.5490 N   0  0  0  0  0  2  0  0  0  0  0  0
  189.8710  176.8730  137.2490 C   0  0  0  0  0  3  0  0  0  0  0  0
  192.0120  176.4460  138.4640 C   0  0  0  0  0  2  0  0  0  0  0  0
  190.4900  176.5510  138.5780 C   0  0  1  0  0  3  0  0  0  0  0  0
  192.3510  175.4690  137.3390 C   0  0  1  0  0  3  0  0  0  0  0  0
  191.7210  175.8790  136.1240 O   0  0  0  0  0  0  0  0  0  0  0  0
  190.4710  176.5170  136.1100 C   0  0  0  0  0  3  0  0  0  0  0  0
  193.8530  175.3920  137.1310 C   0  0  0  0  0  2  0  0  0  0  0  0
  194.2410  172.9360  136.9160 O   0  0  0  0  0  0  0  0  0  0  0  0
  194.3960  174.1040  137.6510 C   0  0  0  0  0  0  0  0  0  0  0  0
  195.0260  174.0820  138.7400 O   0  0  0  0  0  1  0  0  0  0  0  0
  1 14  1  0  0  0  0
  2  8  1  0  0  0  0
  3 12  2  0  0  0  0
  4  7  1  0  0  0  0
  4  2  2  0  0  0  0
  6  5  1  1  0  0  0
  6 13  1  0  0  0  0
  6  3  1  0  0  0  0
  7  5  2  0  0  0  0
  8 13  2  0  0  0  0
  9 10  1  0  0  0  0
 10 14  2  0  0  0  0
 11  1  2  0  0  0  0
 12  9  1  0  0  0  0
 13 15  1  0  0  0  0
 15 11  1  0  0  0  0
 15  9  2  0  0  0  0
 16  3  1  0  0  0  0
 16 17  1  0  0  0  0
 18 17  2  0  0  0  0
 19 18  1  0  0  0  0
 20 21  1  0  0  0  0
 20 19  2  0  0  0  0
 21 16  2  0  0  0  0
 22 20  1  0  0  0  0
 23 22  1  0  0  0  0
 24 23  1  0  0  0  0
 25 26  1  0  0  0  0
 25 24  1  0  0  0  0
 27 26  1  0  0  0  0
 28 33  1  0  0  0  0
 28 27  1  6  0  0  0
 29 31  1  0  0  0  0
 30 31  2  0  0  0  0
 31 28  1  0  0  0  0
 33 32  1  6  0  0  0
 34 35  1  0  0  0  0
 34 33  1  0  0  0  0
 35 36  1  6  0  0  0
 37 35  1  0  0  0  0
 37 38  1  0  0  0  0
 39 37  1  0  0  0  0
 40 37  1  0  0  0  0
 41  4  1  0  0  0  0
 42 44  1  0  0  0  0
 43 44  1  0  0  0  0
 44 41  1  1  0  0  0
 45 48  1  6  0  0  0
 45 43  1  0  0  0  0
 46 45  1  0  0  0  0
 47 46  1  0  0  0  0
 47 42  2  0  0  0  0
 48 50  1  0  0  0  0
 49 50  2  0  0  0  0
 50 51  1  0  0  0  0
M  END
>  <MODEL>
3

>  <REMARK>
 VINA RESULT:      -8.1      2.661      6.607
  Name = 
  17 active torsions:
  status: ('A' for Active; 'I' for Inactive)
    1  A    between atoms: C_4  and  C_5
    2  A    between atoms: C_8  and  C_24
    3  A    between atoms: C_8  and  N_51
    4  A    between atoms: C_10  and  N_33
    5  A    between atoms: C_18  and  C_19
    6  A    between atoms: C_18  and  C_48
    7  A    between atoms: C_19  and  O_45
    8  A    between atoms: C_21  and  N_33
    9  A    between atoms: C_22  and  C_48
   10  A    between atoms: C_22  and  N_51
   11  A    between atoms: C_26  and  C_31
   12  A    between atoms: C_27  and  N_50
   13  A    between atoms: C_29  and  C_31
   14  A    between atoms: C_39  and  C_44
   15  A    between atoms: C_39  and  N_50
   16  A    between atoms: C_44  and  O_45
   17  A    between atoms: C_48  and  C_49
                            x       y       z     vdW  Elec       q    Type
                         _______ _______ _______ _____ _____    ______ ____

>  <TORSDO>
F 17

$$$$
=
 OpenBabel10232408523D

 51 55  0  0  1  0  0  0  0  0999 V2000
  189.9330  177.5480  148.4950 N   0  0  0  0  0  0  0  0  0  0  0  0
  191.2420  177.9210  142.9380 C   0  0  0  0  0  3  0  0  0  0  0  0
  187.0130  178.0250  144.3730 C   0  0  0  0  0  0  0  0  0  0  0  0
  190.6500  177.2760  141.9150 C   0  0  0  0  0  0  0  0  0  0  0  0
  188.4690  176.6170  142.9290 C   0  0  0  0  0  3  0  0  0  0  0  0
  188.4010  177.8450  143.7780 C   0  0  2  0  0  3  0  0  0  0  0  0
  189.4720  176.3990  142.0790 C   0  0  0  0  0  3  0  0  0  0  0  0
  190.8040  177.9450  144.3490 C   0  0  0  0  0  3  0  0  0  0  0  0
  187.9150  177.7990  146.6560 C   0  0  0  0  0  0  0  0  0  0  0  0
  187.6380  177.7090  148.0190 C   0  0  0  0  0  3  0  0  0  0  0  0
  190.2560  177.6360  147.1790 C   0  0  0  0  0  3  0  0  0  0  0  0
  186.8170  177.9730  145.6990 C   0  0  0  0  0  3  0  0  0  0  0  0
  189.5370  177.8540  144.7740 C   0  0  0  0  0  0  0  0  0  0  0  0
  188.6630  177.5820  148.9020 N   0  0  0  0  0  0  0  0  0  0  0  0
  189.2430  177.7670  146.2210 C   0  0  0  0  0  0  0  0  0  0  0  0
  185.8530  178.2890  143.4770 C   0  0  0  0  0  0  0  0  0  0  0  0
  185.9820  178.1470  142.0870 C   0  0  0  0  0  3  0  0  0  0  0  0
  184.8980  178.3990  141.2410 C   0  0  0  0  0  3  0  0  0  0  0  0
  183.6730  178.8010  141.7750 C   0  0  0  0  0  3  0  0  0  0  0  0
  183.5250  178.9550  143.1550 C   0  0  0  0  0  0  0  0  0  0  0  0
  184.6140  178.6990  144.0010 C   0  0  0  0  0  3  0  0  0  0  0  0
  182.2640  179.3760  143.6800 N   0  0  0  0  0  2  0  0  0  0  0  0
  181.0980  178.5070  143.7250 C   0  0  0  0  0  2  0  0  0  0  0  0
  180.1150  178.9080  142.6410 C   0  0  0  0  0  2  0  0  0  0  0  0
  180.4080  180.1950  142.1870 O   0  0  0  0  0  0  0  0  0  0  0  0
  179.9820  180.2040  140.8600 C   0  0  0  0  0  2  0  0  0  0  0  0
  180.9290  179.3640  140.0150 C   0  0  0  0  0  2  0  0  0  0  0  0
  180.8090  179.6500  138.5130 C   0  0  1  0  0  3  0  0  0  0  0  0
  182.1870  181.7180  138.7350 O   0  0  0  0  0  1  0  0  0  0  0  0
  180.4240  181.6710  137.2750 O   0  0  0  0  0  0  0  0  0  0  0  0
  181.1210  181.0660  138.1310 C   0  0  0  0  0  0  0  0  0  0  0  0
  181.0220  178.7710  136.1270 C   0  0  0  0  0  1  0  0  0  0  0  0
  181.4380  178.6020  137.5790 C   0  0  1  0  0  3  0  0  0  0  0  0
  182.8890  178.6270  137.6790 N   0  0  0  0  0  2  0  0  0  0  0  0
  183.3270  177.3140  138.1360 C   0  0  1  0  0  3  0  0  0  0  0  0
  182.2230  176.4610  138.2450 O   0  0  0  0  0  1  0  0  0  0  0  0
  184.3830  176.7300  137.1920 C   0  0  0  0  0  0  0  0  0  0  0  0
  184.5180  175.2270  137.3810 C   0  0  0  0  0  1  0  0  0  0  0  0
  184.0220  176.9910  135.8700 O   0  0  0  0  0  1  0  0  0  0  0  0
  185.7260  177.3810  137.4630 C   0  0  0  0  0  1  0  0  0  0  0  0
  191.2460  177.3230  140.6130 N   0  0  0  0  0  2  0  0  0  0  0  0
  189.6530  177.9050  138.8870 C   0  0  0  0  0  3  0  0  0  0  0  0
  191.6390  176.4900  138.3430 C   0  0  0  0  0  2  0  0  0  0  0  0
  190.5920  176.8510  139.3990 C   0  0  1  0  0  3  0  0  0  0  0  0
  190.9210  176.1380  137.0420 C   0  0  1  0  0  3  0  0  0  0  0  0
  190.0670  177.2140  136.6460 O   0  0  0  0  0  0  0  0  0  0  0  0
  189.4120  178.0300  137.5800 C   0  0  0  0  0  3  0  0  0  0  0  0
  191.9220  175.8510  135.9370 C   0  0  0  0  0  2  0  0  0  0  0  0
  192.2780  173.7260  137.1970 O   0  0  0  0  0  1  0  0  0  0  0  0
  192.7340  174.6430  136.2580 C   0  0  0  0  0  0  0  0  0  0  0  0
  193.8170  174.4350  135.6520 O   0  0  0  0  0  0  0  0  0  0  0  0
  1 14  1  0  0  0  0
  2  8  1  0  0  0  0
  3 12  2  0  0  0  0
  4  7  1  0  0  0  0
  4  2  2  0  0  0  0
  6  5  1  1  0  0  0
  6  3  1  0  0  0  0
  6 13  1  0  0  0  0
  7  5  2  0  0  0  0
  8 13  2  0  0  0  0
  9 10  1  0  0  0  0
 10 14  2  0  0  0  0
 11  1  2  0  0  0  0
 12  9  1  0  0  0  0
 13 15  1  0  0  0  0
 15  9  2  0  0  0  0
 15 11  1  0  0  0  0
 16 21  1  0  0  0  0
 16  3  1  0  0  0  0
 17 16  2  0  0  0  0
 18 19  2  0  0  0  0
 18 17  1  0  0  0  0
 19 20  1  0  0  0  0
 20 22  1  0  0  0  0
 20 21  2  0  0  0  0
 22 23  1  0  0  0  0
 24 23  1  0  0  0  0
 25 24  1  0  0  0  0
 26 25  1  0  0  0  0
 27 26  1  0  0  0  0
 28 27  1  1  0  0  0
 30 31  2  0  0  0  0
 31 28  1  0  0  0  0
 31 29  1  0  0  0  0
 33 32  1  6  0  0  0
 33 34  1  0  0  0  0
 33 28  1  0  0  0  0
 34 35  1  0  0  0  0
 35 36  1  6  0  0  0
 37 38  1  0  0  0  0
 37 40  1  0  0  0  0
 37 35  1  0  0  0  0
 39 37  1  0  0  0  0
 41  4  1  0  0  0  0
 42 44  1  0  0  0  0
 43 44  1  0  0  0  0
 44 41  1  1  0  0  0
 45 48  1  6  0  0  0
 45 43  1  0  0  0  0
 46 45  1  0  0  0  0
 46 47  1  0  0  0  0
 47 42  2  0  0  0  0
 48 50  1  0  0  0  0
 50 49  1  0  0  0  0
 51 50  2  0  0  0  0
M  END
>  <MODEL>
4

>  <REMARK>
 VINA RESULT:      -7.7      2.785      7.331
  Name = 
  17 active torsions:
  status: ('A' for Active; 'I' for Inactive)
    1  A    between atoms: C_4  and  C_5
    2  A    between atoms: C_8  and  C_24
    3  A    between atoms: C_8  and  N_51
    4  A    between atoms: C_10  and  N_33
    5  A    between atoms: C_18  and  C_19
    6  A    between atoms: C_18  and  C_48
    7  A    between atoms: C_19  and  O_45
    8  A    between atoms: C_21  and  N_33
    9  A    between atoms: C_22  and  C_48
   10  A    between atoms: C_22  and  N_51
   11  A    between atoms: C_26  and  C_31
   12  A    between atoms: C_27  and  N_50
   13  A    between atoms: C_29  and  C_31
   14  A    between atoms: C_39  and  C_44
   15  A    between atoms: C_39  and  N_50
   16  A    between atoms: C_44  and  O_45
   17  A    between atoms: C_48  and  C_49
                            x       y       z     vdW  Elec       q    Type
                         _______ _______ _______ _____ _____    ______ ____

>  <TORSDO>
F 17

$$$$
=
 OpenBabel10232408523D

 51 55  0  0  1  0  0  0  0  0999 V2000
  191.9170  176.7930  147.2850 N   0  0  0  0  0  0  0  0  0  0  0  0
  190.8770  177.9960  141.7900 C   0  0  0  0  0  3  0  0  0  0  0  0
  187.6040  177.8400  144.8270 C   0  0  0  0  0  0  0  0  0  0  0  0
  189.8890  177.5020  141.0190 C   0  0  0  0  0  0  0  0  0  0  0  0
  188.2760  176.6760  142.7330 C   0  0  0  0  0  3  0  0  0  0  0  0
  188.6210  177.7660  143.6980 C   0  0  2  0  0  3  0  0  0  0  0  0
  188.8360  176.5980  141.5270 C   0  0  0  0  0  3  0  0  0  0  0  0
  191.0500  177.8070  143.2450 C   0  0  0  0  0  3  0  0  0  0  0  0
  189.3420  177.2900  146.4860 C   0  0  0  0  0  0  0  0  0  0  0  0
  189.6380  176.9970  147.8160 C   0  0  0  0  0  3  0  0  0  0  0  0
  191.6830  177.0780  145.9780 C   0  0  0  0  0  3  0  0  0  0  0  0
  187.9610  177.5910  146.0960 C   0  0  0  0  0  3  0  0  0  0  0  0
  190.0620  177.6400  144.1340 C   0  0  0  0  0  0  0  0  0  0  0  0
  190.9250  176.7530  148.1770 N   0  0  0  0  0  0  0  0  0  0  0  0
  190.3760  177.3380  145.5470 C   0  0  0  0  0  0  0  0  0  0  0  0
  186.1960  178.2210  144.5290 C   0  0  0  0  0  0  0  0  0  0  0  0
  185.2820  178.4380  145.5720 C   0  0  0  0  0  3  0  0  0  0  0  0
  183.9580  178.7900  145.2990 C   0  0  0  0  0  3  0  0  0  0  0  0
  183.5290  178.9230  143.9770 C   0  0  0  0  0  3  0  0  0  0  0  0
  184.4190  178.7040  142.9230 C   0  0  0  0  0  0  0  0  0  0  0  0
  185.7490  178.3540  143.2020 C   0  0  0  0  0  3  0  0  0  0  0  0
  183.9560  178.8380  141.5780 N   0  0  0  0  0  2  0  0  0  0  0  0
  183.3690  177.7360  140.8320 C   0  0  0  0  0  2  0  0  0  0  0  0
  181.9350  178.0690  140.4650 C   0  0  0  0  0  2  0  0  0  0  0  0
  181.8430  178.3270  139.0970 O   0  0  0  0  0  0  0  0  0  0  0  0
  182.6920  177.3940  138.5060 C   0  0  0  0  0  2  0  0  0  0  0  0
  183.0290  177.8370  137.0900 C   0  0  0  0  0  2  0  0  0  0  0  0
  184.3550  177.2590  136.5780 C   0  0  1  0  0  3  0  0  0  0  0  0
  185.7170  178.7130  138.0810 O   0  0  0  0  0  1  0  0  0  0  0  0
  186.3060  176.5230  137.7680 O   0  0  0  0  0  0  0  0  0  0  0  0
  185.5140  177.4650  137.5070 C   0  0  0  0  0  0  0  0  0  0  0  0
  185.5390  175.4550  135.2150 C   0  0  0  0  0  1  0  0  0  0  0  0
  184.2840  175.8440  135.9790 C   0  0  1  0  0  3  0  0  0  0  0  0
  184.0160  174.8590  137.0160 N   0  0  0  0  0  2  0  0  0  0  0  0
  184.5610  173.5820  136.5680 C   0  0  1  0  0  3  0  0  0  0  0  0
  185.4760  173.1030  137.5110 O   0  0  0  0  0  1  0  0  0  0  0  0
  183.4410  172.5660  136.3220 C   0  0  0  0  0  0  0  0  0  0  0  0
  183.9880  171.1480  136.2680 C   0  0  0  0  0  1  0  0  0  0  0  0
  182.5000  172.6520  137.3490 O   0  0  0  0  0  1  0  0  0  0  0  0
  182.7510  172.8760  135.0070 C   0  0  0  0  0  1  0  0  0  0  0  0
  189.9070  177.7470  139.6080 N   0  0  0  0  0  2  0  0  0  0  0  0
  189.6300  177.2880  137.2480 C   0  0  0  0  0  3  0  0  0  0  0  0
  191.2690  175.9750  138.6030 C   0  0  0  0  0  2  0  0  0  0  0  0
  189.9190  176.6960  138.5970 C   0  0  1  0  0  3  0  0  0  0  0  0
  191.2980  174.9830  137.4420 C   0  0  1  0  0  3  0  0  0  0  0  0
  191.0220  175.6570  136.2120 O   0  0  0  0  0  0  0  0  0  0  0  0
  190.1510  176.7540  136.1410 C   0  0  0  0  0  3  0  0  0  0  0  0
  192.6510  174.2990  137.3540 C   0  0  0  0  0  2  0  0  0  0  0  0
  193.6800  175.7350  135.5920 O   0  0  0  0  0  0  0  0  0  0  0  0
  193.7000  175.2540  136.8940 C   0  0  0  0  0  0  0  0  0  0  0  0
  194.5840  175.6500  137.6970 O   0  0  0  0  0  1  0  0  0  0  0  0
  1 14  1  0  0  0  0
  2  8  1  0  0  0  0
  3 12  2  0  0  0  0
  4  7  1  0  0  0  0
  4  2  2  0  0  0  0
  6  5  1  6  0  0  0
  6 13  1  0  0  0  0
  6  3  1  0  0  0  0
  7  5  2  0  0  0  0
  8 13  2  0  0  0  0
  9 10  1  0  0  0  0
 10 14  2  0  0  0  0
 11  1  2  0  0  0  0
 12  9  1  0  0  0  0
 13 15  1  0  0  0  0
 15 11  1  0  0  0  0
 15  9  2  0  0  0  0
 16  3  1  0  0  0  0
 16 17  1  0  0  0  0
 18 17  2  0  0  0  0
 19 18  1  0  0  0  0
 20 21  1  0  0  0  0
 20 19  2  0  0  0  0
 21 16  2  0  0  0  0
 22 20  1  0  0  0  0
 23 22  1  0  0  0  0
 24 23  1  0  0  0  0
 25 24  1  0  0  0  0
 26 25  1  0  0  0  0
 27 26  1  0  0  0  0
 28 27  1  1  0  0  0
 28 31  1  0  0  0  0
 31 30  2  0  0  0  0
 31 29  1  0  0  0  0
 33 32  1  1  0  0  0
 33 28  1  0  0  0  0
 33 34  1  0  0  0  0
 35 34  1  0  0  0  0
 35 36  1  1  0  0  0
 37 35  1  0  0  0  0
 37 39  1  0  0  0  0
 38 37  1  0  0  0  0
 40 37  1  0  0  0  0
 41  4  1  0  0  0  0
 42 44  1  0  0  0  0
 44 43  1  0  0  0  0
 44 41  1  1  0  0  0
 45 48  1  6  0  0  0
 45 43  1  0  0  0  0
 46 45  1  0  0  0  0
 47 46  1  0  0  0  0
 47 42  2  0  0  0  0
 49 50  2  0  0  0  0
 50 48  1  0  0  0  0
 50 51  1  0  0  0  0
M  END
>  <MODEL>
5

>  <REMARK>
 VINA RESULT:      -7.4      2.555      6.839
  Name = 
  17 active torsions:
  status: ('A' for Active; 'I' for Inactive)
    1  A    between atoms: C_4  and  C_5
    2  A    between atoms: C_8  and  C_24
    3  A    between atoms: C_8  and  N_51
    4  A    between atoms: C_10  and  N_33
    5  A    between atoms: C_18  and  C_19
    6  A    between atoms: C_18  and  C_48
    7  A    between atoms: C_19  and  O_45
    8  A    between atoms: C_21  and  N_33
    9  A    between atoms: C_22  and  C_48
   10  A    between atoms: C_22  and  N_51
   11  A    between atoms: C_26  and  C_31
   12  A    between atoms: C_27  and  N_50
   13  A    between atoms: C_29  and  C_31
   14  A    between atoms: C_39  and  C_44
   15  A    between atoms: C_39  and  N_50
   16  A    between atoms: C_44  and  O_45
   17  A    between atoms: C_48  and  C_49
                            x       y       z     vdW  Elec       q    Type
                         _______ _______ _______ _____ _____    ______ ____

>  <TORSDO>
F 17

$$$$
=
 OpenBabel10232408523D

 51 55  0  0  1  0  0  0  0  0999 V2000
  188.6400  177.5660  148.5470 N   0  0  0  0  0  0  0  0  0  0  0  0
  183.9070  178.3220  145.4240 C   0  0  0  0  0  3  0  0  0  0  0  0
  187.9300  177.8860  143.5330 C   0  0  0  0  0  0  0  0  0  0  0  0
  183.7440  179.1520  144.3760 C   0  0  0  0  0  0  0  0  0  0  0  0
  186.1070  179.5710  143.6940 C   0  0  0  0  0  3  0  0  0  0  0  0
  186.5470  178.1970  144.0850 C   0  0  2  0  0  3  0  0  0  0  0  0
  184.8390  179.9650  143.8040 C   0  0  0  0  0  3  0  0  0  0  0  0
  185.1680  178.0130  146.1280 C   0  0  0  0  0  3  0  0  0  0  0  0
  188.8380  177.6640  145.8140 C   0  0  0  0  0  0  0  0  0  0  0  0
  189.9660  177.4770  146.6110 C   0  0  0  0  0  3  0  0  0  0  0  0
  187.5090  177.7450  147.8160 C   0  0  0  0  0  3  0  0  0  0  0  0
  188.9700  177.6710  144.3540 C   0  0  0  0  0  3  0  0  0  0  0  0
  186.3880  178.0030  145.5750 C   0  0  0  0  0  0  0  0  0  0  0  0
  189.8320  177.4360  147.9620 N   0  0  0  0  0  0  0  0  0  0  0  0
  187.5850  177.7960  146.4190 C   0  0  0  0  0  0  0  0  0  0  0  0
  188.1350  177.7930  142.0620 C   0  0  0  0  0  0  0  0  0  0  0  0
  187.2470  178.4270  141.1780 C   0  0  0  0  0  3  0  0  0  0  0  0
  187.4310  178.3380  139.7960 C   0  0  0  0  0  3  0  0  0  0  0  0
  188.5030  177.6100  139.2790 C   0  0  0  0  0  3  0  0  0  0  0  0
  189.3950  176.9660  140.1390 C   0  0  0  0  0  0  0  0  0  0  0  0
  189.2090  177.0590  141.5260 C   0  0  0  0  0  3  0  0  0  0  0  0
  190.4820  176.2180  139.5870 N   0  0  0  0  0  2  0  0  0  0  0  0
  191.3670  176.7510  138.5630 C   0  0  0  0  0  2  0  0  0  0  0  0
  192.0870  175.6140  137.8640 C   0  0  0  0  0  2  0  0  0  0  0  0
  192.9890  176.1260  136.9300 O   0  0  0  0  0  0  0  0  0  0  0  0
  193.8810  175.0810  136.6960 C   0  0  0  0  0  2  0  0  0  0  0  0
  193.6580  173.9800  137.7210 C   0  0  0  0  0  2  0  0  0  0  0  0
  194.9640  173.3420  138.2130 C   0  0  1  0  0  3  0  0  0  0  0  0
  195.8290  171.0020  138.1590 O   0  0  0  0  0  1  0  0  0  0  0  0
  195.2910  172.0670  136.2050 O   0  0  0  0  0  0  0  0  0  0  0  0
  195.3650  172.1080  137.4600 C   0  0  0  0  0  0  0  0  0  0  0  0
  196.0560  174.9680  139.8470 C   0  0  0  0  0  1  0  0  0  0  0  0
  196.1270  174.3130  138.4780 C   0  0  1  0  0  3  0  0  0  0  0  0
  197.4070  173.6380  138.3240 N   0  0  0  0  0  2  0  0  0  0  0  0
  198.3710  174.6180  137.8370 C   0  0  1  0  0  3  0  0  0  0  0  0
  199.2020  175.0230  138.8870 O   0  0  0  0  0  1  0  0  0  0  0  0
  199.1900  174.0490  136.6740 C   0  0  0  0  0  0  0  0  0  0  0  0
  198.2860  173.5710  135.5480 C   0  0  0  0  0  1  0  0  0  0  0  0
  200.0480  175.0330  136.1820 O   0  0  0  0  0  1  0  0  0  0  0  0
  200.0250  172.8810  137.1610 C   0  0  0  0  0  1  0  0  0  0  0  0
  182.4310  179.3720  143.8480 N   0  0  0  0  0  2  0  0  0  0  0  0
  180.5250  179.2100  142.3660 C   0  0  0  0  0  3  0  0  0  0  0  0
  182.8340  178.8130  141.4970 C   0  0  0  0  0  2  0  0  0  0  0  0
  181.8880  178.6710  142.6910 C   0  0  1  0  0  3  0  0  0  0  0  0
  182.1690  178.1920  140.2700 C   0  0  1  0  0  3  0  0  0  0  0  0
  180.8890  178.7870  140.0500 O   0  0  0  0  0  0  0  0  0  0  0  0
  180.0780  179.2260  141.1070 C   0  0  0  0  0  3  0  0  0  0  0  0
  183.0350  178.3800  139.0370 C   0  0  0  0  0  2  0  0  0  0  0  0
  182.2480  180.6930  138.5290 O   0  0  0  0  0  0  0  0  0  0  0  0
  183.3010  179.8260  138.7910 C   0  0  0  0  0  0  0  0  0  0  0  0
  184.4770  180.2690  138.8560 O   0  0  0  0  0  1  0  0  0  0  0  0
  2  8  1  0  0  0  0
  3  6  1  0  0  0  0
  3 12  2  0  0  0  0
  4  2  2  0  0  0  0
  5  7  2  0  0  0  0
  6  5  1  1  0  0  0
  6 13  1  0  0  0  0
  7  4  1  0  0  0  0
  9 15  2  0  0  0  0
  9 10  1  0  0  0  0
 10 14  2  0  0  0  0
 11  1  2  0  0  0  0
 12  9  1  0  0  0  0
 13  8  2  0  0  0  0
 13 15  1  0  0  0  0
 14  1  1  0  0  0  0
 15 11  1  0  0  0  0
 16  3  1  0  0  0  0
 17 16  2  0  0  0  0
 18 17  1  0  0  0  0
 19 18  2  0  0  0  0
 19 20  1  0  0  0  0
 20 21  2  0  0  0  0
 21 16  1  0  0  0  0
 22 20  1  0  0  0  0
 23 22  1  0  0  0  0
 24 23  1  0  0  0  0
 25 24  1  0  0  0  0
 26 25  1  0  0  0  0
 26 27  1  0  0  0  0
 28 27  1  6  0  0  0
 28 33  1  0  0  0  0
 30 31  2  0  0  0  0
 31 29  1  0  0  0  0
 31 28  1  0  0  0  0
 33 32  1  1  0  0  0
 34 33  1  0  0  0  0
 35 34  1  0  0  0  0
 35 36  1  1  0  0  0
 37 40  1  0  0  0  0
 37 35  1  0  0  0  0
 38 37  1  0  0  0  0
 39 37  1  0  0  0  0
 41  4  1  0  0  0  0
 42 44  1  0  0  0  0
 43 44  1  0  0  0  0
 44 41  1  1  0  0  0
 45 48  1  6  0  0  0
 45 43  1  0  0  0  0
 46 45  1  0  0  0  0
 46 47  1  0  0  0  0
 47 42  2  0  0  0  0
 49 50  2  0  0  0  0
 50 51  1  0  0  0  0
 50 48  1  0  0  0  0
M  END
>  <MODEL>
6

>  <REMARK>
 VINA RESULT:      -7.4      4.993      9.022
  Name = 
  17 active torsions:
  status: ('A' for Active; 'I' for Inactive)
    1  A    between atoms: C_4  and  C_5
    2  A    between atoms: C_8  and  C_24
    3  A    between atoms: C_8  and  N_51
    4  A    between atoms: C_10  and  N_33
    5  A    between atoms: C_18  and  C_19
    6  A    between atoms: C_18  and  C_48
    7  A    between atoms: C_19  and  O_45
    8  A    between atoms: C_21  and  N_33
    9  A    between atoms: C_22  and  C_48
   10  A    between atoms: C_22  and  N_51
   11  A    between atoms: C_26  and  C_31
   12  A    between atoms: C_27  and  N_50
   13  A    between atoms: C_29  and  C_31
   14  A    between atoms: C_39  and  C_44
   15  A    between atoms: C_39  and  N_50
   16  A    between atoms: C_44  and  O_45
   17  A    between atoms: C_48  and  C_49
                            x       y       z     vdW  Elec       q    Type
                         _______ _______ _______ _____ _____    ______ ____

>  <TORSDO>
F 17

$$$$
=
 OpenBabel10232408523D

 51 55  0  0  1  0  0  0  0  0999 V2000
  185.8500  176.7010  135.2300 N   0  0  0  0  0  0  0  0  0  0  0  0
  190.8670  173.9680  135.5210 C   0  0  0  0  0  3  0  0  0  0  0  0
  189.4980  176.7270  138.7570 C   0  0  0  0  0  0  0  0  0  0  0  0
  192.0570  174.4830  135.8840 C   0  0  0  0  0  0  0  0  0  0  0  0
  191.3620  176.5350  137.1210 C   0  0  0  0  0  3  0  0  0  0  0  0
  190.1170  175.8940  137.6440 C   0  0  0  0  0  0  0  0  0  0  0  0
  192.2320  175.8720  136.3590 C   0  0  0  0  0  3  0  0  0  0  0  0
  189.5490  174.6320  135.5970 C   0  0  0  0  0  3  0  0  0  0  0  0
  187.4630  177.0890  137.4120 C   0  0  0  0  0  0  0  0  0  0  0  0
  186.2320  177.7320  137.3050 C   0  0  0  0  0  3  0  0  0  0  0  0
  187.0380  176.0460  135.2880 C   0  0  0  0  0  3  0  0  0  0  0  0
  188.2860  177.2840  138.6100 C   0  0  0  0  0  3  0  0  0  0  0  0
  189.1880  175.5500  136.5030 C   0  0  1  0  0  3  0  0  0  0  0  0
  185.4590  177.5200  136.2080 N   0  0  0  0  0  0  0  0  0  0  0  0
  187.8780  176.2270  136.3940 C   0  0  0  0  0  0  0  0  0  0  0  0
  190.2310  176.9070  140.0390 C   0  0  0  0  0  0  0  0  0  0  0  0
  191.5050  177.4960  140.0540 C   0  0  0  0  0  3  0  0  0  0  0  0
  192.2000  177.6640  141.2550 C   0  0  0  0  0  3  0  0  0  0  0  0
  191.6320  177.2380  142.4570 C   0  0  0  0  0  3  0  0  0  0  0  0
  190.3680  176.6440  142.4650 C   0  0  0  0  0  0  0  0  0  0  0  0
  189.6720  176.4800  141.2570 C   0  0  0  0  0  3  0  0  0  0  0  0
  189.8080  176.2080  143.7060 N   0  0  0  0  0  2  0  0  0  0  0  0
  189.8520  177.0130  144.9170 C   0  0  0  0  0  2  0  0  0  0  0  0
  188.6630  177.9530  144.9520 C   0  0  0  0  0  2  0  0  0  0  0  0
  187.7780  177.5630  145.9580 O   0  0  0  0  0  0  0  0  0  0  0  0
  186.5130  177.7320  145.3980 C   0  0  0  0  0  2  0  0  0  0  0  0
  186.6490  178.0130  143.9090 C   0  0  0  0  0  2  0  0  0  0  0  0
  185.3080  178.3240  143.2300 C   0  0  1  0  0  3  0  0  0  0  0  0
  183.3510  178.4650  144.7720 O   0  0  0  0  0  1  0  0  0  0  0  0
  184.4670  180.3700  144.1620 O   0  0  0  0  0  0  0  0  0  0  0  0
  184.3610  179.1190  144.0780 C   0  0  0  0  0  0  0  0  0  0  0  0
  186.8070  178.7940  141.2190 C   0  0  0  0  0  1  0  0  0  0  0  0
  185.3910  178.8050  141.7720 C   0  0  1  0  0  3  0  0  0  0  0  0
  184.5250  178.0080  140.9160 N   0  0  0  0  0  2  0  0  0  0  0  0
  183.5960  178.9160  140.2530 C   0  0  1  0  0  3  0  0  0  0  0  0
  184.3110  179.9040  139.5680 O   0  0  0  0  0  1  0  0  0  0  0  0
  182.6670  178.1510  139.3050 C   0  0  0  0  0  0  0  0  0  0  0  0
  181.2230  178.2180  139.7770 C   0  0  0  0  0  1  0  0  0  0  0  0
  182.7530  178.7000  138.0250 O   0  0  0  0  0  1  0  0  0  0  0  0
  183.0930  176.6960  139.2350 C   0  0  0  0  0  1  0  0  0  0  0  0
  193.2480  173.7100  135.6930 N   0  0  0  0  0  2  0  0  0  0  0  0
  194.2560  171.6700  136.5140 C   0  0  0  0  0  3  0  0  0  0  0  0
  195.3560  173.8740  136.9300 C   0  0  0  0  0  2  0  0  0  0  0  0
  194.0280  173.1290  136.7790 C   0  0  1  0  0  3  0  0  0  0  0  0
  196.2040  173.1530  137.9760 C   0  0  1  0  0  3  0  0  0  0  0  0
  196.3650  171.7790  137.6160 O   0  0  0  0  0  0  0  0  0  0  0  0
  195.3630  171.0600  136.9470 C   0  0  0  0  0  3  0  0  0  0  0  0
  197.5690  173.8070  138.1030 C   0  0  0  0  0  2  0  0  0  0  0  0
  198.5770  175.7980  139.2200 O   0  0  0  0  0  0  0  0  0  0  0  0
  197.5570  174.8580  139.1610 C   0  0  0  0  0  0  0  0  0  0  0  0
  196.6040  174.9130  139.9810 O   0  0  0  0  0  1  0  0  0  0  0  0
  1 11  2  0  0  0  0
  1 14  1  0  0  0  0
  2  8  2  0  0  0  0
  2  4  1  0  0  0  0
  3 16  1  0  0  0  0
  4  7  2  0  0  0  0
  5  6  2  0  0  0  0
  6  3  1  0  0  0  0
  7  5  1  0  0  0  0
  9 12  1  0  0  0  0
 10  9  1  0  0  0  0
 11 15  1  0  0  0  0
 12  3  2  0  0  0  0
 13  8  1  1  0  0  0
 13  6  1  0  0  0  0
 14 10  2  0  0  0  0
 15 13  1  0  0  0  0
 15  9  2  0  0  0  0
 16 17  2  0  0  0  0
 16 21  1  0  0  0  0
 17 18  1  0  0  0  0
 18 19  2  0  0  0  0
 19 20  1  0  0  0  0
 20 22  1  0  0  0  0
 21 20  2  0  0  0  0
 22 23  1  0  0  0  0
 23 24  1  0  0  0  0
 24 25  1  0  0  0  0
 26 25  1  0  0  0  0
 27 26  1  0  0  0  0
 28 27  1  1  0  0  0
 28 31  1  0  0  0  0
 31 30  2  0  0  0  0
 31 29  1  0  0  0  0
 33 32  1  6  0  0  0
 33 28  1  0  0  0  0
 34 33  1  0  0  0  0
 35 36  1  6  0  0  0
 35 34  1  0  0  0  0
 37 38  1  0  0  0  0
 37 35  1  0  0  0  0
 39 37  1  0  0  0  0
 40 37  1  0  0  0  0
 41  4  1  0  0  0  0
 42 44  1  0  0  0  0
 42 47  2  0  0  0  0
 43 45  1  0  0  0  0
 44 41  1  6  0  0  0
 44 43  1  0  0  0  0
 45 48  1  6  0  0  0
 46 45  1  0  0  0  0
 47 46  1  0  0  0  0
 48 50  1  0  0  0  0
 50 49  2  0  0  0  0
 50 51  1  0  0  0  0
M  END
>  <MODEL>
7

>  <REMARK>
 VINA RESULT:      -7.2      4.327      8.509
  Name = 
  17 active torsions:
  status: ('A' for Active; 'I' for Inactive)
    1  A    between atoms: C_4  and  C_5
    2  A    between atoms: C_8  and  C_24
    3  A    between atoms: C_8  and  N_51
    4  A    between atoms: C_10  and  N_33
    5  A    between atoms: C_18  and  C_19
    6  A    between atoms: C_18  and  C_48
    7  A    between atoms: C_19  and  O_45
    8  A    between atoms: C_21  and  N_33
    9  A    between atoms: C_22  and  C_48
   10  A    between atoms: C_22  and  N_51
   11  A    between atoms: C_26  and  C_31
   12  A    between atoms: C_27  and  N_50
   13  A    between atoms: C_29  and  C_31
   14  A    between atoms: C_39  and  C_44
   15  A    between atoms: C_39  and  N_50
   16  A    between atoms: C_44  and  O_45
   17  A    between atoms: C_48  and  C_49
                            x       y       z     vdW  Elec       q    Type
                         _______ _______ _______ _____ _____    ______ ____

>  <TORSDO>
F 17

$$$$
=
 OpenBabel10232408523D

 51 55  0  0  1  0  0  0  0  0999 V2000
  191.8940  176.8910  147.4390 N   0  0  0  0  0  0  0  0  0  0  0  0
  191.1110  177.6610  141.8250 C   0  0  0  0  0  3  0  0  0  0  0  0
  187.7100  177.7990  144.7170 C   0  0  0  0  0  0  0  0  0  0  0  0
  190.1490  177.1200  141.0530 C   0  0  0  0  0  0  0  0  0  0  0  0
  188.4500  176.4600  142.7550 C   0  0  0  0  0  3  0  0  0  0  0  0
  188.7720  177.6180  143.6430 C   0  0  2  0  0  3  0  0  0  0  0  0
  189.0590  176.2760  141.5840 C   0  0  0  0  0  3  0  0  0  0  0  0
  191.2190  177.5870  143.2960 C   0  0  0  0  0  3  0  0  0  0  0  0
  189.3650  177.3590  146.4900 C   0  0  0  0  0  0  0  0  0  0  0  0
  189.5990  177.1710  147.8500 C   0  0  0  0  0  3  0  0  0  0  0  0
  191.7210  177.0730  146.1040 C   0  0  0  0  0  3  0  0  0  0  0  0
  188.0080  177.6480  146.0160 C   0  0  0  0  0  3  0  0  0  0  0  0
  190.1910  177.5080  144.1510 C   0  0  0  0  0  0  0  0  0  0  0  0
  190.8650  176.9380  148.2860 N   0  0  0  0  0  0  0  0  0  0  0  0
  190.4390  177.3160  145.5960 C   0  0  0  0  0  0  0  0  0  0  0  0
  186.3230  178.1740  144.3280 C   0  0  0  0  0  0  0  0  0  0  0  0
  185.3530  178.4290  145.3100 C   0  0  0  0  0  3  0  0  0  0  0  0
  184.0480  178.7760  144.9510 C   0  0  0  0  0  3  0  0  0  0  0  0
  183.6940  178.8680  143.6030 C   0  0  0  0  0  3  0  0  0  0  0  0
  184.6420  178.6120  142.6090 C   0  0  0  0  0  0  0  0  0  0  0  0
  185.9510  178.2670  142.9740 C   0  0  0  0  0  3  0  0  0  0  0  0
  184.2560  178.7040  141.2360 N   0  0  0  0  0  2  0  0  0  0  0  0
  183.2900  177.8030  140.6260 C   0  0  0  0  0  2  0  0  0  0  0  0
  181.8920  178.3710  140.7760 C   0  0  0  0  0  2  0  0  0  0  0  0
  181.1150  178.0190  139.6720 O   0  0  0  0  0  0  0  0  0  0  0  0
  181.6140  176.7810  139.2730 C   0  0  0  0  0  2  0  0  0  0  0  0
  180.8200  176.2720  138.0790 C   0  0  0  0  0  2  0  0  0  0  0  0
  181.6700  176.1170  136.8120 C   0  0  1  0  0  3  0  0  0  0  0  0
  181.6540  178.6070  136.6570 O   0  0  0  0  0  1  0  0  0  0  0  0
  183.2460  177.4020  135.5350 O   0  0  0  0  0  0  0  0  0  0  0  0
  182.2430  177.4030  136.2960 C   0  0  0  0  0  0  0  0  0  0  0  0
  183.5150  174.8900  138.0770 C   0  0  0  0  0  1  0  0  0  0  0  0
  182.6710  174.9480  136.8150 C   0  0  1  0  0  3  0  0  0  0  0  0
  181.9820  173.6800  136.6270 N   0  0  0  0  0  2  0  0  0  0  0  0
  182.3980  173.1350  135.3400 C   0  0  1  0  0  3  0  0  0  0  0  0
  183.2840  174.0200  134.7170 O   0  0  0  0  0  1  0  0  0  0  0  0
  183.0330  171.7510  135.5120 C   0  0  0  0  0  0  0  0  0  0  0  0
  182.9650  171.2920  136.9600 C   0  0  0  0  0  1  0  0  0  0  0  0
  182.3620  170.8270  134.7100 O   0  0  0  0  0  1  0  0  0  0  0  0
  184.4860  171.7980  135.0800 C   0  0  0  0  0  1  0  0  0  0  0  0
  190.2320  177.2500  139.6290 N   0  0  0  0  0  2  0  0  0  0  0  0
  188.9810  178.7960  138.2500 C   0  0  0  0  0  3  0  0  0  0  0  0
  189.1750  176.3940  137.5910 C   0  0  0  0  0  2  0  0  0  0  0  0
  189.0740  177.3840  138.7530 C   0  0  1  0  0  3  0  0  0  0  0  0
  188.0260  176.6600  136.6200 C   0  0  1  0  0  3  0  0  0  0  0  0
  188.0430  178.0260  136.2010 O   0  0  0  0  0  0  0  0  0  0  0  0
  188.4640  179.0620  137.0480 C   0  0  0  0  0  3  0  0  0  0  0  0
  188.1290  175.7550  135.4050 C   0  0  0  0  0  2  0  0  0  0  0  0
  186.4910  174.2720  136.5650 O   0  0  0  0  0  1  0  0  0  0  0  0
  187.5690  174.4050  135.7000 C   0  0  0  0  0  0  0  0  0  0  0  0
  188.0510  173.3880  135.1370 O   0  0  0  0  0  0  0  0  0  0  0  0
  1 14  1  0  0  0  0
  2  8  1  0  0  0  0
  3 12  2  0  0  0  0
  4  7  1  0  0  0  0
  4  2  2  0  0  0  0
  6  5  1  1  0  0  0
  6 13  1  0  0  0  0
  6  3  1  0  0  0  0
  7  5  2  0  0  0  0
  8 13  2  0  0  0  0
  9 10  1  0  0  0  0
 10 14  2  0  0  0  0
 11  1  2  0  0  0  0
 12  9  1  0  0  0  0
 13 15  1  0  0  0  0
 15 11  1  0  0  0  0
 15  9  2  0  0  0  0
 16  3  1  0  0  0  0
 16 17  1  0  0  0  0
 18 17  2  0  0  0  0
 19 18  1  0  0  0  0
 20 21  1  0  0  0  0
 20 19  2  0  0  0  0
 21 16  2  0  0  0  0
 22 20  1  0  0  0  0
 23 24  1  0  0  0  0
 23 22  1  0  0  0  0
 25 24  1  0  0  0  0
 26 25  1  0  0  0  0
 27 26  1  0  0  0  0
 28 33  1  0  0  0  0
 28 27  1  1  0  0  0
 30 31  2  0  0  0  0
 31 29  1  0  0  0  0
 31 28  1  0  0  0  0
 33 32  1  1  0  0  0
 34 33  1  0  0  0  0
 35 36  1  1  0  0  0
 35 37  1  0  0  0  0
 35 34  1  0  0  0  0
 37 38  1  0  0  0  0
 39 37  1  0  0  0  0
 40 37  1  0  0  0  0
 41  4  1  0  0  0  0
 42 44  1  0  0  0  0
 43 44  1  0  0  0  0
 44 41  1  1  0  0  0
 45 48  1  6  0  0  0
 45 43  1  0  0  0  0
 46 45  1  0  0  0  0
 46 47  1  0  0  0  0
 47 42  2  0  0  0  0
 48 50  1  0  0  0  0
 50 49  1  0  0  0  0
 51 50  2  0  0  0  0
M  END
>  <MODEL>
8

>  <REMARK>
 VINA RESULT:      -7.2      2.866      7.237
  Name = 
  17 active torsions:
  status: ('A' for Active; 'I' for Inactive)
    1  A    between atoms: C_4  and  C_5
    2  A    between atoms: C_8  and  C_24
    3  A    between atoms: C_8  and  N_51
    4  A    between atoms: C_10  and  N_33
    5  A    between atoms: C_18  and  C_19
    6  A    between atoms: C_18  and  C_48
    7  A    between atoms: C_19  and  O_45
    8  A    between atoms: C_21  and  N_33
    9  A    between atoms: C_22  and  C_48
   10  A    between atoms: C_22  and  N_51
   11  A    between atoms: C_26  and  C_31
   12  A    between atoms: C_27  and  N_50
   13  A    between atoms: C_29  and  C_31
   14  A    between atoms: C_39  and  C_44
   15  A    between atoms: C_39  and  N_50
   16  A    between atoms: C_44  and  O_45
   17  A    between atoms: C_48  and  C_49
                            x       y       z     vdW  Elec       q    Type
                         _______ _______ _______ _____ _____    ______ ____

>  <TORSDO>
F 17

$$$$
=
 OpenBabel10232408523D

 51 55  0  0  1  0  0  0  0  0999 V2000
  190.1240  177.2730  146.5180 N   0  0  0  0  0  0  0  0  0  0  0  0
  185.3130  177.7180  143.4560 C   0  0  0  0  0  3  0  0  0  0  0  0
  189.3250  177.4580  141.5110 C   0  0  0  0  0  0  0  0  0  0  0  0
  185.0910  178.5180  142.3950 C   0  0  0  0  0  0  0  0  0  0  0  0
  187.4180  179.0470  141.6690 C   0  0  0  0  0  3  0  0  0  0  0  0
  187.9360  177.7060  142.0790 C   0  0  2  0  0  3  0  0  0  0  0  0
  186.1320  179.3760  141.7920 C   0  0  0  0  0  3  0  0  0  0  0  0
  186.5990  177.4890  144.1460 C   0  0  0  0  0  3  0  0  0  0  0  0
  190.2770  177.3280  143.7820 C   0  0  0  0  0  0  0  0  0  0  0  0
  191.4250  177.2160  144.5640 C   0  0  0  0  0  3  0  0  0  0  0  0
  188.9750  177.3780  145.8020 C   0  0  0  0  0  3  0  0  0  0  0  0
  190.3870  177.3140  142.3200 C   0  0  0  0  0  3  0  0  0  0  0  0
  187.8090  177.5330  143.5740 C   0  0  0  0  0  0  0  0  0  0  0  0
  191.3130  177.1950  145.9180 N   0  0  0  0  0  0  0  0  0  0  0  0
  189.0280  177.4060  144.4030 C   0  0  0  0  0  0  0  0  0  0  0  0
  189.5130  177.3470  140.0390 C   0  0  0  0  0  0  0  0  0  0  0  0
  189.2170  178.4330  139.2000 C   0  0  0  0  0  3  0  0  0  0  0  0
  189.3860  178.3320  137.8160 C   0  0  0  0  0  3  0  0  0  0  0  0
  189.8480  177.1420  137.2530 C   0  0  0  0  0  3  0  0  0  0  0  0
  190.1420  176.0460  138.0680 C   0  0  0  0  0  0  0  0  0  0  0  0
  189.9740  176.1520  139.4570 C   0  0  0  0  0  3  0  0  0  0  0  0
  190.6060  174.8340  137.4690 N   0  0  0  0  0  2  0  0  0  0  0  0
  190.1350  174.3620  136.1760 C   0  0  0  0  0  2  0  0  0  0  0  0
  191.3130  173.9060  135.3360 C   0  0  0  0  0  2  0  0  0  0  0  0
  192.2220  173.2070  136.1320 O   0  0  0  0  0  0  0  0  0  0  0  0
  193.2860  172.9200  135.2790 C   0  0  0  0  0  2  0  0  0  0  0  0
  194.5830  173.4190  135.8980 C   0  0  0  0  0  2  0  0  0  0  0  0
  194.6890  174.9500  135.9220 C   0  0  1  0  0  3  0  0  0  0  0  0
  193.8500  176.9050  137.2260 O   0  0  0  0  0  0  0  0  0  0  0  0
  194.2440  174.9110  138.2810 O   0  0  0  0  0  1  0  0  0  0  0  0
  194.2490  175.5750  137.2120 C   0  0  0  0  0  0  0  0  0  0  0  0
  195.7970  176.9010  134.7070 C   0  0  0  0  0  1  0  0  0  0  0  0
  195.9920  175.5410  135.3570 C   0  0  1  0  0  3  0  0  0  0  0  0
  197.0070  175.6340  136.3960 N   0  0  0  0  0  2  0  0  0  0  0  0
  198.0810  174.7090  136.0530 C   0  0  1  0  0  3  0  0  0  0  0  0
  199.1620  175.4180  135.5180 O   0  0  0  0  0  1  0  0  0  0  0  0
  198.5090  173.8920  137.2760 C   0  0  0  0  0  0  0  0  0  0  0  0
  197.7890  172.5530  137.3220 C   0  0  0  0  0  1  0  0  0  0  0  0
  199.8860  173.6660  137.2270 O   0  0  0  0  0  1  0  0  0  0  0  0
  198.1920  174.6630  138.5430 C   0  0  0  0  0  1  0  0  0  0  0  0
  183.7600  178.6580  141.8840 N   0  0  0  0  0  2  0  0  0  0  0  0
  181.6920  178.0000  140.8150 C   0  0  0  0  0  3  0  0  0  0  0  0
  183.8260  178.0320  139.5160 C   0  0  0  0  0  2  0  0  0  0  0  0
  183.1750  177.7800  140.8780 C   0  0  1  0  0  3  0  0  0  0  0  0
  183.0930  177.2030  138.4640 C   0  0  1  0  0  3  0  0  0  0  0  0
  181.6960  177.5020  138.4860 O   0  0  0  0  0  0  0  0  0  0  0  0
  181.0230  177.8350  139.6710 C   0  0  0  0  0  3  0  0  0  0  0  0
  183.6500  177.4810  137.0780 C   0  0  0  0  0  2  0  0  0  0  0  0
  185.6720  176.0320  137.2720 O   0  0  0  0  0  1  0  0  0  0  0  0
  184.4940  176.3460  136.6070 C   0  0  0  0  0  0  0  0  0  0  0  0
  184.1210  175.6490  135.6280 O   0  0  0  0  0  0  0  0  0  0  0  0
  2  8  1  0  0  0  0
  3  6  1  0  0  0  0
  3 12  2  0  0  0  0
  4  2  2  0  0  0  0
  5  7  2  0  0  0  0
  6  5  1  1  0  0  0
  6 13  1  0  0  0  0
  7  4  1  0  0  0  0
  9 15  2  0  0  0  0
  9 10  1  0  0  0  0
 10 14  2  0  0  0  0
 11  1  2  0  0  0  0
 12  9  1  0  0  0  0
 13  8  2  0  0  0  0
 13 15  1  0  0  0  0
 14  1  1  0  0  0  0
 15 11  1  0  0  0  0
 16  3  1  0  0  0  0
 17 16  2  0  0  0  0
 18 17  1  0  0  0  0
 19 18  2  0  0  0  0
 19 20  1  0  0  0  0
 20 21  2  0  0  0  0
 21 16  1  0  0  0  0
 22 20  1  0  0  0  0
 23 22  1  0  0  0  0
 24 25  1  0  0  0  0
 24 23  1  0  0  0  0
 26 27  1  0  0  0  0
 26 25  1  0  0  0  0
 28 27  1  1  0  0  0
 28 31  1  0  0  0  0
 31 29  2  0  0  0  0
 31 30  1  0  0  0  0
 33 32  1  1  0  0  0
 33 28  1  0  0  0  0
 33 34  1  0  0  0  0
 35 36  1  1  0  0  0
 35 34  1  0  0  0  0
 35 37  1  0  0  0  0
 37 38  1  0  0  0  0
 37 40  1  0  0  0  0
 39 37  1  0  0  0  0
 41  4  1  0  0  0  0
 42 44  1  0  0  0  0
 43 44  1  0  0  0  0
 44 41  1  1  0  0  0
 45 48  1  6  0  0  0
 45 46  1  0  0  0  0
 45 43  1  0  0  0  0
 46 47  1  0  0  0  0
 47 42  2  0  0  0  0
 50 48  1  0  0  0  0
 50 49  1  0  0  0  0
 51 50  2  0  0  0  0
M  END
>  <MODEL>
9

>  <REMARK>
 VINA RESULT:      -7.0      4.637      9.004
  Name = 
  17 active torsions:
  status: ('A' for Active; 'I' for Inactive)
    1  A    between atoms: C_4  and  C_5
    2  A    between atoms: C_8  and  C_24
    3  A    between atoms: C_8  and  N_51
    4  A    between atoms: C_10  and  N_33
    5  A    between atoms: C_18  and  C_19
    6  A    between atoms: C_18  and  C_48
    7  A    between atoms: C_19  and  O_45
    8  A    between atoms: C_21  and  N_33
    9  A    between atoms: C_22  and  C_48
   10  A    between atoms: C_22  and  N_51
   11  A    between atoms: C_26  and  C_31
   12  A    between atoms: C_27  and  N_50
   13  A    between atoms: C_29  and  C_31
   14  A    between atoms: C_39  and  C_44
   15  A    between atoms: C_39  and  N_50
   16  A    between atoms: C_44  and  O_45
   17  A    between atoms: C_48  and  C_49
                            x       y       z     vdW  Elec       q    Type
                         _______ _______ _______ _____ _____    ______ ____

>  <TORSDO>
F 17

$$$$
