=
 OpenBabel10232409373D

 33 35  0  0  1  0  0  0  0  0999 V2000
  183.4860  178.9610  145.9830 O   0  0  0  0  0  1  0  0  0  0  0  0
  183.9760  178.7720  143.6110 C   0  0  0  0  0  0  0  0  0  0  0  0
  182.5460  179.0990  143.3730 C   0  0  0  0  0  3  0  0  0  0  0  0
  181.7470  178.9320  142.3020 C   0  0  0  0  0  0  0  0  0  0  0  0
  184.9310  178.5590  142.5880 C   0  0  0  0  0  0  0  0  0  0  0  0
  182.1490  178.2740  141.0330 C   0  0  0  0  0  0  0  0  0  0  0  0
  184.3960  178.7380  144.9520 C   0  0  0  0  0  0  0  0  0  0  0  0
  186.2750  178.2840  142.9410 C   0  0  0  0  0  0  0  0  0  0  0  0
  185.7360  178.4790  145.2540 C   0  0  0  0  0  0  0  0  0  0  0  0
  183.4940  177.6790  140.8260 C   0  0  0  0  0  2  0  0  0  0  0  0
  186.6260  178.2670  144.2530 N   0  0  0  0  0  0  0  0  0  0  0  0
  181.3010  178.1860  140.0600 N   0  0  0  0  0  2  0  0  0  0  0  0
  184.5460  178.7040  141.1560 C   0  0  0  0  0  2  0  0  0  0  0  0
  189.3380  177.4180  140.6500 C   0  0  0  0  0  0  0  0  0  0  0  0
  187.5160  178.7390  140.7700 C   0  0  0  0  0  3  0  0  0  0  0  0
  188.6350  176.9470  142.1060 S   0  0  0  0  0  0  0  0  0  0  0  0
  188.6180  178.3930  140.0530 N   0  0  0  0  0  0  0  0  0  0  0  0
  187.3410  178.0190  141.9500 C   0  0  0  0  0  0  0  0  0  0  0  0
  190.5910  176.8880  140.0900 C   0  0  0  0  0  0  0  0  0  0  0  0
  190.5510  175.8110  139.2150 O   0  0  0  0  0  1  0  0  0  0  0  0
  191.7630  177.4250  140.4040 C   0  0  0  0  0  2  0  0  0  0  0  0
  180.3540  179.4160  142.4050 C   0  0  0  0  0  3  0  0  0  0  0  0
  180.0680  180.6310  142.7450 N   0  0  0  0  0  2  0  0  0  0  0  0
  186.2110  178.4590  146.6670 C   0  0  0  0  0  2  0  0  0  0  0  0
  187.2940  177.4130  146.8330 C   0  0  0  0  0  2  0  0  0  0  0  0
  188.2450  177.8360  147.9360 C   0  0  0  0  0  2  0  0  0  0  0  0
  189.6620  177.4070  147.6010 C   0  0  0  0  0  2  0  0  0  0  0  0
  189.6880  176.7420  146.3000 N   0  0  0  0  0  2  0  0  0  0  0  0
  191.1200  176.1510  144.4510 C   0  0  0  0  0  1  0  0  0  0  0  0
  191.9510  177.3630  146.3100 O   0  0  0  0  0  1  0  0  0  0  0  0
  190.8220  177.2050  145.5000 C   0  0  2  0  0  0  0  0  0  0  0  0
  191.5700  178.9570  143.9410 N   0  0  0  0  0  1  0  0  0  0  0  0
  190.4800  178.5250  144.8030 C   0  0  0  0  0  2  0  0  0  0  0  0
  2  7  1  0  0  0  0
  3  2  1  0  0  0  0
  4 22  1  0  0  0  0
  4  3  2  0  0  0  0
  5  8  1  0  0  0  0
  5  2  2  0  0  0  0
  6  4  1  0  0  0  0
  7  9  2  0  0  0  0
  7  1  1  0  0  0  0
  8 11  2  0  0  0  0
  9 24  1  0  0  0  0
 10  6  1  0  0  0  0
 10 13  1  0  0  0  0
 11  9  1  0  0  0  0
 12  6  2  0  0  0  0
 13  5  1  0  0  0  0
 14 16  1  0  0  0  0
 15 18  2  0  0  0  0
 17 14  2  0  0  0  0
 17 15  1  0  0  0  0
 18 16  1  0  0  0  0
 18  8  1  0  0  0  0
 19 21  2  0  0  0  0
 19 14  1  0  0  0  0
 20 19  1  0  0  0  0
 22 23  2  0  0  0  0
 24 25  1  0  0  0  0
 25 26  1  0  0  0  0
 27 26  1  0  0  0  0
 28 27  1  0  0  0  0
 31 29  1  6  0  0  0
 31 28  1  0  0  0  0
 31 30  1  0  0  0  0
 32 33  1  0  0  0  0
 33 31  1  0  0  0  0
M  END
>  <MODEL>
1

>  <REMARK>
 VINA RESULT:      -8.7      0.000      0.000
  Name = 
  10 active torsions:
  status: ('A' for Active; 'I' for Inactive)
    1  A    between atoms: C_1  and  C_8
    2  A    between atoms: C_3  and  C_5
    3  A    between atoms: C_9  and  N_17
    4  A    between atoms: C_9  and  C_22
    5  A    between atoms: N_17  and  C_28
    6  A    between atoms: C_18  and  C_33
    7  A    between atoms: C_22  and  C_32
    8  A    between atoms: C_24  and  C_25
    9  A    between atoms: C_24  and  C_32
   10  A    between atoms: C_28  and  C_31
                            x       y       z     vdW  Elec       q    Type
                         _______ _______ _______ _____ _____    ______ ____

>  <TORSDO>
F 10

$$$$
=
 OpenBabel10232409373D

 33 35  0  0  1  0  0  0  0  0999 V2000
  186.0170  178.9770  140.1340 O   0  0  0  0  0  1  0  0  0  0  0  0
  186.3500  178.2800  142.4370 C   0  0  0  0  0  0  0  0  0  0  0  0
  184.8950  178.5140  142.6320 C   0  0  0  0  0  3  0  0  0  0  0  0
  184.1490  178.6880  143.7390 C   0  0  0  0  0  0  0  0  0  0  0  0
  187.2240  177.7890  143.4360 C   0  0  0  0  0  0  0  0  0  0  0  0
  184.6800  178.7420  145.1260 C   0  0  0  0  0  0  0  0  0  0  0  0
  186.8540  178.5110  141.1460 C   0  0  0  0  0  0  0  0  0  0  0  0
  188.5890  177.5760  143.1200 C   0  0  0  0  0  0  0  0  0  0  0  0
  188.2040  178.2710  140.8730 C   0  0  0  0  0  0  0  0  0  0  0  0
  186.1290  178.6500  145.4360 C   0  0  0  0  0  2  0  0  0  0  0  0
  189.0210  177.8130  141.8530 N   0  0  0  0  0  0  0  0  0  0  0  0
  183.8650  178.8940  146.1190 N   0  0  0  0  0  2  0  0  0  0  0  0
  186.7010  177.4210  144.7820 C   0  0  0  0  0  2  0  0  0  0  0  0
  191.0970  176.6230  145.9800 C   0  0  0  0  0  0  0  0  0  0  0  0
  190.7640  176.4260  143.7590 C   0  0  0  0  0  3  0  0  0  0  0  0
  189.6150  177.3910  145.7590 S   0  0  0  0  0  0  0  0  0  0  0  0
  191.5870  176.1610  144.8090 N   0  0  0  0  0  0  0  0  0  0  0  0
  189.5890  177.0940  144.0990 C   0  0  0  0  0  0  0  0  0  0  0  0
  191.8140  176.4890  147.2570 C   0  0  0  0  0  0  0  0  0  0  0  0
  191.7300  177.5020  148.2030 O   0  0  0  0  0  1  0  0  0  0  0  0
  192.5390  175.4100  147.5260 C   0  0  0  0  0  2  0  0  0  0  0  0
  182.6930  178.8660  143.5620 C   0  0  0  0  0  3  0  0  0  0  0  0
  182.1340  178.8680  142.3950 N   0  0  0  0  0  2  0  0  0  0  0  0
  188.7580  178.4880  139.5050 C   0  0  0  0  0  2  0  0  0  0  0  0
  189.9670  177.6000  139.2930 C   0  0  0  0  0  2  0  0  0  0  0  0
  190.0430  177.1850  137.8360 C   0  0  0  0  0  2  0  0  0  0  0  0
  190.9280  175.9620  137.6840 C   0  0  0  0  0  2  0  0  0  0  0  0
  191.8980  176.1770  136.6120 N   0  0  0  0  0  2  0  0  0  0  0  0
  193.3890  174.5750  137.6280 C   0  0  0  0  0  1  0  0  0  0  0  0
  193.5300  176.8840  138.1420 O   0  0  0  0  0  1  0  0  0  0  0  0
  193.2650  175.9910  137.0990 C   0  0  2  0  0  0  0  0  0  0  0  0
  195.5850  175.6920  136.3310 N   0  0  0  0  0  1  0  0  0  0  0  0
  194.2690  176.1920  135.9600 C   0  0  0  0  0  2  0  0  0  0  0  0
  1  7  1  0  0  0  0
  2  3  1  0  0  0  0
  2  5  1  0  0  0  0
  3  4  2  0  0  0  0
  4  6  1  0  0  0  0
  5 13  1  0  0  0  0
  6 10  1  0  0  0  0
  6 12  2  0  0  0  0
  7  2  2  0  0  0  0
  8  5  2  0  0  0  0
  8 18  1  0  0  0  0
  9  7  1  0  0  0  0
  9 11  2  0  0  0  0
 11  8  1  0  0  0  0
 13 10  1  0  0  0  0
 14 19  1  0  0  0  0
 15 18  2  0  0  0  0
 15 17  1  0  0  0  0
 16 14  1  0  0  0  0
 17 14  2  0  0  0  0
 18 16  1  0  0  0  0
 19 21  2  0  0  0  0
 19 20  1  0  0  0  0
 22  4  1  0  0  0  0
 23 22  2  0  0  0  0
 24  9  1  0  0  0  0
 25 24  1  0  0  0  0
 26 25  1  0  0  0  0
 27 26  1  0  0  0  0
 28 31  1  0  0  0  0
 28 27  1  0  0  0  0
 31 29  1  1  0  0  0
 31 30  1  0  0  0  0
 33 32  1  0  0  0  0
 33 31  1  0  0  0  0
M  END
>  <MODEL>
2

>  <REMARK>
 VINA RESULT:      -8.6      2.975      6.484
  Name = 
  10 active torsions:
  status: ('A' for Active; 'I' for Inactive)
    1  A    between atoms: C_1  and  C_8
    2  A    between atoms: C_3  and  C_5
    3  A    between atoms: C_9  and  N_17
    4  A    between atoms: C_9  and  C_22
    5  A    between atoms: N_17  and  C_28
    6  A    between atoms: C_18  and  C_33
    7  A    between atoms: C_22  and  C_32
    8  A    between atoms: C_24  and  C_25
    9  A    between atoms: C_24  and  C_32
   10  A    between atoms: C_28  and  C_31
                            x       y       z     vdW  Elec       q    Type
                         _______ _______ _______ _____ _____    ______ ____

>  <TORSDO>
F 10

$$$$
=
 OpenBabel10232409373D

 33 35  0  0  1  0  0  0  0  0999 V2000
  186.0620  178.9830  140.1030 O   0  0  0  0  0  1  0  0  0  0  0  0
  186.3750  178.2820  142.4070 C   0  0  0  0  0  0  0  0  0  0  0  0
  184.9190  178.5150  142.5900 C   0  0  0  0  0  3  0  0  0  0  0  0
  184.1630  178.6860  143.6920 C   0  0  0  0  0  0  0  0  0  0  0  0
  187.2410  177.7890  143.4130 C   0  0  0  0  0  0  0  0  0  0  0  0
  184.6820  178.7380  145.0830 C   0  0  0  0  0  0  0  0  0  0  0  0
  186.8910  178.5150  141.1210 C   0  0  0  0  0  0  0  0  0  0  0  0
  188.6080  177.5770  143.1080 C   0  0  0  0  0  0  0  0  0  0  0  0
  188.2430  178.2770  140.8600 C   0  0  0  0  0  0  0  0  0  0  0  0
  186.1290  178.6460  145.4050 C   0  0  0  0  0  2  0  0  0  0  0  0
  189.0510  177.8170  141.8460 N   0  0  0  0  0  0  0  0  0  0  0  0
  183.8580  178.8880  146.0690 N   0  0  0  0  0  2  0  0  0  0  0  0
  186.7060  177.4180  144.7530 C   0  0  0  0  0  2  0  0  0  0  0  0
  191.1030  176.6290  145.9810 C   0  0  0  0  0  0  0  0  0  0  0  0
  190.7580  176.3910  143.7670 C   0  0  0  0  0  3  0  0  0  0  0  0
  189.6380  177.4260  145.7480 S   0  0  0  0  0  0  0  0  0  0  0  0
  191.5780  176.1300  144.8190 N   0  0  0  0  0  0  0  0  0  0  0  0
  189.6000  177.0940  144.0940 C   0  0  0  0  0  0  0  0  0  0  0  0
  191.8210  176.5060  147.2600 C   0  0  0  0  0  0  0  0  0  0  0  0
  191.6960  177.5030  148.2170 O   0  0  0  0  0  1  0  0  0  0  0  0
  192.5850  175.4520  147.5180 C   0  0  0  0  0  2  0  0  0  0  0  0
  182.7090  178.8650  143.5020 C   0  0  0  0  0  3  0  0  0  0  0  0
  182.1580  178.8580  142.3310 N   0  0  0  0  0  2  0  0  0  0  0  0
  188.8090  178.4960  139.4970 C   0  0  0  0  0  2  0  0  0  0  0  0
  189.4500  177.2200  138.9930 C   0  0  0  0  0  2  0  0  0  0  0  0
  189.9410  177.4240  137.5730 C   0  0  0  0  0  2  0  0  0  0  0  0
  188.9550  176.8280  136.5860 C   0  0  0  0  0  2  0  0  0  0  0  0
  188.3400  175.6300  137.1550 N   0  0  0  0  0  2  0  0  0  0  0  0
  186.2030  176.7490  137.1910 C   0  0  0  0  0  1  0  0  0  0  0  0
  186.3570  174.3880  137.3310 O   0  0  0  0  0  1  0  0  0  0  0  0
  186.9450  175.5080  136.7330 C   0  0  2  0  0  0  0  0  0  0  0  0
  186.1260  174.2090  134.8090 N   0  0  0  0  0  1  0  0  0  0  0  0
  186.8560  175.4040  135.2080 C   0  0  0  0  0  2  0  0  0  0  0  0
  1  7  1  0  0  0  0
  2  3  1  0  0  0  0
  2  5  1  0  0  0  0
  3  4  2  0  0  0  0
  4  6  1  0  0  0  0
  5 13  1  0  0  0  0
  6 10  1  0  0  0  0
  6 12  2  0  0  0  0
  7  2  2  0  0  0  0
  8  5  2  0  0  0  0
  8 18  1  0  0  0  0
  9  7  1  0  0  0  0
  9 11  2  0  0  0  0
 11  8  1  0  0  0  0
 13 10  1  0  0  0  0
 14 19  1  0  0  0  0
 15 18  2  0  0  0  0
 15 17  1  0  0  0  0
 16 14  1  0  0  0  0
 17 14  2  0  0  0  0
 18 16  1  0  0  0  0
 19 21  2  0  0  0  0
 19 20  1  0  0  0  0
 22  4  1  0  0  0  0
 23 22  2  0  0  0  0
 24  9  1  0  0  0  0
 25 24  1  0  0  0  0
 26 25  1  0  0  0  0
 27 28  1  0  0  0  0
 27 26  1  0  0  0  0
 31 28  1  0  0  0  0
 31 29  1  1  0  0  0
 31 30  1  0  0  0  0
 32 33  1  0  0  0  0
 33 31  1  0  0  0  0
M  END
>  <MODEL>
3

>  <REMARK>
 VINA RESULT:      -8.3      3.046      6.881
  Name = 
  10 active torsions:
  status: ('A' for Active; 'I' for Inactive)
    1  A    between atoms: C_1  and  C_8
    2  A    between atoms: C_3  and  C_5
    3  A    between atoms: C_9  and  N_17
    4  A    between atoms: C_9  and  C_22
    5  A    between atoms: N_17  and  C_28
    6  A    between atoms: C_18  and  C_33
    7  A    between atoms: C_22  and  C_32
    8  A    between atoms: C_24  and  C_25
    9  A    between atoms: C_24  and  C_32
   10  A    between atoms: C_28  and  C_31
                            x       y       z     vdW  Elec       q    Type
                         _______ _______ _______ _____ _____    ______ ____

>  <TORSDO>
F 10

$$$$
=
 OpenBabel10232409373D

 33 35  0  0  1  0  0  0  0  0999 V2000
  185.3870  178.6080  144.6440 O   0  0  0  0  0  1  0  0  0  0  0  0
  187.6080  177.6690  144.3500 C   0  0  0  0  0  0  0  0  0  0  0  0
  187.6270  177.4670  145.8220 C   0  0  0  0  0  3  0  0  0  0  0  0
  188.6340  177.2530  146.6910 C   0  0  0  0  0  0  0  0  0  0  0  0
  188.6480  177.2790  143.4730 C   0  0  0  0  0  0  0  0  0  0  0  0
  190.0770  177.2260  146.3350 C   0  0  0  0  0  0  0  0  0  0  0  0
  186.4380  178.2300  143.8100 C   0  0  0  0  0  0  0  0  0  0  0  0
  188.4990  177.4960  142.0810 C   0  0  0  0  0  0  0  0  0  0  0  0
  186.3270  178.4120  142.4290 C   0  0  0  0  0  0  0  0  0  0  0  0
  190.5700  177.4810  144.9580 C   0  0  0  0  0  2  0  0  0  0  0  0
  187.3450  178.0410  141.6140 N   0  0  0  0  0  0  0  0  0  0  0  0
  190.9580  176.9920  147.2520 N   0  0  0  0  0  2  0  0  0  0  0  0
  189.8510  176.5730  143.9960 C   0  0  0  0  0  2  0  0  0  0  0  0
  191.4990  176.9020  139.6260 C   0  0  0  0  0  0  0  0  0  0  0  0
  189.2760  176.5960  139.8340 C   0  0  0  0  0  3  0  0  0  0  0  0
  191.1850  177.5070  141.1660 S   0  0  0  0  0  0  0  0  0  0  0  0
  190.3690  176.4520  139.0390 N   0  0  0  0  0  0  0  0  0  0  0  0
  189.5380  177.1520  141.0850 C   0  0  0  0  0  0  0  0  0  0  0  0
  192.8110  176.8850  138.9610 C   0  0  0  0  0  0  0  0  0  0  0  0
  193.9470  177.2510  139.6700 O   0  0  0  0  0  1  0  0  0  0  0  0
  192.9300  176.5210  137.6900 C   0  0  0  0  0  2  0  0  0  0  0  0
  188.2810  177.0570  148.1120 C   0  0  0  0  0  3  0  0  0  0  0  0
  188.0070  178.0470  148.8990 N   0  0  0  0  0  2  0  0  0  0  0  0
  185.0870  178.9860  141.8300 C   0  0  0  0  0  2  0  0  0  0  0  0
  185.2580  179.1330  140.3320 C   0  0  0  0  0  2  0  0  0  0  0  0
  184.3010  178.1990  139.6180 C   0  0  0  0  0  2  0  0  0  0  0  0
  184.7440  177.9920  138.1810 C   0  0  0  0  0  2  0  0  0  0  0  0
  186.1350  178.4110  138.0220 N   0  0  0  0  0  2  0  0  0  0  0  0
  185.9200  177.5990  135.7600 C   0  0  0  0  0  1  0  0  0  0  0  0
  186.9810  176.3020  137.4350 O   0  0  0  0  0  1  0  0  0  0  0  0
  186.8050  177.6170  136.9920 C   0  0  2  0  0  0  0  0  0  0  0  0
  188.5000  179.3100  137.5560 N   0  0  0  0  0  1  0  0  0  0  0  0
  188.1560  178.2400  136.6310 C   0  0  0  0  0  2  0  0  0  0  0  0
  2  3  1  0  0  0  0
  3  4  2  0  0  0  0
  4 22  1  0  0  0  0
  5 13  1  0  0  0  0
  5  2  2  0  0  0  0
  6  4  1  0  0  0  0
  6 12  2  0  0  0  0
  7  2  1  0  0  0  0
  7  1  1  0  0  0  0
  8  5  1  0  0  0  0
  9  7  2  0  0  0  0
 10  6  1  0  0  0  0
 11  8  2  0  0  0  0
 11  9  1  0  0  0  0
 13 10  1  0  0  0  0
 14 16  1  0  0  0  0
 15 18  2  0  0  0  0
 17 14  2  0  0  0  0
 17 15  1  0  0  0  0
 18 16  1  0  0  0  0
 18  8  1  0  0  0  0
 19 14  1  0  0  0  0
 19 20  1  0  0  0  0
 21 19  2  0  0  0  0
 22 23  2  0  0  0  0
 24  9  1  0  0  0  0
 25 24  1  0  0  0  0
 26 25  1  0  0  0  0
 27 26  1  0  0  0  0
 28 27  1  0  0  0  0
 31 29  1  6  0  0  0
 31 30  1  0  0  0  0
 31 28  1  0  0  0  0
 33 31  1  0  0  0  0
 33 32  1  0  0  0  0
M  END
>  <MODEL>
4

>  <REMARK>
 VINA RESULT:      -8.1      2.903      6.890
  Name = 
  10 active torsions:
  status: ('A' for Active; 'I' for Inactive)
    1  A    between atoms: C_1  and  C_8
    2  A    between atoms: C_3  and  C_5
    3  A    between atoms: C_9  and  N_17
    4  A    between atoms: C_9  and  C_22
    5  A    between atoms: N_17  and  C_28
    6  A    between atoms: C_18  and  C_33
    7  A    between atoms: C_22  and  C_32
    8  A    between atoms: C_24  and  C_25
    9  A    between atoms: C_24  and  C_32
   10  A    between atoms: C_28  and  C_31
                            x       y       z     vdW  Elec       q    Type
                         _______ _______ _______ _____ _____    ______ ____

>  <TORSDO>
F 10

$$$$
=
 OpenBabel10232409373D

 33 35  0  0  1  0  0  0  0  0999 V2000
  186.0480  178.7660  138.9130 O   0  0  0  0  0  1  0  0  0  0  0  0
  188.2840  178.0590  139.5430 C   0  0  0  0  0  0  0  0  0  0  0  0
  188.5740  177.9590  138.0890 C   0  0  0  0  0  3  0  0  0  0  0  0
  189.5400  177.3200  137.4020 C   0  0  0  0  0  0  0  0  0  0  0  0
  189.2290  177.8100  140.5680 C   0  0  0  0  0  0  0  0  0  0  0  0
  190.5860  176.4560  138.0060 C   0  0  0  0  0  0  0  0  0  0  0  0
  186.9960  178.4940  139.8970 C   0  0  0  0  0  0  0  0  0  0  0  0
  188.8420  177.9700  141.9210 C   0  0  0  0  0  0  0  0  0  0  0  0
  186.6620  178.6550  141.2440 C   0  0  0  0  0  0  0  0  0  0  0  0
  190.6490  176.1660  139.4610 C   0  0  0  0  0  2  0  0  0  0  0  0
  187.5830  178.3960  142.2050 N   0  0  0  0  0  0  0  0  0  0  0  0
  191.4790  175.9060  137.2490 N   0  0  0  0  0  2  0  0  0  0  0  0
  190.6370  177.4620  140.2270 C   0  0  0  0  0  2  0  0  0  0  0  0
  190.9800  176.9170  145.0360 C   0  0  0  0  0  0  0  0  0  0  0  0
  190.4640  178.6890  143.7420 C   0  0  0  0  0  3  0  0  0  0  0  0
  189.9530  176.2460  143.8820 S   0  0  0  0  0  0  0  0  0  0  0  0
  191.1520  178.2400  144.8250 N   0  0  0  0  0  0  0  0  0  0  0  0
  189.7430  177.7060  143.0650 C   0  0  0  0  0  0  0  0  0  0  0  0
  191.5950  176.1970  146.1610 C   0  0  0  0  0  0  0  0  0  0  0  0
  192.3580  175.0630  145.9170 O   0  0  0  0  0  1  0  0  0  0  0  0
  191.4380  176.6160  147.4110 C   0  0  0  0  0  2  0  0  0  0  0  0
  189.5450  177.4670  135.9320 C   0  0  0  0  0  3  0  0  0  0  0  0
  188.6230  176.9540  135.1820 N   0  0  0  0  0  2  0  0  0  0  0  0
  185.3080  179.1360  141.6450 C   0  0  0  0  0  2  0  0  0  0  0  0
  184.7680  178.2790  142.7710 C   0  0  0  0  0  2  0  0  0  0  0  0
  183.6270  179.0020  143.4580 C   0  0  0  0  0  2  0  0  0  0  0  0
  183.8570  179.0410  144.9580 C   0  0  0  0  0  2  0  0  0  0  0  0
  185.2000  179.5390  145.2450 N   0  0  0  0  0  2  0  0  0  0  0  0
  184.7600  177.8460  146.9070 C   0  0  0  0  0  1  0  0  0  0  0  0
  186.0430  179.7710  147.4230 O   0  0  0  0  0  1  0  0  0  0  0  0
  185.7760  178.8520  146.4020 C   0  0  2  0  0  0  0  0  0  0  0  0
  187.9860  178.0410  147.1210 N   0  0  0  0  0  1  0  0  0  0  0  0
  187.0570  178.1160  146.0020 C   0  0  0  0  0  2  0  0  0  0  0  0
  1  7  1  0  0  0  0
  2  7  2  0  0  0  0
  2  5  1  0  0  0  0
  3  2  1  0  0  0  0
  4  6  1  0  0  0  0
  4  3  2  0  0  0  0
  5  8  2  0  0  0  0
  6 10  1  0  0  0  0
  7  9  1  0  0  0  0
  8 11  1  0  0  0  0
  8 18  1  0  0  0  0
  9 24  1  0  0  0  0
  9 11  2  0  0  0  0
 10 13  1  0  0  0  0
 12  6  2  0  0  0  0
 13  5  1  0  0  0  0
 14 19  1  0  0  0  0
 15 17  1  0  0  0  0
 16 14  1  0  0  0  0
 17 14  2  0  0  0  0
 18 15  2  0  0  0  0
 18 16  1  0  0  0  0
 19 21  2  0  0  0  0
 20 19  1  0  0  0  0
 22  4  1  0  0  0  0
 23 22  2  0  0  0  0
 24 25  1  0  0  0  0
 25 26  1  0  0  0  0
 26 27  1  0  0  0  0
 27 28  1  0  0  0  0
 28 31  1  0  0  0  0
 31 29  1  1  0  0  0
 31 30  1  0  0  0  0
 33 31  1  0  0  0  0
 33 32  1  0  0  0  0
M  END
>  <MODEL>
5

>  <REMARK>
 VINA RESULT:      -8.0      2.458      6.607
  Name = 
  10 active torsions:
  status: ('A' for Active; 'I' for Inactive)
    1  A    between atoms: C_1  and  C_8
    2  A    between atoms: C_3  and  C_5
    3  A    between atoms: C_9  and  N_17
    4  A    between atoms: C_9  and  C_22
    5  A    between atoms: N_17  and  C_28
    6  A    between atoms: C_18  and  C_33
    7  A    between atoms: C_22  and  C_32
    8  A    between atoms: C_24  and  C_25
    9  A    between atoms: C_24  and  C_32
   10  A    between atoms: C_28  and  C_31
                            x       y       z     vdW  Elec       q    Type
                         _______ _______ _______ _____ _____    ______ ____

>  <TORSDO>
F 10

$$$$
=
 OpenBabel10232409373D

 33 35  0  0  1  0  0  0  0  0999 V2000
  184.4050  178.8220  146.3140 O   0  0  0  0  0  1  0  0  0  0  0  0
  186.3020  178.1310  144.9640 C   0  0  0  0  0  0  0  0  0  0  0  0
  186.9340  177.6790  146.2310 C   0  0  0  0  0  3  0  0  0  0  0  0
  188.2120  177.4000  146.5530 C   0  0  0  0  0  0  0  0  0  0  0  0
  186.8830  177.9840  143.6810 C   0  0  0  0  0  0  0  0  0  0  0  0
  189.3750  177.5530  145.6410 C   0  0  0  0  0  0  0  0  0  0  0  0
  185.0130  178.6810  145.0680 C   0  0  0  0  0  0  0  0  0  0  0  0
  186.1670  178.4270  142.5410 C   0  0  0  0  0  0  0  0  0  0  0  0
  184.3360  179.0880  143.9160 C   0  0  0  0  0  0  0  0  0  0  0  0
  189.2490  178.0820  144.2590 C   0  0  0  0  0  2  0  0  0  0  0  0
  184.9220  178.9480  142.7010 N   0  0  0  0  0  0  0  0  0  0  0  0
  190.5590  177.2360  146.0540 N   0  0  0  0  0  2  0  0  0  0  0  0
  188.1960  177.2990  143.5210 C   0  0  0  0  0  2  0  0  0  0  0  0
  187.9480  178.3770  139.0480 C   0  0  0  0  0  0  0  0  0  0  0  0
  185.9110  178.4090  140.0120 C   0  0  0  0  0  3  0  0  0  0  0  0
  188.3160  178.3400  140.6910 S   0  0  0  0  0  0  0  0  0  0  0  0
  186.6120  178.4150  138.8480 N   0  0  0  0  0  0  0  0  0  0  0  0
  186.6960  178.3460  141.1620 C   0  0  0  0  0  0  0  0  0  0  0  0
  188.9240  178.4050  137.9480 C   0  0  0  0  0  0  0  0  0  0  0  0
  189.0940  179.5680  137.2080 O   0  0  0  0  0  1  0  0  0  0  0  0
  189.6530  177.3360  137.6520 C   0  0  0  0  0  2  0  0  0  0  0  0
  188.4840  176.9330  147.9280 C   0  0  0  0  0  3  0  0  0  0  0  0
  188.2360  177.6630  148.9680 N   0  0  0  0  0  2  0  0  0  0  0  0
  182.9580  179.6550  143.9980 C   0  0  0  0  0  2  0  0  0  0  0  0
  181.9370  178.5690  143.7280 C   0  0  0  0  0  2  0  0  0  0  0  0
  180.6120  179.2010  143.3490 C   0  0  0  0  0  2  0  0  0  0  0  0
  180.4700  179.2550  141.8390 C   0  0  0  0  0  2  0  0  0  0  0  0
  180.8230  177.9620  141.2570 N   0  0  0  0  0  2  0  0  0  0  0  0
  182.5440  176.8830  139.9550 C   0  0  0  0  0  1  0  0  0  0  0  0
  182.5460  179.2290  140.2900 O   0  0  0  0  0  1  0  0  0  0  0  0
  181.6980  178.1330  140.0970 C   0  0  2  0  0  0  0  0  0  0  0  0
  181.0320  179.6680  138.2910 N   0  0  0  0  0  1  0  0  0  0  0  0
  180.8660  178.3250  138.8250 C   0  0  0  0  0  2  0  0  0  0  0  0
  2  7  1  0  0  0  0
  2  3  1  0  0  0  0
  3  4  2  0  0  0  0
  4 22  1  0  0  0  0
  5  2  2  0  0  0  0
  6 12  2  0  0  0  0
  6  4  1  0  0  0  0
  7  1  1  0  0  0  0
  8 11  2  0  0  0  0
  8  5  1  0  0  0  0
  9 24  1  0  0  0  0
  9  7  2  0  0  0  0
 10  6  1  0  0  0  0
 11  9  1  0  0  0  0
 13  5  1  0  0  0  0
 13 10  1  0  0  0  0
 14 16  1  0  0  0  0
 15 18  2  0  0  0  0
 16 18  1  0  0  0  0
 17 14  2  0  0  0  0
 17 15  1  0  0  0  0
 18  8  1  0  0  0  0
 19 14  1  0  0  0  0
 20 19  1  0  0  0  0
 21 19  2  0  0  0  0
 22 23  2  0  0  0  0
 25 24  1  0  0  0  0
 26 25  1  0  0  0  0
 27 26  1  0  0  0  0
 28 27  1  0  0  0  0
 31 29  1  6  0  0  0
 31 30  1  0  0  0  0
 31 28  1  0  0  0  0
 32 33  1  0  0  0  0
 33 31  1  0  0  0  0
M  END
>  <MODEL>
6

>  <REMARK>
 VINA RESULT:      -8.0      2.278      7.030
  Name = 
  10 active torsions:
  status: ('A' for Active; 'I' for Inactive)
    1  A    between atoms: C_1  and  C_8
    2  A    between atoms: C_3  and  C_5
    3  A    between atoms: C_9  and  N_17
    4  A    between atoms: C_9  and  C_22
    5  A    between atoms: N_17  and  C_28
    6  A    between atoms: C_18  and  C_33
    7  A    between atoms: C_22  and  C_32
    8  A    between atoms: C_24  and  C_25
    9  A    between atoms: C_24  and  C_32
   10  A    between atoms: C_28  and  C_31
                            x       y       z     vdW  Elec       q    Type
                         _______ _______ _______ _____ _____    ______ ____

>  <TORSDO>
F 10

$$$$
=
 OpenBabel10232409373D

 33 35  0  0  1  0  0  0  0  0999 V2000
  187.6300  177.0850  144.6670 O   0  0  0  0  0  1  0  0  0  0  0  0
  186.5990  178.0210  142.6770 C   0  0  0  0  0  0  0  0  0  0  0  0
  185.4680  178.4260  143.5520 C   0  0  0  0  0  3  0  0  0  0  0  0
  184.1970  178.7790  143.2810 C   0  0  0  0  0  0  0  0  0  0  0  0
  186.6840  178.3080  141.2930 C   0  0  0  0  0  0  0  0  0  0  0  0
  183.5850  178.7870  141.9270 C   0  0  0  0  0  0  0  0  0  0  0  0
  187.6730  177.3660  143.3030 C   0  0  0  0  0  0  0  0  0  0  0  0
  187.8310  177.8960  140.5690 C   0  0  0  0  0  0  0  0  0  0  0  0
  188.7920  176.9930  142.5540 C   0  0  0  0  0  0  0  0  0  0  0  0
  184.3180  178.3540  140.7100 C   0  0  0  0  0  2  0  0  0  0  0  0
  188.8410  177.2690  141.2270 N   0  0  0  0  0  0  0  0  0  0  0  0
  182.3560  179.1640  141.7820 N   0  0  0  0  0  2  0  0  0  0  0  0
  185.6200  179.1050  140.6210 C   0  0  0  0  0  2  0  0  0  0  0  0
  188.1180  178.0870  136.6630 C   0  0  0  0  0  0  0  0  0  0  0  0
  188.9640  178.9630  138.5590 C   0  0  0  0  0  3  0  0  0  0  0  0
  187.2280  177.3060  137.8600 S   0  0  0  0  0  0  0  0  0  0  0  0
  189.0120  178.9450  137.2010 N   0  0  0  0  0  0  0  0  0  0  0  0
  188.0040  178.1210  139.1170 C   0  0  0  0  0  0  0  0  0  0  0  0
  187.9930  177.8630  135.2140 C   0  0  0  0  0  0  0  0  0  0  0  0
  189.1200  177.5480  134.4670 O   0  0  0  0  0  1  0  0  0  0  0  0
  186.8170  177.9530  134.6060 C   0  0  0  0  0  2  0  0  0  0  0  0
  183.3360  179.1620  144.4180 C   0  0  0  0  0  3  0  0  0  0  0  0
  183.7470  179.1120  145.6440 N   0  0  0  0  0  2  0  0  0  0  0  0
  189.9540  176.3150  143.1990 C   0  0  0  0  0  2  0  0  0  0  0  0
  191.2100  177.1350  142.9890 C   0  0  0  0  0  2  0  0  0  0  0  0
  191.1360  178.4010  143.8190 C   0  0  0  0  0  2  0  0  0  0  0  0
  190.7190  178.0730  145.2410 C   0  0  0  0  0  2  0  0  0  0  0  0
  191.7690  177.3030  145.9040 N   0  0  0  0  0  2  0  0  0  0  0  0
  189.7910  176.6220  147.1070 C   0  0  0  0  0  1  0  0  0  0  0  0
  191.6080  177.6630  148.2180 O   0  0  0  0  0  1  0  0  0  0  0  0
  191.2980  176.7720  147.1840 C   0  0  2  0  0  0  0  0  0  0  0  0
  193.1390  175.5350  148.2510 N   0  0  0  0  0  1  0  0  0  0  0  0
  191.9260  175.4030  147.4580 C   0  0  0  0  0  2  0  0  0  0  0  0
  2  7  1  0  0  0  0
  2  3  1  0  0  0  0
  4  3  2  0  0  0  0
  4 22  1  0  0  0  0
  5  2  2  0  0  0  0
  6  4  1  0  0  0  0
  7  1  1  0  0  0  0
  8 11  2  0  0  0  0
  8  5  1  0  0  0  0
  9 24  1  0  0  0  0
  9  7  2  0  0  0  0
 10  6  1  0  0  0  0
 11  9  1  0  0  0  0
 12  6  2  0  0  0  0
 13 10  1  0  0  0  0
 13  5  1  0  0  0  0
 14 17  2  0  0  0  0
 14 16  1  0  0  0  0
 15 18  2  0  0  0  0
 16 18  1  0  0  0  0
 17 15  1  0  0  0  0
 18  8  1  0  0  0  0
 19 14  1  0  0  0  0
 20 19  1  0  0  0  0
 21 19  2  0  0  0  0
 22 23  2  0  0  0  0
 25 24  1  0  0  0  0
 25 26  1  0  0  0  0
 26 27  1  0  0  0  0
 27 28  1  0  0  0  0
 28 31  1  0  0  0  0
 31 29  1  6  0  0  0
 31 33  1  0  0  0  0
 31 30  1  0  0  0  0
 33 32  1  0  0  0  0
M  END
>  <MODEL>
7

>  <REMARK>
 VINA RESULT:      -7.9      2.780      3.904
  Name = 
  10 active torsions:
  status: ('A' for Active; 'I' for Inactive)
    1  A    between atoms: C_1  and  C_8
    2  A    between atoms: C_3  and  C_5
    3  A    between atoms: C_9  and  N_17
    4  A    between atoms: C_9  and  C_22
    5  A    between atoms: N_17  and  C_28
    6  A    between atoms: C_18  and  C_33
    7  A    between atoms: C_22  and  C_32
    8  A    between atoms: C_24  and  C_25
    9  A    between atoms: C_24  and  C_32
   10  A    between atoms: C_28  and  C_31
                            x       y       z     vdW  Elec       q    Type
                         _______ _______ _______ _____ _____    ______ ____

>  <TORSDO>
F 10

$$$$
=
 OpenBabel10232409373D

 33 35  0  0  1  0  0  0  0  0999 V2000
  191.7690  176.3870  143.2100 O   0  0  0  0  0  1  0  0  0  0  0  0
  189.7070  177.2470  144.1630 C   0  0  0  0  0  0  0  0  0  0  0  0
  190.3850  177.1780  145.4830 C   0  0  0  0  0  3  0  0  0  0  0  0
  189.9090  177.1790  146.7440 C   0  0  0  0  0  0  0  0  0  0  0  0
  188.3930  177.7340  143.9590 C   0  0  0  0  0  0  0  0  0  0  0  0
  188.4700  177.1940  147.1120 C   0  0  0  0  0  0  0  0  0  0  0  0
  190.4670  176.8530  143.0470 C   0  0  0  0  0  0  0  0  0  0  0  0
  187.8670  177.7790  142.6450 C   0  0  0  0  0  0  0  0  0  0  0  0
  189.9130  176.9310  141.7670 C   0  0  0  0  0  0  0  0  0  0  0  0
  187.3810  177.1660  146.1030 C   0  0  0  0  0  2  0  0  0  0  0  0
  188.6480  177.3890  141.6030 N   0  0  0  0  0  0  0  0  0  0  0  0
  188.1280  177.2130  148.3600 N   0  0  0  0  0  2  0  0  0  0  0  0
  187.6020  178.2690  145.1020 C   0  0  0  0  0  2  0  0  0  0  0  0
  184.0950  178.7070  142.1020 C   0  0  0  0  0  0  0  0  0  0  0  0
  186.1180  178.8090  141.1140 C   0  0  0  0  0  3  0  0  0  0  0  0
  185.1100  178.0330  143.2660 S   0  0  0  0  0  0  0  0  0  0  0  0
  184.7890  179.0720  141.0020 N   0  0  0  0  0  0  0  0  0  0  0  0
  186.4970  178.2420  142.3290 C   0  0  0  0  0  0  0  0  0  0  0  0
  182.6370  178.8600  142.2180 C   0  0  0  0  0  0  0  0  0  0  0  0
  181.8430  178.7630  141.0830 O   0  0  0  0  0  1  0  0  0  0  0  0
  182.0630  179.0870  143.3930 C   0  0  0  0  0  2  0  0  0  0  0  0
  190.8920  177.1330  147.8460 C   0  0  0  0  0  3  0  0  0  0  0  0
  192.0660  176.6070  147.7030 N   0  0  0  0  0  2  0  0  0  0  0  0
  190.7060  176.5400  140.5660 C   0  0  0  0  0  2  0  0  0  0  0  0
  190.2770  177.3680  139.3720 C   0  0  0  0  0  2  0  0  0  0  0  0
  190.5620  176.6030  138.0940 C   0  0  0  0  0  2  0  0  0  0  0  0
  189.2670  176.3140  137.3560 C   0  0  0  0  0  2  0  0  0  0  0  0
  188.1440  176.9350  138.0550 N   0  0  0  0  0  2  0  0  0  0  0  0
  187.6590  177.4090  135.7400 C   0  0  0  0  0  1  0  0  0  0  0  0
  187.9040  179.1520  137.3260 O   0  0  0  0  0  1  0  0  0  0  0  0
  187.4200  177.8490  137.1720 C   0  0  2  0  0  0  0  0  0  0  0  0
  185.3720  176.4830  137.1830 N   0  0  0  0  0  1  0  0  0  0  0  0
  185.9190  177.8010  137.4690 C   0  0  0  0  0  2  0  0  0  0  0  0
  2  3  1  0  0  0  0
  3  4  2  0  0  0  0
  4  6  1  0  0  0  0
  4 22  1  0  0  0  0
  5  2  1  0  0  0  0
  5 13  1  0  0  0  0
  6 12  2  0  0  0  0
  7  1  1  0  0  0  0
  7  2  2  0  0  0  0
  8  5  2  0  0  0  0
  9  7  1  0  0  0  0
 10  6  1  0  0  0  0
 11  9  2  0  0  0  0
 11  8  1  0  0  0  0
 13 10  1  0  0  0  0
 14 19  1  0  0  0  0
 14 16  1  0  0  0  0
 15 18  2  0  0  0  0
 17 15  1  0  0  0  0
 17 14  2  0  0  0  0
 18  8  1  0  0  0  0
 18 16  1  0  0  0  0
 19 21  2  0  0  0  0
 20 19  1  0  0  0  0
 23 22  2  0  0  0  0
 24  9  1  0  0  0  0
 25 24  1  0  0  0  0
 26 25  1  0  0  0  0
 27 28  1  0  0  0  0
 27 26  1  0  0  0  0
 31 29  1  6  0  0  0
 31 30  1  0  0  0  0
 31 33  1  0  0  0  0
 31 28  1  0  0  0  0
 32 33  1  0  0  0  0
M  END
>  <MODEL>
8

>  <REMARK>
 VINA RESULT:      -7.8      2.642      8.071
  Name = 
  10 active torsions:
  status: ('A' for Active; 'I' for Inactive)
    1  A    between atoms: C_1  and  C_8
    2  A    between atoms: C_3  and  C_5
    3  A    between atoms: C_9  and  N_17
    4  A    between atoms: C_9  and  C_22
    5  A    between atoms: N_17  and  C_28
    6  A    between atoms: C_18  and  C_33
    7  A    between atoms: C_22  and  C_32
    8  A    between atoms: C_24  and  C_25
    9  A    between atoms: C_24  and  C_32
   10  A    between atoms: C_28  and  C_31
                            x       y       z     vdW  Elec       q    Type
                         _______ _______ _______ _____ _____    ______ ____

>  <TORSDO>
F 10

$$$$
=
 OpenBabel10232409373D

 33 35  0  0  1  0  0  0  0  0999 V2000
  185.2810  178.6980  144.8710 O   0  0  0  0  0  1  0  0  0  0  0  0
  187.4900  177.7840  144.4430 C   0  0  0  0  0  0  0  0  0  0  0  0
  187.5810  177.5370  145.9060 C   0  0  0  0  0  3  0  0  0  0  0  0
  188.6290  177.3030  146.7190 C   0  0  0  0  0  0  0  0  0  0  0  0
  188.4900  177.4290  143.5060 C   0  0  0  0  0  0  0  0  0  0  0  0
  190.0530  177.2980  146.2940 C   0  0  0  0  0  0  0  0  0  0  0  0
  186.2930  178.3540  143.9770 C   0  0  0  0  0  0  0  0  0  0  0  0
  188.2730  177.6880  142.1300 C   0  0  0  0  0  0  0  0  0  0  0  0
  186.1150  178.5760  142.6100 C   0  0  0  0  0  0  0  0  0  0  0  0
  190.4790  177.5990  144.9040 C   0  0  0  0  0  2  0  0  0  0  0  0
  187.0950  178.2380  141.7360 N   0  0  0  0  0  0  0  0  0  0  0  0
  190.9790  177.0420  147.1610 N   0  0  0  0  0  2  0  0  0  0  0  0
  189.7200  176.7160  143.9490 C   0  0  0  0  0  2  0  0  0  0  0  0
  191.2050  177.0650  139.6000 C   0  0  0  0  0  0  0  0  0  0  0  0
  188.9630  177.2650  139.7200 C   0  0  0  0  0  3  0  0  0  0  0  0
  190.9410  177.2900  141.2480 S   0  0  0  0  0  0  0  0  0  0  0  0
  190.0420  177.0790  138.9140 N   0  0  0  0  0  0  0  0  0  0  0  0
  189.2660  177.3830  141.0750 C   0  0  0  0  0  0  0  0  0  0  0  0
  192.5160  176.9090  138.9540 C   0  0  0  0  0  0  0  0  0  0  0  0
  193.6670  177.2850  139.6330 O   0  0  0  0  0  1  0  0  0  0  0  0
  192.6210  176.4080  137.7290 C   0  0  0  0  0  2  0  0  0  0  0  0
  188.3460  177.0610  148.1480 C   0  0  0  0  0  3  0  0  0  0  0  0
  188.1600  178.0270  148.9900 N   0  0  0  0  0  2  0  0  0  0  0  0
  184.8440  179.1600  142.0880 C   0  0  0  0  0  2  0  0  0  0  0  0
  183.8080  178.0680  141.9180 C   0  0  0  0  0  2  0  0  0  0  0  0
  182.4680  178.6900  141.5740 C   0  0  0  0  0  2  0  0  0  0  0  0
  182.1360  178.4450  140.1130 C   0  0  0  0  0  2  0  0  0  0  0  0
  182.9420  177.3420  139.5950 N   0  0  0  0  0  2  0  0  0  0  0  0
  182.4110  177.9970  137.3350 C   0  0  0  0  0  1  0  0  0  0  0  0
  184.2740  176.6100  137.8070 O   0  0  0  0  0  1  0  0  0  0  0  0
  183.5360  177.6900  138.3040 C   0  0  2  0  0  0  0  0  0  0  0  0
  185.8370  178.5490  138.4710 N   0  0  0  0  0  1  0  0  0  0  0  0
  184.4310  178.9240  138.4440 C   0  0  0  0  0  2  0  0  0  0  0  0
  2  3  1  0  0  0  0
  3  4  2  0  0  0  0
  4 22  1  0  0  0  0
  5 13  1  0  0  0  0
  5  2  2  0  0  0  0
  6  4  1  0  0  0  0
  6 12  2  0  0  0  0
  7  2  1  0  0  0  0
  7  1  1  0  0  0  0
  8  5  1  0  0  0  0
  9  7  2  0  0  0  0
 10  6  1  0  0  0  0
 11  8  2  0  0  0  0
 11  9  1  0  0  0  0
 13 10  1  0  0  0  0
 14 16  1  0  0  0  0
 15 18  2  0  0  0  0
 17 14  2  0  0  0  0
 17 15  1  0  0  0  0
 18 16  1  0  0  0  0
 18  8  1  0  0  0  0
 19 14  1  0  0  0  0
 19 20  1  0  0  0  0
 21 19  2  0  0  0  0
 22 23  2  0  0  0  0
 24  9  1  0  0  0  0
 25 24  1  0  0  0  0
 26 25  1  0  0  0  0
 27 26  1  0  0  0  0
 28 27  1  0  0  0  0
 30 31  1  0  0  0  0
 31 29  1  6  0  0  0
 31 33  1  0  0  0  0
 31 28  1  0  0  0  0
 33 32  1  0  0  0  0
M  END
>  <MODEL>
9

>  <REMARK>
 VINA RESULT:      -7.8      2.288      6.991
  Name = 
  10 active torsions:
  status: ('A' for Active; 'I' for Inactive)
    1  A    between atoms: C_1  and  C_8
    2  A    between atoms: C_3  and  C_5
    3  A    between atoms: C_9  and  N_17
    4  A    between atoms: C_9  and  C_22
    5  A    between atoms: N_17  and  C_28
    6  A    between atoms: C_18  and  C_33
    7  A    between atoms: C_22  and  C_32
    8  A    between atoms: C_24  and  C_25
    9  A    between atoms: C_24  and  C_32
   10  A    between atoms: C_28  and  C_31
                            x       y       z     vdW  Elec       q    Type
                         _______ _______ _______ _____ _____    ______ ____

>  <TORSDO>
F 10

$$$$
