=
 OpenBabel10232408213D

 30 36  0  0  1  0  0  0  0  0999 V2000
  187.5110  176.5110  147.0320 C   0  0  0  0  0  2  0  0  0  0  0  0
  186.7400  177.5230  146.1980 C   0  0  1  0  0  0  0  0  0  0  0  0
  188.4880  177.9180  140.9130 C   0  0  0  0  0  0  0  0  0  0  0  0
  183.5930  178.5790  143.5660 C   0  0  0  0  0  0  0  0  0  0  0  0
  188.1600  178.6830  139.7930 C   0  0  0  0  0  3  0  0  0  0  0  0
  189.0760  178.6960  138.7290 C   0  0  0  0  0  3  0  0  0  0  0  0
  182.4860  179.0180  144.2170 F   0  0  0  0  0  0  0  0  0  0  0  0
  187.7770  177.7470  142.0520 N   0  0  0  0  0  0  0  0  0  0  0  0
  186.4740  178.2560  142.4270 C   0  0  0  0  0  0  0  0  0  0  0  0
  186.0600  178.0800  143.7160 C   0  0  0  0  0  0  0  0  0  0  0  0
  188.0500  176.4540  144.1640 C   0  0  0  0  0  2  0  0  0  0  0  0
  187.7430  178.5200  145.5570 C   0  0  1  0  0  3  0  0  0  0  0  0
  185.6850  178.9860  141.4040 C   0  0  0  0  0  3  0  0  0  0  0  0
  189.6650  177.2080  140.9680 C   0  0  0  0  0  0  0  0  0  0  0  0
  187.0470  177.4780  144.7050 C   0  0  2  0  0  0  0  0  0  0  0  0
  184.7380  178.5130  144.2430 C   0  0  0  0  0  3  0  0  0  0  0  0
  183.5020  178.1170  142.1460 C   0  0  2  0  0  3  0  0  0  0  0  0
  189.6970  176.5610  142.1890 C   0  0  0  0  0  0  0  0  0  0  0  0
  187.0110  178.8590  146.8290 C   0  0  2  0  0  0  0  0  0  0  0  0
  183.8040  179.7270  140.2880 F   0  0  0  0  0  0  0  0  0  0  0  0
  190.7590  175.6570  142.7150 C   0  0  0  0  0  1  0  0  0  0  0  0
  188.5200  176.9240  142.8280 C   0  0  0  0  0  0  0  0  0  0  0  0
  191.7850  176.5050  139.9350 N   0  0  0  0  0  1  0  0  0  0  0  0
  190.2420  177.9810  138.8020 N   0  0  0  0  0  0  0  0  0  0  0  0
  190.5620  177.2340  139.8980 C   0  0  0  0  0  0  0  0  0  0  0  0
  187.6760  178.6500  148.1740 C   0  0  0  0  0  2  0  0  0  0  0  0
  184.3590  178.9800  141.2760 C   0  0  0  0  0  0  0  0  0  0  0  0
  182.0610  178.0910  141.6590 C   0  0  0  0  0  1  0  0  0  0  0  0
  187.7080  177.1490  148.3960 C   0  0  0  0  0  2  0  0  0  0  0  0
  185.8950  179.7830  146.7320 N   0  0  0  0  0  1  0  0  0  0  0  0
  1 29  1  0  0  0  0
  2 19  1  0  0  0  0
  2  1  1  1  0  0  0
  3 14  1  0  0  0  0
  3  8  1  0  0  0  0
  4  7  1  0  0  0  0
  4 16  2  0  0  0  0
  5  3  2  0  0  0  0
  6 24  2  0  0  0  0
  6  5  1  0  0  0  0
  8  9  1  0  0  0  0
  8 22  1  0  0  0  0
  9 10  2  0  0  0  0
 10 16  1  0  0  0  0
 10 15  1  0  0  0  0
 11 15  1  0  0  0  0
 12  2  1  0  0  0  0
 12 19  1  0  0  0  0
 13  9  1  0  0  0  0
 14 18  1  0  0  0  0
 15 12  1  0  0  0  0
 15  2  1  0  0  0  0
 17  4  1  0  0  0  0
 18 21  1  0  0  0  0
 18 22  2  0  0  0  0
 19 26  1  0  0  0  0
 20 27  1  0  0  0  0
 22 11  1  0  0  0  0
 24 25  1  0  0  0  0
 25 23  1  0  0  0  0
 25 14  2  0  0  0  0
 26 29  1  0  0  0  0
 27 13  2  0  0  0  0
 27 17  1  0  0  0  0
 28 17  1  0  0  0  0
 30 19  1  0  0  0  0
M  END
>  <MODEL>
1

>  <REMARK>
 VINA RESULT:      -9.1      0.000      0.000
  Name = 
  0 active torsions:
  status: ('A' for Active; 'I' for Inactive)
                            x       y       z     vdW  Elec       q    Type
                         _______ _______ _______ _____ _____    ______ ____

>  <TORSDO>
F 0

$$$$
=
 OpenBabel10232408213D

 30 36  0  0  1  0  0  0  0  0999 V2000
  183.6210  179.9000  139.2570 C   0  0  0  0  0  2  0  0  0  0  0  0
  183.6440  179.1140  140.5590 C   0  0  1  0  0  0  0  0  0  0  0  0
  188.6780  177.1280  141.9270 C   0  0  0  0  0  0  0  0  0  0  0  0
  184.1530  178.8460  144.7570 C   0  0  0  0  0  0  0  0  0  0  0  0
  189.2140  176.3490  142.9530 C   0  0  0  0  0  3  0  0  0  0  0  0
  190.4890  175.7980  142.7470 C   0  0  0  0  0  3  0  0  0  0  0  0
  182.9870  178.9810  145.4390 F   0  0  0  0  0  0  0  0  0  0  0  0
  187.4810  177.7590  141.8880 N   0  0  0  0  0  0  0  0  0  0  0  0
  186.4390  177.8530  142.8890 C   0  0  0  0  0  0  0  0  0  0  0  0
  185.2440  178.4050  142.5270 C   0  0  0  0  0  0  0  0  0  0  0  0
  186.2720  179.2210  140.2730 C   0  0  0  0  0  2  0  0  0  0  0  0
  184.2640  177.7150  140.2960 C   0  0  1  0  0  3  0  0  0  0  0  0
  186.7100  177.2950  144.2380 C   0  0  0  0  0  3  0  0  0  0  0  0
  189.3740  177.3430  140.7610 C   0  0  0  0  0  0  0  0  0  0  0  0
  185.0410  178.7650  141.0630 C   0  0  2  0  0  0  0  0  0  0  0  0
  184.0940  178.6030  143.4490 C   0  0  0  0  0  3  0  0  0  0  0  0
  185.4630  179.0380  145.4530 C   0  0  2  0  0  3  0  0  0  0  0  0
  188.5880  178.1440  139.9540 C   0  0  0  0  0  0  0  0  0  0  0  0
  182.7710  177.9150  140.3260 C   0  0  2  0  0  0  0  0  0  0  0  0
  186.5940  177.1200  146.5370 F   0  0  0  0  0  0  0  0  0  0  0  0
  188.9080  178.6650  138.5950 C   0  0  0  0  0  1  0  0  0  0  0  0
  187.4290  178.3720  140.6820 C   0  0  0  0  0  0  0  0  0  0  0  0
  191.3800  176.9990  139.3770 N   0  0  0  0  0  1  0  0  0  0  0  0
  191.1680  176.0260  141.5790 N   0  0  0  0  0  0  0  0  0  0  0  0
  190.6420  176.7870  140.5760 C   0  0  0  0  0  0  0  0  0  0  0  0
  181.9980  178.1040  139.0370 C   0  0  0  0  0  2  0  0  0  0  0  0
  186.2580  177.7730  145.3960 C   0  0  0  0  0  0  0  0  0  0  0  0
  185.2700  179.5120  146.8860 C   0  0  0  0  0  1  0  0  0  0  0  0
  182.3430  179.4970  138.5430 C   0  0  0  0  0  2  0  0  0  0  0  0
  182.0620  177.4750  141.5140 N   0  0  0  0  0  1  0  0  0  0  0  0
  2  1  1  6  0  0  0
  2 15  1  0  0  0  0
  3  5  1  0  0  0  0
  4  7  1  0  0  0  0
  4 17  1  0  0  0  0
  6  5  2  0  0  0  0
  8  3  1  0  0  0  0
  8  9  1  0  0  0  0
  9 13  1  0  0  0  0
 10  9  2  0  0  0  0
 10 16  1  0  0  0  0
 11 22  1  0  0  0  0
 11 15  1  0  0  0  0
 12 19  1  0  0  0  0
 12  2  1  0  0  0  0
 12 15  1  0  0  0  0
 13 27  2  0  0  0  0
 14  3  2  0  0  0  0
 15 10  1  0  0  0  0
 16  4  2  0  0  0  0
 17 28  1  0  0  0  0
 18 22  2  0  0  0  0
 18 14  1  0  0  0  0
 19  2  1  0  0  0  0
 19 30  1  0  0  0  0
 21 18  1  0  0  0  0
 22  8  1  0  0  0  0
 23 25  1  0  0  0  0
 24  6  1  0  0  0  0
 25 14  1  0  0  0  0
 25 24  2  0  0  0  0
 26 19  1  0  0  0  0
 27 17  1  0  0  0  0
 27 20  1  0  0  0  0
 29 26  1  0  0  0  0
 29  1  1  0  0  0  0
M  END
>  <MODEL>
2

>  <REMARK>
 VINA RESULT:      -8.6      1.928      5.251
  Name = 
  0 active torsions:
  status: ('A' for Active; 'I' for Inactive)
                            x       y       z     vdW  Elec       q    Type
                         _______ _______ _______ _____ _____    ______ ____

>  <TORSDO>
F 0

$$$$
=
 OpenBabel10232408213D

 30 36  0  0  1  0  0  0  0  0999 V2000
  186.3240  177.1690  146.0620 C   0  0  0  0  0  2  0  0  0  0  0  0
  185.6190  177.9640  144.9740 C   0  0  1  0  0  0  0  0  0  0  0  0
  188.3090  178.0050  140.0840 C   0  0  0  0  0  0  0  0  0  0  0  0
  182.9470  178.2690  141.7000 C   0  0  0  0  0  0  0  0  0  0  0  0
  188.1200  178.5870  138.8300 C   0  0  0  0  0  3  0  0  0  0  0  0
  189.2190  178.6090  137.9560 C   0  0  0  0  0  3  0  0  0  0  0  0
  181.6910  178.6190  142.0770 F   0  0  0  0  0  0  0  0  0  0  0  0
  187.4140  177.8650  141.0900 N   0  0  0  0  0  0  0  0  0  0  0  0
  186.0120  178.2250  141.1520 C   0  0  0  0  0  0  0  0  0  0  0  0
  185.3770  178.1390  142.3580 C   0  0  0  0  0  0  0  0  0  0  0  0
  187.4160  176.8680  143.3730 C   0  0  0  0  0  2  0  0  0  0  0  0
  186.6050  179.0130  144.3940 C   0  0  1  0  0  3  0  0  0  0  0  0
  185.3590  178.7200  139.9140 C   0  0  0  0  0  3  0  0  0  0  0  0
  189.5260  177.4780  140.4460 C   0  0  0  0  0  0  0  0  0  0  0  0
  186.2150  177.7960  143.5810 C   0  0  2  0  0  0  0  0  0  0  0  0
  183.9380  178.4390  142.5740 C   0  0  0  0  0  3  0  0  0  0  0  0
  183.1900  177.6430  140.3640 C   0  0  2  0  0  3  0  0  0  0  0  0
  189.3940  176.9820  141.7290 C   0  0  0  0  0  0  0  0  0  0  0  0
  185.6040  179.3870  145.4550 C   0  0  2  0  0  0  0  0  0  0  0  0
  183.6600  179.0610  138.3880 F   0  0  0  0  0  0  0  0  0  0  0  0
  190.4310  176.3000  142.5560 C   0  0  0  0  0  1  0  0  0  0  0  0
  188.0810  177.2460  142.0910 C   0  0  0  0  0  0  0  0  0  0  0  0
  191.8750  176.9660  139.9160 N   0  0  0  0  0  1  0  0  0  0  0  0
  190.4230  178.0760  138.3340 N   0  0  0  0  0  0  0  0  0  0  0  0
  190.6070  177.5080  139.5610 C   0  0  0  0  0  0  0  0  0  0  0  0
  186.0140  179.4240  146.9130 C   0  0  0  0  0  2  0  0  0  0  0  0
  184.0940  178.5140  139.5520 C   0  0  0  0  0  0  0  0  0  0  0  0
  181.8850  177.3610  139.6340 C   0  0  0  0  0  1  0  0  0  0  0  0
  186.1760  177.9770  147.3400 C   0  0  0  0  0  2  0  0  0  0  0  0
  184.4300  180.1290  145.0340 N   0  0  0  0  0  1  0  0  0  0  0  0
  1 29  1  0  0  0  0
  2 19  1  0  0  0  0
  2  1  1  1  0  0  0
  3 14  1  0  0  0  0
  3  8  1  0  0  0  0
  4  7  1  0  0  0  0
  4 16  2  0  0  0  0
  5  3  2  0  0  0  0
  6 24  2  0  0  0  0
  6  5  1  0  0  0  0
  8  9  1  0  0  0  0
  8 22  1  0  0  0  0
  9 10  2  0  0  0  0
 10 16  1  0  0  0  0
 10 15  1  0  0  0  0
 11 15  1  0  0  0  0
 12  2  1  0  0  0  0
 12 19  1  0  0  0  0
 13  9  1  0  0  0  0
 14 18  1  0  0  0  0
 15 12  1  0  0  0  0
 15  2  1  0  0  0  0
 17  4  1  0  0  0  0
 18 22  2  0  0  0  0
 18 21  1  0  0  0  0
 19 26  1  0  0  0  0
 20 27  1  0  0  0  0
 22 11  1  0  0  0  0
 24 25  1  0  0  0  0
 25 23  1  0  0  0  0
 25 14  2  0  0  0  0
 26 29  1  0  0  0  0
 27 13  2  0  0  0  0
 27 17  1  0  0  0  0
 28 17  1  0  0  0  0
 30 19  1  0  0  0  0
M  END
>  <MODEL>
3

>  <REMARK>
 VINA RESULT:      -7.8      1.266      1.543
  Name = 
  0 active torsions:
  status: ('A' for Active; 'I' for Inactive)
                            x       y       z     vdW  Elec       q    Type
                         _______ _______ _______ _____ _____    ______ ____

>  <TORSDO>
F 0

$$$$
=
 OpenBabel10232408213D

 30 36  0  0  1  0  0  0  0  0999 V2000
  192.7860  173.7050  137.0200 C   0  0  0  0  0  2  0  0  0  0  0  0
  192.4210  175.0000  137.7300 C   0  0  1  0  0  0  0  0  0  0  0  0
  187.0660  176.4700  137.1640 C   0  0  0  0  0  0  0  0  0  0  0  0
  191.0050  177.1480  141.0960 C   0  0  0  0  0  0  0  0  0  0  0  0
  186.2620  177.5360  137.5680 C   0  0  0  0  0  3  0  0  0  0  0  0
  185.0200  177.6850  136.9300 C   0  0  0  0  0  3  0  0  0  0  0  0
  192.0050  177.5650  141.9140 F   0  0  0  0  0  0  0  0  0  0  0  0
  188.2910  176.1210  137.6220 N   0  0  0  0  0  0  0  0  0  0  0  0
  189.0990  176.7030  138.6740 C   0  0  0  0  0  0  0  0  0  0  0  0
  190.3840  176.2670  138.8170 C   0  0  0  0  0  0  0  0  0  0  0  0
  189.9330  174.3050  137.1590 C   0  0  0  0  0  2  0  0  0  0  0  0
  191.7600  175.9670  136.7110 C   0  0  1  0  0  3  0  0  0  0  0  0
  188.5000  177.7800  139.5020 C   0  0  0  0  0  3  0  0  0  0  0  0
  186.6560  175.6040  136.1780 C   0  0  0  0  0  0  0  0  0  0  0  0
  190.9250  175.2940  137.7800 C   0  0  2  0  0  0  0  0  0  0  0  0
  191.3220  176.7420  139.8680 C   0  0  0  0  0  3  0  0  0  0  0  0
  189.5970  177.0830  141.5960 C   0  0  2  0  0  3  0  0  0  0  0  0
  187.6590  174.6680  136.0090 C   0  0  0  0  0  0  0  0  0  0  0  0
  193.2230  176.0750  137.0550 C   0  0  2  0  0  0  0  0  0  0  0  0
  188.1070  179.0520  141.3890 F   0  0  0  0  0  0  0  0  0  0  0  0
  187.6810  173.5130  135.0670 C   0  0  0  0  0  1  0  0  0  0  0  0
  188.6500  175.0260  136.9120 C   0  0  0  0  0  0  0  0  0  0  0  0
  184.9710  174.8820  134.5350 N   0  0  0  0  0  1  0  0  0  0  0  0
  184.6270  176.8110  135.9520 N   0  0  0  0  0  0  0  0  0  0  0  0
  185.4160  175.7690  135.5570 C   0  0  0  0  0  0  0  0  0  0  0  0
  194.2660  175.4320  136.1640 C   0  0  0  0  0  2  0  0  0  0  0  0
  188.7320  178.0030  140.7950 C   0  0  0  0  0  0  0  0  0  0  0  0
  189.5160  177.3960  143.0830 C   0  0  0  0  0  1  0  0  0  0  0  0
  194.1510  173.9370  136.3950 C   0  0  0  0  0  2  0  0  0  0  0  0
  193.6230  177.1470  137.9470 N   0  0  0  0  0  1  0  0  0  0  0  0
  2  1  1  6  0  0  0
  2 15  1  0  0  0  0
  3  5  1  0  0  0  0
  3  8  1  0  0  0  0
  4 17  1  0  0  0  0
  4  7  1  0  0  0  0
  6  5  2  0  0  0  0
  8  9  1  0  0  0  0
  9 10  2  0  0  0  0
  9 13  1  0  0  0  0
 10 16  1  0  0  0  0
 11 15  1  0  0  0  0
 12 19  1  0  0  0  0
 12  2  1  0  0  0  0
 12 15  1  0  0  0  0
 13 27  2  0  0  0  0
 14  3  2  0  0  0  0
 15 10  1  0  0  0  0
 16  4  2  0  0  0  0
 17 28  1  0  0  0  0
 18 14  1  0  0  0  0
 18 22  2  0  0  0  0
 19  2  1  0  0  0  0
 19 30  1  0  0  0  0
 21 18  1  0  0  0  0
 22 11  1  0  0  0  0
 22  8  1  0  0  0  0
 23 25  1  0  0  0  0
 24  6  1  0  0  0  0
 25 24  2  0  0  0  0
 25 14  1  0  0  0  0
 26 29  1  0  0  0  0
 26 19  1  0  0  0  0
 27 20  1  0  0  0  0
 27 17  1  0  0  0  0
 29  1  1  0  0  0  0
M  END
>  <MODEL>
4

>  <REMARK>
 VINA RESULT:      -7.7      4.315      8.221
  Name = 
  0 active torsions:
  status: ('A' for Active; 'I' for Inactive)
                            x       y       z     vdW  Elec       q    Type
                         _______ _______ _______ _____ _____    ______ ____

>  <TORSDO>
F 0

$$$$
=
 OpenBabel10232408213D

 30 36  0  0  1  0  0  0  0  0999 V2000
  189.7970  178.5720  144.3450 C   0  0  0  0  0  2  0  0  0  0  0  0
  189.5880  177.9140  142.9900 C   0  0  1  0  0  0  0  0  0  0  0  0
  184.3690  178.3040  141.0530 C   0  0  0  0  0  0  0  0  0  0  0  0
  189.4760  178.0240  138.7560 C   0  0  0  0  0  0  0  0  0  0  0  0
  183.6710  177.8610  139.9280 C   0  0  0  0  0  3  0  0  0  0  0  0
  182.2680  177.8990  139.9830 C   0  0  0  0  0  3  0  0  0  0  0  0
  190.6570  177.6720  138.1880 F   0  0  0  0  0  0  0  0  0  0  0  0
  185.7080  178.3640  141.2410 N   0  0  0  0  0  0  0  0  0  0  0  0
  186.7960  178.0380  140.3420 C   0  0  0  0  0  0  0  0  0  0  0  0
  188.0640  178.0170  140.8450 C   0  0  0  0  0  0  0  0  0  0  0  0
  187.2350  179.1190  143.0590 C   0  0  0  0  0  2  0  0  0  0  0  0
  188.4140  176.9040  143.0930 C   0  0  1  0  0  3  0  0  0  0  0  0
  186.4640  177.6930  138.9370 C   0  0  0  0  0  3  0  0  0  0  0  0
  183.7040  178.7570  142.1680 C   0  0  0  0  0  0  0  0  0  0  0  0
  188.2380  178.2080  142.3440 C   0  0  2  0  0  0  0  0  0  0  0  0
  189.2840  177.7360  140.0420 C   0  0  0  0  0  3  0  0  0  0  0  0
  188.4530  178.7780  137.9680 C   0  0  2  0  0  3  0  0  0  0  0  0
  184.6610  179.1210  143.0970 C   0  0  0  0  0  0  0  0  0  0  0  0
  189.8460  176.4500  143.2050 C   0  0  2  0  0  0  0  0  0  0  0  0
  186.7460  177.5590  136.6480 F   0  0  0  0  0  0  0  0  0  0  0  0
  184.4430  179.6840  144.4590 C   0  0  0  0  0  1  0  0  0  0  0  0
  185.8800  178.8580  142.4900 C   0  0  0  0  0  0  0  0  0  0  0  0
  181.6010  179.2550  143.3460 N   0  0  0  0  0  1  0  0  0  0  0  0
  181.6250  178.3560  141.1020 N   0  0  0  0  0  0  0  0  0  0  0  0
  182.3080  178.7880  142.2010 C   0  0  0  0  0  0  0  0  0  0  0  0
  190.4810  176.2500  144.5660 C   0  0  0  0  0  2  0  0  0  0  0  0
  187.1990  177.9700  137.8610 C   0  0  0  0  0  0  0  0  0  0  0  0
  188.9820  179.1700  136.5960 C   0  0  0  0  0  1  0  0  0  0  0  0
  190.7020  177.6410  145.1330 C   0  0  0  0  0  2  0  0  0  0  0  0
  190.4300  175.7880  142.0520 N   0  0  0  0  0  1  0  0  0  0  0  0
  1 29  1  0  0  0  0
  2 12  1  0  0  0  0
  2 19  1  0  0  0  0
  2  1  1  1  0  0  0
  3  8  1  0  0  0  0
  3 14  1  0  0  0  0
  4 16  2  0  0  0  0
  5  6  1  0  0  0  0
  5  3  2  0  0  0  0
  6 24  2  0  0  0  0
  7  4  1  0  0  0  0
  8 22  1  0  0  0  0
  9 10  2  0  0  0  0
  9  8  1  0  0  0  0
 10 15  1  0  0  0  0
 12 19  1  0  0  0  0
 13  9  1  0  0  0  0
 14 25  2  0  0  0  0
 14 18  1  0  0  0  0
 15  2  1  0  0  0  0
 15 11  1  0  0  0  0
 15 12  1  0  0  0  0
 16 10  1  0  0  0  0
 17  4  1  0  0  0  0
 18 21  1  0  0  0  0
 19 26  1  0  0  0  0
 20 27  1  0  0  0  0
 22 11  1  0  0  0  0
 22 18  2  0  0  0  0
 24 25  1  0  0  0  0
 25 23  1  0  0  0  0
 26 29  1  0  0  0  0
 27 17  1  0  0  0  0
 27 13  2  0  0  0  0
 28 17  1  0  0  0  0
 30 19  1  0  0  0  0
M  END
>  <MODEL>
5

>  <REMARK>
 VINA RESULT:      -7.2      3.005      6.046
  Name = 
  0 active torsions:
  status: ('A' for Active; 'I' for Inactive)
                            x       y       z     vdW  Elec       q    Type
                         _______ _______ _______ _____ _____    ______ ____

>  <TORSDO>
F 0

$$$$
=
 OpenBabel10232408213D

 30 36  0  0  1  0  0  0  0  0999 V2000
  188.1110  176.1410  136.0670 C   0  0  0  0  0  2  0  0  0  0  0  0
  188.0280  177.1890  137.1670 C   0  0  1  0  0  0  0  0  0  0  0  0
  182.8140  178.6060  138.5680 C   0  0  0  0  0  0  0  0  0  0  0  0
  187.7350  178.3200  141.2400 C   0  0  0  0  0  0  0  0  0  0  0  0
  182.2120  179.5030  139.4510 C   0  0  0  0  0  3  0  0  0  0  0  0
  180.8490  179.7820  139.2590 C   0  0  0  0  0  3  0  0  0  0  0  0
  188.9460  178.5320  141.8160 F   0  0  0  0  0  0  0  0  0  0  0  0
  184.1000  178.1820  138.5470 N   0  0  0  0  0  0  0  0  0  0  0  0
  185.2000  178.4850  139.4380 C   0  0  0  0  0  0  0  0  0  0  0  0
  186.4500  178.0630  139.0860 C   0  0  0  0  0  0  0  0  0  0  0  0
  185.4490  176.6020  137.1710 C   0  0  0  0  0  2  0  0  0  0  0  0
  187.1550  178.3740  136.6730 C   0  0  1  0  0  3  0  0  0  0  0  0
  184.9170  179.2850  140.6560 C   0  0  0  0  0  3  0  0  0  0  0  0
  182.0980  178.0240  137.5490 C   0  0  0  0  0  0  0  0  0  0  0  0
  186.6240  177.4170  137.7190 C   0  0  2  0  0  0  0  0  0  0  0  0
  187.6700  178.2660  139.9100 C   0  0  0  0  0  3  0  0  0  0  0  0
  186.5250  178.0850  142.0860 C   0  0  2  0  0  3  0  0  0  0  0  0
  182.9630  177.1950  136.8590 C   0  0  0  0  0  0  0  0  0  0  0  0
  188.6590  178.4270  136.5980 C   0  0  2  0  0  0  0  0  0  0  0  0
  185.1390  179.9950  142.8420 F   0  0  0  0  0  0  0  0  0  0  0  0
  182.6580  176.3340  135.6810 C   0  0  0  0  0  1  0  0  0  0  0  0
  184.1860  177.3260  137.5010 C   0  0  0  0  0  0  0  0  0  0  0  0
  179.9820  177.7190  136.3290 N   0  0  0  0  0  1  0  0  0  0  0  0
  180.1520  179.1890  138.2400 N   0  0  0  0  0  0  0  0  0  0  0  0
  180.7420  178.3130  137.3760 C   0  0  0  0  0  0  0  0  0  0  0  0
  189.3730  178.0750  135.3090 C   0  0  0  0  0  2  0  0  0  0  0  0
  185.5160  179.1610  141.8390 C   0  0  0  0  0  0  0  0  0  0  0  0
  186.8850  177.9870  143.5610 C   0  0  0  0  0  1  0  0  0  0  0  0
  189.2520  176.5690  135.1610 C   0  0  0  0  0  2  0  0  0  0  0  0
  189.3500  179.2330  137.5880 N   0  0  0  0  0  1  0  0  0  0  0  0
  2  1  1  6  0  0  0
  2 15  1  0  0  0  0
  3  5  1  0  0  0  0
  4  7  1  0  0  0  0
  4 17  1  0  0  0  0
  6  5  2  0  0  0  0
  8  3  1  0  0  0  0
  8  9  1  0  0  0  0
  9 13  1  0  0  0  0
 10  9  2  0  0  0  0
 10 16  1  0  0  0  0
 11 22  1  0  0  0  0
 11 15  1  0  0  0  0
 12  2  1  0  0  0  0
 12 15  1  0  0  0  0
 13 27  2  0  0  0  0
 14  3  2  0  0  0  0
 15 10  1  0  0  0  0
 16  4  2  0  0  0  0
 17 28  1  0  0  0  0
 18 22  2  0  0  0  0
 18 14  1  0  0  0  0
 19 12  1  0  0  0  0
 19  2  1  0  0  0  0
 19 30  1  0  0  0  0
 21 18  1  0  0  0  0
 22  8  1  0  0  0  0
 23 25  1  0  0  0  0
 24  6  1  0  0  0  0
 25 14  1  0  0  0  0
 25 24  2  0  0  0  0
 26 19  1  0  0  0  0
 27 17  1  0  0  0  0
 27 20  1  0  0  0  0
 29 26  1  0  0  0  0
 29  1  1  0  0  0  0
M  END
>  <MODEL>
6

>  <REMARK>
 VINA RESULT:      -6.9      4.009      8.068
  Name = 
  0 active torsions:
  status: ('A' for Active; 'I' for Inactive)
                            x       y       z     vdW  Elec       q    Type
                         _______ _______ _______ _____ _____    ______ ____

>  <TORSDO>
F 0

$$$$
=
 OpenBabel10232408213D

 30 36  0  0  1  0  0  0  0  0999 V2000
  189.7260  177.9110  137.3030 C   0  0  0  0  0  2  0  0  0  0  0  0
  188.2800  177.6080  137.6630 C   0  0  1  0  0  0  0  0  0  0  0  0
  187.1810  177.9270  143.1250 C   0  0  0  0  0  0  0  0  0  0  0  0
  184.2820  178.7980  138.4060 C   0  0  0  0  0  0  0  0  0  0  0  0
  186.0740  177.7180  143.9480 C   0  0  0  0  0  3  0  0  0  0  0  0
  186.3090  177.5900  145.3270 C   0  0  0  0  0  3  0  0  0  0  0  0
  183.4990  178.7330  137.2990 F   0  0  0  0  0  0  0  0  0  0  0  0
  187.2110  178.0780  141.7800 N   0  0  0  0  0  0  0  0  0  0  0  0
  186.1300  178.1150  140.8170 C   0  0  0  0  0  0  0  0  0  0  0  0
  186.4490  178.0990  139.4900 C   0  0  0  0  0  0  0  0  0  0  0  0
  188.9630  178.4960  140.0580 C   0  0  0  0  0  2  0  0  0  0  0  0
  188.2490  176.4860  138.7350 C   0  0  1  0  0  3  0  0  0  0  0  0
  184.7370  178.1120  141.3270 C   0  0  0  0  0  3  0  0  0  0  0  0
  188.4500  178.0020  143.6480 C   0  0  0  0  0  0  0  0  0  0  0  0
  187.9100  177.9130  139.1100 C   0  0  2  0  0  0  0  0  0  0  0  0
  185.4560  178.1680  138.3850 C   0  0  0  0  0  3  0  0  0  0  0  0
  183.8600  179.6160  139.5840 C   0  0  2  0  0  3  0  0  0  0  0  0
  189.3170  178.2130  142.5920 C   0  0  0  0  0  0  0  0  0  0  0  0
  188.0560  176.1740  137.2740 C   0  0  2  0  0  0  0  0  0  0  0  0
  182.4810  178.6060  141.3770 F   0  0  0  0  0  0  0  0  0  0  0  0
  190.7980  178.3770  142.6460 C   0  0  0  0  0  1  0  0  0  0  0  0
  188.5160  178.2470  141.4610 C   0  0  0  0  0  0  0  0  0  0  0  0
  189.9700  177.9500  145.5840 N   0  0  0  0  0  1  0  0  0  0  0  0
  187.5810  177.6700  145.8290 N   0  0  0  0  0  0  0  0  0  0  0  0
  188.6630  177.8740  145.0220 C   0  0  0  0  0  0  0  0  0  0  0  0
  189.2230  175.6970  136.4340 C   0  0  0  0  0  2  0  0  0  0  0  0
  183.6940  178.7350  140.7810 C   0  0  0  0  0  0  0  0  0  0  0  0
  182.5920  180.4050  139.2920 C   0  0  0  0  0  1  0  0  0  0  0  0
  190.1140  176.9090  136.2290 C   0  0  0  0  0  2  0  0  0  0  0  0
  186.7040  175.9000  136.8220 N   0  0  0  0  0  1  0  0  0  0  0  0
  2  1  1  6  0  0  0
  2 12  1  0  0  0  0
  2 15  1  0  0  0  0
  3 14  2  0  0  0  0
  3  5  1  0  0  0  0
  4 17  1  0  0  0  0
  5  6  2  0  0  0  0
  6 24  1  0  0  0  0
  7  4  1  0  0  0  0
  8  3  1  0  0  0  0
  9 13  1  0  0  0  0
  9  8  1  0  0  0  0
 10  9  2  0  0  0  0
 11 22  1  0  0  0  0
 12 15  1  0  0  0  0
 14 25  1  0  0  0  0
 15 10  1  0  0  0  0
 15 11  1  0  0  0  0
 16  4  2  0  0  0  0
 16 10  1  0  0  0  0
 17 27  1  0  0  0  0
 18 21  1  0  0  0  0
 18 14  1  0  0  0  0
 19  2  1  0  0  0  0
 19 12  1  0  0  0  0
 22  8  1  0  0  0  0
 22 18  2  0  0  0  0
 25 23  1  0  0  0  0
 25 24  2  0  0  0  0
 26 19  1  0  0  0  0
 27 13  2  0  0  0  0
 27 20  1  0  0  0  0
 28 17  1  0  0  0  0
 29 26  1  0  0  0  0
 29  1  1  0  0  0  0
 30 19  1  0  0  0  0
M  END
>  <MODEL>
7

>  <REMARK>
 VINA RESULT:      -6.9      2.299      6.288
  Name = 
  0 active torsions:
  status: ('A' for Active; 'I' for Inactive)
                            x       y       z     vdW  Elec       q    Type
                         _______ _______ _______ _____ _____    ______ ____

>  <TORSDO>
F 0

$$$$
=
 OpenBabel10232408213D

 30 36  0  0  1  0  0  0  0  0999 V2000
  193.5300  176.1400  137.9280 C   0  0  0  0  0  2  0  0  0  0  0  0
  192.0600  176.0600  137.5460 C   0  0  1  0  0  0  0  0  0  0  0  0
  188.5640  177.5740  141.6240 C   0  0  0  0  0  0  0  0  0  0  0  0
  188.4930  177.7640  136.0210 C   0  0  0  0  0  0  0  0  0  0  0  0
  187.1810  177.6450  141.7970 C   0  0  0  0  0  3  0  0  0  0  0  0
  186.7010  177.7740  143.1100 C   0  0  0  0  0  3  0  0  0  0  0  0
  188.3370  177.5560  134.6890 F   0  0  0  0  0  0  0  0  0  0  0  0
  189.2610  177.4490  140.4700 N   0  0  0  0  0  0  0  0  0  0  0  0
  188.8000  177.3990  139.0980 C   0  0  0  0  0  0  0  0  0  0  0  0
  189.7050  177.0860  138.1250 C   0  0  0  0  0  0  0  0  0  0  0  0
  191.6660  177.3380  139.8270 C   0  0  0  0  0  2  0  0  0  0  0  0
  191.3130  175.1840  138.5880 C   0  0  1  0  0  3  0  0  0  0  0  0
  187.3590  177.6360  138.8340 C   0  0  0  0  0  3  0  0  0  0  0  0
  189.4180  177.6270  142.7000 C   0  0  0  0  0  0  0  0  0  0  0  0
  191.1070  176.6850  138.5590 C   0  0  2  0  0  0  0  0  0  0  0  0
  189.3940  177.0300  136.6730 C   0  0  0  0  0  3  0  0  0  0  0  0
  187.7190  178.8390  136.7140 C   0  0  2  0  0  3  0  0  0  0  0  0
  190.7060  177.5350  142.2080 C   0  0  0  0  0  0  0  0  0  0  0  0
  191.7880  174.6070  137.2800 C   0  0  2  0  0  0  0  0  0  0  0  0
  185.4910  178.3500  137.6800 F   0  0  0  0  0  0  0  0  0  0  0  0
  191.9820  177.5600  142.9780 C   0  0  0  0  0  1  0  0  0  0  0  0
  190.5660  177.4210  140.8320 C   0  0  0  0  0  0  0  0  0  0  0  0
  189.7870  177.8150  145.1270 N   0  0  0  0  0  1  0  0  0  0  0  0
  187.5680  177.8270  144.1690 N   0  0  0  0  0  0  0  0  0  0  0  0
  188.9200  177.7570  143.9990 C   0  0  0  0  0  0  0  0  0  0  0  0
  193.1030  173.8580  137.2080 C   0  0  0  0  0  2  0  0  0  0  0  0
  186.8410  178.2370  137.7640 C   0  0  0  0  0  0  0  0  0  0  0  0
  186.9160  179.6750  135.7280 C   0  0  0  0  0  1  0  0  0  0  0  0
  194.1900  174.9110  137.3300 C   0  0  0  0  0  2  0  0  0  0  0  0
  190.7920  174.3820  136.2470 N   0  0  0  0  0  1  0  0  0  0  0  0
  2  1  1  1  0  0  0
  2 15  1  0  0  0  0
  2 12  1  0  0  0  0
  3  5  2  0  0  0  0
  3 14  1  0  0  0  0
  4 16  2  0  0  0  0
  4 17  1  0  0  0  0
  5  6  1  0  0  0  0
  6 24  2  0  0  0  0
  7  4  1  0  0  0  0
  8 22  1  0  0  0  0
  8  3  1  0  0  0  0
  9  8  1  0  0  0  0
 10 15  1  0  0  0  0
 10  9  2  0  0  0  0
 11 22  1  0  0  0  0
 13  9  1  0  0  0  0
 14 25  2  0  0  0  0
 15 12  1  0  0  0  0
 15 11  1  0  0  0  0
 16 10  1  0  0  0  0
 17 27  1  0  0  0  0
 18 14  1  0  0  0  0
 18 21  1  0  0  0  0
 19  2  1  0  0  0  0
 19 12  1  0  0  0  0
 20 27  1  0  0  0  0
 22 18  2  0  0  0  0
 25 24  1  0  0  0  0
 25 23  1  0  0  0  0
 26 19  1  0  0  0  0
 26 29  1  0  0  0  0
 27 13  2  0  0  0  0
 28 17  1  0  0  0  0
 29  1  1  0  0  0  0
 30 19  1  0  0  0  0
M  END
>  <MODEL>
8

>  <REMARK>
 VINA RESULT:      -6.6      3.013      7.461
  Name = 
  0 active torsions:
  status: ('A' for Active; 'I' for Inactive)
                            x       y       z     vdW  Elec       q    Type
                         _______ _______ _______ _____ _____    ______ ____

>  <TORSDO>
F 0

$$$$
=
 OpenBabel10232408213D

 30 36  0  0  1  0  0  0  0  0999 V2000
  184.6400  179.8810  143.3490 C   0  0  0  0  0  2  0  0  0  0  0  0
  185.8250  178.9980  143.7090 C   0  0  1  0  0  0  0  0  0  0  0  0
  188.6240  177.0360  139.2970 C   0  0  0  0  0  0  0  0  0  0  0  0
  189.9330  178.4210  144.5700 C   0  0  0  0  0  0  0  0  0  0  0  0
  189.7160  176.1940  139.0840 C   0  0  0  0  0  3  0  0  0  0  0  0
  189.9000  175.6920  137.7860 C   0  0  0  0  0  3  0  0  0  0  0  0
  190.2060  178.4740  145.8990 F   0  0  0  0  0  0  0  0  0  0  0  0
  188.2380  177.6390  140.4470 N   0  0  0  0  0  0  0  0  0  0  0  0
  188.8510  177.6310  141.7590 C   0  0  0  0  0  0  0  0  0  0  0  0
  188.1560  178.1790  142.7980 C   0  0  0  0  0  0  0  0  0  0  0  0
  186.4170  179.1910  141.1390 C   0  0  0  0  0  2  0  0  0  0  0  0
  185.6870  177.6390  142.9720 C   0  0  1  0  0  3  0  0  0  0  0  0
  190.1750  176.9770  141.9110 C   0  0  0  0  0  3  0  0  0  0  0  0
  187.7640  177.3570  138.2730 C   0  0  0  0  0  0  0  0  0  0  0  0
  186.7320  178.6450  142.5350 C   0  0  2  0  0  0  0  0  0  0  0  0
  188.6640  178.2770  144.1920 C   0  0  0  0  0  3  0  0  0  0  0  0
  191.0280  178.5910  143.5660 C   0  0  2  0  0  3  0  0  0  0  0  0
  186.8000  178.1990  138.7950 C   0  0  0  0  0  0  0  0  0  0  0  0
  185.2430  177.8000  144.4030 C   0  0  2  0  0  0  0  0  0  0  0  0
  192.2950  176.6230  142.7540 F   0  0  0  0  0  0  0  0  0  0  0  0
  185.6550  178.8310  138.0780 C   0  0  0  0  0  1  0  0  0  0  0  0
  187.1240  178.3420  140.1360 C   0  0  0  0  0  0  0  0  0  0  0  0
  187.0890  177.1700  135.9130 N   0  0  0  0  0  1  0  0  0  0  0  0
  189.0350  176.0250  136.7780 N   0  0  0  0  0  0  0  0  0  0  0  0
  187.9670  176.8490  136.9880 C   0  0  0  0  0  0  0  0  0  0  0  0
  183.7880  178.0680  144.7260 C   0  0  0  0  0  2  0  0  0  0  0  0
  191.1510  177.3530  142.7350 C   0  0  0  0  0  0  0  0  0  0  0  0
  192.3480  178.9480  144.2340 C   0  0  0  0  0  1  0  0  0  0  0  0
  183.5250  179.5030  144.3080 C   0  0  0  0  0  2  0  0  0  0  0  0
  186.1050  177.2520  145.4350 N   0  0  0  0  0  1  0  0  0  0  0  0
  1 29  1  0  0  0  0
  2  1  1  6  0  0  0
  2 19  1  0  0  0  0
  3  8  1  0  0  0  0
  4  7  1  0  0  0  0
  5  3  1  0  0  0  0
  6  5  2  0  0  0  0
  8  9  1  0  0  0  0
  9 13  1  0  0  0  0
  9 10  2  0  0  0  0
 10 16  1  0  0  0  0
 11 15  1  0  0  0  0
 12  2  1  0  0  0  0
 12 19  1  0  0  0  0
 13 27  2  0  0  0  0
 14 18  1  0  0  0  0
 14  3  2  0  0  0  0
 15 10  1  0  0  0  0
 15 12  1  0  0  0  0
 15  2  1  0  0  0  0
 16  4  2  0  0  0  0
 17 28  1  0  0  0  0
 17  4  1  0  0  0  0
 18 22  2  0  0  0  0
 19 26  1  0  0  0  0
 19 30  1  0  0  0  0
 21 18  1  0  0  0  0
 22  8  1  0  0  0  0
 22 11  1  0  0  0  0
 23 25  1  0  0  0  0
 24 25  2  0  0  0  0
 24  6  1  0  0  0  0
 25 14  1  0  0  0  0
 27 20  1  0  0  0  0
 27 17  1  0  0  0  0
 29 26  1  0  0  0  0
M  END
>  <MODEL>
9

>  <REMARK>
 VINA RESULT:      -6.4      3.070      5.238
  Name = 
  0 active torsions:
  status: ('A' for Active; 'I' for Inactive)
                            x       y       z     vdW  Elec       q    Type
                         _______ _______ _______ _____ _____    ______ ____

>  <TORSDO>
F 0

$$$$
