=
 OpenBabel10232411393D

 63 70  0  0  1  0  0  0  0  0999 V2000
  185.8970  175.4520  136.2260 C   0  0  1  0  0  3  0  0  0  0  0  0
  186.7280  178.2060  137.4980 C   0  0  0  0  0  2  0  0  0  0  0  0
  185.6290  177.5370  138.3100 C   0  0  0  0  0  2  0  0  0  0  0  0
  184.4780  177.1260  137.4360 C   0  0  0  0  0  0  0  0  0  0  0  0
  187.6440  177.1610  136.8700 C   0  0  1  0  0  3  0  0  0  0  0  0
  186.9700  176.4160  135.7200 C   0  0  0  0  0  2  0  0  0  0  0  0
  184.6100  176.1700  136.5110 C   0  0  0  0  0  3  0  0  0  0  0  0
  184.5360  174.5140  134.4780 O   0  0  0  0  0  1  0  0  0  0  0  0
  185.6790  174.2870  135.2490 C   0  0  2  0  0  3  0  0  0  0  0  0
  186.7930  172.3440  136.2370 C   0  0  0  0  0  2  0  0  0  0  0  0
  185.6400  172.9240  135.9120 C   0  0  0  0  0  0  0  0  0  0  0  0
  184.1490  171.7090  137.3190 O   0  0  0  0  0  1  0  0  0  0  0  0
  184.3900  172.0980  136.0010 C   0  0  1  0  0  3  0  0  0  0  0  0
  183.2490  172.8380  135.4800 N   0  0  0  0  0  2  0  0  0  0  0  0
  181.7360  174.4140  136.7810 C   0  0  0  0  0  2  0  0  0  0  0  0
  179.9880  172.0140  137.2320 C   0  0  0  0  0  2  0  0  0  0  0  0
  180.3200  174.5700  137.3070 C   0  0  0  0  0  2  0  0  0  0  0  0
  181.2950  171.9680  136.4960 C   0  0  0  0  0  3  0  0  0  0  0  0
  179.9890  173.2800  138.5340 S   0  0  0  0  0  0  0  0  0  0  0  0
  182.0450  173.0410  136.2240 C   0  0  0  0  0  0  0  0  0  0  0  0
  188.9560  177.7900  136.4130 C   0  0  0  0  0  2  0  0  0  0  0  0
  189.4540  177.2090  135.0980 C   0  0  0  0  0  2  0  0  0  0  0  0
  190.8700  176.7620  135.2630 C   0  0  0  0  0  3  0  0  0  0  0  0
  191.2210  175.4900  135.5190 C   0  0  0  0  0  0  0  0  0  0  0  0
  190.7980  173.2220  136.4350 C   0  0  0  0  0  2  0  0  0  0  0  0
  189.9190  174.1830  137.1980 C   0  0  0  0  0  2  0  0  0  0  0  0
  190.1830  174.4130  135.7190 C   0  0  0  0  0  3  0  0  0  0  0  0
  192.6720  175.1550  135.7580 C   0  0  2  0  0  3  0  0  0  0  0  0
  192.9750  176.6910  137.7160 O   0  0  0  0  0  0  0  0  0  0  0  0
  193.0750  175.4150  137.1760 C   0  0  0  0  0  0  0  0  0  0  0  0
  193.4850  174.4640  137.8910 O   0  0  0  0  0  1  0  0  0  0  0  0
  193.7620  176.0110  134.5720 S   0  0  0  0  0  0  0  0  0  0  0  0
  195.2760  175.5720  135.4760 C   0  0  0  0  0  2  0  0  0  0  0  0
  196.3450  175.4560  134.5800 O   0  0  0  0  0  0  0  0  0  0  0  0
  198.0940  173.7190  134.9810 C   0  0  0  0  0  2  0  0  0  0  0  0
  198.7530  175.0290  134.5540 C   0  0  2  0  0  3  0  0  0  0  0  0
  197.5440  175.4780  136.6590 O   0  0  0  0  0  1  0  0  0  0  0  0
  199.8400  175.2960  135.3900 O   0  0  0  0  0  1  0  0  0  0  0  0
  197.4510  175.0400  135.3340 C   0  0  1  0  0  0  0  0  0  0  0  0
  183.2330  177.7420  137.5730 O   0  0  0  0  0  0  0  0  0  0  0  0
  182.3580  177.4520  138.6560 C   0  0  0  0  0  2  0  0  0  0  0  0
  181.5870  178.6990  139.0430 C   0  0  0  0  0  2  0  0  0  0  0  0
  183.2420  178.8750  142.9950 C   0  0  0  0  0  0  0  0  0  0  0  0
  183.8460  178.5600  144.1420 C   0  0  0  0  0  2  0  0  0  0  0  0
  181.0730  179.0960  141.5880 C   0  0  0  0  0  3  0  0  0  0  0  0
  185.4200  178.5060  141.7250 C   0  0  0  0  0  3  0  0  0  0  0  0
  184.0420  179.0020  141.7670 C   0  0  0  0  0  0  0  0  0  0  0  0
  183.2490  179.0990  140.7630 C   0  0  0  0  0  3  0  0  0  0  0  0
  186.0270  178.2170  142.8820 C   0  0  0  0  0  3  0  0  0  0  0  0
  181.7920  178.9540  142.8930 N   0  0  0  0  0  0  0  0  0  0  0  0
  185.3550  178.4500  144.2250 C   0  0  2  0  0  3  0  0  0  0  0  0
  182.0170  179.1740  140.3880 C   0  0  0  0  0  0  0  0  0  0  0  0
  185.7180  177.3850  145.1470 N   0  0  0  0  0  2  0  0  0  0  0  0
  186.1660  179.3930  146.2440 O   0  0  0  0  0  1  0  0  0  0  0  0
  186.2040  178.0040  146.3730 C   0  0  2  0  0  3  0  0  0  0  0  0
  187.6240  177.5440  146.6970 C   0  0  0  0  0  2  0  0  0  0  0  0
  188.5420  177.6310  145.4860 C   0  0  1  0  0  3  0  0  0  0  0  0
  191.3560  177.5830  145.2860 C   0  0  0  0  0  2  0  0  0  0  0  0
  190.4850  176.5580  144.6930 C   0  0  1  0  0  3  0  0  0  0  0  0
  189.4180  178.6830  145.6380 O   0  0  0  0  0  0  0  0  0  0  0  0
  189.9680  177.3990  145.9080 C   0  0  1  0  0  0  0  0  0  0  0  0
  190.1460  177.0420  143.2790 C   0  0  0  0  0  2  0  0  0  0  0  0
  191.3920  177.0050  142.4180 C   0  0  0  0  0  1  0  0  0  0  0  0
  1  9  1  6  0  0  0
  1  7  1  0  0  0  0
  2  3  1  0  0  0  0
  4 40  1  0  0  0  0
  4  3  1  0  0  0  0
  5 21  1  6  0  0  0
  5  2  1  0  0  0  0
  6  1  1  0  0  0  0
  6  5  1  0  0  0  0
  7  4  2  0  0  0  0
  9  8  1  1  0  0  0
  9 11  1  0  0  0  0
 11 13  1  0  0  0  0
 11 10  2  0  0  0  0
 13 12  1  1  0  0  0
 14 13  1  0  0  0  0
 14 20  1  0  0  0  0
 15 17  1  0  0  0  0
 16 19  1  0  0  0  0
 17 19  1  0  0  0  0
 18 16  1  0  0  0  0
 20 18  2  0  0  0  0
 20 15  1  0  0  0  0
 22 23  1  0  0  0  0
 22 21  1  0  0  0  0
 23 24  2  0  0  0  0
 24 27  1  0  0  0  0
 24 28  1  0  0  0  0
 25 26  1  0  0  0  0
 27 25  1  0  0  0  0
 27 26  1  0  0  0  0
 28 32  1  6  0  0  0
 28 30  1  0  0  0  0
 30 29  2  0  0  0  0
 30 31  1  0  0  0  0
 32 33  1  0  0  0  0
 34 39  1  0  0  0  0
 34 33  1  0  0  0  0
 35 39  1  0  0  0  0
 36 35  1  0  0  0  0
 36 39  1  0  0  0  0
 36 38  1  1  0  0  0
 39 37  1  1  0  0  0
 40 41  1  0  0  0  0
 41 42  1  0  0  0  0
 42 52  1  0  0  0  0
 43 44  1  0  0  0  0
 44 51  1  0  0  0  0
 45 50  2  0  0  0  0
 46 47  1  0  0  0  0
 46 49  2  0  0  0  0
 47 43  2  0  0  0  0
 48 47  1  0  0  0  0
 49 51  1  0  0  0  0
 50 43  1  0  0  0  0
 51 53  1  1  0  0  0
 52 48  2  0  0  0  0
 52 45  1  0  0  0  0
 53 55  1  0  0  0  0
 55 54  1  6  0  0  0
 55 56  1  0  0  0  0
 57 60  1  0  0  0  0
 57 61  1  0  0  0  0
 57 56  1  1  0  0  0
 59 62  1  6  0  0  0
 59 58  1  0  0  0  0
 59 61  1  0  0  0  0
 60 61  1  0  0  0  0
 61 58  1  1  0  0  0
 63 62  1  0  0  0  0
M  END
>  <MODEL>
1

>  <REMARK>
 VINA RESULT:      -6.4      0.000      0.000
  Name = 
  24 active torsions:
  status: ('A' for Active; 'I' for Inactive)
    1  A    between atoms: C_1  and  C_49
    2  A    between atoms: C_3  and  C_52
    3  A    between atoms: C_5  and  C_10
    4  A    between atoms: C_5  and  C_26
    5  A    between atoms: C_6  and  O_28
    6  A    between atoms: C_6  and  S_29
    7  A    between atoms: O_8  and  C_21
    8  A    between atoms: O_8  and  C_61
    9  A    between atoms: N_13  and  C_26
   10  A    between atoms: N_13  and  C_58
   11  A    between atoms: C_17  and  C_22
   12  A    between atoms: C_17  and  C_42
   13  A    between atoms: C_18  and  C_43
   14  A    between atoms: O_28  and  C_45
   15  A    between atoms: S_29  and  C_52
   16  A    between atoms: C_30  and  C_59
   17  A    between atoms: C_30  and  C_61
   18  A    between atoms: N_34  and  C_60
   19  A    between atoms: N_34  and  C_63
   20  A    between atoms: C_37  and  C_53
   21  A    between atoms: C_40  and  C_49
   22  A    between atoms: C_40  and  C_60
   23  A    between atoms: C_42  and  C_44
   24  A    between atoms: C_52  and  C_53
                            x       y       z     vdW  Elec       q    Type
                         _______ _______ _______ _____ _____    ______ ____

>  <TORSDO>
F 24

$$$$
=
 OpenBabel10232411393D

 63 70  0  0  1  0  0  0  0  0999 V2000
  190.8950  176.3590  137.5000 C   0  0  1  0  0  3  0  0  0  0  0  0
  192.2470  174.4860  135.3650 C   0  0  0  0  0  2  0  0  0  0  0  0
  190.7400  174.5440  135.1660 C   0  0  0  0  0  2  0  0  0  0  0  0
  190.0080  174.2640  136.4490 C   0  0  0  0  0  0  0  0  0  0  0  0
  192.7710  175.8160  135.8960 C   0  0  1  0  0  3  0  0  0  0  0  0
  192.3850  176.0500  137.3540 C   0  0  0  0  0  2  0  0  0  0  0  0
  190.0740  175.1010  137.4880 C   0  0  0  0  0  3  0  0  0  0  0  0
  191.1600  176.5730  139.8810 O   0  0  0  0  0  1  0  0  0  0  0  0
  190.6110  177.1950  138.7570 C   0  0  2  0  0  3  0  0  0  0  0  0
  188.3150  177.3880  137.9320 C   0  0  0  0  0  2  0  0  0  0  0  0
  189.1460  177.5230  138.9620 C   0  0  0  0  0  0  0  0  0  0  0  0
  187.4560  178.9120  139.9080 O   0  0  0  0  0  1  0  0  0  0  0  0
  188.6330  178.2170  140.1910 C   0  0  1  0  0  3  0  0  0  0  0  0
  188.4040  177.2590  141.2630 N   0  0  0  0  0  2  0  0  0  0  0  0
  190.1490  178.1730  142.8710 C   0  0  0  0  0  2  0  0  0  0  0  0
  188.3770  177.1160  145.0520 C   0  0  0  0  0  2  0  0  0  0  0  0
  190.3600  178.5890  144.3170 C   0  0  0  0  0  2  0  0  0  0  0  0
  188.0890  176.9480  143.5890 C   0  0  0  0  0  3  0  0  0  0  0  0
  190.1600  177.1470  145.3930 S   0  0  0  0  0  0  0  0  0  0  0  0
  188.8300  177.4780  142.6100 C   0  0  0  0  0  0  0  0  0  0  0  0
  194.2810  175.9210  135.7110 C   0  0  0  0  0  2  0  0  0  0  0  0
  194.8960  174.6300  135.1910 C   0  0  0  0  0  2  0  0  0  0  0  0
  195.8540  174.0980  136.2060 C   0  0  0  0  0  3  0  0  0  0  0  0
  197.1700  173.9500  135.9780 C   0  0  0  0  0  0  0  0  0  0  0  0
  197.6720  175.7530  134.3480 C   0  0  0  0  0  2  0  0  0  0  0  0
  198.9920  175.1610  134.7790 C   0  0  0  0  0  2  0  0  0  0  0  0
  197.7740  174.2640  134.6310 C   0  0  0  0  0  3  0  0  0  0  0  0
  198.0400  173.3200  137.0360 C   0  0  2  0  0  3  0  0  0  0  0  0
  198.1310  175.6060  138.0600 O   0  0  0  0  0  0  0  0  0  0  0  0
  198.7030  174.3500  137.8960 C   0  0  0  0  0  0  0  0  0  0  0  0
  199.7730  174.0670  138.4950 O   0  0  0  0  0  1  0  0  0  0  0  0
  199.2460  172.1610  136.3080 S   0  0  0  0  0  0  0  0  0  0  0  0
  198.4550  170.7000  137.0440 C   0  0  0  0  0  2  0  0  0  0  0  0
  197.1140  170.9790  137.3260 O   0  0  0  0  0  0  0  0  0  0  0  0
  196.9940  168.5280  136.8630 C   0  0  0  0  0  2  0  0  0  0  0  0
  197.4110  168.7610  138.3140 C   0  0  2  0  0  3  0  0  0  0  0  0
  195.1710  169.7600  138.0330 O   0  0  0  0  0  1  0  0  0  0  0  0
  196.6770  167.9160  139.1500 O   0  0  0  0  0  1  0  0  0  0  0  0
  196.5030  169.7490  137.6050 C   0  0  1  0  0  0  0  0  0  0  0  0
  189.2380  173.1070  136.5820 O   0  0  0  0  0  0  0  0  0  0  0  0
  188.4070  172.6250  135.5350 C   0  0  0  0  0  2  0  0  0  0  0  0
  187.7540  173.7920  134.8180 C   0  0  0  0  0  2  0  0  0  0  0  0
  184.1100  174.3840  137.0000 C   0  0  0  0  0  0  0  0  0  0  0  0
  183.2280  174.6590  137.9620 C   0  0  0  0  0  2  0  0  0  0  0  0
  185.5560  172.6620  135.7050 C   0  0  0  0  0  3  0  0  0  0  0  0
  184.9330  176.7960  137.0410 C   0  0  0  0  0  3  0  0  0  0  0  0
  184.8930  175.4770  136.4030 C   0  0  0  0  0  0  0  0  0  0  0  0
  185.8130  174.9730  135.6630 C   0  0  0  0  0  3  0  0  0  0  0  0
  184.0290  177.0710  137.9860 C   0  0  0  0  0  3  0  0  0  0  0  0
  184.4290  173.0150  136.6240 N   0  0  0  0  0  0  0  0  0  0  0  0
  182.9320  176.0890  138.3650 C   0  0  2  0  0  3  0  0  0  0  0  0
  186.3140  173.8840  135.1890 C   0  0  0  0  0  0  0  0  0  0  0  0
  182.6870  176.1540  139.7960 N   0  0  0  0  0  2  0  0  0  0  0  0
  181.0570  177.5480  138.8820 O   0  0  0  0  0  1  0  0  0  0  0  0
  181.7780  177.2660  140.0430 C   0  0  2  0  0  3  0  0  0  0  0  0
  182.5400  178.5070  140.5050 C   0  0  0  0  0  2  0  0  0  0  0  0
  183.2680  178.2730  141.8210 C   0  0  1  0  0  3  0  0  0  0  0  0
  185.5760  179.4820  142.9020 C   0  0  0  0  0  2  0  0  0  0  0  0
  184.2470  179.5750  143.5240 C   0  0  1  0  0  3  0  0  0  0  0  0
  184.5840  177.9500  141.5760 O   0  0  0  0  0  0  0  0  0  0  0  0
  184.3610  179.2940  141.9880 C   0  0  1  0  0  0  0  0  0  0  0  0
  184.1280  178.3790  144.4740 C   0  0  0  0  0  2  0  0  0  0  0  0
  184.8240  178.6980  145.7820 C   0  0  0  0  0  1  0  0  0  0  0  0
  1  9  1  1  0  0  0
  2  5  1  0  0  0  0
  3  2  1  0  0  0  0
  3  4  1  0  0  0  0
  4 40  1  0  0  0  0
  4  7  2  0  0  0  0
  5 21  1  1  0  0  0
  5  6  1  0  0  0  0
  6  1  1  0  0  0  0
  7  1  1  0  0  0  0
  9 11  1  0  0  0  0
  9  8  1  1  0  0  0
 10 11  2  0  0  0  0
 11 13  1  0  0  0  0
 13 12  1  6  0  0  0
 13 14  1  0  0  0  0
 14 20  1  0  0  0  0
 15 17  1  0  0  0  0
 16 19  1  0  0  0  0
 17 19  1  0  0  0  0
 18 16  1  0  0  0  0
 20 15  1  0  0  0  0
 20 18  2  0  0  0  0
 22 21  1  0  0  0  0
 22 23  1  0  0  0  0
 24 23  2  0  0  0  0
 25 27  1  0  0  0  0
 25 26  1  0  0  0  0
 27 26  1  0  0  0  0
 27 24  1  0  0  0  0
 28 24  1  6  0  0  0
 28 30  1  0  0  0  0
 30 29  2  0  0  0  0
 30 31  1  0  0  0  0
 32 28  1  0  0  0  0
 32 33  1  0  0  0  0
 33 34  1  0  0  0  0
 34 39  1  0  0  0  0
 35 39  1  0  0  0  0
 35 36  1  0  0  0  0
 36 38  1  1  0  0  0
 39 37  1  1  0  0  0
 39 36  1  0  0  0  0
 41 40  1  0  0  0  0
 42 52  1  0  0  0  0
 42 41  1  0  0  0  0
 43 44  1  0  0  0  0
 44 51  1  0  0  0  0
 45 50  2  0  0  0  0
 46 49  2  0  0  0  0
 47 43  2  0  0  0  0
 47 46  1  0  0  0  0
 48 47  1  0  0  0  0
 49 51  1  0  0  0  0
 50 43  1  0  0  0  0
 51 53  1  1  0  0  0
 52 48  2  0  0  0  0
 52 45  1  0  0  0  0
 53 55  1  0  0  0  0
 55 54  1  6  0  0  0
 55 56  1  0  0  0  0
 57 56  1  6  0  0  0
 57 61  1  0  0  0  0
 58 59  1  0  0  0  0
 59 62  1  1  0  0  0
 60 57  1  0  0  0  0
 60 61  1  0  0  0  0
 61 58  1  6  0  0  0
 61 59  1  0  0  0  0
 62 63  1  0  0  0  0
M  END
>  <MODEL>
2

>  <REMARK>
 VINA RESULT:      -6.2      3.143      7.637
  Name = 
  24 active torsions:
  status: ('A' for Active; 'I' for Inactive)
    1  A    between atoms: C_1  and  C_49
    2  A    between atoms: C_3  and  C_52
    3  A    between atoms: C_5  and  C_10
    4  A    between atoms: C_5  and  C_26
    5  A    between atoms: C_6  and  O_28
    6  A    between atoms: C_6  and  S_29
    7  A    between atoms: O_8  and  C_21
    8  A    between atoms: O_8  and  C_61
    9  A    between atoms: N_13  and  C_26
   10  A    between atoms: N_13  and  C_58
   11  A    between atoms: C_17  and  C_22
   12  A    between atoms: C_17  and  C_42
   13  A    between atoms: C_18  and  C_43
   14  A    between atoms: O_28  and  C_45
   15  A    between atoms: S_29  and  C_52
   16  A    between atoms: C_30  and  C_59
   17  A    between atoms: C_30  and  C_61
   18  A    between atoms: N_34  and  C_60
   19  A    between atoms: N_34  and  C_63
   20  A    between atoms: C_37  and  C_53
   21  A    between atoms: C_40  and  C_49
   22  A    between atoms: C_40  and  C_60
   23  A    between atoms: C_42  and  C_44
   24  A    between atoms: C_52  and  C_53
                            x       y       z     vdW  Elec       q    Type
                         _______ _______ _______ _____ _____    ______ ____

>  <TORSDO>
F 24

$$$$
=
 OpenBabel10232411393D

 63 70  0  0  1  0  0  0  0  0999 V2000
  187.3720  178.1610  142.3420 C   0  0  1  0  0  3  0  0  0  0  0  0
  189.2320  177.1990  139.9940 C   0  0  0  0  0  2  0  0  0  0  0  0
  188.5690  178.5270  139.6590 C   0  0  0  0  0  2  0  0  0  0  0  0
  187.0820  178.4640  139.8710 C   0  0  0  0  0  0  0  0  0  0  0  0
  189.5000  177.0950  141.4920 C   0  0  1  0  0  3  0  0  0  0  0  0
  188.2200  176.8890  142.2970 C   0  0  0  0  0  2  0  0  0  0  0  0
  186.5560  178.3160  141.0910 C   0  0  0  0  0  3  0  0  0  0  0  0
  186.2320  176.9060  144.0480 O   0  0  0  0  0  1  0  0  0  0  0  0
  186.4830  178.2030  143.5930 C   0  0  2  0  0  3  0  0  0  0  0  0
  185.2060  180.2890  143.6800 C   0  0  0  0  0  2  0  0  0  0  0  0
  185.1980  178.9860  143.4110 C   0  0  0  0  0  0  0  0  0  0  0  0
  183.0930  178.3610  144.3380 O   0  0  0  0  0  1  0  0  0  0  0  0
  183.8700  178.3270  143.1780 C   0  0  1  0  0  3  0  0  0  0  0  0
  183.1620  178.9730  142.0820 N   0  0  0  0  0  2  0  0  0  0  0  0
  181.0980  178.5210  140.6660 C   0  0  0  0  0  2  0  0  0  0  0  0
  182.7640  176.4330  139.2940 C   0  0  0  0  0  2  0  0  0  0  0  0
  180.6430  177.8970  139.3580 C   0  0  0  0  0  2  0  0  0  0  0  0
  183.2500  177.2630  140.4460 C   0  0  0  0  0  3  0  0  0  0  0  0
  180.9790  176.1180  139.3920 S   0  0  0  0  0  0  0  0  0  0  0  0
  182.5450  178.2470  141.0160 C   0  0  0  0  0  0  0  0  0  0  0  0
  190.5110  175.9930  141.7900 C   0  0  0  0  0  2  0  0  0  0  0  0
  191.7550  176.5160  142.4920 C   0  0  0  0  0  2  0  0  0  0  0  0
  191.6000  176.3350  143.9670 C   0  0  0  0  0  3  0  0  0  0  0  0
  191.0550  177.2600  144.7740 C   0  0  0  0  0  0  0  0  0  0  0  0
  191.0540  179.7090  145.1810 C   0  0  0  0  0  2  0  0  0  0  0  0
  191.8000  179.4710  143.8900 C   0  0  0  0  0  2  0  0  0  0  0  0
  190.6050  178.5990  144.2440 C   0  0  0  0  0  3  0  0  0  0  0  0
  191.0250  177.0200  146.2630 C   0  0  2  0  0  3  0  0  0  0  0  0
  192.7810  176.2260  147.8650 O   0  0  0  0  0  1  0  0  0  0  0  0
  192.0690  176.0350  146.6870 C   0  0  0  0  0  0  0  0  0  0  0  0
  192.2860  175.0140  145.9830 O   0  0  0  0  0  0  0  0  0  0  0  0
  189.3600  176.5370  146.8300 S   0  0  0  0  0  0  0  0  0  0  0  0
  189.3160  177.8000  148.1360 C   0  0  0  0  0  2  0  0  0  0  0  0
  188.5940  178.9140  147.6940 O   0  0  0  0  0  0  0  0  0  0  0  0
  186.2980  179.8580  147.9630 C   0  0  0  0  0  2  0  0  0  0  0  0
  186.2820  178.7460  146.9160 C   0  0  2  0  0  3  0  0  0  0  0  0
  187.0050  177.7280  149.0450 O   0  0  0  0  0  1  0  0  0  0  0  0
  185.1910  177.9040  147.1490 O   0  0  0  0  0  1  0  0  0  0  0  0
  187.2630  178.7000  148.0730 C   0  0  1  0  0  0  0  0  0  0  0  0
  186.2110  178.5590  138.7840 O   0  0  0  0  0  0  0  0  0  0  0  0
  186.6250  178.2790  137.4540 C   0  0  0  0  0  2  0  0  0  0  0  0
  186.5380  176.7880  137.1900 C   0  0  0  0  0  2  0  0  0  0  0  0
  190.2640  175.8870  135.2680 C   0  0  0  0  0  0  0  0  0  0  0  0
  191.5620  175.7090  135.0190 C   0  0  0  0  0  2  0  0  0  0  0  0
  188.1540  177.3960  135.2120 C   0  0  0  0  0  3  0  0  0  0  0  0
  190.3310  174.0480  137.0310 C   0  0  0  0  0  3  0  0  0  0  0  0
  189.5690  174.9640  136.1780 C   0  0  0  0  0  0  0  0  0  0  0  0
  188.4030  175.4340  136.4370 C   0  0  0  0  0  3  0  0  0  0  0  0
  191.6270  173.8560  136.7580 C   0  0  0  0  0  3  0  0  0  0  0  0
  189.5460  177.0560  134.7810 N   0  0  0  0  0  0  0  0  0  0  0  0
  192.3030  174.5030  135.5610 C   0  0  2  0  0  3  0  0  0  0  0  0
  187.5630  176.3810  136.1890 C   0  0  0  0  0  0  0  0  0  0  0  0
  193.6630  174.8810  135.9100 N   0  0  0  0  0  2  0  0  0  0  0  0
  193.8120  176.6880  137.3750 O   0  0  0  0  0  1  0  0  0  0  0  0
  193.6640  175.3030  137.3050 C   0  0  2  0  0  3  0  0  0  0  0  0
  194.7810  174.6140  138.0870 C   0  0  0  0  0  2  0  0  0  0  0  0
  195.9830  174.2970  137.2080 C   0  0  1  0  0  3  0  0  0  0  0  0
  198.7400  174.2100  137.7980 C   0  0  0  0  0  2  0  0  0  0  0  0
  197.9690  173.0380  137.3610 C   0  0  1  0  0  3  0  0  0  0  0  0
  196.8740  175.3470  137.2370 O   0  0  0  0  0  0  0  0  0  0  0  0
  197.2290  174.2330  138.0490 C   0  0  1  0  0  0  0  0  0  0  0  0
  198.0440  173.0140  135.8310 C   0  0  0  0  0  2  0  0  0  0  0  0
  197.5770  171.6670  135.3200 C   0  0  0  0  0  1  0  0  0  0  0  0
  1  9  1  1  0  0  0
  2  5  1  0  0  0  0
  3  4  1  0  0  0  0
  3  2  1  0  0  0  0
  4  7  2  0  0  0  0
  5 21  1  6  0  0  0
  5  6  1  0  0  0  0
  6  1  1  0  0  0  0
  7  1  1  0  0  0  0
  9  8  1  6  0  0  0
 11  9  1  0  0  0  0
 11 10  2  0  0  0  0
 13 11  1  0  0  0  0
 13 12  1  1  0  0  0
 14 13  1  0  0  0  0
 15 20  1  0  0  0  0
 16 19  1  0  0  0  0
 16 18  1  0  0  0  0
 17 19  1  0  0  0  0
 17 15  1  0  0  0  0
 18 20  2  0  0  0  0
 20 14  1  0  0  0  0
 21 22  1  0  0  0  0
 22 23  1  0  0  0  0
 23 24  2  0  0  0  0
 26 27  1  0  0  0  0
 26 25  1  0  0  0  0
 27 24  1  0  0  0  0
 27 25  1  0  0  0  0
 28 24  1  6  0  0  0
 28 30  1  0  0  0  0
 28 32  1  0  0  0  0
 30 29  1  0  0  0  0
 31 30  2  0  0  0  0
 32 33  1  0  0  0  0
 34 39  1  0  0  0  0
 34 33  1  0  0  0  0
 35 39  1  0  0  0  0
 36 38  1  1  0  0  0
 36 35  1  0  0  0  0
 36 39  1  0  0  0  0
 39 37  1  1  0  0  0
 40  4  1  0  0  0  0
 41 40  1  0  0  0  0
 42 41  1  0  0  0  0
 43 47  1  0  0  0  0
 44 43  1  0  0  0  0
 44 51  1  0  0  0  0
 45 52  2  0  0  0  0
 47 48  2  0  0  0  0
 47 46  1  0  0  0  0
 49 46  2  0  0  0  0
 50 45  1  0  0  0  0
 50 43  2  0  0  0  0
 51 53  1  1  0  0  0
 51 49  1  0  0  0  0
 52 48  1  0  0  0  0
 52 42  1  0  0  0  0
 53 55  1  0  0  0  0
 55 54  1  6  0  0  0
 55 56  1  0  0  0  0
 57 60  1  0  0  0  0
 57 61  1  0  0  0  0
 57 56  1  1  0  0  0
 59 62  1  6  0  0  0
 59 58  1  0  0  0  0
 59 61  1  0  0  0  0
 60 61  1  0  0  0  0
 61 58  1  1  0  0  0
 63 62  1  0  0  0  0
M  END
>  <MODEL>
3

>  <REMARK>
 VINA RESULT:      -6.1      3.188     10.286
  Name = 
  24 active torsions:
  status: ('A' for Active; 'I' for Inactive)
    1  A    between atoms: C_1  and  C_49
    2  A    between atoms: C_3  and  C_52
    3  A    between atoms: C_5  and  C_10
    4  A    between atoms: C_5  and  C_26
    5  A    between atoms: C_6  and  O_28
    6  A    between atoms: C_6  and  S_29
    7  A    between atoms: O_8  and  C_21
    8  A    between atoms: O_8  and  C_61
    9  A    between atoms: N_13  and  C_26
   10  A    between atoms: N_13  and  C_58
   11  A    between atoms: C_17  and  C_22
   12  A    between atoms: C_17  and  C_42
   13  A    between atoms: C_18  and  C_43
   14  A    between atoms: O_28  and  C_45
   15  A    between atoms: S_29  and  C_52
   16  A    between atoms: C_30  and  C_59
   17  A    between atoms: C_30  and  C_61
   18  A    between atoms: N_34  and  C_60
   19  A    between atoms: N_34  and  C_63
   20  A    between atoms: C_37  and  C_53
   21  A    between atoms: C_40  and  C_49
   22  A    between atoms: C_40  and  C_60
   23  A    between atoms: C_42  and  C_44
   24  A    between atoms: C_52  and  C_53
                            x       y       z     vdW  Elec       q    Type
                         _______ _______ _______ _____ _____    ______ ____

>  <TORSDO>
F 24

$$$$
=
 OpenBabel10232411393D

 63 70  0  0  1  0  0  0  0  0999 V2000
  185.6930  175.0620  136.7630 C   0  0  1  0  0  3  0  0  0  0  0  0
  186.7910  178.0030  136.5650 C   0  0  0  0  0  2  0  0  0  0  0  0
  185.7150  177.8910  137.6340 C   0  0  0  0  0  2  0  0  0  0  0  0
  184.4780  177.2280  137.0960 C   0  0  0  0  0  0  0  0  0  0  0  0
  187.5890  176.7060  136.4680 C   0  0  1  0  0  3  0  0  0  0  0  0
  186.7850  175.5780  135.8260 C   0  0  0  0  0  2  0  0  0  0  0  0
  184.4790  175.9440  136.7240 C   0  0  0  0  0  3  0  0  0  0  0  0
  186.2850  173.0360  135.6080 O   0  0  0  0  0  1  0  0  0  0  0  0
  185.3280  173.6020  136.4550 C   0  0  2  0  0  3  0  0  0  0  0  0
  183.7090  173.6610  134.6210 C   0  0  0  0  0  2  0  0  0  0  0  0
  183.9260  173.4180  135.9110 C   0  0  0  0  0  0  0  0  0  0  0  0
  181.5650  173.6310  136.1540 O   0  0  0  0  0  1  0  0  0  0  0  0
  182.7310  173.2120  136.7960 C   0  0  1  0  0  3  0  0  0  0  0  0
  182.6150  171.8140  137.1840 N   0  0  0  0  0  2  0  0  0  0  0  0
  181.3120  170.4150  135.5070 C   0  0  0  0  0  2  0  0  0  0  0  0
  183.8520  168.8510  135.1670 C   0  0  0  0  0  2  0  0  0  0  0  0
  181.4830  169.4510  134.3470 C   0  0  0  0  0  2  0  0  0  0  0  0
  183.6960  169.9880  136.1330 C   0  0  0  0  0  3  0  0  0  0  0  0
  182.2970  167.9430  134.9330 S   0  0  0  0  0  0  0  0  0  0  0  0
  182.5950  170.7400  136.2400 C   0  0  0  0  0  0  0  0  0  0  0  0
  188.9020  176.9280  135.7230 C   0  0  0  0  0  2  0  0  0  0  0  0
  189.2230  175.7960  134.7590 C   0  0  0  0  0  2  0  0  0  0  0  0
  190.6510  175.3920  134.9340 C   0  0  0  0  0  3  0  0  0  0  0  0
  191.2250  175.1980  136.1340 C   0  0  0  0  0  0  0  0  0  0  0  0
  191.4340  175.5390  138.5840 C   0  0  0  0  0  2  0  0  0  0  0  0
  190.8190  176.7920  138.0090 C   0  0  0  0  0  2  0  0  0  0  0  0
  190.4670  175.4370  137.4160 C   0  0  0  0  0  3  0  0  0  0  0  0
  192.6970  174.8790  136.2080 C   0  0  2  0  0  3  0  0  0  0  0  0
  193.8670  176.0820  134.3460 O   0  0  0  0  0  0  0  0  0  0  0  0
  193.5360  176.0070  135.6940 C   0  0  0  0  0  0  0  0  0  0  0  0
  193.9240  176.9060  136.4840 O   0  0  0  0  0  1  0  0  0  0  0  0
  193.0850  173.3050  135.3740 S   0  0  0  0  0  0  0  0  0  0  0  0
  194.2230  172.7620  136.6820 C   0  0  0  0  0  2  0  0  0  0  0  0
  195.2610  172.0080  136.1250 O   0  0  0  0  0  0  0  0  0  0  0  0
  196.2330  169.7670  136.6450 C   0  0  0  0  0  2  0  0  0  0  0  0
  195.5600  170.3420  137.8900 C   0  0  2  0  0  3  0  0  0  0  0  0
  193.8090  170.0980  136.1670 O   0  0  0  0  0  1  0  0  0  0  0  0
  194.7800  169.3530  138.4950 O   0  0  0  0  0  1  0  0  0  0  0  0
  195.0360  170.6780  136.5060 C   0  0  1  0  0  0  0  0  0  0  0  0
  183.2890  177.9490  136.9730 O   0  0  0  0  0  0  0  0  0  0  0  0
  182.1550  177.6870  137.7890 C   0  0  0  0  0  2  0  0  0  0  0  0
  181.5410  178.9950  138.2510 C   0  0  0  0  0  2  0  0  0  0  0  0
  183.3730  178.7740  142.1220 C   0  0  0  0  0  0  0  0  0  0  0  0
  184.0910  178.3780  143.1740 C   0  0  0  0  0  2  0  0  0  0  0  0
  181.1190  178.8360  140.8380 C   0  0  0  0  0  3  0  0  0  0  0  0
  185.5020  179.0400  140.7470 C   0  0  0  0  0  3  0  0  0  0  0  0
  184.0630  179.2590  140.9170 C   0  0  0  0  0  0  0  0  0  0  0  0
  183.2060  179.3840  139.9700 C   0  0  0  0  0  3  0  0  0  0  0  0
  186.2180  178.6690  141.8140 C   0  0  0  0  0  3  0  0  0  0  0  0
  181.9280  178.6010  142.0750 N   0  0  0  0  0  0  0  0  0  0  0  0
  185.5980  178.5340  143.1950 C   0  0  2  0  0  3  0  0  0  0  0  0
  181.9600  179.2960  139.6490 C   0  0  0  0  0  0  0  0  0  0  0  0
  186.1970  177.4090  143.8950 N   0  0  0  0  0  2  0  0  0  0  0  0
  185.6510  178.9810  145.5280 O   0  0  0  0  0  1  0  0  0  0  0  0
  186.2900  177.7600  145.3060 C   0  0  2  0  0  3  0  0  0  0  0  0
  187.7470  177.8390  145.7590 C   0  0  0  0  0  2  0  0  0  0  0  0
  188.7100  177.8560  144.5810 C   0  0  1  0  0  3  0  0  0  0  0  0
  191.2630  176.7000  144.2570 C   0  0  0  0  0  2  0  0  0  0  0  0
  190.0970  176.3280  143.4430 C   0  0  1  0  0  3  0  0  0  0  0  0
  189.9260  178.3670  144.9790 O   0  0  0  0  0  0  0  0  0  0  0  0
  189.8780  176.9500  144.8630 C   0  0  1  0  0  0  0  0  0  0  0  0
  190.0970  177.2650  142.2320 C   0  0  0  0  0  2  0  0  0  0  0  0
  188.9400  176.9150  141.3180 C   0  0  0  0  0  1  0  0  0  0  0  0
  1  9  1  6  0  0  0
  2  3  1  0  0  0  0
  4  3  1  0  0  0  0
  5 21  1  6  0  0  0
  5  2  1  0  0  0  0
  6  5  1  0  0  0  0
  6  1  1  0  0  0  0
  7  1  1  0  0  0  0
  7  4  2  0  0  0  0
  9  8  1  6  0  0  0
 10 11  2  0  0  0  0
 11  9  1  0  0  0  0
 11 13  1  0  0  0  0
 13 12  1  6  0  0  0
 13 14  1  0  0  0  0
 15 20  1  0  0  0  0
 16 18  1  0  0  0  0
 17 19  1  0  0  0  0
 17 15  1  0  0  0  0
 18 20  2  0  0  0  0
 19 16  1  0  0  0  0
 20 14  1  0  0  0  0
 22 23  1  0  0  0  0
 22 21  1  0  0  0  0
 23 24  2  0  0  0  0
 24 28  1  0  0  0  0
 24 27  1  0  0  0  0
 26 25  1  0  0  0  0
 27 26  1  0  0  0  0
 27 25  1  0  0  0  0
 28 32  1  6  0  0  0
 29 30  2  0  0  0  0
 30 28  1  0  0  0  0
 30 31  1  0  0  0  0
 32 33  1  0  0  0  0
 34 39  1  0  0  0  0
 34 33  1  0  0  0  0
 35 36  1  0  0  0  0
 36 38  1  1  0  0  0
 39 37  1  6  0  0  0
 39 35  1  0  0  0  0
 39 36  1  0  0  0  0
 40  4  1  0  0  0  0
 40 41  1  0  0  0  0
 41 42  1  0  0  0  0
 42 52  1  0  0  0  0
 43 44  1  0  0  0  0
 44 51  1  0  0  0  0
 45 50  2  0  0  0  0
 46 47  1  0  0  0  0
 46 49  2  0  0  0  0
 47 43  2  0  0  0  0
 48 47  1  0  0  0  0
 49 51  1  0  0  0  0
 50 43  1  0  0  0  0
 51 53  1  6  0  0  0
 52 48  2  0  0  0  0
 52 45  1  0  0  0  0
 53 55  1  0  0  0  0
 55 54  1  6  0  0  0
 55 56  1  0  0  0  0
 57 61  1  0  0  0  0
 57 60  1  0  0  0  0
 57 56  1  1  0  0  0
 59 62  1  6  0  0  0
 59 58  1  0  0  0  0
 59 61  1  0  0  0  0
 61 58  1  1  0  0  0
 61 60  1  0  0  0  0
 63 62  1  0  0  0  0
M  END
>  <MODEL>
4

>  <REMARK>
 VINA RESULT:      -5.7      2.241      2.867
  Name = 
  24 active torsions:
  status: ('A' for Active; 'I' for Inactive)
    1  A    between atoms: C_1  and  C_49
    2  A    between atoms: C_3  and  C_52
    3  A    between atoms: C_5  and  C_10
    4  A    between atoms: C_5  and  C_26
    5  A    between atoms: C_6  and  O_28
    6  A    between atoms: C_6  and  S_29
    7  A    between atoms: O_8  and  C_21
    8  A    between atoms: O_8  and  C_61
    9  A    between atoms: N_13  and  C_26
   10  A    between atoms: N_13  and  C_58
   11  A    between atoms: C_17  and  C_22
   12  A    between atoms: C_17  and  C_42
   13  A    between atoms: C_18  and  C_43
   14  A    between atoms: O_28  and  C_45
   15  A    between atoms: S_29  and  C_52
   16  A    between atoms: C_30  and  C_59
   17  A    between atoms: C_30  and  C_61
   18  A    between atoms: N_34  and  C_60
   19  A    between atoms: N_34  and  C_63
   20  A    between atoms: C_37  and  C_53
   21  A    between atoms: C_40  and  C_49
   22  A    between atoms: C_40  and  C_60
   23  A    between atoms: C_42  and  C_44
   24  A    between atoms: C_52  and  C_53
                            x       y       z     vdW  Elec       q    Type
                         _______ _______ _______ _____ _____    ______ ____

>  <TORSDO>
F 24

$$$$
=
 OpenBabel10232411393D

 63 70  0  0  1  0  0  0  0  0999 V2000
  186.2590  177.8910  145.8410 C   0  0  1  0  0  3  0  0  0  0  0  0
  184.8840  178.4510  143.0680 C   0  0  0  0  0  2  0  0  0  0  0  0
  185.8440  177.2740  142.9750 C   0  0  0  0  0  2  0  0  0  0  0  0
  187.1950  177.6270  143.5310 C   0  0  0  0  0  0  0  0  0  0  0  0
  184.2430  178.5130  144.4500 C   0  0  1  0  0  3  0  0  0  0  0  0
  185.2260  178.9720  145.5240 C   0  0  0  0  0  2  0  0  0  0  0  0
  187.3700  177.8860  144.8310 C   0  0  0  0  0  3  0  0  0  0  0  0
  186.8750  179.3840  147.6240 O   0  0  0  0  0  1  0  0  0  0  0  0
  186.8070  178.0340  147.2690 C   0  0  2  0  0  3  0  0  0  0  0  0
  188.1370  176.2010  148.1970 C   0  0  0  0  0  2  0  0  0  0  0  0
  188.1300  177.3310  147.4950 C   0  0  0  0  0  0  0  0  0  0  0  0
  190.0290  178.5060  148.3290 O   0  0  0  0  0  1  0  0  0  0  0  0
  189.4520  177.9670  147.1770 C   0  0  1  0  0  3  0  0  0  0  0  0
  190.3550  176.9980  146.5710 N   0  0  0  0  0  2  0  0  0  0  0  0
  191.3200  178.5670  144.8180 C   0  0  0  0  0  2  0  0  0  0  0  0
  191.6300  176.1160  143.1100 C   0  0  0  0  0  2  0  0  0  0  0  0
  192.1700  178.5970  143.5600 C   0  0  0  0  0  2  0  0  0  0  0  0
  191.0140  176.1070  144.4790 C   0  0  0  0  0  3  0  0  0  0  0  0
  191.3280  177.6830  142.2430 S   0  0  0  0  0  0  0  0  0  0  0  0
  190.9380  177.1770  145.2780 C   0  0  0  0  0  0  0  0  0  0  0  0
  183.0020  179.4010  144.4370 C   0  0  0  0  0  2  0  0  0  0  0  0
  181.9560  178.9240  143.4400 C   0  0  0  0  0  2  0  0  0  0  0  0
  182.5800  178.8150  142.0870 C   0  0  0  0  0  3  0  0  0  0  0  0
  181.8860  178.9110  140.9400 C   0  0  0  0  0  0  0  0  0  0  0  0
  179.9830  180.1440  141.9500 C   0  0  0  0  0  2  0  0  0  0  0  0
  180.0000  180.4770  140.4780 C   0  0  0  0  0  2  0  0  0  0  0  0
  180.3870  179.0820  140.9410 C   0  0  0  0  0  3  0  0  0  0  0  0
  182.5930  178.6970  139.6260 C   0  0  2  0  0  3  0  0  0  0  0  0
  182.6140  181.0230  138.6930 O   0  0  0  0  0  0  0  0  0  0  0  0
  183.3170  179.9270  139.1780 C   0  0  0  0  0  0  0  0  0  0  0  0
  184.5720  179.9780  139.2630 O   0  0  0  0  0  1  0  0  0  0  0  0
  181.4530  178.0720  138.3460 S   0  0  0  0  0  0  0  0  0  0  0  0
  182.4250  176.5640  138.0560 C   0  0  0  0  0  2  0  0  0  0  0  0
  182.4610  176.2800  136.6870 O   0  0  0  0  0  0  0  0  0  0  0  0
  180.7460  174.5620  136.1000 C   0  0  0  0  0  2  0  0  0  0  0  0
  181.9150  174.4830  135.1200 C   0  0  2  0  0  3  0  0  0  0  0  0
  182.8180  174.0070  137.3670 O   0  0  0  0  0  1  0  0  0  0  0  0
  182.2810  173.1470  134.9410 O   0  0  0  0  0  1  0  0  0  0  0  0
  182.1410  174.9220  136.5550 C   0  0  1  0  0  0  0  0  0  0  0  0
  188.3080  177.6950  142.6910 O   0  0  0  0  0  0  0  0  0  0  0  0
  188.4080  178.6480  141.6410 C   0  0  0  0  0  2  0  0  0  0  0  0
  187.3340  178.3840  140.6030 C   0  0  0  0  0  2  0  0  0  0  0  0
  189.3860  176.7060  137.2310 C   0  0  0  0  0  0  0  0  0  0  0  0
  190.0480  175.8780  136.4220 C   0  0  0  0  0  2  0  0  0  0  0  0
  189.3990  178.6090  138.9950 C   0  0  0  0  0  3  0  0  0  0  0  0
  187.3870  175.1260  137.2410 C   0  0  0  0  0  3  0  0  0  0  0  0
  187.9770  176.4310  137.5510 C   0  0  0  0  0  0  0  0  0  0  0  0
  187.6030  177.2170  138.4940 C   0  0  0  0  0  3  0  0  0  0  0  0
  188.0460  174.3130  136.4080 C   0  0  0  0  0  3  0  0  0  0  0  0
  190.0570  177.7950  137.9250 N   0  0  0  0  0  0  0  0  0  0  0  0
  189.3420  174.7290  135.7330 C   0  0  2  0  0  3  0  0  0  0  0  0
  187.9520  178.1940  139.2600 C   0  0  0  0  0  0  0  0  0  0  0  0
  190.2380  173.5870  135.6430 N   0  0  0  0  0  2  0  0  0  0  0  0
  192.1460  174.2750  134.4930 O   0  0  0  0  0  1  0  0  0  0  0  0
  191.6030  174.0810  135.7640 C   0  0  2  0  0  3  0  0  0  0  0  0
  192.4710  173.1100  136.5640 C   0  0  0  0  0  2  0  0  0  0  0  0
  193.9090  173.5960  136.6820 C   0  0  1  0  0  3  0  0  0  0  0  0
  196.2170  172.3250  137.6910 C   0  0  0  0  0  2  0  0  0  0  0  0
  196.0710  172.7460  136.2900 C   0  0  1  0  0  3  0  0  0  0  0  0
  194.3230  173.5140  137.9940 O   0  0  0  0  0  0  0  0  0  0  0  0
  194.7910  172.4700  137.1480 C   0  0  1  0  0  0  0  0  0  0  0  0
  196.5970  174.1830  136.2120 C   0  0  0  0  0  2  0  0  0  0  0  0
  197.4810  174.4670  137.4090 C   0  0  0  0  0  1  0  0  0  0  0  0
  1  9  1  1  0  0  0
  2  5  1  0  0  0  0
  3  2  1  0  0  0  0
  3  4  1  0  0  0  0
  4  7  2  0  0  0  0
  5 21  1  6  0  0  0
  5  6  1  0  0  0  0
  6  1  1  0  0  0  0
  7  1  1  0  0  0  0
  9 11  1  0  0  0  0
  9  8  1  6  0  0  0
 11 10  2  0  0  0  0
 13 11  1  0  0  0  0
 13 12  1  1  0  0  0
 14 13  1  0  0  0  0
 15 20  1  0  0  0  0
 16 18  1  0  0  0  0
 17 15  1  0  0  0  0
 18 20  2  0  0  0  0
 19 16  1  0  0  0  0
 19 17  1  0  0  0  0
 20 14  1  0  0  0  0
 22 21  1  0  0  0  0
 23 22  1  0  0  0  0
 24 27  1  0  0  0  0
 24 23  2  0  0  0  0
 26 27  1  0  0  0  0
 26 25  1  0  0  0  0
 27 25  1  0  0  0  0
 28 32  1  6  0  0  0
 28 24  1  0  0  0  0
 29 30  2  0  0  0  0
 30 31  1  0  0  0  0
 30 28  1  0  0  0  0
 33 32  1  0  0  0  0
 34 33  1  0  0  0  0
 35 39  1  0  0  0  0
 36 38  1  1  0  0  0
 36 35  1  0  0  0  0
 36 39  1  0  0  0  0
 39 34  1  0  0  0  0
 39 37  1  1  0  0  0
 40  4  1  0  0  0  0
 41 40  1  0  0  0  0
 42 41  1  0  0  0  0
 43 47  2  0  0  0  0
 43 50  1  0  0  0  0
 44 43  1  0  0  0  0
 45 52  1  0  0  0  0
 46 47  1  0  0  0  0
 47 48  1  0  0  0  0
 48 52  2  0  0  0  0
 49 46  2  0  0  0  0
 50 45  2  0  0  0  0
 51 53  1  1  0  0  0
 51 49  1  0  0  0  0
 51 44  1  0  0  0  0
 52 42  1  0  0  0  0
 53 55  1  0  0  0  0
 55 54  1  6  0  0  0
 55 56  1  0  0  0  0
 57 56  1  1  0  0  0
 57 61  1  0  0  0  0
 57 60  1  0  0  0  0
 59 62  1  1  0  0  0
 59 61  1  0  0  0  0
 59 58  1  0  0  0  0
 61 58  1  1  0  0  0
 61 60  1  0  0  0  0
 62 63  1  0  0  0  0
M  END
>  <MODEL>
5

>  <REMARK>
 VINA RESULT:      -5.6      2.872     11.482
  Name = 
  24 active torsions:
  status: ('A' for Active; 'I' for Inactive)
    1  A    between atoms: C_1  and  C_49
    2  A    between atoms: C_3  and  C_52
    3  A    between atoms: C_5  and  C_10
    4  A    between atoms: C_5  and  C_26
    5  A    between atoms: C_6  and  O_28
    6  A    between atoms: C_6  and  S_29
    7  A    between atoms: O_8  and  C_21
    8  A    between atoms: O_8  and  C_61
    9  A    between atoms: N_13  and  C_26
   10  A    between atoms: N_13  and  C_58
   11  A    between atoms: C_17  and  C_22
   12  A    between atoms: C_17  and  C_42
   13  A    between atoms: C_18  and  C_43
   14  A    between atoms: O_28  and  C_45
   15  A    between atoms: S_29  and  C_52
   16  A    between atoms: C_30  and  C_59
   17  A    between atoms: C_30  and  C_61
   18  A    between atoms: N_34  and  C_60
   19  A    between atoms: N_34  and  C_63
   20  A    between atoms: C_37  and  C_53
   21  A    between atoms: C_40  and  C_49
   22  A    between atoms: C_40  and  C_60
   23  A    between atoms: C_42  and  C_44
   24  A    between atoms: C_52  and  C_53
                            x       y       z     vdW  Elec       q    Type
                         _______ _______ _______ _____ _____    ______ ____

>  <TORSDO>
F 24

$$$$
=
 OpenBabel10232411393D

 63 70  0  0  1  0  0  0  0  0999 V2000
  189.3170  176.9470  139.3170 C   0  0  1  0  0  3  0  0  0  0  0  0
  191.3720  177.0780  141.6950 C   0  0  0  0  0  2  0  0  0  0  0  0
  190.1850  176.1920  142.0440 C   0  0  0  0  0  2  0  0  0  0  0  0
  188.8830  176.8950  141.7840 C   0  0  0  0  0  0  0  0  0  0  0  0
  191.6830  176.9960  140.2040 C   0  0  1  0  0  3  0  0  0  0  0  0
  190.6380  177.7150  139.3540 C   0  0  0  0  0  2  0  0  0  0  0  0
  188.4960  177.2150  140.5450 C   0  0  0  0  0  3  0  0  0  0  0  0
  187.1790  176.9080  138.2150 O   0  0  0  0  0  1  0  0  0  0  0  0
  188.5210  177.2540  138.0390 C   0  0  2  0  0  3  0  0  0  0  0  0
  189.4360  177.4240  135.7750 C   0  0  0  0  0  2  0  0  0  0  0  0
  189.0980  176.6270  136.7870 C   0  0  0  0  0  0  0  0  0  0  0  0
  188.9260  174.4480  137.7350 O   0  0  0  0  0  1  0  0  0  0  0  0
  189.0840  175.1470  136.5380 C   0  0  1  0  0  3  0  0  0  0  0  0
  188.0200  174.7940  135.6070 N   0  0  0  0  0  2  0  0  0  0  0  0
  188.4370  172.3170  135.2110 C   0  0  0  0  0  2  0  0  0  0  0  0
  185.4590  172.0030  135.4330 C   0  0  0  0  0  2  0  0  0  0  0  0
  187.8090  170.9440  135.3770 C   0  0  0  0  0  2  0  0  0  0  0  0
  186.1670  173.3240  135.5090 C   0  0  0  0  0  3  0  0  0  0  0  0
  186.3240  170.8340  134.3460 S   0  0  0  0  0  0  0  0  0  0  0  0
  187.4960  173.4690  135.4870 C   0  0  0  0  0  0  0  0  0  0  0  0
  193.0810  177.5280  139.9090 C   0  0  0  0  0  2  0  0  0  0  0  0
  194.0410  176.4330  139.4700 C   0  0  0  0  0  2  0  0  0  0  0  0
  193.5970  175.8890  138.1510 C   0  0  0  0  0  3  0  0  0  0  0  0
  194.3600  175.0950  137.3810 C   0  0  0  0  0  0  0  0  0  0  0  0
  195.7970  173.3700  138.4410 C   0  0  0  0  0  2  0  0  0  0  0  0
  196.2580  173.5180  137.0110 C   0  0  0  0  0  2  0  0  0  0  0  0
  195.7720  174.7370  137.7780 C   0  0  0  0  0  3  0  0  0  0  0  0
  193.8570  174.6710  136.0250 C   0  0  2  0  0  3  0  0  0  0  0  0
  194.6530  176.8050  134.9780 O   0  0  0  0  0  1  0  0  0  0  0  0
  193.6600  175.8420  135.1150 C   0  0  0  0  0  0  0  0  0  0  0  0
  192.5960  175.9430  134.4490 O   0  0  0  0  0  0  0  0  0  0  0  0
  192.3510  173.6510  136.1580 S   0  0  0  0  0  0  0  0  0  0  0  0
  193.2590  172.0870  135.9800 C   0  0  0  0  0  2  0  0  0  0  0  0
  192.4050  171.0970  135.4810 O   0  0  0  0  0  0  0  0  0  0  0  0
  194.6560  170.0190  135.4230 C   0  0  0  0  0  2  0  0  0  0  0  0
  193.9360  169.6450  136.7170 C   0  0  2  0  0  3  0  0  0  0  0  0
  192.5670  168.7880  134.8500 O   0  0  0  0  0  1  0  0  0  0  0  0
  194.0720  168.2730  136.9450 O   0  0  0  0  0  1  0  0  0  0  0  0
  193.1500  169.9110  135.4470 C   0  0  1  0  0  0  0  0  0  0  0  0
  188.0410  177.2360  142.8450 O   0  0  0  0  0  0  0  0  0  0  0  0
  187.2550  178.4200  142.8390 C   0  0  0  0  0  2  0  0  0  0  0  0
  185.7830  178.0600  142.9150 C   0  0  0  0  0  2  0  0  0  0  0  0
  183.0780  179.1650  139.7750 C   0  0  0  0  0  0  0  0  0  0  0  0
  182.1570  179.1280  138.8110 C   0  0  0  0  0  2  0  0  0  0  0  0
  185.5670  179.0850  140.5060 C   0  0  0  0  0  3  0  0  0  0  0  0
  181.3390  178.4410  141.4910 C   0  0  0  0  0  3  0  0  0  0  0  0
  182.6700  178.9650  141.1740 C   0  0  0  0  0  0  0  0  0  0  0  0
  183.7210  178.8310  141.8990 C   0  0  0  0  0  3  0  0  0  0  0  0
  180.4140  178.4310  140.5250 C   0  0  0  0  0  3  0  0  0  0  0  0
  184.4990  179.2510  139.4710 N   0  0  0  0  0  0  0  0  0  0  0  0
  180.6840  179.0040  139.1440 C   0  0  2  0  0  3  0  0  0  0  0  0
  185.0100  178.8410  141.9080 C   0  0  0  0  0  0  0  0  0  0  0  0
  180.0210  178.1910  138.1360 N   0  0  0  0  0  2  0  0  0  0  0  0
  179.9840  179.4710  136.1880 O   0  0  0  0  0  1  0  0  0  0  0  0
  180.6670  178.4550  136.8570 C   0  0  2  0  0  3  0  0  0  0  0  0
  180.7110  177.1950  135.9930 C   0  0  0  0  0  2  0  0  0  0  0  0
  182.0160  176.4300  136.1680 C   0  0  1  0  0  3  0  0  0  0  0  0
  184.4890  176.6550  134.8280 C   0  0  0  0  0  2  0  0  0  0  0  0
  184.3190  176.9180  136.2650 C   0  0  1  0  0  3  0  0  0  0  0  0
  182.3850  175.8550  134.9710 O   0  0  0  0  0  0  0  0  0  0  0  0
  183.0870  177.0460  135.3080 C   0  0  1  0  0  0  0  0  0  0  0  0
  184.5480  175.5830  136.9800 C   0  0  0  0  0  2  0  0  0  0  0  0
  183.7110  175.5320  138.2420 C   0  0  0  0  0  1  0  0  0  0  0  0
  1  9  1  6  0  0  0
  1  6  1  0  0  0  0
  1  7  1  0  0  0  0
  2  3  1  0  0  0  0
  4  3  1  0  0  0  0
  4 40  1  0  0  0  0
  5 21  1  1  0  0  0
  5  2  1  0  0  0  0
  6  5  1  0  0  0  0
  7  4  2  0  0  0  0
  9  8  1  1  0  0  0
 10 11  2  0  0  0  0
 11  9  1  0  0  0  0
 13 11  1  0  0  0  0
 13 12  1  1  0  0  0
 14 13  1  0  0  0  0
 15 17  1  0  0  0  0
 15 20  1  0  0  0  0
 16 18  1  0  0  0  0
 19 17  1  0  0  0  0
 19 16  1  0  0  0  0
 20 18  2  0  0  0  0
 20 14  1  0  0  0  0
 22 21  1  0  0  0  0
 23 22  1  0  0  0  0
 24 27  1  0  0  0  0
 24 23  2  0  0  0  0
 26 27  1  0  0  0  0
 26 25  1  0  0  0  0
 27 25  1  0  0  0  0
 28 30  1  6  0  0  0
 28 32  1  0  0  0  0
 28 24  1  0  0  0  0
 29 30  1  0  0  0  0
 31 30  2  0  0  0  0
 33 32  1  0  0  0  0
 34 33  1  0  0  0  0
 35 39  1  0  0  0  0
 35 36  1  0  0  0  0
 36 38  1  6  0  0  0
 39 37  1  6  0  0  0
 39 34  1  0  0  0  0
 39 36  1  0  0  0  0
 41 40  1  0  0  0  0
 41 42  1  0  0  0  0
 43 47  1  0  0  0  0
 44 51  1  0  0  0  0
 44 43  1  0  0  0  0
 45 52  2  0  0  0  0
 47 46  1  0  0  0  0
 47 48  2  0  0  0  0
 48 52  1  0  0  0  0
 49 46  2  0  0  0  0
 50 43  2  0  0  0  0
 50 45  1  0  0  0  0
 51 53  1  6  0  0  0
 51 49  1  0  0  0  0
 52 42  1  0  0  0  0
 55 54  1  6  0  0  0
 55 53  1  0  0  0  0
 56 55  1  0  0  0  0
 57 56  1  6  0  0  0
 58 59  1  0  0  0  0
 59 62  1  1  0  0  0
 60 61  1  0  0  0  0
 60 57  1  0  0  0  0
 61 58  1  6  0  0  0
 61 57  1  0  0  0  0
 61 59  1  0  0  0  0
 62 63  1  0  0  0  0
M  END
>  <MODEL>
6

>  <REMARK>
 VINA RESULT:      -4.6      2.972      6.902
  Name = 
  24 active torsions:
  status: ('A' for Active; 'I' for Inactive)
    1  A    between atoms: C_1  and  C_49
    2  A    between atoms: C_3  and  C_52
    3  A    between atoms: C_5  and  C_10
    4  A    between atoms: C_5  and  C_26
    5  A    between atoms: C_6  and  O_28
    6  A    between atoms: C_6  and  S_29
    7  A    between atoms: O_8  and  C_21
    8  A    between atoms: O_8  and  C_61
    9  A    between atoms: N_13  and  C_26
   10  A    between atoms: N_13  and  C_58
   11  A    between atoms: C_17  and  C_22
   12  A    between atoms: C_17  and  C_42
   13  A    between atoms: C_18  and  C_43
   14  A    between atoms: O_28  and  C_45
   15  A    between atoms: S_29  and  C_52
   16  A    between atoms: C_30  and  C_59
   17  A    between atoms: C_30  and  C_61
   18  A    between atoms: N_34  and  C_60
   19  A    between atoms: N_34  and  C_63
   20  A    between atoms: C_37  and  C_53
   21  A    between atoms: C_40  and  C_49
   22  A    between atoms: C_40  and  C_60
   23  A    between atoms: C_42  and  C_44
   24  A    between atoms: C_52  and  C_53
                            x       y       z     vdW  Elec       q    Type
                         _______ _______ _______ _____ _____    ______ ____

>  <TORSDO>
F 24

$$$$
=
 OpenBabel10232411393D

 63 70  0  0  1  0  0  0  0  0999 V2000
  185.0990  176.4600  136.9220 C   0  0  1  0  0  3  0  0  0  0  0  0
  186.8730  178.6650  138.2960 C   0  0  0  0  0  2  0  0  0  0  0  0
  187.4920  178.2020  136.9850 C   0  0  0  0  0  2  0  0  0  0  0  0
  187.5940  176.7040  136.9280 C   0  0  0  0  0  0  0  0  0  0  0  0
  185.3510  178.6140  138.2190 C   0  0  1  0  0  3  0  0  0  0  0  0
  184.8170  177.1840  138.2390 C   0  0  0  0  0  2  0  0  0  0  0  0
  186.5040  175.9310  136.8820 C   0  0  0  0  0  3  0  0  0  0  0  0
  184.4480  174.6060  135.5340 O   0  0  0  0  0  1  0  0  0  0  0  0
  184.0780  175.3420  136.6620 C   0  0  2  0  0  3  0  0  0  0  0  0
  181.6840  175.0770  137.0980 C   0  0  0  0  0  2  0  0  0  0  0  0
  182.6450  175.8270  136.5650 C   0  0  0  0  0  0  0  0  0  0  0  0
  182.2660  176.6130  134.3470 O   0  0  0  0  0  1  0  0  0  0  0  0
  182.2340  176.9780  135.6940 C   0  0  1  0  0  3  0  0  0  0  0  0
  180.9020  177.4450  136.0550 N   0  0  0  0  0  2  0  0  0  0  0  0
  180.7070  179.9730  136.2450 C   0  0  0  0  0  2  0  0  0  0  0  0
  180.2750  179.5000  139.1790 C   0  0  0  0  0  2  0  0  0  0  0  0
  180.1830  181.0800  137.1440 C   0  0  0  0  0  2  0  0  0  0  0  0
  180.5540  178.4070  138.1910 C   0  0  0  0  0  3  0  0  0  0  0  0
  181.0850  181.0570  138.7140 S   0  0  0  0  0  0  0  0  0  0  0  0
  180.6730  178.5960  136.8720 C   0  0  0  0  0  0  0  0  0  0  0  0
  184.7210  179.4430  139.3330 C   0  0  0  0  0  2  0  0  0  0  0  0
  183.6820  178.6630  140.1240 C   0  0  0  0  0  2  0  0  0  0  0  0
  184.2820  178.2160  141.4170 C   0  0  0  0  0  3  0  0  0  0  0  0
  183.7250  178.4570  142.6160 C   0  0  0  0  0  0  0  0  0  0  0  0
  181.3010  178.5300  142.0840 C   0  0  0  0  0  2  0  0  0  0  0  0
  181.4280  178.5260  143.5880 C   0  0  0  0  0  2  0  0  0  0  0  0
  182.4560  179.2640  142.7450 C   0  0  0  0  0  3  0  0  0  0  0  0
  184.4540  178.0440  143.8690 C   0  0  2  0  0  3  0  0  0  0  0  0
  184.0780  179.1570  146.0840 O   0  0  0  0  0  1  0  0  0  0  0  0
  184.6350  179.1930  144.8110 C   0  0  0  0  0  0  0  0  0  0  0  0
  185.3180  180.1890  144.4550 O   0  0  0  0  0  0  0  0  0  0  0  0
  186.0360  177.2220  143.4840 S   0  0  0  0  0  0  0  0  0  0  0  0
  186.9320  178.0760  144.8150 C   0  0  0  0  0  2  0  0  0  0  0  0
  187.3640  177.1460  145.7670 O   0  0  0  0  0  0  0  0  0  0  0  0
  188.7570  178.5880  147.2550 C   0  0  0  0  0  2  0  0  0  0  0  0
  189.0160  177.1160  147.5700 C   0  0  2  0  0  3  0  0  0  0  0  0
  189.6760  177.4820  145.2190 O   0  0  0  0  0  1  0  0  0  0  0  0
  190.3920  176.9000  147.6820 O   0  0  0  0  0  1  0  0  0  0  0  0
  188.6460  177.5490  146.1630 C   0  0  1  0  0  0  0  0  0  0  0  0
  188.8440  176.0820  136.9230 O   0  0  0  0  0  0  0  0  0  0  0  0
  190.0470  176.8020  136.6940 C   0  0  0  0  0  2  0  0  0  0  0  0
  191.0300  175.9330  135.9320 C   0  0  0  0  0  2  0  0  0  0  0  0
  195.1610  175.2620  136.8690 C   0  0  0  0  0  0  0  0  0  0  0  0
  196.4280  174.8490  136.8300 C   0  0  0  0  0  2  0  0  0  0  0  0
  192.7180  174.9390  137.6810 C   0  0  0  0  0  3  0  0  0  0  0  0
  195.5050  176.5760  134.7130 C   0  0  0  0  0  3  0  0  0  0  0  0
  194.6950  176.2580  135.8920 C   0  0  0  0  0  0  0  0  0  0  0  0
  193.4180  176.3540  135.9720 C   0  0  0  0  0  3  0  0  0  0  0  0
  196.7820  176.1790  134.6940 C   0  0  0  0  0  3  0  0  0  0  0  0
  194.1840  174.6490  137.7570 N   0  0  0  0  0  0  0  0  0  0  0  0
  197.4250  175.4750  135.8770 C   0  0  2  0  0  3  0  0  0  0  0  0
  192.3620  175.9560  136.5980 C   0  0  0  0  0  0  0  0  0  0  0  0
  198.3510  174.4600  135.4000 N   0  0  0  0  0  2  0  0  0  0  0  0
  199.5220  173.7630  137.2920 O   0  0  0  0  0  1  0  0  0  0  0  0
  198.4680  173.4420  136.4360 C   0  0  2  0  0  3  0  0  0  0  0  0
  198.6880  172.0580  135.8260 C   0  0  0  0  0  2  0  0  0  0  0  0
  197.6210  171.0650  136.2650 C   0  0  1  0  0  3  0  0  0  0  0  0
  196.1020  169.2040  134.7860 C   0  0  0  0  0  2  0  0  0  0  0  0
  197.0540  168.8180  135.8380 C   0  0  1  0  0  3  0  0  0  0  0  0
  196.4560  171.2910  135.5650 O   0  0  0  0  0  0  0  0  0  0  0  0
  197.2310  170.1900  135.1050 C   0  0  1  0  0  0  0  0  0  0  0  0
  196.2640  168.7930  137.1500 C   0  0  0  0  0  2  0  0  0  0  0  0
  194.8850  168.2170  136.9020 C   0  0  0  0  0  1  0  0  0  0  0  0
  1  9  1  1  0  0  0
  1  6  1  0  0  0  0
  3  2  1  0  0  0  0
  4  3  1  0  0  0  0
  5  6  1  0  0  0  0
  5  2  1  0  0  0  0
  5 21  1  1  0  0  0
  7  1  1  0  0  0  0
  7  4  2  0  0  0  0
  9  8  1  6  0  0  0
 11  9  1  0  0  0  0
 11 10  2  0  0  0  0
 13 12  1  6  0  0  0
 13 14  1  0  0  0  0
 13 11  1  0  0  0  0
 14 20  1  0  0  0  0
 15 20  1  0  0  0  0
 15 17  1  0  0  0  0
 17 19  1  0  0  0  0
 18 16  1  0  0  0  0
 19 16  1  0  0  0  0
 20 18  2  0  0  0  0
 21 22  1  0  0  0  0
 22 23  1  0  0  0  0
 23 24  2  0  0  0  0
 24 27  1  0  0  0  0
 25 27  1  0  0  0  0
 25 26  1  0  0  0  0
 27 26  1  0  0  0  0
 28 24  1  6  0  0  0
 28 30  1  0  0  0  0
 30 29  1  0  0  0  0
 31 30  2  0  0  0  0
 32 28  1  0  0  0  0
 32 33  1  0  0  0  0
 33 34  1  0  0  0  0
 34 39  1  0  0  0  0
 35 36  1  0  0  0  0
 36 38  1  6  0  0  0
 39 37  1  6  0  0  0
 39 35  1  0  0  0  0
 39 36  1  0  0  0  0
 40  4  1  0  0  0  0
 41 40  1  0  0  0  0
 42 52  1  0  0  0  0
 42 41  1  0  0  0  0
 43 50  1  0  0  0  0
 44 43  1  0  0  0  0
 45 50  2  0  0  0  0
 46 47  1  0  0  0  0
 47 48  1  0  0  0  0
 47 43  2  0  0  0  0
 48 52  2  0  0  0  0
 49 46  2  0  0  0  0
 49 51  1  0  0  0  0
 51 53  1  6  0  0  0
 51 44  1  0  0  0  0
 52 45  1  0  0  0  0
 53 55  1  0  0  0  0
 55 54  1  1  0  0  0
 56 55  1  0  0  0  0
 57 56  1  6  0  0  0
 58 59  1  0  0  0  0
 59 62  1  1  0  0  0
 60 57  1  0  0  0  0
 61 58  1  6  0  0  0
 61 60  1  0  0  0  0
 61 59  1  0  0  0  0
 61 57  1  0  0  0  0
 63 62  1  0  0  0  0
M  END
>  <MODEL>
7

>  <REMARK>
 VINA RESULT:      -4.6      3.660     11.081
  Name = 
  24 active torsions:
  status: ('A' for Active; 'I' for Inactive)
    1  A    between atoms: C_1  and  C_49
    2  A    between atoms: C_3  and  C_52
    3  A    between atoms: C_5  and  C_10
    4  A    between atoms: C_5  and  C_26
    5  A    between atoms: C_6  and  O_28
    6  A    between atoms: C_6  and  S_29
    7  A    between atoms: O_8  and  C_21
    8  A    between atoms: O_8  and  C_61
    9  A    between atoms: N_13  and  C_26
   10  A    between atoms: N_13  and  C_58
   11  A    between atoms: C_17  and  C_22
   12  A    between atoms: C_17  and  C_42
   13  A    between atoms: C_18  and  C_43
   14  A    between atoms: O_28  and  C_45
   15  A    between atoms: S_29  and  C_52
   16  A    between atoms: C_30  and  C_59
   17  A    between atoms: C_30  and  C_61
   18  A    between atoms: N_34  and  C_60
   19  A    between atoms: N_34  and  C_63
   20  A    between atoms: C_37  and  C_53
   21  A    between atoms: C_40  and  C_49
   22  A    between atoms: C_40  and  C_60
   23  A    between atoms: C_42  and  C_44
   24  A    between atoms: C_52  and  C_53
                            x       y       z     vdW  Elec       q    Type
                         _______ _______ _______ _____ _____    ______ ____

>  <TORSDO>
F 24

$$$$
=
 OpenBabel10232411393D

 63 70  0  0  1  0  0  0  0  0999 V2000
  183.8330  178.4110  138.8140 C   0  0  1  0  0  3  0  0  0  0  0  0
  186.8640  178.7730  139.5750 C   0  0  0  0  0  2  0  0  0  0  0  0
  186.1060  178.0460  140.6760 C   0  0  0  0  0  2  0  0  0  0  0  0
  184.8620  178.7940  141.0670 C   0  0  0  0  0  0  0  0  0  0  0  0
  186.2860  178.4270  138.2060 C   0  0  1  0  0  3  0  0  0  0  0  0
  184.9230  179.0740  137.9730 C   0  0  0  0  0  2  0  0  0  0  0  0
  183.8360  178.9350  140.2220 C   0  0  0  0  0  3  0  0  0  0  0  0
  181.6420  179.3950  138.9520 O   0  0  0  0  0  1  0  0  0  0  0  0
  182.4480  178.5650  138.1680 C   0  0  2  0  0  3  0  0  0  0  0  0
  181.1160  176.6270  138.8450 C   0  0  0  0  0  2  0  0  0  0  0  0
  181.7610  177.2500  137.8610 C   0  0  0  0  0  0  0  0  0  0  0  0
  182.0290  177.3840  135.4970 O   0  0  0  0  0  1  0  0  0  0  0  0
  181.9730  176.5020  136.5780 C   0  0  1  0  0  3  0  0  0  0  0  0
  183.1930  175.7090  136.6410 N   0  0  0  0  0  2  0  0  0  0  0  0
  181.9450  173.5810  136.0250 C   0  0  0  0  0  2  0  0  0  0  0  0
  184.6020  172.2070  136.2870 C   0  0  0  0  0  2  0  0  0  0  0  0
  182.1470  172.1710  135.4980 C   0  0  0  0  0  2  0  0  0  0  0  0
  184.3880  173.6670  136.5580 C   0  0  0  0  0  3  0  0  0  0  0  0
  183.1300  171.2210  136.6860 S   0  0  0  0  0  0  0  0  0  0  0  0
  183.2270  174.3060  136.3730 C   0  0  0  0  0  0  0  0  0  0  0  0
  187.2600  178.7980  137.0930 C   0  0  0  0  0  2  0  0  0  0  0  0
  188.7090  178.5300  137.4730 C   0  0  0  0  0  2  0  0  0  0  0  0
  189.1950  177.3260  136.7350 C   0  0  0  0  0  3  0  0  0  0  0  0
  189.7280  176.2500  137.3390 C   0  0  0  0  0  0  0  0  0  0  0  0
  191.2750  176.8110  139.1970 C   0  0  0  0  0  2  0  0  0  0  0  0
  190.0130  177.6130  139.4090 C   0  0  0  0  0  2  0  0  0  0  0  0
  189.9280  176.2080  138.8340 C   0  0  0  0  0  3  0  0  0  0  0  0
  190.2730  175.1220  136.5010 C   0  0  2  0  0  3  0  0  0  0  0  0
  189.4450  173.0910  135.2860 O   0  0  0  0  0  0  0  0  0  0  0  0
  189.2450  174.0610  136.2620 C   0  0  0  0  0  0  0  0  0  0  0  0
  188.2020  174.0330  136.9670 O   0  0  0  0  0  1  0  0  0  0  0  0
  191.8060  174.4380  137.2130 S   0  0  0  0  0  0  0  0  0  0  0  0
  192.8330  175.8070  136.6020 C   0  0  0  0  0  2  0  0  0  0  0  0
  193.6040  175.3750  135.5180 O   0  0  0  0  0  0  0  0  0  0  0  0
  195.4800  174.5800  136.9610 C   0  0  0  0  0  2  0  0  0  0  0  0
  195.8230  174.3460  135.4920 C   0  0  2  0  0  3  0  0  0  0  0  0
  195.5300  176.7790  135.7920 O   0  0  0  0  0  1  0  0  0  0  0  0
  197.1330  174.7670  135.2480 O   0  0  0  0  0  1  0  0  0  0  0  0
  194.9440  175.5140  135.9020 C   0  0  1  0  0  0  0  0  0  0  0  0
  184.7520  179.3640  142.3370 O   0  0  0  0  0  0  0  0  0  0  0  0
  183.4960  179.5640  142.9720 C   0  0  0  0  0  2  0  0  0  0  0  0
  183.3070  178.5390  144.0730 C   0  0  0  0  0  2  0  0  0  0  0  0
  186.5000  178.0610  146.8970 C   0  0  0  0  0  0  0  0  0  0  0  0
  187.5270  177.5700  147.5920 C   0  0  0  0  0  2  0  0  0  0  0  0
  183.9460  178.4240  146.6180 C   0  0  0  0  0  3  0  0  0  0  0  0
  187.9110  178.0540  144.7750 C   0  0  0  0  0  3  0  0  0  0  0  0
  186.7000  178.4580  145.4950 C   0  0  0  0  0  0  0  0  0  0  0  0
  185.5570  178.6990  144.9630 C   0  0  0  0  0  3  0  0  0  0  0  0
  188.9450  177.5870  145.4830 C   0  0  0  0  0  3  0  0  0  0  0  0
  185.1490  178.0790  147.4380 N   0  0  0  0  0  0  0  0  0  0  0  0
  188.9210  177.5280  147.0020 C   0  0  2  0  0  3  0  0  0  0  0  0
  184.2870  178.7750  145.1710 C   0  0  0  0  0  0  0  0  0  0  0  0
  189.6090  176.3310  147.4580 N   0  0  0  0  0  2  0  0  0  0  0  0
  191.2570  177.9320  147.0610 O   0  0  0  0  0  1  0  0  0  0  0  0
  191.0370  176.6190  147.4800 C   0  0  2  0  0  3  0  0  0  0  0  0
  191.8100  175.6460  146.5900 C   0  0  0  0  0  2  0  0  0  0  0  0
  191.9740  176.1780  145.1730 C   0  0  1  0  0  3  0  0  0  0  0  0
  190.7490  175.4080  142.7510 C   0  0  0  0  0  2  0  0  0  0  0  0
  190.5870  176.7390  143.3530 C   0  0  1  0  0  3  0  0  0  0  0  0
  192.3410  175.1530  144.3290 O   0  0  0  0  0  0  0  0  0  0  0  0
  190.9690  175.5250  144.2630 C   0  0  1  0  0  0  0  0  0  0  0  0
  191.7170  177.6090  142.7910 C   0  0  0  0  0  2  0  0  0  0  0  0
  191.8700  178.8540  143.6400 C   0  0  0  0  0  1  0  0  0  0  0  0
  1  9  1  6  0  0  0
  1  7  1  0  0  0  0
  2  3  1  0  0  0  0
  3  4  1  0  0  0  0
  4 40  1  0  0  0  0
  5 21  1  6  0  0  0
  5  2  1  0  0  0  0
  6  5  1  0  0  0  0
  6  1  1  0  0  0  0
  7  4  2  0  0  0  0
  9  8  1  1  0  0  0
 11  9  1  0  0  0  0
 11 10  2  0  0  0  0
 13 12  1  6  0  0  0
 13 14  1  0  0  0  0
 13 11  1  0  0  0  0
 15 20  1  0  0  0  0
 16 18  1  0  0  0  0
 16 19  1  0  0  0  0
 17 15  1  0  0  0  0
 17 19  1  0  0  0  0
 20 18  2  0  0  0  0
 20 14  1  0  0  0  0
 21 22  1  0  0  0  0
 23 24  2  0  0  0  0
 23 22  1  0  0  0  0
 24 27  1  0  0  0  0
 25 26  1  0  0  0  0
 27 25  1  0  0  0  0
 27 26  1  0  0  0  0
 28 30  1  1  0  0  0
 28 32  1  0  0  0  0
 28 24  1  0  0  0  0
 29 30  2  0  0  0  0
 30 31  1  0  0  0  0
 33 32  1  0  0  0  0
 34 39  1  0  0  0  0
 34 33  1  0  0  0  0
 36 38  1  1  0  0  0
 36 39  1  0  0  0  0
 36 35  1  0  0  0  0
 39 37  1  6  0  0  0
 39 35  1  0  0  0  0
 40 41  1  0  0  0  0
 41 42  1  0  0  0  0
 42 52  1  0  0  0  0
 43 50  1  0  0  0  0
 43 44  1  0  0  0  0
 45 50  2  0  0  0  0
 46 49  2  0  0  0  0
 46 47  1  0  0  0  0
 47 43  2  0  0  0  0
 48 52  2  0  0  0  0
 48 47  1  0  0  0  0
 49 51  1  0  0  0  0
 51 53  1  6  0  0  0
 51 44  1  0  0  0  0
 52 45  1  0  0  0  0
 53 55  1  0  0  0  0
 55 54  1  6  0  0  0
 56 55  1  0  0  0  0
 57 56  1  1  0  0  0
 58 59  1  0  0  0  0
 59 62  1  6  0  0  0
 59 61  1  0  0  0  0
 60 57  1  0  0  0  0
 61 58  1  1  0  0  0
 61 60  1  0  0  0  0
 61 57  1  0  0  0  0
 62 63  1  0  0  0  0
M  END
>  <MODEL>
8

>  <REMARK>
 VINA RESULT:      -4.2      2.151      4.247
  Name = 
  24 active torsions:
  status: ('A' for Active; 'I' for Inactive)
    1  A    between atoms: C_1  and  C_49
    2  A    between atoms: C_3  and  C_52
    3  A    between atoms: C_5  and  C_10
    4  A    between atoms: C_5  and  C_26
    5  A    between atoms: C_6  and  O_28
    6  A    between atoms: C_6  and  S_29
    7  A    between atoms: O_8  and  C_21
    8  A    between atoms: O_8  and  C_61
    9  A    between atoms: N_13  and  C_26
   10  A    between atoms: N_13  and  C_58
   11  A    between atoms: C_17  and  C_22
   12  A    between atoms: C_17  and  C_42
   13  A    between atoms: C_18  and  C_43
   14  A    between atoms: O_28  and  C_45
   15  A    between atoms: S_29  and  C_52
   16  A    between atoms: C_30  and  C_59
   17  A    between atoms: C_30  and  C_61
   18  A    between atoms: N_34  and  C_60
   19  A    between atoms: N_34  and  C_63
   20  A    between atoms: C_37  and  C_53
   21  A    between atoms: C_40  and  C_49
   22  A    between atoms: C_40  and  C_60
   23  A    between atoms: C_42  and  C_44
   24  A    between atoms: C_52  and  C_53
                            x       y       z     vdW  Elec       q    Type
                         _______ _______ _______ _____ _____    ______ ____

>  <TORSDO>
F 24

$$$$
=
 OpenBabel10232411393D

 63 70  0  0  1  0  0  0  0  0999 V2000
  182.8670  178.1940  139.2740 C   0  0  1  0  0  3  0  0  0  0  0  0
  180.1320  176.9090  140.1480 C   0  0  0  0  0  2  0  0  0  0  0  0
  180.3030  178.2960  140.7500 C   0  0  0  0  0  2  0  0  0  0  0  0
  181.6310  178.4310  141.4410 C   0  0  0  0  0  0  0  0  0  0  0  0
  180.7970  176.8330  138.7770 C   0  0  1  0  0  3  0  0  0  0  0  0
  182.3200  176.8240  138.8720 C   0  0  0  0  0  2  0  0  0  0  0  0
  182.7800  178.4010  140.7590 C   0  0  0  0  0  3  0  0  0  0  0  0
  184.6320  179.7570  138.7940 O   0  0  0  0  0  1  0  0  0  0  0  0
  184.3030  178.3990  138.7680 C   0  0  2  0  0  3  0  0  0  0  0  0
  183.6000  177.8110  136.4980 C   0  0  0  0  0  2  0  0  0  0  0  0
  184.5710  177.7880  137.4080 C   0  0  0  0  0  0  0  0  0  0  0  0
  185.4470  175.8650  136.3040 O   0  0  0  0  0  1  0  0  0  0  0  0
  185.7820  176.9490  137.1180 C   0  0  1  0  0  3  0  0  0  0  0  0
  186.8210  177.7480  136.4850 N   0  0  0  0  0  2  0  0  0  0  0  0
  189.1520  176.7500  136.2960 C   0  0  0  0  0  2  0  0  0  0  0  0
  189.9120  178.6630  138.4820 C   0  0  0  0  0  2  0  0  0  0  0  0
  190.6110  177.0150  136.6270 C   0  0  0  0  0  2  0  0  0  0  0  0
  188.5200  178.5300  137.9370 C   0  0  0  0  0  3  0  0  0  0  0  0
  190.8150  177.0890  138.4250 S   0  0  0  0  0  0  0  0  0  0  0  0
  188.1850  177.7370  136.9140 C   0  0  0  0  0  0  0  0  0  0  0  0
  180.2950  175.6240  137.9940 C   0  0  0  0  0  2  0  0  0  0  0  0
  180.4950  175.7760  136.4940 C   0  0  0  0  0  2  0  0  0  0  0  0
  181.5980  174.8710  136.0510 C   0  0  0  0  0  3  0  0  0  0  0  0
  181.4200  173.5720  135.7600 C   0  0  0  0  0  0  0  0  0  0  0  0
  180.0750  171.5530  135.2330 C   0  0  0  0  0  2  0  0  0  0  0  0
  180.1930  171.6310  136.7360 C   0  0  0  0  0  2  0  0  0  0  0  0
  180.0740  172.9080  135.9210 C   0  0  0  0  0  3  0  0  0  0  0  0
  182.6130  172.7200  135.4080 C   0  0  2  0  0  3  0  0  0  0  0  0
  183.7410  172.9680  137.6330 O   0  0  0  0  0  1  0  0  0  0  0  0
  183.2590  172.1390  136.6270 C   0  0  0  0  0  0  0  0  0  0  0  0
  183.3460  170.8900  136.7520 O   0  0  0  0  0  0  0  0  0  0  0  0
  183.8050  173.6320  134.3730 S   0  0  0  0  0  0  0  0  0  0  0  0
  185.2420  173.0640  135.3300 C   0  0  0  0  0  2  0  0  0  0  0  0
  186.2660  172.6730  134.4610 O   0  0  0  0  0  0  0  0  0  0  0  0
  187.6190  172.3920  136.5410 C   0  0  0  0  0  2  0  0  0  0  0  0
  188.2980  171.6690  135.3800 C   0  0  2  0  0  3  0  0  0  0  0  0
  188.1960  174.0620  134.7840 O   0  0  0  0  0  1  0  0  0  0  0  0
  189.6640  171.9640  135.3840 O   0  0  0  0  0  1  0  0  0  0  0  0
  187.4720  172.9170  135.1320 C   0  0  1  0  0  0  0  0  0  0  0  0
  181.6920  178.5920  142.8270 O   0  0  0  0  0  0  0  0  0  0  0  0
  182.8470  178.2470  143.5790 C   0  0  0  0  0  2  0  0  0  0  0  0
  183.2820  179.4290  144.4250 C   0  0  0  0  0  2  0  0  0  0  0  0
  187.3310  178.0460  144.7140 C   0  0  0  0  0  0  0  0  0  0  0  0
  188.4510  177.3340  144.5750 C   0  0  0  0  0  2  0  0  0  0  0  0
  185.1750  178.6030  146.0460 C   0  0  0  0  0  3  0  0  0  0  0  0
  187.3110  178.5350  142.2130 C   0  0  0  0  0  3  0  0  0  0  0  0
  186.8030  178.7940  143.5630 C   0  0  0  0  0  0  0  0  0  0  0  0
  185.6300  179.2270  143.8520 C   0  0  0  0  0  3  0  0  0  0  0  0
  188.4480  177.8420  142.0850 C   0  0  0  0  0  3  0  0  0  0  0  0
  186.5350  177.9890  145.9310 N   0  0  0  0  0  0  0  0  0  0  0  0
  189.2510  177.3790  143.2900 C   0  0  2  0  0  3  0  0  0  0  0  0
  184.7270  179.3110  144.7690 C   0  0  0  0  0  0  0  0  0  0  0  0
  189.8240  176.0700  143.0240 N   0  0  0  0  0  2  0  0  0  0  0  0
  191.9040  175.8860  141.9860 O   0  0  0  0  0  1  0  0  0  0  0  0
  191.2680  176.1730  143.1950 C   0  0  2  0  0  3  0  0  0  0  0  0
  191.7620  175.2260  144.2870 C   0  0  0  0  0  2  0  0  0  0  0  0
  191.9900  175.9480  145.6080 C   0  0  1  0  0  3  0  0  0  0  0  0
  190.1750  177.1720  147.3880 C   0  0  0  0  0  2  0  0  0  0  0  0
  191.0070  176.0140  147.7480 C   0  0  1  0  0  3  0  0  0  0  0  0
  191.4680  177.2220  145.5400 O   0  0  0  0  0  0  0  0  0  0  0  0
  190.6670  176.2790  146.2430 C   0  0  1  0  0  0  0  0  0  0  0  0
  192.3170  176.5780  148.3070 C   0  0  0  0  0  2  0  0  0  0  0  0
  193.0850  175.4780  149.0110 C   0  0  0  0  0  1  0  0  0  0  0  0
  1  9  1  1  0  0  0
  1  7  1  0  0  0  0
  2  3  1  0  0  0  0
  3  4  1  0  0  0  0
  4 40  1  0  0  0  0
  5 21  1  1  0  0  0
  5  6  1  0  0  0  0
  5  2  1  0  0  0  0
  6  1  1  0  0  0  0
  7  4  2  0  0  0  0
  9  8  1  6  0  0  0
 10 11  2  0  0  0  0
 11  9  1  0  0  0  0
 13 12  1  6  0  0  0
 13 11  1  0  0  0  0
 14 20  1  0  0  0  0
 14 13  1  0  0  0  0
 15 17  1  0  0  0  0
 15 20  1  0  0  0  0
 17 19  1  0  0  0  0
 18 16  1  0  0  0  0
 19 16  1  0  0  0  0
 20 18  2  0  0  0  0
 22 21  1  0  0  0  0
 23 22  1  0  0  0  0
 24 27  1  0  0  0  0
 24 23  2  0  0  0  0
 25 27  1  0  0  0  0
 25 26  1  0  0  0  0
 27 26  1  0  0  0  0
 28 32  1  1  0  0  0
 28 24  1  0  0  0  0
 28 30  1  0  0  0  0
 30 31  2  0  0  0  0
 30 29  1  0  0  0  0
 32 33  1  0  0  0  0
 34 39  1  0  0  0  0
 34 33  1  0  0  0  0
 36 38  1  1  0  0  0
 36 35  1  0  0  0  0
 39 37  1  6  0  0  0
 39 36  1  0  0  0  0
 39 35  1  0  0  0  0
 40 41  1  0  0  0  0
 41 42  1  0  0  0  0
 42 52  1  0  0  0  0
 43 50  1  0  0  0  0
 44 43  1  0  0  0  0
 46 47  1  0  0  0  0
 47 48  1  0  0  0  0
 47 43  2  0  0  0  0
 48 52  2  0  0  0  0
 49 46  2  0  0  0  0
 49 51  1  0  0  0  0
 50 45  2  0  0  0  0
 51 53  1  6  0  0  0
 51 44  1  0  0  0  0
 52 45  1  0  0  0  0
 53 55  1  0  0  0  0
 55 54  1  6  0  0  0
 55 56  1  0  0  0  0
 57 56  1  6  0  0  0
 57 61  1  0  0  0  0
 58 59  1  0  0  0  0
 59 62  1  6  0  0  0
 60 57  1  0  0  0  0
 60 61  1  0  0  0  0
 61 58  1  6  0  0  0
 61 59  1  0  0  0  0
 62 63  1  0  0  0  0
M  END
>  <MODEL>
9

>  <REMARK>
 VINA RESULT:      -3.8      3.514      7.576
  Name = 
  24 active torsions:
  status: ('A' for Active; 'I' for Inactive)
    1  A    between atoms: C_1  and  C_49
    2  A    between atoms: C_3  and  C_52
    3  A    between atoms: C_5  and  C_10
    4  A    between atoms: C_5  and  C_26
    5  A    between atoms: C_6  and  O_28
    6  A    between atoms: C_6  and  S_29
    7  A    between atoms: O_8  and  C_21
    8  A    between atoms: O_8  and  C_61
    9  A    between atoms: N_13  and  C_26
   10  A    between atoms: N_13  and  C_58
   11  A    between atoms: C_17  and  C_22
   12  A    between atoms: C_17  and  C_42
   13  A    between atoms: C_18  and  C_43
   14  A    between atoms: O_28  and  C_45
   15  A    between atoms: S_29  and  C_52
   16  A    between atoms: C_30  and  C_59
   17  A    between atoms: C_30  and  C_61
   18  A    between atoms: N_34  and  C_60
   19  A    between atoms: N_34  and  C_63
   20  A    between atoms: C_37  and  C_53
   21  A    between atoms: C_40  and  C_49
   22  A    between atoms: C_40  and  C_60
   23  A    between atoms: C_42  and  C_44
   24  A    between atoms: C_52  and  C_53
                            x       y       z     vdW  Elec       q    Type
                         _______ _______ _______ _____ _____    ______ ____

>  <TORSDO>
F 24

$$$$
