=
 OpenBabel10232411433D

 27 31  0  0  1  0  0  0  0  0999 V2000
  188.6590  178.6960  139.6430 C   0  0  0  0  0  2  0  0  0  0  0  0
  191.5100  176.4300  142.5980 C   0  0  0  0  0  3  0  0  0  0  0  0
  188.2890  176.6460  142.8180 C   0  0  2  0  0  3  0  0  0  0  0  0
  190.1630  177.0150  140.5680 C   0  0  2  0  0  3  0  0  0  0  0  0
  189.0700  177.7430  138.5500 C   0  0  0  0  0  2  0  0  0  0  0  0
  189.1120  178.1340  144.6720 C   0  0  2  0  0  3  0  0  0  0  0  0
  186.1550  177.7830  143.1390 C   0  0  1  0  0  3  0  0  0  0  0  0
  192.5840  176.9910  140.5910 O   0  0  0  0  0  1  0  0  0  0  0  0
  188.2020  177.3970  145.6120 C   0  0  0  0  0  0  0  0  0  0  0  0
  191.4510  177.2710  141.3600 C   0  0  2  0  0  3  0  0  0  0  0  0
  187.9480  177.3960  141.6010 N   0  0  1  0  0  0  0  0  0  0  0  0
  188.3730  177.4520  147.0940 C   0  0  0  0  0  1  0  0  0  0  0  0
  187.0080  178.4130  142.0540 C   0  0  0  0  0  2  0  0  0  0  0  0
  190.6170  176.4550  143.5860 C   0  0  0  0  0  3  0  0  0  0  0  0
  187.2540  176.6840  145.1080 N   0  0  0  0  0  0  0  0  0  0  0  0
  187.0000  176.6190  143.6710 C   0  0  2  0  0  3  0  0  0  0  0  0
  189.4250  177.2480  143.5460 N   0  0  0  0  0  0  0  0  0  0  0  0
  190.3500  177.1300  139.0630 C   0  0  0  0  0  2  0  0  0  0  0  0
  189.0960  178.0470  140.9530 C   0  0  2  0  0  3  0  0  0  0  0  0
  190.3470  178.7400  145.3280 C   0  0  0  0  0  2  0  0  0  0  0  0
  191.0770  179.5860  144.3370 C   0  0  0  0  0  3  0  0  0  0  0  0
  192.3540  179.5280  144.2690 N   0  0  0  0  0  2  0  0  0  0  0  0
  185.7520  178.8270  144.1760 C   0  0  0  0  0  2  0  0  0  0  0  0
  183.3900  179.1210  144.8310 C   0  0  0  0  0  2  0  0  0  0  0  0
  182.3390  178.9450  142.6040 C   0  0  0  0  0  1  0  0  0  0  0  0
  184.4360  179.4770  143.7970 C   0  0  2  0  0  3  0  0  0  0  0  0
  183.4260  178.3910  143.5050 C   0  0  1  0  0  3  0  0  0  0  0  0
  2 14  2  0  0  0  0
  3 17  1  1  0  0  0
  3 16  1  0  0  0  0
  4 18  1  6  0  0  0
  4 19  1  0  0  0  0
  4 10  1  0  0  0  0
  5 18  1  0  0  0  0
  5  1  1  0  0  0  0
  6 20  1  1  0  0  0
  6  9  1  0  0  0  0
  7 16  1  0  0  0  0
  7 23  1  1  0  0  0
  9 12  1  0  0  0  0
 10  8  1  6  0  0  0
 10  2  1  0  0  0  0
 11 13  1  1  0  0  0
 11  3  1  0  0  0  0
 13  7  1  0  0  0  0
 15  9  2  0  0  0  0
 16 15  1  1  0  0  0
 17 14  1  0  0  0  0
 17  6  1  0  0  0  0
 19  1  1  6  0  0  0
 19 11  1  0  0  0  0
 21 20  1  0  0  0  0
 22 21  2  0  0  0  0
 26 23  1  1  0  0  0
 26 24  1  0  0  0  0
 27 25  1  6  0  0  0
 27 26  1  0  0  0  0
 27 24  1  0  0  0  0
M  END
>  <MODEL>
1

>  <REMARK>
 VINA RESULT:      -6.8      0.000      0.000
  Name = 
  4 active torsions:
  status: ('A' for Active; 'I' for Inactive)
    1  A    between atoms: C_5  and  C_8
    2  A    between atoms: C_8  and  C_9
    3  A    between atoms: C_10  and  C_18
    4  A    between atoms: C_18  and  C_20
                            x       y       z     vdW  Elec       q    Type
                         _______ _______ _______ _____ _____    ______ ____

>  <TORSDO>
F 4

$$$$
=
 OpenBabel10232411433D

 27 31  0  0  1  0  0  0  0  0999 V2000
  188.2310  177.9080  138.5260 C   0  0  0  0  0  2  0  0  0  0  0  0
  184.6780  177.2880  135.5280 C   0  0  0  0  0  3  0  0  0  0  0  0
  184.5420  178.7970  138.3860 C   0  0  2  0  0  3  0  0  0  0  0  0
  186.7840  178.1490  136.5790 C   0  0  2  0  0  3  0  0  0  0  0  0
  188.9270  178.7560  137.4920 C   0  0  0  0  0  2  0  0  0  0  0  0
  183.3190  176.6380  138.7960 C   0  0  2  0  0  3  0  0  0  0  0  0
  184.6310  178.9640  140.8180 C   0  0  1  0  0  3  0  0  0  0  0  0
  186.7570  176.8500  134.5370 O   0  0  0  0  0  1  0  0  0  0  0  0
  182.1810  177.4370  139.3610 C   0  0  0  0  0  0  0  0  0  0  0  0
  186.1310  177.0180  135.7740 C   0  0  2  0  0  3  0  0  0  0  0  0
  185.9430  178.7460  138.8270 N   0  0  1  0  0  0  0  0  0  0  0  0
  180.8090  176.8690  139.5220 C   0  0  0  0  0  1  0  0  0  0  0  0
  185.8690  178.3210  140.2190 C   0  0  0  0  0  2  0  0  0  0  0  0
  183.7590  177.4640  136.4750 C   0  0  0  0  0  3  0  0  0  0  0  0
  182.4060  178.6600  139.7020 N   0  0  0  0  0  0  0  0  0  0  0  0
  183.7310  179.2680  139.6150 C   0  0  2  0  0  3  0  0  0  0  0  0
  184.0690  177.4960  137.8730 N   0  0  0  0  0  0  0  0  0  0  0  0
  188.2360  178.3960  136.2000 C   0  0  0  0  0  2  0  0  0  0  0  0
  186.7780  177.8010  138.0730 C   0  0  2  0  0  3  0  0  0  0  0  0
  182.9150  175.3000  138.1890 C   0  0  0  0  0  2  0  0  0  0  0  0
  184.1340  174.4730  137.9410 C   0  0  0  0  0  3  0  0  0  0  0  0
  184.2830  173.8790  136.8170 N   0  0  0  0  0  2  0  0  0  0  0  0
  184.0190  178.0560  141.8810 C   0  0  0  0  0  2  0  0  0  0  0  0
  184.9040  179.7750  143.4150 C   0  0  0  0  0  2  0  0  0  0  0  0
  184.2810  178.7400  145.5690 C   0  0  0  0  0  1  0  0  0  0  0  0
  183.7510  178.8300  143.1570 C   0  0  2  0  0  3  0  0  0  0  0  0
  184.8100  178.4680  144.1730 C   0  0  1  0  0  3  0  0  0  0  0  0
  2 10  1  0  0  0  0
  2 14  2  0  0  0  0
  3 17  1  1  0  0  0
  3 11  1  0  0  0  0
  3 16  1  0  0  0  0
  4 18  1  6  0  0  0
  4 19  1  0  0  0  0
  5  1  1  0  0  0  0
  6 20  1  6  0  0  0
  6  9  1  0  0  0  0
  7 23  1  1  0  0  0
  9 12  1  0  0  0  0
  9 15  2  0  0  0  0
 10  8  1  6  0  0  0
 10  4  1  0  0  0  0
 11 13  1  1  0  0  0
 13  7  1  0  0  0  0
 14 17  1  0  0  0  0
 16 15  1  1  0  0  0
 16  7  1  0  0  0  0
 17  6  1  0  0  0  0
 18  5  1  0  0  0  0
 19  1  1  1  0  0  0
 19 11  1  0  0  0  0
 21 20  1  0  0  0  0
 22 21  2  0  0  0  0
 24 27  1  0  0  0  0
 26 23  1  6  0  0  0
 26 24  1  0  0  0  0
 26 27  1  0  0  0  0
 27 25  1  1  0  0  0
M  END
>  <MODEL>
2

>  <REMARK>
 VINA RESULT:      -6.1      4.328      6.887
  Name = 
  4 active torsions:
  status: ('A' for Active; 'I' for Inactive)
    1  A    between atoms: C_5  and  C_8
    2  A    between atoms: C_8  and  C_9
    3  A    between atoms: C_10  and  C_18
    4  A    between atoms: C_18  and  C_20
                            x       y       z     vdW  Elec       q    Type
                         _______ _______ _______ _____ _____    ______ ____

>  <TORSDO>
F 4

$$$$
=
 OpenBabel10232411433D

 27 31  0  0  1  0  0  0  0  0999 V2000
  192.4890  175.4050  138.6160 C   0  0  0  0  0  2  0  0  0  0  0  0
  189.8070  176.2630  134.8650 C   0  0  0  0  0  3  0  0  0  0  0  0
  189.7180  177.8330  137.6930 C   0  0  2  0  0  3  0  0  0  0  0  0
  191.7790  176.1550  136.4080 C   0  0  2  0  0  3  0  0  0  0  0  0
  193.7010  175.7970  137.8110 C   0  0  0  0  0  2  0  0  0  0  0  0
  187.6050  176.4680  137.7050 C   0  0  2  0  0  3  0  0  0  0  0  0
  189.3230  178.0780  140.0870 C   0  0  1  0  0  3  0  0  0  0  0  0
  191.6370  174.8910  134.3480 O   0  0  0  0  0  1  0  0  0  0  0  0
  186.8470  177.7210  138.0390 C   0  0  0  0  0  0  0  0  0  0  0  0
  190.8910  175.3890  135.4190 C   0  0  2  0  0  3  0  0  0  0  0  0
  190.8110  177.1890  138.4360 N   0  0  1  0  0  0  0  0  0  0  0  0
  185.3690  177.8310  137.8560 C   0  0  0  0  0  1  0  0  0  0  0  0
  190.2450  176.9200  139.7510 C   0  0  0  0  0  2  0  0  0  0  0  0
  188.8750  176.8820  135.5890 C   0  0  0  0  0  3  0  0  0  0  0  0
  187.5090  178.7330  138.4840 N   0  0  0  0  0  0  0  0  0  0  0  0
  188.9480  178.6830  138.7290 C   0  0  2  0  0  3  0  0  0  0  0  0
  188.8440  176.8510  137.0200 N   0  0  0  0  0  0  0  0  0  0  0  0
  193.2320  175.7090  136.3800 C   0  0  0  0  0  2  0  0  0  0  0  0
  191.2840  175.9300  137.8420 C   0  0  2  0  0  3  0  0  0  0  0  0
  186.7960  175.4170  136.9540 C   0  0  0  0  0  2  0  0  0  0  0  0
  187.3430  174.0590  137.2480 C   0  0  0  0  0  3  0  0  0  0  0  0
  186.9030  173.0430  136.6060 N   0  0  0  0  0  2  0  0  0  0  0  0
  188.1500  177.5980  140.9370 C   0  0  0  0  0  2  0  0  0  0  0  0
  188.7670  176.3470  142.9730 C   0  0  0  0  0  2  0  0  0  0  0  0
  187.3580  177.5410  144.6120 C   0  0  0  0  0  1  0  0  0  0  0  0
  188.4720  177.7210  142.4130 C   0  0  2  0  0  3  0  0  0  0  0  0
  187.4130  176.9840  143.2010 C   0  0  1  0  0  3  0  0  0  0  0  0
  2 10  1  0  0  0  0
  2 14  2  0  0  0  0
  3 17  1  1  0  0  0
  3 11  1  0  0  0  0
  3 16  1  0  0  0  0
  4 18  1  1  0  0  0
  4 19  1  0  0  0  0
  5  1  1  0  0  0  0
  6 20  1  6  0  0  0
  6  9  1  0  0  0  0
  7 23  1  6  0  0  0
  9 15  2  0  0  0  0
 10  8  1  6  0  0  0
 10  4  1  0  0  0  0
 11 13  1  1  0  0  0
 12  9  1  0  0  0  0
 13  7  1  0  0  0  0
 14 17  1  0  0  0  0
 16 15  1  6  0  0  0
 16  7  1  0  0  0  0
 17  6  1  0  0  0  0
 18  5  1  0  0  0  0
 19 11  1  0  0  0  0
 19  1  1  1  0  0  0
 20 21  1  0  0  0  0
 22 21  2  0  0  0  0
 24 27  1  0  0  0  0
 26 23  1  6  0  0  0
 26 24  1  0  0  0  0
 26 27  1  0  0  0  0
 27 25  1  1  0  0  0
M  END
>  <MODEL>
3

>  <REMARK>
 VINA RESULT:      -5.9      3.441      6.629
  Name = 
  4 active torsions:
  status: ('A' for Active; 'I' for Inactive)
    1  A    between atoms: C_5  and  C_8
    2  A    between atoms: C_8  and  C_9
    3  A    between atoms: C_10  and  C_18
    4  A    between atoms: C_18  and  C_20
                            x       y       z     vdW  Elec       q    Type
                         _______ _______ _______ _____ _____    ______ ____

>  <TORSDO>
F 4

$$$$
=
 OpenBabel10232411433D

 27 31  0  0  1  0  0  0  0  0999 V2000
  190.4870  176.1810  139.3020 C   0  0  0  0  0  2  0  0  0  0  0  0
  186.9950  178.9530  140.7530 C   0  0  0  0  0  3  0  0  0  0  0  0
  189.7950  178.4250  142.2850 C   0  0  2  0  0  3  0  0  0  0  0  0
  188.9630  178.0750  139.4750 C   0  0  2  0  0  3  0  0  0  0  0  0
  190.6780  177.0820  138.1090 C   0  0  0  0  0  2  0  0  0  0  0  0
  188.1120  177.1800  143.6800 C   0  0  2  0  0  3  0  0  0  0  0  0
  191.4550  177.1040  143.4900 C   0  0  1  0  0  3  0  0  0  0  0  0
  186.7650  178.3490  138.4990 O   0  0  0  0  0  1  0  0  0  0  0  0
  188.6470  177.8920  144.8880 C   0  0  0  0  0  0  0  0  0  0  0  0
  187.4430  178.0160  139.6740 C   0  0  2  0  0  3  0  0  0  0  0  0
  190.5030  177.5510  141.3390 N   0  0  1  0  0  0  0  0  0  0  0  0
  187.8860  177.9720  146.1700 C   0  0  0  0  0  1  0  0  0  0  0  0
  191.0420  176.4820  142.1690 C   0  0  0  0  0  2  0  0  0  0  0  0
  187.4010  178.9150  142.0210 C   0  0  0  0  0  3  0  0  0  0  0  0
  189.8000  178.4620  144.7980 N   0  0  0  0  0  0  0  0  0  0  0  0
  190.6200  178.3870  143.5910 C   0  0  2  0  0  3  0  0  0  0  0  0
  188.3960  178.0030  142.4990 N   0  0  0  0  0  0  0  0  0  0  0  0
  189.3890  177.8610  138.0310 C   0  0  0  0  0  2  0  0  0  0  0  0
  189.6440  176.9720  140.2960 C   0  0  2  0  0  3  0  0  0  0  0  0
  186.6510  176.7580  143.7870 C   0  0  0  0  0  2  0  0  0  0  0  0
  185.8530  177.8650  144.3930 C   0  0  0  0  0  3  0  0  0  0  0  0
  184.7220  178.1870  143.8850 N   0  0  0  0  0  2  0  0  0  0  0  0
  191.2680  176.1090  144.6310 C   0  0  0  0  0  2  0  0  0  0  0  0
  192.3050  175.4380  146.7680 C   0  0  0  0  0  2  0  0  0  0  0  0
  191.3590  177.1860  148.2330 C   0  0  0  0  0  1  0  0  0  0  0  0
  191.9310  176.6160  145.8970 C   0  0  2  0  0  3  0  0  0  0  0  0
  191.0630  176.2460  147.0780 C   0  0  1  0  0  3  0  0  0  0  0  0
  2 14  2  0  0  0  0
  3 17  1  1  0  0  0
  3 16  1  0  0  0  0
  4 18  1  6  0  0  0
  4 10  1  0  0  0  0
  4 19  1  0  0  0  0
  5  1  1  0  0  0  0
  6 20  1  1  0  0  0
  6  9  1  0  0  0  0
  7 16  1  0  0  0  0
  7 23  1  1  0  0  0
  9 12  1  0  0  0  0
 10  8  1  6  0  0  0
 10  2  1  0  0  0  0
 11 13  1  1  0  0  0
 11  3  1  0  0  0  0
 13  7  1  0  0  0  0
 14 17  1  0  0  0  0
 15  9  2  0  0  0  0
 16 15  1  1  0  0  0
 17  6  1  0  0  0  0
 18  5  1  0  0  0  0
 19  1  1  6  0  0  0
 19 11  1  0  0  0  0
 20 21  1  0  0  0  0
 22 21  2  0  0  0  0
 24 27  1  0  0  0  0
 26 23  1  6  0  0  0
 26 24  1  0  0  0  0
 26 27  1  0  0  0  0
 27 25  1  1  0  0  0
M  END
>  <MODEL>
4

>  <REMARK>
 VINA RESULT:      -5.7      2.105      5.201
  Name = 
  4 active torsions:
  status: ('A' for Active; 'I' for Inactive)
    1  A    between atoms: C_5  and  C_8
    2  A    between atoms: C_8  and  C_9
    3  A    between atoms: C_10  and  C_18
    4  A    between atoms: C_18  and  C_20
                            x       y       z     vdW  Elec       q    Type
                         _______ _______ _______ _____ _____    ______ ____

>  <TORSDO>
F 4

$$$$
=
 OpenBabel10232411433D

 27 31  0  0  1  0  0  0  0  0999 V2000
  186.0340  179.3080  146.3380 C   0  0  0  0  0  2  0  0  0  0  0  0
  185.1630  178.0390  141.9080 C   0  0  0  0  0  3  0  0  0  0  0  0
  187.4780  176.8480  143.8310 C   0  0  2  0  0  3  0  0  0  0  0  0
  184.9680  178.2970  144.3930 C   0  0  2  0  0  3  0  0  0  0  0  0
  184.6760  178.7880  146.7310 C   0  0  0  0  0  2  0  0  0  0  0  0
  188.7470  178.2520  142.1740 C   0  0  2  0  0  3  0  0  0  0  0  0
  189.5300  176.9230  145.1460 C   0  0  1  0  0  3  0  0  0  0  0  0
  183.4080  179.2890  142.8300 O   0  0  0  0  0  1  0  0  0  0  0  0
  189.6380  177.0710  141.9180 C   0  0  0  0  0  0  0  0  0  0  0  0
  184.7490  178.9500  143.0220 C   0  0  2  0  0  3  0  0  0  0  0  0
  187.2220  177.5560  145.0930 N   0  0  1  0  0  0  0  0  0  0  0  0
  190.5040  176.9740  140.7060 C   0  0  0  0  0  1  0  0  0  0  0  0
  188.5380  178.0060  145.5280 C   0  0  0  0  0  2  0  0  0  0  0  0
  186.3870  177.5400  141.7390 C   0  0  0  0  0  3  0  0  0  0  0  0
  189.6360  176.1100  142.7760 N   0  0  0  0  0  0  0  0  0  0  0  0
  188.8490  176.1570  144.0060 C   0  0  2  0  0  3  0  0  0  0  0  0
  187.4580  177.7560  142.6660 N   0  0  0  0  0  0  0  0  0  0  0  0
  183.9260  178.7010  145.4240 C   0  0  0  0  0  2  0  0  0  0  0  0
  186.3290  178.7170  144.9630 C   0  0  2  0  0  3  0  0  0  0  0  0
  188.6180  179.2160  141.0000 C   0  0  0  0  0  2  0  0  0  0  0  0
  188.3240  178.4500  139.7520 C   0  0  0  0  0  3  0  0  0  0  0  0
  188.6180  178.9530  138.6120 N   0  0  0  0  0  2  0  0  0  0  0  0
  190.8850  177.5360  144.8060 C   0  0  0  0  0  2  0  0  0  0  0  0
  191.9820  175.4150  145.4310 C   0  0  0  0  0  2  0  0  0  0  0  0
  192.2920  175.8280  147.8460 C   0  0  0  0  0  1  0  0  0  0  0  0
  191.9820  176.9120  145.6470 C   0  0  2  0  0  3  0  0  0  0  0  0
  191.3450  176.0020  146.6730 C   0  0  1  0  0  3  0  0  0  0  0  0
  1  5  1  0  0  0  0
  2 10  1  0  0  0  0
  3 17  1  6  0  0  0
  3 16  1  0  0  0  0
  3 11  1  0  0  0  0
  4 19  1  0  0  0  0
  4 18  1  1  0  0  0
  6 20  1  6  0  0  0
  6 17  1  0  0  0  0
  7 23  1  6  0  0  0
  7 13  1  0  0  0  0
  9  6  1  0  0  0  0
  9 15  2  0  0  0  0
 10  8  1  6  0  0  0
 10  4  1  0  0  0  0
 11 13  1  6  0  0  0
 12  9  1  0  0  0  0
 14  2  2  0  0  0  0
 14 17  1  0  0  0  0
 16 15  1  6  0  0  0
 16  7  1  0  0  0  0
 18  5  1  0  0  0  0
 19 11  1  0  0  0  0
 19  1  1  1  0  0  0
 21 20  1  0  0  0  0
 22 21  2  0  0  0  0
 24 26  1  0  0  0  0
 24 27  1  0  0  0  0
 26 23  1  6  0  0  0
 26 27  1  0  0  0  0
 27 25  1  1  0  0  0
M  END
>  <MODEL>
5

>  <REMARK>
 VINA RESULT:      -5.6      2.596      6.472
  Name = 
  4 active torsions:
  status: ('A' for Active; 'I' for Inactive)
    1  A    between atoms: C_5  and  C_8
    2  A    between atoms: C_8  and  C_9
    3  A    between atoms: C_10  and  C_18
    4  A    between atoms: C_18  and  C_20
                            x       y       z     vdW  Elec       q    Type
                         _______ _______ _______ _____ _____    ______ ____

>  <TORSDO>
F 4

$$$$
=
 OpenBabel10232411433D

 27 31  0  0  1  0  0  0  0  0999 V2000
  190.6470  176.9660  140.5720 C   0  0  0  0  0  2  0  0  0  0  0  0
  191.6790  175.5860  136.2100 C   0  0  0  0  0  3  0  0  0  0  0  0
  189.3830  177.6990  137.0670 C   0  0  2  0  0  3  0  0  0  0  0  0
  191.8050  176.7210  138.4410 C   0  0  2  0  0  3  0  0  0  0  0  0
  192.0200  177.5780  140.6810 C   0  0  0  0  0  2  0  0  0  0  0  0
  188.0850  175.6550  136.3850 C   0  0  2  0  0  3  0  0  0  0  0  0
  187.3000  178.4130  138.1160 C   0  0  1  0  0  3  0  0  0  0  0  0
  193.3510  174.9930  137.7440 O   0  0  0  0  0  1  0  0  0  0  0  0
  187.2590  176.5290  135.4880 C   0  0  0  0  0  0  0  0  0  0  0  0
  192.0230  175.4200  137.6590 C   0  0  2  0  0  3  0  0  0  0  0  0
  189.5750  177.7880  138.5210 N   0  0  1  0  0  0  0  0  0  0  0  0
  186.4260  175.9740  134.3790 C   0  0  0  0  0  1  0  0  0  0  0  0
  188.2290  177.6860  139.0700 C   0  0  0  0  0  2  0  0  0  0  0  0
  190.4860  175.9460  135.7410 C   0  0  0  0  0  3  0  0  0  0  0  0
  187.2880  177.8030  135.6830 N   0  0  0  0  0  0  0  0  0  0  0  0
  188.0430  178.4120  136.7750 C   0  0  2  0  0  3  0  0  0  0  0  0
  189.3850  176.3020  136.5860 N   0  0  0  0  0  0  0  0  0  0  0  0
  192.8020  176.9160  139.5730 C   0  0  0  0  0  2  0  0  0  0  0  0
  190.4130  176.7200  139.0850 C   0  0  2  0  0  3  0  0  0  0  0  0
  188.1930  174.2030  135.9340 C   0  0  0  0  0  2  0  0  0  0  0  0
  187.5970  173.3090  136.9710 C   0  0  0  0  0  3  0  0  0  0  0  0
  186.3840  173.4850  137.3420 N   0  0  0  0  0  2  0  0  0  0  0  0
  185.9250  177.7520  138.1020 C   0  0  0  0  0  2  0  0  0  0  0  0
  184.7290  178.8430  139.9660 C   0  0  0  0  0  2  0  0  0  0  0  0
  182.4430  178.8230  139.0330 C   0  0  0  0  0  1  0  0  0  0  0  0
  184.8450  178.7560  138.4600 C   0  0  2  0  0  3  0  0  0  0  0  0
  183.7280  178.0290  139.1740 C   0  0  1  0  0  3  0  0  0  0  0  0
  1  5  1  0  0  0  0
  2 10  1  0  0  0  0
  3 17  1  1  0  0  0
  3 11  1  0  0  0  0
  4 19  1  0  0  0  0
  4 18  1  1  0  0  0
  6 20  1  6  0  0  0
  6 17  1  0  0  0  0
  7 23  1  6  0  0  0
  7 13  1  0  0  0  0
  9 15  2  0  0  0  0
  9  6  1  0  0  0  0
 10  8  1  6  0  0  0
 10  4  1  0  0  0  0
 11 13  1  1  0  0  0
 11 19  1  0  0  0  0
 12  9  1  0  0  0  0
 14  2  2  0  0  0  0
 14 17  1  0  0  0  0
 16 15  1  6  0  0  0
 16  3  1  0  0  0  0
 16  7  1  0  0  0  0
 18  5  1  0  0  0  0
 19  1  1  1  0  0  0
 20 21  1  0  0  0  0
 21 22  2  0  0  0  0
 26 23  1  1  0  0  0
 26 27  1  0  0  0  0
 26 24  1  0  0  0  0
 27 25  1  6  0  0  0
 27 24  1  0  0  0  0
M  END
>  <MODEL>
6

>  <REMARK>
 VINA RESULT:      -5.3      4.099      6.841
  Name = 
  4 active torsions:
  status: ('A' for Active; 'I' for Inactive)
    1  A    between atoms: C_5  and  C_8
    2  A    between atoms: C_8  and  C_9
    3  A    between atoms: C_10  and  C_18
    4  A    between atoms: C_18  and  C_20
                            x       y       z     vdW  Elec       q    Type
                         _______ _______ _______ _____ _____    ______ ____

>  <TORSDO>
F 4

$$$$
=
 OpenBabel10232411433D

 27 31  0  0  1  0  0  0  0  0999 V2000
  184.7420  179.5470  143.0930 C   0  0  0  0  0  2  0  0  0  0  0  0
  180.3310  178.6270  141.7960 C   0  0  0  0  0  3  0  0  0  0  0  0
  183.0230  177.6450  140.2920 C   0  0  2  0  0  3  0  0  0  0  0  0
  182.5040  178.5840  143.0420 C   0  0  2  0  0  3  0  0  0  0  0  0
  184.5090  178.7670  144.3620 C   0  0  0  0  0  2  0  0  0  0  0  0
  182.0960  179.4110  138.7580 C   0  0  2  0  0  3  0  0  0  0  0  0
  185.0860  177.9240  139.0220 C   0  0  1  0  0  3  0  0  0  0  0  0
  180.4530  179.4590  143.9840 O   0  0  0  0  0  1  0  0  0  0  0  0
  182.2130  178.4300  137.6270 C   0  0  0  0  0  0  0  0  0  0  0  0
  181.1870  179.3320  142.8020 C   0  0  2  0  0  3  0  0  0  0  0  0
  184.0750  178.1620  141.1790 N   0  0  1  0  0  0  0  0  0  0  0  0
  181.4800  178.6090  136.3390 C   0  0  0  0  0  1  0  0  0  0  0  0
  185.0380  178.7770  140.2760 C   0  0  0  0  0  2  0  0  0  0  0  0
  180.6840  178.3620  140.5390 C   0  0  0  0  0  3  0  0  0  0  0  0
  182.9650  177.3960  137.7930 N   0  0  0  0  0  0  0  0  0  0  0  0
  183.7450  177.1800  139.0080 C   0  0  2  0  0  3  0  0  0  0  0  0
  181.9820  178.6550  140.0100 N   0  0  0  0  0  0  0  0  0  0  0  0
  183.0060  178.6950  144.4740 C   0  0  0  0  0  2  0  0  0  0  0  0
  183.6080  179.1630  142.1490 C   0  0  2  0  0  3  0  0  0  0  0  0
  181.0040  180.4590  138.5810 C   0  0  0  0  0  2  0  0  0  0  0  0
  181.6230  181.8130  138.4710 C   0  0  0  0  0  3  0  0  0  0  0  0
  181.1010  182.6910  137.6980 N   0  0  0  0  0  2  0  0  0  0  0  0
  185.3680  178.7880  137.7970 C   0  0  0  0  0  2  0  0  0  0  0  0
  187.1050  177.0360  137.7330 C   0  0  0  0  0  2  0  0  0  0  0  0
  188.9830  178.3740  136.8520 C   0  0  0  0  0  1  0  0  0  0  0  0
  186.5210  178.2190  136.9940 C   0  0  2  0  0  3  0  0  0  0  0  0
  187.7940  178.3820  137.7940 C   0  0  1  0  0  3  0  0  0  0  0  0
  1  5  1  0  0  0  0
  2 10  1  0  0  0  0
  3 17  1  6  0  0  0
  3 11  1  0  0  0  0
  4 18  1  1  0  0  0
  5 18  1  0  0  0  0
  6 20  1  6  0  0  0
  6 17  1  0  0  0  0
  7 23  1  6  0  0  0
  7 13  1  0  0  0  0
  9 15  2  0  0  0  0
  9  6  1  0  0  0  0
 10  4  1  0  0  0  0
 10  8  1  1  0  0  0
 11 13  1  6  0  0  0
 11 19  1  0  0  0  0
 12  9  1  0  0  0  0
 14  2  2  0  0  0  0
 16 15  1  6  0  0  0
 16  7  1  0  0  0  0
 16  3  1  0  0  0  0
 17 14  1  0  0  0  0
 19  4  1  0  0  0  0
 19  1  1  1  0  0  0
 21 20  1  0  0  0  0
 22 21  2  0  0  0  0
 24 27  1  0  0  0  0
 26 24  1  0  0  0  0
 26 27  1  0  0  0  0
 26 23  1  1  0  0  0
 27 25  1  6  0  0  0
M  END
>  <MODEL>
7

>  <REMARK>
 VINA RESULT:      -5.3      4.963      8.872
  Name = 
  4 active torsions:
  status: ('A' for Active; 'I' for Inactive)
    1  A    between atoms: C_5  and  C_8
    2  A    between atoms: C_8  and  C_9
    3  A    between atoms: C_10  and  C_18
    4  A    between atoms: C_18  and  C_20
                            x       y       z     vdW  Elec       q    Type
                         _______ _______ _______ _____ _____    ______ ____

>  <TORSDO>
F 4

$$$$
=
 OpenBabel10232411433D

 27 31  0  0  1  0  0  0  0  0999 V2000
  189.7640  178.3220  146.9470 C   0  0  0  0  0  2  0  0  0  0  0  0
  185.7750  177.6150  144.5850 C   0  0  0  0  0  3  0  0  0  0  0  0
  188.7150  176.5450  143.7600 C   0  0  2  0  0  3  0  0  0  0  0  0
  187.5720  177.4570  146.3240 C   0  0  2  0  0  3  0  0  0  0  0  0
  189.1970  177.5310  148.0980 C   0  0  0  0  0  2  0  0  0  0  0  0
  188.2600  178.3750  142.0950 C   0  0  2  0  0  3  0  0  0  0  0  0
  191.0360  176.7570  143.0410 C   0  0  1  0  0  3  0  0  0  0  0  0
  185.3870  178.4030  146.7590 O   0  0  0  0  0  1  0  0  0  0  0  0
  188.6140  177.4110  141.0000 C   0  0  0  0  0  0  0  0  0  0  0  0
  186.3830  178.2650  145.7900 C   0  0  2  0  0  3  0  0  0  0  0  0
  189.5350  177.0000  144.8900 N   0  0  1  0  0  0  0  0  0  0  0  0
  188.2270  177.6430  139.5770 C   0  0  0  0  0  1  0  0  0  0  0  0
  190.7130  177.5890  144.2680 C   0  0  0  0  0  2  0  0  0  0  0  0
  186.4150  177.3570  143.4460 C   0  0  0  0  0  3  0  0  0  0  0  0
  189.2630  176.3420  141.3160 N   0  0  0  0  0  0  0  0  0  0  0  0
  189.7120  176.0720  142.6790 C   0  0  2  0  0  3  0  0  0  0  0  0
  187.8140  177.6030  143.2590 N   0  0  0  0  0  0  0  0  0  0  0  0
  187.7110  177.5210  147.8370 C   0  0  0  0  0  2  0  0  0  0  0  0
  188.8820  178.0030  145.7440 C   0  0  2  0  0  3  0  0  0  0  0  0
  187.2850  179.4720  141.6840 C   0  0  0  0  0  2  0  0  0  0  0  0
  186.0170  178.8560  141.1910 C   0  0  0  0  0  3  0  0  0  0  0  0
  185.2280  179.5340  140.4440 N   0  0  0  0  0  2  0  0  0  0  0  0
  191.6420  177.6300  141.9460 C   0  0  0  0  0  2  0  0  0  0  0  0
  193.3510  177.5770  140.1660 C   0  0  0  0  0  2  0  0  0  0  0  0
  192.0940  176.3260  138.4480 C   0  0  0  0  0  1  0  0  0  0  0  0
  192.2820  176.7730  140.8710 C   0  0  2  0  0  3  0  0  0  0  0  0
  191.9930  177.3930  139.5230 C   0  0  1  0  0  3  0  0  0  0  0  0
  1  5  1  0  0  0  0
  2 10  1  0  0  0  0
  3 17  1  6  0  0  0
  3 11  1  0  0  0  0
  4 18  1  1  0  0  0
  6 20  1  6  0  0  0
  6 17  1  0  0  0  0
  7 23  1  6  0  0  0
  7 13  1  0  0  0  0
  9 15  2  0  0  0  0
  9  6  1  0  0  0  0
 10  4  1  0  0  0  0
 10  8  1  1  0  0  0
 11 13  1  6  0  0  0
 11 19  1  0  0  0  0
 12  9  1  0  0  0  0
 14  2  2  0  0  0  0
 16 15  1  6  0  0  0
 16  7  1  0  0  0  0
 16  3  1  0  0  0  0
 17 14  1  0  0  0  0
 18  5  1  0  0  0  0
 19  4  1  0  0  0  0
 19  1  1  1  0  0  0
 21 20  1  0  0  0  0
 22 21  2  0  0  0  0
 24 26  1  0  0  0  0
 26 23  1  1  0  0  0
 27 25  1  6  0  0  0
 27 24  1  0  0  0  0
 27 26  1  0  0  0  0
M  END
>  <MODEL>
8

>  <REMARK>
 VINA RESULT:      -5.3      2.572      6.772
  Name = 
  4 active torsions:
  status: ('A' for Active; 'I' for Inactive)
    1  A    between atoms: C_5  and  C_8
    2  A    between atoms: C_8  and  C_9
    3  A    between atoms: C_10  and  C_18
    4  A    between atoms: C_18  and  C_20
                            x       y       z     vdW  Elec       q    Type
                         _______ _______ _______ _____ _____    ______ ____

>  <TORSDO>
F 4

$$$$
=
 OpenBabel10232411433D

 27 31  0  0  1  0  0  0  0  0999 V2000
  187.0670  177.8690  141.3110 C   0  0  0  0  0  2  0  0  0  0  0  0
  191.4940  176.9140  140.0970 C   0  0  0  0  0  3  0  0  0  0  0  0
  189.2730  178.3900  138.2650 C   0  0  2  0  0  3  0  0  0  0  0  0
  189.4980  177.9740  141.1780 C   0  0  2  0  0  3  0  0  0  0  0  0
  187.5830  178.7860  142.3900 C   0  0  0  0  0  2  0  0  0  0  0  0
  189.4980  176.1190  137.2080 C   0  0  2  0  0  3  0  0  0  0  0  0
  187.2120  178.5550  136.9710 C   0  0  1  0  0  3  0  0  0  0  0  0
  191.1420  176.6870  142.4030 O   0  0  0  0  0  1  0  0  0  0  0  0
  189.7020  176.8000  135.8860 C   0  0  0  0  0  0  0  0  0  0  0  0
  190.4700  176.7880  141.1830 C   0  0  2  0  0  3  0  0  0  0  0  0
  188.1280  178.4770  139.1810 N   0  0  1  0  0  0  0  0  0  0  0  0
  190.2990  176.0970  134.7110 C   0  0  0  0  0  1  0  0  0  0  0  0
  186.9910  178.0410  138.3810 C   0  0  0  0  0  2  0  0  0  0  0  0
  191.2260  176.9940  138.7940 C   0  0  0  0  0  3  0  0  0  0  0  0
  189.3570  178.0370  135.7790 N   0  0  0  0  0  0  0  0  0  0  0  0
  188.7260  178.7730  136.8710 C   0  0  2  0  0  3  0  0  0  0  0  0
  189.8940  177.0510  138.2700 N   0  0  0  0  0  0  0  0  0  0  0  0
  189.0210  178.3650  142.5690 C   0  0  0  0  0  2  0  0  0  0  0  0
  188.2420  177.6210  140.3720 C   0  0  2  0  0  3  0  0  0  0  0  0
  190.1580  174.7500  137.3260 C   0  0  0  0  0  2  0  0  0  0  0  0
  189.1710  173.6860  136.9710 C   0  0  0  0  0  3  0  0  0  0  0  0
  189.4150  172.8900  135.9980 N   0  0  0  0  0  2  0  0  0  0  0  0
  186.6220  177.5870  135.9500 C   0  0  0  0  0  2  0  0  0  0  0  0
  185.9790  175.2190  135.6770 C   0  0  0  0  0  2  0  0  0  0  0  0
  183.8350  175.2480  136.8990 C   0  0  0  0  0  1  0  0  0  0  0  0
  186.0150  176.3820  136.6430 C   0  0  2  0  0  3  0  0  0  0  0  0
  184.7240  176.0220  135.9440 C   0  0  1  0  0  3  0  0  0  0  0  0
  1  5  1  0  0  0  0
  2 10  1  0  0  0  0
  3 17  1  6  0  0  0
  3 11  1  0  0  0  0
  4 10  1  0  0  0  0
  4 18  1  1  0  0  0
  5 18  1  0  0  0  0
  6 20  1  6  0  0  0
  6 17  1  0  0  0  0
  7 23  1  6  0  0  0
  7 13  1  0  0  0  0
  9  6  1  0  0  0  0
 10  8  1  1  0  0  0
 11 13  1  6  0  0  0
 11 19  1  0  0  0  0
 12  9  1  0  0  0  0
 14  2  2  0  0  0  0
 15  9  2  0  0  0  0
 16 15  1  6  0  0  0
 16  7  1  0  0  0  0
 16  3  1  0  0  0  0
 17 14  1  0  0  0  0
 19  4  1  0  0  0  0
 19  1  1  1  0  0  0
 21 20  1  0  0  0  0
 22 21  2  0  0  0  0
 24 27  1  0  0  0  0
 24 26  1  0  0  0  0
 26 23  1  6  0  0  0
 27 26  1  0  0  0  0
 27 25  1  1  0  0  0
M  END
>  <MODEL>
9

>  <REMARK>
 VINA RESULT:      -5.3      3.427      6.943
  Name = 
  4 active torsions:
  status: ('A' for Active; 'I' for Inactive)
    1  A    between atoms: C_5  and  C_8
    2  A    between atoms: C_8  and  C_9
    3  A    between atoms: C_10  and  C_18
    4  A    between atoms: C_18  and  C_20
                            x       y       z     vdW  Elec       q    Type
                         _______ _______ _______ _____ _____    ______ ____

>  <TORSDO>
F 4

$$$$
