=
 OpenBabel10232412333D

 29 31  0  0  1  0  0  0  0  0999 V2000
  189.0640  178.9890  137.3640 S   0  0  0  0  0  0  0  0  0  0  0  0
  190.0660  176.4830  136.8510 C   0  0  0  0  0  2  0  0  0  0  0  0
  190.1440  176.0950  138.3230 C   0  0  2  0  0  3  0  0  0  0  0  0
  190.3170  177.3410  139.2050 C   0  0  1  0  0  3  0  0  0  0  0  0
  188.8500  177.3550  136.5840 C   0  0  0  0  0  2  0  0  0  0  0  0
  189.1530  178.3360  139.0660 C   0  0  2  0  0  3  0  0  0  0  0  0
  191.2230  175.2270  138.4970 O   0  0  0  0  0  1  0  0  0  0  0  0
  190.5980  177.0100  140.6420 C   0  0  0  0  0  0  0  0  0  0  0  0
  189.9140  176.1200  141.2120 O   0  0  0  0  0  0  0  0  0  0  0  0
  191.6560  177.6710  141.3440 N   0  0  0  0  0  2  0  0  0  0  0  0
  191.9540  177.4120  142.7460 C   0  0  0  0  0  2  0  0  0  0  0  0
  191.3400  178.4900  143.6310 C   0  0  0  0  0  2  0  0  0  0  0  0
  190.6940  177.8950  144.8760 C   0  0  0  0  0  2  0  0  0  0  0  0
  191.5640  176.8080  145.4860 C   0  0  0  0  0  2  0  0  0  0  0  0
  192.2620  175.6790  147.5740 C   0  0  0  0  0  1  0  0  0  0  0  0
  191.3300  176.7140  146.9820 C   0  0  0  0  0  2  0  0  0  0  0  0
  187.7970  177.7670  139.4860 C   0  0  0  0  0  2  0  0  0  0  0  0
  187.0070  178.7800  140.1780 N   0  0  0  0  0  2  0  0  0  0  0  0
  186.4610  178.6120  141.4920 C   0  0  0  0  0  0  0  0  0  0  0  0
  187.1720  177.9620  142.4450 C   0  0  0  0  0  3  0  0  0  0  0  0
  184.8400  178.3230  145.3950 N   0  0  0  0  0  0  0  0  0  0  0  0
  185.0790  179.1980  141.7700 C   0  0  0  0  0  0  0  0  0  0  0  0
  186.6750  177.7860  143.8290 C   0  0  0  0  0  0  0  0  0  0  0  0
  185.4960  178.3100  144.1420 C   0  0  0  0  0  0  0  0  0  0  0  0
  184.6940  179.0210  143.2080 C   0  0  0  0  0  0  0  0  0  0  0  0
  184.0470  178.5270  140.8800 C   0  0  0  0  0  1  0  0  0  0  0  0
  187.4580  177.0990  144.7980 N   0  0  0  0  0  1  0  0  0  0  0  0
  183.6310  179.4540  143.7930 N   0  0  0  0  0  0  0  0  0  0  0  0
  183.7540  179.0010  145.1540 C   0  0  0  0  0  2  0  0  0  0  0  0
  1  6  1  0  0  0  0
  2  3  1  0  0  0  0
  3  7  1  6  0  0  0
  3  4  1  0  0  0  0
  4  8  1  1  0  0  0
  5  2  1  0  0  0  0
  5  1  1  0  0  0  0
  6  4  1  0  0  0  0
  6 17  1  6  0  0  0
  8  9  2  0  0  0  0
  8 10  1  0  0  0  0
 10 11  1  0  0  0  0
 11 12  1  0  0  0  0
 12 13  1  0  0  0  0
 13 14  1  0  0  0  0
 14 16  1  0  0  0  0
 16 15  1  0  0  0  0
 17 18  1  0  0  0  0
 18 19  1  0  0  0  0
 19 22  2  0  0  0  0
 19 20  1  0  0  0  0
 20 23  2  0  0  0  0
 22 25  1  0  0  0  0
 23 24  1  0  0  0  0
 23 27  1  0  0  0  0
 24 21  2  0  0  0  0
 25 28  2  0  0  0  0
 25 24  1  0  0  0  0
 26 22  1  0  0  0  0
 28 29  1  0  0  0  0
 29 21  1  0  0  0  0
M  END
>  <MODEL>
1

>  <REMARK>
 VINA RESULT:      -7.8      0.000      0.000
  Name = 
  9 active torsions:
  status: ('A' for Active; 'I' for Inactive)
    1  A    between atoms: C_1  and  C_24
    2  A    between atoms: C_2  and  N_5
    3  A    between atoms: C_3  and  C_17
    4  A    between atoms: C_3  and  C_19
    5  A    between atoms: N_5  and  C_6
    6  A    between atoms: C_6  and  C_26
    7  A    between atoms: N_16  and  C_19
    8  A    between atoms: C_17  and  C_23
    9  A    between atoms: C_23  and  C_29
                            x       y       z     vdW  Elec       q    Type
                         _______ _______ _______ _____ _____    ______ ____

>  <TORSDO>
F 9

$$$$
=
 OpenBabel10232412333D

 29 31  0  0  1  0  0  0  0  0999 V2000
  191.1630  178.7530  144.1330 S   0  0  0  0  0  0  0  0  0  0  0  0
  190.9720  177.0840  146.3070 C   0  0  0  0  0  2  0  0  0  0  0  0
  189.4960  176.7800  146.0800 C   0  0  2  0  0  3  0  0  0  0  0  0
  188.8080  177.9420  145.3470 C   0  0  1  0  0  3  0  0  0  0  0  0
  191.7040  177.2340  144.9840 C   0  0  0  0  0  2  0  0  0  0  0  0
  189.4240  178.2240  143.9670 C   0  0  2  0  0  3  0  0  0  0  0  0
  188.8900  176.5660  147.3190 O   0  0  0  0  0  1  0  0  0  0  0  0
  187.3170  177.7890  145.2710 C   0  0  0  0  0  0  0  0  0  0  0  0
  186.8280  176.8820  144.5470 O   0  0  0  0  0  0  0  0  0  0  0  0
  186.4610  178.6390  146.0410 N   0  0  0  0  0  2  0  0  0  0  0  0
  185.0080  178.5570  145.9830 C   0  0  0  0  0  2  0  0  0  0  0  0
  184.4630  179.4650  144.8880 C   0  0  0  0  0  2  0  0  0  0  0  0
  183.4530  178.7410  144.0070 C   0  0  0  0  0  2  0  0  0  0  0  0
  184.0620  178.3530  142.6690 C   0  0  0  0  0  2  0  0  0  0  0  0
  185.7300  178.9510  140.9430 C   0  0  0  0  0  1  0  0  0  0  0  0
  185.2570  179.2320  142.3520 C   0  0  0  0  0  2  0  0  0  0  0  0
  189.3190  177.0520  142.9890 C   0  0  0  0  0  2  0  0  0  0  0  0
  189.0840  177.5340  141.6330 N   0  0  0  0  0  2  0  0  0  0  0  0
  189.9580  177.2770  140.5270 C   0  0  0  0  0  0  0  0  0  0  0  0
  191.3010  177.3530  140.6910 C   0  0  0  0  0  3  0  0  0  0  0  0
  192.4630  176.3240  137.2460 N   0  0  0  0  0  0  0  0  0  0  0  0
  189.3240  176.9070  139.1890 C   0  0  0  0  0  0  0  0  0  0  0  0
  192.2540  177.0670  139.5940 C   0  0  0  0  0  0  0  0  0  0  0  0
  191.7640  176.6990  138.4170 C   0  0  2  0  0  3  0  0  0  0  0  0
  190.3690  176.5790  138.1650 C   0  0  0  0  0  0  0  0  0  0  0  0
  188.4660  178.0570  138.6900 C   0  0  0  0  0  1  0  0  0  0  0  0
  193.6580  177.1560  139.8130 N   0  0  0  0  0  1  0  0  0  0  0  0
  190.1820  176.1650  136.9600 N   0  0  0  0  0  0  0  0  0  0  0  0
  191.5080  176.0170  136.4150 C   0  0  0  0  0  3  0  0  0  0  0  0
  1  5  1  0  0  0  0
  3  2  1  0  0  0  0
  3  7  1  1  0  0  0
  4  8  1  6  0  0  0
  4  3  1  0  0  0  0
  5  2  1  0  0  0  0
  6 17  1  6  0  0  0
  6  1  1  0  0  0  0
  6  4  1  0  0  0  0
  8 10  1  0  0  0  0
  9  8  2  0  0  0  0
 11 10  1  0  0  0  0
 12 11  1  0  0  0  0
 13 12  1  0  0  0  0
 14 13  1  0  0  0  0
 15 16  1  0  0  0  0
 16 14  1  0  0  0  0
 18 17  1  0  0  0  0
 19 20  1  0  0  0  0
 19 18  1  0  0  0  0
 22 19  2  0  0  0  0
 23 27  1  0  0  0  0
 23 20  2  0  0  0  0
 24 21  1  1  0  0  0
 24 23  1  0  0  0  0
 25 24  1  0  0  0  0
 25 22  1  0  0  0  0
 26 22  1  0  0  0  0
 28 25  2  0  0  0  0
 29 28  1  0  0  0  0
 29 21  2  0  0  0  0
M  END
>  <MODEL>
2

>  <REMARK>
 VINA RESULT:      -7.5      2.693      7.577
  Name = 
  9 active torsions:
  status: ('A' for Active; 'I' for Inactive)
    1  A    between atoms: C_1  and  C_24
    2  A    between atoms: C_2  and  N_5
    3  A    between atoms: C_3  and  C_17
    4  A    between atoms: C_3  and  C_19
    5  A    between atoms: N_5  and  C_6
    6  A    between atoms: C_6  and  C_26
    7  A    between atoms: N_16  and  C_19
    8  A    between atoms: C_17  and  C_23
    9  A    between atoms: C_23  and  C_29
                            x       y       z     vdW  Elec       q    Type
                         _______ _______ _______ _____ _____    ______ ____

>  <TORSDO>
F 9

$$$$
=
 OpenBabel10232412333D

 29 31  0  0  1  0  0  0  0  0999 V2000
  188.8250  178.8380  137.3240 S   0  0  0  0  0  0  0  0  0  0  0  0
  189.8440  176.3340  136.8380 C   0  0  0  0  0  2  0  0  0  0  0  0
  190.1290  176.0460  138.3070 C   0  0  2  0  0  3  0  0  0  0  0  0
  190.3700  177.3530  139.0800 C   0  0  1  0  0  3  0  0  0  0  0  0
  188.5720  177.1510  136.6820 C   0  0  0  0  0  2  0  0  0  0  0  0
  189.1620  178.3020  139.0360 C   0  0  2  0  0  3  0  0  0  0  0  0
  191.2540  175.2230  138.3890 O   0  0  0  0  0  1  0  0  0  0  0  0
  190.8500  177.1260  140.4830 C   0  0  0  0  0  0  0  0  0  0  0  0
  191.8850  177.7220  140.8830 O   0  0  0  0  0  0  0  0  0  0  0  0
  190.1200  176.2720  141.3700 N   0  0  0  0  0  2  0  0  0  0  0  0
  190.5560  175.9900  142.7310 C   0  0  0  0  0  2  0  0  0  0  0  0
  189.6260  176.6530  143.7390 C   0  0  0  0  0  2  0  0  0  0  0  0
  190.3980  177.4840  144.7560 C   0  0  0  0  0  2  0  0  0  0  0  0
  191.4820  176.6620  145.4340 C   0  0  0  0  0  2  0  0  0  0  0  0
  192.3150  175.7410  147.5740 C   0  0  0  0  0  1  0  0  0  0  0  0
  191.2420  176.5910  146.9300 C   0  0  0  0  0  2  0  0  0  0  0  0
  187.8950  177.7240  139.6680 C   0  0  0  0  0  2  0  0  0  0  0  0
  187.0380  178.7920  140.1700 N   0  0  0  0  0  2  0  0  0  0  0  0
  186.1730  178.6610  141.3060 C   0  0  0  0  0  0  0  0  0  0  0  0
  186.6820  178.2940  142.5070 C   0  0  0  0  0  3  0  0  0  0  0  0
  183.5700  178.4770  144.6430 N   0  0  0  0  0  0  0  0  0  0  0  0
  184.6900  178.9610  141.1100 C   0  0  0  0  0  0  0  0  0  0  0  0
  185.8450  178.1740  143.7230 C   0  0  0  0  0  0  0  0  0  0  0  0
  184.5530  178.4630  143.6250 C   0  0  0  0  0  0  0  0  0  0  0  0
  183.9420  178.8710  142.4070 C   0  0  0  0  0  0  0  0  0  0  0  0
  184.0950  177.9850  140.1100 C   0  0  0  0  0  1  0  0  0  0  0  0
  186.4220  177.7900  144.9650 N   0  0  0  0  0  1  0  0  0  0  0  0
  182.6970  179.1270  142.6120 N   0  0  0  0  0  0  0  0  0  0  0  0
  182.4980  178.8700  144.0160 C   0  0  0  0  0  2  0  0  0  0  0  0
  1  6  1  0  0  0  0
  2  3  1  0  0  0  0
  3  7  1  6  0  0  0
  3  4  1  0  0  0  0
  4  8  1  1  0  0  0
  5  2  1  0  0  0  0
  5  1  1  0  0  0  0
  6  4  1  0  0  0  0
  6 17  1  6  0  0  0
  8  9  2  0  0  0  0
  8 10  1  0  0  0  0
 10 11  1  0  0  0  0
 11 12  1  0  0  0  0
 12 13  1  0  0  0  0
 13 14  1  0  0  0  0
 14 16  1  0  0  0  0
 16 15  1  0  0  0  0
 17 18  1  0  0  0  0
 18 19  1  0  0  0  0
 19 20  1  0  0  0  0
 20 23  2  0  0  0  0
 22 19  2  0  0  0  0
 22 25  1  0  0  0  0
 23 27  1  0  0  0  0
 24 23  1  0  0  0  0
 24 21  2  0  0  0  0
 25 28  2  0  0  0  0
 25 24  1  0  0  0  0
 26 22  1  0  0  0  0
 28 29  1  0  0  0  0
 29 21  1  0  0  0  0
M  END
>  <MODEL>
3

>  <REMARK>
 VINA RESULT:      -7.5      1.054      1.119
  Name = 
  9 active torsions:
  status: ('A' for Active; 'I' for Inactive)
    1  A    between atoms: C_1  and  C_24
    2  A    between atoms: C_2  and  N_5
    3  A    between atoms: C_3  and  C_17
    4  A    between atoms: C_3  and  C_19
    5  A    between atoms: N_5  and  C_6
    6  A    between atoms: C_6  and  C_26
    7  A    between atoms: N_16  and  C_19
    8  A    between atoms: C_17  and  C_23
    9  A    between atoms: C_23  and  C_29
                            x       y       z     vdW  Elec       q    Type
                         _______ _______ _______ _____ _____    ______ ____

>  <TORSDO>
F 9

$$$$
=
 OpenBabel10232412333D

 29 31  0  0  1  0  0  0  0  0999 V2000
  191.4510  178.4600  144.4370 S   0  0  0  0  0  0  0  0  0  0  0  0
  190.9400  176.9390  146.6670 C   0  0  0  0  0  2  0  0  0  0  0  0
  189.4760  176.7130  146.3110 C   0  0  2  0  0  3  0  0  0  0  0  0
  188.9410  177.8690  145.4510 C   0  0  1  0  0  3  0  0  0  0  0  0
  191.8050  176.9640  145.4170 C   0  0  0  0  0  2  0  0  0  0  0  0
  189.7040  178.0290  144.1260 C   0  0  2  0  0  3  0  0  0  0  0  0
  188.7410  176.6120  147.4930 O   0  0  0  0  0  1  0  0  0  0  0  0
  187.4570  177.8040  145.2350 C   0  0  0  0  0  0  0  0  0  0  0  0
  186.9860  176.9270  144.4640 O   0  0  0  0  0  0  0  0  0  0  0  0
  186.5850  178.7040  145.9260 N   0  0  0  0  0  2  0  0  0  0  0  0
  185.1410  178.7070  145.7320 C   0  0  0  0  0  2  0  0  0  0  0  0
  184.7690  179.5170  144.4970 C   0  0  0  0  0  2  0  0  0  0  0  0
  183.8380  178.7400  143.5740 C   0  0  0  0  0  2  0  0  0  0  0  0
  182.3910  178.8450  144.0310 C   0  0  0  0  0  2  0  0  0  0  0  0
  182.1930  178.5960  141.5770 C   0  0  0  0  0  1  0  0  0  0  0  0
  181.4650  179.0010  142.8400 C   0  0  0  0  0  2  0  0  0  0  0  0
  189.6150  176.8100  143.2070 C   0  0  0  0  0  2  0  0  0  0  0  0
  190.1910  177.1090  141.9010 N   0  0  0  0  0  2  0  0  0  0  0  0
  189.4240  177.5070  140.7580 C   0  0  0  0  0  0  0  0  0  0  0  0
  188.1330  177.8910  140.9070 C   0  0  0  0  0  3  0  0  0  0  0  0
  187.2940  178.8390  137.3470 N   0  0  0  0  0  0  0  0  0  0  0  0
  190.1150  177.4950  139.3970 C   0  0  0  0  0  0  0  0  0  0  0  0
  187.3010  178.3430  139.7690 C   0  0  0  0  0  0  0  0  0  0  0  0
  187.8590  178.3950  138.5650 C   0  0  2  0  0  3  0  0  0  0  0  0
  189.2110  178.0260  138.3240 C   0  0  0  0  0  0  0  0  0  0  0  0
  190.5420  176.0800  139.0490 C   0  0  0  0  0  1  0  0  0  0  0  0
  185.9490  178.7410  139.9720 N   0  0  0  0  0  1  0  0  0  0  0  0
  189.4960  178.2150  137.0830 N   0  0  0  0  0  0  0  0  0  0  0  0
  188.2790  178.7220  136.5030 C   0  0  0  0  0  3  0  0  0  0  0  0
  1  5  1  0  0  0  0
  3  2  1  0  0  0  0
  3  7  1  1  0  0  0
  4  8  1  6  0  0  0
  4  3  1  0  0  0  0
  5  2  1  0  0  0  0
  6 17  1  1  0  0  0
  6  1  1  0  0  0  0
  6  4  1  0  0  0  0
  8 10  1  0  0  0  0
  9  8  2  0  0  0  0
 11 10  1  0  0  0  0
 12 11  1  0  0  0  0
 13 14  1  0  0  0  0
 13 12  1  0  0  0  0
 15 16  1  0  0  0  0
 16 14  1  0  0  0  0
 18 17  1  0  0  0  0
 19 20  1  0  0  0  0
 19 18  1  0  0  0  0
 22 19  2  0  0  0  0
 23 27  1  0  0  0  0
 23 20  2  0  0  0  0
 24 21  1  1  0  0  0
 24 23  1  0  0  0  0
 25 24  1  0  0  0  0
 25 22  1  0  0  0  0
 26 22  1  0  0  0  0
 28 25  2  0  0  0  0
 29 28  1  0  0  0  0
 29 21  2  0  0  0  0
M  END
>  <MODEL>
4

>  <REMARK>
 VINA RESULT:      -7.4      2.677      7.371
  Name = 
  9 active torsions:
  status: ('A' for Active; 'I' for Inactive)
    1  A    between atoms: C_1  and  C_24
    2  A    between atoms: C_2  and  N_5
    3  A    between atoms: C_3  and  C_17
    4  A    between atoms: C_3  and  C_19
    5  A    between atoms: N_5  and  C_6
    6  A    between atoms: C_6  and  C_26
    7  A    between atoms: N_16  and  C_19
    8  A    between atoms: C_17  and  C_23
    9  A    between atoms: C_23  and  C_29
                            x       y       z     vdW  Elec       q    Type
                         _______ _______ _______ _____ _____    ______ ____

>  <TORSDO>
F 9

$$$$
=
 OpenBabel10232412333D

 29 31  0  0  1  0  0  0  0  0999 V2000
  190.0870  175.7190  138.7090 S   0  0  0  0  0  0  0  0  0  0  0  0
  189.8520  177.9080  137.0660 C   0  0  0  0  0  2  0  0  0  0  0  0
  189.0260  178.7060  138.0670 C   0  0  2  0  0  3  0  0  0  0  0  0
  188.2430  177.7670  138.9980 C   0  0  1  0  0  3  0  0  0  0  0  0
  190.8950  177.0610  137.7760 C   0  0  0  0  0  2  0  0  0  0  0  0
  189.1580  176.8370  139.8120 C   0  0  2  0  0  3  0  0  0  0  0  0
  188.1470  179.5290  137.3620 O   0  0  0  0  0  1  0  0  0  0  0  0
  187.2610  178.4900  139.8720 C   0  0  0  0  0  0  0  0  0  0  0  0
  187.6810  179.1110  140.8840 O   0  0  0  0  0  0  0  0  0  0  0  0
  185.8690  178.5040  139.5400 N   0  0  0  0  0  2  0  0  0  0  0  0
  184.8680  179.1620  140.3680 C   0  0  0  0  0  2  0  0  0  0  0  0
  184.1800  178.1540  141.2800 C   0  0  0  0  0  2  0  0  0  0  0  0
  184.8610  178.0680  142.6400 C   0  0  0  0  0  2  0  0  0  0  0  0
  184.9950  179.4410  143.2800 C   0  0  0  0  0  2  0  0  0  0  0  0
  184.0750  178.7760  145.4780 C   0  0  0  0  0  1  0  0  0  0  0  0
  183.8770  179.6760  144.2780 C   0  0  0  0  0  2  0  0  0  0  0  0
  190.1170  177.5750  140.7480 C   0  0  0  0  0  2  0  0  0  0  0  0
  190.5720  176.6920  141.8160 N   0  0  0  0  0  2  0  0  0  0  0  0
  190.2510  176.8740  143.2010 C   0  0  0  0  0  0  0  0  0  0  0  0
  191.2080  176.7090  144.1470 C   0  0  0  0  0  3  0  0  0  0  0  0
  189.2520  177.6110  147.2500 N   0  0  0  0  0  0  0  0  0  0  0  0
  188.8200  177.2690  143.5540 C   0  0  0  0  0  0  0  0  0  0  0  0
  190.9440  176.9150  145.5890 C   0  0  0  0  0  0  0  0  0  0  0  0
  189.7280  177.3000  145.9560 C   0  0  0  0  0  0  0  0  0  0  0  0
  188.6720  177.5120  145.0270 C   0  0  0  0  0  0  0  0  0  0  0  0
  187.8620  176.1730  143.1200 C   0  0  0  0  0  1  0  0  0  0  0  0
  191.9800  176.7350  146.5480 N   0  0  0  0  0  1  0  0  0  0  0  0
  187.6230  177.9210  145.6510 N   0  0  0  0  0  0  0  0  0  0  0  0
  188.0180  177.9710  147.0350 C   0  0  0  0  0  2  0  0  0  0  0  0
  1  6  1  0  0  0  0
  2  5  1  0  0  0  0
  2  3  1  0  0  0  0
  3  7  1  6  0  0  0
  3  4  1  0  0  0  0
  4  6  1  0  0  0  0
  4  8  1  1  0  0  0
  5  1  1  0  0  0  0
  6 17  1  6  0  0  0
  8  9  2  0  0  0  0
 10  8  1  0  0  0  0
 10 11  1  0  0  0  0
 11 12  1  0  0  0  0
 12 13  1  0  0  0  0
 13 14  1  0  0  0  0
 14 16  1  0  0  0  0
 16 15  1  0  0  0  0
 17 18  1  0  0  0  0
 18 19  1  0  0  0  0
 19 22  2  0  0  0  0
 19 20  1  0  0  0  0
 20 23  2  0  0  0  0
 22 25  1  0  0  0  0
 23 24  1  0  0  0  0
 23 27  1  0  0  0  0
 24 21  2  0  0  0  0
 25 28  2  0  0  0  0
 25 24  1  0  0  0  0
 26 22  1  0  0  0  0
 28 29  1  0  0  0  0
 29 21  1  0  0  0  0
M  END
>  <MODEL>
5

>  <REMARK>
 VINA RESULT:      -7.3      2.209      5.136
  Name = 
  9 active torsions:
  status: ('A' for Active; 'I' for Inactive)
    1  A    between atoms: C_1  and  C_24
    2  A    between atoms: C_2  and  N_5
    3  A    between atoms: C_3  and  C_17
    4  A    between atoms: C_3  and  C_19
    5  A    between atoms: N_5  and  C_6
    6  A    between atoms: C_6  and  C_26
    7  A    between atoms: N_16  and  C_19
    8  A    between atoms: C_17  and  C_23
    9  A    between atoms: C_23  and  C_29
                            x       y       z     vdW  Elec       q    Type
                         _______ _______ _______ _____ _____    ______ ____

>  <TORSDO>
F 9

$$$$
=
 OpenBabel10232412333D

 29 31  0  0  1  0  0  0  0  0999 V2000
  188.9820  179.1400  137.6370 S   0  0  0  0  0  0  0  0  0  0  0  0
  190.1030  176.7030  137.0440 C   0  0  0  0  0  2  0  0  0  0  0  0
  190.1570  176.2520  138.4990 C   0  0  2  0  0  3  0  0  0  0  0  0
  190.2520  177.4630  139.4410 C   0  0  1  0  0  3  0  0  0  0  0  0
  188.8590  177.5360  136.7800 C   0  0  0  0  0  2  0  0  0  0  0  0
  189.0510  178.4140  139.3110 C   0  0  2  0  0  3  0  0  0  0  0  0
  191.2670  175.4230  138.6660 O   0  0  0  0  0  1  0  0  0  0  0  0
  190.5070  177.0790  140.8680 C   0  0  0  0  0  0  0  0  0  0  0  0
  190.0940  175.9660  141.2890 O   0  0  0  0  0  0  0  0  0  0  0  0
  191.2440  177.9500  141.7320 N   0  0  0  0  0  2  0  0  0  0  0  0
  191.4950  177.6430  143.1340 C   0  0  0  0  0  2  0  0  0  0  0  0
  190.5090  178.3830  144.0290 C   0  0  0  0  0  2  0  0  0  0  0  0
  189.1820  177.6410  144.1380 C   0  0  0  0  0  2  0  0  0  0  0  0
  188.5400  177.8520  145.5000 C   0  0  0  0  0  2  0  0  0  0  0  0
  188.6940  177.2880  147.9040 C   0  0  0  0  0  1  0  0  0  0  0  0
  189.4650  177.3780  146.6050 C   0  0  0  0  0  2  0  0  0  0  0  0
  187.7090  177.7720  139.6650 C   0  0  0  0  0  2  0  0  0  0  0  0
  186.6720  178.7880  139.7960 N   0  0  0  0  0  2  0  0  0  0  0  0
  185.6190  178.7400  140.7670 C   0  0  0  0  0  0  0  0  0  0  0  0
  185.9150  178.6200  142.0840 C   0  0  0  0  0  3  0  0  0  0  0  0
  182.4480  178.7890  143.5760 N   0  0  0  0  0  0  0  0  0  0  0  0
  184.1810  178.8440  140.2650 C   0  0  0  0  0  0  0  0  0  0  0  0
  184.8730  178.5980  143.1360 C   0  0  0  0  0  0  0  0  0  0  0  0
  183.6050  178.7260  142.7640 C   0  0  2  0  0  3  0  0  0  0  0  0
  183.2090  178.8730  141.4060 C   0  0  0  0  0  0  0  0  0  0  0  0
  183.8670  177.6670  139.3580 C   0  0  0  0  0  1  0  0  0  0  0  0
  185.2300  178.4740  144.5080 N   0  0  0  0  0  1  0  0  0  0  0  0
  181.9310  179.0210  141.3430 N   0  0  0  0  0  0  0  0  0  0  0  0
  181.4880  178.9630  142.7120 C   0  0  0  0  0  3  0  0  0  0  0  0
  1  6  1  0  0  0  0
  2  3  1  0  0  0  0
  3  7  1  6  0  0  0
  3  4  1  0  0  0  0
  4  8  1  1  0  0  0
  5  2  1  0  0  0  0
  5  1  1  0  0  0  0
  6  4  1  0  0  0  0
  6 17  1  6  0  0  0
  8  9  2  0  0  0  0
  8 10  1  0  0  0  0
 10 11  1  0  0  0  0
 11 12  1  0  0  0  0
 12 13  1  0  0  0  0
 13 14  1  0  0  0  0
 14 16  1  0  0  0  0
 16 15  1  0  0  0  0
 17 18  1  0  0  0  0
 18 19  1  0  0  0  0
 19 20  1  0  0  0  0
 20 23  2  0  0  0  0
 22 19  2  0  0  0  0
 22 25  1  0  0  0  0
 23 27  1  0  0  0  0
 24 25  1  1  0  0  0
 24 23  1  0  0  0  0
 24 21  1  0  0  0  0
 26 22  1  0  0  0  0
 28 25  2  0  0  0  0
 28 29  1  0  0  0  0
 29 21  2  0  0  0  0
M  END
>  <MODEL>
6

>  <REMARK>
 VINA RESULT:      -7.0      1.352      1.827
  Name = 
  9 active torsions:
  status: ('A' for Active; 'I' for Inactive)
    1  A    between atoms: C_1  and  C_24
    2  A    between atoms: C_2  and  N_5
    3  A    between atoms: C_3  and  C_17
    4  A    between atoms: C_3  and  C_19
    5  A    between atoms: N_5  and  C_6
    6  A    between atoms: C_6  and  C_26
    7  A    between atoms: N_16  and  C_19
    8  A    between atoms: C_17  and  C_23
    9  A    between atoms: C_23  and  C_29
                            x       y       z     vdW  Elec       q    Type
                         _______ _______ _______ _____ _____    ______ ____

>  <TORSDO>
F 9

$$$$
=
 OpenBabel10232412333D

 29 31  0  0  1  0  0  0  0  0999 V2000
  191.2410  178.3440  144.5080 S   0  0  0  0  0  0  0  0  0  0  0  0
  190.7490  176.9650  146.8330 C   0  0  0  0  0  2  0  0  0  0  0  0
  189.2760  176.7380  146.5150 C   0  0  2  0  0  3  0  0  0  0  0  0
  188.7410  177.8480  145.5960 C   0  0  1  0  0  3  0  0  0  0  0  0
  191.5930  176.9040  145.5700 C   0  0  0  0  0  2  0  0  0  0  0  0
  189.4840  177.9190  144.2520 C   0  0  2  0  0  3  0  0  0  0  0  0
  188.5600  176.7170  147.7130 O   0  0  0  0  0  1  0  0  0  0  0  0
  187.2540  177.7910  145.4090 C   0  0  0  0  0  0  0  0  0  0  0  0
  186.7540  176.8430  144.7470 O   0  0  0  0  0  0  0  0  0  0  0  0
  186.4090  178.7800  146.0060 N   0  0  0  0  0  2  0  0  0  0  0  0
  184.9630  178.7920  145.8320 C   0  0  0  0  0  2  0  0  0  0  0  0
  184.5870  179.4610  144.5170 C   0  0  0  0  0  2  0  0  0  0  0  0
  183.6940  178.5680  143.6650 C   0  0  0  0  0  2  0  0  0  0  0  0
  182.2430  179.0210  143.7220 C   0  0  0  0  0  2  0  0  0  0  0  0
  182.6030  178.5560  141.3190 C   0  0  0  0  0  1  0  0  0  0  0  0
  181.5590  178.7890  142.3890 C   0  0  0  0  0  2  0  0  0  0  0  0
  189.3640  176.6480  143.4090 C   0  0  0  0  0  2  0  0  0  0  0  0
  190.3110  176.6770  142.3000 N   0  0  0  0  0  2  0  0  0  0  0  0
  189.9520  176.9810  140.9460 C   0  0  0  0  0  0  0  0  0  0  0  0
  190.7880  176.6500  139.9320 C   0  0  0  0  0  3  0  0  0  0  0  0
  188.7250  177.7550  136.9660 N   0  0  0  0  0  0  0  0  0  0  0  0
  188.6100  177.6650  140.7010 C   0  0  2  0  0  3  0  0  0  0  0  0
  190.4580  176.9080  138.5120 C   0  0  0  0  0  0  0  0  0  0  0  0
  189.2860  177.4630  138.2320 C   0  0  0  0  0  0  0  0  0  0  0  0
  188.3440  177.8270  139.2330 C   0  0  0  0  0  0  0  0  0  0  0  0
  188.5960  179.0260  141.3740 C   0  0  0  0  0  1  0  0  0  0  0  0
  191.3650  176.5400  137.4790 N   0  0  0  0  0  1  0  0  0  0  0  0
  187.2830  178.3000  138.6780 N   0  0  0  0  0  0  0  0  0  0  0  0
  187.5550  178.2420  137.2650 C   0  0  0  0  0  3  0  0  0  0  0  0
  1  5  1  0  0  0  0
  3  2  1  0  0  0  0
  3  7  1  1  0  0  0
  4  8  1  6  0  0  0
  4  3  1  0  0  0  0
  5  2  1  0  0  0  0
  6 17  1  1  0  0  0
  6  1  1  0  0  0  0
  6  4  1  0  0  0  0
  8 10  1  0  0  0  0
  9  8  2  0  0  0  0
 11 10  1  0  0  0  0
 12 11  1  0  0  0  0
 13 14  1  0  0  0  0
 13 12  1  0  0  0  0
 15 16  1  0  0  0  0
 16 14  1  0  0  0  0
 18 17  1  0  0  0  0
 19 18  1  0  0  0  0
 20 19  2  0  0  0  0
 21 29  2  0  0  0  0
 21 24  1  0  0  0  0
 22 19  1  0  0  0  0
 22 26  1  1  0  0  0
 23 20  1  0  0  0  0
 24 23  2  0  0  0  0
 24 25  1  0  0  0  0
 25 22  1  0  0  0  0
 27 23  1  0  0  0  0
 28 25  2  0  0  0  0
 29 28  1  0  0  0  0
M  END
>  <MODEL>
7

>  <REMARK>
 VINA RESULT:      -7.0      2.763      7.454
  Name = 
  9 active torsions:
  status: ('A' for Active; 'I' for Inactive)
    1  A    between atoms: C_1  and  C_24
    2  A    between atoms: C_2  and  N_5
    3  A    between atoms: C_3  and  C_17
    4  A    between atoms: C_3  and  C_19
    5  A    between atoms: N_5  and  C_6
    6  A    between atoms: C_6  and  C_26
    7  A    between atoms: N_16  and  C_19
    8  A    between atoms: C_17  and  C_23
    9  A    between atoms: C_23  and  C_29
                            x       y       z     vdW  Elec       q    Type
                         _______ _______ _______ _____ _____    ______ ____

>  <TORSDO>
F 9

$$$$
=
 OpenBabel10232412333D

 29 31  0  0  1  0  0  0  0  0999 V2000
  184.9010  180.1040  144.0960 S   0  0  0  0  0  0  0  0  0  0  0  0
  182.3540  179.1640  143.6770 C   0  0  0  0  0  2  0  0  0  0  0  0
  182.7330  178.3760  142.4290 C   0  0  2  0  0  3  0  0  0  0  0  0
  183.9490  179.0100  141.7350 C   0  0  1  0  0  3  0  0  0  0  0  0
  183.4790  179.1360  144.6990 C   0  0  0  0  0  2  0  0  0  0  0  0
  185.1950  179.0500  142.6350 C   0  0  2  0  0  3  0  0  0  0  0  0
  181.6390  178.3590  141.5640 O   0  0  0  0  0  1  0  0  0  0  0  0
  184.2470  178.3990  140.3970 C   0  0  0  0  0  0  0  0  0  0  0  0
  183.5980  177.3860  140.0260 O   0  0  0  0  0  0  0  0  0  0  0  0
  185.2320  178.9810  139.5380 N   0  0  0  0  0  2  0  0  0  0  0  0
  185.5840  178.4140  138.2430 C   0  0  0  0  0  2  0  0  0  0  0  0
  187.0940  178.2520  138.1230 C   0  0  0  0  0  2  0  0  0  0  0  0
  187.7480  178.0390  139.4820 C   0  0  0  0  0  2  0  0  0  0  0  0
  189.2590  178.1810  139.3980 C   0  0  0  0  0  2  0  0  0  0  0  0
  191.3830  176.9140  139.3160 C   0  0  0  0  0  1  0  0  0  0  0  0
  189.9400  176.8770  139.7710 C   0  0  0  0  0  2  0  0  0  0  0  0
  185.6920  177.6700  143.0700 C   0  0  0  0  0  2  0  0  0  0  0  0
  187.1470  177.6030  143.0020 N   0  0  0  0  0  2  0  0  0  0  0  0
  188.0000  177.4720  144.1460 C   0  0  0  0  0  0  0  0  0  0  0  0
  187.4960  177.6510  145.3920 C   0  0  0  0  0  3  0  0  0  0  0  0
  190.5540  176.8840  147.4740 N   0  0  0  0  0  0  0  0  0  0  0  0
  189.4640  177.1130  143.9060 C   0  0  0  0  0  0  0  0  0  0  0  0
  188.3190  177.4970  146.6120 C   0  0  0  0  0  0  0  0  0  0  0  0
  189.5910  177.1450  146.4710 C   0  0  0  0  0  0  0  0  0  0  0  0
  190.1940  176.9210  145.2020 C   0  0  0  0  0  0  0  0  0  0  0  0
  190.1370  178.2100  143.1000 C   0  0  0  0  0  1  0  0  0  0  0  0
  187.7480  177.6910  147.9010 N   0  0  0  0  0  1  0  0  0  0  0  0
  191.4170  176.5500  145.3640 N   0  0  0  0  0  0  0  0  0  0  0  0
  191.6080  176.5380  146.7910 C   0  0  0  0  0  2  0  0  0  0  0  0
  1  5  1  0  0  0  0
  2  5  1  0  0  0  0
  3  7  1  6  0  0  0
  3  2  1  0  0  0  0
  4  8  1  6  0  0  0
  4  3  1  0  0  0  0
  4  6  1  0  0  0  0
  6 17  1  1  0  0  0
  6  1  1  0  0  0  0
  9  8  2  0  0  0  0
 10  8  1  0  0  0  0
 11 10  1  0  0  0  0
 12 11  1  0  0  0  0
 12 13  1  0  0  0  0
 14 13  1  0  0  0  0
 14 16  1  0  0  0  0
 15 16  1  0  0  0  0
 18 17  1  0  0  0  0
 18 19  1  0  0  0  0
 19 20  1  0  0  0  0
 20 23  2  0  0  0  0
 22 19  2  0  0  0  0
 22 25  1  0  0  0  0
 23 27  1  0  0  0  0
 24 23  1  0  0  0  0
 24 21  2  0  0  0  0
 25 28  2  0  0  0  0
 25 24  1  0  0  0  0
 26 22  1  0  0  0  0
 28 29  1  0  0  0  0
 29 21  1  0  0  0  0
M  END
>  <MODEL>
8

>  <REMARK>
 VINA RESULT:      -6.9      3.097      6.874
  Name = 
  9 active torsions:
  status: ('A' for Active; 'I' for Inactive)
    1  A    between atoms: C_1  and  C_24
    2  A    between atoms: C_2  and  N_5
    3  A    between atoms: C_3  and  C_17
    4  A    between atoms: C_3  and  C_19
    5  A    between atoms: N_5  and  C_6
    6  A    between atoms: C_6  and  C_26
    7  A    between atoms: N_16  and  C_19
    8  A    between atoms: C_17  and  C_23
    9  A    between atoms: C_23  and  C_29
                            x       y       z     vdW  Elec       q    Type
                         _______ _______ _______ _____ _____    ______ ____

>  <TORSDO>
F 9

$$$$
=
 OpenBabel10232412333D

 29 31  0  0  1  0  0  0  0  0999 V2000
  191.5810  178.7940  143.9090 S   0  0  0  0  0  0  0  0  0  0  0  0
  190.2930  177.3320  145.8460 C   0  0  0  0  0  2  0  0  0  0  0  0
  189.1520  176.9150  144.9260 C   0  0  2  0  0  3  0  0  0  0  0  0
  188.9420  177.9560  143.8150 C   0  0  1  0  0  3  0  0  0  0  0  0
  191.6070  177.4010  145.0850 C   0  0  0  0  0  2  0  0  0  0  0  0
  190.1850  178.1420  142.9300 C   0  0  2  0  0  3  0  0  0  0  0  0
  187.9910  176.7830  145.6890 O   0  0  0  0  0  1  0  0  0  0  0  0
  187.7090  177.7020  142.9980 C   0  0  0  0  0  0  0  0  0  0  0  0
  187.4210  176.5210  142.6690 O   0  0  0  0  0  0  0  0  0  0  0  0
  186.8490  178.7850  142.6290 N   0  0  0  0  0  2  0  0  0  0  0  0
  185.6570  178.6030  141.8120 C   0  0  0  0  0  2  0  0  0  0  0  0
  184.4010  178.6940  142.6680 C   0  0  0  0  0  2  0  0  0  0  0  0
  184.6890  179.3270  144.0240 C   0  0  0  0  0  2  0  0  0  0  0  0
  183.7540  178.7890  145.0960 C   0  0  0  0  0  2  0  0  0  0  0  0
  185.8430  179.1670  146.3670 C   0  0  0  0  0  1  0  0  0  0  0  0
  184.5310  178.4130  146.3440 C   0  0  0  0  0  2  0  0  0  0  0  0
  190.6090  176.8780  142.1810 C   0  0  0  0  0  2  0  0  0  0  0  0
  191.2220  177.2200  140.9030 N   0  0  0  0  0  2  0  0  0  0  0  0
  190.6670  176.8730  139.6280 C   0  0  0  0  0  0  0  0  0  0  0  0
  191.4690  176.3890  138.6470 C   0  0  0  0  0  3  0  0  0  0  0  0
  188.9090  175.7060  135.9550 N   0  0  0  0  0  0  0  0  0  0  0  0
  189.1650  177.0530  139.4310 C   0  0  2  0  0  3  0  0  0  0  0  0
  190.9490  175.9830  137.3220 C   0  0  0  0  0  0  0  0  0  0  0  0
  189.6430  176.0780  137.1050 C   0  0  0  0  0  0  0  0  0  0  0  0
  188.7300  176.5590  138.0830 C   0  0  0  0  0  0  0  0  0  0  0  0
  188.7990  178.5200  139.5780 C   0  0  0  0  0  1  0  0  0  0  0  0
  191.8270  175.4770  136.3230 N   0  0  0  0  0  1  0  0  0  0  0  0
  187.5300  176.5020  137.6200 N   0  0  0  0  0  0  0  0  0  0  0  0
  187.6770  175.9660  136.2920 C   0  0  0  0  0  3  0  0  0  0  0  0
  1  5  1  0  0  0  0
  3  7  1  1  0  0  0
  3  2  1  0  0  0  0
  4  8  1  6  0  0  0
  4  3  1  0  0  0  0
  5  2  1  0  0  0  0
  6 17  1  1  0  0  0
  6  4  1  0  0  0  0
  6  1  1  0  0  0  0
  9  8  2  0  0  0  0
 10  8  1  0  0  0  0
 11 10  1  0  0  0  0
 11 12  1  0  0  0  0
 12 13  1  0  0  0  0
 13 14  1  0  0  0  0
 14 16  1  0  0  0  0
 16 15  1  0  0  0  0
 18 17  1  0  0  0  0
 19 18  1  0  0  0  0
 20 19  2  0  0  0  0
 21 29  2  0  0  0  0
 21 24  1  0  0  0  0
 22 26  1  6  0  0  0
 22 19  1  0  0  0  0
 23 20  1  0  0  0  0
 24 23  2  0  0  0  0
 24 25  1  0  0  0  0
 25 22  1  0  0  0  0
 27 23  1  0  0  0  0
 28 25  2  0  0  0  0
 29 28  1  0  0  0  0
M  END
>  <MODEL>
9

>  <REMARK>
 VINA RESULT:      -6.9      2.611      6.975
  Name = 
  9 active torsions:
  status: ('A' for Active; 'I' for Inactive)
    1  A    between atoms: C_1  and  C_24
    2  A    between atoms: C_2  and  N_5
    3  A    between atoms: C_3  and  C_17
    4  A    between atoms: C_3  and  C_19
    5  A    between atoms: N_5  and  C_6
    6  A    between atoms: C_6  and  C_26
    7  A    between atoms: N_16  and  C_19
    8  A    between atoms: C_17  and  C_23
    9  A    between atoms: C_23  and  C_29
                            x       y       z     vdW  Elec       q    Type
                         _______ _______ _______ _____ _____    ______ ____

>  <TORSDO>
F 9

$$$$
