=
 OpenBabel10232408543D

 51 58  0  0  1  0  0  0  0  0999 V2000
  191.2580  173.8860  136.6530 C   0  0  0  0  0  1  0  0  0  0  0  0
  190.4590  176.9910  138.1610 C   0  0  0  0  0  2  0  0  0  0  0  0
  190.2720  176.0960  137.0340 N   0  0  0  0  0  0  0  0  0  0  0  0
  191.4980  175.3840  136.6830 C   0  0  0  0  0  0  0  0  0  0  0  0
  192.4710  175.7040  137.8220 C   0  0  2  0  0  3  0  0  0  0  0  0
  192.0020  175.8560  135.3240 C   0  0  0  0  0  1  0  0  0  0  0  0
  191.9440  176.9690  138.4800 C   0  0  2  0  0  3  0  0  0  0  0  0
  186.5210  175.6650  135.0850 C   0  0  0  0  0  3  0  0  0  0  0  0
  187.8010  176.0030  137.1070 C   0  0  0  0  0  3  0  0  0  0  0  0
  186.5590  175.8600  136.4730 C   0  0  0  0  0  0  0  0  0  0  0  0
  187.7050  175.5990  134.3460 C   0  0  0  0  0  3  0  0  0  0  0  0
  188.9370  175.7340  134.9910 C   0  0  0  0  0  3  0  0  0  0  0  0
  188.9970  175.9460  136.3770 C   0  0  0  0  0  0  0  0  0  0  0  0
  182.7720  177.9090  138.8750 C   0  0  2  0  0  3  0  0  0  0  0  0
  184.4500  178.8270  140.5160 S   0  0  0  0  0  0  0  0  0  0  0  0
  185.3440  175.8970  137.2370 N   0  0  0  0  0  0  0  0  0  0  0  0
  181.5520  179.0610  140.6510 C   0  0  1  0  0  3  0  0  0  0  0  0
  183.7050  176.7850  138.5190 C   0  0  1  0  0  0  0  0  0  0  0  0
  180.3230  179.0050  141.5700 C   0  0  0  0  0  2  0  0  0  0  0  0
  184.8770  177.1180  137.7520 N   0  0  0  0  0  2  0  0  0  0  0  0
  183.7120  177.2960  139.9290 C   0  0  2  0  0  3  0  0  0  0  0  0
  183.1020  175.1160  138.2800 S   0  0  0  0  0  0  0  0  0  0  0  0
  184.6280  174.7040  137.4810 N   0  0  0  0  0  2  0  0  0  0  0  0
  181.7060  178.9530  143.6780 C   0  0  0  0  0  2  0  0  0  0  0  0
  180.5880  179.6790  142.9140 C   0  0  0  0  0  2  0  0  0  0  0  0
  182.8470  178.4520  142.7810 C   0  0  0  0  0  2  0  0  0  0  0  0
  182.8970  179.2130  141.4530 C   0  0  1  0  0  3  0  0  0  0  0  0
  181.5070  177.8530  139.6910 C   0  0  0  0  0  2  0  0  0  0  0  0
  194.8330  174.8540  137.5540 C   0  0  0  0  0  0  0  0  0  0  0  0
  193.8500  175.8780  137.3810 N   0  0  0  0  0  2  0  0  0  0  0  0
  194.5590  173.8080  138.2050 O   0  0  0  0  0  0  0  0  0  0  0  0
  198.3330  173.1300  136.0210 O   0  0  0  0  0  0  0  0  0  0  0  0
  197.9130  173.0540  137.3570 C   0  0  0  0  0  2  0  0  0  0  0  0
  197.3060  174.3720  137.7480 C   0  0  0  0  0  0  0  0  0  0  0  0
  197.3070  172.5670  135.2320 C   0  0  0  0  0  2  0  0  0  0  0  0
  195.9930  173.3600  135.3160 C   0  0  0  0  0  2  0  0  0  0  0  0
  196.1920  174.9940  136.9370 C   0  0  1  0  0  3  0  0  0  0  0  0
  196.2400  174.7310  135.5420 O   0  0  0  0  0  0  0  0  0  0  0  0
  197.6900  174.9300  138.7630 O   0  0  0  0  0  0  0  0  0  0  0  0
  192.1900  176.9020  139.9830 C   0  0  0  0  0  2  0  0  0  0  0  0
  189.0700  178.5370  144.8900 O   0  0  0  0  0  0  0  0  0  0  0  0
  191.6200  176.1830  142.7050 N   0  0  0  0  0  2  0  0  0  0  0  0
  191.4890  175.9740  144.1090 C   0  0  0  0  0  0  0  0  0  0  0  0
  192.1960  175.1050  144.6880 O   0  0  0  0  0  0  0  0  0  0  0  0
  189.5730  177.7040  142.7060 C   0  0  2  0  0  3  0  0  0  0  0  0
  190.5830  176.7770  144.8620 N   0  0  0  0  0  2  0  0  0  0  0  0
  190.7820  177.1200  142.0220 C   0  0  0  0  0  0  0  0  0  0  0  0
  189.7280  177.7160  144.2030 C   0  0  0  0  0  0  0  0  0  0  0  0
  191.0310  177.4550  140.7540 C   0  0  0  0  0  3  0  0  0  0  0  0
  188.3340  176.9090  142.3120 C   0  0  0  0  0  2  0  0  0  0  0  0
  188.1820  175.8070  143.1560 O   0  0  0  0  0  1  0  0  0  0  0  0
  1  4  1  0  0  0  0
  2  7  1  0  0  0  0
  3  2  1  0  0  0  0
  4  3  1  0  0  0  0
  4  5  1  0  0  0  0
  5 30  1  6  0  0  0
  5  7  1  0  0  0  0
  6  4  1  0  0  0  0
  7 40  1  1  0  0  0
  8 10  1  0  0  0  0
 10  9  2  0  0  0  0
 10 16  1  0  0  0  0
 11 12  1  0  0  0  0
 11  8  2  0  0  0  0
 12 13  2  0  0  0  0
 13  3  1  0  0  0  0
 13  9  1  0  0  0  0
 14 28  1  1  0  0  0
 14 21  1  0  0  0  0
 15 27  1  0  0  0  0
 16 23  1  0  0  0  0
 16 20  1  0  0  0  0
 17 28  1  1  0  0  0
 17 27  1  0  0  0  0
 17 19  1  0  0  0  0
 18 20  1  6  0  0  0
 18 14  1  0  0  0  0
 18 21  1  0  0  0  0
 19 25  1  0  0  0  0
 21 15  1  6  0  0  0
 22 18  1  0  0  0  0
 23 22  1  0  0  0  0
 25 24  1  0  0  0  0
 26 24  1  0  0  0  0
 27 26  1  1  0  0  0
 29 31  2  0  0  0  0
 30 29  1  0  0  0  0
 32 33  1  0  0  0  0
 33 34  1  0  0  0  0
 34 39  2  0  0  0  0
 35 36  1  0  0  0  0
 35 32  1  0  0  0  0
 36 38  1  0  0  0  0
 37 29  1  1  0  0  0
 37 34  1  0  0  0  0
 38 37  1  0  0  0  0
 40 49  1  0  0  0  0
 42 43  1  0  0  0  0
 43 44  2  0  0  0  0
 43 46  1  0  0  0  0
 45 50  1  1  0  0  0
 45 48  1  0  0  0  0
 47 42  1  0  0  0  0
 47 45  1  0  0  0  0
 48 46  1  0  0  0  0
 48 41  2  0  0  0  0
 49 47  2  0  0  0  0
 50 51  1  0  0  0  0
M  END
>  <MODEL>
1

>  <REMARK>
 VINA RESULT:      -8.1      0.000      0.000
  Name = 
  7 active torsions:
  status: ('A' for Active; 'I' for Inactive)
    1  A    between atoms: C_1  and  C_35
    2  A    between atoms: N_9  and  C_20
    3  A    between atoms: N_12  and  C_51
    4  A    between atoms: N_19  and  C_27
    5  A    between atoms: C_31  and  C_33
    6  A    between atoms: C_42  and  C_45
    7  A    between atoms: C_42  and  C_49
                            x       y       z     vdW  Elec       q    Type
                         _______ _______ _______ _____ _____    ______ ____

>  <TORSDO>
F 7

$$$$
=
 OpenBabel10232408543D

 51 58  0  0  1  0  0  0  0  0999 V2000
  187.7280  178.4920  135.8380 C   0  0  0  0  0  1  0  0  0  0  0  0
  188.9610  177.0050  138.8090 C   0  0  0  0  0  2  0  0  0  0  0  0
  188.8680  176.9490  137.3610 N   0  0  0  0  0  0  0  0  0  0  0  0
  187.5670  177.3930  136.8720 C   0  0  0  0  0  0  0  0  0  0  0  0
  186.8680  177.9750  138.1040 C   0  0  2  0  0  3  0  0  0  0  0  0
  186.8120  176.2160  136.2640 C   0  0  0  0  0  1  0  0  0  0  0  0
  187.5750  177.3760  139.3090 C   0  0  2  0  0  3  0  0  0  0  0  0
  192.1040  175.6610  134.9260 C   0  0  0  0  0  3  0  0  0  0  0  0
  191.0900  175.8900  137.1080 C   0  0  0  0  0  3  0  0  0  0  0  0
  192.1630  175.4630  136.3120 C   0  0  0  0  0  0  0  0  0  0  0  0
  190.9980  176.2880  134.3460 C   0  0  0  0  0  3  0  0  0  0  0  0
  189.9380  176.7170  135.1500 C   0  0  0  0  0  3  0  0  0  0  0  0
  189.9710  176.5140  136.5380 C   0  0  0  0  0  0  0  0  0  0  0  0
  196.0230  172.4130  136.6370 C   0  0  2  0  0  3  0  0  0  0  0  0
  194.3800  170.5030  136.5720 S   0  0  0  0  0  0  0  0  0  0  0  0
  193.3130  174.8480  136.9120 N   0  0  0  0  0  0  0  0  0  0  0  0
  197.2650  170.3280  136.9190 C   0  0  1  0  0  3  0  0  0  0  0  0
  194.9660  173.3290  137.1900 C   0  0  1  0  0  0  0  0  0  0  0  0
  198.4050  169.6400  137.6840 C   0  0  0  0  0  2  0  0  0  0  0  0
  193.9120  173.7340  136.2970 N   0  0  0  0  0  2  0  0  0  0  0  0
  194.9320  171.8820  137.5850 C   0  0  2  0  0  3  0  0  0  0  0  0
  195.3400  174.5000  138.4920 S   0  0  0  0  0  0  0  0  0  0  0  0
  193.8310  175.3530  138.1250 N   0  0  0  0  0  2  0  0  0  0  0  0
  196.8810  167.9130  138.7130 C   0  0  0  0  0  2  0  0  0  0  0  0
  198.1430  168.1470  137.8690 C   0  0  0  0  0  2  0  0  0  0  0  0
  195.7470  168.9070  138.4220 C   0  0  0  0  0  2  0  0  0  0  0  0
  195.9020  169.5520  137.0430 C   0  0  1  0  0  3  0  0  0  0  0  0
  197.2050  171.8100  137.3480 C   0  0  0  0  0  2  0  0  0  0  0  0
  184.4890  178.6980  138.5420 C   0  0  0  0  0  0  0  0  0  0  0  0
  185.4360  177.7010  138.1480 N   0  0  0  0  0  2  0  0  0  0  0  0
  184.8800  179.8150  138.9790 O   0  0  0  0  0  0  0  0  0  0  0  0
  181.2490  176.0390  138.4600 O   0  0  0  0  0  0  0  0  0  0  0  0
  182.2820  176.0840  137.5120 C   0  0  0  0  0  2  0  0  0  0  0  0
  182.6520  177.5200  137.2690 C   0  0  0  0  0  0  0  0  0  0  0  0
  181.8490  175.7990  139.7160 C   0  0  0  0  0  2  0  0  0  0  0  0
  182.7850  176.9380  140.1510 C   0  0  0  0  0  2  0  0  0  0  0  0
  183.0170  178.4400  138.4110 C   0  0  1  0  0  3  0  0  0  0  0  0
  182.3490  178.1780  139.6360 O   0  0  0  0  0  0  0  0  0  0  0  0
  182.6980  177.9400  136.1240 O   0  0  0  0  0  0  0  0  0  0  0  0
  187.6460  178.4120  140.4260 C   0  0  0  0  0  2  0  0  0  0  0  0
  190.8720  176.4100  145.1240 O   0  0  0  0  0  0  0  0  0  0  0  0
  187.5340  177.8790  143.2460 N   0  0  0  0  0  2  0  0  0  0  0  0
  187.4440  177.4070  144.5880 C   0  0  0  0  0  0  0  0  0  0  0  0
  186.3300  177.3880  145.1780 O   0  0  0  0  0  0  0  0  0  0  0  0
  190.0820  177.8210  143.3620 C   0  0  2  0  0  3  0  0  0  0  0  0
  188.6110  176.9200  145.2470 N   0  0  0  0  0  2  0  0  0  0  0  0
  188.8000  177.9650  142.5830 C   0  0  0  0  0  0  0  0  0  0  0  0
  189.8890  177.0010  144.6100 C   0  0  0  0  0  0  0  0  0  0  0  0
  188.8650  178.2220  141.2750 C   0  0  0  0  0  3  0  0  0  0  0  0
  190.6180  179.2020  143.7180 C   0  0  0  0  0  2  0  0  0  0  0  0
  191.9790  179.1260  144.0210 O   0  0  0  0  0  1  0  0  0  0  0  0
  1  4  1  0  0  0  0
  2  7  1  0  0  0  0
  3  2  1  0  0  0  0
  4  3  1  0  0  0  0
  4  5  1  0  0  0  0
  5 30  1  6  0  0  0
  5  7  1  0  0  0  0
  6  4  1  0  0  0  0
  7 40  1  1  0  0  0
  8 10  1  0  0  0  0
 10 16  1  0  0  0  0
 10  9  2  0  0  0  0
 11  8  2  0  0  0  0
 11 12  1  0  0  0  0
 12 13  2  0  0  0  0
 13  9  1  0  0  0  0
 13  3  1  0  0  0  0
 14 18  1  0  0  0  0
 14 28  1  1  0  0  0
 14 21  1  0  0  0  0
 15 27  1  0  0  0  0
 16 23  1  0  0  0  0
 17 27  1  0  0  0  0
 17 28  1  1  0  0  0
 17 19  1  0  0  0  0
 18 20  1  6  0  0  0
 18 21  1  0  0  0  0
 18 22  1  0  0  0  0
 19 25  1  0  0  0  0
 20 16  1  0  0  0  0
 21 15  1  6  0  0  0
 23 22  1  0  0  0  0
 25 24  1  0  0  0  0
 26 24  1  0  0  0  0
 27 26  1  1  0  0  0
 29 31  2  0  0  0  0
 30 29  1  0  0  0  0
 32 35  1  0  0  0  0
 33 32  1  0  0  0  0
 34 33  1  0  0  0  0
 34 37  1  0  0  0  0
 35 36  1  0  0  0  0
 37 29  1  1  0  0  0
 37 38  1  0  0  0  0
 38 36  1  0  0  0  0
 39 34  2  0  0  0  0
 40 49  1  0  0  0  0
 42 43  1  0  0  0  0
 43 44  2  0  0  0  0
 43 46  1  0  0  0  0
 45 50  1  1  0  0  0
 45 48  1  0  0  0  0
 47 42  1  0  0  0  0
 47 45  1  0  0  0  0
 48 41  2  0  0  0  0
 48 46  1  0  0  0  0
 49 47  2  0  0  0  0
 50 51  1  0  0  0  0
M  END
>  <MODEL>
2

>  <REMARK>
 VINA RESULT:      -8.0      4.200     11.014
  Name = 
  7 active torsions:
  status: ('A' for Active; 'I' for Inactive)
    1  A    between atoms: C_1  and  C_35
    2  A    between atoms: N_9  and  C_20
    3  A    between atoms: N_12  and  C_51
    4  A    between atoms: N_19  and  C_27
    5  A    between atoms: C_31  and  C_33
    6  A    between atoms: C_42  and  C_45
    7  A    between atoms: C_42  and  C_49
                            x       y       z     vdW  Elec       q    Type
                         _______ _______ _______ _____ _____    ______ ____

>  <TORSDO>
F 7

$$$$
=
 OpenBabel10232408543D

 51 58  0  0  1  0  0  0  0  0999 V2000
  188.5740  174.8700  134.6120 C   0  0  0  0  0  1  0  0  0  0  0  0
  186.8960  176.6060  137.2060 C   0  0  0  0  0  2  0  0  0  0  0  0
  188.0020  175.7450  136.8280 N   0  0  0  0  0  0  0  0  0  0  0  0
  187.6280  174.7830  135.7950 C   0  0  0  0  0  0  0  0  0  0  0  0
  186.2330  175.2240  135.3430 C   0  0  2  0  0  3  0  0  0  0  0  0
  187.6450  173.3710  136.3700 C   0  0  0  0  0  1  0  0  0  0  0  0
  185.6760  176.0760  136.4720 C   0  0  2  0  0  3  0  0  0  0  0  0
  191.8640  176.1110  138.5630 C   0  0  0  0  0  3  0  0  0  0  0  0
  189.4620  176.3110  138.7430 C   0  0  0  0  0  3  0  0  0  0  0  0
  190.7320  176.4360  139.3230 C   0  0  0  0  0  0  0  0  0  0  0  0
  191.7290  175.6820  137.2400 C   0  0  0  0  0  3  0  0  0  0  0  0
  190.4580  175.5690  136.6700 C   0  0  0  0  0  3  0  0  0  0  0  0
  189.3120  175.8750  137.4190 C   0  0  0  0  0  0  0  0  0  0  0  0
  190.1130  176.4340  144.2150 C   0  0  2  0  0  3  0  0  0  0  0  0
  187.6520  176.7750  143.7950 S   0  0  0  0  0  0  0  0  0  0  0  0
  190.8720  176.9070  140.6720 N   0  0  0  0  0  0  0  0  0  0  0  0
  189.0000  176.7010  146.3730 C   0  0  1  0  0  3  0  0  0  0  0  0
  190.4470  177.0610  142.8890 C   0  0  1  0  0  0  0  0  0  0  0  0
  189.0980  177.3420  147.7660 C   0  0  0  0  0  2  0  0  0  0  0  0
  190.1320  176.3050  141.7050 N   0  0  0  0  0  2  0  0  0  0  0  0
  189.2550  177.5760  143.6400 C   0  0  2  0  0  3  0  0  0  0  0  0
  191.8260  178.1900  142.7140 S   0  0  0  0  0  0  0  0  0  0  0  0
  191.7430  177.9820  140.9580 N   0  0  0  0  0  2  0  0  0  0  0  0
  187.0150  178.7280  147.4450 C   0  0  0  0  0  2  0  0  0  0  0  0
  187.7210  177.6880  148.3280 C   0  0  0  0  0  2  0  0  0  0  0  0
  187.2510  178.5270  145.9410 C   0  0  0  0  0  2  0  0  0  0  0  0
  187.6740  177.0910  145.6220 C   0  0  1  0  0  3  0  0  0  0  0  0
  190.2970  177.0090  145.5950 C   0  0  0  0  0  2  0  0  0  0  0  0
  184.4060  173.6080  135.9940 C   0  0  0  0  0  0  0  0  0  0  0  0
  185.3390  174.1130  135.0350 N   0  0  0  0  0  2  0  0  0  0  0  0
  184.4120  174.0380  137.1810 O   0  0  0  0  0  0  0  0  0  0  0  0
  180.4790  172.1450  136.1000 O   0  0  0  0  0  0  0  0  0  0  0  0
  181.3400  172.2290  137.2040 C   0  0  0  0  0  2  0  0  0  0  0  0
  182.7320  171.8770  136.7590 C   0  0  0  0  0  0  0  0  0  0  0  0
  180.3370  173.4520  135.5850 C   0  0  0  0  0  2  0  0  0  0  0  0
  181.6610  174.0270  135.0560 C   0  0  0  0  0  2  0  0  0  0  0  0
  183.3850  172.5850  135.5940 C   0  0  1  0  0  3  0  0  0  0  0  0
  182.4990  173.0020  134.5650 O   0  0  0  0  0  0  0  0  0  0  0  0
  183.3610  171.0330  137.3750 O   0  0  0  0  0  0  0  0  0  0  0  0
  184.8400  177.2110  135.8910 C   0  0  0  0  0  2  0  0  0  0  0  0
  180.3900  179.2950  139.4030 O   0  0  0  0  0  0  0  0  0  0  0  0
  184.2770  178.4120  138.4380 N   0  0  0  0  0  2  0  0  0  0  0  0
  183.9940  179.1980  139.5940 C   0  0  0  0  0  0  0  0  0  0  0  0
  184.9360  179.6670  140.2860 O   0  0  0  0  0  0  0  0  0  0  0  0
  181.8150  177.7830  138.2200 C   0  0  2  0  0  3  0  0  0  0  0  0
  182.6400  179.4820  139.9410 N   0  0  0  0  0  2  0  0  0  0  0  0
  183.2200  177.8200  137.6770 C   0  0  0  0  0  0  0  0  0  0  0  0
  181.5650  178.8970  139.2010 C   0  0  0  0  0  0  0  0  0  0  0  0
  183.4710  177.2500  136.4960 C   0  0  0  0  0  3  0  0  0  0  0  0
  181.5630  176.4330  138.8820 C   0  0  0  0  0  2  0  0  0  0  0  0
  182.6960  176.0240  139.5870 O   0  0  0  0  0  1  0  0  0  0  0  0
  1  4  1  0  0  0  0
  3  2  1  0  0  0  0
  3 13  1  0  0  0  0
  4  6  1  0  0  0  0
  4  3  1  0  0  0  0
  5 30  1  1  0  0  0
  5  4  1  0  0  0  0
  5  7  1  0  0  0  0
  7 40  1  6  0  0  0
  7  2  1  0  0  0  0
  8 10  1  0  0  0  0
  9 10  2  0  0  0  0
 10 16  1  0  0  0  0
 11  8  2  0  0  0  0
 12 11  1  0  0  0  0
 12 13  2  0  0  0  0
 13  9  1  0  0  0  0
 14 28  1  1  0  0  0
 15 27  1  0  0  0  0
 16 23  1  0  0  0  0
 16 20  1  0  0  0  0
 17 28  1  6  0  0  0
 17 19  1  0  0  0  0
 18 20  1  6  0  0  0
 18 21  1  0  0  0  0
 18 14  1  0  0  0  0
 19 25  1  0  0  0  0
 21 15  1  6  0  0  0
 21 14  1  0  0  0  0
 22 18  1  0  0  0  0
 23 22  1  0  0  0  0
 24 25  1  0  0  0  0
 26 24  1  0  0  0  0
 27 26  1  6  0  0  0
 27 17  1  0  0  0  0
 29 31  2  0  0  0  0
 30 29  1  0  0  0  0
 32 33  1  0  0  0  0
 34 33  1  0  0  0  0
 34 39  2  0  0  0  0
 35 32  1  0  0  0  0
 36 35  1  0  0  0  0
 37 29  1  1  0  0  0
 37 34  1  0  0  0  0
 38 36  1  0  0  0  0
 38 37  1  0  0  0  0
 40 49  1  0  0  0  0
 42 43  1  0  0  0  0
 43 46  1  0  0  0  0
 43 44  2  0  0  0  0
 45 50  1  1  0  0  0
 45 48  1  0  0  0  0
 47 45  1  0  0  0  0
 47 42  1  0  0  0  0
 48 41  2  0  0  0  0
 48 46  1  0  0  0  0
 49 47  2  0  0  0  0
 50 51  1  0  0  0  0
M  END
>  <MODEL>
3

>  <REMARK>
 VINA RESULT:      -7.8      4.863      9.315
  Name = 
  7 active torsions:
  status: ('A' for Active; 'I' for Inactive)
    1  A    between atoms: C_1  and  C_35
    2  A    between atoms: N_9  and  C_20
    3  A    between atoms: N_12  and  C_51
    4  A    between atoms: N_19  and  C_27
    5  A    between atoms: C_31  and  C_33
    6  A    between atoms: C_42  and  C_45
    7  A    between atoms: C_42  and  C_49
                            x       y       z     vdW  Elec       q    Type
                         _______ _______ _______ _____ _____    ______ ____

>  <TORSDO>
F 7

$$$$
=
 OpenBabel10232408543D

 51 58  0  0  1  0  0  0  0  0999 V2000
  189.7920  175.7900  140.8230 C   0  0  0  0  0  1  0  0  0  0  0  0
  187.7790  178.5130  139.7780 C   0  0  0  0  0  2  0  0  0  0  0  0
  188.9520  177.6930  139.5300 N   0  0  0  0  0  0  0  0  0  0  0  0
  189.6210  177.2960  140.7650 C   0  0  0  0  0  0  0  0  0  0  0  0
  188.6630  177.7260  141.8810 C   0  0  2  0  0  3  0  0  0  0  0  0
  190.9830  177.9760  140.8600 C   0  0  0  0  0  1  0  0  0  0  0  0
  187.7620  178.7880  141.2720 C   0  0  2  0  0  3  0  0  0  0  0  0
  190.1410  176.6040  135.5990 C   0  0  0  0  0  3  0  0  0  0  0  0
  190.2190  176.2330  137.9860 C   0  0  0  0  0  3  0  0  0  0  0  0
  190.6180  175.8680  136.6920 C   0  0  0  0  0  0  0  0  0  0  0  0
  189.2910  177.6950  135.7960 C   0  0  0  0  0  3  0  0  0  0  0  0
  188.9080  178.0560  137.0900 C   0  0  0  0  0  3  0  0  0  0  0  0
  189.3620  177.3230  138.1980 C   0  0  0  0  0  0  0  0  0  0  0  0
  194.6250  173.0910  137.4280 C   0  0  2  0  0  3  0  0  0  0  0  0
  195.9930  175.0360  136.5940 S   0  0  0  0  0  0  0  0  0  0  0  0
  191.5150  174.7650  136.4930 N   0  0  0  0  0  0  0  0  0  0  0  0
  196.9670  172.3980  137.3460 C   0  0  1  0  0  3  0  0  0  0  0  0
  193.4300  173.5720  136.6500 C   0  0  1  0  0  0  0  0  0  0  0  0
  197.9250  171.2550  136.9810 C   0  0  0  0  0  2  0  0  0  0  0  0
  192.7710  174.7610  137.1240 N   0  0  0  0  0  2  0  0  0  0  0  0
  194.7950  173.8010  136.0720 C   0  0  2  0  0  3  0  0  0  0  0  0
  192.3730  172.4280  135.7670 S   0  0  0  0  0  0  0  0  0  0  0  0
  191.1400  173.6940  135.6520 N   0  0  0  0  0  2  0  0  0  0  0  0
  199.1170  172.6090  135.2180 C   0  0  0  0  0  2  0  0  0  0  0  0
  199.2760  171.7800  136.5020 C   0  0  0  0  0  2  0  0  0  0  0  0
  197.8520  173.4800  135.1950 C   0  0  0  0  0  2  0  0  0  0  0  0
  197.3200  173.7400  136.6060 C   0  0  1  0  0  3  0  0  0  0  0  0
  195.5160  171.9110  137.1400 C   0  0  0  0  0  2  0  0  0  0  0  0
  189.0900  177.6870  144.3680 C   0  0  0  0  0  0  0  0  0  0  0  0
  189.3390  178.2320  143.0700 N   0  0  0  0  0  2  0  0  0  0  0  0
  188.1840  176.8260  144.5380 O   0  0  0  0  0  0  0  0  0  0  0  0
  191.3450  176.7240  147.7680 O   0  0  0  0  0  0  0  0  0  0  0  0
  189.9660  176.5110  147.6260 C   0  0  0  0  0  2  0  0  0  0  0  0
  189.3730  177.6730  146.8790 C   0  0  0  0  0  0  0  0  0  0  0  0
  191.9820  176.0110  146.7280 C   0  0  0  0  0  2  0  0  0  0  0  0
  191.6070  176.5370  145.3340 C   0  0  0  0  0  2  0  0  0  0  0  0
  189.9250  178.1080  145.5410 C   0  0  1  0  0  3  0  0  0  0  0  0
  191.3220  177.9200  145.3720 O   0  0  0  0  0  0  0  0  0  0  0  0
  188.4020  178.2490  147.3420 O   0  0  0  0  0  0  0  0  0  0  0  0
  186.3560  178.6540  141.8460 C   0  0  0  0  0  2  0  0  0  0  0  0
  180.9460  179.6140  139.3380 O   0  0  0  0  0  0  0  0  0  0  0  0
  183.5310  178.6400  142.3690 N   0  0  0  0  0  2  0  0  0  0  0  0
  182.1500  178.8480  142.6540 C   0  0  0  0  0  0  0  0  0  0  0  0
  181.7340  178.7880  143.8420 O   0  0  0  0  0  0  0  0  0  0  0  0
  183.0430  178.5940  139.8660 C   0  0  2  0  0  3  0  0  0  0  0  0
  181.2490  179.1620  141.5940 N   0  0  0  0  0  2  0  0  0  0  0  0
  184.0100  178.6420  141.0200 C   0  0  0  0  0  0  0  0  0  0  0  0
  181.7000  179.1640  140.2370 C   0  0  0  0  0  0  0  0  0  0  0  0
  185.3200  178.6390  140.7640 C   0  0  0  0  0  3  0  0  0  0  0  0
  182.8890  177.1530  139.3920 C   0  0  0  0  0  2  0  0  0  0  0  0
  183.2190  177.0550  138.0380 O   0  0  0  0  0  1  0  0  0  0  0  0
  2  7  1  0  0  0  0
  3  2  1  0  0  0  0
  3  4  1  0  0  0  0
  4  1  1  0  0  0  0
  4  6  1  0  0  0  0
  4  5  1  0  0  0  0
  5 30  1  1  0  0  0
  7 40  1  1  0  0  0
  7  5  1  0  0  0  0
  8 11  2  0  0  0  0
  8 10  1  0  0  0  0
  9 13  1  0  0  0  0
 10  9  2  0  0  0  0
 11 12  1  0  0  0  0
 12 13  2  0  0  0  0
 13  3  1  0  0  0  0
 14 28  1  6  0  0  0
 15 27  1  0  0  0  0
 16 10  1  0  0  0  0
 16 20  1  0  0  0  0
 17 19  1  6  0  0  0
 18 22  1  6  0  0  0
 18 20  1  0  0  0  0
 18 14  1  0  0  0  0
 21 15  1  1  0  0  0
 21 18  1  0  0  0  0
 21 14  1  0  0  0  0
 23 22  1  0  0  0  0
 23 16  1  0  0  0  0
 24 25  1  0  0  0  0
 25 19  1  0  0  0  0
 26 24  1  0  0  0  0
 27 26  1  6  0  0  0
 27 17  1  0  0  0  0
 28 17  1  0  0  0  0
 29 31  2  0  0  0  0
 30 29  1  0  0  0  0
 33 32  1  0  0  0  0
 34 39  2  0  0  0  0
 34 33  1  0  0  0  0
 35 32  1  0  0  0  0
 36 38  1  0  0  0  0
 36 35  1  0  0  0  0
 37 29  1  6  0  0  0
 37 34  1  0  0  0  0
 38 37  1  0  0  0  0
 41 48  2  0  0  0  0
 42 43  1  0  0  0  0
 43 44  2  0  0  0  0
 45 50  1  1  0  0  0
 45 48  1  0  0  0  0
 45 47  1  0  0  0  0
 46 43  1  0  0  0  0
 47 42  1  0  0  0  0
 48 46  1  0  0  0  0
 49 47  2  0  0  0  0
 49 40  1  0  0  0  0
 51 50  1  0  0  0  0
M  END
>  <MODEL>
4

>  <REMARK>
 VINA RESULT:      -7.5      4.200     10.640
  Name = 
  7 active torsions:
  status: ('A' for Active; 'I' for Inactive)
    1  A    between atoms: C_1  and  C_35
    2  A    between atoms: N_9  and  C_20
    3  A    between atoms: N_12  and  C_51
    4  A    between atoms: N_19  and  C_27
    5  A    between atoms: C_31  and  C_33
    6  A    between atoms: C_42  and  C_45
    7  A    between atoms: C_42  and  C_49
                            x       y       z     vdW  Elec       q    Type
                         _______ _______ _______ _____ _____    ______ ____

>  <TORSDO>
F 7

$$$$
=
 OpenBabel10232408543D

 51 58  0  0  1  0  0  0  0  0999 V2000
  187.6850  177.8360  135.7470 C   0  0  0  0  0  1  0  0  0  0  0  0
  189.3850  177.2130  138.7920 C   0  0  0  0  0  2  0  0  0  0  0  0
  189.1660  176.8200  137.4120 N   0  0  0  0  0  0  0  0  0  0  0  0
  187.7750  176.9890  137.0020 C   0  0  0  0  0  0  0  0  0  0  0  0
  187.1200  177.7500  138.1580 C   0  0  2  0  0  3  0  0  0  0  0  0
  187.1380  175.6260  136.7550 C   0  0  0  0  0  1  0  0  0  0  0  0
  188.0140  177.5260  139.3670 C   0  0  2  0  0  3  0  0  0  0  0  0
  192.3080  175.3990  134.9270 C   0  0  0  0  0  3  0  0  0  0  0  0
  191.3820  175.7560  137.1320 C   0  0  0  0  0  3  0  0  0  0  0  0
  192.4240  175.2870  136.3200 C   0  0  0  0  0  0  0  0  0  0  0  0
  191.1740  175.9840  134.3570 C   0  0  0  0  0  3  0  0  0  0  0  0
  190.1460  176.4570  135.1770 C   0  0  0  0  0  3  0  0  0  0  0  0
  190.2360  176.3410  136.5720 C   0  0  0  0  0  0  0  0  0  0  0  0
  196.3620  172.3350  136.6310 C   0  0  2  0  0  3  0  0  0  0  0  0
  194.7640  170.3870  136.6550 S   0  0  0  0  0  0  0  0  0  0  0  0
  193.6020  174.7140  136.9080 N   0  0  0  0  0  0  0  0  0  0  0  0
  197.6590  170.2870  136.9370 C   0  0  1  0  0  3  0  0  0  0  0  0
  195.2970  173.2410  137.1860 C   0  0  1  0  0  0  0  0  0  0  0  0
  198.8330  169.6460  137.6930 C   0  0  0  0  0  2  0  0  0  0  0  0
  194.2130  173.5990  136.3080 N   0  0  0  0  0  2  0  0  0  0  0  0
  195.3060  171.8050  137.6180 C   0  0  2  0  0  3  0  0  0  0  0  0
  195.6730  174.4550  138.4470 S   0  0  0  0  0  0  0  0  0  0  0  0
  194.1370  175.2630  138.0940 N   0  0  0  0  0  2  0  0  0  0  0  0
  197.3740  167.9130  138.8030 C   0  0  0  0  0  2  0  0  0  0  0  0
  198.6100  168.1540  137.9220 C   0  0  0  0  0  2  0  0  0  0  0  0
  196.2110  168.8730  138.5130 C   0  0  0  0  0  2  0  0  0  0  0  0
  196.3180  169.4850  137.1140 C   0  0  1  0  0  3  0  0  0  0  0  0
  197.5740  171.7780  137.3300 C   0  0  0  0  0  2  0  0  0  0  0  0
  184.7060  178.2760  138.6760 C   0  0  0  0  0  0  0  0  0  0  0  0
  185.7510  177.3300  138.4340 N   0  0  0  0  0  2  0  0  0  0  0  0
  184.9660  179.5060  138.7750 O   0  0  0  0  0  0  0  0  0  0  0  0
  180.6520  178.7390  137.7160 O   0  0  0  0  0  0  0  0  0  0  0  0
  181.4100  179.6390  138.4800 C   0  0  0  0  0  2  0  0  0  0  0  0
  182.3440  178.8580  139.3600 C   0  0  0  0  0  0  0  0  0  0  0  0
  181.2850  178.6290  136.4590 C   0  0  0  0  0  2  0  0  0  0  0  0
  182.6960  178.0280  136.5570 C   0  0  0  0  0  2  0  0  0  0  0  0
  183.2810  177.8210  138.7830 C   0  0  1  0  0  3  0  0  0  0  0  0
  182.7910  177.1300  137.6430 O   0  0  0  0  0  0  0  0  0  0  0  0
  182.3770  179.0940  140.5570 O   0  0  0  0  0  0  0  0  0  0  0  0
  188.0440  178.7880  140.2210 C   0  0  0  0  0  2  0  0  0  0  0  0
  189.0760  178.0570  146.1280 O   0  0  0  0  0  0  0  0  0  0  0  0
  189.9610  177.8210  142.1300 N   0  0  0  0  0  2  0  0  0  0  0  0
  190.9710  177.5500  143.0970 C   0  0  0  0  0  0  0  0  0  0  0  0
  192.1480  177.2940  142.7270 O   0  0  0  0  0  0  0  0  0  0  0  0
  188.1630  177.7530  143.9380 C   0  0  2  0  0  3  0  0  0  0  0  0
  190.6540  177.6080  144.4870 N   0  0  0  0  0  2  0  0  0  0  0  0
  188.6060  178.0530  142.5300 C   0  0  0  0  0  0  0  0  0  0  0  0
  189.3080  177.8310  144.9130 C   0  0  0  0  0  0  0  0  0  0  0  0
  187.7040  178.4930  141.6500 C   0  0  0  0  0  3  0  0  0  0  0  0
  187.5260  176.3690  143.9860 C   0  0  0  0  0  2  0  0  0  0  0  0
  188.2280  175.4880  143.1630 O   0  0  0  0  0  1  0  0  0  0  0  0
  1  4  1  0  0  0  0
  2  7  1  0  0  0  0
  3  2  1  0  0  0  0
  4  3  1  0  0  0  0
  4  5  1  0  0  0  0
  5 30  1  1  0  0  0
  5  7  1  0  0  0  0
  6  4  1  0  0  0  0
  7 40  1  1  0  0  0
  8 10  1  0  0  0  0
 10 16  1  0  0  0  0
 10  9  2  0  0  0  0
 11  8  2  0  0  0  0
 11 12  1  0  0  0  0
 12 13  2  0  0  0  0
 13  9  1  0  0  0  0
 13  3  1  0  0  0  0
 14 18  1  0  0  0  0
 14 28  1  1  0  0  0
 14 21  1  0  0  0  0
 15 27  1  0  0  0  0
 16 23  1  0  0  0  0
 17 27  1  0  0  0  0
 17 28  1  1  0  0  0
 17 19  1  0  0  0  0
 18 20  1  6  0  0  0
 18 21  1  0  0  0  0
 18 22  1  0  0  0  0
 19 25  1  0  0  0  0
 20 16  1  0  0  0  0
 21 15  1  6  0  0  0
 23 22  1  0  0  0  0
 25 24  1  0  0  0  0
 26 24  1  0  0  0  0
 27 26  1  1  0  0  0
 29 31  2  0  0  0  0
 30 29  1  0  0  0  0
 32 33  1  0  0  0  0
 33 34  1  0  0  0  0
 34 39  2  0  0  0  0
 35 36  1  0  0  0  0
 35 32  1  0  0  0  0
 36 38  1  0  0  0  0
 37 29  1  6  0  0  0
 37 34  1  0  0  0  0
 38 37  1  0  0  0  0
 40 49  1  0  0  0  0
 42 47  1  0  0  0  0
 42 43  1  0  0  0  0
 43 46  1  0  0  0  0
 44 43  2  0  0  0  0
 45 50  1  6  0  0  0
 45 48  1  0  0  0  0
 46 48  1  0  0  0  0
 47 45  1  0  0  0  0
 48 41  2  0  0  0  0
 49 47  2  0  0  0  0
 51 50  1  0  0  0  0
M  END
>  <MODEL>
5

>  <REMARK>
 VINA RESULT:      -7.5      3.930     11.144
  Name = 
  7 active torsions:
  status: ('A' for Active; 'I' for Inactive)
    1  A    between atoms: C_1  and  C_35
    2  A    between atoms: N_9  and  C_20
    3  A    between atoms: N_12  and  C_51
    4  A    between atoms: N_19  and  C_27
    5  A    between atoms: C_31  and  C_33
    6  A    between atoms: C_42  and  C_45
    7  A    between atoms: C_42  and  C_49
                            x       y       z     vdW  Elec       q    Type
                         _______ _______ _______ _____ _____    ______ ____

>  <TORSDO>
F 7

$$$$
=
 OpenBabel10232408543D

 51 58  0  0  1  0  0  0  0  0999 V2000
  190.0100  175.6850  140.9740 C   0  0  0  0  0  1  0  0  0  0  0  0
  188.4040  178.4300  139.4100 C   0  0  0  0  0  2  0  0  0  0  0  0
  189.5490  177.5370  139.4380 N   0  0  0  0  0  0  0  0  0  0  0  0
  189.9490  177.1910  140.7990 C   0  0  0  0  0  0  0  0  0  0  0  0
  188.8280  177.7450  141.6850 C   0  0  2  0  0  3  0  0  0  0  0  0
  191.3090  177.8050  141.1120 C   0  0  0  0  0  1  0  0  0  0  0  0
  188.1260  178.8080  140.8560 C   0  0  2  0  0  3  0  0  0  0  0  0
  191.3790  176.1140  135.8770 C   0  0  0  0  0  3  0  0  0  0  0  0
  191.3890  176.3550  138.2820 C   0  0  0  0  0  3  0  0  0  0  0  0
  192.0010  175.8840  137.1120 C   0  0  0  0  0  0  0  0  0  0  0  0
  190.1730  176.8160  135.8120 C   0  0  0  0  0  3  0  0  0  0  0  0
  189.5770  177.2890  136.9840 C   0  0  0  0  0  3  0  0  0  0  0  0
  190.1750  177.0560  138.2320 C   0  0  0  0  0  0  0  0  0  0  0  0
  195.4950  172.6900  135.7310 C   0  0  2  0  0  3  0  0  0  0  0  0
  193.8490  170.8450  136.2210 S   0  0  0  0  0  0  0  0  0  0  0  0
  193.2560  175.1890  137.1770 N   0  0  0  0  0  0  0  0  0  0  0  0
  196.6240  170.5500  135.3930 C   0  0  1  0  0  3  0  0  0  0  0  0
  194.7950  173.6000  136.7030 C   0  0  1  0  0  0  0  0  0  0  0  0
  197.9300  169.7720  135.6100 C   0  0  0  0  0  2  0  0  0  0  0  0
  193.5000  174.1020  136.3200 N   0  0  0  0  0  2  0  0  0  0  0  0
  194.8330  172.1310  137.0040 C   0  0  2  0  0  3  0  0  0  0  0  0
  195.7160  174.6640  137.8100 S   0  0  0  0  0  0  0  0  0  0  0  0
  194.2370  175.5900  138.1120 N   0  0  0  0  0  2  0  0  0  0  0  0
  196.8330  168.0300  137.0670 C   0  0  0  0  0  2  0  0  0  0  0  0
  197.6750  168.2800  135.8070 C   0  0  0  0  0  2  0  0  0  0  0  0
  195.7360  169.0790  137.2980 C   0  0  0  0  0  2  0  0  0  0  0  0
  195.3750  169.8140  136.0050 C   0  0  1  0  0  3  0  0  0  0  0  0
  196.8240  171.9990  135.8870 C   0  0  0  0  0  2  0  0  0  0  0  0
  189.1240  177.6010  144.1880 C   0  0  0  0  0  0  0  0  0  0  0  0
  189.3010  178.2950  142.9500 N   0  0  0  0  0  2  0  0  0  0  0  0
  188.4450  176.5390  144.2350 O   0  0  0  0  0  0  0  0  0  0  0  0
  191.0440  176.8810  147.8440 O   0  0  0  0  0  0  0  0  0  0  0  0
  189.7170  176.5380  147.5470 C   0  0  0  0  0  2  0  0  0  0  0  0
  189.1100  177.6320  146.7140 C   0  0  0  0  0  0  0  0  0  0  0  0
  191.8630  176.2260  146.8990 C   0  0  0  0  0  2  0  0  0  0  0  0
  191.6070  176.7030  145.4610 C   0  0  0  0  0  2  0  0  0  0  0  0
  189.7720  178.1080  145.4410 C   0  0  1  0  0  3  0  0  0  0  0  0
  191.1910  178.0520  145.4400 O   0  0  0  0  0  0  0  0  0  0  0  0
  188.0410  178.1160  147.0500 O   0  0  0  0  0  0  0  0  0  0  0  0
  186.6310  178.7850  141.1580 C   0  0  0  0  0  2  0  0  0  0  0  0
  181.7450  179.6790  137.7220 O   0  0  0  0  0  0  0  0  0  0  0  0
  183.7620  178.6460  141.1400 N   0  0  0  0  0  2  0  0  0  0  0  0
  182.3450  178.7910  141.1690 C   0  0  0  0  0  0  0  0  0  0  0  0
  181.7180  178.6570  142.2540 O   0  0  0  0  0  0  0  0  0  0  0  0
  183.7500  178.7070  138.5900 C   0  0  2  0  0  3  0  0  0  0  0  0
  181.6430  179.1250  139.9740 N   0  0  0  0  0  2  0  0  0  0  0  0
  184.4830  178.7320  139.9070 C   0  0  0  0  0  0  0  0  0  0  0  0
  182.3380  179.2110  138.7260 C   0  0  0  0  0  0  0  0  0  0  0  0
  185.8170  178.7880  139.9020 C   0  0  0  0  0  3  0  0  0  0  0  0
  183.7510  177.2880  138.0350 C   0  0  0  0  0  2  0  0  0  0  0  0
  184.3870  177.2580  136.7930 O   0  0  0  0  0  1  0  0  0  0  0  0
  2  3  1  0  0  0  0
  2  7  1  0  0  0  0
  3  4  1  0  0  0  0
  4  1  1  0  0  0  0
  4  6  1  0  0  0  0
  4  5  1  0  0  0  0
  5 30  1  1  0  0  0
  7 40  1  6  0  0  0
  7  5  1  0  0  0  0
  8 10  1  0  0  0  0
 10 16  1  0  0  0  0
 10  9  2  0  0  0  0
 11  8  2  0  0  0  0
 11 12  1  0  0  0  0
 12 13  2  0  0  0  0
 13  9  1  0  0  0  0
 13  3  1  0  0  0  0
 14 28  1  1  0  0  0
 14 18  1  0  0  0  0
 14 21  1  0  0  0  0
 16 23  1  0  0  0  0
 17 19  1  1  0  0  0
 17 28  1  0  0  0  0
 17 27  1  0  0  0  0
 18 20  1  6  0  0  0
 18 21  1  0  0  0  0
 18 22  1  0  0  0  0
 19 25  1  0  0  0  0
 20 16  1  0  0  0  0
 21 15  1  6  0  0  0
 22 23  1  0  0  0  0
 24 26  1  0  0  0  0
 25 24  1  0  0  0  0
 27 15  1  0  0  0  0
 27 26  1  1  0  0  0
 29 31  2  0  0  0  0
 30 29  1  0  0  0  0
 33 32  1  0  0  0  0
 34 39  2  0  0  0  0
 34 33  1  0  0  0  0
 35 32  1  0  0  0  0
 36 35  1  0  0  0  0
 37 29  1  6  0  0  0
 37 34  1  0  0  0  0
 38 37  1  0  0  0  0
 38 36  1  0  0  0  0
 41 48  2  0  0  0  0
 42 43  1  0  0  0  0
 43 44  2  0  0  0  0
 45 50  1  1  0  0  0
 45 48  1  0  0  0  0
 45 47  1  0  0  0  0
 46 43  1  0  0  0  0
 47 42  1  0  0  0  0
 48 46  1  0  0  0  0
 49 47  2  0  0  0  0
 49 40  1  0  0  0  0
 51 50  1  0  0  0  0
M  END
>  <MODEL>
6

>  <REMARK>
 VINA RESULT:      -7.3      4.419     10.984
  Name = 
  7 active torsions:
  status: ('A' for Active; 'I' for Inactive)
    1  A    between atoms: C_1  and  C_35
    2  A    between atoms: N_9  and  C_20
    3  A    between atoms: N_12  and  C_51
    4  A    between atoms: N_19  and  C_27
    5  A    between atoms: C_31  and  C_33
    6  A    between atoms: C_42  and  C_45
    7  A    between atoms: C_42  and  C_49
                            x       y       z     vdW  Elec       q    Type
                         _______ _______ _______ _____ _____    ______ ____

>  <TORSDO>
F 7

$$$$
=
 OpenBabel10232408543D

 51 58  0  0  1  0  0  0  0  0999 V2000
  189.7360  178.6760  138.0300 C   0  0  0  0  0  1  0  0  0  0  0  0
  190.1260  176.5350  140.8260 C   0  0  0  0  0  2  0  0  0  0  0  0
  189.8460  176.6530  139.4060 N   0  0  0  0  0  0  0  0  0  0  0  0
  189.0530  177.8380  139.0940 C   0  0  0  0  0  0  0  0  0  0  0  0
  189.0190  178.6360  140.4020 C   0  0  2  0  0  3  0  0  0  0  0  0
  187.6660  177.4240  138.6180 C   0  0  0  0  0  1  0  0  0  0  0  0
  189.3410  177.6430  141.5070 C   0  0  2  0  0  3  0  0  0  0  0  0
  191.2700  173.8140  136.5830 C   0  0  0  0  0  3  0  0  0  0  0  0
  191.7060  175.4290  138.3270 C   0  0  0  0  0  3  0  0  0  0  0  0
  192.1850  174.4950  137.3970 C   0  0  0  0  0  0  0  0  0  0  0  0
  189.9010  174.0720  136.6870 C   0  0  0  0  0  3  0  0  0  0  0  0
  189.4360  175.0110  137.6110 C   0  0  0  0  0  3  0  0  0  0  0  0
  190.3340  175.6930  138.4460 C   0  0  0  0  0  0  0  0  0  0  0  0
  196.2950  172.4960  135.5470 C   0  0  2  0  0  3  0  0  0  0  0  0
  195.4540  170.2690  136.3740 S   0  0  0  0  0  0  0  0  0  0  0  0
  193.5940  174.2530  137.2700 N   0  0  0  0  0  0  0  0  0  0  0  0
  198.0100  170.8160  135.0940 C   0  0  1  0  0  3  0  0  0  0  0  0
  195.4860  173.2130  136.5930 C   0  0  1  0  0  0  0  0  0  0  0  0
  199.5180  170.5260  135.1100 C   0  0  0  0  0  2  0  0  0  0  0  0
  194.0560  173.2330  136.4210 N   0  0  0  0  0  2  0  0  0  0  0  0
  196.0570  171.8680  136.9330 C   0  0  2  0  0  3  0  0  0  0  0  0
  196.1530  174.6110  137.4900 S   0  0  0  0  0  0  0  0  0  0  0  0
  194.5130  175.0320  138.0090 N   0  0  0  0  0  2  0  0  0  0  0  0
  199.2980  168.6590  136.7910 C   0  0  0  0  0  2  0  0  0  0  0  0
  199.8090  169.0550  135.3970 C   0  0  0  0  0  2  0  0  0  0  0  0
  197.9610  169.3120  137.1710 C   0  0  0  0  0  2  0  0  0  0  0  0
  197.1860  169.7730  135.9340 C   0  0  1  0  0  3  0  0  0  0  0  0
  197.7860  172.2900  135.4960 C   0  0  0  0  0  2  0  0  0  0  0  0
  186.7680  178.7500  141.5390 C   0  0  0  0  0  0  0  0  0  0  0  0
  187.7430  179.2990  140.6490 N   0  0  0  0  0  2  0  0  0  0  0  0
  186.9370  177.6090  142.0490 O   0  0  0  0  0  0  0  0  0  0  0  0
  182.8160  178.9090  142.9300 O   0  0  0  0  0  0  0  0  0  0  0  0
  183.2270  178.3190  141.7250 C   0  0  0  0  0  2  0  0  0  0  0  0
  184.3110  179.1640  141.1180 C   0  0  0  0  0  0  0  0  0  0  0  0
  183.5130  178.2540  143.9690 C   0  0  0  0  0  2  0  0  0  0  0  0
  185.0340  178.4600  143.8840 C   0  0  0  0  0  2  0  0  0  0  0  0
  185.5460  179.5390  141.9050 C   0  0  1  0  0  3  0  0  0  0  0  0
  185.3450  179.7080  143.3010 O   0  0  0  0  0  0  0  0  0  0  0  0
  184.2130  179.5190  139.9550 O   0  0  0  0  0  0  0  0  0  0  0  0
  190.1710  178.3310  142.5850 C   0  0  0  0  0  2  0  0  0  0  0  0
  189.3020  178.2550  148.5620 O   0  0  0  0  0  0  0  0  0  0  0  0
  190.8910  176.9660  145.0070 N   0  0  0  0  0  2  0  0  0  0  0  0
  191.3930  176.4490  146.2370 C   0  0  0  0  0  0  0  0  0  0  0  0
  192.3590  175.6400  146.2360 O   0  0  0  0  0  0  0  0  0  0  0  0
  188.9030  178.0100  146.2170 C   0  0  2  0  0  3  0  0  0  0  0  0
  190.8210  176.8800  147.4710 N   0  0  0  0  0  2  0  0  0  0  0  0
  189.7550  177.8360  144.9860 C   0  0  0  0  0  0  0  0  0  0  0  0
  189.6810  177.7440  147.4780 C   0  0  0  0  0  0  0  0  0  0  0  0
  189.4050  178.4680  143.8640 C   0  0  0  0  0  3  0  0  0  0  0  0
  187.6980  177.0800  146.1370 C   0  0  0  0  0  2  0  0  0  0  0  0
  186.5870  177.6820  146.7310 O   0  0  0  0  0  1  0  0  0  0  0  0
  1  4  1  0  0  0  0
  2  7  1  0  0  0  0
  3  2  1  0  0  0  0
  4  3  1  0  0  0  0
  4  5  1  0  0  0  0
  5 30  1  1  0  0  0
  5  7  1  0  0  0  0
  6  4  1  0  0  0  0
  7 40  1  1  0  0  0
  8 11  2  0  0  0  0
  8 10  1  0  0  0  0
  9 13  1  0  0  0  0
 10  9  2  0  0  0  0
 11 12  1  0  0  0  0
 12 13  2  0  0  0  0
 13  3  1  0  0  0  0
 14 28  1  1  0  0  0
 14 18  1  0  0  0  0
 14 21  1  0  0  0  0
 16 10  1  0  0  0  0
 16 23  1  0  0  0  0
 17 19  1  1  0  0  0
 17 28  1  0  0  0  0
 17 27  1  0  0  0  0
 18 20  1  6  0  0  0
 18 21  1  0  0  0  0
 18 22  1  0  0  0  0
 19 25  1  0  0  0  0
 20 16  1  0  0  0  0
 21 15  1  6  0  0  0
 22 23  1  0  0  0  0
 24 26  1  0  0  0  0
 25 24  1  0  0  0  0
 27 15  1  0  0  0  0
 27 26  1  1  0  0  0
 29 31  2  0  0  0  0
 30 29  1  0  0  0  0
 32 35  1  0  0  0  0
 33 32  1  0  0  0  0
 34 33  1  0  0  0  0
 34 37  1  0  0  0  0
 36 35  1  0  0  0  0
 37 29  1  1  0  0  0
 37 38  1  0  0  0  0
 38 36  1  0  0  0  0
 39 34  2  0  0  0  0
 40 49  1  0  0  0  0
 42 43  1  0  0  0  0
 43 46  1  0  0  0  0
 44 43  2  0  0  0  0
 45 50  1  6  0  0  0
 45 48  1  0  0  0  0
 46 48  1  0  0  0  0
 47 42  1  0  0  0  0
 47 45  1  0  0  0  0
 48 41  2  0  0  0  0
 49 47  2  0  0  0  0
 50 51  1  0  0  0  0
M  END
>  <MODEL>
7

>  <REMARK>
 VINA RESULT:      -7.0      4.528     11.325
  Name = 
  7 active torsions:
  status: ('A' for Active; 'I' for Inactive)
    1  A    between atoms: C_1  and  C_35
    2  A    between atoms: N_9  and  C_20
    3  A    between atoms: N_12  and  C_51
    4  A    between atoms: N_19  and  C_27
    5  A    between atoms: C_31  and  C_33
    6  A    between atoms: C_42  and  C_45
    7  A    between atoms: C_42  and  C_49
                            x       y       z     vdW  Elec       q    Type
                         _______ _______ _______ _____ _____    ______ ____

>  <TORSDO>
F 7

$$$$
=
 OpenBabel10232408543D

 51 58  0  0  1  0  0  0  0  0999 V2000
  188.4510  177.5960  135.0390 C   0  0  0  0  0  1  0  0  0  0  0  0
  188.8720  176.1270  138.2360 C   0  0  0  0  0  2  0  0  0  0  0  0
  188.5750  175.9280  136.8290 N   0  0  0  0  0  0  0  0  0  0  0  0
  187.7800  177.0180  136.2710 C   0  0  0  0  0  0  0  0  0  0  0  0
  187.7630  178.0860  137.3680 C   0  0  2  0  0  3  0  0  0  0  0  0
  186.3860  176.5140  135.9140 C   0  0  0  0  0  1  0  0  0  0  0  0
  188.0970  177.3620  138.6630 C   0  0  2  0  0  3  0  0  0  0  0  0
  189.9580  172.5280  134.6870 C   0  0  0  0  0  3  0  0  0  0  0  0
  190.3540  174.2970  136.2860 C   0  0  0  0  0  3  0  0  0  0  0  0
  190.8190  173.1770  135.5820 C   0  0  0  0  0  0  0  0  0  0  0  0
  188.6570  173.0000  134.4880 C   0  0  0  0  0  3  0  0  0  0  0  0
  188.2080  174.1220  135.1880 C   0  0  0  0  0  3  0  0  0  0  0  0
  189.0490  174.7770  136.1000 C   0  0  0  0  0  0  0  0  0  0  0  0
  195.4650  173.2660  137.2300 C   0  0  2  0  0  3  0  0  0  0  0  0
  195.8110  175.3260  135.8200 S   0  0  0  0  0  0  0  0  0  0  0  0
  192.1650  172.7110  135.7640 N   0  0  0  0  0  0  0  0  0  0  0  0
  197.8120  173.9260  137.4050 C   0  0  1  0  0  3  0  0  0  0  0  0
  194.3550  172.8090  136.3250 C   0  0  1  0  0  0  0  0  0  0  0  0
  199.2600  173.4160  137.4450 C   0  0  0  0  0  2  0  0  0  0  0  0
  193.1180  173.5440  136.3760 N   0  0  0  0  0  2  0  0  0  0  0  0
  195.5040  173.5580  135.7180 C   0  0  2  0  0  3  0  0  0  0  0  0
  194.1870  171.0900  135.8530 S   0  0  0  0  0  0  0  0  0  0  0  0
  192.5320  171.4230  135.3160 N   0  0  0  0  0  2  0  0  0  0  0  0
  199.9180  174.6540  135.3490 C   0  0  0  0  0  2  0  0  0  0  0  0
  200.2320  174.4220  136.8350 C   0  0  0  0  0  2  0  0  0  0  0  0
  198.4170  174.6790  135.0280 C   0  0  0  0  0  2  0  0  0  0  0  0
  197.5790  174.9910  136.2700 C   0  0  1  0  0  3  0  0  0  0  0  0
  196.8600  172.7110  137.3540 C   0  0  0  0  0  2  0  0  0  0  0  0
  185.4180  178.2950  138.2800 C   0  0  0  0  0  0  0  0  0  0  0  0
  186.4920  178.7930  137.4770 N   0  0  0  0  0  2  0  0  0  0  0  0
  185.5010  177.1620  138.8280 O   0  0  0  0  0  0  0  0  0  0  0  0
  181.7800  178.9580  140.2540 O   0  0  0  0  0  0  0  0  0  0  0  0
  182.0420  177.8950  139.3770 C   0  0  0  0  0  2  0  0  0  0  0  0
  182.8940  178.4010  138.2470 C   0  0  0  0  0  0  0  0  0  0  0  0
  182.7220  178.8700  141.3040 C   0  0  0  0  0  2  0  0  0  0  0  0
  184.1680  179.0580  140.8180 C   0  0  0  0  0  2  0  0  0  0  0  0
  184.1930  179.1290  138.5090 C   0  0  1  0  0  3  0  0  0  0  0  0
  184.2200  179.9100  139.6940 O   0  0  0  0  0  0  0  0  0  0  0  0
  182.5520  178.1830  137.0960 O   0  0  0  0  0  0  0  0  0  0  0  0
  188.9410  178.2690  139.5520 C   0  0  0  0  0  2  0  0  0  0  0  0
  188.4290  178.1220  145.5680 O   0  0  0  0  0  0  0  0  0  0  0  0
  189.5380  176.7020  141.8840 N   0  0  0  0  0  2  0  0  0  0  0  0
  190.0080  176.0550  143.0640 C   0  0  0  0  0  0  0  0  0  0  0  0
  190.8060  175.0840  142.9770 O   0  0  0  0  0  0  0  0  0  0  0  0
  187.8530  178.0450  143.2490 C   0  0  2  0  0  3  0  0  0  0  0  0
  189.6000  176.5350  144.3430 N   0  0  0  0  0  2  0  0  0  0  0  0
  188.5830  177.7650  141.9610 C   0  0  0  0  0  0  0  0  0  0  0  0
  188.6420  177.5920  144.4490 C   0  0  0  0  0  0  0  0  0  0  0  0
  188.2900  178.4940  140.8820 C   0  0  0  0  0  3  0  0  0  0  0  0
  186.4940  177.3550  143.2220 C   0  0  0  0  0  2  0  0  0  0  0  0
  185.5530  178.1220  143.9120 O   0  0  0  0  0  1  0  0  0  0  0  0
  1  4  1  0  0  0  0
  2  7  1  0  0  0  0
  3  2  1  0  0  0  0
  4  3  1  0  0  0  0
  4  5  1  0  0  0  0
  5 30  1  1  0  0  0
  5  7  1  0  0  0  0
  6  4  1  0  0  0  0
  7 40  1  1  0  0  0
  8 10  1  0  0  0  0
 10 16  1  0  0  0  0
 10  9  2  0  0  0  0
 11  8  2  0  0  0  0
 11 12  1  0  0  0  0
 12 13  2  0  0  0  0
 13  9  1  0  0  0  0
 13  3  1  0  0  0  0
 14 28  1  6  0  0  0
 15 27  1  0  0  0  0
 16 20  1  0  0  0  0
 17 28  1  6  0  0  0
 17 19  1  0  0  0  0
 18 22  1  6  0  0  0
 18 20  1  0  0  0  0
 18 14  1  0  0  0  0
 21 15  1  1  0  0  0
 21 18  1  0  0  0  0
 21 14  1  0  0  0  0
 23 16  1  0  0  0  0
 23 22  1  0  0  0  0
 24 25  1  0  0  0  0
 25 19  1  0  0  0  0
 26 24  1  0  0  0  0
 27 26  1  6  0  0  0
 27 17  1  0  0  0  0
 29 31  2  0  0  0  0
 30 29  1  0  0  0  0
 32 35  1  0  0  0  0
 33 32  1  0  0  0  0
 34 37  1  0  0  0  0
 34 33  1  0  0  0  0
 36 35  1  0  0  0  0
 37 29  1  1  0  0  0
 37 38  1  0  0  0  0
 38 36  1  0  0  0  0
 39 34  2  0  0  0  0
 40 49  1  0  0  0  0
 42 47  1  0  0  0  0
 42 43  1  0  0  0  0
 43 46  1  0  0  0  0
 44 43  2  0  0  0  0
 45 50  1  6  0  0  0
 45 48  1  0  0  0  0
 46 48  1  0  0  0  0
 47 45  1  0  0  0  0
 48 41  2  0  0  0  0
 49 47  2  0  0  0  0
 50 51  1  0  0  0  0
M  END
>  <MODEL>
8

>  <REMARK>
 VINA RESULT:      -7.0      3.922     10.729
  Name = 
  7 active torsions:
  status: ('A' for Active; 'I' for Inactive)
    1  A    between atoms: C_1  and  C_35
    2  A    between atoms: N_9  and  C_20
    3  A    between atoms: N_12  and  C_51
    4  A    between atoms: N_19  and  C_27
    5  A    between atoms: C_31  and  C_33
    6  A    between atoms: C_42  and  C_45
    7  A    between atoms: C_42  and  C_49
                            x       y       z     vdW  Elec       q    Type
                         _______ _______ _______ _____ _____    ______ ____

>  <TORSDO>
F 7

$$$$
=
 OpenBabel10232408543D

 51 58  0  0  1  0  0  0  0  0999 V2000
  189.1050  177.2390  135.8060 C   0  0  0  0  0  1  0  0  0  0  0  0
  187.8960  177.8210  139.0860 C   0  0  0  0  0  2  0  0  0  0  0  0
  188.8930  177.1830  138.2460 N   0  0  0  0  0  0  0  0  0  0  0  0
  188.3300  176.6940  136.9910 C   0  0  0  0  0  0  0  0  0  0  0  0
  186.9090  177.2650  136.9550 C   0  0  2  0  0  3  0  0  0  0  0  0
  188.3560  175.1690  136.9700 C   0  0  0  0  0  1  0  0  0  0  0  0
  186.5590  177.6080  138.3940 C   0  0  2  0  0  3  0  0  0  0  0  0
  192.9700  176.9050  139.4150 C   0  0  0  0  0  3  0  0  0  0  0  0
  191.2490  176.6180  137.7420 C   0  0  0  0  0  3  0  0  0  0  0  0
  192.5960  176.5210  138.1190 C   0  0  0  0  0  0  0  0  0  0  0  0
  192.0110  177.3640  140.3210 C   0  0  0  0  0  3  0  0  0  0  0  0
  190.6700  177.4480  139.9370 C   0  0  0  0  0  3  0  0  0  0  0  0
  190.2770  177.0830  138.6400 C   0  0  0  0  0  0  0  0  0  0  0  0
  195.2940  173.1320  135.7650 C   0  0  2  0  0  3  0  0  0  0  0  0
  196.3390  172.5760  137.9900 S   0  0  0  0  0  0  0  0  0  0  0  0
  193.5750  176.0210  137.1970 N   0  0  0  0  0  0  0  0  0  0  0  0
  197.0290  171.4520  135.3950 C   0  0  1  0  0  3  0  0  0  0  0  0
  194.9750  174.5230  136.2400 C   0  0  1  0  0  0  0  0  0  0  0  0
  198.1770  171.0150  134.4740 C   0  0  0  0  0  2  0  0  0  0  0  0
  193.9300  174.6610  137.2210 N   0  0  0  0  0  2  0  0  0  0  0  0
  196.2260  173.8680  136.7450 C   0  0  2  0  0  3  0  0  0  0  0  0
  195.1950  175.9440  135.1730 S   0  0  0  0  0  0  0  0  0  0  0  0
  194.1890  176.8980  136.2750 N   0  0  0  0  0  2  0  0  0  0  0  0
  199.9190  171.2260  136.2860 C   0  0  0  0  0  2  0  0  0  0  0  0
  199.2790  170.2940  135.2450 C   0  0  0  0  0  2  0  0  0  0  0  0
  198.9170  172.1590  136.9820 C   0  0  0  0  0  2  0  0  0  0  0  0
  197.4870  171.6200  136.8910 C   0  0  1  0  0  3  0  0  0  0  0  0
  196.3510  172.6970  134.7840 C   0  0  0  0  0  2  0  0  0  0  0  0
  185.3490  176.5810  135.0920 C   0  0  0  0  0  0  0  0  0  0  0  0
  185.9270  176.3530  136.3800 N   0  0  0  0  0  2  0  0  0  0  0  0
  185.5880  177.6480  134.4630 O   0  0  0  0  0  0  0  0  0  0  0  0
  182.6510  173.3900  135.4280 O   0  0  0  0  0  0  0  0  0  0  0  0
  183.9900  173.3640  135.8480 C   0  0  0  0  0  2  0  0  0  0  0  0
  184.8220  174.1210  134.8510 C   0  0  0  0  0  0  0  0  0  0  0  0
  182.0180  174.4410  136.1270 C   0  0  0  0  0  2  0  0  0  0  0  0
  182.6040  175.8190  135.7820 C   0  0  0  0  0  2  0  0  0  0  0  0
  184.4770  175.5390  134.4570 C   0  0  1  0  0  3  0  0  0  0  0  0
  183.0900  175.8460  134.4560 O   0  0  0  0  0  0  0  0  0  0  0  0
  185.8190  173.5960  134.3840 O   0  0  0  0  0  0  0  0  0  0  0  0
  185.7090  178.8740  138.4240 C   0  0  0  0  0  2  0  0  0  0  0  0
  180.4880  178.8000  141.4600 O   0  0  0  0  0  0  0  0  0  0  0  0
  184.5660  178.6510  141.0500 N   0  0  0  0  0  2  0  0  0  0  0  0
  183.9870  178.7580  142.3480 C   0  0  0  0  0  0  0  0  0  0  0  0
  184.7260  178.8630  143.3630 O   0  0  0  0  0  0  0  0  0  0  0  0
  182.2860  178.1160  140.0400 C   0  0  2  0  0  3  0  0  0  0  0  0
  182.5680  178.7840  142.4890 N   0  0  0  0  0  2  0  0  0  0  0  0
  183.7440  178.4680  139.8930 C   0  0  0  0  0  0  0  0  0  0  0  0
  181.7230  178.5960  141.3510 C   0  0  0  0  0  0  0  0  0  0  0  0
  184.2660  178.5600  138.6680 C   0  0  0  0  0  3  0  0  0  0  0  0
  182.1130  176.6070  139.9150 C   0  0  0  0  0  2  0  0  0  0  0  0
  181.0700  176.3140  139.0340 O   0  0  0  0  0  1  0  0  0  0  0  0
  1  4  1  0  0  0  0
  3 13  1  0  0  0  0
  3  2  1  0  0  0  0
  4  3  1  0  0  0  0
  5 30  1  1  0  0  0
  5  4  1  0  0  0  0
  5  7  1  0  0  0  0
  6  4  1  0  0  0  0
  7 40  1  6  0  0  0
  7  2  1  0  0  0  0
  8 11  1  0  0  0  0
  9 10  1  0  0  0  0
  9 13  2  0  0  0  0
 10  8  2  0  0  0  0
 12 11  2  0  0  0  0
 13 12  1  0  0  0  0
 14 28  1  6  0  0  0
 14 18  1  0  0  0  0
 14 21  1  0  0  0  0
 16 20  1  0  0  0  0
 16 10  1  0  0  0  0
 17 19  1  6  0  0  0
 17 27  1  0  0  0  0
 18 22  1  6  0  0  0
 18 21  1  0  0  0  0
 18 20  1  0  0  0  0
 19 25  1  0  0  0  0
 21 15  1  1  0  0  0
 22 23  1  0  0  0  0
 23 16  1  0  0  0  0
 24 26  1  0  0  0  0
 25 24  1  0  0  0  0
 27 26  1  6  0  0  0
 27 15  1  0  0  0  0
 28 17  1  0  0  0  0
 29 30  1  0  0  0  0
 31 29  2  0  0  0  0
 32 33  1  0  0  0  0
 32 35  1  0  0  0  0
 34 33  1  0  0  0  0
 36 35  1  0  0  0  0
 37 34  1  0  0  0  0
 37 29  1  1  0  0  0
 38 37  1  0  0  0  0
 38 36  1  0  0  0  0
 39 34  2  0  0  0  0
 40 49  1  0  0  0  0
 42 43  1  0  0  0  0
 43 46  1  0  0  0  0
 43 44  2  0  0  0  0
 45 50  1  1  0  0  0
 45 48  1  0  0  0  0
 47 45  1  0  0  0  0
 47 42  1  0  0  0  0
 48 41  2  0  0  0  0
 48 46  1  0  0  0  0
 49 47  2  0  0  0  0
 51 50  1  0  0  0  0
M  END
>  <MODEL>
9

>  <REMARK>
 VINA RESULT:      -6.7      4.787     11.349
  Name = 
  7 active torsions:
  status: ('A' for Active; 'I' for Inactive)
    1  A    between atoms: C_1  and  C_35
    2  A    between atoms: N_9  and  C_20
    3  A    between atoms: N_12  and  C_51
    4  A    between atoms: N_19  and  C_27
    5  A    between atoms: C_31  and  C_33
    6  A    between atoms: C_42  and  C_45
    7  A    between atoms: C_42  and  C_49
                            x       y       z     vdW  Elec       q    Type
                         _______ _______ _______ _____ _____    ______ ____

>  <TORSDO>
F 7

$$$$
