=
 OpenBabel10232411163D

 33 36  0  0  1  0  0  0  0  0999 V2000
  191.6780  176.1070  144.7520 C   0  0  0  0  0  3  0  0  0  0  0  0
  189.7050  178.0350  144.3300 C   0  0  0  0  0  3  0  0  0  0  0  0
  190.9750  176.6330  145.8410 C   0  0  0  0  0  0  0  0  0  0  0  0
  191.3940  176.5420  143.4550 C   0  0  0  0  0  3  0  0  0  0  0  0
  190.4060  177.5060  143.2360 C   0  0  0  0  0  0  0  0  0  0  0  0
  191.2660  176.1880  147.1250 O   0  0  0  0  0  1  0  0  0  0  0  0
  189.9810  177.6010  145.6360 C   0  0  0  0  0  0  0  0  0  0  0  0
  190.5100  177.2370  140.7990 C   0  0  0  0  0  3  0  0  0  0  0  0
  190.1220  177.9370  141.8610 C   0  0  0  0  0  3  0  0  0  0  0  0
  188.8580  178.3570  139.3710 C   0  0  0  0  0  3  0  0  0  0  0  0
  188.0400  177.6850  138.5740 C   0  0  0  0  0  3  0  0  0  0  0  0
  190.2070  177.7060  139.4150 C   0  0  2  0  0  3  0  0  0  0  0  0
  189.9980  176.5360  138.5110 C   0  0  0  0  0  0  0  0  0  0  0  0
  188.7590  176.5450  138.0250 C   0  0  0  0  0  0  0  0  0  0  0  0
  187.0210  174.8830  137.3570 O   0  0  0  0  0  1  0  0  0  0  0  0
  188.7280  175.4250  135.9400 O   0  0  0  0  0  0  0  0  0  0  0  0
  188.1730  175.5980  137.0560 C   0  0  0  0  0  0  0  0  0  0  0  0
  192.2970  176.3010  137.6320 C   0  0  0  0  0  1  0  0  0  0  0  0
  191.0800  175.5650  138.1610 C   0  0  0  0  0  2  0  0  0  0  0  0
  189.2840  178.1170  146.7360 O   0  0  0  0  0  0  0  0  0  0  0  0
  187.9540  177.7270  147.0640 C   0  0  0  0  0  2  0  0  0  0  0  0
  187.2710  177.2450  145.8730 N   0  0  0  0  0  2  0  0  0  0  0  0
  185.0800  178.3320  146.1940 C   0  0  0  0  0  3  0  0  0  0  0  0
  183.9440  178.9450  145.6580 C   0  0  0  0  0  3  0  0  0  0  0  0
  185.9640  178.0170  143.9640 C   0  0  0  0  0  3  0  0  0  0  0  0
  186.0940  177.8640  145.3470 C   0  0  0  0  0  0  0  0  0  0  0  0
  184.8280  178.6320  143.4180 C   0  0  0  0  0  0  0  0  0  0  0  0
  183.8190  179.0940  144.2750 C   0  0  0  0  0  3  0  0  0  0  0  0
  183.9780  178.7100  139.9100 N   0  0  0  0  0  0  0  0  0  0  0  0
  184.6980  178.8020  141.9630 C   0  0  0  0  0  0  0  0  0  0  0  0
  185.1120  179.3920  139.9540 N   0  0  0  0  0  0  0  0  0  0  0  0
  183.6810  178.3190  141.1640 C   0  0  0  0  0  2  0  0  0  0  0  0
  185.5760  179.4650  141.1910 N   0  0  0  0  0  0  0  0  0  0  0  0
  1  3  1  0  0  0  0
  2  7  1  0  0  0  0
  3  6  1  0  0  0  0
  4  1  2  0  0  0  0
  5  4  1  0  0  0  0
  5  2  2  0  0  0  0
  7  3  2  0  0  0  0
  7 20  1  0  0  0  0
  8  9  2  0  0  0  0
  9  5  1  0  0  0  0
 10 12  1  0  0  0  0
 11 10  2  0  0  0  0
 12  8  1  1  0  0  0
 13 12  1  0  0  0  0
 14 13  2  0  0  0  0
 14 11  1  0  0  0  0
 16 17  2  0  0  0  0
 17 15  1  0  0  0  0
 17 14  1  0  0  0  0
 18 19  1  0  0  0  0
 19 13  1  0  0  0  0
 20 21  1  0  0  0  0
 22 21  1  0  0  0  0
 24 23  1  0  0  0  0
 25 26  1  0  0  0  0
 26 22  1  0  0  0  0
 26 23  2  0  0  0  0
 27 25  2  0  0  0  0
 27 28  1  0  0  0  0
 28 24  2  0  0  0  0
 29 31  2  0  0  0  0
 29 32  1  0  0  0  0
 30 27  1  0  0  0  0
 31 33  1  0  0  0  0
 32 30  1  0  0  0  0
 33 30  2  0  0  0  0
M  END
>  <MODEL>
1

>  <REMARK>
 VINA RESULT:      -9.1      0.000      0.000
  Name = 
  9 active torsions:
  status: ('A' for Active; 'I' for Inactive)
    1  A    between atoms: C_4  and  C_24
    2  A    between atoms: C_5  and  C_21
    3  A    between atoms: C_9  and  C_10
    4  A    between atoms: C_17  and  C_25
    5  A    between atoms: C_20  and  N_32
    6  A    between atoms: C_26  and  C_30
    7  A    between atoms: O_28  and  C_31
    8  A    between atoms: O_28  and  C_33
    9  A    between atoms: N_32  and  C_33
                            x       y       z     vdW  Elec       q    Type
                         _______ _______ _______ _____ _____    ______ ____

>  <TORSDO>
F 9

$$$$
=
 OpenBabel10232411163D

 33 36  0  0  1  0  0  0  0  0999 V2000
  191.5220  176.6960  145.0240 C   0  0  0  0  0  3  0  0  0  0  0  0
  189.1380  177.8180  144.1040 C   0  0  0  0  0  3  0  0  0  0  0  0
  190.4950  176.9850  145.9280 C   0  0  0  0  0  0  0  0  0  0  0  0
  191.3570  176.9640  143.6630 C   0  0  0  0  0  3  0  0  0  0  0  0
  190.1650  177.5250  143.1950 C   0  0  0  0  0  0  0  0  0  0  0  0
  190.6730  176.7100  147.2780 O   0  0  0  0  0  1  0  0  0  0  0  0
  189.2940  177.5490  145.4730 C   0  0  0  0  0  0  0  0  0  0  0  0
  190.7570  177.1730  140.8390 C   0  0  0  0  0  3  0  0  0  0  0  0
  190.0150  177.7870  141.7570 C   0  0  0  0  0  3  0  0  0  0  0  0
  189.1260  177.6140  139.0590 C   0  0  0  0  0  3  0  0  0  0  0  0
  188.7390  176.6780  138.2040 C   0  0  0  0  0  3  0  0  0  0  0  0
  190.5800  177.4650  139.3860 C   0  0  2  0  0  3  0  0  0  0  0  0
  190.9420  176.2660  138.5730 C   0  0  0  0  0  0  0  0  0  0  0  0
  189.8840  175.8360  137.8910 C   0  0  0  0  0  0  0  0  0  0  0  0
  189.9140  174.9370  135.5630 O   0  0  0  0  0  0  0  0  0  0  0  0
  189.7110  173.5360  137.3550 O   0  0  0  0  0  1  0  0  0  0  0  0
  189.8360  174.7150  136.9320 C   0  0  0  0  0  0  0  0  0  0  0  0
  193.1450  176.4710  137.4690 C   0  0  0  0  0  1  0  0  0  0  0  0
  192.3300  175.7120  138.4990 C   0  0  0  0  0  2  0  0  0  0  0  0
  188.2740  177.8310  146.3900 O   0  0  0  0  0  0  0  0  0  0  0  0
  186.9040  177.5250  146.1460 C   0  0  0  0  0  2  0  0  0  0  0  0
  186.1750  178.7410  145.8190 N   0  0  0  0  0  2  0  0  0  0  0  0
  183.7780  178.8000  145.2400 C   0  0  0  0  0  3  0  0  0  0  0  0
  182.7680  178.8520  144.2750 C   0  0  0  0  0  3  0  0  0  0  0  0
  185.4510  178.8180  143.4920 C   0  0  0  0  0  3  0  0  0  0  0  0
  185.1250  178.7820  144.8510 C   0  0  0  0  0  0  0  0  0  0  0  0
  184.4440  178.8700  142.5170 C   0  0  0  0  0  0  0  0  0  0  0  0
  183.1010  178.8870  142.9180 C   0  0  0  0  0  3  0  0  0  0  0  0
  184.6700  179.0540  138.9180 N   0  0  0  0  0  0  0  0  0  0  0  0
  184.7900  178.9190  141.0880 C   0  0  0  0  0  0  0  0  0  0  0  0
  185.9330  178.9030  139.2870 N   0  0  0  0  0  0  0  0  0  0  0  0
  183.9130  179.0690  140.0330 C   0  0  0  0  0  2  0  0  0  0  0  0
  186.0390  178.8180  140.6030 N   0  0  0  0  0  0  0  0  0  0  0  0
  1  3  1  0  0  0  0
  2  7  1  0  0  0  0
  3  6  1  0  0  0  0
  4  1  2  0  0  0  0
  5  4  1  0  0  0  0
  5  2  2  0  0  0  0
  7  3  2  0  0  0  0
  7 20  1  0  0  0  0
  8  9  2  0  0  0  0
  9  5  1  0  0  0  0
 10 12  1  0  0  0  0
 11 10  2  0  0  0  0
 12  8  1  1  0  0  0
 13 12  1  0  0  0  0
 14 11  1  0  0  0  0
 14 13  2  0  0  0  0
 15 17  2  0  0  0  0
 17 16  1  0  0  0  0
 17 14  1  0  0  0  0
 18 19  1  0  0  0  0
 19 13  1  0  0  0  0
 21 20  1  0  0  0  0
 22 21  1  0  0  0  0
 24 23  2  0  0  0  0
 25 26  2  0  0  0  0
 26 23  1  0  0  0  0
 26 22  1  0  0  0  0
 27 28  2  0  0  0  0
 27 25  1  0  0  0  0
 28 24  1  0  0  0  0
 29 31  2  0  0  0  0
 29 32  1  0  0  0  0
 30 27  1  0  0  0  0
 31 33  1  0  0  0  0
 32 30  1  0  0  0  0
 33 30  2  0  0  0  0
M  END
>  <MODEL>
2

>  <REMARK>
 VINA RESULT:      -9.0      1.100      1.328
  Name = 
  9 active torsions:
  status: ('A' for Active; 'I' for Inactive)
    1  A    between atoms: C_4  and  C_24
    2  A    between atoms: C_5  and  C_21
    3  A    between atoms: C_9  and  C_10
    4  A    between atoms: C_17  and  C_25
    5  A    between atoms: C_20  and  N_32
    6  A    between atoms: C_26  and  C_30
    7  A    between atoms: O_28  and  C_31
    8  A    between atoms: O_28  and  C_33
    9  A    between atoms: N_32  and  C_33
                            x       y       z     vdW  Elec       q    Type
                         _______ _______ _______ _____ _____    ______ ____

>  <TORSDO>
F 9

$$$$
=
 OpenBabel10232411163D

 33 36  0  0  1  0  0  0  0  0999 V2000
  189.6420  177.5950  138.6230 C   0  0  0  0  0  3  0  0  0  0  0  0
  188.5680  177.8520  141.1860 C   0  0  0  0  0  3  0  0  0  0  0  0
  190.4220  177.2780  139.7390 C   0  0  0  0  0  0  0  0  0  0  0  0
  188.3260  178.0370  138.7870 C   0  0  0  0  0  3  0  0  0  0  0  0
  187.7820  178.1670  140.0680 C   0  0  0  0  0  0  0  0  0  0  0  0
  191.7280  176.8380  139.5590 O   0  0  0  0  0  1  0  0  0  0  0  0
  189.8900  177.4040  141.0300 C   0  0  0  0  0  0  0  0  0  0  0  0
  185.5390  178.6390  139.1900 C   0  0  0  0  0  3  0  0  0  0  0  0
  186.3930  178.6240  140.2100 C   0  0  0  0  0  3  0  0  0  0  0  0
  183.7490  179.0560  140.8160 C   0  0  0  0  0  3  0  0  0  0  0  0
  182.7470  178.2070  141.0010 C   0  0  0  0  0  3  0  0  0  0  0  0
  184.1350  179.1130  139.3700 C   0  0  2  0  0  3  0  0  0  0  0  0
  183.1820  178.1310  138.7740 C   0  0  0  0  0  0  0  0  0  0  0  0
  182.3840  177.6320  139.7150 C   0  0  0  0  0  0  0  0  0  0  0  0
  181.4960  175.3070  139.5340 O   0  0  0  0  0  1  0  0  0  0  0  0
  180.1030  177.1090  139.3580 O   0  0  0  0  0  0  0  0  0  0  0  0
  181.2740  176.6780  139.5310 C   0  0  0  0  0  0  0  0  0  0  0  0
  183.7860  176.5190  136.9990 C   0  0  0  0  0  1  0  0  0  0  0  0
  183.1100  177.8420  137.3070 C   0  0  0  0  0  2  0  0  0  0  0  0
  190.6830  177.0810  142.1370 O   0  0  0  0  0  0  0  0  0  0  0  0
  190.2180  176.2770  143.2170 C   0  0  0  0  0  2  0  0  0  0  0  0
  190.5310  176.9210  144.4850 N   0  0  0  0  0  2  0  0  0  0  0  0
  189.8450  177.0900  146.8480 C   0  0  0  0  0  3  0  0  0  0  0  0
  188.8670  177.3720  147.8070 C   0  0  0  0  0  3  0  0  0  0  0  0
  188.2610  177.5800  145.0860 C   0  0  0  0  0  3  0  0  0  0  0  0
  189.5440  177.1920  145.4830 C   0  0  0  0  0  0  0  0  0  0  0  0
  187.2750  177.8650  146.0410 C   0  0  0  0  0  0  0  0  0  0  0  0
  187.5860  177.7590  147.4030 C   0  0  0  0  0  3  0  0  0  0  0  0
  184.1670  178.7470  144.4280 N   0  0  0  0  0  0  0  0  0  0  0  0
  185.9280  178.2840  145.6210 C   0  0  0  0  0  0  0  0  0  0  0  0
  183.9240  179.0110  145.7030 N   0  0  0  0  0  2  0  0  0  0  0  0
  185.4280  178.2830  144.3350 C   0  0  0  0  0  3  0  0  0  0  0  0
  184.9780  178.7400  146.4550 N   0  0  0  0  0  0  0  0  0  0  0  0
  1  4  2  0  0  0  0
  1  3  1  0  0  0  0
  3  7  2  0  0  0  0
  4  5  1  0  0  0  0
  5  9  1  0  0  0  0
  5  2  2  0  0  0  0
  6  3  1  0  0  0  0
  7  2  1  0  0  0  0
  7 20  1  0  0  0  0
  8  9  2  0  0  0  0
 10 11  2  0  0  0  0
 12  8  1  1  0  0  0
 12 10  1  0  0  0  0
 13 12  1  0  0  0  0
 13 14  2  0  0  0  0
 14 11  1  0  0  0  0
 16 17  2  0  0  0  0
 17 15  1  0  0  0  0
 17 14  1  0  0  0  0
 18 19  1  0  0  0  0
 19 13  1  0  0  0  0
 20 21  1  0  0  0  0
 21 22  1  0  0  0  0
 22 26  1  0  0  0  0
 23 24  1  0  0  0  0
 25 26  1  0  0  0  0
 25 27  2  0  0  0  0
 26 23  2  0  0  0  0
 27 28  1  0  0  0  0
 28 24  2  0  0  0  0
 29 31  1  0  0  0  0
 30 27  1  0  0  0  0
 30 33  2  0  0  0  0
 31 33  1  0  0  0  0
 32 29  2  0  0  0  0
 32 30  1  0  0  0  0
M  END
>  <MODEL>
3

>  <REMARK>
 VINA RESULT:      -8.5      2.921      5.698
  Name = 
  9 active torsions:
  status: ('A' for Active; 'I' for Inactive)
    1  A    between atoms: C_4  and  C_24
    2  A    between atoms: C_5  and  C_21
    3  A    between atoms: C_9  and  C_10
    4  A    between atoms: C_17  and  C_25
    5  A    between atoms: C_20  and  N_32
    6  A    between atoms: C_26  and  C_30
    7  A    between atoms: O_28  and  C_31
    8  A    between atoms: O_28  and  C_33
    9  A    between atoms: N_32  and  C_33
                            x       y       z     vdW  Elec       q    Type
                         _______ _______ _______ _____ _____    ______ ____

>  <TORSDO>
F 9

$$$$
=
 OpenBabel10232411163D

 33 36  0  0  1  0  0  0  0  0999 V2000
  186.3510  178.4640  147.3920 C   0  0  0  0  0  3  0  0  0  0  0  0
  186.3190  177.9980  144.6400 C   0  0  0  0  0  3  0  0  0  0  0  0
  187.3630  177.6990  146.8050 C   0  0  0  0  0  0  0  0  0  0  0  0
  185.3270  178.9980  146.6050 C   0  0  0  0  0  3  0  0  0  0  0  0
  185.3050  178.7690  145.2270 C   0  0  0  0  0  0  0  0  0  0  0  0
  188.3770  177.1770  147.5990 O   0  0  0  0  0  1  0  0  0  0  0  0
  187.3550  177.4600  145.4230 C   0  0  0  0  0  0  0  0  0  0  0  0
  183.5010  178.6300  143.5690 C   0  0  0  0  0  3  0  0  0  0  0  0
  184.2220  179.3510  144.4230 C   0  0  0  0  0  3  0  0  0  0  0  0
  181.0820  179.0190  143.4200 C   0  0  0  0  0  3  0  0  0  0  0  0
  180.2950  178.2950  142.6370 C   0  0  0  0  0  3  0  0  0  0  0  0
  182.4090  179.2540  142.7660 C   0  0  2  0  0  3  0  0  0  0  0  0
  182.2350  178.5190  141.4780 C   0  0  0  0  0  0  0  0  0  0  0  0
  181.0160  177.9880  141.4110 C   0  0  0  0  0  0  0  0  0  0  0  0
  180.0170  177.8810  139.1260 O   0  0  0  0  0  0  0  0  0  0  0  0
  180.2930  175.9880  140.3730 O   0  0  0  0  0  1  0  0  0  0  0  0
  180.4310  177.2360  140.2850 C   0  0  0  0  0  0  0  0  0  0  0  0
  183.1270  179.6780  139.4840 C   0  0  0  0  0  1  0  0  0  0  0  0
  183.2770  178.4820  140.4050 C   0  0  0  0  0  2  0  0  0  0  0  0
  188.3760  176.6940  144.8490 O   0  0  0  0  0  0  0  0  0  0  0  0
  189.6940  177.1920  144.6360 C   0  0  0  0  0  2  0  0  0  0  0  0
  189.6750  178.2180  143.6040 N   0  0  0  0  0  2  0  0  0  0  0  0
  191.1780  177.4040  141.8250 C   0  0  0  0  0  3  0  0  0  0  0  0
  191.4170  177.1310  140.4750 C   0  0  0  0  0  3  0  0  0  0  0  0
  188.9610  178.2000  141.2730 C   0  0  0  0  0  3  0  0  0  0  0  0
  189.9470  177.9410  142.2280 C   0  0  0  0  0  0  0  0  0  0  0  0
  189.1920  177.9280  139.9170 C   0  0  0  0  0  0  0  0  0  0  0  0
  190.4260  177.3920  139.5250 C   0  0  0  0  0  3  0  0  0  0  0  0
  187.0940  178.4900  137.0320 N   0  0  0  0  0  0  0  0  0  0  0  0
  188.1480  178.1910  138.9140 C   0  0  0  0  0  0  0  0  0  0  0  0
  186.2520  178.6410  138.0440 N   0  0  0  0  0  2  0  0  0  0  0  0
  188.3070  178.2040  137.5430 C   0  0  0  0  0  3  0  0  0  0  0  0
  186.8650  178.4650  139.2040 N   0  0  0  0  0  0  0  0  0  0  0  0
  2  5  2  0  0  0  0
  2  7  1  0  0  0  0
  3  1  1  0  0  0  0
  3  6  1  0  0  0  0
  4  1  2  0  0  0  0
  5  4  1  0  0  0  0
  7  3  2  0  0  0  0
  8  9  2  0  0  0  0
  9  5  1  0  0  0  0
 11 10  2  0  0  0  0
 12 10  1  0  0  0  0
 12  8  1  1  0  0  0
 13 12  1  0  0  0  0
 14 13  2  0  0  0  0
 14 11  1  0  0  0  0
 15 17  2  0  0  0  0
 17 16  1  0  0  0  0
 17 14  1  0  0  0  0
 18 19  1  0  0  0  0
 19 13  1  0  0  0  0
 20  7  1  0  0  0  0
 21 20  1  0  0  0  0
 22 21  1  0  0  0  0
 23 26  1  0  0  0  0
 24 23  2  0  0  0  0
 25 26  2  0  0  0  0
 26 22  1  0  0  0  0
 27 25  1  0  0  0  0
 28 27  2  0  0  0  0
 28 24  1  0  0  0  0
 29 32  2  0  0  0  0
 29 31  1  0  0  0  0
 30 33  2  0  0  0  0
 30 27  1  0  0  0  0
 31 33  1  0  0  0  0
 32 30  1  0  0  0  0
M  END
>  <MODEL>
4

>  <REMARK>
 VINA RESULT:      -8.5      2.668      6.613
  Name = 
  9 active torsions:
  status: ('A' for Active; 'I' for Inactive)
    1  A    between atoms: C_4  and  C_24
    2  A    between atoms: C_5  and  C_21
    3  A    between atoms: C_9  and  C_10
    4  A    between atoms: C_17  and  C_25
    5  A    between atoms: C_20  and  N_32
    6  A    between atoms: C_26  and  C_30
    7  A    between atoms: O_28  and  C_31
    8  A    between atoms: O_28  and  C_33
    9  A    between atoms: N_32  and  C_33
                            x       y       z     vdW  Elec       q    Type
                         _______ _______ _______ _____ _____    ______ ____

>  <TORSDO>
F 9

$$$$
=
 OpenBabel10232411163D

 33 36  0  0  1  0  0  0  0  0999 V2000
  190.6530  175.9240  138.1540 C   0  0  0  0  0  3  0  0  0  0  0  0
  188.6870  177.2870  139.5920 C   0  0  0  0  0  3  0  0  0  0  0  0
  189.3730  176.0740  137.6110 C   0  0  0  0  0  0  0  0  0  0  0  0
  190.9510  176.4570  139.4110 C   0  0  0  0  0  3  0  0  0  0  0  0
  189.9720  177.1410  140.1360 C   0  0  0  0  0  0  0  0  0  0  0  0
  189.0920  175.5420  136.3590 O   0  0  0  0  0  1  0  0  0  0  0  0
  188.3800  176.7580  138.3280 C   0  0  0  0  0  0  0  0  0  0  0  0
  189.3950  178.1490  142.2980 C   0  0  0  0  0  3  0  0  0  0  0  0
  190.3170  177.6990  141.4510 C   0  0  0  0  0  3  0  0  0  0  0  0
  191.2230  179.1210  143.6160 C   0  0  0  0  0  3  0  0  0  0  0  0
  191.9150  178.4130  144.4980 C   0  0  0  0  0  3  0  0  0  0  0  0
  189.7810  178.7140  143.6240 C   0  0  2  0  0  3  0  0  0  0  0  0
  189.7870  177.6370  144.6590 C   0  0  0  0  0  0  0  0  0  0  0  0
  191.0100  177.4860  145.1600 C   0  0  0  0  0  0  0  0  0  0  0  0
  191.1220  176.8370  147.5680 O   0  0  0  0  0  1  0  0  0  0  0  0
  192.0760  175.5280  145.9580 O   0  0  0  0  0  0  0  0  0  0  0  0
  191.4260  176.5690  146.2390 C   0  0  0  0  0  0  0  0  0  0  0  0
  187.8830  177.6630  146.2360 C   0  0  0  0  0  1  0  0  0  0  0  0
  188.5530  176.9140  145.0990 C   0  0  0  0  0  2  0  0  0  0  0  0
  187.1030  176.9020  137.7700 O   0  0  0  0  0  0  0  0  0  0  0  0
  186.6670  178.0960  137.1280 C   0  0  0  0  0  2  0  0  0  0  0  0
  186.0070  178.9650  138.0910 N   0  0  0  0  0  2  0  0  0  0  0  0
  183.8790  177.7800  138.4810 C   0  0  0  0  0  3  0  0  0  0  0  0
  182.8850  177.3350  139.3580 C   0  0  0  0  0  3  0  0  0  0  0  0
  185.0660  178.7870  140.3340 C   0  0  0  0  0  3  0  0  0  0  0  0
  184.9730  178.5100  138.9670 C   0  0  0  0  0  0  0  0  0  0  0  0
  184.0740  178.3430  141.2210 C   0  0  0  0  0  0  0  0  0  0  0  0
  182.9840  177.6160  140.7240 C   0  0  0  0  0  3  0  0  0  0  0  0
  183.7040  179.1150  144.7290 N   0  0  0  0  0  0  0  0  0  0  0  0
  184.1790  178.6270  142.6600 C   0  0  0  0  0  0  0  0  0  0  0  0
  185.0100  178.9300  144.6020 N   0  0  0  0  0  2  0  0  0  0  0  0
  183.1420  178.9310  143.5180 C   0  0  0  0  0  3  0  0  0  0  0  0
  185.3300  178.6310  143.3540 N   0  0  0  0  0  0  0  0  0  0  0  0
  1  4  1  0  0  0  0
  2  5  1  0  0  0  0
  3  1  2  0  0  0  0
  3  7  1  0  0  0  0
  4  5  2  0  0  0  0
  5  9  1  0  0  0  0
  6  3  1  0  0  0  0
  7  2  2  0  0  0  0
  9  8  2  0  0  0  0
 10 12  1  0  0  0  0
 10 11  2  0  0  0  0
 11 14  1  0  0  0  0
 12  8  1  6  0  0  0
 12 13  1  0  0  0  0
 13 19  1  0  0  0  0
 13 14  2  0  0  0  0
 14 17  1  0  0  0  0
 16 17  2  0  0  0  0
 17 15  1  0  0  0  0
 19 18  1  0  0  0  0
 20  7  1  0  0  0  0
 21 20  1  0  0  0  0
 21 22  1  0  0  0  0
 22 26  1  0  0  0  0
 23 26  2  0  0  0  0
 23 24  1  0  0  0  0
 24 28  2  0  0  0  0
 25 27  2  0  0  0  0
 26 25  1  0  0  0  0
 27 30  1  0  0  0  0
 28 27  1  0  0  0  0
 30 33  2  0  0  0  0
 30 32  1  0  0  0  0
 31 29  1  0  0  0  0
 32 29  2  0  0  0  0
 33 31  1  0  0  0  0
M  END
>  <MODEL>
5

>  <REMARK>
 VINA RESULT:      -8.4      1.677      6.774
  Name = 
  9 active torsions:
  status: ('A' for Active; 'I' for Inactive)
    1  A    between atoms: C_4  and  C_24
    2  A    between atoms: C_5  and  C_21
    3  A    between atoms: C_9  and  C_10
    4  A    between atoms: C_17  and  C_25
    5  A    between atoms: C_20  and  N_32
    6  A    between atoms: C_26  and  C_30
    7  A    between atoms: O_28  and  C_31
    8  A    between atoms: O_28  and  C_33
    9  A    between atoms: N_32  and  C_33
                            x       y       z     vdW  Elec       q    Type
                         _______ _______ _______ _____ _____    ______ ____

>  <TORSDO>
F 9

$$$$
=
 OpenBabel10232411163D

 33 36  0  0  1  0  0  0  0  0999 V2000
  182.8440  178.8690  144.5560 C   0  0  0  0  0  3  0  0  0  0  0  0
  185.1620  178.4260  143.0650 C   0  0  0  0  0  3  0  0  0  0  0  0
  184.0770  178.7500  145.2060 C   0  0  0  0  0  0  0  0  0  0  0  0
  182.7700  178.7690  143.1650 C   0  0  0  0  0  3  0  0  0  0  0  0
  183.9260  178.5480  142.4110 C   0  0  0  0  0  0  0  0  0  0  0  0
  184.1350  178.8540  146.5900 O   0  0  0  0  0  1  0  0  0  0  0  0
  185.2460  178.5280  144.4630 C   0  0  0  0  0  0  0  0  0  0  0  0
  184.5940  179.1680  140.1330 C   0  0  0  0  0  3  0  0  0  0  0  0
  183.8200  178.4580  140.9490 C   0  0  0  0  0  3  0  0  0  0  0  0
  183.0670  178.6260  138.2890 C   0  0  0  0  0  3  0  0  0  0  0  0
  183.0840  177.4490  137.6780 C   0  0  0  0  0  3  0  0  0  0  0  0
  184.4560  179.0550  138.6510 C   0  0  2  0  0  3  0  0  0  0  0  0
  185.2600  177.9020  138.1470 C   0  0  0  0  0  0  0  0  0  0  0  0
  184.4640  176.9980  137.5800 C   0  0  0  0  0  0  0  0  0  0  0  0
  184.6550  174.5100  137.5130 O   0  0  0  0  0  1  0  0  0  0  0  0
  185.4270  175.7910  135.7860 O   0  0  0  0  0  0  0  0  0  0  0  0
  184.8690  175.7450  136.9140 C   0  0  0  0  0  0  0  0  0  0  0  0
  187.3580  178.4760  136.9730 C   0  0  0  0  0  1  0  0  0  0  0  0
  186.7530  177.8490  138.2150 C   0  0  0  0  0  2  0  0  0  0  0  0
  186.4730  178.4130  145.1280 O   0  0  0  0  0  0  0  0  0  0  0  0
  186.7300  177.4230  146.1190 C   0  0  0  0  0  2  0  0  0  0  0  0
  188.0510  177.6270  146.6930 N   0  0  0  0  0  2  0  0  0  0  0  0
  190.4140  176.9200  146.6770 C   0  0  0  0  0  3  0  0  0  0  0  0
  191.5810  176.6150  145.9690 C   0  0  0  0  0  3  0  0  0  0  0  0
  189.2800  177.4130  144.5970 C   0  0  0  0  0  3  0  0  0  0  0  0
  189.2590  177.3220  145.9920 C   0  0  0  0  0  0  0  0  0  0  0  0
  190.4450  177.1090  143.8800 C   0  0  0  0  0  0  0  0  0  0  0  0
  191.5950  176.7090  144.5750 C   0  0  0  0  0  3  0  0  0  0  0  0
  191.1150  177.3490  140.3400 N   0  0  0  0  0  0  0  0  0  0  0  0
  190.4620  177.1950  142.4110 C   0  0  0  0  0  0  0  0  0  0  0  0
  189.7920  177.2900  140.3870 N   0  0  0  0  0  0  0  0  0  0  0  0
  191.5770  177.2920  141.6040 C   0  0  0  0  0  2  0  0  0  0  0  0
  189.3640  177.1950  141.6350 N   0  0  0  0  0  0  0  0  0  0  0  0
  1  3  1  0  0  0  0
  2  7  1  0  0  0  0
  3  6  1  0  0  0  0
  4  1  2  0  0  0  0
  5  2  2  0  0  0  0
  5  4  1  0  0  0  0
  7 20  1  0  0  0  0
  7  3  2  0  0  0  0
  8  9  2  0  0  0  0
  9  5  1  0  0  0  0
 10 12  1  0  0  0  0
 11 10  2  0  0  0  0
 12  8  1  1  0  0  0
 13 19  1  0  0  0  0
 13 12  1  0  0  0  0
 14 11  1  0  0  0  0
 14 13  2  0  0  0  0
 16 17  2  0  0  0  0
 17 15  1  0  0  0  0
 17 14  1  0  0  0  0
 18 19  1  0  0  0  0
 20 21  1  0  0  0  0
 21 22  1  0  0  0  0
 24 23  2  0  0  0  0
 25 26  2  0  0  0  0
 26 23  1  0  0  0  0
 26 22  1  0  0  0  0
 27 28  2  0  0  0  0
 27 25  1  0  0  0  0
 28 24  1  0  0  0  0
 29 31  2  0  0  0  0
 29 32  1  0  0  0  0
 30 27  1  0  0  0  0
 31 33  1  0  0  0  0
 32 30  1  0  0  0  0
 33 30  2  0  0  0  0
M  END
>  <MODEL>
6

>  <REMARK>
 VINA RESULT:      -8.4      2.641      5.767
  Name = 
  9 active torsions:
  status: ('A' for Active; 'I' for Inactive)
    1  A    between atoms: C_4  and  C_24
    2  A    between atoms: C_5  and  C_21
    3  A    between atoms: C_9  and  C_10
    4  A    between atoms: C_17  and  C_25
    5  A    between atoms: C_20  and  N_32
    6  A    between atoms: C_26  and  C_30
    7  A    between atoms: O_28  and  C_31
    8  A    between atoms: O_28  and  C_33
    9  A    between atoms: N_32  and  C_33
                            x       y       z     vdW  Elec       q    Type
                         _______ _______ _______ _____ _____    ______ ____

>  <TORSDO>
F 9

$$$$
=
 OpenBabel10232411163D

 33 36  0  0  1  0  0  0  0  0999 V2000
  182.4690  179.1260  144.3390 C   0  0  0  0  0  3  0  0  0  0  0  0
  184.4740  178.3500  142.5590 C   0  0  0  0  0  3  0  0  0  0  0  0
  182.2000  179.0760  142.9680 C   0  0  0  0  0  0  0  0  0  0  0  0
  183.7360  178.7860  144.8200 C   0  0  0  0  0  3  0  0  0  0  0  0
  184.7440  178.3960  143.9340 C   0  0  0  0  0  0  0  0  0  0  0  0
  180.9350  179.4150  142.5040 O   0  0  0  0  0  1  0  0  0  0  0  0
  183.2020  178.6870  142.0670 C   0  0  0  0  0  0  0  0  0  0  0  0
  186.7440  176.9770  144.0340 C   0  0  0  0  0  3  0  0  0  0  0  0
  186.0640  178.0340  144.4690 C   0  0  0  0  0  3  0  0  0  0  0  0
  188.3300  177.4220  145.8540 C   0  0  0  0  0  3  0  0  0  0  0  0
  189.3740  178.2250  145.7030 C   0  0  0  0  0  3  0  0  0  0  0  0
  188.0810  176.6360  144.6030 C   0  0  2  0  0  3  0  0  0  0  0  0
  189.1640  177.1510  143.7130 C   0  0  0  0  0  0  0  0  0  0  0  0
  189.9040  178.0480  144.3600 C   0  0  0  0  0  0  0  0  0  0  0  0
  192.1020  178.0650  143.1760 O   0  0  0  0  0  0  0  0  0  0  0  0
  191.2270  179.9860  144.0470 O   0  0  0  0  0  1  0  0  0  0  0  0
  191.1010  178.7490  143.8540 C   0  0  0  0  0  0  0  0  0  0  0  0
  188.8380  177.6140  141.3060 C   0  0  0  0  0  1  0  0  0  0  0  0
  189.3990  176.6420  142.3260 C   0  0  0  0  0  2  0  0  0  0  0  0
  182.9170  178.6400  140.6970 O   0  0  0  0  0  0  0  0  0  0  0  0
  182.5600  177.4390  140.0190 C   0  0  0  0  0  2  0  0  0  0  0  0
  182.6040  177.6510  138.5790 N   0  0  0  0  0  2  0  0  0  0  0  0
  183.4860  176.1980  136.7920 C   0  0  0  0  0  3  0  0  0  0  0  0
  184.5520  175.7760  135.9930 C   0  0  0  0  0  3  0  0  0  0  0  0
  184.9480  177.7650  137.9160 C   0  0  0  0  0  3  0  0  0  0  0  0
  183.6810  177.1940  137.7590 C   0  0  0  0  0  0  0  0  0  0  0  0
  186.0220  177.3480  137.1170 C   0  0  0  0  0  0  0  0  0  0  0  0
  185.8160  176.3500  136.1550 C   0  0  0  0  0  3  0  0  0  0  0  0
  189.4820  178.2530  137.6190 N   0  0  0  0  0  0  0  0  0  0  0  0
  187.3520  177.9570  137.2770 C   0  0  0  0  0  0  0  0  0  0  0  0
  188.9030  179.4200  137.3780 N   0  0  0  0  0  0  0  0  0  0  0  0
  188.5310  177.3000  137.5630 C   0  0  0  0  0  2  0  0  0  0  0  0
  187.6050  179.2730  137.1660 N   0  0  0  0  0  0  0  0  0  0  0  0
  1  4  1  0  0  0  0
  2  5  1  0  0  0  0
  3  1  2  0  0  0  0
  5  9  1  0  0  0  0
  5  4  2  0  0  0  0
  6  3  1  0  0  0  0
  7  2  2  0  0  0  0
  7  3  1  0  0  0  0
  8  9  2  0  0  0  0
 11 10  2  0  0  0  0
 12  8  1  6  0  0  0
 12 10  1  0  0  0  0
 13 14  2  0  0  0  0
 13 12  1  0  0  0  0
 14 11  1  0  0  0  0
 15 17  2  0  0  0  0
 17 16  1  0  0  0  0
 17 14  1  0  0  0  0
 18 19  1  0  0  0  0
 19 13  1  0  0  0  0
 20  7  1  0  0  0  0
 21 20  1  0  0  0  0
 22 21  1  0  0  0  0
 23 26  1  0  0  0  0
 24 28  1  0  0  0  0
 24 23  2  0  0  0  0
 26 25  2  0  0  0  0
 26 22  1  0  0  0  0
 27 30  1  0  0  0  0
 27 25  1  0  0  0  0
 28 27  2  0  0  0  0
 30 32  1  0  0  0  0
 31 29  2  0  0  0  0
 32 29  1  0  0  0  0
 33 30  2  0  0  0  0
 33 31  1  0  0  0  0
M  END
>  <MODEL>
7

>  <REMARK>
 VINA RESULT:      -8.4      3.169      7.455
  Name = 
  9 active torsions:
  status: ('A' for Active; 'I' for Inactive)
    1  A    between atoms: C_4  and  C_24
    2  A    between atoms: C_5  and  C_21
    3  A    between atoms: C_9  and  C_10
    4  A    between atoms: C_17  and  C_25
    5  A    between atoms: C_20  and  N_32
    6  A    between atoms: C_26  and  C_30
    7  A    between atoms: O_28  and  C_31
    8  A    between atoms: O_28  and  C_33
    9  A    between atoms: N_32  and  C_33
                            x       y       z     vdW  Elec       q    Type
                         _______ _______ _______ _____ _____    ______ ____

>  <TORSDO>
F 9

$$$$
=
 OpenBabel10232411163D

 33 36  0  0  1  0  0  0  0  0999 V2000
  181.8590  179.0430  140.4040 C   0  0  0  0  0  3  0  0  0  0  0  0
  184.5300  178.6020  141.0850 C   0  0  0  0  0  3  0  0  0  0  0  0
  182.2060  178.7970  141.7370 C   0  0  0  0  0  0  0  0  0  0  0  0
  182.8450  179.0710  139.4150 C   0  0  0  0  0  3  0  0  0  0  0  0
  184.1850  178.8520  139.7490 C   0  0  0  0  0  0  0  0  0  0  0  0
  181.2140  178.7750  142.7100 O   0  0  0  0  0  1  0  0  0  0  0  0
  183.5450  178.5750  142.0870 C   0  0  0  0  0  0  0  0  0  0  0  0
  185.9510  177.8450  138.3750 C   0  0  0  0  0  3  0  0  0  0  0  0
  185.2020  178.8970  138.6900 C   0  0  0  0  0  3  0  0  0  0  0  0
  186.8640  176.7480  136.3780 C   0  0  0  0  0  3  0  0  0  0  0  0
  187.9700  176.0170  136.4140 C   0  0  0  0  0  3  0  0  0  0  0  0
  186.9780  177.9270  137.2950 C   0  0  2  0  0  3  0  0  0  0  0  0
  188.3420  177.7230  137.8670 C   0  0  0  0  0  0  0  0  0  0  0  0
  188.9030  176.6350  137.3430 C   0  0  0  0  0  0  0  0  0  0  0  0
  191.3580  176.5950  136.8920 O   0  0  0  0  0  0  0  0  0  0  0  0
  190.4350  175.2260  138.4700 O   0  0  0  0  0  1  0  0  0  0  0  0
  190.2620  176.1200  137.6000 C   0  0  0  0  0  0  0  0  0  0  0  0
  188.8220  178.1770  140.2490 C   0  0  0  0  0  1  0  0  0  0  0  0
  188.9830  178.6760  138.8260 C   0  0  0  0  0  2  0  0  0  0  0  0
  183.8770  178.3320  143.4260 O   0  0  0  0  0  0  0  0  0  0  0  0
  184.6940  179.2100  144.1940 C   0  0  0  0  0  2  0  0  0  0  0  0
  184.9720  178.6170  145.4940 N   0  0  0  0  0  2  0  0  0  0  0  0
  186.6890  178.4100  147.2530 C   0  0  0  0  0  3  0  0  0  0  0  0
  187.9780  178.0390  147.6470 C   0  0  0  0  0  3  0  0  0  0  0  0
  187.1850  177.7260  144.9850 C   0  0  0  0  0  3  0  0  0  0  0  0
  186.2890  178.2560  145.9180 C   0  0  0  0  0  0  0  0  0  0  0  0
  188.4790  177.3510  145.3730 C   0  0  0  0  0  0  0  0  0  0  0  0
  188.8690  177.5110  146.7100 C   0  0  0  0  0  3  0  0  0  0  0  0
  191.2320  176.1850  143.3480 N   0  0  0  0  0  0  0  0  0  0  0  0
  189.4170  176.7830  144.3920 C   0  0  0  0  0  0  0  0  0  0  0  0
  190.1700  175.7890  142.6610 N   0  0  0  0  0  0  0  0  0  0  0  0
  190.7950  176.8190  144.4530 C   0  0  0  0  0  2  0  0  0  0  0  0
  189.0500  176.1390  143.2710 N   0  0  0  0  0  0  0  0  0  0  0  0
  1  3  1  0  0  0  0
  2  7  1  0  0  0  0
  3  7  2  0  0  0  0
  3  6  1  0  0  0  0
  4  5  1  0  0  0  0
  4  1  2  0  0  0  0
  5  2  2  0  0  0  0
  7 20  1  0  0  0  0
  8  9  2  0  0  0  0
  9  5  1  0  0  0  0
 10 11  2  0  0  0  0
 10 12  1  0  0  0  0
 11 14  1  0  0  0  0
 12 13  1  0  0  0  0
 12  8  1  1  0  0  0
 13 19  1  0  0  0  0
 14 17  1  0  0  0  0
 14 13  2  0  0  0  0
 15 17  2  0  0  0  0
 17 16  1  0  0  0  0
 19 18  1  0  0  0  0
 20 21  1  0  0  0  0
 21 22  1  0  0  0  0
 22 26  1  0  0  0  0
 23 24  1  0  0  0  0
 25 27  2  0  0  0  0
 25 26  1  0  0  0  0
 26 23  2  0  0  0  0
 27 28  1  0  0  0  0
 28 24  2  0  0  0  0
 29 32  1  0  0  0  0
 30 32  1  0  0  0  0
 30 27  1  0  0  0  0
 31 33  1  0  0  0  0
 31 29  2  0  0  0  0
 33 30  2  0  0  0  0
M  END
>  <MODEL>
8

>  <REMARK>
 VINA RESULT:      -8.4      2.849      5.925
  Name = 
  9 active torsions:
  status: ('A' for Active; 'I' for Inactive)
    1  A    between atoms: C_4  and  C_24
    2  A    between atoms: C_5  and  C_21
    3  A    between atoms: C_9  and  C_10
    4  A    between atoms: C_17  and  C_25
    5  A    between atoms: C_20  and  N_32
    6  A    between atoms: C_26  and  C_30
    7  A    between atoms: O_28  and  C_31
    8  A    between atoms: O_28  and  C_33
    9  A    between atoms: N_32  and  C_33
                            x       y       z     vdW  Elec       q    Type
                         _______ _______ _______ _____ _____    ______ ____

>  <TORSDO>
F 9

$$$$
=
 OpenBabel10232411163D

 33 36  0  0  1  0  0  0  0  0999 V2000
  182.7070  179.0770  141.6720 C   0  0  0  0  0  3  0  0  0  0  0  0
  185.4220  178.6110  141.2240 C   0  0  0  0  0  3  0  0  0  0  0  0
  183.2530  179.3110  140.4060 C   0  0  0  0  0  0  0  0  0  0  0  0
  183.5150  178.6090  142.7110 C   0  0  0  0  0  3  0  0  0  0  0  0
  184.8750  178.3720  142.4940 C   0  0  0  0  0  0  0  0  0  0  0  0
  182.4360  179.7740  139.3810 O   0  0  0  0  0  1  0  0  0  0  0  0
  184.6160  179.0780  140.1730 C   0  0  0  0  0  0  0  0  0  0  0  0
  186.8400  177.2180  143.4040 C   0  0  0  0  0  3  0  0  0  0  0  0
  185.6980  177.8700  143.6020 C   0  0  0  0  0  3  0  0  0  0  0  0
  187.6080  177.7000  145.6840 C   0  0  0  0  0  3  0  0  0  0  0  0
  188.8200  178.1740  145.9380 C   0  0  0  0  0  3  0  0  0  0  0  0
  187.6500  176.7180  144.5530 C   0  0  2  0  0  3  0  0  0  0  0  0
  189.1020  176.7350  144.2040 C   0  0  0  0  0  0  0  0  0  0  0  0
  189.7610  177.5600  145.0140 C   0  0  0  0  0  0  0  0  0  0  0  0
  191.7970  178.7230  144.1590 O   0  0  0  0  0  0  0  0  0  0  0  0
  191.9440  177.2000  145.8540 O   0  0  0  0  0  1  0  0  0  0  0  0
  191.2140  177.8170  145.0350 C   0  0  0  0  0  0  0  0  0  0  0  0
  189.9470  176.6720  141.8810 C   0  0  0  0  0  1  0  0  0  0  0  0
  189.7010  175.8660  143.1440 C   0  0  0  0  0  2  0  0  0  0  0  0
  185.1480  179.3140  138.9000 O   0  0  0  0  0  0  0  0  0  0  0  0
  185.7990  178.3070  138.1310 C   0  0  0  0  0  2  0  0  0  0  0  0
  187.2380  178.3750  138.3410 N   0  0  0  0  0  2  0  0  0  0  0  0
  187.7650  176.6580  136.6500 C   0  0  0  0  0  3  0  0  0  0  0  0
  188.6850  175.7940  136.0510 C   0  0  0  0  0  3  0  0  0  0  0  0
  189.4760  177.4200  138.1820 C   0  0  0  0  0  3  0  0  0  0  0  0
  188.1580  177.4740  137.7200 C   0  0  0  0  0  0  0  0  0  0  0  0
  190.4060  176.5560  137.5860 C   0  0  0  0  0  0  0  0  0  0  0  0
  190.0010  175.7430  136.5180 C   0  0  0  0  0  3  0  0  0  0  0  0
  193.6220  176.8550  139.2000 N   0  0  0  0  0  0  0  0  0  0  0  0
  191.7950  176.5080  138.0670 C   0  0  0  0  0  0  0  0  0  0  0  0
  193.8610  175.9940  138.2220 N   0  0  0  0  0  0  0  0  0  0  0  0
  192.3230  177.2050  139.1350 C   0  0  0  0  0  2  0  0  0  0  0  0
  192.7670  175.7620  137.5140 N   0  0  0  0  0  0  0  0  0  0  0  0
  1  4  1  0  0  0  0
  2  5  1  0  0  0  0
  3  1  2  0  0  0  0
  5  4  2  0  0  0  0
  5  9  1  0  0  0  0
  6  3  1  0  0  0  0
  7  3  1  0  0  0  0
  7  2  2  0  0  0  0
  8  9  2  0  0  0  0
 10 11  2  0  0  0  0
 12  8  1  6  0  0  0
 12 10  1  0  0  0  0
 13 12  1  0  0  0  0
 13 14  2  0  0  0  0
 14 17  1  0  0  0  0
 14 11  1  0  0  0  0
 15 17  2  0  0  0  0
 17 16  1  0  0  0  0
 18 19  1  0  0  0  0
 19 13  1  0  0  0  0
 20  7  1  0  0  0  0
 21 22  1  0  0  0  0
 21 20  1  0  0  0  0
 23 26  1  0  0  0  0
 24 28  1  0  0  0  0
 24 23  2  0  0  0  0
 26 25  2  0  0  0  0
 26 22  1  0  0  0  0
 27 30  1  0  0  0  0
 27 25  1  0  0  0  0
 28 27  2  0  0  0  0
 30 32  1  0  0  0  0
 31 29  2  0  0  0  0
 32 29  1  0  0  0  0
 33 30  2  0  0  0  0
 33 31  1  0  0  0  0
M  END
>  <MODEL>
9

>  <REMARK>
 VINA RESULT:      -8.3      3.435      8.293
  Name = 
  9 active torsions:
  status: ('A' for Active; 'I' for Inactive)
    1  A    between atoms: C_4  and  C_24
    2  A    between atoms: C_5  and  C_21
    3  A    between atoms: C_9  and  C_10
    4  A    between atoms: C_17  and  C_25
    5  A    between atoms: C_20  and  N_32
    6  A    between atoms: C_26  and  C_30
    7  A    between atoms: O_28  and  C_31
    8  A    between atoms: O_28  and  C_33
    9  A    between atoms: N_32  and  C_33
                            x       y       z     vdW  Elec       q    Type
                         _______ _______ _______ _____ _____    ______ ____

>  <TORSDO>
F 9

$$$$
