=
 OpenBabel10232412113D

 39 42  0  0  1  0  0  0  0  0999 V2000
  186.4620  177.4030  144.7830 C   0  0  2  0  0  3  0  0  0  0  0  0
  187.2760  178.3750  142.6280 C   0  0  0  0  0  3  0  0  0  0  0  0
  188.1630  176.2320  143.3230 C   0  0  0  0  0  3  0  0  0  0  0  0
  187.3210  177.3290  143.5550 C   0  0  0  0  0  0  0  0  0  0  0  0
  188.9010  177.2250  141.2350 C   0  0  0  0  0  0  0  0  0  0  0  0
  188.0610  178.3230  141.4720 C   0  0  0  0  0  3  0  0  0  0  0  0
  188.9480  176.1820  142.1680 C   0  0  0  0  0  3  0  0  0  0  0  0
  191.4780  176.9730  138.7960 C   0  0  0  0  0  0  0  0  0  0  0  0
  193.8130  176.6900  139.0820 O   0  0  0  0  0  0  0  0  0  0  0  0
  191.9000  175.7580  136.2040 C   0  0  0  0  0  3  0  0  0  0  0  0
  192.9630  176.1380  136.9280 C   0  0  0  0  0  0  0  0  0  0  0  0
  192.8140  176.6070  138.3190 C   0  0  0  0  0  0  0  0  0  0  0  0
  189.7210  177.1600  140.0140 C   0  0  0  0  0  0  0  0  0  0  0  0
  190.2470  175.5310  136.9110 S   0  0  0  0  0  0  0  0  0  0  0  0
  194.5330  176.1930  136.1500 Cl  0  0  0  0  0  0  0  0  0  0  0  0
  190.3140  177.0690  137.8800 C   0  0  1  0  0  3  0  0  0  0  0  0
  189.2100  177.1480  138.8230 N   0  0  0  0  0  0  0  0  0  0  0  0
  191.1390  177.0290  140.0380 N   0  0  0  0  0  0  0  0  0  0  0  0
  183.6840  179.5020  144.2980 C   0  0  1  0  0  3  0  0  0  0  0  0
  183.5650  178.9090  145.6220 N   0  0  0  0  0  2  0  0  0  0  0  0
  185.8830  178.8090  144.9870 C   0  0  2  0  0  3  0  0  0  0  0  0
  184.9170  178.8760  146.1580 C   0  0  0  0  0  2  0  0  0  0  0  0
  185.0790  179.2230  143.7790 C   0  0  0  0  0  2  0  0  0  0  0  0
  181.5170  178.6160  143.8140 O   0  0  0  0  0  0  0  0  0  0  0  0
  182.6580  178.9320  143.3770 C   0  0  0  0  0  0  0  0  0  0  0  0
  182.9850  178.7400  141.9990 N   0  0  0  0  0  2  0  0  0  0  0  0
  182.0520  178.1660  141.0430 C   0  0  0  0  0  3  0  0  0  0  0  0
  182.7950  177.2840  140.0580 C   0  0  0  0  0  1  0  0  0  0  0  0
  181.3570  179.2800  140.2870 C   0  0  0  0  0  1  0  0  0  0  0  0
  187.1550  176.9580  145.9210 O   0  0  0  0  0  0  0  0  0  0  0  0
  188.3270  177.7200  145.9700 C   0  0  1  0  0  3  0  0  0  0  0  0
  188.2170  178.7350  147.0970 C   0  0  0  0  0  2  0  0  0  0  0  0
  187.7180  177.3810  148.9930 O   0  0  0  0  0  0  0  0  0  0  0  0
  189.8530  178.2930  148.9670 N   0  0  0  0  0  1  0  0  0  0  0  0
  188.5620  178.1030  148.4020 C   0  0  0  0  0  0  0  0  0  0  0  0
  189.4690  176.8470  146.2040 N   0  0  0  0  0  2  0  0  0  0  0  0
  191.9230  176.3000  146.1580 C   0  0  0  0  0  1  0  0  0  0  0  0
  191.0220  178.2410  144.5230 S   0  0  0  0  0  0  0  0  0  0  0  0
  190.7650  177.0740  145.6430 C   0  0  0  0  0  0  0  0  0  0  0  0
  1 30  1  1  0  0  0
  2  4  1  0  0  0  0
  3  4  2  0  0  0  0
  4  1  1  0  0  0  0
  5  6  1  0  0  0  0
  5  7  2  0  0  0  0
  6  2  2  0  0  0  0
  7  3  1  0  0  0  0
  8 18  2  0  0  0  0
 10 14  1  0  0  0  0
 10 11  2  0  0  0  0
 11 12  1  0  0  0  0
 12  8  1  0  0  0  0
 12  9  2  0  0  0  0
 13 18  1  0  0  0  0
 13  5  1  0  0  0  0
 15 11  1  0  0  0  0
 16 14  1  6  0  0  0
 16  8  1  0  0  0  0
 16 17  1  0  0  0  0
 17 13  2  0  0  0  0
 19 25  1  6  0  0  0
 19 20  1  0  0  0  0
 20 22  1  0  0  0  0
 21  1  1  6  0  0  0
 21 22  1  0  0  0  0
 23 19  1  0  0  0  0
 23 21  1  0  0  0  0
 25 24  2  0  0  0  0
 26 25  1  0  0  0  0
 27 26  1  0  0  0  0
 28 27  1  0  0  0  0
 29 27  1  0  0  0  0
 30 31  1  0  0  0  0
 31 36  1  0  0  0  0
 31 32  1  1  0  0  0
 32 35  1  0  0  0  0
 35 34  1  0  0  0  0
 35 33  2  0  0  0  0
 38 39  2  0  0  0  0
 39 37  1  0  0  0  0
 39 36  1  0  0  0  0
M  END
>  <MODEL>
1

>  <REMARK>
 VINA RESULT:      -8.3      0.000      0.000
  Name = 
  11 active torsions:
  status: ('A' for Active; 'I' for Inactive)
    1  A    between atoms: C_2  and  C_7
    2  A    between atoms: C_3  and  N_13
    3  A    between atoms: C_10  and  C_24
    4  A    between atoms: C_10  and  C_32
    5  A    between atoms: C_14  and  C_33
    6  A    between atoms: N_19  and  C_24
    7  A    between atoms: N_19  and  C_28
    8  A    between atoms: O_21  and  C_24
    9  A    between atoms: O_21  and  C_33
   10  A    between atoms: C_23  and  C_27
   11  A    between atoms: C_26  and  C_33
                            x       y       z     vdW  Elec       q    Type
                         _______ _______ _______ _____ _____    ______ ____

>  <TORSDO>
F 11

$$$$
=
 OpenBabel10232412113D

 39 42  0  0  1  0  0  0  0  0999 V2000
  189.9090  176.4370  137.0060 C   0  0  2  0  0  3  0  0  0  0  0  0
  191.2200  176.9670  139.0690 C   0  0  0  0  0  3  0  0  0  0  0  0
  188.8150  176.7670  139.2630 C   0  0  0  0  0  3  0  0  0  0  0  0
  189.9750  176.7300  138.4770 C   0  0  0  0  0  0  0  0  0  0  0  0
  190.1480  177.2670  141.2290 C   0  0  0  0  0  0  0  0  0  0  0  0
  191.3060  177.2330  140.4390 C   0  0  0  0  0  3  0  0  0  0  0  0
  188.9020  177.0340  140.6320 C   0  0  0  0  0  3  0  0  0  0  0  0
  189.5680  177.8640  144.6870 C   0  0  0  0  0  0  0  0  0  0  0  0
  187.5250  177.9930  145.8810 O   0  0  0  0  0  0  0  0  0  0  0  0
  190.7250  177.1380  147.2370 C   0  0  0  0  0  3  0  0  0  0  0  0
  189.4690  177.6060  147.2000 C   0  0  0  0  0  0  0  0  0  0  0  0
  188.7740  177.8320  145.9180 C   0  0  0  0  0  0  0  0  0  0  0  0
  190.2340  177.5350  142.6740 C   0  0  0  0  0  0  0  0  0  0  0  0
  191.5920  176.5010  145.7790 S   0  0  0  0  0  0  0  0  0  0  0  0
  188.7000  178.0690  148.7050 Cl  0  0  0  0  0  0  0  0  0  0  0  0
  191.0520  177.8670  144.7070 C   0  0  1  0  0  3  0  0  0  0  0  0
  191.3600  177.5980  143.3110 N   0  0  0  0  0  0  0  0  0  0  0  0
  189.0870  177.6760  143.5060 N   0  0  0  0  0  0  0  0  0  0  0  0
  187.1520  178.5940  136.6790 C   0  0  1  0  0  3  0  0  0  0  0  0
  188.1320  179.2520  137.5330 N   0  0  0  0  0  2  0  0  0  0  0  0
  189.2990  177.6060  136.2230 C   0  0  2  0  0  3  0  0  0  0  0  0
  189.4290  178.9290  136.9600 C   0  0  0  0  0  2  0  0  0  0  0  0
  187.8170  177.3940  136.0360 C   0  0  0  0  0  2  0  0  0  0  0  0
  185.2490  177.2070  137.0890 O   0  0  0  0  0  0  0  0  0  0  0  0
  185.9640  178.1720  137.4770 C   0  0  0  0  0  0  0  0  0  0  0  0
  185.6430  178.8770  138.6770 N   0  0  0  0  0  2  0  0  0  0  0  0
  184.4880  178.5450  139.4970 C   0  0  0  0  0  3  0  0  0  0  0  0
  183.3040  179.4050  139.0980 C   0  0  0  0  0  1  0  0  0  0  0  0
  184.8170  178.7960  140.9540 C   0  0  0  0  0  1  0  0  0  0  0  0
  189.2290  175.2340  136.7530 O   0  0  0  0  0  0  0  0  0  0  0  0
  190.2260  174.2630  136.6030 C   0  0  1  0  0  3  0  0  0  0  0  0
  189.6800  173.1080  135.7790 C   0  0  0  0  0  2  0  0  0  0  0  0
  188.1050  172.3030  137.3760 O   0  0  0  0  0  0  0  0  0  0  0  0
  187.1980  172.9710  135.3450 N   0  0  0  0  0  1  0  0  0  0  0  0
  188.3000  172.7620  136.2200 C   0  0  0  0  0  0  0  0  0  0  0  0
  191.3790  174.8470  135.9300 N   0  0  0  0  0  2  0  0  0  0  0  0
  193.2390  174.2200  137.5020 C   0  0  0  0  0  1  0  0  0  0  0  0
  193.7330  174.1470  134.8550 S   0  0  0  0  0  0  0  0  0  0  0  0
  192.7200  174.3880  136.1200 C   0  0  0  0  0  0  0  0  0  0  0  0
  1 30  1  1  0  0  0
  1  4  1  0  0  0  0
  2  6  1  0  0  0  0
  3  7  2  0  0  0  0
  4  2  2  0  0  0  0
  4  3  1  0  0  0  0
  5 13  1  0  0  0  0
  6  5  2  0  0  0  0
  7  5  1  0  0  0  0
  8 16  1  0  0  0  0
  8 12  1  0  0  0  0
  9 12  2  0  0  0  0
 11 10  2  0  0  0  0
 11 15  1  0  0  0  0
 12 11  1  0  0  0  0
 13 17  2  0  0  0  0
 13 18  1  0  0  0  0
 14 10  1  0  0  0  0
 16 17  1  6  0  0  0
 16 14  1  0  0  0  0
 18  8  2  0  0  0  0
 19 25  1  1  0  0  0
 19 20  1  0  0  0  0
 21 22  1  0  0  0  0
 21  1  1  1  0  0  0
 22 20  1  0  0  0  0
 23 21  1  0  0  0  0
 23 19  1  0  0  0  0
 24 25  2  0  0  0  0
 25 26  1  0  0  0  0
 26 27  1  0  0  0  0
 27 29  1  0  0  0  0
 28 27  1  0  0  0  0
 31 32  1  6  0  0  0
 31 30  1  0  0  0  0
 32 35  1  0  0  0  0
 34 35  1  0  0  0  0
 35 33  2  0  0  0  0
 36 39  1  0  0  0  0
 36 31  1  0  0  0  0
 38 39  2  0  0  0  0
 39 37  1  0  0  0  0
M  END
>  <MODEL>
2

>  <REMARK>
 VINA RESULT:      -8.1      3.900      8.617
  Name = 
  11 active torsions:
  status: ('A' for Active; 'I' for Inactive)
    1  A    between atoms: C_2  and  C_7
    2  A    between atoms: C_3  and  N_13
    3  A    between atoms: C_10  and  C_24
    4  A    between atoms: C_10  and  C_32
    5  A    between atoms: C_14  and  C_33
    6  A    between atoms: N_19  and  C_24
    7  A    between atoms: N_19  and  C_28
    8  A    between atoms: O_21  and  C_24
    9  A    between atoms: O_21  and  C_33
   10  A    between atoms: C_23  and  C_27
   11  A    between atoms: C_26  and  C_33
                            x       y       z     vdW  Elec       q    Type
                         _______ _______ _______ _____ _____    ______ ____

>  <TORSDO>
F 11

$$$$
=
 OpenBabel10232412113D

 39 42  0  0  1  0  0  0  0  0999 V2000
  189.9650  176.4600  137.0970 C   0  0  2  0  0  3  0  0  0  0  0  0
  188.8940  176.7050  139.3430 C   0  0  0  0  0  3  0  0  0  0  0  0
  191.2930  176.9930  139.1830 C   0  0  0  0  0  3  0  0  0  0  0  0
  190.0600  176.7250  138.5710 C   0  0  0  0  0  0  0  0  0  0  0  0
  190.1890  177.2300  141.3310 C   0  0  0  0  0  0  0  0  0  0  0  0
  188.9580  176.9580  140.7180 C   0  0  0  0  0  3  0  0  0  0  0  0
  191.3550  177.2440  140.5560 C   0  0  0  0  0  3  0  0  0  0  0  0
  189.5760  177.8440  144.7800 C   0  0  0  0  0  0  0  0  0  0  0  0
  187.5230  177.9630  145.9580 O   0  0  0  0  0  0  0  0  0  0  0  0
  190.7190  177.1460  147.3450 C   0  0  0  0  0  3  0  0  0  0  0  0
  189.4600  177.6020  147.2950 C   0  0  0  0  0  0  0  0  0  0  0  0
  188.7730  177.8130  146.0050 C   0  0  0  0  0  0  0  0  0  0  0  0
  190.2610  177.5090  142.7750 C   0  0  0  0  0  0  0  0  0  0  0  0
  191.6030  176.5080  145.8980 S   0  0  0  0  0  0  0  0  0  0  0  0
  188.6740  178.0690  148.7900 Cl  0  0  0  0  0  0  0  0  0  0  0  0
  191.0600  177.8620  144.8120 C   0  0  1  0  0  3  0  0  0  0  0  0
  191.3810  177.5860  143.4210 N   0  0  0  0  0  0  0  0  0  0  0  0
  189.1060  177.6440  143.5970 N   0  0  0  0  0  0  0  0  0  0  0  0
  187.1610  178.5620  136.8170 C   0  0  1  0  0  3  0  0  0  0  0  0
  188.1170  179.2130  137.7020 N   0  0  0  0  0  2  0  0  0  0  0  0
  189.3350  177.6410  136.3480 C   0  0  2  0  0  3  0  0  0  0  0  0
  189.4260  178.9400  137.1310 C   0  0  0  0  0  2  0  0  0  0  0  0
  187.8600  177.4010  136.1400 C   0  0  0  0  0  2  0  0  0  0  0  0
  185.4540  176.9670  137.3230 O   0  0  0  0  0  0  0  0  0  0  0  0
  185.9770  178.0840  137.5880 C   0  0  0  0  0  0  0  0  0  0  0  0
  185.4370  178.9100  138.6210 N   0  0  0  0  0  2  0  0  0  0  0  0
  184.2690  178.5300  139.4020 C   0  0  0  0  0  3  0  0  0  0  0  0
  183.0980  179.4290  139.0540 C   0  0  0  0  0  1  0  0  0  0  0  0
  184.5830  178.6690  140.8770 C   0  0  0  0  0  1  0  0  0  0  0  0
  189.2860  175.2580  136.8340 O   0  0  0  0  0  0  0  0  0  0  0  0
  190.1170  174.5380  135.9690 C   0  0  1  0  0  3  0  0  0  0  0  0
  191.0670  173.6780  136.7860 C   0  0  0  0  0  2  0  0  0  0  0  0
  192.8820  174.3320  135.3870 O   0  0  0  0  0  0  0  0  0  0  0  0
  193.3620  174.2620  137.6580 N   0  0  0  0  0  1  0  0  0  0  0  0
  192.4780  174.0990  136.5560 C   0  0  0  0  0  0  0  0  0  0  0  0
  189.3060  173.6910  135.1040 N   0  0  0  0  0  2  0  0  0  0  0  0
  187.7220  172.1860  136.3500 C   0  0  0  0  0  1  0  0  0  0  0  0
  186.6820  174.0090  134.6630 S   0  0  0  0  0  0  0  0  0  0  0  0
  187.9610  173.3100  135.4080 C   0  0  0  0  0  0  0  0  0  0  0  0
  1 30  1  1  0  0  0
  1  4  1  0  0  0  0
  2  6  1  0  0  0  0
  3  7  2  0  0  0  0
  4  3  1  0  0  0  0
  4  2  2  0  0  0  0
  5 13  1  0  0  0  0
  6  5  2  0  0  0  0
  7  5  1  0  0  0  0
  8 16  1  0  0  0  0
  8 12  1  0  0  0  0
  9 12  2  0  0  0  0
 11 10  2  0  0  0  0
 11 15  1  0  0  0  0
 12 11  1  0  0  0  0
 13 17  2  0  0  0  0
 13 18  1  0  0  0  0
 14 10  1  0  0  0  0
 16 17  1  6  0  0  0
 16 14  1  0  0  0  0
 18  8  2  0  0  0  0
 19 25  1  1  0  0  0
 19 20  1  0  0  0  0
 21  1  1  1  0  0  0
 21 22  1  0  0  0  0
 22 20  1  0  0  0  0
 23 21  1  0  0  0  0
 23 19  1  0  0  0  0
 24 25  2  0  0  0  0
 25 26  1  0  0  0  0
 26 27  1  0  0  0  0
 27 29  1  0  0  0  0
 28 27  1  0  0  0  0
 31 32  1  1  0  0  0
 31 30  1  0  0  0  0
 33 35  2  0  0  0  0
 35 32  1  0  0  0  0
 35 34  1  0  0  0  0
 36 39  1  0  0  0  0
 36 31  1  0  0  0  0
 38 39  2  0  0  0  0
 39 37  1  0  0  0  0
M  END
>  <MODEL>
3

>  <REMARK>
 VINA RESULT:      -8.1      3.821      8.736
  Name = 
  11 active torsions:
  status: ('A' for Active; 'I' for Inactive)
    1  A    between atoms: C_2  and  C_7
    2  A    between atoms: C_3  and  N_13
    3  A    between atoms: C_10  and  C_24
    4  A    between atoms: C_10  and  C_32
    5  A    between atoms: C_14  and  C_33
    6  A    between atoms: N_19  and  C_24
    7  A    between atoms: N_19  and  C_28
    8  A    between atoms: O_21  and  C_24
    9  A    between atoms: O_21  and  C_33
   10  A    between atoms: C_23  and  C_27
   11  A    between atoms: C_26  and  C_33
                            x       y       z     vdW  Elec       q    Type
                         _______ _______ _______ _____ _____    ______ ____

>  <TORSDO>
F 11

$$$$
=
 OpenBabel10232412113D

 39 42  0  0  1  0  0  0  0  0999 V2000
  190.1310  176.6740  137.1370 C   0  0  2  0  0  3  0  0  0  0  0  0
  191.3790  177.1480  139.2520 C   0  0  0  0  0  3  0  0  0  0  0  0
  188.9700  176.9430  139.3680 C   0  0  0  0  0  3  0  0  0  0  0  0
  190.1540  176.9270  138.6170 C   0  0  0  0  0  0  0  0  0  0  0  0
  190.2430  177.3910  141.3850 C   0  0  0  0  0  0  0  0  0  0  0  0
  191.4250  177.3780  140.6300 C   0  0  0  0  0  3  0  0  0  0  0  0
  189.0170  177.1740  140.7460 C   0  0  0  0  0  3  0  0  0  0  0  0
  189.5610  177.8850  144.8410 C   0  0  0  0  0  0  0  0  0  0  0  0
  187.4840  177.9570  145.9810 O   0  0  0  0  0  0  0  0  0  0  0  0
  190.6570  177.1030  147.4020 C   0  0  0  0  0  3  0  0  0  0  0  0
  189.3960  177.5560  147.3420 C   0  0  0  0  0  0  0  0  0  0  0  0
  188.7340  177.8090  146.0480 C   0  0  0  0  0  0  0  0  0  0  0  0
  190.2860  177.6200  142.8390 C   0  0  0  0  0  0  0  0  0  0  0  0
  191.5710  176.5170  145.9520 S   0  0  0  0  0  0  0  0  0  0  0  0
  188.5800  177.9700  148.8380 Cl  0  0  0  0  0  0  0  0  0  0  0  0
  191.0440  177.9050  144.9020 C   0  0  1  0  0  3  0  0  0  0  0  0
  191.3930  177.6780  143.5090 N   0  0  0  0  0  0  0  0  0  0  0  0
  189.1150  177.7230  143.6430 N   0  0  0  0  0  0  0  0  0  0  0  0
  187.0930  178.2330  136.3030 C   0  0  1  0  0  3  0  0  0  0  0  0
  187.6180  178.8920  137.4910 N   0  0  0  0  0  2  0  0  0  0  0  0
  189.4640  177.8250  136.3750 C   0  0  2  0  0  3  0  0  0  0  0  0
  189.0570  178.9680  137.2900 C   0  0  0  0  0  2  0  0  0  0  0  0
  188.1840  177.3530  135.7290 C   0  0  0  0  0  2  0  0  0  0  0  0
  185.0560  177.8450  137.4940 O   0  0  0  0  0  0  0  0  0  0  0  0
  185.8900  177.4200  136.6460 C   0  0  0  0  0  0  0  0  0  0  0  0
  185.6990  176.1540  136.0130 N   0  0  0  0  0  2  0  0  0  0  0  0
  184.5670  175.2890  136.3110 C   0  0  0  0  0  3  0  0  0  0  0  0
  184.9810  174.2160  137.2990 C   0  0  0  0  0  1  0  0  0  0  0  0
  184.0860  174.6320  135.0340 C   0  0  0  0  0  1  0  0  0  0  0  0
  189.5320  175.4380  136.8370 O   0  0  0  0  0  0  0  0  0  0  0  0
  190.5900  174.5390  136.6650 C   0  0  1  0  0  3  0  0  0  0  0  0
  190.1080  173.3490  135.8520 C   0  0  0  0  0  2  0  0  0  0  0  0
  187.8520  173.6280  135.1400 O   0  0  0  0  0  0  0  0  0  0  0  0
  188.1210  172.4660  137.1320 N   0  0  0  0  0  1  0  0  0  0  0  0
  188.6370  173.1720  136.0100 C   0  0  0  0  0  0  0  0  0  0  0  0
  191.6860  175.2010  135.9680 N   0  0  0  0  0  2  0  0  0  0  0  0
  193.4070  174.2740  137.5490 C   0  0  0  0  0  1  0  0  0  0  0  0
  194.2590  175.7630  135.4740 S   0  0  0  0  0  0  0  0  0  0  0  0
  193.0610  175.0380  136.3240 C   0  0  0  0  0  0  0  0  0  0  0  0
  1 30  1  1  0  0  0
  1  4  1  0  0  0  0
  2  6  1  0  0  0  0
  3  7  2  0  0  0  0
  4  2  2  0  0  0  0
  4  3  1  0  0  0  0
  5 13  1  0  0  0  0
  6  5  2  0  0  0  0
  7  5  1  0  0  0  0
  8 16  1  0  0  0  0
  8 12  1  0  0  0  0
  9 12  2  0  0  0  0
 11 10  2  0  0  0  0
 11 15  1  0  0  0  0
 12 11  1  0  0  0  0
 13 17  2  0  0  0  0
 13 18  1  0  0  0  0
 14 10  1  0  0  0  0
 16 17  1  6  0  0  0
 16 14  1  0  0  0  0
 18  8  2  0  0  0  0
 19 25  1  1  0  0  0
 19 20  1  0  0  0  0
 21  1  1  1  0  0  0
 21 22  1  0  0  0  0
 22 20  1  0  0  0  0
 23 19  1  0  0  0  0
 23 21  1  0  0  0  0
 25 24  2  0  0  0  0
 26 27  1  0  0  0  0
 26 25  1  0  0  0  0
 27 28  1  0  0  0  0
 29 27  1  0  0  0  0
 31 32  1  6  0  0  0
 31 30  1  0  0  0  0
 32 35  1  0  0  0  0
 33 35  2  0  0  0  0
 35 34  1  0  0  0  0
 36 39  1  0  0  0  0
 36 31  1  0  0  0  0
 38 39  2  0  0  0  0
 39 37  1  0  0  0  0
M  END
>  <MODEL>
4

>  <REMARK>
 VINA RESULT:      -7.9      4.244      8.792
  Name = 
  11 active torsions:
  status: ('A' for Active; 'I' for Inactive)
    1  A    between atoms: C_2  and  C_7
    2  A    between atoms: C_3  and  N_13
    3  A    between atoms: C_10  and  C_24
    4  A    between atoms: C_10  and  C_32
    5  A    between atoms: C_14  and  C_33
    6  A    between atoms: N_19  and  C_24
    7  A    between atoms: N_19  and  C_28
    8  A    between atoms: O_21  and  C_24
    9  A    between atoms: O_21  and  C_33
   10  A    between atoms: C_23  and  C_27
   11  A    between atoms: C_26  and  C_33
                            x       y       z     vdW  Elec       q    Type
                         _______ _______ _______ _____ _____    ______ ____

>  <TORSDO>
F 11

$$$$
=
 OpenBabel10232412113D

 39 42  0  0  1  0  0  0  0  0999 V2000
  188.6550  177.5660  138.7440 C   0  0  2  0  0  3  0  0  0  0  0  0
  189.8470  175.6060  137.7480 C   0  0  0  0  0  3  0  0  0  0  0  0
  191.1790  177.4080  138.6650 C   0  0  0  0  0  3  0  0  0  0  0  0
  189.9240  176.8500  138.3800 C   0  0  0  0  0  0  0  0  0  0  0  0
  192.2720  175.4700  137.6940 C   0  0  0  0  0  0  0  0  0  0  0  0
  191.0160  174.9170  137.4070 C   0  0  0  0  0  3  0  0  0  0  0  0
  192.3460  176.7200  138.3230 C   0  0  0  0  0  3  0  0  0  0  0  0
  195.6080  174.3480  137.1800 C   0  0  0  0  0  0  0  0  0  0  0  0
  197.6620  175.4050  137.7080 O   0  0  0  0  0  0  0  0  0  0  0  0
  197.1180  171.8860  137.3500 C   0  0  0  0  0  3  0  0  0  0  0  0
  197.7740  173.0550  137.3440 C   0  0  0  0  0  0  0  0  0  0  0  0
  197.0520  174.3390  137.4280 C   0  0  0  0  0  0  0  0  0  0  0  0
  193.5060  174.7450  137.3490 C   0  0  0  0  0  0  0  0  0  0  0  0
  195.3490  171.7410  137.7140 S   0  0  0  0  0  0  0  0  0  0  0  0
  199.5110  173.0430  137.1070 Cl  0  0  0  0  0  0  0  0  0  0  0  0
  194.8900  173.1540  136.6660 C   0  0  1  0  0  3  0  0  0  0  0  0
  193.5030  173.5390  136.8740 N   0  0  0  0  0  0  0  0  0  0  0  0
  194.8070  175.2770  137.5750 N   0  0  0  0  0  0  0  0  0  0  0  0
  186.4620  176.9340  136.0700 C   0  0  1  0  0  3  0  0  0  0  0  0
  185.6760  177.4750  137.1700 N   0  0  0  0  0  2  0  0  0  0  0  0
  187.9600  178.1500  137.5090 C   0  0  2  0  0  3  0  0  0  0  0  0
  186.5070  178.5060  137.7730 C   0  0  0  0  0  2  0  0  0  0  0  0
  187.9280  177.1320  136.3950 C   0  0  0  0  0  2  0  0  0  0  0  0
  185.6190  175.0880  134.8070 O   0  0  0  0  0  0  0  0  0  0  0  0
  186.1590  175.4860  135.8760 C   0  0  0  0  0  0  0  0  0  0  0  0
  186.4770  174.5600  136.9160 N   0  0  0  0  0  2  0  0  0  0  0  0
  186.1900  173.1370  136.8160 C   0  0  0  0  0  3  0  0  0  0  0  0
  185.0310  172.7770  137.7250 C   0  0  0  0  0  1  0  0  0  0  0  0
  187.4140  172.3470  137.2330 C   0  0  0  0  0  1  0  0  0  0  0  0
  188.8830  178.5460  139.7240 O   0  0  0  0  0  0  0  0  0  0  0  0
  188.1770  178.1210  140.8540 C   0  0  1  0  0  3  0  0  0  0  0  0
  189.1350  178.0030  142.0280 C   0  0  0  0  0  2  0  0  0  0  0  0
  190.3840  175.9860  141.8030 O   0  0  0  0  0  0  0  0  0  0  0  0
  188.5730  175.8680  143.2530 N   0  0  0  0  0  1  0  0  0  0  0  0
  189.4050  176.5700  142.3370 C   0  0  0  0  0  0  0  0  0  0  0  0
  187.1290  179.0840  141.1680 N   0  0  0  0  0  2  0  0  0  0  0  0
  185.8160  178.1810  143.1130 C   0  0  0  0  0  1  0  0  0  0  0  0
  184.4850  178.7830  140.8510 S   0  0  0  0  0  0  0  0  0  0  0  0
  185.8650  178.7210  141.7300 C   0  0  0  0  0  0  0  0  0  0  0  0
  1 30  1  1  0  0  0
  2  4  1  0  0  0  0
  4  3  2  0  0  0  0
  4  1  1  0  0  0  0
  5  7  2  0  0  0  0
  6  5  1  0  0  0  0
  6  2  2  0  0  0  0
  7  3  1  0  0  0  0
  8 12  1  0  0  0  0
  8 18  2  0  0  0  0
 10 14  1  0  0  0  0
 11 10  2  0  0  0  0
 11 12  1  0  0  0  0
 12  9  2  0  0  0  0
 13 18  1  0  0  0  0
 13  5  1  0  0  0  0
 15 11  1  0  0  0  0
 16 17  1  1  0  0  0
 16  8  1  0  0  0  0
 16 14  1  0  0  0  0
 17 13  2  0  0  0  0
 19 25  1  1  0  0  0
 19 23  1  0  0  0  0
 19 20  1  0  0  0  0
 20 22  1  0  0  0  0
 21 22  1  0  0  0  0
 21  1  1  1  0  0  0
 23 21  1  0  0  0  0
 24 25  2  0  0  0  0
 25 26  1  0  0  0  0
 27 26  1  0  0  0  0
 27 29  1  0  0  0  0
 27 28  1  0  0  0  0
 30 31  1  0  0  0  0
 31 36  1  0  0  0  0
 31 32  1  1  0  0  0
 32 35  1  0  0  0  0
 33 35  2  0  0  0  0
 35 34  1  0  0  0  0
 36 39  1  0  0  0  0
 38 39  2  0  0  0  0
 39 37  1  0  0  0  0
M  END
>  <MODEL>
5

>  <REMARK>
 VINA RESULT:      -7.9      4.221      6.784
  Name = 
  11 active torsions:
  status: ('A' for Active; 'I' for Inactive)
    1  A    between atoms: C_2  and  C_7
    2  A    between atoms: C_3  and  N_13
    3  A    between atoms: C_10  and  C_24
    4  A    between atoms: C_10  and  C_32
    5  A    between atoms: C_14  and  C_33
    6  A    between atoms: N_19  and  C_24
    7  A    between atoms: N_19  and  C_28
    8  A    between atoms: O_21  and  C_24
    9  A    between atoms: O_21  and  C_33
   10  A    between atoms: C_23  and  C_27
   11  A    between atoms: C_26  and  C_33
                            x       y       z     vdW  Elec       q    Type
                         _______ _______ _______ _____ _____    ______ ____

>  <TORSDO>
F 11

$$$$
=
 OpenBabel10232412113D

 39 42  0  0  1  0  0  0  0  0999 V2000
  189.4550  177.2540  139.9810 C   0  0  2  0  0  3  0  0  0  0  0  0
  191.9040  177.1330  139.4850 C   0  0  0  0  0  3  0  0  0  0  0  0
  190.4180  175.6530  138.2760 C   0  0  0  0  0  3  0  0  0  0  0  0
  190.6120  176.6630  139.2290 C   0  0  0  0  0  0  0  0  0  0  0  0
  192.8040  175.5950  137.8340 C   0  0  0  0  0  0  0  0  0  0  0  0
  192.9950  176.6030  138.7900 C   0  0  0  0  0  3  0  0  0  0  0  0
  191.5100  175.1230  137.5830 C   0  0  0  0  0  3  0  0  0  0  0  0
  195.9910  174.6980  136.5360 C   0  0  0  0  0  0  0  0  0  0  0  0
  198.1530  175.4110  137.1960 O   0  0  0  0  0  0  0  0  0  0  0  0
  197.3450  172.3400  135.5440 C   0  0  0  0  0  3  0  0  0  0  0  0
  198.0730  173.3990  135.9240 C   0  0  0  0  0  0  0  0  0  0  0  0
  197.4490  174.5590  136.5910 C   0  0  0  0  0  0  0  0  0  0  0  0
  193.9480  175.0410  137.0900 C   0  0  0  0  0  0  0  0  0  0  0  0
  195.6140  172.1010  136.0240 S   0  0  0  0  0  0  0  0  0  0  0  0
  199.7740  173.4450  135.5020 Cl  0  0  0  0  0  0  0  0  0  0  0  0
  195.1490  173.8250  135.6790 C   0  0  1  0  0  3  0  0  0  0  0  0
  193.8180  174.1260  136.1820 N   0  0  0  0  0  0  0  0  0  0  0  0
  195.2970  175.4100  137.3550 N   0  0  0  0  0  0  0  0  0  0  0  0
  187.9650  178.3180  136.9800 C   0  0  1  0  0  3  0  0  0  0  0  0
  186.8990  177.9130  137.8860 N   0  0  0  0  0  2  0  0  0  0  0  0
  188.8300  178.4320  139.2230 C   0  0  2  0  0  3  0  0  0  0  0  0
  187.3120  178.3690  139.2030 C   0  0  0  0  0  2  0  0  0  0  0  0
  189.2520  178.4050  137.7740 C   0  0  0  0  0  2  0  0  0  0  0  0
  188.6960  177.6650  134.8000 O   0  0  0  0  0  0  0  0  0  0  0  0
  188.1020  177.3370  135.8640 C   0  0  0  0  0  0  0  0  0  0  0  0
  187.5460  176.0300  136.0110 N   0  0  0  0  0  2  0  0  0  0  0  0
  187.6140  175.0240  134.9620 C   0  0  0  0  0  3  0  0  0  0  0  0
  186.3520  174.1830  134.9670 C   0  0  0  0  0  1  0  0  0  0  0  0
  188.8110  174.1280  135.2010 C   0  0  0  0  0  1  0  0  0  0  0  0
  189.8240  177.6150  141.2870 O   0  0  0  0  0  0  0  0  0  0  0  0
  188.8760  177.0180  142.1250 C   0  0  1  0  0  3  0  0  0  0  0  0
  189.5560  175.9560  142.9740 C   0  0  0  0  0  2  0  0  0  0  0  0
  191.8020  176.7200  143.1940 O   0  0  0  0  0  0  0  0  0  0  0  0
  190.4910  176.9500  145.0970 N   0  0  0  0  0  1  0  0  0  0  0  0
  190.6840  176.5500  143.7450 C   0  0  0  0  0  0  0  0  0  0  0  0
  188.2780  178.0290  142.9870 N   0  0  0  0  0  2  0  0  0  0  0  0
  186.7460  177.2900  144.8390 C   0  0  0  0  0  1  0  0  0  0  0  0
  185.6470  178.4140  142.6530 S   0  0  0  0  0  0  0  0  0  0  0  0
  186.9530  177.9320  143.5160 C   0  0  0  0  0  0  0  0  0  0  0  0
  1 30  1  1  0  0  0
  3  4  2  0  0  0  0
  4  2  1  0  0  0  0
  4  1  1  0  0  0  0
  5  6  1  0  0  0  0
  6  2  2  0  0  0  0
  7  5  2  0  0  0  0
  7  3  1  0  0  0  0
  8 12  1  0  0  0  0
  8 18  2  0  0  0  0
 10 11  2  0  0  0  0
 10 14  1  0  0  0  0
 11 12  1  0  0  0  0
 12  9  2  0  0  0  0
 13 18  1  0  0  0  0
 13  5  1  0  0  0  0
 15 11  1  0  0  0  0
 16 14  1  1  0  0  0
 16 17  1  0  0  0  0
 16  8  1  0  0  0  0
 17 13  2  0  0  0  0
 19 25  1  6  0  0  0
 19 23  1  0  0  0  0
 19 20  1  0  0  0  0
 20 22  1  0  0  0  0
 21  1  1  1  0  0  0
 22 21  1  0  0  0  0
 23 21  1  0  0  0  0
 24 25  2  0  0  0  0
 25 26  1  0  0  0  0
 27 28  1  0  0  0  0
 27 29  1  0  0  0  0
 27 26  1  0  0  0  0
 30 31  1  0  0  0  0
 31 32  1  1  0  0  0
 31 36  1  0  0  0  0
 32 35  1  0  0  0  0
 33 35  2  0  0  0  0
 35 34  1  0  0  0  0
 36 39  1  0  0  0  0
 38 39  2  0  0  0  0
 39 37  1  0  0  0  0
M  END
>  <MODEL>
6

>  <REMARK>
 VINA RESULT:      -7.9      3.873      6.539
  Name = 
  11 active torsions:
  status: ('A' for Active; 'I' for Inactive)
    1  A    between atoms: C_2  and  C_7
    2  A    between atoms: C_3  and  N_13
    3  A    between atoms: C_10  and  C_24
    4  A    between atoms: C_10  and  C_32
    5  A    between atoms: C_14  and  C_33
    6  A    between atoms: N_19  and  C_24
    7  A    between atoms: N_19  and  C_28
    8  A    between atoms: O_21  and  C_24
    9  A    between atoms: O_21  and  C_33
   10  A    between atoms: C_23  and  C_27
   11  A    between atoms: C_26  and  C_33
                            x       y       z     vdW  Elec       q    Type
                         _______ _______ _______ _____ _____    ______ ____

>  <TORSDO>
F 11

$$$$
=
 OpenBabel10232412113D

 39 42  0  0  1  0  0  0  0  0999 V2000
  188.8120  176.8750  137.1880 C   0  0  2  0  0  3  0  0  0  0  0  0
  188.1100  177.9950  139.3110 C   0  0  0  0  0  3  0  0  0  0  0  0
  189.9420  176.4160  139.4040 C   0  0  0  0  0  3  0  0  0  0  0  0
  188.9620  177.0950  138.6650 C   0  0  0  0  0  0  0  0  0  0  0  0
  189.2180  177.5460  141.4260 C   0  0  0  0  0  0  0  0  0  0  0  0
  188.2370  178.2210  140.6850 C   0  0  0  0  0  3  0  0  0  0  0  0
  190.0680  176.6420  140.7770 C   0  0  0  0  0  3  0  0  0  0  0  0
  188.8050  177.9560  144.9340 C   0  0  0  0  0  0  0  0  0  0  0  0
  186.8600  177.7240  146.2690 O   0  0  0  0  0  0  0  0  0  0  0  0
  190.2460  177.3640  147.3730 C   0  0  0  0  0  3  0  0  0  0  0  0
  188.9320  177.6240  147.4380 C   0  0  0  0  0  0  0  0  0  0  0  0
  188.1180  177.7660  146.2150 C   0  0  0  0  0  0  0  0  0  0  0  0
  189.3650  177.7890  142.8700 C   0  0  0  0  0  0  0  0  0  0  0  0
  191.0940  176.9120  145.8370 S   0  0  0  0  0  0  0  0  0  0  0  0
  188.2100  177.9200  149.0070 Cl  0  0  0  0  0  0  0  0  0  0  0  0
  190.2670  178.1990  144.8530 C   0  0  1  0  0  3  0  0  0  0  0  0
  190.5110  178.0170  143.4310 N   0  0  0  0  0  0  0  0  0  0  0  0
  188.2750  177.7220  143.7830 N   0  0  0  0  0  0  0  0  0  0  0  0
  192.0940  175.9430  136.3370 C   0  0  1  0  0  3  0  0  0  0  0  0
  191.2110  175.4770  135.2770 N   0  0  0  0  0  2  0  0  0  0  0  0
  190.0840  177.2660  136.4250 C   0  0  2  0  0  3  0  0  0  0  0  0
  190.2200  176.5270  135.1040 C   0  0  0  0  0  2  0  0  0  0  0  0
  191.3090  176.8890  137.2230 C   0  0  0  0  0  2  0  0  0  0  0  0
  191.8110  174.0080  137.7120 O   0  0  0  0  0  0  0  0  0  0  0  0
  192.6120  174.7900  137.1300 C   0  0  0  0  0  0  0  0  0  0  0  0
  194.0230  174.5890  137.2300 N   0  0  0  0  0  2  0  0  0  0  0  0
  194.6090  173.5060  138.0040 C   0  0  0  0  0  3  0  0  0  0  0  0
  195.7510  174.0330  138.8510 C   0  0  0  0  0  1  0  0  0  0  0  0
  195.1360  172.4430  137.0630 C   0  0  0  0  0  1  0  0  0  0  0  0
  187.6810  177.5390  136.6830 O   0  0  0  0  0  0  0  0  0  0  0  0
  186.6200  176.6400  136.8330 C   0  0  1  0  0  3  0  0  0  0  0  0
  185.3070  177.3740  136.6150 C   0  0  0  0  0  2  0  0  0  0  0  0
  184.5410  178.3090  138.6680 O   0  0  0  0  0  0  0  0  0  0  0  0
  183.6170  176.2510  138.1160 N   0  0  0  0  0  1  0  0  0  0  0  0
  184.4850  177.3490  137.8580 C   0  0  0  0  0  0  0  0  0  0  0  0
  186.7490  175.5630  135.8590 N   0  0  0  0  0  2  0  0  0  0  0  0
  186.0870  173.6510  137.3520 C   0  0  0  0  0  1  0  0  0  0  0  0
  187.9740  173.2090  135.4810 S   0  0  0  0  0  0  0  0  0  0  0  0
  186.8840  174.1850  136.2180 C   0  0  0  0  0  0  0  0  0  0  0  0
  1 30  1  6  0  0  0
  1  4  1  0  0  0  0
  2  6  1  0  0  0  0
  3  7  2  0  0  0  0
  4  2  2  0  0  0  0
  4  3  1  0  0  0  0
  5 13  1  0  0  0  0
  6  5  2  0  0  0  0
  7  5  1  0  0  0  0
  8 12  1  0  0  0  0
 10 11  2  0  0  0  0
 11 15  1  0  0  0  0
 12  9  2  0  0  0  0
 12 11  1  0  0  0  0
 13 17  2  0  0  0  0
 13 18  1  0  0  0  0
 14 10  1  0  0  0  0
 16 17  1  6  0  0  0
 16  8  1  0  0  0  0
 16 14  1  0  0  0  0
 18  8  2  0  0  0  0
 19 25  1  1  0  0  0
 19 23  1  0  0  0  0
 20 19  1  0  0  0  0
 21  1  1  1  0  0  0
 21 23  1  0  0  0  0
 22 20  1  0  0  0  0
 22 21  1  0  0  0  0
 25 26  1  0  0  0  0
 25 24  2  0  0  0  0
 26 27  1  0  0  0  0
 27 28  1  0  0  0  0
 29 27  1  0  0  0  0
 30 31  1  0  0  0  0
 31 32  1  6  0  0  0
 32 35  1  0  0  0  0
 35 34  1  0  0  0  0
 35 33  2  0  0  0  0
 36 39  1  0  0  0  0
 36 31  1  0  0  0  0
 38 39  2  0  0  0  0
 39 37  1  0  0  0  0
M  END
>  <MODEL>
7

>  <REMARK>
 VINA RESULT:      -7.7      3.885     10.042
  Name = 
  11 active torsions:
  status: ('A' for Active; 'I' for Inactive)
    1  A    between atoms: C_2  and  C_7
    2  A    between atoms: C_3  and  N_13
    3  A    between atoms: C_10  and  C_24
    4  A    between atoms: C_10  and  C_32
    5  A    between atoms: C_14  and  C_33
    6  A    between atoms: N_19  and  C_24
    7  A    between atoms: N_19  and  C_28
    8  A    between atoms: O_21  and  C_24
    9  A    between atoms: O_21  and  C_33
   10  A    between atoms: C_23  and  C_27
   11  A    between atoms: C_26  and  C_33
                            x       y       z     vdW  Elec       q    Type
                         _______ _______ _______ _____ _____    ______ ____

>  <TORSDO>
F 11

$$$$
=
 OpenBabel10232412113D

 39 42  0  0  1  0  0  0  0  0999 V2000
  188.8190  176.8500  137.1960 C   0  0  2  0  0  3  0  0  0  0  0  0
  189.8620  176.3640  139.4160 C   0  0  0  0  0  3  0  0  0  0  0  0
  188.1730  178.0950  139.3010 C   0  0  0  0  0  3  0  0  0  0  0  0
  188.9500  177.1140  138.6680 C   0  0  0  0  0  0  0  0  0  0  0  0
  189.2170  177.5650  141.4270 C   0  0  0  0  0  0  0  0  0  0  0  0
  189.9950  176.5870  140.7910 C   0  0  0  0  0  3  0  0  0  0  0  0
  188.3070  178.3180  140.6740 C   0  0  0  0  0  3  0  0  0  0  0  0
  188.7570  177.9260  144.9350 C   0  0  0  0  0  0  0  0  0  0  0  0
  186.8060  177.6270  146.2480 O   0  0  0  0  0  0  0  0  0  0  0  0
  190.1890  177.3480  147.3820 C   0  0  0  0  0  3  0  0  0  0  0  0
  188.8680  177.5710  147.4360 C   0  0  0  0  0  0  0  0  0  0  0  0
  188.0630  177.7040  146.2070 C   0  0  0  0  0  0  0  0  0  0  0  0
  189.3430  177.7960  142.8760 C   0  0  0  0  0  0  0  0  0  0  0  0
  191.0650  176.9350  145.8500 S   0  0  0  0  0  0  0  0  0  0  0  0
  188.1230  177.8310  149.0020 Cl  0  0  0  0  0  0  0  0  0  0  0  0
  190.2120  178.2090  144.8720 C   0  0  1  0  0  3  0  0  0  0  0  0
  190.4760  178.0500  143.4510 N   0  0  0  0  0  0  0  0  0  0  0  0
  188.2450  177.6900  143.7770 N   0  0  0  0  0  0  0  0  0  0  0  0
  192.1020  175.9090  136.3590 C   0  0  1  0  0  3  0  0  0  0  0  0
  191.2220  175.4400  135.2980 N   0  0  0  0  0  2  0  0  0  0  0  0
  190.0940  177.2350  136.4360 C   0  0  2  0  0  3  0  0  0  0  0  0
  190.2330  176.4910  135.1180 C   0  0  0  0  0  2  0  0  0  0  0  0
  191.3160  176.8590  137.2390 C   0  0  0  0  0  2  0  0  0  0  0  0
  191.8130  173.9210  137.6550 O   0  0  0  0  0  0  0  0  0  0  0  0
  192.6160  174.7580  137.1580 C   0  0  0  0  0  0  0  0  0  0  0  0
  194.0230  174.6220  137.3610 N   0  0  0  0  0  2  0  0  0  0  0  0
  194.6030  173.5450  138.1480 C   0  0  0  0  0  3  0  0  0  0  0  0
  195.8110  174.0520  138.9110 C   0  0  0  0  0  1  0  0  0  0  0  0
  195.0310  172.4220  137.2260 C   0  0  0  0  0  1  0  0  0  0  0  0
  187.6850  177.4820  136.6600 O   0  0  0  0  0  0  0  0  0  0  0  0
  186.9200  176.4610  136.0870 C   0  0  1  0  0  3  0  0  0  0  0  0
  187.0320  175.2100  136.9440 C   0  0  0  0  0  2  0  0  0  0  0  0
  185.9990  173.1350  136.3900 O   0  0  0  0  0  0  0  0  0  0  0  0
  187.7050  173.8000  134.9620 N   0  0  0  0  0  1  0  0  0  0  0  0
  186.8770  173.9890  136.1030 C   0  0  0  0  0  0  0  0  0  0  0  0
  185.5270  176.8800  136.0070 N   0  0  0  0  0  2  0  0  0  0  0  0
  184.7760  177.9170  138.1710 C   0  0  0  0  0  1  0  0  0  0  0  0
  183.5320  175.6800  137.3340 S   0  0  0  0  0  0  0  0  0  0  0  0
  184.6340  176.8730  137.1240 C   0  0  0  0  0  0  0  0  0  0  0  0
  1 30  1  6  0  0  0
  1  4  1  0  0  0  0
  2  6  1  0  0  0  0
  3  7  2  0  0  0  0
  4  3  1  0  0  0  0
  4  2  2  0  0  0  0
  5 13  1  0  0  0  0
  6  5  2  0  0  0  0
  7  5  1  0  0  0  0
  8 12  1  0  0  0  0
 10 11  2  0  0  0  0
 11 15  1  0  0  0  0
 12  9  2  0  0  0  0
 12 11  1  0  0  0  0
 13 17  2  0  0  0  0
 13 18  1  0  0  0  0
 14 10  1  0  0  0  0
 16 17  1  6  0  0  0
 16  8  1  0  0  0  0
 16 14  1  0  0  0  0
 18  8  2  0  0  0  0
 19 25  1  1  0  0  0
 19 23  1  0  0  0  0
 20 19  1  0  0  0  0
 21  1  1  1  0  0  0
 21 23  1  0  0  0  0
 22 20  1  0  0  0  0
 22 21  1  0  0  0  0
 25 26  1  0  0  0  0
 25 24  2  0  0  0  0
 26 27  1  0  0  0  0
 27 28  1  0  0  0  0
 29 27  1  0  0  0  0
 31 30  1  0  0  0  0
 31 32  1  1  0  0  0
 34 35  1  0  0  0  0
 35 33  2  0  0  0  0
 35 32  1  0  0  0  0
 36 31  1  0  0  0  0
 36 39  1  0  0  0  0
 39 38  2  0  0  0  0
 39 37  1  0  0  0  0
M  END
>  <MODEL>
8

>  <REMARK>
 VINA RESULT:      -7.6      4.111     10.287
  Name = 
  11 active torsions:
  status: ('A' for Active; 'I' for Inactive)
    1  A    between atoms: C_2  and  C_7
    2  A    between atoms: C_3  and  N_13
    3  A    between atoms: C_10  and  C_24
    4  A    between atoms: C_10  and  C_32
    5  A    between atoms: C_14  and  C_33
    6  A    between atoms: N_19  and  C_24
    7  A    between atoms: N_19  and  C_28
    8  A    between atoms: O_21  and  C_24
    9  A    between atoms: O_21  and  C_33
   10  A    between atoms: C_23  and  C_27
   11  A    between atoms: C_26  and  C_33
                            x       y       z     vdW  Elec       q    Type
                         _______ _______ _______ _____ _____    ______ ____

>  <TORSDO>
F 11

$$$$
=
 OpenBabel10232412113D

 39 42  0  0  1  0  0  0  0  0999 V2000
  191.7180  176.3160  137.4270 C   0  0  2  0  0  3  0  0  0  0  0  0
  190.3000  176.2680  139.4860 C   0  0  0  0  0  3  0  0  0  0  0  0
  192.5200  177.2200  139.6490 C   0  0  0  0  0  3  0  0  0  0  0  0
  191.5150  176.6090  138.8850 C   0  0  0  0  0  0  0  0  0  0  0  0
  191.0880  177.1530  141.6070 C   0  0  0  0  0  0  0  0  0  0  0  0
  190.0860  176.5390  140.8410 C   0  0  0  0  0  3  0  0  0  0  0  0
  192.3050  177.4890  141.0030 C   0  0  0  0  0  3  0  0  0  0  0  0
  189.7870  177.7830  144.8570 C   0  0  0  0  0  0  0  0  0  0  0  0
  187.5390  177.8270  145.6080 O   0  0  0  0  0  0  0  0  0  0  0  0
  190.4330  177.1670  147.6090 C   0  0  0  0  0  3  0  0  0  0  0  0
  189.1900  177.5670  147.3050 C   0  0  0  0  0  0  0  0  0  0  0  0
  188.7610  177.7320  145.9020 C   0  0  0  0  0  0  0  0  0  0  0  0
  190.8640  177.4520  143.0310 C   0  0  0  0  0  0  0  0  0  0  0  0
  191.6080  176.5500  146.3760 S   0  0  0  0  0  0  0  0  0  0  0  0
  188.1080  178.0180  148.6080 Cl  0  0  0  0  0  0  0  0  0  0  0  0
  191.2340  177.8650  145.1770 C   0  0  1  0  0  3  0  0  0  0  0  0
  191.8320  177.5860  143.8820 N   0  0  0  0  0  0  0  0  0  0  0  0
  189.5660  177.5470  143.6090 N   0  0  0  0  0  0  0  0  0  0  0  0
  194.1430  174.2760  135.9040 C   0  0  1  0  0  3  0  0  0  0  0  0
  193.6850  175.2380  134.9110 N   0  0  0  0  0  2  0  0  0  0  0  0
  193.2040  176.1530  137.0830 C   0  0  2  0  0  3  0  0  0  0  0  0
  193.5050  176.4880  135.6320 C   0  0  0  0  0  2  0  0  0  0  0  0
  193.6260  174.7140  137.2590 C   0  0  0  0  0  2  0  0  0  0  0  0
  192.4330  172.7220  135.2930 O   0  0  0  0  0  0  0  0  0  0  0  0
  193.6490  172.9080  135.5710 C   0  0  0  0  0  0  0  0  0  0  0  0
  194.5670  171.8130  135.5810 N   0  0  0  0  0  2  0  0  0  0  0  0
  194.1620  170.4460  135.2940 C   0  0  0  0  0  3  0  0  0  0  0  0
  193.8660  169.7100  136.5870 C   0  0  0  0  0  1  0  0  0  0  0  0
  195.2790  169.7340  134.5600 C   0  0  0  0  0  1  0  0  0  0  0  0
  191.1030  177.2860  136.6180 O   0  0  0  0  0  0  0  0  0  0  0  0
  189.7280  177.0550  136.7320 C   0  0  1  0  0  3  0  0  0  0  0  0
  188.9860  178.3760  136.6130 C   0  0  0  0  0  2  0  0  0  0  0  0
  187.9750  178.7780  138.7340 O   0  0  0  0  0  0  0  0  0  0  0  0
  186.5290  178.0300  137.0780 N   0  0  0  0  0  1  0  0  0  0  0  0
  187.8210  178.4030  137.5430 C   0  0  0  0  0  0  0  0  0  0  0  0
  189.2950  176.1500  135.6750 N   0  0  0  0  0  2  0  0  0  0  0  0
  189.0960  173.8790  136.7380 C   0  0  0  0  0  1  0  0  0  0  0  0
  187.0570  174.7500  135.2090 S   0  0  0  0  0  0  0  0  0  0  0  0
  188.5200  174.9720  135.9130 C   0  0  0  0  0  0  0  0  0  0  0  0
  1 30  1  6  0  0  0
  1  4  1  0  0  0  0
  2  6  1  0  0  0  0
  3  7  2  0  0  0  0
  4  2  2  0  0  0  0
  4  3  1  0  0  0  0
  5 13  1  0  0  0  0
  6  5  2  0  0  0  0
  7  5  1  0  0  0  0
  8 16  1  0  0  0  0
  8 12  1  0  0  0  0
  9 12  2  0  0  0  0
 11 10  2  0  0  0  0
 11 15  1  0  0  0  0
 12 11  1  0  0  0  0
 13 18  1  0  0  0  0
 13 17  2  0  0  0  0
 14 10  1  0  0  0  0
 16 17  1  6  0  0  0
 16 14  1  0  0  0  0
 18  8  2  0  0  0  0
 19 25  1  6  0  0  0
 19 23  1  0  0  0  0
 20 22  1  0  0  0  0
 20 19  1  0  0  0  0
 21 23  1  0  0  0  0
 21  1  1  6  0  0  0
 22 21  1  0  0  0  0
 24 25  2  0  0  0  0
 25 26  1  0  0  0  0
 27 26  1  0  0  0  0
 27 28  1  0  0  0  0
 29 27  1  0  0  0  0
 30 31  1  0  0  0  0
 31 32  1  6  0  0  0
 32 35  1  0  0  0  0
 34 35  1  0  0  0  0
 35 33  2  0  0  0  0
 36 39  1  0  0  0  0
 36 31  1  0  0  0  0
 38 39  2  0  0  0  0
 39 37  1  0  0  0  0
M  END
>  <MODEL>
9

>  <REMARK>
 VINA RESULT:      -7.5      4.365     10.724
  Name = 
  11 active torsions:
  status: ('A' for Active; 'I' for Inactive)
    1  A    between atoms: C_2  and  C_7
    2  A    between atoms: C_3  and  N_13
    3  A    between atoms: C_10  and  C_24
    4  A    between atoms: C_10  and  C_32
    5  A    between atoms: C_14  and  C_33
    6  A    between atoms: N_19  and  C_24
    7  A    between atoms: N_19  and  C_28
    8  A    between atoms: O_21  and  C_24
    9  A    between atoms: O_21  and  C_33
   10  A    between atoms: C_23  and  C_27
   11  A    between atoms: C_26  and  C_33
                            x       y       z     vdW  Elec       q    Type
                         _______ _______ _______ _____ _____    ______ ____

>  <TORSDO>
F 11

$$$$
