=
 OpenBabel10232410173D

 41 44  0  0  1  0  0  0  0  0999 V2000
  190.8950  176.9680  145.2420 C   0  0  0  0  0  0  0  0  0  0  0  0
  189.0390  176.5060  142.7100 C   0  0  0  0  0  2  0  0  0  0  0  0
  188.1130  177.0220  143.7510 C   0  0  0  0  0  3  0  0  0  0  0  0
  189.6820  177.2280  145.6580 N   0  0  0  0  0  0  0  0  0  0  0  0
  191.2650  176.5970  143.8370 C   0  0  1  0  0  3  0  0  0  0  0  0
  188.3760  177.3030  145.0380 C   0  0  0  0  0  0  0  0  0  0  0  0
  191.4190  175.0860  143.7140 C   0  0  0  0  0  1  0  0  0  0  0  0
  190.3670  177.2250  142.7770 C   0  0  1  0  0  3  0  0  0  0  0  0
  191.9510  177.0050  146.1590 O   0  0  0  0  0  0  0  0  0  0  0  0
  191.8660  176.4030  147.4430 C   0  0  0  0  0  1  0  0  0  0  0  0
  187.2510  177.7640  145.8920 C   0  0  0  0  0  0  0  0  0  0  0  0
  186.0590  178.0000  145.3320 C   0  0  0  0  0  3  0  0  0  0  0  0
  187.4370  177.9670  147.3140 C   0  0  0  0  0  0  0  0  0  0  0  0
  187.5910  178.1340  148.4980 C   0  0  0  0  0  3  0  0  0  0  0  0
  184.8550  178.4580  146.0950 C   0  0  0  0  0  2  0  0  0  0  0  0
  183.8200  179.0510  145.1520 C   0  0  0  0  0  2  0  0  0  0  0  0
  184.0880  178.6240  143.7170 C   0  0  0  0  0  2  0  0  0  0  0  0
  182.7770  178.3830  142.9860 C   0  0  1  0  0  3  0  0  0  0  0  0
  181.8980  179.4390  143.2300 O   0  0  0  0  0  1  0  0  0  0  0  0
  183.0200  178.2830  141.5570 N   0  0  0  0  0  2  0  0  0  0  0  0
  182.3830  179.4910  139.5880 C   0  0  1  0  0  3  0  0  0  0  0  0
  181.9070  175.8130  139.8490 C   0  0  0  0  0  2  0  0  0  0  0  0
  181.5930  178.2380  139.6340 C   0  0  2  0  0  3  0  0  0  0  0  0
  181.9520  178.9330  140.9030 N   0  0  0  0  0  0  0  0  0  0  0  0
  184.4220  180.5630  138.9240 O   0  0  0  0  0  1  0  0  0  0  0  0
  183.5210  176.1400  137.4240 O   0  0  0  0  0  1  0  0  0  0  0  0
  184.0680  178.3490  138.1210 C   0  0  0  0  0  2  0  0  0  0  0  0
  183.8840  179.3240  139.2720 C   0  0  2  0  0  3  0  0  0  0  0  0
  183.6500  176.9500  138.5550 C   0  0  1  0  0  3  0  0  0  0  0  0
  182.3620  176.9550  139.3430 C   0  0  0  0  0  0  0  0  0  0  0  0
  191.0250  177.3330  141.4700 N   0  0  0  0  0  2  0  0  0  0  0  0
  190.4490  176.4240  140.5620 N   0  0  0  0  0  2  0  0  0  0  0  0
  189.0460  179.1230  138.8180 O   0  0  0  0  0  0  0  0  0  0  0  0
  190.0260  176.8140  139.2530 C   0  0  0  0  0  0  0  0  0  0  0  0
  189.5220  177.9990  139.0290 C   0  0  0  0  0  0  0  0  0  0  0  0
  190.1560  175.8520  138.1260 C   0  0  0  0  0  2  0  0  0  0  0  0
  191.4690  175.2300  138.1600 N   0  0  0  0  0  2  0  0  0  0  0  0
  192.3120  175.9430  137.2130 C   0  0  0  0  0  2  0  0  0  0  0  0
  194.7290  175.7520  136.9800 N   0  0  0  0  0  2  0  0  0  0  0  0
  193.4560  175.0550  136.7570 C   0  0  1  0  0  3  0  0  0  0  0  0
  194.2800  174.6990  137.9050 C   0  0  0  0  0  2  0  0  0  0  0  0
  1  4  2  0  0  0  0
  1  9  1  0  0  0  0
  2  8  1  0  0  0  0
  2  3  1  0  0  0  0
  3  6  2  0  0  0  0
  5  7  1  1  0  0  0
  5  1  1  0  0  0  0
  6  4  1  0  0  0  0
  6 11  1  0  0  0  0
  8 31  1  6  0  0  0
  8  5  1  0  0  0  0
  9 10  1  0  0  0  0
 11 13  1  0  0  0  0
 12 11  2  0  0  0  0
 12 15  1  0  0  0  0
 13 14  3  0  0  0  0
 16 15  1  0  0  0  0
 17 16  1  0  0  0  0
 18 19  1  6  0  0  0
 18 17  1  0  0  0  0
 20 18  1  0  0  0  0
 21 23  1  0  0  0  0
 21 24  1  1  0  0  0
 23 30  1  1  0  0  0
 23 24  1  0  0  0  0
 24 20  1  0  0  0  0
 27 29  1  0  0  0  0
 27 28  1  0  0  0  0
 28 25  1  6  0  0  0
 28 21  1  0  0  0  0
 29 26  1  6  0  0  0
 29 30  1  0  0  0  0
 30 22  2  0  0  0  0
 32 31  1  0  0  0  0
 33 35  2  0  0  0  0
 34 32  1  0  0  0  0
 35 34  2  0  0  0  0
 36 37  1  0  0  0  0
 36 34  1  0  0  0  0
 38 37  1  0  0  0  0
 39 41  1  0  0  0  0
 40 39  1  0  0  0  0
 40 38  1  1  0  0  0
 40 41  1  0  0  0  0
M  END
>  <MODEL>
1

>  <REMARK>
 VINA RESULT:      -8.4      0.000      0.000
  Name = 
  16 active torsions:
  status: ('A' for Active; 'I' for Inactive)
    1  A    between atoms: C_1  and  O_6
    2  A    between atoms: C_5  and  C_15
    3  A    between atoms: C_5  and  N_23
    4  A    between atoms: N_7  and  N_11
    5  A    between atoms: N_7  and  C_20
    6  A    between atoms: C_8  and  C_35
    7  A    between atoms: N_9  and  C_22
    8  A    between atoms: N_9  and  C_35
    9  A    between atoms: C_10  and  C_28
   10  A    between atoms: C_10  and  C_33
   11  A    between atoms: N_11  and  C_36
   12  A    between atoms: N_14  and  N_23
   13  A    between atoms: C_15  and  C_26
   14  A    between atoms: C_16  and  C_26
   15  A    between atoms: C_16  and  C_32
   16  A    between atoms: C_20  and  C_22
                            x       y       z     vdW  Elec       q    Type
                         _______ _______ _______ _____ _____    ______ ____

>  <TORSDO>
F 16

$$$$
=
 OpenBabel10232410173D

 41 44  0  0  1  0  0  0  0  0999 V2000
  190.7400  177.1740  145.0640 C   0  0  0  0  0  0  0  0  0  0  0  0
  189.4180  176.5790  142.2410 C   0  0  0  0  0  2  0  0  0  0  0  0
  188.2970  177.0980  143.0660 C   0  0  0  0  0  3  0  0  0  0  0  0
  189.4640  177.4100  145.2300 N   0  0  0  0  0  0  0  0  0  0  0  0
  191.3820  176.7720  143.7700 C   0  0  1  0  0  3  0  0  0  0  0  0
  188.3000  177.4270  144.3690 C   0  0  0  0  0  0  0  0  0  0  0  0
  191.5930  175.2630  143.7330 C   0  0  0  0  0  1  0  0  0  0  0  0
  190.6910  177.3400  142.5360 C   0  0  1  0  0  3  0  0  0  0  0  0
  191.5980  177.2710  146.1640 O   0  0  0  0  0  0  0  0  0  0  0  0
  191.2640  176.7430  147.4400 C   0  0  0  0  0  1  0  0  0  0  0  0
  187.0210  177.8790  144.9740 C   0  0  0  0  0  0  0  0  0  0  0  0
  185.9530  178.0600  144.1880 C   0  0  0  0  0  3  0  0  0  0  0  0
  186.9250  178.1330  146.3970 C   0  0  0  0  0  0  0  0  0  0  0  0
  186.8450  178.3420  147.5820 C   0  0  0  0  0  3  0  0  0  0  0  0
  184.6140  178.5040  144.6890 C   0  0  0  0  0  2  0  0  0  0  0  0
  183.6720  178.7720  143.5260 C   0  0  0  0  0  2  0  0  0  0  0  0
  182.2260  178.7900  143.9940 C   0  0  0  0  0  2  0  0  0  0  0  0
  181.2900  178.9410  142.8060 C   0  0  1  0  0  3  0  0  0  0  0  0
  180.7280  180.2180  142.8050 O   0  0  0  0  0  1  0  0  0  0  0  0
  182.0270  178.7410  141.5700 N   0  0  0  0  0  2  0  0  0  0  0  0
  182.1570  179.5930  139.3330 C   0  0  1  0  0  3  0  0  0  0  0  0
  180.9160  176.1590  140.0360 C   0  0  0  0  0  2  0  0  0  0  0  0
  181.1500  178.5060  139.3530 C   0  0  2  0  0  3  0  0  0  0  0  0
  181.3080  179.3900  140.5430 N   0  0  0  0  0  0  0  0  0  0  0  0
  184.4670  180.1940  139.1130 O   0  0  0  0  0  1  0  0  0  0  0  0
  183.1200  175.7350  138.1500 O   0  0  0  0  0  1  0  0  0  0  0  0
  183.8980  177.9380  138.6100 C   0  0  0  0  0  2  0  0  0  0  0  0
  183.6260  179.1470  139.4880 C   0  0  2  0  0  3  0  0  0  0  0  0
  183.1170  176.7350  139.1250 C   0  0  1  0  0  3  0  0  0  0  0  0
  181.7000  177.0920  139.5040 C   0  0  0  0  0  0  0  0  0  0  0  0
  191.5860  177.4280  141.3760 N   0  0  0  0  0  2  0  0  0  0  0  0
  190.8340  177.4430  140.1860 N   0  0  0  0  0  2  0  0  0  0  0  0
  193.6860  176.5890  138.3330 O   0  0  0  0  0  0  0  0  0  0  0  0
  191.2370  176.7250  139.0170 C   0  0  0  0  0  0  0  0  0  0  0  0
  192.4940  176.6550  138.6640 C   0  0  0  0  0  0  0  0  0  0  0  0
  190.2070  176.0500  138.1820 C   0  0  0  0  0  2  0  0  0  0  0  0
  188.8890  176.5560  138.5260 N   0  0  0  0  0  2  0  0  0  0  0  0
  188.0420  176.3930  137.3540 C   0  0  0  0  0  2  0  0  0  0  0  0
  187.4460  178.6010  138.1910 N   0  0  0  0  0  2  0  0  0  0  0  0
  187.3200  177.6920  137.0440 C   0  0  1  0  0  3  0  0  0  0  0  0
  188.2840  178.7830  136.9960 C   0  0  0  0  0  2  0  0  0  0  0  0
  1  4  2  0  0  0  0
  1  9  1  0  0  0  0
  2  8  1  0  0  0  0
  2  3  1  0  0  0  0
  3  6  2  0  0  0  0
  5  7  1  6  0  0  0
  5  1  1  0  0  0  0
  6 11  1  0  0  0  0
  6  4  1  0  0  0  0
  8 31  1  6  0  0  0
  8  5  1  0  0  0  0
  9 10  1  0  0  0  0
 11 13  1  0  0  0  0
 12 15  1  0  0  0  0
 12 11  2  0  0  0  0
 13 14  3  0  0  0  0
 16 17  1  0  0  0  0
 16 15  1  0  0  0  0
 18 19  1  6  0  0  0
 18 17  1  0  0  0  0
 20 18  1  0  0  0  0
 21 23  1  0  0  0  0
 21 28  1  0  0  0  0
 21 24  1  1  0  0  0
 23 30  1  1  0  0  0
 23 24  1  0  0  0  0
 24 20  1  0  0  0  0
 27 29  1  0  0  0  0
 27 28  1  0  0  0  0
 28 25  1  6  0  0  0
 29 26  1  6  0  0  0
 29 30  1  0  0  0  0
 30 22  2  0  0  0  0
 32 31  1  0  0  0  0
 33 35  2  0  0  0  0
 34 32  1  0  0  0  0
 35 34  2  0  0  0  0
 36 37  1  0  0  0  0
 36 34  1  0  0  0  0
 38 37  1  0  0  0  0
 40 38  1  1  0  0  0
 40 39  1  0  0  0  0
 41 40  1  0  0  0  0
 41 39  1  0  0  0  0
M  END
>  <MODEL>
2

>  <REMARK>
 VINA RESULT:      -8.4      1.587      2.503
  Name = 
  16 active torsions:
  status: ('A' for Active; 'I' for Inactive)
    1  A    between atoms: C_1  and  O_6
    2  A    between atoms: C_5  and  C_15
    3  A    between atoms: C_5  and  N_23
    4  A    between atoms: N_7  and  N_11
    5  A    between atoms: N_7  and  C_20
    6  A    between atoms: C_8  and  C_35
    7  A    between atoms: N_9  and  C_22
    8  A    between atoms: N_9  and  C_35
    9  A    between atoms: C_10  and  C_28
   10  A    between atoms: C_10  and  C_33
   11  A    between atoms: N_11  and  C_36
   12  A    between atoms: N_14  and  N_23
   13  A    between atoms: C_15  and  C_26
   14  A    between atoms: C_16  and  C_26
   15  A    between atoms: C_16  and  C_32
   16  A    between atoms: C_20  and  C_22
                            x       y       z     vdW  Elec       q    Type
                         _______ _______ _______ _____ _____    ______ ____

>  <TORSDO>
F 16

$$$$
=
 OpenBabel10232410173D

 41 44  0  0  1  0  0  0  0  0999 V2000
  191.0050  176.9630  145.3240 C   0  0  0  0  0  0  0  0  0  0  0  0
  189.2990  176.4780  142.6930 C   0  0  0  0  0  2  0  0  0  0  0  0
  188.3250  177.0490  143.6590 C   0  0  0  0  0  3  0  0  0  0  0  0
  189.7770  177.2680  145.6550 N   0  0  0  0  0  0  0  0  0  0  0  0
  191.4520  176.5410  143.9560 C   0  0  1  0  0  3  0  0  0  0  0  0
  188.5150  177.3610  144.9520 C   0  0  0  0  0  0  0  0  0  0  0  0
  191.5680  175.0230  143.8850 C   0  0  0  0  0  1  0  0  0  0  0  0
  190.6410  177.1620  142.8240 C   0  0  1  0  0  3  0  0  0  0  0  0
  192.0020  176.9970  146.3050 O   0  0  0  0  0  0  0  0  0  0  0  0
  191.9340  176.2130  147.4880 C   0  0  0  0  0  1  0  0  0  0  0  0
  187.3520  177.8770  145.7190 C   0  0  0  0  0  0  0  0  0  0  0  0
  186.2320  178.2060  145.0660 C   0  0  0  0  0  3  0  0  0  0  0  0
  187.4260  178.0340  147.1570 C   0  0  0  0  0  0  0  0  0  0  0  0
  187.4870  178.1660  148.3540 C   0  0  0  0  0  3  0  0  0  0  0  0
  184.9980  178.7270  145.7360 C   0  0  0  0  0  2  0  0  0  0  0  0
  183.9170  179.0200  144.7090 C   0  0  0  0  0  2  0  0  0  0  0  0
  184.1490  178.2220  143.4350 C   0  0  0  0  0  2  0  0  0  0  0  0
  184.0960  179.1380  142.2230 C   0  0  1  0  0  3  0  0  0  0  0  0
  185.3730  179.6270  141.9440 O   0  0  0  0  0  1  0  0  0  0  0  0
  183.6010  178.4030  141.0710 N   0  0  0  0  0  2  0  0  0  0  0  0
  183.5950  179.2330  138.8230 C   0  0  1  0  0  3  0  0  0  0  0  0
  181.2180  176.5960  139.9270 C   0  0  0  0  0  2  0  0  0  0  0  0
  182.2570  178.6630  139.1060 C   0  0  2  0  0  3  0  0  0  0  0  0
  183.0170  179.3420  140.1950 N   0  0  0  0  0  0  0  0  0  0  0  0
  185.8410  178.8290  138.0880 O   0  0  0  0  0  1  0  0  0  0  0  0
  182.5890  175.3880  137.6350 O   0  0  0  0  0  1  0  0  0  0  0  0
  184.2910  177.0420  137.8190 C   0  0  0  0  0  2  0  0  0  0  0  0
  184.7410  178.2100  138.6800 C   0  0  2  0  0  3  0  0  0  0  0  0
  183.2100  176.2490  138.5430 C   0  0  1  0  0  3  0  0  0  0  0  0
  182.1860  177.1440  139.1980 C   0  0  0  0  0  0  0  0  0  0  0  0
  191.3830  177.2140  141.5590 N   0  0  0  0  0  2  0  0  0  0  0  0
  190.7410  176.4200  140.5900 N   0  0  0  0  0  2  0  0  0  0  0  0
  189.0720  178.9960  138.8950 O   0  0  0  0  0  0  0  0  0  0  0  0
  190.4640  176.8980  139.2710 C   0  0  0  0  0  0  0  0  0  0  0  0
  189.7480  177.9750  139.0770 C   0  0  0  0  0  0  0  0  0  0  0  0
  190.9920  176.1520  138.0970 C   0  0  0  0  0  2  0  0  0  0  0  0
  190.1220  175.0270  137.7980 N   0  0  0  0  0  2  0  0  0  0  0  0
  189.7740  175.1110  136.3880 C   0  0  0  0  0  2  0  0  0  0  0  0
  187.6140  175.6120  137.3970 N   0  0  0  0  0  2  0  0  0  0  0  0
  188.2680  175.0360  136.2140 C   0  0  1  0  0  3  0  0  0  0  0  0
  187.7200  176.3850  136.1490 C   0  0  0  0  0  2  0  0  0  0  0  0
  1  4  2  0  0  0  0
  1  9  1  0  0  0  0
  2  8  1  0  0  0  0
  2  3  1  0  0  0  0
  3  6  2  0  0  0  0
  5  7  1  1  0  0  0
  5  1  1  0  0  0  0
  6  4  1  0  0  0  0
  6 11  1  0  0  0  0
  8 31  1  6  0  0  0
  8  5  1  0  0  0  0
  9 10  1  0  0  0  0
 11 13  1  0  0  0  0
 12 11  2  0  0  0  0
 12 15  1  0  0  0  0
 13 14  3  0  0  0  0
 16 15  1  0  0  0  0
 17 16  1  0  0  0  0
 18 19  1  6  0  0  0
 18 17  1  0  0  0  0
 20 18  1  0  0  0  0
 21 23  1  0  0  0  0
 21 24  1  1  0  0  0
 23 30  1  1  0  0  0
 23 24  1  0  0  0  0
 24 20  1  0  0  0  0
 27 29  1  0  0  0  0
 27 28  1  0  0  0  0
 28 25  1  6  0  0  0
 28 21  1  0  0  0  0
 29 26  1  6  0  0  0
 29 30  1  0  0  0  0
 30 22  2  0  0  0  0
 32 31  1  0  0  0  0
 33 35  2  0  0  0  0
 34 32  1  0  0  0  0
 35 34  2  0  0  0  0
 36 34  1  0  0  0  0
 37 36  1  0  0  0  0
 38 37  1  0  0  0  0
 40 38  1  1  0  0  0
 40 39  1  0  0  0  0
 41 40  1  0  0  0  0
 41 39  1  0  0  0  0
M  END
>  <MODEL>
3

>  <REMARK>
 VINA RESULT:      -8.4      1.413      2.065
  Name = 
  16 active torsions:
  status: ('A' for Active; 'I' for Inactive)
    1  A    between atoms: C_1  and  O_6
    2  A    between atoms: C_5  and  C_15
    3  A    between atoms: C_5  and  N_23
    4  A    between atoms: N_7  and  N_11
    5  A    between atoms: N_7  and  C_20
    6  A    between atoms: C_8  and  C_35
    7  A    between atoms: N_9  and  C_22
    8  A    between atoms: N_9  and  C_35
    9  A    between atoms: C_10  and  C_28
   10  A    between atoms: C_10  and  C_33
   11  A    between atoms: N_11  and  C_36
   12  A    between atoms: N_14  and  N_23
   13  A    between atoms: C_15  and  C_26
   14  A    between atoms: C_16  and  C_26
   15  A    between atoms: C_16  and  C_32
   16  A    between atoms: C_20  and  C_22
                            x       y       z     vdW  Elec       q    Type
                         _______ _______ _______ _____ _____    ______ ____

>  <TORSDO>
F 16

$$$$
=
 OpenBabel10232410173D

 41 44  0  0  1  0  0  0  0  0999 V2000
  182.8900  176.5770  139.2950 C   0  0  0  0  0  0  0  0  0  0  0  0
  184.6430  179.1860  138.8550 C   0  0  0  0  0  2  0  0  0  0  0  0
  184.3900  179.1590  140.3190 C   0  0  0  0  0  3  0  0  0  0  0  0
  182.9470  177.1500  140.4700 N   0  0  0  0  0  0  0  0  0  0  0  0
  183.5820  177.0700  138.0600 C   0  0  1  0  0  3  0  0  0  0  0  0
  183.6290  178.3020  141.0200 C   0  0  0  0  0  0  0  0  0  0  0  0
  182.6090  177.8550  137.1880 C   0  0  0  0  0  1  0  0  0  0  0  0
  184.8980  177.7890  138.3350 C   0  0  1  0  0  3  0  0  0  0  0  0
  182.1100  175.4270  139.1370 O   0  0  0  0  0  0  0  0  0  0  0  0
  180.7110  175.4150  139.3850 C   0  0  0  0  0  1  0  0  0  0  0  0
  183.5000  178.5260  142.4830 C   0  0  0  0  0  0  0  0  0  0  0  0
  184.5930  178.4670  143.2530 C   0  0  0  0  0  3  0  0  0  0  0  0
  182.2080  178.7990  143.0790 C   0  0  0  0  0  0  0  0  0  0  0  0
  181.1330  179.0270  143.5750 C   0  0  0  0  0  3  0  0  0  0  0  0
  184.5830  178.6840  144.7350 C   0  0  0  0  0  2  0  0  0  0  0  0
  186.0010  178.8160  145.2640 C   0  0  0  0  0  2  0  0  0  0  0  0
  186.3790  177.6090  146.1080 C   0  0  0  0  0  2  0  0  0  0  0  0
  187.8080  177.7440  146.6090 C   0  0  1  0  0  3  0  0  0  0  0  0
  187.9960  176.9320  147.7290 O   0  0  0  0  0  1  0  0  0  0  0  0
  188.7360  177.3420  145.5650 N   0  0  0  0  0  2  0  0  0  0  0  0
  191.0250  177.8250  145.0430 C   0  0  1  0  0  3  0  0  0  0  0  0
  188.3660  177.9740  142.4470 C   0  0  0  0  0  2  0  0  0  0  0  0
  190.1720  178.4890  144.0290 C   0  0  2  0  0  3  0  0  0  0  0  0
  189.6920  178.3710  145.4360 N   0  0  0  0  0  0  0  0  0  0  0  0
  192.1690  175.8300  145.7160 O   0  0  0  0  0  1  0  0  0  0  0  0
  190.3210  176.0900  141.3410 O   0  0  0  0  0  1  0  0  0  0  0  0
  191.2800  175.8580  143.5080 C   0  0  0  0  0  2  0  0  0  0  0  0
  191.0950  176.2870  144.9530 C   0  0  2  0  0  3  0  0  0  0  0  0
  190.0300  176.1920  142.7030 C   0  0  1  0  0  3  0  0  0  0  0  0
  189.4950  177.5680  143.0220 C   0  0  0  0  0  0  0  0  0  0  0  0
  185.8080  177.7640  137.1850 N   0  0  0  0  0  2  0  0  0  0  0  0
  186.7510  176.7310  137.3370 N   0  0  0  0  0  2  0  0  0  0  0  0
  188.8390  179.1610  138.7630 O   0  0  0  0  0  0  0  0  0  0  0  0
  188.1240  176.9870  137.6470 C   0  0  0  0  0  0  0  0  0  0  0  0
  188.4920  178.1040  138.2190 C   0  0  0  0  0  0  0  0  0  0  0  0
  189.1530  175.9680  137.3070 C   0  0  0  0  0  2  0  0  0  0  0  0
  190.4040  176.2930  137.9720 N   0  0  0  0  0  2  0  0  0  0  0  0
  191.4520  176.2590  136.9640 C   0  0  0  0  0  2  0  0  0  0  0  0
  193.8790  176.3660  137.1460 N   0  0  0  0  0  2  0  0  0  0  0  0
  192.6930  175.5840  137.5200 C   0  0  1  0  0  3  0  0  0  0  0  0
  193.3200  176.4570  138.5040 C   0  0  0  0  0  2  0  0  0  0  0  0
  1  4  2  0  0  0  0
  2  3  1  0  0  0  0
  3  6  2  0  0  0  0
  4  6  1  0  0  0  0
  5  7  1  1  0  0  0
  5  8  1  0  0  0  0
  5  1  1  0  0  0  0
  6 11  1  0  0  0  0
  8 31  1  6  0  0  0
  8  2  1  0  0  0  0
  9  1  1  0  0  0  0
  9 10  1  0  0  0  0
 11 13  1  0  0  0  0
 11 12  2  0  0  0  0
 12 15  1  0  0  0  0
 13 14  3  0  0  0  0
 15 16  1  0  0  0  0
 16 17  1  0  0  0  0
 17 18  1  0  0  0  0
 18 19  1  1  0  0  0
 20 18  1  0  0  0  0
 21 24  1  1  0  0  0
 22 30  2  0  0  0  0
 23 30  1  6  0  0  0
 23 21  1  0  0  0  0
 23 24  1  0  0  0  0
 24 20  1  0  0  0  0
 27 28  1  0  0  0  0
 28 21  1  0  0  0  0
 28 25  1  1  0  0  0
 29 26  1  6  0  0  0
 29 30  1  0  0  0  0
 29 27  1  0  0  0  0
 31 32  1  0  0  0  0
 32 34  1  0  0  0  0
 34 35  2  0  0  0  0
 35 33  2  0  0  0  0
 36 34  1  0  0  0  0
 36 37  1  0  0  0  0
 38 37  1  0  0  0  0
 39 40  1  0  0  0  0
 39 41  1  0  0  0  0
 40 38  1  6  0  0  0
 40 41  1  0  0  0  0
M  END
>  <MODEL>
4

>  <REMARK>
 VINA RESULT:      -7.9      1.891      7.203
  Name = 
  16 active torsions:
  status: ('A' for Active; 'I' for Inactive)
    1  A    between atoms: C_1  and  O_6
    2  A    between atoms: C_5  and  C_15
    3  A    between atoms: C_5  and  N_23
    4  A    between atoms: N_7  and  N_11
    5  A    between atoms: N_7  and  C_20
    6  A    between atoms: C_8  and  C_35
    7  A    between atoms: N_9  and  C_22
    8  A    between atoms: N_9  and  C_35
    9  A    between atoms: C_10  and  C_28
   10  A    between atoms: C_10  and  C_33
   11  A    between atoms: N_11  and  C_36
   12  A    between atoms: N_14  and  N_23
   13  A    between atoms: C_15  and  C_26
   14  A    between atoms: C_16  and  C_26
   15  A    between atoms: C_16  and  C_32
   16  A    between atoms: C_20  and  C_22
                            x       y       z     vdW  Elec       q    Type
                         _______ _______ _______ _____ _____    ______ ____

>  <TORSDO>
F 16

$$$$
=
 OpenBabel10232410173D

 41 44  0  0  1  0  0  0  0  0999 V2000
  181.8140  177.3140  139.4960 C   0  0  0  0  0  0  0  0  0  0  0  0
  184.4040  179.1290  139.2380 C   0  0  0  0  0  2  0  0  0  0  0  0
  184.1300  179.0900  140.6980 C   0  0  0  0  0  3  0  0  0  0  0  0
  182.0530  177.7390  140.7100 N   0  0  0  0  0  0  0  0  0  0  0  0
  182.6610  177.6100  138.2950 C   0  0  1  0  0  3  0  0  0  0  0  0
  183.0960  178.5200  141.3400 C   0  0  0  0  0  0  0  0  0  0  0  0
  182.0580  178.7560  137.4930 C   0  0  0  0  0  1  0  0  0  0  0  0
  184.1430  177.7780  138.6130 C   0  0  1  0  0  3  0  0  0  0  0  0
  180.6720  176.5410  139.2590 O   0  0  0  0  0  0  0  0  0  0  0  0
  180.7210  175.2980  138.5730 C   0  0  0  0  0  1  0  0  0  0  0  0
  183.0290  178.6680  142.8160 C   0  0  0  0  0  0  0  0  0  0  0  0
  184.1650  178.7280  143.5200 C   0  0  0  0  0  3  0  0  0  0  0  0
  181.7510  178.7380  143.4950 C   0  0  0  0  0  0  0  0  0  0  0  0
  180.6880  178.7980  144.0590 C   0  0  0  0  0  3  0  0  0  0  0  0
  184.2180  178.8840  145.0080 C   0  0  0  0  0  2  0  0  0  0  0  0
  185.6560  179.0290  145.4790 C   0  0  0  0  0  2  0  0  0  0  0  0
  186.2410  177.6770  145.8550 C   0  0  0  0  0  2  0  0  0  0  0  0
  187.6410  177.8490  146.4230 C   0  0  1  0  0  3  0  0  0  0  0  0
  187.7750  177.0910  147.5880 O   0  0  0  0  0  1  0  0  0  0  0  0
  188.6250  177.4080  145.4490 N   0  0  0  0  0  2  0  0  0  0  0  0
  190.9010  177.9270  144.9040 C   0  0  1  0  0  3  0  0  0  0  0  0
  188.2240  177.9800  142.3230 C   0  0  0  0  0  2  0  0  0  0  0  0
  190.0290  178.5570  143.8850 C   0  0  2  0  0  3  0  0  0  0  0  0
  189.5600  178.4540  145.2970 N   0  0  0  0  0  0  0  0  0  0  0  0
  192.0890  175.9670  145.6040 O   0  0  0  0  0  1  0  0  0  0  0  0
  190.2100  176.1170  141.2360 O   0  0  0  0  0  1  0  0  0  0  0  0
  191.1850  175.9400  143.4010 C   0  0  0  0  0  2  0  0  0  0  0  0
  191.0010  176.3900  144.8400 C   0  0  2  0  0  3  0  0  0  0  0  0
  189.9240  176.2350  142.5990 C   0  0  1  0  0  3  0  0  0  0  0  0
  189.3640  177.6060  142.8980 C   0  0  0  0  0  0  0  0  0  0  0  0
  185.0040  177.5080  137.4560 N   0  0  0  0  0  2  0  0  0  0  0  0
  184.8690  176.1650  137.0550 N   0  0  0  0  0  2  0  0  0  0  0  0
  185.7780  172.7790  137.0340 O   0  0  0  0  0  0  0  0  0  0  0  0
  185.9970  175.3080  136.8560 C   0  0  0  0  0  0  0  0  0  0  0  0
  185.8850  174.0090  136.9480 C   0  0  0  0  0  0  0  0  0  0  0  0
  187.3230  175.9060  136.5460 C   0  0  0  0  0  2  0  0  0  0  0  0
  188.2650  175.5880  137.6060 N   0  0  0  0  0  2  0  0  0  0  0  0
  189.1420  176.7380  137.7680 C   0  0  0  0  0  2  0  0  0  0  0  0
  189.0230  178.9820  138.7080 N   0  0  0  0  0  2  0  0  0  0  0  0
  188.3230  178.0130  137.8540 C   0  0  1  0  0  3  0  0  0  0  0  0
  189.0650  179.1080  137.2420 C   0  0  0  0  0  2  0  0  0  0  0  0
  1  4  2  0  0  0  0
  2  3  1  0  0  0  0
  3  6  2  0  0  0  0
  4  6  1  0  0  0  0
  5  7  1  1  0  0  0
  5  8  1  0  0  0  0
  5  1  1  0  0  0  0
  6 11  1  0  0  0  0
  8 31  1  6  0  0  0
  8  2  1  0  0  0  0
  9  1  1  0  0  0  0
 10  9  1  0  0  0  0
 11 13  1  0  0  0  0
 11 12  2  0  0  0  0
 12 15  1  0  0  0  0
 13 14  3  0  0  0  0
 15 16  1  0  0  0  0
 16 17  1  0  0  0  0
 17 18  1  0  0  0  0
 18 19  1  1  0  0  0
 20 18  1  0  0  0  0
 21 24  1  1  0  0  0
 22 30  2  0  0  0  0
 23 30  1  6  0  0  0
 23 21  1  0  0  0  0
 23 24  1  0  0  0  0
 24 20  1  0  0  0  0
 27 28  1  0  0  0  0
 28 21  1  0  0  0  0
 28 25  1  1  0  0  0
 29 26  1  6  0  0  0
 29 30  1  0  0  0  0
 29 27  1  0  0  0  0
 32 31  1  0  0  0  0
 34 35  2  0  0  0  0
 34 32  1  0  0  0  0
 35 33  2  0  0  0  0
 36 34  1  0  0  0  0
 36 37  1  0  0  0  0
 37 38  1  0  0  0  0
 40 38  1  6  0  0  0
 40 39  1  0  0  0  0
 41 40  1  0  0  0  0
 41 39  1  0  0  0  0
M  END
>  <MODEL>
5

>  <REMARK>
 VINA RESULT:      -7.6      2.593      7.758
  Name = 
  16 active torsions:
  status: ('A' for Active; 'I' for Inactive)
    1  A    between atoms: C_1  and  O_6
    2  A    between atoms: C_5  and  C_15
    3  A    between atoms: C_5  and  N_23
    4  A    between atoms: N_7  and  N_11
    5  A    between atoms: N_7  and  C_20
    6  A    between atoms: C_8  and  C_35
    7  A    between atoms: N_9  and  C_22
    8  A    between atoms: N_9  and  C_35
    9  A    between atoms: C_10  and  C_28
   10  A    between atoms: C_10  and  C_33
   11  A    between atoms: N_11  and  C_36
   12  A    between atoms: N_14  and  N_23
   13  A    between atoms: C_15  and  C_26
   14  A    between atoms: C_16  and  C_26
   15  A    between atoms: C_16  and  C_32
   16  A    between atoms: C_20  and  C_22
                            x       y       z     vdW  Elec       q    Type
                         _______ _______ _______ _____ _____    ______ ____

>  <TORSDO>
F 16

$$$$
=
 OpenBabel10232410173D

 41 44  0  0  1  0  0  0  0  0999 V2000
  190.9790  176.7460  145.3730 C   0  0  0  0  0  0  0  0  0  0  0  0
  189.3340  176.5090  142.6690 C   0  0  0  0  0  2  0  0  0  0  0  0
  188.3560  177.0590  143.6430 C   0  0  0  0  0  3  0  0  0  0  0  0
  189.7550  177.0830  145.6890 N   0  0  0  0  0  0  0  0  0  0  0  0
  191.4480  176.3940  143.9930 C   0  0  1  0  0  3  0  0  0  0  0  0
  188.5200  177.2770  144.9590 C   0  0  0  0  0  0  0  0  0  0  0  0
  191.5030  174.8810  143.8240 C   0  0  0  0  0  1  0  0  0  0  0  0
  190.7000  177.1230  142.8830 C   0  0  1  0  0  3  0  0  0  0  0  0
  191.9460  176.6720  146.3810 O   0  0  0  0  0  0  0  0  0  0  0  0
  191.6270  176.8330  147.7560 C   0  0  0  0  0  1  0  0  0  0  0  0
  187.3570  177.7940  145.7260 C   0  0  0  0  0  0  0  0  0  0  0  0
  186.2020  178.0180  145.0910 C   0  0  0  0  0  3  0  0  0  0  0  0
  187.4690  178.0620  147.1460 C   0  0  0  0  0  0  0  0  0  0  0  0
  187.5630  178.2850  148.3270 C   0  0  0  0  0  3  0  0  0  0  0  0
  184.9650  178.5280  145.7640 C   0  0  0  0  0  2  0  0  0  0  0  0
  184.2200  179.4890  144.8510 C   0  0  0  0  0  2  0  0  0  0  0  0
  184.2990  179.0320  143.4030 C   0  0  0  0  0  2  0  0  0  0  0  0
  182.9520  178.4940  142.9470 C   0  0  1  0  0  3  0  0  0  0  0  0
  181.9250  179.1570  143.6190 O   0  0  0  0  0  1  0  0  0  0  0  0
  182.8000  178.6980  141.5160 N   0  0  0  0  0  2  0  0  0  0  0  0
  182.5320  176.8800  139.9770 C   0  0  1  0  0  3  0  0  0  0  0  0
  183.6950  180.2260  138.8470 C   0  0  0  0  0  2  0  0  0  0  0  0
  183.4970  177.8400  139.3910 C   0  0  2  0  0  3  0  0  0  0  0  0
  183.4630  177.6350  140.8670 N   0  0  0  0  0  0  0  0  0  0  0  0
  180.2370  176.2560  140.2670 O   0  0  0  0  0  1  0  0  0  0  0  0
  181.3400  179.7030  137.1820 O   0  0  0  0  0  1  0  0  0  0  0  0
  180.6820  177.9930  138.7010 C   0  0  0  0  0  2  0  0  0  0  0  0
  181.0640  177.3510  140.0240 C   0  0  2  0  0  3  0  0  0  0  0  0
  181.4540  179.2930  138.5120 C   0  0  1  0  0  3  0  0  0  0  0  0
  182.9090  179.1550  138.8940 C   0  0  0  0  0  0  0  0  0  0  0  0
  191.4810  177.2240  141.6450 N   0  0  0  0  0  2  0  0  0  0  0  0
  190.8300  176.5350  140.6050 N   0  0  0  0  0  2  0  0  0  0  0  0
  192.4390  176.0470  137.5280 O   0  0  0  0  0  0  0  0  0  0  0  0
  190.8330  177.0060  139.2540 C   0  0  0  0  0  0  0  0  0  0  0  0
  191.6580  176.5150  138.3670 C   0  0  0  0  0  0  0  0  0  0  0  0
  189.8850  178.0800  138.8530 C   0  0  0  0  0  2  0  0  0  0  0  0
  188.5340  177.7140  139.2430 N   0  0  0  0  0  2  0  0  0  0  0  0
  187.9140  177.0620  138.1000 C   0  0  0  0  0  2  0  0  0  0  0  0
  186.7250  178.0390  136.2130 N   0  0  0  0  0  2  0  0  0  0  0  0
  186.6780  177.8290  137.6660 C   0  0  1  0  0  3  0  0  0  0  0  0
  185.8690  176.9910  136.7900 C   0  0  0  0  0  2  0  0  0  0  0  0
  1  4  2  0  0  0  0
  1  9  1  0  0  0  0
  2  8  1  0  0  0  0
  2  3  1  0  0  0  0
  3  6  2  0  0  0  0
  5  7  1  6  0  0  0
  5  1  1  0  0  0  0
  6  4  1  0  0  0  0
  6 11  1  0  0  0  0
  8 31  1  6  0  0  0
  8  5  1  0  0  0  0
  9 10  1  0  0  0  0
 11 13  1  0  0  0  0
 12 11  2  0  0  0  0
 12 15  1  0  0  0  0
 13 14  3  0  0  0  0
 16 15  1  0  0  0  0
 17 16  1  0  0  0  0
 18 17  1  0  0  0  0
 18 19  1  1  0  0  0
 20 18  1  0  0  0  0
 21 28  1  0  0  0  0
 21 24  1  1  0  0  0
 22 30  2  0  0  0  0
 23 30  1  1  0  0  0
 23 21  1  0  0  0  0
 23 24  1  0  0  0  0
 24 20  1  0  0  0  0
 27 28  1  0  0  0  0
 28 25  1  6  0  0  0
 29 26  1  6  0  0  0
 29 27  1  0  0  0  0
 29 30  1  0  0  0  0
 32 31  1  0  0  0  0
 33 35  2  0  0  0  0
 34 32  1  0  0  0  0
 35 34  2  0  0  0  0
 36 37  1  0  0  0  0
 36 34  1  0  0  0  0
 38 37  1  0  0  0  0
 39 41  1  0  0  0  0
 39 40  1  0  0  0  0
 40 38  1  6  0  0  0
 41 40  1  0  0  0  0
M  END
>  <MODEL>
6

>  <REMARK>
 VINA RESULT:      -7.6      1.784      3.170
  Name = 
  16 active torsions:
  status: ('A' for Active; 'I' for Inactive)
    1  A    between atoms: C_1  and  O_6
    2  A    between atoms: C_5  and  C_15
    3  A    between atoms: C_5  and  N_23
    4  A    between atoms: N_7  and  N_11
    5  A    between atoms: N_7  and  C_20
    6  A    between atoms: C_8  and  C_35
    7  A    between atoms: N_9  and  C_22
    8  A    between atoms: N_9  and  C_35
    9  A    between atoms: C_10  and  C_28
   10  A    between atoms: C_10  and  C_33
   11  A    between atoms: N_11  and  C_36
   12  A    between atoms: N_14  and  N_23
   13  A    between atoms: C_15  and  C_26
   14  A    between atoms: C_16  and  C_26
   15  A    between atoms: C_16  and  C_32
   16  A    between atoms: C_20  and  C_22
                            x       y       z     vdW  Elec       q    Type
                         _______ _______ _______ _____ _____    ______ ____

>  <TORSDO>
F 16

$$$$
=
 OpenBabel10232410173D

 41 44  0  0  1  0  0  0  0  0999 V2000
  182.6060  176.7170  139.2380 C   0  0  0  0  0  0  0  0  0  0  0  0
  184.5240  179.2220  138.8960 C   0  0  0  0  0  2  0  0  0  0  0  0
  184.1790  179.2210  140.3420 C   0  0  0  0  0  3  0  0  0  0  0  0
  182.6220  177.2950  140.4110 N   0  0  0  0  0  0  0  0  0  0  0  0
  183.3990  177.1610  138.0460 C   0  0  1  0  0  3  0  0  0  0  0  0
  183.3300  178.4130  140.9980 C   0  0  0  0  0  0  0  0  0  0  0  0
  182.5270  177.9910  137.1120 C   0  0  0  0  0  1  0  0  0  0  0  0
  184.7330  177.8090  138.3990 C   0  0  1  0  0  3  0  0  0  0  0  0
  181.7750  175.6100  139.0370 O   0  0  0  0  0  0  0  0  0  0  0  0
  180.4570  175.5410  139.5610 C   0  0  0  0  0  1  0  0  0  0  0  0
  183.1240  178.6550  142.4490 C   0  0  0  0  0  0  0  0  0  0  0  0
  184.1880  178.8140  143.2440 C   0  0  0  0  0  3  0  0  0  0  0  0
  181.7880  178.7110  143.0060 C   0  0  0  0  0  0  0  0  0  0  0  0
  180.6770  178.7590  143.4710 C   0  0  0  0  0  3  0  0  0  0  0  0
  184.0990  179.0720  144.7160 C   0  0  0  0  0  2  0  0  0  0  0  0
  185.4880  179.2020  145.3200 C   0  0  0  0  0  2  0  0  0  0  0  0
  186.2600  177.8980  145.1900 C   0  0  0  0  0  2  0  0  0  0  0  0
  187.5500  177.9690  145.9900 C   0  0  1  0  0  3  0  0  0  0  0  0
  187.4240  177.2170  147.1600 O   0  0  0  0  0  1  0  0  0  0  0  0
  188.6500  177.4430  145.1990 N   0  0  0  0  0  2  0  0  0  0  0  0
  190.9530  177.9100  144.7280 C   0  0  1  0  0  3  0  0  0  0  0  0
  188.3530  178.0830  142.0750 C   0  0  0  0  0  2  0  0  0  0  0  0
  190.1280  178.5820  143.6970 C   0  0  2  0  0  3  0  0  0  0  0  0
  189.6160  178.4650  145.0930 N   0  0  0  0  0  0  0  0  0  0  0  0
  192.0680  175.9050  145.4220 O   0  0  0  0  0  1  0  0  0  0  0  0
  190.3180  176.1880  141.0080 O   0  0  0  0  0  1  0  0  0  0  0  0
  191.2270  175.9440  143.1940 C   0  0  0  0  0  2  0  0  0  0  0  0
  191.0140  176.3710  144.6370 C   0  0  2  0  0  3  0  0  0  0  0  0
  189.9970  176.2890  142.3630 C   0  0  1  0  0  3  0  0  0  0  0  0
  189.4660  177.6680  142.6730 C   0  0  0  0  0  0  0  0  0  0  0  0
  185.7100  177.7260  137.3080 N   0  0  0  0  0  2  0  0  0  0  0  0
  186.7290  176.8130  137.6400 N   0  0  0  0  0  2  0  0  0  0  0  0
  189.0750  179.1590  138.7750 O   0  0  0  0  0  0  0  0  0  0  0  0
  188.1170  177.1470  137.5450 C   0  0  0  0  0  0  0  0  0  0  0  0
  188.6100  178.1810  138.1750 C   0  0  0  0  0  0  0  0  0  0  0  0
  189.0140  176.3080  136.7070 C   0  0  0  0  0  2  0  0  0  0  0  0
  188.2340  175.6080  135.7000 N   0  0  0  0  0  2  0  0  0  0  0  0
  188.5580  174.1940  135.8050 C   0  0  0  0  0  2  0  0  0  0  0  0
  187.4100  172.0450  135.7720 N   0  0  0  0  0  2  0  0  0  0  0  0
  187.3530  173.4150  136.3010 C   0  0  1  0  0  3  0  0  0  0  0  0
  187.7990  172.3280  137.1630 C   0  0  0  0  0  2  0  0  0  0  0  0
  1  4  2  0  0  0  0
  2  3  1  0  0  0  0
  3  6  2  0  0  0  0
  4  6  1  0  0  0  0
  5  7  1  1  0  0  0
  5  8  1  0  0  0  0
  5  1  1  0  0  0  0
  6 11  1  0  0  0  0
  8 31  1  6  0  0  0
  8  2  1  0  0  0  0
  9  1  1  0  0  0  0
  9 10  1  0  0  0  0
 11 13  1  0  0  0  0
 11 12  2  0  0  0  0
 12 15  1  0  0  0  0
 13 14  3  0  0  0  0
 15 16  1  0  0  0  0
 17 16  1  0  0  0  0
 17 18  1  0  0  0  0
 18 19  1  1  0  0  0
 20 18  1  0  0  0  0
 21 24  1  1  0  0  0
 22 30  2  0  0  0  0
 23 30  1  6  0  0  0
 23 21  1  0  0  0  0
 23 24  1  0  0  0  0
 24 20  1  0  0  0  0
 27 28  1  0  0  0  0
 28 21  1  0  0  0  0
 28 25  1  1  0  0  0
 29 26  1  6  0  0  0
 29 30  1  0  0  0  0
 29 27  1  0  0  0  0
 31 32  1  0  0  0  0
 34 32  1  0  0  0  0
 34 35  2  0  0  0  0
 35 33  2  0  0  0  0
 36 34  1  0  0  0  0
 37 38  1  0  0  0  0
 37 36  1  0  0  0  0
 39 40  1  0  0  0  0
 39 41  1  0  0  0  0
 40 38  1  6  0  0  0
 40 41  1  0  0  0  0
M  END
>  <MODEL>
7

>  <REMARK>
 VINA RESULT:      -7.4      2.637      7.480
  Name = 
  16 active torsions:
  status: ('A' for Active; 'I' for Inactive)
    1  A    between atoms: C_1  and  O_6
    2  A    between atoms: C_5  and  C_15
    3  A    between atoms: C_5  and  N_23
    4  A    between atoms: N_7  and  N_11
    5  A    between atoms: N_7  and  C_20
    6  A    between atoms: C_8  and  C_35
    7  A    between atoms: N_9  and  C_22
    8  A    between atoms: N_9  and  C_35
    9  A    between atoms: C_10  and  C_28
   10  A    between atoms: C_10  and  C_33
   11  A    between atoms: N_11  and  C_36
   12  A    between atoms: N_14  and  N_23
   13  A    between atoms: C_15  and  C_26
   14  A    between atoms: C_16  and  C_26
   15  A    between atoms: C_16  and  C_32
   16  A    between atoms: C_20  and  C_22
                            x       y       z     vdW  Elec       q    Type
                         _______ _______ _______ _____ _____    ______ ____

>  <TORSDO>
F 16

$$$$
=
 OpenBabel10232410173D

 41 44  0  0  1  0  0  0  0  0999 V2000
  189.8510  176.3670  142.3680 C   0  0  0  0  0  0  0  0  0  0  0  0
  187.8380  178.7760  141.9040 C   0  0  0  0  0  2  0  0  0  0  0  0
  188.2050  178.3380  140.5320 C   0  0  0  0  0  3  0  0  0  0  0  0
  189.8320  176.5490  141.0730 N   0  0  0  0  0  0  0  0  0  0  0  0
  189.0240  177.1290  143.3590 C   0  0  1  0  0  3  0  0  0  0  0  0
  189.0920  177.3990  140.1640 C   0  0  0  0  0  0  0  0  0  0  0  0
  189.8520  178.2430  143.9900 C   0  0  0  0  0  1  0  0  0  0  0  0
  187.6730  177.5820  142.8170 C   0  0  1  0  0  3  0  0  0  0  0  0
  190.7180  175.4110  142.9080 O   0  0  0  0  0  0  0  0  0  0  0  0
  191.8840  175.7650  143.6370 C   0  0  0  0  0  1  0  0  0  0  0  0
  189.3120  177.1840  138.7110 C   0  0  0  0  0  0  0  0  0  0  0  0
  189.6890  175.9760  138.2770 C   0  0  0  0  0  3  0  0  0  0  0  0
  189.1290  178.2690  137.7670 C   0  0  0  0  0  0  0  0  0  0  0  0
  188.9790  179.1720  136.9830 C   0  0  0  0  0  3  0  0  0  0  0  0
  189.9300  175.6440  136.8370 C   0  0  0  0  0  2  0  0  0  0  0  0
  191.4170  175.4710  136.5720 C   0  0  0  0  0  2  0  0  0  0  0  0
  192.1840  175.3040  137.8740 C   0  0  0  0  0  2  0  0  0  0  0  0
  193.4270  176.1790  137.8690 C   0  0  1  0  0  3  0  0  0  0  0  0
  193.4830  176.9280  139.0450 O   0  0  0  0  0  1  0  0  0  0  0  0
  194.6150  175.3470  137.7740 N   0  0  0  0  0  2  0  0  0  0  0  0
  196.5870  175.1150  136.4320 C   0  0  1  0  0  3  0  0  0  0  0  0
  193.9930  172.4530  136.5510 C   0  0  0  0  0  2  0  0  0  0  0  0
  195.5390  174.2330  135.8650 C   0  0  2  0  0  3  0  0  0  0  0  0
  195.1550  175.5340  136.4840 N   0  0  0  0  0  0  0  0  0  0  0  0
  198.3610  175.3680  138.0230 O   0  0  0  0  0  1  0  0  0  0  0  0
  196.4570  171.0660  137.3240 O   0  0  0  0  0  1  0  0  0  0  0  0
  197.4760  173.1750  137.7500 C   0  0  0  0  0  2  0  0  0  0  0  0
  197.1810  174.6650  137.7820 C   0  0  2  0  0  3  0  0  0  0  0  0
  196.1730  172.3890  137.6700 C   0  0  1  0  0  3  0  0  0  0  0  0
  195.2030  172.9900  136.6800 C   0  0  0  0  0  0  0  0  0  0  0  0
  186.6830  177.8050  143.8770 N   0  0  0  0  0  2  0  0  0  0  0  0
  187.1440  177.2620  145.0900 N   0  0  0  0  0  2  0  0  0  0  0  0
  184.5070  179.0280  146.5820 O   0  0  0  0  0  0  0  0  0  0  0  0
  186.6870  177.7320  146.3620 C   0  0  0  0  0  0  0  0  0  0  0  0
  185.5680  178.3980  146.4760 C   0  0  0  0  0  0  0  0  0  0  0  0
  187.5030  177.4650  147.5760 C   0  0  0  0  0  2  0  0  0  0  0  0
  188.8870  177.8370  147.3300 N   0  0  0  0  0  2  0  0  0  0  0  0
  189.6910  176.6320  147.4640 C   0  0  0  0  0  2  0  0  0  0  0  0
  191.9720  177.0300  148.2190 N   0  0  0  0  0  2  0  0  0  0  0  0
  191.1200  176.9050  147.0290 C   0  0  1  0  0  3  0  0  0  0  0  0
  191.9690  175.7900  147.4270 C   0  0  0  0  0  2  0  0  0  0  0  0
  1  9  1  0  0  0  0
  1  5  1  0  0  0  0
  2  8  1  0  0  0  0
  3  2  1  0  0  0  0
  4  1  2  0  0  0  0
  5  7  1  6  0  0  0
  6  3  2  0  0  0  0
  6  4  1  0  0  0  0
  8  5  1  0  0  0  0
  8 31  1  1  0  0  0
  9 10  1  0  0  0  0
 11  6  1  0  0  0  0
 12 11  2  0  0  0  0
 13 11  1  0  0  0  0
 14 13  3  0  0  0  0
 15 12  1  0  0  0  0
 16 15  1  0  0  0  0
 16 17  1  0  0  0  0
 18 17  1  0  0  0  0
 18 19  1  1  0  0  0
 20 18  1  0  0  0  0
 21 24  1  1  0  0  0
 21 28  1  0  0  0  0
 22 30  2  0  0  0  0
 23 21  1  0  0  0  0
 23 24  1  0  0  0  0
 23 30  1  1  0  0  0
 24 20  1  0  0  0  0
 27 28  1  0  0  0  0
 28 25  1  6  0  0  0
 29 26  1  6  0  0  0
 29 27  1  0  0  0  0
 30 29  1  0  0  0  0
 31 32  1  0  0  0  0
 32 34  1  0  0  0  0
 34 35  2  0  0  0  0
 34 36  1  0  0  0  0
 35 33  2  0  0  0  0
 37 38  1  0  0  0  0
 37 36  1  0  0  0  0
 40 41  1  0  0  0  0
 40 38  1  1  0  0  0
 40 39  1  0  0  0  0
 41 39  1  0  0  0  0
M  END
>  <MODEL>
8

>  <REMARK>
 VINA RESULT:      -7.4      3.704     10.196
  Name = 
  16 active torsions:
  status: ('A' for Active; 'I' for Inactive)
    1  A    between atoms: C_1  and  O_6
    2  A    between atoms: C_5  and  C_15
    3  A    between atoms: C_5  and  N_23
    4  A    between atoms: N_7  and  N_11
    5  A    between atoms: N_7  and  C_20
    6  A    between atoms: C_8  and  C_35
    7  A    between atoms: N_9  and  C_22
    8  A    between atoms: N_9  and  C_35
    9  A    between atoms: C_10  and  C_28
   10  A    between atoms: C_10  and  C_33
   11  A    between atoms: N_11  and  C_36
   12  A    between atoms: N_14  and  N_23
   13  A    between atoms: C_15  and  C_26
   14  A    between atoms: C_16  and  C_26
   15  A    between atoms: C_16  and  C_32
   16  A    between atoms: C_20  and  C_22
                            x       y       z     vdW  Elec       q    Type
                         _______ _______ _______ _____ _____    ______ ____

>  <TORSDO>
F 16

$$$$
=
 OpenBabel10232410173D

 41 44  0  0  1  0  0  0  0  0999 V2000
  190.7050  176.9210  142.5380 C   0  0  0  0  0  0  0  0  0  0  0  0
  188.0010  178.4210  141.8220 C   0  0  0  0  0  2  0  0  0  0  0  0
  188.5600  178.0270  140.5020 C   0  0  0  0  0  3  0  0  0  0  0  0
  190.6830  176.9760  141.2310 N   0  0  0  0  0  0  0  0  0  0  0  0
  189.6200  177.4250  143.4410 C   0  0  1  0  0  3  0  0  0  0  0  0
  189.7350  177.4320  140.2360 C   0  0  0  0  0  0  0  0  0  0  0  0
  189.9770  178.8070  143.9750 C   0  0  0  0  0  1  0  0  0  0  0  0
  188.2220  177.3260  142.8410 C   0  0  1  0  0  3  0  0  0  0  0  0
  191.8260  176.3800  143.1760 O   0  0  0  0  0  0  0  0  0  0  0  0
  191.7360  175.2860  144.0770 C   0  0  0  0  0  1  0  0  0  0  0  0
  190.0820  177.1880  138.8120 C   0  0  0  0  0  0  0  0  0  0  0  0
  191.0170  176.2800  138.5130 C   0  0  0  0  0  3  0  0  0  0  0  0
  189.4240  177.9270  137.7540 C   0  0  0  0  0  0  0  0  0  0  0  0
  188.8780  178.5410  136.8720 C   0  0  0  0  0  3  0  0  0  0  0  0
  191.4400  175.9460  137.1160 C   0  0  0  0  0  2  0  0  0  0  0  0
  192.9270  176.2010  136.9340 C   0  0  0  0  0  2  0  0  0  0  0  0
  193.2900  176.2610  135.4580 C   0  0  0  0  0  2  0  0  0  0  0  0
  194.7770  176.5260  135.2920 C   0  0  1  0  0  3  0  0  0  0  0  0
  195.0310  177.8920  135.4230 O   0  0  0  0  0  1  0  0  0  0  0  0
  195.5240  175.8000  136.3060 N   0  0  0  0  0  2  0  0  0  0  0  0
  197.5440  174.5510  136.6260 C   0  0  1  0  0  3  0  0  0  0  0  0
  194.2510  172.8620  136.2610 C   0  0  0  0  0  2  0  0  0  0  0  0
  196.5540  173.6640  135.9710 C   0  0  2  0  0  3  0  0  0  0  0  0
  196.5700  175.1190  135.6480 N   0  0  0  0  0  0  0  0  0  0  0  0
  198.4090  175.4320  138.6800 O   0  0  0  0  0  1  0  0  0  0  0  0
  195.2750  171.8570  138.8180 O   0  0  0  0  0  1  0  0  0  0  0  0
  196.8450  173.6460  138.8580 C   0  0  0  0  0  2  0  0  0  0  0  0
  197.2590  174.8970  138.1020 C   0  0  2  0  0  3  0  0  0  0  0  0
  195.4940  173.1560  138.3530 C   0  0  1  0  0  3  0  0  0  0  0  0
  195.3980  173.1950  136.8460 C   0  0  0  0  0  0  0  0  0  0  0  0
  187.1690  177.2750  143.8620 N   0  0  0  0  0  2  0  0  0  0  0  0
  186.3920  178.4470  143.8130 N   0  0  0  0  0  2  0  0  0  0  0  0
  184.6330  178.5220  146.8460 O   0  0  0  0  0  0  0  0  0  0  0  0
  185.0620  178.5060  144.3370 C   0  0  0  0  0  0  0  0  0  0  0  0
  184.8410  178.5130  145.6250 C   0  0  0  0  0  0  0  0  0  0  0  0
  183.9080  178.5510  143.3990 C   0  0  0  0  0  2  0  0  0  0  0  0
  184.3910  178.5770  142.0280 N   0  0  0  0  0  2  0  0  0  0  0  0
  183.2260  178.5610  141.1570 C   0  0  0  0  0  2  0  0  0  0  0  0
  184.4360  179.8910  139.5140 N   0  0  0  0  0  2  0  0  0  0  0  0
  183.6550  178.6610  139.7050 C   0  0  1  0  0  3  0  0  0  0  0  0
  185.1080  178.5870  139.6230 C   0  0  0  0  0  2  0  0  0  0  0  0
  1  9  1  0  0  0  0
  1  5  1  0  0  0  0
  2  8  1  0  0  0  0
  3  2  1  0  0  0  0
  4  1  2  0  0  0  0
  5  7  1  6  0  0  0
  6  3  2  0  0  0  0
  6  4  1  0  0  0  0
  8  5  1  0  0  0  0
  8 31  1  1  0  0  0
  9 10  1  0  0  0  0
 11  6  1  0  0  0  0
 12 11  2  0  0  0  0
 13 11  1  0  0  0  0
 14 13  3  0  0  0  0
 15 12  1  0  0  0  0
 16 15  1  0  0  0  0
 17 16  1  0  0  0  0
 18 19  1  1  0  0  0
 18 17  1  0  0  0  0
 18 20  1  0  0  0  0
 21 24  1  6  0  0  0
 21 28  1  0  0  0  0
 22 30  2  0  0  0  0
 23 21  1  0  0  0  0
 23 30  1  1  0  0  0
 24 23  1  0  0  0  0
 24 20  1  0  0  0  0
 28 25  1  1  0  0  0
 28 27  1  0  0  0  0
 29 26  1  6  0  0  0
 29 27  1  0  0  0  0
 30 29  1  0  0  0  0
 32 31  1  0  0  0  0
 32 34  1  0  0  0  0
 34 35  2  0  0  0  0
 35 33  2  0  0  0  0
 36 34  1  0  0  0  0
 37 36  1  0  0  0  0
 38 37  1  0  0  0  0
 39 41  1  0  0  0  0
 39 40  1  0  0  0  0
 40 38  1  1  0  0  0
 41 40  1  0  0  0  0
M  END
>  <MODEL>
9

>  <REMARK>
 VINA RESULT:      -7.2      3.171     10.457
  Name = 
  16 active torsions:
  status: ('A' for Active; 'I' for Inactive)
    1  A    between atoms: C_1  and  O_6
    2  A    between atoms: C_5  and  C_15
    3  A    between atoms: C_5  and  N_23
    4  A    between atoms: N_7  and  N_11
    5  A    between atoms: N_7  and  C_20
    6  A    between atoms: C_8  and  C_35
    7  A    between atoms: N_9  and  C_22
    8  A    between atoms: N_9  and  C_35
    9  A    between atoms: C_10  and  C_28
   10  A    between atoms: C_10  and  C_33
   11  A    between atoms: N_11  and  C_36
   12  A    between atoms: N_14  and  N_23
   13  A    between atoms: C_15  and  C_26
   14  A    between atoms: C_16  and  C_26
   15  A    between atoms: C_16  and  C_32
   16  A    between atoms: C_20  and  C_22
                            x       y       z     vdW  Elec       q    Type
                         _______ _______ _______ _____ _____    ______ ____

>  <TORSDO>
F 16

$$$$
