=
 OpenBabel10232412423D

 45 50  0  0  1  0  0  0  0  0999 V2000
  191.0180  176.1770  139.5150 C   0  0  2  0  0  3  0  0  0  0  0  0
  189.6000  176.7350  139.7400 C   0  0  1  0  0  3  0  0  0  0  0  0
  190.7350  177.0830  140.6910 C   0  0  1  0  0  3  0  0  0  0  0  0
  191.9000  176.9440  138.5400 C   0  0  1  0  0  3  0  0  0  0  0  0
  193.1520  177.1560  139.0750 C   0  0  0  0  0  2  0  0  0  0  0  0
  193.5090  174.9610  137.3210 C   0  0  0  0  0  0  0  0  0  0  0  0
  192.7260  174.3050  136.5860 O   0  0  0  0  0  0  0  0  0  0  0  0
  193.0060  176.0500  138.0880 N   0  0  0  0  0  0  0  0  0  0  0  0
  194.9550  174.5550  137.4110 C   0  0  1  0  0  3  0  0  0  0  0  0
  195.3900  174.0700  138.7630 C   0  0  0  0  0  0  0  0  0  0  0  0
  195.2380  172.7340  139.1260 O   0  0  0  0  0  0  0  0  0  0  0  0
  195.8670  174.8870  139.5910 O   0  0  0  0  0  1  0  0  0  0  0  0
  196.4930  174.4250  135.7080 C   0  0  0  0  0  1  0  0  0  0  0  0
  195.4180  173.7700  136.3340 O   0  0  0  0  0  0  0  0  0  0  0  0
  190.5770  176.2560  141.9480 C   0  0  0  0  0  2  0  0  0  0  0  0
  191.6530  176.6550  142.9420 C   0  0  0  0  0  2  0  0  0  0  0  0
  191.6580  175.8040  145.2860 C   0  0  0  0  0  3  0  0  0  0  0  0
  191.8240  175.5860  143.9750 C   0  0  0  0  0  3  0  0  0  0  0  0
  191.0480  177.0240  147.3450 C   0  0  0  0  0  3  0  0  0  0  0  0
  189.5780  177.8060  144.2470 O   0  0  0  0  0  0  0  0  0  0  0  0
  189.8160  177.2580  147.6770 N   0  0  0  0  0  0  0  0  0  0  0  0
  189.0580  177.5620  146.5450 N   0  0  0  0  0  0  0  0  0  0  0  0
  189.9220  177.5190  145.4260 C   0  0  0  0  0  0  0  0  0  0  0  0
  191.2910  177.1430  145.8590 C   0  0  2  0  0  3  0  0  0  0  0  0
  187.6830  177.9660  146.5760 C   0  0  0  0  0  0  0  0  0  0  0  0
  185.6390  178.4350  145.9980 N   0  0  0  0  0  0  0  0  0  0  0  0
  184.4350  178.6200  145.2410 C   0  0  0  0  0  0  0  0  0  0  0  0
  185.7610  178.7600  147.2770 N   0  0  0  0  0  0  0  0  0  0  0  0
  187.0220  178.4840  147.6720 C   0  0  0  0  0  3  0  0  0  0  0  0
  186.8000  177.9460  145.5210 C   0  0  0  0  0  3  0  0  0  0  0  0
  183.4310  179.1510  145.7890 O   0  0  0  0  0  0  0  0  0  0  0  0
  183.2690  179.0190  143.1130 C   0  0  0  0  0  2  0  0  0  0  0  0
  184.3790  178.2380  143.7900 C   0  0  0  0  0  3  0  0  0  0  0  0
  184.7120  179.4180  142.8940 C   0  0  0  0  0  2  0  0  0  0  0  0
  189.1330  177.8760  138.7910 C   0  0  1  0  0  3  0  0  0  0  0  0
  187.5960  178.6180  136.7780 C   0  0  0  0  0  2  0  0  0  0  0  0
  188.5390  177.6090  137.3910 C   0  0  0  0  0  0  0  0  0  0  0  0
  189.0310  178.4930  136.2680 C   0  0  0  0  0  2  0  0  0  0  0  0
  188.2990  176.1700  136.9610 C   0  0  0  0  0  2  0  0  0  0  0  0
  186.8470  175.7900  137.1430 C   0  0  0  0  0  2  0  0  0  0  0  0
  186.7030  174.2840  137.0780 C   0  0  0  0  0  2  0  0  0  0  0  0
  188.2940  173.5270  136.6450 S   0  0  0  0  0  0  0  0  0  0  0  0
  187.5050  171.9720  136.1290 C   0  0  0  0  0  1  0  0  0  0  0  0
  187.6430  178.3590  140.3660 C   0  0  0  0  0  1  0  0  0  0  0  0
  188.5170  178.9480  139.4480 O   0  0  0  0  0  0  0  0  0  0  0  0
  1  4  1  6  0  0  0
  1  2  1  0  0  0  0
  1  3  1  0  0  0  0
  2 35  1  6  0  0  0
  2  3  1  0  0  0  0
  3 15  1  1  0  0  0
  4  5  1  1  0  0  0
  6  9  1  0  0  0  0
  6  8  1  0  0  0  0
  7  6  2  0  0  0  0
  8  4  1  0  0  0  0
  8  5  1  0  0  0  0
  9 14  1  6  0  0  0
  9 10  1  0  0  0  0
 10 11  2  0  0  0  0
 10 12  1  0  0  0  0
 13 14  1  0  0  0  0
 15 16  1  0  0  0  0
 16 18  1  0  0  0  0
 18 17  2  0  0  0  0
 19 21  2  0  0  0  0
 20 23  2  0  0  0  0
 22 25  1  0  0  0  0
 22 21  1  0  0  0  0
 23 24  1  0  0  0  0
 23 22  1  0  0  0  0
 24 17  1  6  0  0  0
 24 19  1  0  0  0  0
 25 29  1  0  0  0  0
 26 28  1  0  0  0  0
 27 31  2  0  0  0  0
 27 26  1  0  0  0  0
 28 29  2  0  0  0  0
 30 26  1  0  0  0  0
 30 25  2  0  0  0  0
 32 33  1  0  0  0  0
 33 27  1  0  0  0  0
 34 32  1  0  0  0  0
 34 33  1  0  0  0  0
 35 45  1  1  0  0  0
 36 37  1  0  0  0  0
 37 35  1  0  0  0  0
 38 36  1  0  0  0  0
 38 37  1  0  0  0  0
 39 40  1  0  0  0  0
 39 37  1  0  0  0  0
 41 40  1  0  0  0  0
 42 41  1  0  0  0  0
 43 42  1  0  0  0  0
 45 44  1  0  0  0  0
M  END
>  <MODEL>
1

>  <REMARK>
 VINA RESULT:      -7.7      0.000      0.000
  Name = 
  17 active torsions:
  status: ('A' for Active; 'I' for Inactive)
    1  A    between atoms: C_1  and  C_22
    2  A    between atoms: C_1  and  C_29
    3  A    between atoms: C_3  and  C_45
    4  A    between atoms: C_6  and  N_34
    5  A    between atoms: C_7  and  C_13
    6  A    between atoms: C_8  and  C_39
    7  A    between atoms: C_14  and  C_35
    8  A    between atoms: C_15  and  C_19
    9  A    between atoms: C_20  and  C_29
   10  A    between atoms: C_21  and  C_39
   11  A    between atoms: C_24  and  C_36
   12  A    between atoms: C_24  and  C_43
   13  A    between atoms: S_25  and  C_43
   14  A    between atoms: C_31  and  C_35
   15  A    between atoms: C_31  and  C_36
   16  A    between atoms: C_35  and  O_37
   17  A    between atoms: C_39  and  O_42
                            x       y       z     vdW  Elec       q    Type
                         _______ _______ _______ _____ _____    ______ ____

>  <TORSDO>
F 17

$$$$
=
 OpenBabel10232412423D

 45 50  0  0  1  0  0  0  0  0999 V2000
  183.0610  177.9170  139.4350 C   0  0  2  0  0  3  0  0  0  0  0  0
  181.7300  177.3870  138.8690 C   0  0  1  0  0  3  0  0  0  0  0  0
  181.7520  178.5430  139.8560 C   0  0  1  0  0  3  0  0  0  0  0  0
  183.8060  178.9300  138.5770 C   0  0  1  0  0  3  0  0  0  0  0  0
  184.6950  179.6570  139.3390 C   0  0  0  0  0  2  0  0  0  0  0  0
  186.3060  177.7180  138.0480 C   0  0  0  0  0  0  0  0  0  0  0  0
  186.0540  176.7680  137.2630 O   0  0  0  0  0  0  0  0  0  0  0  0
  185.2450  178.5420  138.5170 N   0  0  0  0  0  0  0  0  0  0  0  0
  187.7200  177.9370  138.5140 C   0  0  1  0  0  3  0  0  0  0  0  0
  188.6220  178.5870  137.5060 C   0  0  0  0  0  0  0  0  0  0  0  0
  189.3510  177.8200  136.6010 O   0  0  0  0  0  0  0  0  0  0  0  0
  188.7450  179.8380  137.5000 O   0  0  0  0  0  1  0  0  0  0  0  0
  189.0660  178.0470  140.3740 C   0  0  0  0  0  1  0  0  0  0  0  0
  187.8390  178.4540  139.8210 O   0  0  0  0  0  0  0  0  0  0  0  0
  181.3470  178.0190  141.2160 C   0  0  0  0  0  2  0  0  0  0  0  0
  181.4470  179.1440  142.2310 C   0  0  0  0  0  2  0  0  0  0  0  0
  182.5610  178.6480  144.4070 C   0  0  0  0  0  3  0  0  0  0  0  0
  181.4790  178.5860  143.6190 C   0  0  0  0  0  3  0  0  0  0  0  0
  184.4800  178.4700  142.8630 C   0  0  0  0  0  3  0  0  0  0  0  0
  184.8860  179.5900  146.1720 O   0  0  0  0  0  0  0  0  0  0  0  0
  185.6000  177.9130  143.2070 N   0  0  0  0  0  0  0  0  0  0  0  0
  185.9130  178.2270  144.5300 N   0  0  0  0  0  0  0  0  0  0  0  0
  184.8880  179.0660  145.0260 C   0  0  0  0  0  0  0  0  0  0  0  0
  183.8570  179.2750  143.9790 C   0  0  2  0  0  3  0  0  0  0  0  0
  187.1320  177.8510  145.1840 C   0  0  0  0  0  0  0  0  0  0  0  0
  189.1870  177.2480  145.5690 N   0  0  0  0  0  0  0  0  0  0  0  0
  190.5580  176.8670  145.4020 C   0  0  0  0  0  0  0  0  0  0  0  0
  188.5700  177.2860  146.7420 N   0  0  0  0  0  0  0  0  0  0  0  0
  187.2880  177.6550  146.5420 C   0  0  0  0  0  3  0  0  0  0  0  0
  188.3380  177.5850  144.5780 C   0  0  0  0  0  3  0  0  0  0  0  0
  191.2310  176.5090  146.4070 O   0  0  0  0  0  0  0  0  0  0  0  0
  191.8770  175.5040  143.8360 C   0  0  0  0  0  2  0  0  0  0  0  0
  191.1830  176.8380  144.0380 C   0  0  0  0  0  3  0  0  0  0  0  0
  190.5490  175.7710  143.1620 C   0  0  0  0  0  2  0  0  0  0  0  0
  181.3950  177.7570  137.3950 C   0  0  1  0  0  3  0  0  0  0  0  0
  181.6670  177.3810  134.7970 C   0  0  0  0  0  2  0  0  0  0  0  0
  181.7320  176.8330  136.2040 C   0  0  0  0  0  0  0  0  0  0  0  0
  183.0170  177.1260  135.4640 C   0  0  0  0  0  2  0  0  0  0  0  0
  181.4330  175.3470  136.3230 C   0  0  0  0  0  2  0  0  0  0  0  0
  182.1970  174.5600  135.2820 C   0  0  0  0  0  2  0  0  0  0  0  0
  182.9090  173.3980  135.9420 C   0  0  0  0  0  2  0  0  0  0  0  0
  184.6930  173.7210  136.0110 S   0  0  0  0  0  0  0  0  0  0  0  0
  184.8890  172.7600  137.5420 C   0  0  0  0  0  1  0  0  0  0  0  0
  180.5160  179.7320  136.8850 C   0  0  0  0  0  1  0  0  0  0  0  0
  180.1740  178.4230  137.2370 O   0  0  0  0  0  0  0  0  0  0  0  0
  1  4  1  6  0  0  0
  1  3  1  0  0  0  0
  2 35  1  6  0  0  0
  2  1  1  0  0  0  0
  2  3  1  0  0  0  0
  3 15  1  1  0  0  0
  4  5  1  1  0  0  0
  6  9  1  0  0  0  0
  6  8  1  0  0  0  0
  7  6  2  0  0  0  0
  8  4  1  0  0  0  0
  8  5  1  0  0  0  0
  9 10  1  6  0  0  0
  9 14  1  0  0  0  0
 11 10  2  0  0  0  0
 12 10  1  0  0  0  0
 14 13  1  0  0  0  0
 15 16  1  0  0  0  0
 16 18  1  0  0  0  0
 18 17  2  0  0  0  0
 19 21  2  0  0  0  0
 19 24  1  0  0  0  0
 21 22  1  0  0  0  0
 22 23  1  0  0  0  0
 22 25  1  0  0  0  0
 23 20  2  0  0  0  0
 24 17  1  1  0  0  0
 24 23  1  0  0  0  0
 25 29  1  0  0  0  0
 26 28  1  0  0  0  0
 27 26  1  0  0  0  0
 27 31  2  0  0  0  0
 29 28  2  0  0  0  0
 30 25  2  0  0  0  0
 30 26  1  0  0  0  0
 32 33  1  0  0  0  0
 33 27  1  0  0  0  0
 34 32  1  0  0  0  0
 34 33  1  0  0  0  0
 35 45  1  1  0  0  0
 36 38  1  0  0  0  0
 36 37  1  0  0  0  0
 37 39  1  0  0  0  0
 37 35  1  0  0  0  0
 38 37  1  0  0  0  0
 40 41  1  0  0  0  0
 40 39  1  0  0  0  0
 41 42  1  0  0  0  0
 42 43  1  0  0  0  0
 44 45  1  0  0  0  0
M  END
>  <MODEL>
2

>  <REMARK>
 VINA RESULT:      -7.5      3.707      7.320
  Name = 
  17 active torsions:
  status: ('A' for Active; 'I' for Inactive)
    1  A    between atoms: C_1  and  C_22
    2  A    between atoms: C_1  and  C_29
    3  A    between atoms: C_3  and  C_45
    4  A    between atoms: C_6  and  N_34
    5  A    between atoms: C_7  and  C_13
    6  A    between atoms: C_8  and  C_39
    7  A    between atoms: C_14  and  C_35
    8  A    between atoms: C_15  and  C_19
    9  A    between atoms: C_20  and  C_29
   10  A    between atoms: C_21  and  C_39
   11  A    between atoms: C_24  and  C_36
   12  A    between atoms: C_24  and  C_43
   13  A    between atoms: S_25  and  C_43
   14  A    between atoms: C_31  and  C_35
   15  A    between atoms: C_31  and  C_36
   16  A    between atoms: C_35  and  O_37
   17  A    between atoms: C_39  and  O_42
                            x       y       z     vdW  Elec       q    Type
                         _______ _______ _______ _____ _____    ______ ____

>  <TORSDO>
F 17

$$$$
=
 OpenBabel10232412423D

 45 50  0  0  1  0  0  0  0  0999 V2000
  190.8270  176.9320  138.1380 C   0  0  2  0  0  3  0  0  0  0  0  0
  189.9980  177.7300  139.1630 C   0  0  1  0  0  3  0  0  0  0  0  0
  189.3360  177.0910  137.9530 C   0  0  1  0  0  3  0  0  0  0  0  0
  191.1000  175.4740  138.4760 C   0  0  1  0  0  3  0  0  0  0  0  0
  191.1040  174.6990  137.3370 C   0  0  0  0  0  2  0  0  0  0  0  0
  193.8480  175.1120  137.9080 C   0  0  0  0  0  0  0  0  0  0  0  0
  194.4580  175.7600  138.7970 O   0  0  0  0  0  0  0  0  0  0  0  0
  192.4250  175.0900  137.9070 N   0  0  0  0  0  0  0  0  0  0  0  0
  194.6330  174.4090  136.8330 C   0  0  1  0  0  3  0  0  0  0  0  0
  196.0490  174.8800  136.6780 C   0  0  0  0  0  0  0  0  0  0  0  0
  197.0710  174.3400  137.4550 O   0  0  0  0  0  1  0  0  0  0  0  0
  196.3110  175.7970  135.8580 O   0  0  0  0  0  0  0  0  0  0  0  0
  193.9390  172.6190  135.5690 C   0  0  0  0  0  1  0  0  0  0  0  0
  194.4780  173.0070  136.8080 O   0  0  0  0  0  0  0  0  0  0  0  0
  189.0580  178.1730  136.9320 C   0  0  0  0  0  2  0  0  0  0  0  0
  188.4620  177.5390  135.6880 C   0  0  0  0  0  2  0  0  0  0  0  0
  186.0290  178.0790  135.7970 C   0  0  0  0  0  3  0  0  0  0  0  0
  187.2400  178.2900  135.2620 C   0  0  0  0  0  3  0  0  0  0  0  0
  184.4440  176.3780  136.6320 C   0  0  0  0  0  3  0  0  0  0  0  0
  186.2570  178.4350  138.8350 O   0  0  0  0  0  0  0  0  0  0  0  0
  183.5670  176.6370  137.5520 N   0  0  0  0  0  0  0  0  0  0  0  0
  184.1110  177.4850  138.5170 N   0  0  0  0  0  0  0  0  0  0  0  0
  185.4500  177.7510  138.1490 C   0  0  0  0  0  0  0  0  0  0  0  0
  185.7690  177.0640  136.8730 C   0  0  2  0  0  3  0  0  0  0  0  0
  183.4360  177.8830  139.7180 C   0  0  0  0  0  0  0  0  0  0  0  0
  183.0190  178.5560  141.7440 N   0  0  0  0  0  0  0  0  0  0  0  0
  183.1640  179.0090  143.0970 C   0  0  0  0  0  0  0  0  0  0  0  0
  181.8510  178.2780  141.1820 N   0  0  0  0  0  0  0  0  0  0  0  0
  182.0710  177.8540  139.9200 C   0  0  0  0  0  3  0  0  0  0  0  0
  184.0260  178.3230  140.8800 C   0  0  0  0  0  3  0  0  0  0  0  0
  182.1420  179.1260  143.8270 O   0  0  0  0  0  0  0  0  0  0  0  0
  184.4690  179.1580  145.1760 C   0  0  0  0  0  2  0  0  0  0  0  0
  184.5240  179.2920  143.6660 C   0  0  0  0  0  3  0  0  0  0  0  0
  185.1050  178.0640  144.3460 C   0  0  0  0  0  2  0  0  0  0  0  0
  189.7230  177.0440  140.5320 C   0  0  1  0  0  3  0  0  0  0  0  0
  192.2030  177.3580  141.3780 C   0  0  0  0  0  2  0  0  0  0  0  0
  190.7640  177.0020  141.6720 C   0  0  0  0  0  0  0  0  0  0  0  0
  191.3060  178.3320  142.1410 C   0  0  0  0  0  2  0  0  0  0  0  0
  190.5730  176.0000  142.8000 C   0  0  0  0  0  2  0  0  0  0  0  0
  190.4860  176.7050  144.1360 C   0  0  0  0  0  2  0  0  0  0  0  0
  191.5900  176.2100  145.0450 C   0  0  0  0  0  2  0  0  0  0  0  0
  191.2350  176.6740  146.7630 S   0  0  0  0  0  0  0  0  0  0  0  0
  189.6620  177.4660  146.3070 C   0  0  0  0  0  1  0  0  0  0  0  0
  188.2930  178.5730  141.2740 C   0  0  0  0  0  1  0  0  0  0  0  0
  188.4130  177.2080  140.9990 O   0  0  0  0  0  0  0  0  0  0  0  0
  1  4  1  1  0  0  0
  1  2  1  0  0  0  0
  2 35  1  1  0  0  0
  3 15  1  6  0  0  0
  3  1  1  0  0  0  0
  3  2  1  0  0  0  0
  4  5  1  6  0  0  0
  5  8  1  0  0  0  0
  6  7  2  0  0  0  0
  8  6  1  0  0  0  0
  8  4  1  0  0  0  0
  9 10  1  1  0  0  0
  9  6  1  0  0  0  0
 10 11  1  0  0  0  0
 12 10  2  0  0  0  0
 13 14  1  0  0  0  0
 14  9  1  0  0  0  0
 16 15  1  0  0  0  0
 18 16  1  0  0  0  0
 18 17  2  0  0  0  0
 19 24  1  0  0  0  0
 19 21  2  0  0  0  0
 21 22  1  0  0  0  0
 22 25  1  0  0  0  0
 23 22  1  0  0  0  0
 23 20  2  0  0  0  0
 24 17  1  6  0  0  0
 24 23  1  0  0  0  0
 25 29  1  0  0  0  0
 25 30  2  0  0  0  0
 26 27  1  0  0  0  0
 27 33  1  0  0  0  0
 27 31  2  0  0  0  0
 28 26  1  0  0  0  0
 29 28  2  0  0  0  0
 30 26  1  0  0  0  0
 33 34  1  0  0  0  0
 33 32  1  0  0  0  0
 34 32  1  0  0  0  0
 35 45  1  1  0  0  0
 35 37  1  0  0  0  0
 36 37  1  0  0  0  0
 36 38  1  0  0  0  0
 37 38  1  0  0  0  0
 37 39  1  0  0  0  0
 39 40  1  0  0  0  0
 40 41  1  0  0  0  0
 41 42  1  0  0  0  0
 43 42  1  0  0  0  0
 45 44  1  0  0  0  0
M  END
>  <MODEL>
3

>  <REMARK>
 VINA RESULT:      -7.1      3.188      6.453
  Name = 
  17 active torsions:
  status: ('A' for Active; 'I' for Inactive)
    1  A    between atoms: C_1  and  C_22
    2  A    between atoms: C_1  and  C_29
    3  A    between atoms: C_3  and  C_45
    4  A    between atoms: C_6  and  N_34
    5  A    between atoms: C_7  and  C_13
    6  A    between atoms: C_8  and  C_39
    7  A    between atoms: C_14  and  C_35
    8  A    between atoms: C_15  and  C_19
    9  A    between atoms: C_20  and  C_29
   10  A    between atoms: C_21  and  C_39
   11  A    between atoms: C_24  and  C_36
   12  A    between atoms: C_24  and  C_43
   13  A    between atoms: S_25  and  C_43
   14  A    between atoms: C_31  and  C_35
   15  A    between atoms: C_31  and  C_36
   16  A    between atoms: C_35  and  O_37
   17  A    between atoms: C_39  and  O_42
                            x       y       z     vdW  Elec       q    Type
                         _______ _______ _______ _____ _____    ______ ____

>  <TORSDO>
F 17

$$$$
=
 OpenBabel10232412423D

 45 50  0  0  1  0  0  0  0  0999 V2000
  191.0060  176.1750  138.7940 C   0  0  2  0  0  3  0  0  0  0  0  0
  189.5800  175.9930  138.2400 C   0  0  1  0  0  3  0  0  0  0  0  0
  190.0230  177.3220  138.8310 C   0  0  1  0  0  3  0  0  0  0  0  0
  192.0870  176.5230  137.7800 C   0  0  1  0  0  3  0  0  0  0  0  0
  193.1520  177.1460  138.3940 C   0  0  0  0  0  2  0  0  0  0  0  0
  194.0130  174.4690  138.0560 C   0  0  0  0  0  0  0  0  0  0  0  0
  193.4660  173.4370  137.5890 O   0  0  0  0  0  0  0  0  0  0  0  0
  193.2970  175.6990  138.0680 N   0  0  0  0  0  0  0  0  0  0  0  0
  195.3980  174.3750  138.6370 C   0  0  1  0  0  3  0  0  0  0  0  0
  196.5040  174.3410  137.6230 C   0  0  0  0  0  0  0  0  0  0  0  0
  197.4360  173.3060  137.6180 O   0  0  0  0  0  1  0  0  0  0  0  0
  196.6100  175.2760  136.7900 O   0  0  0  0  0  0  0  0  0  0  0  0
  196.9190  174.9670  140.2550 C   0  0  0  0  0  1  0  0  0  0  0  0
  195.6390  175.2260  139.7350 O   0  0  0  0  0  0  0  0  0  0  0  0
  189.4350  177.4470  140.2200 C   0  0  0  0  0  2  0  0  0  0  0  0
  190.5210  177.1760  141.2440 C   0  0  0  0  0  2  0  0  0  0  0  0
  189.3640  176.3400  143.2900 C   0  0  0  0  0  3  0  0  0  0  0  0
  190.0850  176.0980  142.1860 C   0  0  0  0  0  3  0  0  0  0  0  0
  188.7350  177.7740  145.2000 C   0  0  0  0  0  3  0  0  0  0  0  0
  187.1240  178.0560  142.0860 O   0  0  0  0  0  0  0  0  0  0  0  0
  187.5010  177.9710  145.5460 N   0  0  0  0  0  0  0  0  0  0  0  0
  186.6910  178.0780  144.4150 N   0  0  0  0  0  0  0  0  0  0  0  0
  187.5220  177.9460  143.2770 C   0  0  0  0  0  0  0  0  0  0  0  0
  188.9250  177.7160  143.7020 C   0  0  2  0  0  3  0  0  0  0  0  0
  185.2930  178.3950  144.4470 C   0  0  0  0  0  0  0  0  0  0  0  0
  183.2330  178.7800  143.8620 N   0  0  0  0  0  0  0  0  0  0  0  0
  182.0330  178.9470  143.0970 C   0  0  0  0  0  0  0  0  0  0  0  0
  183.3150  179.0170  145.1640 N   0  0  0  0  0  0  0  0  0  0  0  0
  184.5840  178.7900  145.5640 C   0  0  0  0  0  3  0  0  0  0  0  0
  184.4300  178.3980  143.3750 C   0  0  0  0  0  3  0  0  0  0  0  0
  180.9890  179.3750  143.6610 O   0  0  0  0  0  0  0  0  0  0  0  0
  180.7300  177.9620  141.2580 C   0  0  0  0  0  2  0  0  0  0  0  0
  182.0220  178.6680  141.6220 C   0  0  0  0  0  3  0  0  0  0  0  0
  180.9060  179.4270  140.9240 C   0  0  0  0  0  2  0  0  0  0  0  0
  189.4260  175.9540  136.6920 C   0  0  1  0  0  3  0  0  0  0  0  0
  190.5330  174.1630  135.1020 C   0  0  0  0  0  2  0  0  0  0  0  0
  189.3360  174.6360  135.8930 C   0  0  0  0  0  0  0  0  0  0  0  0
  190.1530  173.4750  136.4110 C   0  0  0  0  0  2  0  0  0  0  0  0
  187.9900  174.2160  135.3230 C   0  0  0  0  0  2  0  0  0  0  0  0
  187.0580  173.7630  136.4260 C   0  0  0  0  0  2  0  0  0  0  0  0
  186.2250  172.5960  135.9400 C   0  0  0  0  0  2  0  0  0  0  0  0
  184.4940  173.1040  135.7520 S   0  0  0  0  0  0  0  0  0  0  0  0
  183.9140  171.8550  136.9400 C   0  0  0  0  0  1  0  0  0  0  0  0
  189.3760  177.6100  135.2120 C   0  0  0  0  0  1  0  0  0  0  0  0
  188.6000  176.9600  136.1760 O   0  0  0  0  0  0  0  0  0  0  0  0
  1  4  1  6  0  0  0
  1  3  1  0  0  0  0
  2 35  1  6  0  0  0
  2  1  1  0  0  0  0
  2  3  1  0  0  0  0
  3 15  1  1  0  0  0
  4  8  1  0  0  0  0
  4  5  1  1  0  0  0
  6  8  1  0  0  0  0
  6  9  1  0  0  0  0
  7  6  2  0  0  0  0
  8  5  1  0  0  0  0
  9 10  1  6  0  0  0
  9 14  1  0  0  0  0
 11 10  1  0  0  0  0
 12 10  2  0  0  0  0
 14 13  1  0  0  0  0
 15 16  1  0  0  0  0
 16 18  1  0  0  0  0
 18 17  2  0  0  0  0
 19 21  2  0  0  0  0
 20 23  2  0  0  0  0
 22 25  1  0  0  0  0
 22 21  1  0  0  0  0
 23 24  1  0  0  0  0
 23 22  1  0  0  0  0
 24 17  1  1  0  0  0
 24 19  1  0  0  0  0
 25 29  1  0  0  0  0
 26 28  1  0  0  0  0
 27 31  2  0  0  0  0
 27 26  1  0  0  0  0
 28 29  2  0  0  0  0
 30 26  1  0  0  0  0
 30 25  2  0  0  0  0
 32 33  1  0  0  0  0
 33 27  1  0  0  0  0
 34 32  1  0  0  0  0
 34 33  1  0  0  0  0
 35 45  1  1  0  0  0
 36 37  1  0  0  0  0
 36 38  1  0  0  0  0
 37 38  1  0  0  0  0
 37 35  1  0  0  0  0
 39 37  1  0  0  0  0
 39 40  1  0  0  0  0
 41 40  1  0  0  0  0
 42 41  1  0  0  0  0
 42 43  1  0  0  0  0
 44 45  1  0  0  0  0
M  END
>  <MODEL>
4

>  <REMARK>
 VINA RESULT:      -7.0      2.093      3.116
  Name = 
  17 active torsions:
  status: ('A' for Active; 'I' for Inactive)
    1  A    between atoms: C_1  and  C_22
    2  A    between atoms: C_1  and  C_29
    3  A    between atoms: C_3  and  C_45
    4  A    between atoms: C_6  and  N_34
    5  A    between atoms: C_7  and  C_13
    6  A    between atoms: C_8  and  C_39
    7  A    between atoms: C_14  and  C_35
    8  A    between atoms: C_15  and  C_19
    9  A    between atoms: C_20  and  C_29
   10  A    between atoms: C_21  and  C_39
   11  A    between atoms: C_24  and  C_36
   12  A    between atoms: C_24  and  C_43
   13  A    between atoms: S_25  and  C_43
   14  A    between atoms: C_31  and  C_35
   15  A    between atoms: C_31  and  C_36
   16  A    between atoms: C_35  and  O_37
   17  A    between atoms: C_39  and  O_42
                            x       y       z     vdW  Elec       q    Type
                         _______ _______ _______ _____ _____    ______ ____

>  <TORSDO>
F 17

$$$$
=
 OpenBabel10232412423D

 45 50  0  0  1  0  0  0  0  0999 V2000
  190.8990  176.0690  138.1950 C   0  0  2  0  0  3  0  0  0  0  0  0
  189.4090  175.9990  137.8120 C   0  0  1  0  0  3  0  0  0  0  0  0
  190.0450  177.3140  138.2350 C   0  0  1  0  0  3  0  0  0  0  0  0
  191.8870  176.2190  137.0480 C   0  0  1  0  0  3  0  0  0  0  0  0
  193.1180  176.6290  137.5110 C   0  0  0  0  0  2  0  0  0  0  0  0
  193.4200  173.8420  137.1070 C   0  0  0  0  0  0  0  0  0  0  0  0
  192.6360  172.9330  136.7290 O   0  0  0  0  0  0  0  0  0  0  0  0
  192.9510  175.1830  137.1910 N   0  0  0  0  0  0  0  0  0  0  0  0
  194.8260  173.4870  137.5080 C   0  0  1  0  0  3  0  0  0  0  0  0
  195.6830  174.6550  137.9000 C   0  0  0  0  0  0  0  0  0  0  0  0
  196.4090  175.3620  136.9450 O   0  0  0  0  0  0  0  0  0  0  0  0
  195.7710  174.9800  139.1120 O   0  0  0  0  0  1  0  0  0  0  0  0
  195.7460  171.3960  137.7600 C   0  0  0  0  0  1  0  0  0  0  0  0
  194.9340  172.3720  138.3640 O   0  0  0  0  0  0  0  0  0  0  0  0
  189.6330  177.6080  139.6600 C   0  0  0  0  0  2  0  0  0  0  0  0
  190.4580  176.7500  140.6020 C   0  0  0  0  0  2  0  0  0  0  0  0
  192.0920  177.3900  142.3740 C   0  0  0  0  0  3  0  0  0  0  0  0
  191.6210  177.5320  141.1280 C   0  0  0  0  0  3  0  0  0  0  0  0
  190.4010  175.6260  142.7350 C   0  0  0  0  0  3  0  0  0  0  0  0
  191.1450  177.9910  145.2290 O   0  0  0  0  0  0  0  0  0  0  0  0
  189.2300  175.8770  143.2350 N   0  0  0  0  0  0  0  0  0  0  0  0
  189.3270  176.8390  144.2410 N   0  0  0  0  0  0  0  0  0  0  0  0
  190.6910  177.1910  144.3670 C   0  0  0  0  0  0  0  0  0  0  0  0
  191.5010  176.4400  143.3760 C   0  0  2  0  0  3  0  0  0  0  0  0
  188.2320  177.2660  145.0610 C   0  0  0  0  0  0  0  0  0  0  0  0
  186.2740  177.9370  145.7330 N   0  0  0  0  0  0  0  0  0  0  0  0
  184.9030  178.3540  145.7640 C   0  0  0  0  0  0  0  0  0  0  0  0
  187.0600  177.9110  146.8000 N   0  0  0  0  0  0  0  0  0  0  0  0
  188.2880  177.5000  146.4200 C   0  0  0  0  0  3  0  0  0  0  0  0
  186.9550  177.5520  144.6360 C   0  0  0  0  0  3  0  0  0  0  0  0
  184.3990  178.7560  146.8480 O   0  0  0  0  0  0  0  0  0  0  0  0
  182.9420  179.3570  144.6700 C   0  0  0  0  0  2  0  0  0  0  0  0
  184.0800  178.3660  144.5090 C   0  0  0  0  0  3  0  0  0  0  0  0
  184.1410  179.7190  143.8210 C   0  0  0  0  0  2  0  0  0  0  0  0
  189.0770  175.8580  136.2990 C   0  0  1  0  0  3  0  0  0  0  0  0
  189.5800  173.7360  134.8110 C   0  0  0  0  0  2  0  0  0  0  0  0
  188.6160  174.5280  135.6640 C   0  0  0  0  0  0  0  0  0  0  0  0
  189.2290  173.2640  136.2210 C   0  0  0  0  0  2  0  0  0  0  0  0
  187.1510  174.3680  135.2850 C   0  0  0  0  0  2  0  0  0  0  0  0
  186.2790  174.3210  136.5200 C   0  0  0  0  0  2  0  0  0  0  0  0
  184.9150  174.8940  136.2010 C   0  0  0  0  0  2  0  0  0  0  0  0
  184.6610  176.4400  137.1170 S   0  0  0  0  0  0  0  0  0  0  0  0
  183.3970  175.6910  138.1890 C   0  0  0  0  0  1  0  0  0  0  0  0
  189.2250  177.3480  134.6590 C   0  0  0  0  0  1  0  0  0  0  0  0
  188.4350  176.9740  135.7490 O   0  0  0  0  0  0  0  0  0  0  0  0
  1  4  1  6  0  0  0
  1  3  1  0  0  0  0
  2 35  1  6  0  0  0
  2  1  1  0  0  0  0
  2  3  1  0  0  0  0
  3 15  1  1  0  0  0
  4  8  1  0  0  0  0
  4  5  1  1  0  0  0
  6  8  1  0  0  0  0
  7  6  2  0  0  0  0
  8  5  1  0  0  0  0
  9  6  1  1  0  0  0
  9 10  1  0  0  0  0
  9 14  1  0  0  0  0
 10 12  1  0  0  0  0
 11 10  2  0  0  0  0
 13 14  1  0  0  0  0
 15 16  1  0  0  0  0
 16 18  1  0  0  0  0
 18 17  2  0  0  0  0
 19 21  2  0  0  0  0
 19 24  1  0  0  0  0
 21 22  1  0  0  0  0
 22 23  1  0  0  0  0
 22 25  1  0  0  0  0
 23 20  2  0  0  0  0
 24 17  1  6  0  0  0
 24 23  1  0  0  0  0
 25 29  1  0  0  0  0
 26 27  1  0  0  0  0
 26 28  1  0  0  0  0
 27 31  2  0  0  0  0
 29 28  2  0  0  0  0
 30 25  2  0  0  0  0
 30 26  1  0  0  0  0
 33 32  1  0  0  0  0
 33 27  1  0  0  0  0
 34 33  1  0  0  0  0
 34 32  1  0  0  0  0
 35 45  1  1  0  0  0
 36 37  1  0  0  0  0
 36 38  1  0  0  0  0
 37 38  1  0  0  0  0
 37 35  1  0  0  0  0
 39 37  1  0  0  0  0
 39 40  1  0  0  0  0
 41 40  1  0  0  0  0
 41 42  1  0  0  0  0
 42 43  1  0  0  0  0
 44 45  1  0  0  0  0
M  END
>  <MODEL>
5

>  <REMARK>
 VINA RESULT:      -6.8      1.881      2.929
  Name = 
  17 active torsions:
  status: ('A' for Active; 'I' for Inactive)
    1  A    between atoms: C_1  and  C_22
    2  A    between atoms: C_1  and  C_29
    3  A    between atoms: C_3  and  C_45
    4  A    between atoms: C_6  and  N_34
    5  A    between atoms: C_7  and  C_13
    6  A    between atoms: C_8  and  C_39
    7  A    between atoms: C_14  and  C_35
    8  A    between atoms: C_15  and  C_19
    9  A    between atoms: C_20  and  C_29
   10  A    between atoms: C_21  and  C_39
   11  A    between atoms: C_24  and  C_36
   12  A    between atoms: C_24  and  C_43
   13  A    between atoms: S_25  and  C_43
   14  A    between atoms: C_31  and  C_35
   15  A    between atoms: C_31  and  C_36
   16  A    between atoms: C_35  and  O_37
   17  A    between atoms: C_39  and  O_42
                            x       y       z     vdW  Elec       q    Type
                         _______ _______ _______ _____ _____    ______ ____

>  <TORSDO>
F 17

$$$$
=
 OpenBabel10232412423D

 45 50  0  0  1  0  0  0  0  0999 V2000
  188.4130  178.8910  141.1070 C   0  0  2  0  0  3  0  0  0  0  0  0
  188.4190  178.6220  142.6240 C   0  0  1  0  0  3  0  0  0  0  0  0
  187.3220  178.0570  141.7360 C   0  0  1  0  0  3  0  0  0  0  0  0
  189.2690  177.9680  140.2520 C   0  0  1  0  0  3  0  0  0  0  0  0
  188.5500  176.8610  139.8550 C   0  0  0  0  0  2  0  0  0  0  0  0
  188.5180  178.5600  137.5890 C   0  0  0  0  0  0  0  0  0  0  0  0
  188.9760  179.7100  137.3640 O   0  0  0  0  0  0  0  0  0  0  0  0
  188.7250  177.9590  138.8630 N   0  0  0  0  0  0  0  0  0  0  0  0
  187.7200  177.8590  136.5230 C   0  0  1  0  0  3  0  0  0  0  0  0
  188.5350  177.0540  135.5540 C   0  0  0  0  0  0  0  0  0  0  0  0
  189.7330  177.5500  135.0440 O   0  0  0  0  0  0  0  0  0  0  0  0
  188.1150  175.9330  135.1730 O   0  0  0  0  0  1  0  0  0  0  0  0
  185.4620  177.5900  136.1870 C   0  0  0  0  0  1  0  0  0  0  0  0
  186.5560  177.2110  136.9860 O   0  0  0  0  0  0  0  0  0  0  0  0
  186.0770  178.8970  141.9220 C   0  0  0  0  0  2  0  0  0  0  0  0
  185.0770  178.5460  140.8340 C   0  0  0  0  0  2  0  0  0  0  0  0
  182.6220  178.1270  140.6940 C   0  0  0  0  0  3  0  0  0  0  0  0
  183.7250  178.3100  141.4320 C   0  0  0  0  0  3  0  0  0  0  0  0
  181.2480  178.5080  138.6770 C   0  0  0  0  0  3  0  0  0  0  0  0
  183.7220  176.0100  138.7650 O   0  0  0  0  0  0  0  0  0  0  0  0
  180.6830  177.5380  138.0260 N   0  0  0  0  0  0  0  0  0  0  0  0
  181.5250  176.4260  137.9850 N   0  0  0  0  0  0  0  0  0  0  0  0
  182.7170  176.7650  138.6660 C   0  0  0  0  0  0  0  0  0  0  0  0
  182.6220  178.1500  139.1910 C   0  0  2  0  0  3  0  0  0  0  0  0
  181.2420  175.2230  137.2590 C   0  0  0  0  0  0  0  0  0  0  0  0
  181.3430  173.2000  136.4650 N   0  0  0  0  0  0  0  0  0  0  0  0
  181.7480  171.8520  136.1900 C   0  0  0  0  0  0  0  0  0  0  0  0
  180.3260  173.8000  135.8620 N   0  0  0  0  0  0  0  0  0  0  0  0
  180.2340  175.0630  136.3290 C   0  0  0  0  0  3  0  0  0  0  0  0
  181.9410  174.0390  137.3330 C   0  0  0  0  0  3  0  0  0  0  0  0
  181.1430  171.1890  135.3040 O   0  0  0  0  0  0  0  0  0  0  0  0
  183.3640  169.9990  136.1660 C   0  0  0  0  0  2  0  0  0  0  0  0
  182.9180  171.2450  136.9080 C   0  0  0  0  0  3  0  0  0  0  0  0
  184.1700  171.2740  136.0470 C   0  0  0  0  0  2  0  0  0  0  0  0
  189.4630  177.5970  143.1530 C   0  0  1  0  0  3  0  0  0  0  0  0
  191.9770  178.2600  143.6090 C   0  0  0  0  0  2  0  0  0  0  0  0
  190.5890  177.9810  144.1370 C   0  0  0  0  0  0  0  0  0  0  0  0
  191.0830  179.4080  144.0750 C   0  0  0  0  0  2  0  0  0  0  0  0
  190.5460  177.4220  145.5510 C   0  0  0  0  0  2  0  0  0  0  0  0
  189.3540  177.9650  146.3080 C   0  0  0  0  0  2  0  0  0  0  0  0
  189.4150  177.5060  147.7490 C   0  0  0  0  0  2  0  0  0  0  0  0
  187.8280  177.8260  148.5690 S   0  0  0  0  0  0  0  0  0  0  0  0
  186.9650  178.0580  146.9850 C   0  0  0  0  0  1  0  0  0  0  0  0
  189.9320  175.4320  142.9860 C   0  0  0  0  0  1  0  0  0  0  0  0
  188.9370  176.3230  143.3990 O   0  0  0  0  0  0  0  0  0  0  0  0
  1  4  1  6  0  0  0
  1  3  1  0  0  0  0
  1  2  1  0  0  0  0
  2 35  1  6  0  0  0
  3 15  1  1  0  0  0
  3  2  1  0  0  0  0
  4  5  1  1  0  0  0
  6  8  1  0  0  0  0
  7  6  2  0  0  0  0
  8  5  1  0  0  0  0
  8  4  1  0  0  0  0
  9 10  1  1  0  0  0
  9 14  1  0  0  0  0
  9  6  1  0  0  0  0
 11 10  2  0  0  0  0
 12 10  1  0  0  0  0
 13 14  1  0  0  0  0
 16 18  1  0  0  0  0
 16 15  1  0  0  0  0
 17 18  2  0  0  0  0
 19 24  1  0  0  0  0
 21 19  2  0  0  0  0
 22 21  1  0  0  0  0
 22 23  1  0  0  0  0
 23 20  2  0  0  0  0
 23 24  1  0  0  0  0
 24 17  1  1  0  0  0
 25 30  2  0  0  0  0
 25 22  1  0  0  0  0
 26 30  1  0  0  0  0
 27 26  1  0  0  0  0
 27 33  1  0  0  0  0
 28 29  2  0  0  0  0
 28 26  1  0  0  0  0
 29 25  1  0  0  0  0
 31 27  2  0  0  0  0
 32 33  1  0  0  0  0
 34 32  1  0  0  0  0
 34 33  1  0  0  0  0
 35 45  1  1  0  0  0
 35 37  1  0  0  0  0
 36 38  1  0  0  0  0
 36 37  1  0  0  0  0
 37 39  1  0  0  0  0
 38 37  1  0  0  0  0
 39 40  1  0  0  0  0
 40 41  1  0  0  0  0
 41 42  1  0  0  0  0
 43 42  1  0  0  0  0
 44 45  1  0  0  0  0
M  END
>  <MODEL>
6

>  <REMARK>
 VINA RESULT:      -6.4      5.140      9.417
  Name = 
  17 active torsions:
  status: ('A' for Active; 'I' for Inactive)
    1  A    between atoms: C_1  and  C_22
    2  A    between atoms: C_1  and  C_29
    3  A    between atoms: C_3  and  C_45
    4  A    between atoms: C_6  and  N_34
    5  A    between atoms: C_7  and  C_13
    6  A    between atoms: C_8  and  C_39
    7  A    between atoms: C_14  and  C_35
    8  A    between atoms: C_15  and  C_19
    9  A    between atoms: C_20  and  C_29
   10  A    between atoms: C_21  and  C_39
   11  A    between atoms: C_24  and  C_36
   12  A    between atoms: C_24  and  C_43
   13  A    between atoms: S_25  and  C_43
   14  A    between atoms: C_31  and  C_35
   15  A    between atoms: C_31  and  C_36
   16  A    between atoms: C_35  and  O_37
   17  A    between atoms: C_39  and  O_42
                            x       y       z     vdW  Elec       q    Type
                         _______ _______ _______ _____ _____    ______ ____

>  <TORSDO>
F 17

$$$$
=
 OpenBabel10232412423D

 45 50  0  0  1  0  0  0  0  0999 V2000
  183.9080  176.0170  138.2500 C   0  0  2  0  0  3  0  0  0  0  0  0
  182.3840  175.7930  138.2250 C   0  0  1  0  0  3  0  0  0  0  0  0
  182.9690  177.1280  138.6570 C   0  0  1  0  0  3  0  0  0  0  0  0
  184.5560  176.4150  136.9320 C   0  0  1  0  0  3  0  0  0  0  0  0
  185.1190  177.6690  137.0230 C   0  0  0  0  0  2  0  0  0  0  0  0
  187.3120  175.8990  137.3070 C   0  0  0  0  0  0  0  0  0  0  0  0
  187.4130  174.6460  137.3390 O   0  0  0  0  0  0  0  0  0  0  0  0
  186.0320  176.4960  137.1290 N   0  0  0  0  0  0  0  0  0  0  0  0
  188.5410  176.7460  137.5030 C   0  0  1  0  0  3  0  0  0  0  0  0
  188.3270  177.9850  138.3220 C   0  0  0  0  0  0  0  0  0  0  0  0
  187.9710  177.9010  139.6650 O   0  0  0  0  0  1  0  0  0  0  0  0
  188.4410  179.1130  137.7790 O   0  0  0  0  0  0  0  0  0  0  0  0
  190.8020  176.9110  137.8820 C   0  0  0  0  0  1  0  0  0  0  0  0
  189.7100  176.0270  137.8270 O   0  0  0  0  0  0  0  0  0  0  0  0
  182.9000  177.2150  140.1660 C   0  0  0  0  0  2  0  0  0  0  0  0
  182.8620  178.6760  140.5770 C   0  0  0  0  0  2  0  0  0  0  0  0
  185.1300  179.0070  141.5610 C   0  0  0  0  0  3  0  0  0  0  0  0
  184.2460  179.2460  140.5830 C   0  0  0  0  0  3  0  0  0  0  0  0
  184.2700  179.0010  143.8770 C   0  0  0  0  0  3  0  0  0  0  0  0
  186.9240  176.9090  142.9000 O   0  0  0  0  0  0  0  0  0  0  0  0
  185.0540  179.0490  144.9100 N   0  0  0  0  0  0  0  0  0  0  0  0
  186.1990  178.2850  144.6870 N   0  0  0  0  0  0  0  0  0  0  0  0
  186.0890  177.7110  143.3990 C   0  0  0  0  0  0  0  0  0  0  0  0
  184.8250  178.1510  142.7580 C   0  0  2  0  0  3  0  0  0  0  0  0
  187.2180  178.0480  145.6670 C   0  0  0  0  0  0  0  0  0  0  0  0
  189.1170  177.5900  146.6250 N   0  0  0  0  0  0  0  0  0  0  0  0
  190.4910  177.2510  146.8560 C   0  0  0  0  0  0  0  0  0  0  0  0
  188.2260  177.7480  147.5930 N   0  0  0  0  0  0  0  0  0  0  0  0
  187.0300  178.0320  147.0350 C   0  0  0  0  0  3  0  0  0  0  0  0
  188.5410  177.7610  145.4190 C   0  0  0  0  0  3  0  0  0  0  0  0
  190.8940  177.0530  148.0340 O   0  0  0  0  0  0  0  0  0  0  0  0
  192.1950  175.7740  145.8740 C   0  0  0  0  0  2  0  0  0  0  0  0
  191.4390  177.0790  145.7040 C   0  0  0  0  0  3  0  0  0  0  0  0
  191.0720  175.8670  144.8640 C   0  0  0  0  0  2  0  0  0  0  0  0
  181.6990  175.7700  136.8280 C   0  0  1  0  0  3  0  0  0  0  0  0
  182.0660  177.6470  135.0100 C   0  0  0  0  0  2  0  0  0  0  0  0
  181.2190  177.0500  136.1090 C   0  0  0  0  0  0  0  0  0  0  0  0
  180.7810  176.8940  134.6720 C   0  0  0  0  0  2  0  0  0  0  0  0
  180.3820  178.0540  136.8870 C   0  0  0  0  0  2  0  0  0  0  0  0
  181.1750  179.3120  137.1650 C   0  0  0  0  0  2  0  0  0  0  0  0
  180.2470  180.3960  137.6710 C   0  0  0  0  0  2  0  0  0  0  0  0
  181.2130  181.8180  138.2540 S   0  0  0  0  0  0  0  0  0  0  0  0
  180.6570  182.8630  136.8740 C   0  0  0  0  0  1  0  0  0  0  0  0
  181.7990  173.5850  136.4400 C   0  0  0  0  0  1  0  0  0  0  0  0
  182.2310  174.8200  135.9480 O   0  0  0  0  0  0  0  0  0  0  0  0
  1  4  1  6  0  0  0
  1  3  1  0  0  0  0
  2 35  1  6  0  0  0
  2  1  1  0  0  0  0
  2  3  1  0  0  0  0
  3 15  1  1  0  0  0
  4  5  1  1  0  0  0
  4  8  1  0  0  0  0
  5  8  1  0  0  0  0
  6  7  2  0  0  0  0
  8  6  1  0  0  0  0
  9  6  1  1  0  0  0
  9 14  1  0  0  0  0
  9 10  1  0  0  0  0
 10 11  1  0  0  0  0
 12 10  2  0  0  0  0
 14 13  1  0  0  0  0
 15 16  1  0  0  0  0
 16 18  1  0  0  0  0
 18 17  2  0  0  0  0
 19 21  2  0  0  0  0
 20 23  2  0  0  0  0
 22 21  1  0  0  0  0
 22 25  1  0  0  0  0
 23 22  1  0  0  0  0
 24 17  1  6  0  0  0
 24 23  1  0  0  0  0
 24 19  1  0  0  0  0
 25 29  1  0  0  0  0
 26 27  1  0  0  0  0
 26 28  1  0  0  0  0
 27 31  2  0  0  0  0
 29 28  2  0  0  0  0
 30 25  2  0  0  0  0
 30 26  1  0  0  0  0
 33 32  1  0  0  0  0
 33 27  1  0  0  0  0
 34 33  1  0  0  0  0
 34 32  1  0  0  0  0
 35 45  1  6  0  0  0
 36 37  1  0  0  0  0
 37 35  1  0  0  0  0
 37 39  1  0  0  0  0
 38 36  1  0  0  0  0
 38 37  1  0  0  0  0
 39 40  1  0  0  0  0
 40 41  1  0  0  0  0
 41 42  1  0  0  0  0
 43 42  1  0  0  0  0
 45 44  1  0  0  0  0
M  END
>  <MODEL>
7

>  <REMARK>
 VINA RESULT:      -6.1      4.121      7.365
  Name = 
  17 active torsions:
  status: ('A' for Active; 'I' for Inactive)
    1  A    between atoms: C_1  and  C_22
    2  A    between atoms: C_1  and  C_29
    3  A    between atoms: C_3  and  C_45
    4  A    between atoms: C_6  and  N_34
    5  A    between atoms: C_7  and  C_13
    6  A    between atoms: C_8  and  C_39
    7  A    between atoms: C_14  and  C_35
    8  A    between atoms: C_15  and  C_19
    9  A    between atoms: C_20  and  C_29
   10  A    between atoms: C_21  and  C_39
   11  A    between atoms: C_24  and  C_36
   12  A    between atoms: C_24  and  C_43
   13  A    between atoms: S_25  and  C_43
   14  A    between atoms: C_31  and  C_35
   15  A    between atoms: C_31  and  C_36
   16  A    between atoms: C_35  and  O_37
   17  A    between atoms: C_39  and  O_42
                            x       y       z     vdW  Elec       q    Type
                         _______ _______ _______ _____ _____    ______ ____

>  <TORSDO>
F 17

$$$$
=
 OpenBabel10232412423D

 45 50  0  0  1  0  0  0  0  0999 V2000
  183.8320  177.3620  136.8420 C   0  0  2  0  0  3  0  0  0  0  0  0
  183.8370  177.0920  135.3260 C   0  0  1  0  0  3  0  0  0  0  0  0
  184.7980  176.3630  136.2500 C   0  0  1  0  0  3  0  0  0  0  0  0
  182.8110  176.5890  137.6640 C   0  0  1  0  0  3  0  0  0  0  0  0
  183.4060  176.0070  138.7620 C   0  0  0  0  0  2  0  0  0  0  0  0
  182.1520  178.3250  139.7990 C   0  0  0  0  0  0  0  0  0  0  0  0
  181.4910  179.2580  139.2750 O   0  0  0  0  0  0  0  0  0  0  0  0
  182.6430  177.2680  138.9820 N   0  0  0  0  0  0  0  0  0  0  0  0
  182.4500  178.3660  141.2730 C   0  0  1  0  0  3  0  0  0  0  0  0
  183.8760  178.6830  141.6190 C   0  0  0  0  0  0  0  0  0  0  0  0
  184.4920  178.0940  142.7200 O   0  0  0  0  0  1  0  0  0  0  0  0
  184.5110  179.5160  140.9240 O   0  0  0  0  0  0  0  0  0  0  0  0
  180.2840  178.3390  142.0420 C   0  0  0  0  0  1  0  0  0  0  0  0
  181.4950  179.0530  142.0520 O   0  0  0  0  0  0  0  0  0  0  0  0
  186.1670  176.9930  136.1100 C   0  0  0  0  0  2  0  0  0  0  0  0
  186.3300  178.0620  137.1770 C   0  0  0  0  0  2  0  0  0  0  0  0
  188.5470  178.2130  138.3100 C   0  0  0  0  0  3  0  0  0  0  0  0
  187.7610  178.4920  137.2610 C   0  0  0  0  0  3  0  0  0  0  0  0
  187.3510  178.3730  140.4660 C   0  0  0  0  0  3  0  0  0  0  0  0
  190.1390  176.2660  140.0670 O   0  0  0  0  0  0  0  0  0  0  0  0
  187.9710  178.5190  141.5960 N   0  0  0  0  0  0  0  0  0  0  0  0
  189.1440  177.7640  141.6080 N   0  0  0  0  0  0  0  0  0  0  0  0
  189.2320  177.0880  140.3690 C   0  0  0  0  0  0  0  0  0  0  0  0
  188.0740  177.4480  139.5140 C   0  0  2  0  0  3  0  0  0  0  0  0
  190.0070  177.6280  142.7450 C   0  0  0  0  0  0  0  0  0  0  0  0
  190.7550  177.3170  144.7640 N   0  0  0  0  0  0  0  0  0  0  0  0
  190.8370  177.0580  146.1720 C   0  0  0  0  0  0  0  0  0  0  0  0
  191.7980  177.6360  144.0120 N   0  0  0  0  0  0  0  0  0  0  0  0
  191.3720  177.8400  142.7480 C   0  0  0  0  0  3  0  0  0  0  0  0
  189.6270  177.3040  144.0270 C   0  0  0  0  0  3  0  0  0  0  0  0
  191.9470  177.1660  146.7600 O   0  0  0  0  0  0  0  0  0  0  0  0
  189.4950  177.6500  148.1460 C   0  0  0  0  0  2  0  0  0  0  0  0
  189.6060  176.7120  146.9580 C   0  0  0  0  0  3  0  0  0  0  0  0
  188.6020  177.8520  146.9410 C   0  0  0  0  0  2  0  0  0  0  0  0
  182.6620  176.2440  134.7580 C   0  0  1  0  0  3  0  0  0  0  0  0
  181.8220  174.0350  135.9320 C   0  0  0  0  0  2  0  0  0  0  0  0
  182.6260  174.7020  134.8410 C   0  0  0  0  0  0  0  0  0  0  0  0
  181.3160  174.0370  134.4910 C   0  0  0  0  0  2  0  0  0  0  0  0
  183.8420  173.9170  134.3750 C   0  0  0  0  0  2  0  0  0  0  0  0
  183.9650  172.6150  135.1360 C   0  0  0  0  0  2  0  0  0  0  0  0
  185.2090  172.6450  135.9980 C   0  0  0  0  0  2  0  0  0  0  0  0
  186.5600  171.7620  135.1690 S   0  0  0  0  0  0  0  0  0  0  0  0
  185.4820  170.3660  134.7250 C   0  0  0  0  0  1  0  0  0  0  0  0
  181.5010  178.0920  134.3460 C   0  0  0  0  0  1  0  0  0  0  0  0
  181.4010  176.8270  134.9320 O   0  0  0  0  0  0  0  0  0  0  0  0
  1  4  1  1  0  0  0
  2 35  1  1  0  0  0
  2  3  1  0  0  0  0
  2  1  1  0  0  0  0
  3 15  1  6  0  0  0
  3  1  1  0  0  0  0
  4  5  1  1  0  0  0
  4  8  1  0  0  0  0
  5  8  1  0  0  0  0
  7  6  2  0  0  0  0
  8  6  1  0  0  0  0
  9  6  1  6  0  0  0
  9 10  1  0  0  0  0
  9 14  1  0  0  0  0
 10 11  1  0  0  0  0
 12 10  2  0  0  0  0
 13 14  1  0  0  0  0
 15 16  1  0  0  0  0
 16 18  1  0  0  0  0
 18 17  2  0  0  0  0
 19 21  2  0  0  0  0
 20 23  2  0  0  0  0
 21 22  1  0  0  0  0
 22 25  1  0  0  0  0
 23 22  1  0  0  0  0
 24 17  1  6  0  0  0
 24 23  1  0  0  0  0
 24 19  1  0  0  0  0
 25 29  1  0  0  0  0
 25 30  2  0  0  0  0
 26 27  1  0  0  0  0
 27 31  2  0  0  0  0
 27 33  1  0  0  0  0
 28 26  1  0  0  0  0
 29 28  2  0  0  0  0
 30 26  1  0  0  0  0
 33 32  1  0  0  0  0
 34 33  1  0  0  0  0
 34 32  1  0  0  0  0
 35 37  1  0  0  0  0
 35 45  1  1  0  0  0
 37 36  1  0  0  0  0
 38 37  1  0  0  0  0
 38 36  1  0  0  0  0
 39 37  1  0  0  0  0
 39 40  1  0  0  0  0
 40 41  1  0  0  0  0
 42 41  1  0  0  0  0
 43 42  1  0  0  0  0
 44 45  1  0  0  0  0
M  END
>  <MODEL>
8

>  <REMARK>
 VINA RESULT:      -6.0      3.760      8.639
  Name = 
  17 active torsions:
  status: ('A' for Active; 'I' for Inactive)
    1  A    between atoms: C_1  and  C_22
    2  A    between atoms: C_1  and  C_29
    3  A    between atoms: C_3  and  C_45
    4  A    between atoms: C_6  and  N_34
    5  A    between atoms: C_7  and  C_13
    6  A    between atoms: C_8  and  C_39
    7  A    between atoms: C_14  and  C_35
    8  A    between atoms: C_15  and  C_19
    9  A    between atoms: C_20  and  C_29
   10  A    between atoms: C_21  and  C_39
   11  A    between atoms: C_24  and  C_36
   12  A    between atoms: C_24  and  C_43
   13  A    between atoms: S_25  and  C_43
   14  A    between atoms: C_31  and  C_35
   15  A    between atoms: C_31  and  C_36
   16  A    between atoms: C_35  and  O_37
   17  A    between atoms: C_39  and  O_42
                            x       y       z     vdW  Elec       q    Type
                         _______ _______ _______ _____ _____    ______ ____

>  <TORSDO>
F 17

$$$$
=
 OpenBabel10232412423D

 45 50  0  0  1  0  0  0  0  0999 V2000
  190.1890  174.3680  134.8630 C   0  0  2  0  0  3  0  0  0  0  0  0
  191.5570  175.0280  134.6090 C   0  0  1  0  0  3  0  0  0  0  0  0
  190.5520  175.6590  135.5600 C   0  0  1  0  0  3  0  0  0  0  0  0
  190.1520  173.2680  135.9130 C   0  0  1  0  0  3  0  0  0  0  0  0
  189.3660  173.6370  136.9830 C   0  0  0  0  0  2  0  0  0  0  0  0
  187.7030  171.9260  135.4570 C   0  0  0  0  0  0  0  0  0  0  0  0
  187.8580  171.3150  134.3680 O   0  0  0  0  0  0  0  0  0  0  0  0
  188.7690  172.7130  135.9780 N   0  0  0  0  0  0  0  0  0  0  0  0
  186.3780  171.8510  136.1660 C   0  0  1  0  0  3  0  0  0  0  0  0
  185.9590  173.1180  136.8520 C   0  0  0  0  0  0  0  0  0  0  0  0
  185.7080  174.2770  136.1220 O   0  0  0  0  0  0  0  0  0  0  0  0
  185.8640  173.1410  138.1060 O   0  0  0  0  0  1  0  0  0  0  0  0
  184.1730  171.2030  136.2030 C   0  0  0  0  0  1  0  0  0  0  0  0
  185.3520  171.2160  135.4360 O   0  0  0  0  0  0  0  0  0  0  0  0
  189.8930  176.8250  134.8550 C   0  0  0  0  0  2  0  0  0  0  0  0
  189.2860  177.7510  135.8930 C   0  0  0  0  0  2  0  0  0  0  0  0
  188.1610  177.0770  138.0150 C   0  0  0  0  0  3  0  0  0  0  0  0
  188.2360  177.0290  136.6780 C   0  0  0  0  0  3  0  0  0  0  0  0
  190.3180  176.9910  139.2180 C   0  0  0  0  0  3  0  0  0  0  0  0
  187.5640  178.7510  140.5160 O   0  0  0  0  0  0  0  0  0  0  0  0
  190.3970  176.7300  140.4860 N   0  0  0  0  0  0  0  0  0  0  0  0
  189.3440  177.3340  141.1730 N   0  0  0  0  0  0  0  0  0  0  0  0
  188.5620  178.0380  140.2270 C   0  0  0  0  0  0  0  0  0  0  0  0
  189.1260  177.8520  138.8670 C   0  0  2  0  0  3  0  0  0  0  0  0
  189.1960  177.3230  142.5990 C   0  0  0  0  0  0  0  0  0  0  0  0
  188.3580  177.4230  144.6040 N   0  0  0  0  0  0  0  0  0  0  0  0
  187.4520  177.5550  145.7080 C   0  0  0  0  0  0  0  0  0  0  0  0
  189.6670  177.2670  144.7410 N   0  0  0  0  0  0  0  0  0  0  0  0
  190.2230  177.2030  143.5130 C   0  0  0  0  0  3  0  0  0  0  0  0
  188.0210  177.4680  143.3000 C   0  0  0  0  0  3  0  0  0  0  0  0
  187.9030  177.5620  146.8850 O   0  0  0  0  0  0  0  0  0  0  0  0
  185.3240  178.1980  146.7590 C   0  0  0  0  0  2  0  0  0  0  0  0
  185.9810  177.7400  145.4710 C   0  0  0  0  0  3  0  0  0  0  0  0
  185.5720  179.1930  145.6470 C   0  0  0  0  0  2  0  0  0  0  0  0
  192.7950  174.3590  135.2730 C   0  0  1  0  0  3  0  0  0  0  0  0
  193.1050  176.0480  137.2780 C   0  0  0  0  0  2  0  0  0  0  0  0
  193.7130  175.1000  136.2700 C   0  0  0  0  0  0  0  0  0  0  0  0
  193.6170  174.6780  137.7180 C   0  0  0  0  0  2  0  0  0  0  0  0
  195.1290  175.4510  135.8390 C   0  0  0  0  0  2  0  0  0  0  0  0
  196.1040  174.3810  136.2780 C   0  0  0  0  0  2  0  0  0  0  0  0
  197.1760  174.2070  135.2230 C   0  0  0  0  0  2  0  0  0  0  0  0
  198.8190  174.2830  135.9900 S   0  0  0  0  0  0  0  0  0  0  0  0
  198.1210  174.5570  137.6460 C   0  0  0  0  0  1  0  0  0  0  0  0
  193.4630  172.3040  134.7590 C   0  0  0  0  0  1  0  0  0  0  0  0
  192.6060  173.0120  135.6060 O   0  0  0  0  0  0  0  0  0  0  0  0
  1  3  1  0  0  0  0
  1  4  1  1  0  0  0
  2  1  1  0  0  0  0
  2 35  1  1  0  0  0
  2  3  1  0  0  0  0
  3 15  1  6  0  0  0
  4  8  1  0  0  0  0
  4  5  1  1  0  0  0
  6  8  1  0  0  0  0
  6  9  1  0  0  0  0
  7  6  2  0  0  0  0
  8  5  1  0  0  0  0
  9 14  1  6  0  0  0
  9 10  1  0  0  0  0
 10 12  1  0  0  0  0
 11 10  2  0  0  0  0
 14 13  1  0  0  0  0
 15 16  1  0  0  0  0
 16 18  1  0  0  0  0
 18 17  2  0  0  0  0
 19 21  2  0  0  0  0
 21 22  1  0  0  0  0
 22 25  1  0  0  0  0
 23 20  2  0  0  0  0
 23 22  1  0  0  0  0
 24 17  1  6  0  0  0
 24 19  1  0  0  0  0
 24 23  1  0  0  0  0
 25 30  2  0  0  0  0
 25 29  1  0  0  0  0
 26 28  1  0  0  0  0
 26 27  1  0  0  0  0
 27 31  2  0  0  0  0
 29 28  2  0  0  0  0
 30 26  1  0  0  0  0
 33 34  1  0  0  0  0
 33 27  1  0  0  0  0
 33 32  1  0  0  0  0
 34 32  1  0  0  0  0
 35 45  1  1  0  0  0
 35 37  1  0  0  0  0
 36 38  1  0  0  0  0
 37 36  1  0  0  0  0
 37 38  1  0  0  0  0
 39 37  1  0  0  0  0
 39 40  1  0  0  0  0
 41 42  1  0  0  0  0
 41 40  1  0  0  0  0
 42 43  1  0  0  0  0
 44 45  1  0  0  0  0
M  END
>  <MODEL>
9

>  <REMARK>
 VINA RESULT:      -6.0      3.378      7.243
  Name = 
  17 active torsions:
  status: ('A' for Active; 'I' for Inactive)
    1  A    between atoms: C_1  and  C_22
    2  A    between atoms: C_1  and  C_29
    3  A    between atoms: C_3  and  C_45
    4  A    between atoms: C_6  and  N_34
    5  A    between atoms: C_7  and  C_13
    6  A    between atoms: C_8  and  C_39
    7  A    between atoms: C_14  and  C_35
    8  A    between atoms: C_15  and  C_19
    9  A    between atoms: C_20  and  C_29
   10  A    between atoms: C_21  and  C_39
   11  A    between atoms: C_24  and  C_36
   12  A    between atoms: C_24  and  C_43
   13  A    between atoms: S_25  and  C_43
   14  A    between atoms: C_31  and  C_35
   15  A    between atoms: C_31  and  C_36
   16  A    between atoms: C_35  and  O_37
   17  A    between atoms: C_39  and  O_42
                            x       y       z     vdW  Elec       q    Type
                         _______ _______ _______ _____ _____    ______ ____

>  <TORSDO>
F 17

$$$$
