=
 OpenBabel10232408123D

 32 36  0  0  1  0  0  0  0  0999 V2000
  188.0930  176.6200  143.2330 C   0  0  0  0  0  0  0  0  0  0  0  0
  186.9740  176.5490  143.9030 C   0  0  0  0  0  3  0  0  0  0  0  0
  189.2050  176.6770  142.5540 C   0  0  0  0  0  0  0  0  0  0  0  0
  186.9160  177.3400  146.2080 C   0  0  0  0  0  3  0  0  0  0  0  0
  185.2750  179.4960  145.6500 C   0  0  0  0  0  3  0  0  0  0  0  0
  186.4970  177.5420  144.8890 C   0  0  0  0  0  0  0  0  0  0  0  0
  186.5060  178.2120  147.2160 C   0  0  0  0  0  3  0  0  0  0  0  0
  185.6600  178.6510  144.6030 C   0  0  0  0  0  0  0  0  0  0  0  0
  185.6990  179.2640  146.9200 N   0  0  0  0  0  0  0  0  0  0  0  0
  185.1830  178.9950  143.2250 C   0  0  0  0  0  2  0  0  0  0  0  0
  183.8940  178.2590  142.8820 C   0  0  0  0  0  3  0  0  0  0  0  0
  183.7060  178.1840  141.3780 C   0  0  0  0  0  1  0  0  0  0  0  0
  182.7210  179.0050  143.4830 C   0  0  0  0  0  1  0  0  0  0  0  0
  190.3060  175.7260  142.8780 C   0  0  0  0  0  2  0  0  0  0  0  0
  191.4060  176.4430  143.6370 C   0  0  0  0  0  2  0  0  0  0  0  0
  191.6510  175.7580  144.8930 N   0  0  0  0  0  2  0  0  0  0  0  0
  191.9540  176.1990  147.2990 C   0  0  0  0  0  2  0  0  0  0  0  0
  191.6680  176.7750  145.9290 C   0  0  2  0  0  0  0  0  0  0  0  0
  190.5230  176.4450  146.8760 C   0  0  2  0  0  3  0  0  0  0  0  0
  190.4150  177.6220  145.9350 C   0  0  0  0  0  2  0  0  0  0  0  0
  189.4830  177.8830  141.7190 C   0  0  0  0  0  2  0  0  0  0  0  0
  190.8910  176.4340  137.2630 C   0  0  0  0  0  0  0  0  0  0  0  0
  189.8800  177.2350  139.3090 C   0  0  0  0  0  0  0  0  0  0  0  0
  191.7710  176.6020  138.3160 C   0  0  0  0  0  0  0  0  0  0  0  0
  192.6520  175.6850  135.8770 N   0  0  0  0  0  0  0  0  0  0  0  0
  194.8540  175.5400  136.7020 F   0  0  0  0  0  0  0  0  0  0  0  0
  193.1230  176.3080  138.1550 C   0  0  0  0  0  3  0  0  0  0  0  0
  191.3260  175.9710  136.0270 C   0  0  0  0  0  3  0  0  0  0  0  0
  191.2150  177.0530  139.4670 N   0  0  0  0  0  0  0  0  0  0  0  0
  189.0160  177.6780  140.3550 N   0  0  0  0  0  2  0  0  0  0  0  0
  189.3410  176.8530  137.7500 S   0  0  0  0  0  0  0  0  0  0  0  0
  193.5480  175.8420  136.9000 C   0  0  0  0  0  0  0  0  0  0  0  0
  1  2  2  0  0  0  0
  2  6  1  0  0  0  0
  3 14  1  0  0  0  0
  3  1  2  0  0  0  0
  4  7  1  0  0  0  0
  5  9  1  0  0  0  0
  6  4  2  0  0  0  0
  8  6  1  0  0  0  0
  8  5  2  0  0  0  0
  9  7  2  0  0  0  0
 10  8  1  0  0  0  0
 11 10  1  0  0  0  0
 11 13  1  0  0  0  0
 12 11  1  0  0  0  0
 14 15  1  0  0  0  0
 15 16  1  0  0  0  0
 18 16  1  6  0  0  0
 18 20  1  0  0  0  0
 18 19  1  0  0  0  0
 18 17  1  0  0  0  0
 19 20  1  1  0  0  0
 19 17  1  0  0  0  0
 21  3  1  0  0  0  0
 22 31  1  0  0  0  0
 22 24  1  0  0  0  0
 23 29  2  0  0  0  0
 23 30  1  0  0  0  0
 24 29  1  0  0  0  0
 25 28  1  0  0  0  0
 25 32  2  0  0  0  0
 26 32  1  0  0  0  0
 27 24  2  0  0  0  0
 28 22  2  0  0  0  0
 30 21  1  0  0  0  0
 31 23  1  0  0  0  0
 32 27  1  0  0  0  0
M  END
>  <MODEL>
1

>  <REMARK>
 VINA RESULT:      -8.7      0.000      0.000
  Name = 
  9 active torsions:
  status: ('A' for Active; 'I' for Inactive)
    1  A    between atoms: C_3  and  N_25
    2  A    between atoms: C_9  and  C_20
    3  A    between atoms: C_10  and  C_13
    4  A    between atoms: C_10  and  C_23
    5  A    between atoms: C_21  and  C_24
    6  A    between atoms: C_21  and  C_27
    7  A    between atoms: C_24  and  C_31
    8  A    between atoms: N_25  and  C_27
    9  A    between atoms: N_26  and  C_31
                            x       y       z     vdW  Elec       q    Type
                         _______ _______ _______ _____ _____    ______ ____

>  <TORSDO>
F 9

$$$$
=
 OpenBabel10232408123D

 32 36  0  0  1  0  0  0  0  0999 V2000
  188.3920  176.5210  143.3820 C   0  0  0  0  0  0  0  0  0  0  0  0
  187.1880  176.4200  143.8790 C   0  0  0  0  0  3  0  0  0  0  0  0
  189.5920  176.6050  142.8780 C   0  0  0  0  0  0  0  0  0  0  0  0
  186.8710  177.8460  145.8300 C   0  0  0  0  0  3  0  0  0  0  0  0
  184.7120  179.2000  144.7550 C   0  0  0  0  0  3  0  0  0  0  0  0
  186.4380  177.5060  144.5450 C   0  0  0  0  0  0  0  0  0  0  0  0
  186.2190  178.8480  146.5490 C   0  0  0  0  0  3  0  0  0  0  0  0
  185.3340  178.2050  143.9920 C   0  0  0  0  0  0  0  0  0  0  0  0
  185.1600  179.4980  146.0020 N   0  0  0  0  0  0  0  0  0  0  0  0
  184.8060  177.9600  142.6110 C   0  0  0  0  0  2  0  0  0  0  0  0
  185.1500  179.1090  141.6710 C   0  0  0  0  0  3  0  0  0  0  0  0
  184.2750  179.0670  140.4330 C   0  0  0  0  0  1  0  0  0  0  0  0
  186.6000  178.9860  141.2480 C   0  0  0  0  0  1  0  0  0  0  0  0
  190.7190  175.9070  143.5600 C   0  0  0  0  0  2  0  0  0  0  0  0
  191.7570  176.9150  144.0120 C   0  0  0  0  0  2  0  0  0  0  0  0
  191.3520  177.4880  145.2820 N   0  0  0  0  0  2  0  0  0  0  0  0
  189.9230  176.7350  147.1440 C   0  0  0  0  0  2  0  0  0  0  0  0
  191.0080  176.3780  146.1520 C   0  0  2  0  0  0  0  0  0  0  0  0
  191.3730  176.8080  147.5660 C   0  0  2  0  0  3  0  0  0  0  0  0
  192.2150  175.7820  146.8430 C   0  0  0  0  0  2  0  0  0  0  0  0
  189.8750  177.6520  141.8510 C   0  0  0  0  0  2  0  0  0  0  0  0
  189.8300  177.0470  136.9970 C   0  0  0  0  0  0  0  0  0  0  0  0
  190.1480  177.1370  139.3930 C   0  0  0  0  0  0  0  0  0  0  0  0
  188.7660  177.5780  137.7020 C   0  0  0  0  0  0  0  0  0  0  0  0
  188.6770  177.3740  134.9610 N   0  0  0  0  0  0  0  0  0  0  0  0
  186.5220  178.3250  134.9380 F   0  0  0  0  0  0  0  0  0  0  0  0
  187.6290  178.0190  137.0300 C   0  0  0  0  0  3  0  0  0  0  0  0
  189.7960  176.9400  135.6120 C   0  0  0  0  0  3  0  0  0  0  0  0
  188.9330  177.6310  139.0460 N   0  0  0  0  0  0  0  0  0  0  0  0
  190.6230  177.0860  140.7380 N   0  0  0  0  0  2  0  0  0  0  0  0
  191.0540  176.6150  138.0610 S   0  0  0  0  0  0  0  0  0  0  0  0
  187.6070  177.9040  135.6300 C   0  0  0  0  0  0  0  0  0  0  0  0
  1  2  2  0  0  0  0
  2  6  1  0  0  0  0
  3  1  2  0  0  0  0
  3 14  1  0  0  0  0
  4  7  1  0  0  0  0
  5  9  1  0  0  0  0
  6  4  2  0  0  0  0
  8  6  1  0  0  0  0
  8  5  2  0  0  0  0
  9  7  2  0  0  0  0
 10  8  1  0  0  0  0
 11 10  1  0  0  0  0
 12 11  1  0  0  0  0
 13 11  1  0  0  0  0
 14 15  1  0  0  0  0
 15 16  1  0  0  0  0
 17 19  1  0  0  0  0
 18 16  1  6  0  0  0
 18 20  1  0  0  0  0
 18 17  1  0  0  0  0
 18 19  1  0  0  0  0
 19 20  1  1  0  0  0
 21  3  1  0  0  0  0
 22 24  1  0  0  0  0
 22 31  1  0  0  0  0
 23 30  1  0  0  0  0
 24 29  1  0  0  0  0
 25 28  1  0  0  0  0
 25 32  2  0  0  0  0
 26 32  1  0  0  0  0
 27 24  2  0  0  0  0
 28 22  2  0  0  0  0
 29 23  2  0  0  0  0
 30 21  1  0  0  0  0
 31 23  1  0  0  0  0
 32 27  1  0  0  0  0
M  END
>  <MODEL>
2

>  <REMARK>
 VINA RESULT:      -8.7      2.273      2.815
  Name = 
  9 active torsions:
  status: ('A' for Active; 'I' for Inactive)
    1  A    between atoms: C_3  and  N_25
    2  A    between atoms: C_9  and  C_20
    3  A    between atoms: C_10  and  C_13
    4  A    between atoms: C_10  and  C_23
    5  A    between atoms: C_21  and  C_24
    6  A    between atoms: C_21  and  C_27
    7  A    between atoms: C_24  and  C_31
    8  A    between atoms: N_25  and  C_27
    9  A    between atoms: N_26  and  C_31
                            x       y       z     vdW  Elec       q    Type
                         _______ _______ _______ _____ _____    ______ ____

>  <TORSDO>
F 9

$$$$
=
 OpenBabel10232408123D

 32 36  0  0  1  0  0  0  0  0999 V2000
  187.9320  177.2650  143.0100 C   0  0  0  0  0  0  0  0  0  0  0  0
  187.3910  176.7410  144.0780 C   0  0  0  0  0  3  0  0  0  0  0  0
  188.4680  177.7720  141.9350 C   0  0  0  0  0  0  0  0  0  0  0  0
  186.0340  178.2450  145.4330 C   0  0  0  0  0  3  0  0  0  0  0  0
  187.6950  178.0970  147.6410 C   0  0  0  0  0  3  0  0  0  0  0  0
  187.1740  177.4390  145.3630 C   0  0  0  0  0  0  0  0  0  0  0  0
  185.7500  178.9590  146.5970 C   0  0  0  0  0  3  0  0  0  0  0  0
  188.0230  177.3590  146.4970 C   0  0  0  0  0  0  0  0  0  0  0  0
  186.5800  178.8730  147.6690 N   0  0  0  0  0  0  0  0  0  0  0  0
  189.2470  176.4980  146.5570 C   0  0  0  0  0  2  0  0  0  0  0  0
  190.5200  177.3350  146.5210 C   0  0  0  0  0  3  0  0  0  0  0  0
  190.9490  177.5930  145.0890 C   0  0  0  0  0  1  0  0  0  0  0  0
  191.6260  176.5860  147.2350 C   0  0  0  0  0  1  0  0  0  0  0  0
  189.8260  177.3220  141.5150 C   0  0  0  0  0  2  0  0  0  0  0  0
  189.9150  177.2800  140.0020 C   0  0  0  0  0  2  0  0  0  0  0  0
  190.7440  176.1600  139.5980 N   0  0  0  0  0  2  0  0  0  0  0  0
  190.4820  175.5850  137.2160 C   0  0  0  0  0  2  0  0  0  0  0  0
  191.1930  176.4360  138.2450 C   0  0  2  0  0  0  0  0  0  0  0  0
  191.8360  175.1540  137.7340 C   0  0  2  0  0  3  0  0  0  0  0  0
  192.6960  176.3420  138.0990 C   0  0  0  0  0  2  0  0  0  0  0  0
  187.8800  179.0140  141.3490 C   0  0  0  0  0  2  0  0  0  0  0  0
  183.0220  178.5470  140.9980 C   0  0  0  0  0  0  0  0  0  0  0  0
  185.4330  178.6490  140.8330 C   0  0  0  0  0  0  0  0  0  0  0  0
  183.6750  178.7780  142.1950 C   0  0  0  0  0  0  0  0  0  0  0  0
  180.9300  178.6320  142.0920 N   0  0  0  0  0  0  0  0  0  0  0  0
  180.8010  179.0170  144.4130 F   0  0  0  0  0  0  0  0  0  0  0  0
  182.9470  178.9400  143.3710 C   0  0  0  0  0  3  0  0  0  0  0  0
  181.6370  178.4730  140.9350 C   0  0  0  0  0  3  0  0  0  0  0  0
  185.0270  178.8340  142.1140 N   0  0  0  0  0  0  0  0  0  0  0  0
  186.8020  178.6820  140.4280 N   0  0  0  0  0  2  0  0  0  0  0  0
  184.1460  178.4050  139.7600 S   0  0  0  0  0  0  0  0  0  0  0  0
  181.5470  178.8610  143.2930 C   0  0  0  0  0  0  0  0  0  0  0  0
  1  2  2  0  0  0  0
  2  6  1  0  0  0  0
  3  1  2  0  0  0  0
  4  7  1  0  0  0  0
  5  9  1  0  0  0  0
  6  4  2  0  0  0  0
  6  8  1  0  0  0  0
  7  9  2  0  0  0  0
  8 10  1  0  0  0  0
  8  5  2  0  0  0  0
 11 10  1  0  0  0  0
 11 13  1  0  0  0  0
 12 11  1  0  0  0  0
 14  3  1  0  0  0  0
 15 14  1  0  0  0  0
 16 15  1  0  0  0  0
 17 18  1  0  0  0  0
 18 16  1  1  0  0  0
 19 17  1  6  0  0  0
 19 20  1  0  0  0  0
 19 18  1  0  0  0  0
 20 18  1  0  0  0  0
 21  3  1  0  0  0  0
 22 24  1  0  0  0  0
 23 29  2  0  0  0  0
 24 27  2  0  0  0  0
 25 32  2  0  0  0  0
 28 22  2  0  0  0  0
 28 25  1  0  0  0  0
 29 24  1  0  0  0  0
 30 23  1  0  0  0  0
 30 21  1  0  0  0  0
 31 23  1  0  0  0  0
 31 22  1  0  0  0  0
 32 27  1  0  0  0  0
 32 26  1  0  0  0  0
M  END
>  <MODEL>
3

>  <REMARK>
 VINA RESULT:      -8.4      3.574      7.601
  Name = 
  9 active torsions:
  status: ('A' for Active; 'I' for Inactive)
    1  A    between atoms: C_3  and  N_25
    2  A    between atoms: C_9  and  C_20
    3  A    between atoms: C_10  and  C_13
    4  A    between atoms: C_10  and  C_23
    5  A    between atoms: C_21  and  C_24
    6  A    between atoms: C_21  and  C_27
    7  A    between atoms: C_24  and  C_31
    8  A    between atoms: N_25  and  C_27
    9  A    between atoms: N_26  and  C_31
                            x       y       z     vdW  Elec       q    Type
                         _______ _______ _______ _____ _____    ______ ____

>  <TORSDO>
F 9

$$$$
=
 OpenBabel10232408123D

 32 36  0  0  1  0  0  0  0  0999 V2000
  187.7460  177.1560  142.7170 C   0  0  0  0  0  0  0  0  0  0  0  0
  186.8800  176.8260  143.6380 C   0  0  0  0  0  3  0  0  0  0  0  0
  188.6060  177.4700  141.7880 C   0  0  0  0  0  0  0  0  0  0  0  0
  187.0160  177.3240  146.0200 C   0  0  0  0  0  3  0  0  0  0  0  0
  185.2820  179.4750  145.8850 C   0  0  0  0  0  3  0  0  0  0  0  0
  186.4740  177.6730  144.7790 C   0  0  0  0  0  0  0  0  0  0  0  0
  186.6810  178.0520  147.1620 C   0  0  0  0  0  3  0  0  0  0  0  0
  185.5880  178.7790  144.7100 C   0  0  0  0  0  0  0  0  0  0  0  0
  185.8260  179.1030  147.0730 N   0  0  0  0  0  0  0  0  0  0  0  0
  184.9780  179.2740  143.4340 C   0  0  0  0  0  2  0  0  0  0  0  0
  183.8130  178.3960  142.9970 C   0  0  0  0  0  3  0  0  0  0  0  0
  183.7790  178.2660  141.4850 C   0  0  0  0  0  1  0  0  0  0  0  0
  182.5160  179.0250  143.4620 C   0  0  0  0  0  1  0  0  0  0  0  0
  189.9310  176.7870  141.7600 C   0  0  0  0  0  2  0  0  0  0  0  0
  190.8970  177.4900  142.6940 C   0  0  0  0  0  2  0  0  0  0  0  0
  191.3050  176.5750  143.7440 N   0  0  0  0  0  2  0  0  0  0  0  0
  191.7800  176.5170  146.1620 C   0  0  0  0  0  2  0  0  0  0  0  0
  191.4680  177.3670  144.9500 C   0  0  2  0  0  0  0  0  0  0  0  0
  190.3540  176.9440  145.8980 C   0  0  2  0  0  3  0  0  0  0  0  0
  190.2940  178.2860  145.2070 C   0  0  0  0  0  2  0  0  0  0  0  0
  188.3940  178.7190  140.9970 C   0  0  0  0  0  2  0  0  0  0  0  0
  187.4680  177.8770  136.2680 C   0  0  0  0  0  0  0  0  0  0  0  0
  188.2750  178.2890  138.5100 C   0  0  0  0  0  0  0  0  0  0  0  0
  186.5110  177.7550  137.2590 C   0  0  0  0  0  0  0  0  0  0  0  0
  185.8600  177.3570  134.6170 N   0  0  0  0  0  0  0  0  0  0  0  0
  183.6250  176.9120  135.2110 F   0  0  0  0  0  0  0  0  0  0  0  0
  185.1980  177.4270  136.9300 C   0  0  0  0  0  3  0  0  0  0  0  0
  187.1490  177.6780  134.9310 C   0  0  0  0  0  3  0  0  0  0  0  0
  186.9540  177.9820  138.5200 N   0  0  0  0  0  0  0  0  0  0  0  0
  189.0190  178.6060  139.6870 N   0  0  0  0  0  2  0  0  0  0  0  0
  188.9430  178.2870  136.9540 S   0  0  0  0  0  0  0  0  0  0  0  0
  184.8900  177.2280  135.5740 C   0  0  0  0  0  0  0  0  0  0  0  0
  1  2  2  0  0  0  0
  2  6  1  0  0  0  0
  3  1  2  0  0  0  0
  4  7  1  0  0  0  0
  5  9  1  0  0  0  0
  6  4  2  0  0  0  0
  8  6  1  0  0  0  0
  8  5  2  0  0  0  0
  9  7  2  0  0  0  0
 10  8  1  0  0  0  0
 11 10  1  0  0  0  0
 11 13  1  0  0  0  0
 12 11  1  0  0  0  0
 14  3  1  0  0  0  0
 14 15  1  0  0  0  0
 15 16  1  0  0  0  0
 18 16  1  6  0  0  0
 18 20  1  0  0  0  0
 18 19  1  0  0  0  0
 18 17  1  0  0  0  0
 19 20  1  1  0  0  0
 19 17  1  0  0  0  0
 21  3  1  0  0  0  0
 22 31  1  0  0  0  0
 22 24  1  0  0  0  0
 23 29  2  0  0  0  0
 23 30  1  0  0  0  0
 24 29  1  0  0  0  0
 25 28  1  0  0  0  0
 25 32  2  0  0  0  0
 26 32  1  0  0  0  0
 27 24  2  0  0  0  0
 28 22  2  0  0  0  0
 30 21  1  0  0  0  0
 31 23  1  0  0  0  0
 32 27  1  0  0  0  0
M  END
>  <MODEL>
4

>  <REMARK>
 VINA RESULT:      -8.4      3.126      3.695
  Name = 
  9 active torsions:
  status: ('A' for Active; 'I' for Inactive)
    1  A    between atoms: C_3  and  N_25
    2  A    between atoms: C_9  and  C_20
    3  A    between atoms: C_10  and  C_13
    4  A    between atoms: C_10  and  C_23
    5  A    between atoms: C_21  and  C_24
    6  A    between atoms: C_21  and  C_27
    7  A    between atoms: C_24  and  C_31
    8  A    between atoms: N_25  and  C_27
    9  A    between atoms: N_26  and  C_31
                            x       y       z     vdW  Elec       q    Type
                         _______ _______ _______ _____ _____    ______ ____

>  <TORSDO>
F 9

$$$$
=
 OpenBabel10232408123D

 32 36  0  0  1  0  0  0  0  0999 V2000
  188.1750  177.2880  142.2640 C   0  0  0  0  0  0  0  0  0  0  0  0
  188.2030  176.5250  143.3240 C   0  0  0  0  0  3  0  0  0  0  0  0
  188.1440  178.0360  141.1960 C   0  0  0  0  0  0  0  0  0  0  0  0
  187.2220  177.3620  145.3920 C   0  0  0  0  0  3  0  0  0  0  0  0
  189.6470  177.5730  146.7060 C   0  0  0  0  0  3  0  0  0  0  0  0
  188.3870  176.9900  144.7150 C   0  0  0  0  0  0  0  0  0  0  0  0
  187.2920  177.8310  146.7040 C   0  0  0  0  0  3  0  0  0  0  0  0
  189.6300  177.0930  145.3910 C   0  0  0  0  0  0  0  0  0  0  0  0
  188.4930  177.9280  147.3300 N   0  0  0  0  0  0  0  0  0  0  0  0
  190.9390  176.6860  144.7870 C   0  0  0  0  0  2  0  0  0  0  0  0
  191.6120  177.8530  144.0750 C   0  0  0  0  0  3  0  0  0  0  0  0
  190.7180  179.0790  144.0960 C   0  0  0  0  0  1  0  0  0  0  0  0
  191.8790  177.4680  142.6350 C   0  0  0  0  0  1  0  0  0  0  0  0
  189.2830  177.9850  140.2360 C   0  0  0  0  0  2  0  0  0  0  0  0
  188.9650  177.0310  139.1020 C   0  0  0  0  0  2  0  0  0  0  0  0
  188.4350  177.7790  137.9770 N   0  0  0  0  0  2  0  0  0  0  0  0
  188.0570  176.2100  136.1140 C   0  0  0  0  0  2  0  0  0  0  0  0
  187.4710  176.9170  137.3160 C   0  0  2  0  0  0  0  0  0  0  0  0
  187.2700  177.4860  135.9190 C   0  0  2  0  0  3  0  0  0  0  0  0
  186.1890  177.6390  136.9630 C   0  0  0  0  0  2  0  0  0  0  0  0
  187.1590  179.1560  141.1250 C   0  0  0  0  0  2  0  0  0  0  0  0
  182.3060  178.5320  141.0980 C   0  0  0  0  0  0  0  0  0  0  0  0
  184.6960  178.7130  140.7730 C   0  0  0  0  0  0  0  0  0  0  0  0
  183.0300  178.7790  142.2500 C   0  0  0  0  0  0  0  0  0  0  0  0
  180.2910  178.5440  142.3310 N   0  0  0  0  0  0  0  0  0  0  0  0
  180.3060  178.9160  144.6570 F   0  0  0  0  0  0  0  0  0  0  0  0
  182.3780  178.9130  143.4730 C   0  0  0  0  0  3  0  0  0  0  0  0
  180.9230  178.4120  141.1280 C   0  0  0  0  0  3  0  0  0  0  0  0
  184.3710  178.8800  142.0790 N   0  0  0  0  0  0  0  0  0  0  0  0
  186.0330  178.7920  140.2770 N   0  0  0  0  0  2  0  0  0  0  0  0
  183.3480  178.4310  139.7870 S   0  0  0  0  0  0  0  0  0  0  0  0
  180.9790  178.7880  143.4890 C   0  0  0  0  0  0  0  0  0  0  0  0
  1  2  2  0  0  0  0
  2  6  1  0  0  0  0
  3  1  2  0  0  0  0
  4  7  1  0  0  0  0
  5  9  1  0  0  0  0
  6  8  1  0  0  0  0
  6  4  2  0  0  0  0
  7  9  2  0  0  0  0
  8  5  2  0  0  0  0
 10  8  1  0  0  0  0
 11 12  1  0  0  0  0
 11 10  1  0  0  0  0
 13 11  1  0  0  0  0
 14  3  1  0  0  0  0
 15 14  1  0  0  0  0
 16 15  1  0  0  0  0
 17 18  1  0  0  0  0
 18 16  1  1  0  0  0
 19 17  1  6  0  0  0
 19 20  1  0  0  0  0
 19 18  1  0  0  0  0
 20 18  1  0  0  0  0
 21  3  1  0  0  0  0
 22 28  2  0  0  0  0
 22 24  1  0  0  0  0
 23 29  2  0  0  0  0
 24 27  2  0  0  0  0
 25 32  2  0  0  0  0
 27 32  1  0  0  0  0
 28 25  1  0  0  0  0
 29 24  1  0  0  0  0
 30 23  1  0  0  0  0
 30 21  1  0  0  0  0
 31 23  1  0  0  0  0
 31 22  1  0  0  0  0
 32 26  1  0  0  0  0
M  END
>  <MODEL>
5

>  <REMARK>
 VINA RESULT:      -7.9      4.082      8.300
  Name = 
  9 active torsions:
  status: ('A' for Active; 'I' for Inactive)
    1  A    between atoms: C_3  and  N_25
    2  A    between atoms: C_9  and  C_20
    3  A    between atoms: C_10  and  C_13
    4  A    between atoms: C_10  and  C_23
    5  A    between atoms: C_21  and  C_24
    6  A    between atoms: C_21  and  C_27
    7  A    between atoms: C_24  and  C_31
    8  A    between atoms: N_25  and  C_27
    9  A    between atoms: N_26  and  C_31
                            x       y       z     vdW  Elec       q    Type
                         _______ _______ _______ _____ _____    ______ ____

>  <TORSDO>
F 9

$$$$
=
 OpenBabel10232408123D

 32 36  0  0  1  0  0  0  0  0999 V2000
  191.3710  177.2900  140.6390 C   0  0  0  0  0  0  0  0  0  0  0  0
  191.7620  177.3840  139.3960 C   0  0  0  0  0  3  0  0  0  0  0  0
  190.9770  177.2140  141.8810 C   0  0  0  0  0  0  0  0  0  0  0  0
  193.4390  175.9030  138.4310 C   0  0  0  0  0  3  0  0  0  0  0  0
  191.6130  174.4660  136.9290 C   0  0  0  0  0  3  0  0  0  0  0  0
  192.0870  176.2480  138.5080 C   0  0  0  0  0  0  0  0  0  0  0  0
  193.8500  174.8540  137.6070 C   0  0  0  0  0  3  0  0  0  0  0  0
  191.1500  175.5070  137.7420 C   0  0  0  0  0  0  0  0  0  0  0  0
  192.9360  174.1640  136.8770 N   0  0  0  0  0  0  0  0  0  0  0  0
  189.6720  175.7540  137.7750 C   0  0  0  0  0  2  0  0  0  0  0  0
  189.3030  177.0280  137.0250 C   0  0  0  0  0  3  0  0  0  0  0  0
  188.3680  177.8860  137.8550 C   0  0  0  0  0  1  0  0  0  0  0  0
  188.6080  176.6580  135.7310 C   0  0  0  0  0  1  0  0  0  0  0  0
  191.9050  177.6410  142.9670 C   0  0  0  0  0  2  0  0  0  0  0  0
  191.1140  178.1330  144.1630 C   0  0  0  0  0  2  0  0  0  0  0  0
  191.8120  177.7750  145.3830 N   0  0  0  0  0  2  0  0  0  0  0  0
  189.8350  177.0650  146.6730 C   0  0  0  0  0  2  0  0  0  0  0  0
  191.1010  176.6470  145.9580 C   0  0  2  0  0  0  0  0  0  0  0  0
  191.1050  176.8570  147.4650 C   0  0  2  0  0  3  0  0  0  0  0  0
  191.9810  175.7930  146.8450 C   0  0  0  0  0  2  0  0  0  0  0  0
  189.7690  176.4000  142.2090 C   0  0  0  0  0  2  0  0  0  0  0  0
  185.6220  178.5040  143.7290 C   0  0  0  0  0  0  0  0  0  0  0  0
  187.5420  177.5130  142.6430 C   0  0  0  0  0  0  0  0  0  0  0  0
  186.4850  177.8350  144.5770 C   0  0  0  0  0  0  0  0  0  0  0  0
  184.2290  179.0700  145.5520 N   0  0  0  0  0  0  0  0  0  0  0  0
  184.7730  178.3860  147.7390 F   0  0  0  0  0  0  0  0  0  0  0  0
  186.2220  177.7760  145.9440 C   0  0  0  0  0  3  0  0  0  0  0  0
  184.4810  179.1320  144.2120 C   0  0  0  0  0  3  0  0  0  0  0  0
  187.5640  177.2730  143.9780 N   0  0  0  0  0  0  0  0  0  0  0  0
  188.5620  177.0710  141.7460 N   0  0  0  0  0  2  0  0  0  0  0  0
  186.1960  178.4180  142.1550 S   0  0  0  0  0  0  0  0  0  0  0  0
  185.0640  178.4140  146.4170 C   0  0  0  0  0  0  0  0  0  0  0  0
  1  3  2  0  0  0  0
  2  1  2  0  0  0  0
  3 21  1  0  0  0  0
  3 14  1  0  0  0  0
  4  6  1  0  0  0  0
  5  8  1  0  0  0  0
  6  2  1  0  0  0  0
  7  4  2  0  0  0  0
  8 10  1  0  0  0  0
  8  6  2  0  0  0  0
  9  5  2  0  0  0  0
  9  7  1  0  0  0  0
 11 10  1  0  0  0  0
 11 12  1  0  0  0  0
 13 11  1  0  0  0  0
 14 15  1  0  0  0  0
 15 16  1  0  0  0  0
 18 16  1  6  0  0  0
 18 17  1  0  0  0  0
 18 20  1  0  0  0  0
 18 19  1  0  0  0  0
 19 17  1  1  0  0  0
 20 19  1  0  0  0  0
 22 28  2  0  0  0  0
 22 24  1  0  0  0  0
 23 29  2  0  0  0  0
 24 27  2  0  0  0  0
 25 32  2  0  0  0  0
 27 32  1  0  0  0  0
 28 25  1  0  0  0  0
 29 24  1  0  0  0  0
 30 21  1  0  0  0  0
 30 23  1  0  0  0  0
 31 23  1  0  0  0  0
 31 22  1  0  0  0  0
 32 26  1  0  0  0  0
M  END
>  <MODEL>
6

>  <REMARK>
 VINA RESULT:      -7.9      3.261      8.173
  Name = 
  9 active torsions:
  status: ('A' for Active; 'I' for Inactive)
    1  A    between atoms: C_3  and  N_25
    2  A    between atoms: C_9  and  C_20
    3  A    between atoms: C_10  and  C_13
    4  A    between atoms: C_10  and  C_23
    5  A    between atoms: C_21  and  C_24
    6  A    between atoms: C_21  and  C_27
    7  A    between atoms: C_24  and  C_31
    8  A    between atoms: N_25  and  C_27
    9  A    between atoms: N_26  and  C_31
                            x       y       z     vdW  Elec       q    Type
                         _______ _______ _______ _____ _____    ______ ____

>  <TORSDO>
F 9

$$$$
=
 OpenBabel10232408123D

 32 36  0  0  1  0  0  0  0  0999 V2000
  185.2400  178.7410  141.0330 C   0  0  0  0  0  0  0  0  0  0  0  0
  186.0130  178.8300  142.0820 C   0  0  0  0  0  3  0  0  0  0  0  0
  184.4570  178.6660  139.9920 C   0  0  0  0  0  0  0  0  0  0  0  0
  188.2350  178.2350  141.2750 C   0  0  0  0  0  3  0  0  0  0  0  0
  188.8150  176.6070  143.4350 C   0  0  0  0  0  3  0  0  0  0  0  0
  187.2780  178.0910  142.2840 C   0  0  0  0  0  0  0  0  0  0  0  0
  189.4550  177.5650  141.3640 C   0  0  0  0  0  3  0  0  0  0  0  0
  187.5780  177.2600  143.3940 C   0  0  0  0  0  0  0  0  0  0  0  0
  189.7180  176.7690  142.4320 N   0  0  0  0  0  0  0  0  0  0  0  0
  186.6520  177.0610  144.5550 C   0  0  0  0  0  2  0  0  0  0  0  0
  186.8160  178.1620  145.5940 C   0  0  0  0  0  3  0  0  0  0  0  0
  187.5830  177.6510  146.7990 C   0  0  0  0  0  1  0  0  0  0  0  0
  185.4470  178.6250  146.0470 C   0  0  0  0  0  1  0  0  0  0  0  0
  183.1330  177.9920  140.1230 C   0  0  0  0  0  2  0  0  0  0  0  0
  182.0920  178.9810  140.6080 C   0  0  0  0  0  2  0  0  0  0  0  0
  181.2930  178.3660  141.6520 N   0  0  0  0  0  2  0  0  0  0  0  0
  182.4790  179.1340  143.6710 C   0  0  0  0  0  2  0  0  0  0  0  0
  181.2760  179.2940  142.7690 C   0  0  2  0  0  0  0  0  0  0  0  0
  181.1810  178.4490  144.0300 C   0  0  2  0  0  3  0  0  0  0  0  0
  179.9840  179.2380  143.5540 C   0  0  0  0  0  2  0  0  0  0  0  0
  185.0240  178.9400  138.6390 C   0  0  0  0  0  2  0  0  0  0  0  0
  188.3630  175.7660  136.9910 C   0  0  0  0  0  0  0  0  0  0  0  0
  186.4720  177.1370  137.6200 C   0  0  0  0  0  0  0  0  0  0  0  0
  188.6930  176.9660  137.5920 C   0  0  0  0  0  0  0  0  0  0  0  0
  190.6490  175.2070  136.7920 N   0  0  0  0  0  0  0  0  0  0  0  0
  192.3190  176.6740  137.5720 F   0  0  0  0  0  0  0  0  0  0  0  0
  190.0290  177.3030  137.8010 C   0  0  0  0  0  3  0  0  0  0  0  0
  189.3430  174.8700  136.5840 C   0  0  0  0  0  3  0  0  0  0  0  0
  187.6410  177.7440  137.9460 N   0  0  0  0  0  0  0  0  0  0  0  0
  185.1890  177.7000  137.8940 N   0  0  0  0  0  2  0  0  0  0  0  0
  186.6940  175.6290  136.8820 S   0  0  0  0  0  0  0  0  0  0  0  0
  191.0090  176.3880  137.3830 C   0  0  0  0  0  0  0  0  0  0  0  0
  1  2  2  0  0  0  0
  2  6  1  0  0  0  0
  3 14  1  0  0  0  0
  3  1  2  0  0  0  0
  4  7  2  0  0  0  0
  4  6  1  0  0  0  0
  6  8  2  0  0  0  0
  7  9  1  0  0  0  0
  8  5  1  0  0  0  0
  8 10  1  0  0  0  0
  9  5  2  0  0  0  0
 10 11  1  0  0  0  0
 11 13  1  0  0  0  0
 11 12  1  0  0  0  0
 14 15  1  0  0  0  0
 15 16  1  0  0  0  0
 17 19  1  0  0  0  0
 18 16  1  6  0  0  0
 18 20  1  0  0  0  0
 18 17  1  0  0  0  0
 18 19  1  0  0  0  0
 19 20  1  1  0  0  0
 21  3  1  0  0  0  0
 22 24  1  0  0  0  0
 23 30  1  0  0  0  0
 23 29  2  0  0  0  0
 24 27  2  0  0  0  0
 24 29  1  0  0  0  0
 25 32  2  0  0  0  0
 28 25  1  0  0  0  0
 28 22  2  0  0  0  0
 30 21  1  0  0  0  0
 31 22  1  0  0  0  0
 31 23  1  0  0  0  0
 32 26  1  0  0  0  0
 32 27  1  0  0  0  0
M  END
>  <MODEL>
7

>  <REMARK>
 VINA RESULT:      -7.8      2.446      6.081
  Name = 
  9 active torsions:
  status: ('A' for Active; 'I' for Inactive)
    1  A    between atoms: C_3  and  N_25
    2  A    between atoms: C_9  and  C_20
    3  A    between atoms: C_10  and  C_13
    4  A    between atoms: C_10  and  C_23
    5  A    between atoms: C_21  and  C_24
    6  A    between atoms: C_21  and  C_27
    7  A    between atoms: C_24  and  C_31
    8  A    between atoms: N_25  and  C_27
    9  A    between atoms: N_26  and  C_31
                            x       y       z     vdW  Elec       q    Type
                         _______ _______ _______ _____ _____    ______ ____

>  <TORSDO>
F 9

$$$$
=
 OpenBabel10232408123D

 32 36  0  0  1  0  0  0  0  0999 V2000
  190.0510  178.2450  142.9500 C   0  0  0  0  0  0  0  0  0  0  0  0
  190.5540  178.5620  144.1140 C   0  0  0  0  0  3  0  0  0  0  0  0
  189.5580  177.9450  141.7800 C   0  0  0  0  0  0  0  0  0  0  0  0
  191.6200  176.9950  145.6460 C   0  0  0  0  0  3  0  0  0  0  0  0
  189.4190  176.7930  147.3080 C   0  0  0  0  0  3  0  0  0  0  0  0
  190.4760  177.7360  145.3370 C   0  0  0  0  0  0  0  0  0  0  0  0
  191.6410  176.1710  146.7710 C   0  0  0  0  0  3  0  0  0  0  0  0
  189.3490  177.6350  146.1930 C   0  0  0  0  0  0  0  0  0  0  0  0
  190.5480  176.0850  147.5730 N   0  0  0  0  0  0  0  0  0  0  0  0
  188.0820  178.4110  145.9910 C   0  0  0  0  0  2  0  0  0  0  0  0
  186.8980  177.4880  145.7360 C   0  0  0  0  0  3  0  0  0  0  0  0
  186.7240  177.2380  144.2500 C   0  0  0  0  0  1  0  0  0  0  0  0
  185.6390  178.1370  146.2730 C   0  0  0  0  0  1  0  0  0  0  0  0
  188.3740  178.6960  141.2730 C   0  0  0  0  0  2  0  0  0  0  0  0
  187.8640  178.0610  139.9950 C   0  0  0  0  0  2  0  0  0  0  0  0
  188.4830  178.7100  138.8540 N   0  0  0  0  0  2  0  0  0  0  0  0
  189.0090  178.2620  136.4880 C   0  0  0  0  0  2  0  0  0  0  0  0
  188.1590  177.9070  137.6880 C   0  0  2  0  0  0  0  0  0  0  0  0
  187.6330  178.8710  136.6340 C   0  0  2  0  0  3  0  0  0  0  0  0
  186.6850  177.9380  137.3500 C   0  0  0  0  0  2  0  0  0  0  0  0
  189.9570  176.6590  141.1350 C   0  0  0  0  0  2  0  0  0  0  0  0
  191.9970  175.5390  136.8310 C   0  0  0  0  0  0  0  0  0  0  0  0
  191.3080  176.2430  139.0400 C   0  0  0  0  0  0  0  0  0  0  0  0
  190.8000  174.9990  137.2630 C   0  0  0  0  0  0  0  0  0  0  0  0
  191.8090  174.3790  134.7810 N   0  0  0  0  0  0  0  0  0  0  0  0
  189.9570  172.9890  134.3500 F   0  0  0  0  0  0  0  0  0  0  0  0
  190.0850  174.1290  136.4430 C   0  0  0  0  0  3  0  0  0  0  0  0
  192.5150  175.2330  135.5790 C   0  0  0  0  0  3  0  0  0  0  0  0
  190.4050  175.3850  138.5010 N   0  0  0  0  0  0  0  0  0  0  0  0
  191.1530  176.8440  140.3260 N   0  0  0  0  0  2  0  0  0  0  0  0
  192.6200  176.5510  138.0150 S   0  0  0  0  0  0  0  0  0  0  0  0
  190.6210  173.8270  135.1810 C   0  0  0  0  0  0  0  0  0  0  0  0
  1  2  2  0  0  0  0
  2  6  1  0  0  0  0
  3  1  2  0  0  0  0
  4  7  1  0  0  0  0
  5  9  1  0  0  0  0
  6  4  2  0  0  0  0
  6  8  1  0  0  0  0
  7  9  2  0  0  0  0
  8  5  2  0  0  0  0
 10  8  1  0  0  0  0
 11 10  1  0  0  0  0
 11 13  1  0  0  0  0
 12 11  1  0  0  0  0
 14  3  1  0  0  0  0
 15 14  1  0  0  0  0
 16 15  1  0  0  0  0
 17 18  1  0  0  0  0
 18 16  1  1  0  0  0
 19 17  1  6  0  0  0
 19 20  1  0  0  0  0
 19 18  1  0  0  0  0
 20 18  1  0  0  0  0
 21  3  1  0  0  0  0
 22 24  1  0  0  0  0
 22 31  1  0  0  0  0
 23 30  1  0  0  0  0
 24 29  1  0  0  0  0
 25 32  2  0  0  0  0
 25 28  1  0  0  0  0
 26 32  1  0  0  0  0
 27 24  2  0  0  0  0
 28 22  2  0  0  0  0
 29 23  2  0  0  0  0
 30 21  1  0  0  0  0
 31 23  1  0  0  0  0
 32 27  1  0  0  0  0
M  END
>  <MODEL>
8

>  <REMARK>
 VINA RESULT:      -7.8      2.427      5.205
  Name = 
  9 active torsions:
  status: ('A' for Active; 'I' for Inactive)
    1  A    between atoms: C_3  and  N_25
    2  A    between atoms: C_9  and  C_20
    3  A    between atoms: C_10  and  C_13
    4  A    between atoms: C_10  and  C_23
    5  A    between atoms: C_21  and  C_24
    6  A    between atoms: C_21  and  C_27
    7  A    between atoms: C_24  and  C_31
    8  A    between atoms: N_25  and  C_27
    9  A    between atoms: N_26  and  C_31
                            x       y       z     vdW  Elec       q    Type
                         _______ _______ _______ _____ _____    ______ ____

>  <TORSDO>
F 9

$$$$
=
 OpenBabel10232408123D

 32 36  0  0  1  0  0  0  0  0999 V2000
  189.8010  178.1640  142.8510 C   0  0  0  0  0  0  0  0  0  0  0  0
  190.0010  178.5890  144.0700 C   0  0  0  0  0  3  0  0  0  0  0  0
  189.5990  177.7580  141.6280 C   0  0  0  0  0  0  0  0  0  0  0  0
  191.5350  176.9710  145.0550 C   0  0  0  0  0  3  0  0  0  0  0  0
  190.1550  176.7990  147.4460 C   0  0  0  0  0  3  0  0  0  0  0  0
  190.3840  177.7460  145.2230 C   0  0  0  0  0  0  0  0  0  0  0  0
  191.9700  176.1280  146.0780 C   0  0  0  0  0  3  0  0  0  0  0  0
  189.6790  177.6620  146.4520 C   0  0  0  0  0  0  0  0  0  0  0  0
  191.2760  176.0590  147.2440 N   0  0  0  0  0  0  0  0  0  0  0  0
  188.4600  178.4730  146.7650 C   0  0  0  0  0  2  0  0  0  0  0  0
  187.2040  177.6110  146.7800 C   0  0  0  0  0  3  0  0  0  0  0  0
  186.9490  177.0140  145.4090 C   0  0  0  0  0  1  0  0  0  0  0  0
  186.0180  178.4680  147.1680 C   0  0  0  0  0  1  0  0  0  0  0  0
  188.2110  177.7460  141.0830 C   0  0  0  0  0  2  0  0  0  0  0  0
  187.3710  178.7980  141.7800 C   0  0  0  0  0  2  0  0  0  0  0  0
  186.2410  178.1600  142.4300 N   0  0  0  0  0  2  0  0  0  0  0  0
  184.8540  179.5920  143.8800 C   0  0  0  0  0  2  0  0  0  0  0  0
  185.1720  179.1410  142.4710 C   0  0  2  0  0  0  0  0  0  0  0  0
  184.0270  178.4990  143.2420 C   0  0  2  0  0  3  0  0  0  0  0  0
  183.9280  178.6780  141.7440 C   0  0  0  0  0  2  0  0  0  0  0  0
  190.6810  177.0040  140.9270 C   0  0  0  0  0  2  0  0  0  0  0  0
  191.9350  175.4130  136.4740 C   0  0  0  0  0  0  0  0  0  0  0  0
  190.9760  176.1160  138.5800 C   0  0  0  0  0  0  0  0  0  0  0  0
  192.7920  176.1280  137.2900 C   0  0  0  0  0  0  0  0  0  0  0  0
  193.6300  175.1920  134.8430 N   0  0  0  0  0  0  0  0  0  0  0  0
  195.7660  176.1220  135.1950 F   0  0  0  0  0  0  0  0  0  0  0  0
  194.0990  176.3850  136.8820 C   0  0  0  0  0  3  0  0  0  0  0  0
  192.3480  174.9360  135.2370 C   0  0  0  0  0  3  0  0  0  0  0  0
  192.2640  176.5290  138.4720 N   0  0  0  0  0  0  0  0  0  0  0  0
  190.1620  176.3640  139.7270 N   0  0  0  0  0  2  0  0  0  0  0  0
  190.4440  175.2500  137.2260 S   0  0  0  0  0  0  0  0  0  0  0  0
  194.5030  175.8980  135.6280 C   0  0  0  0  0  0  0  0  0  0  0  0
  1  2  2  0  0  0  0
  2  6  1  0  0  0  0
  3  1  2  0  0  0  0
  4  6  2  0  0  0  0
  4  7  1  0  0  0  0
  6  8  1  0  0  0  0
  7  9  2  0  0  0  0
  8 10  1  0  0  0  0
  8  5  2  0  0  0  0
  9  5  1  0  0  0  0
 10 11  1  0  0  0  0
 11 13  1  0  0  0  0
 12 11  1  0  0  0  0
 14  3  1  0  0  0  0
 14 15  1  0  0  0  0
 15 16  1  0  0  0  0
 18 16  1  6  0  0  0
 18 19  1  0  0  0  0
 18 17  1  0  0  0  0
 19 20  1  6  0  0  0
 19 17  1  0  0  0  0
 20 18  1  0  0  0  0
 21  3  1  0  0  0  0
 22 31  1  0  0  0  0
 22 24  1  0  0  0  0
 23 30  1  0  0  0  0
 24 29  1  0  0  0  0
 25 28  1  0  0  0  0
 25 32  2  0  0  0  0
 26 32  1  0  0  0  0
 27 24  2  0  0  0  0
 28 22  2  0  0  0  0
 29 23  2  0  0  0  0
 30 21  1  0  0  0  0
 31 23  1  0  0  0  0
 32 27  1  0  0  0  0
M  END
>  <MODEL>
9

>  <REMARK>
 VINA RESULT:      -7.6      1.598      4.542
  Name = 
  9 active torsions:
  status: ('A' for Active; 'I' for Inactive)
    1  A    between atoms: C_3  and  N_25
    2  A    between atoms: C_9  and  C_20
    3  A    between atoms: C_10  and  C_13
    4  A    between atoms: C_10  and  C_23
    5  A    between atoms: C_21  and  C_24
    6  A    between atoms: C_21  and  C_27
    7  A    between atoms: C_24  and  C_31
    8  A    between atoms: N_25  and  C_27
    9  A    between atoms: N_26  and  C_31
                            x       y       z     vdW  Elec       q    Type
                         _______ _______ _______ _____ _____    ______ ____

>  <TORSDO>
F 9

$$$$
