=
 OpenBabel10232407573D

 44 48  0  0  1  0  0  0  0  0999 V2000
  185.0550  179.3620  146.1710 N   0  0  0  0  0  0  0  0  0  0  0  0
  187.8780  178.5260  148.2710 C   0  0  0  0  0  3  0  0  0  0  0  0
  189.2340  176.9040  147.1120 C   0  0  0  0  0  3  0  0  0  0  0  0
  187.2610  177.7310  146.0700 C   0  0  0  0  0  0  0  0  0  0  0  0
  186.3750  177.7570  144.9840 C   0  0  0  0  0  0  0  0  0  0  0  0
  188.3680  176.9350  146.0620 N   0  0  0  0  0  0  0  0  0  0  0  0
  187.0010  178.5440  147.1860 C   0  0  0  0  0  0  0  0  0  0  0  0
  185.2300  178.5910  145.0590 C   0  0  0  0  0  0  0  0  0  0  0  0
  189.0030  177.7000  148.2370 C   0  0  0  0  0  3  0  0  0  0  0  0
  185.9060  179.3410  147.1970 N   0  0  0  0  0  0  0  0  0  0  0  0
  182.5150  178.7480  141.2860 C   0  0  0  0  0  0  0  0  0  0  0  0
  183.8260  178.6390  141.4790 C   0  0  0  0  0  3  0  0  0  0  0  0
  182.8140  178.7920  144.4100 C   0  0  0  0  0  3  0  0  0  0  0  0
  184.6090  178.6020  142.7120 C   0  0  0  0  0  3  0  0  0  0  0  0
  181.5580  178.8580  142.3010 O   0  0  0  0  0  0  0  0  0  0  0  0
  184.2130  178.6860  143.9810 C   0  0  0  0  0  0  0  0  0  0  0  0
  181.7010  178.8660  143.6900 C   0  0  0  0  0  3  0  0  0  0  0  0
  181.3690  177.8230  137.8840 N   0  0  0  0  0  0  0  0  0  0  0  0
  181.0720  176.7680  137.0020 N   0  0  0  0  0  2  0  0  0  0  0  0
  181.9980  176.2120  139.6000 C   0  0  0  0  0  2  0  0  0  0  0  0
  181.1110  175.2150  138.8630 C   0  0  0  0  0  2  0  0  0  0  0  0
  181.7750  177.6190  139.1020 C   0  0  0  0  0  0  0  0  0  0  0  0
  181.3220  175.3790  137.3680 C   0  0  0  0  0  2  0  0  0  0  0  0
  182.0810  178.7560  139.9200 N   0  0  0  0  0  2  0  0  0  0  0  0
  186.6690  176.9200  143.7750 C   0  0  0  0  0  2  0  0  0  0  0  0
  188.0470  177.1310  143.3610 N   0  0  0  0  0  2  0  0  0  0  0  0
  188.5450  174.8560  143.2320 O   0  0  0  0  0  0  0  0  0  0  0  0
  188.9450  176.0460  143.1260 C   0  0  0  0  0  0  0  0  0  0  0  0
  190.3130  176.2960  142.7850 N   0  0  0  0  0  2  0  0  0  0  0  0
  191.7990  177.9540  143.8080 C   0  0  0  0  0  1  0  0  0  0  0  0
  190.9000  177.6260  142.6310 C   0  0  1  0  0  3  0  0  0  0  0  0
  191.6770  177.7500  141.3240 C   0  0  0  0  0  2  0  0  0  0  0  0
  191.8130  177.1320  138.9330 C   0  0  0  0  0  1  0  0  0  0  0  0
  190.9370  177.0960  140.1670 C   0  0  2  0  0  3  0  0  0  0  0  0
  189.7010  177.8130  139.8970 N   0  0  0  0  0  2  0  0  0  0  0  0
  189.7740  178.2610  138.5710 N   0  0  0  0  0  2  0  0  0  0  0  0
  188.5150  178.7840  138.2520 N   0  0  0  0  0  2  0  0  0  0  0  0
  185.7190  175.5020  137.1560 O   0  0  0  0  0  0  0  0  0  0  0  0
  187.4200  177.9190  137.9590 C   0  0  0  0  0  0  0  0  0  0  0  0
  185.1380  176.5970  136.5130 C   0  0  0  0  0  2  0  0  0  0  0  0
  186.2620  178.4510  137.6930 N   0  0  0  0  0  0  0  0  0  0  0  0
  187.6260  176.5330  137.9740 O   0  0  0  0  0  0  0  0  0  0  0  0
  185.0010  177.7360  137.5080 C   0  0  0  0  0  2  0  0  0  0  0  0
  187.0950  175.6640  136.9790 C   0  0  0  0  0  2  0  0  0  0  0  0
  1 10  1  0  0  0  0
  3  9  1  0  0  0  0
  4  7  1  0  0  0  0
  5  8  1  0  0  0  0
  5  4  2  0  0  0  0
  6  4  1  0  0  0  0
  6  3  2  0  0  0  0
  7 10  2  0  0  0  0
  7  2  1  0  0  0  0
  8  1  2  0  0  0  0
  9  2  2  0  0  0  0
 11 12  2  0  0  0  0
 11 15  1  0  0  0  0
 12 14  1  0  0  0  0
 14 16  2  0  0  0  0
 15 17  1  0  0  0  0
 16 13  1  0  0  0  0
 16  8  1  0  0  0  0
 17 13  2  0  0  0  0
 18 22  2  0  0  0  0
 19 23  1  0  0  0  0
 19 18  1  0  0  0  0
 21 20  1  0  0  0  0
 22 20  1  0  0  0  0
 22 24  1  0  0  0  0
 23 21  1  0  0  0  0
 24 11  1  0  0  0  0
 25  5  1  0  0  0  0
 26 25  1  0  0  0  0
 28 27  2  0  0  0  0
 28 26  1  0  0  0  0
 29 28  1  0  0  0  0
 31 29  1  0  0  0  0
 31 30  1  1  0  0  0
 32 31  1  0  0  0  0
 34 33  1  6  0  0  0
 34 32  1  0  0  0  0
 35 34  1  0  0  0  0
 36 35  1  0  0  0  0
 37 36  1  0  0  0  0
 39 42  1  0  0  0  0
 39 37  1  0  0  0  0
 40 38  1  0  0  0  0
 40 43  1  0  0  0  0
 41 39  2  0  0  0  0
 43 41  1  0  0  0  0
 44 38  1  0  0  0  0
 44 42  1  0  0  0  0
M  END
>  <MODEL>
1

>  <REMARK>
 VINA RESULT:      -9.4      0.000      0.000
  Name = 
  10 active torsions:
  status: ('A' for Active; 'I' for Inactive)
    1  A    between atoms: C_2  and  N_40
    2  A    between atoms: N_7  and  N_25
    3  A    between atoms: N_8  and  C_39
    4  A    between atoms: C_9  and  N_28
    5  A    between atoms: C_9  and  C_42
    6  A    between atoms: C_23  and  C_39
    7  A    between atoms: N_25  and  N_38
    8  A    between atoms: C_33  and  C_35
    9  A    between atoms: N_38  and  C_41
   10  A    between atoms: C_41  and  C_42
                            x       y       z     vdW  Elec       q    Type
                         _______ _______ _______ _____ _____    ______ ____

>  <TORSDO>
F 10

$$$$
=
 OpenBabel10232407573D

 44 48  0  0  1  0  0  0  0  0999 V2000
  189.1270  173.2810  135.9110 N   0  0  0  0  0  0  0  0  0  0  0  0
  185.5450  173.1310  136.3850 C   0  0  0  0  0  3  0  0  0  0  0  0
  184.8100  175.2400  137.2940 C   0  0  0  0  0  3  0  0  0  0  0  0
  187.1190  174.9150  136.8250 C   0  0  0  0  0  0  0  0  0  0  0  0
  188.4380  175.3900  136.8060 C   0  0  0  0  0  0  0  0  0  0  0  0
  186.0930  175.6930  137.2720 N   0  0  0  0  0  0  0  0  0  0  0  0
  186.8540  173.6120  136.3720 C   0  0  0  0  0  0  0  0  0  0  0  0
  189.4660  174.5270  136.3480 C   0  0  0  0  0  0  0  0  0  0  0  0
  184.5130  173.9480  136.8500 C   0  0  0  0  0  3  0  0  0  0  0  0
  187.8700  172.8370  135.9210 N   0  0  0  0  0  0  0  0  0  0  0  0
  194.0210  175.3940  136.7260 C   0  0  0  0  0  0  0  0  0  0  0  0
  193.1210  174.8120  137.5120 C   0  0  0  0  0  3  0  0  0  0  0  0
  191.3580  175.5760  135.0740 C   0  0  0  0  0  3  0  0  0  0  0  0
  191.6910  174.5820  137.3200 C   0  0  0  0  0  3  0  0  0  0  0  0
  193.7550  175.9410  135.4650 O   0  0  0  0  0  0  0  0  0  0  0  0
  190.9000  174.9130  136.3010 C   0  0  0  0  0  0  0  0  0  0  0  0
  192.5670  176.0070  134.7340 C   0  0  0  0  0  3  0  0  0  0  0  0
  197.6890  175.1620  137.2070 N   0  0  0  0  0  0  0  0  0  0  0  0
  198.9100  174.7250  136.6620 N   0  0  0  0  0  2  0  0  0  0  0  0
  196.5050  174.2740  135.2710 C   0  0  0  0  0  2  0  0  0  0  0  0
  197.8240  174.4020  134.5180 C   0  0  0  0  0  2  0  0  0  0  0  0
  196.5550  175.0010  136.5920 C   0  0  0  0  0  0  0  0  0  0  0  0
  198.9560  173.9520  135.4260 C   0  0  0  0  0  2  0  0  0  0  0  0
  195.3570  175.4550  137.2390 N   0  0  0  0  0  2  0  0  0  0  0  0
  188.7210  176.7930  137.2530 C   0  0  0  0  0  2  0  0  0  0  0  0
  189.1020  176.7880  138.6570 N   0  0  0  0  0  2  0  0  0  0  0  0
  187.6020  178.4710  139.2540 O   0  0  0  0  0  0  0  0  0  0  0  0
  188.5130  177.6760  139.6080 C   0  0  0  0  0  0  0  0  0  0  0  0
  188.9620  177.6870  140.9670 N   0  0  0  0  0  2  0  0  0  0  0  0
  191.3730  177.4590  141.3410 C   0  0  0  0  0  1  0  0  0  0  0  0
  190.0080  176.8170  141.5020 C   0  0  1  0  0  3  0  0  0  0  0  0
  189.7580  176.4710  142.9670 C   0  0  0  0  0  2  0  0  0  0  0  0
  191.4600  176.4930  144.7600 C   0  0  0  0  0  1  0  0  0  0  0  0
  190.5660  177.3600  143.8990 C   0  0  2  0  0  3  0  0  0  0  0  0
  189.6750  178.1270  144.7540 N   0  0  0  0  0  2  0  0  0  0  0  0
  188.8460  177.2040  145.4060 N   0  0  0  0  0  2  0  0  0  0  0  0
  187.7730  177.9300  145.9360 N   0  0  0  0  0  2  0  0  0  0  0  0
  184.4700  178.1870  142.9670 O   0  0  0  0  0  0  0  0  0  0  0  0
  186.5560  178.0690  145.2070 C   0  0  0  0  0  0  0  0  0  0  0  0
  184.2150  179.2980  143.7720 C   0  0  0  0  0  2  0  0  0  0  0  0
  185.5770  178.7330  145.7520 N   0  0  0  0  0  0  0  0  0  0  0  0
  186.4540  177.4840  143.9380 O   0  0  0  0  0  0  0  0  0  0  0  0
  184.2190  178.8620  145.2270 C   0  0  0  0  0  2  0  0  0  0  0  0
  185.8590  178.1490  142.8280 C   0  0  0  0  0  2  0  0  0  0  0  0
  1 10  2  0  0  0  0
  1  8  1  0  0  0  0
  2  9  1  0  0  0  0
  4  6  2  0  0  0  0
  5  4  1  0  0  0  0
  5 25  1  0  0  0  0
  6  3  1  0  0  0  0
  7  2  2  0  0  0  0
  7  4  1  0  0  0  0
  8  5  2  0  0  0  0
  9  3  2  0  0  0  0
 10  7  1  0  0  0  0
 11 24  1  0  0  0  0
 11 12  2  0  0  0  0
 13 16  1  0  0  0  0
 14 12  1  0  0  0  0
 15 11  1  0  0  0  0
 16  8  1  0  0  0  0
 16 14  2  0  0  0  0
 17 13  2  0  0  0  0
 17 15  1  0  0  0  0
 19 18  1  0  0  0  0
 20 22  1  0  0  0  0
 21 20  1  0  0  0  0
 21 23  1  0  0  0  0
 22 18  2  0  0  0  0
 22 24  1  0  0  0  0
 23 19  1  0  0  0  0
 25 26  1  0  0  0  0
 26 28  1  0  0  0  0
 27 28  2  0  0  0  0
 28 29  1  0  0  0  0
 29 31  1  0  0  0  0
 31 30  1  1  0  0  0
 31 32  1  0  0  0  0
 32 34  1  0  0  0  0
 34 35  1  0  0  0  0
 34 33  1  1  0  0  0
 35 36  1  0  0  0  0
 36 37  1  0  0  0  0
 38 40  1  0  0  0  0
 39 41  2  0  0  0  0
 39 37  1  0  0  0  0
 40 43  1  0  0  0  0
 42 39  1  0  0  0  0
 43 41  1  0  0  0  0
 44 38  1  0  0  0  0
 44 42  1  0  0  0  0
M  END
>  <MODEL>
2

>  <REMARK>
 VINA RESULT:      -8.9      4.049     10.582
  Name = 
  10 active torsions:
  status: ('A' for Active; 'I' for Inactive)
    1  A    between atoms: C_2  and  N_40
    2  A    between atoms: N_7  and  N_25
    3  A    between atoms: N_8  and  C_39
    4  A    between atoms: C_9  and  N_28
    5  A    between atoms: C_9  and  C_42
    6  A    between atoms: C_23  and  C_39
    7  A    between atoms: N_25  and  N_38
    8  A    between atoms: C_33  and  C_35
    9  A    between atoms: N_38  and  C_41
   10  A    between atoms: C_41  and  C_42
                            x       y       z     vdW  Elec       q    Type
                         _______ _______ _______ _____ _____    ______ ____

>  <TORSDO>
F 10

$$$$
=
 OpenBabel10232407573D

 44 48  0  0  1  0  0  0  0  0999 V2000
  189.1120  174.0080  136.7810 N   0  0  0  0  0  0  0  0  0  0  0  0
  192.7130  173.9990  137.1010 C   0  0  0  0  0  3  0  0  0  0  0  0
  193.3930  176.0870  138.0990 C   0  0  0  0  0  3  0  0  0  0  0  0
  191.0820  175.6780  137.7110 C   0  0  0  0  0  0  0  0  0  0  0  0
  189.7430  176.0890  137.7780 C   0  0  0  0  0  0  0  0  0  0  0  0
  192.0900  176.4770  138.1610 N   0  0  0  0  0  0  0  0  0  0  0  0
  191.3850  174.4180  137.1710 C   0  0  0  0  0  0  0  0  0  0  0  0
  188.7390  175.2220  137.2770 C   0  0  0  0  0  0  0  0  0  0  0  0
  193.7280  174.8380  137.5670 C   0  0  0  0  0  3  0  0  0  0  0  0
  190.3850  173.6180  136.7280 N   0  0  0  0  0  0  0  0  0  0  0  0
  184.3880  176.8680  137.1930 C   0  0  0  0  0  0  0  0  0  0  0  0
  185.5910  177.4330  137.2210 C   0  0  0  0  0  3  0  0  0  0  0  0
  186.3590  174.4250  137.2270 C   0  0  0  0  0  3  0  0  0  0  0  0
  186.9250  176.8370  137.2530 C   0  0  0  0  0  3  0  0  0  0  0  0
  184.1460  175.4890  137.1860 O   0  0  0  0  0  0  0  0  0  0  0  0
  187.2910  175.5570  137.2770 C   0  0  0  0  0  0  0  0  0  0  0  0
  185.0320  174.4090  137.1910 C   0  0  0  0  0  3  0  0  0  0  0  0
  181.4590  178.9650  138.0650 N   0  0  0  0  0  0  0  0  0  0  0  0
  180.5510  179.3360  139.0740 N   0  0  0  0  0  2  0  0  0  0  0  0
  182.5410  177.4190  139.6070 C   0  0  0  0  0  2  0  0  0  0  0  0
  181.9760  178.2820  140.7290 C   0  0  0  0  0  2  0  0  0  0  0  0
  182.4120  178.1040  138.2680 C   0  0  0  0  0  0  0  0  0  0  0  0
  180.5530  178.6790  140.3760 C   0  0  0  0  0  2  0  0  0  0  0  0
  183.2730  177.7670  137.1720 N   0  0  0  0  0  2  0  0  0  0  0  0
  189.4110  177.4180  138.3890 C   0  0  0  0  0  2  0  0  0  0  0  0
  189.5830  177.3460  139.8310 N   0  0  0  0  0  2  0  0  0  0  0  0
  187.6790  178.6090  140.3010 O   0  0  0  0  0  0  0  0  0  0  0  0
  188.6850  177.9890  140.7370 C   0  0  0  0  0  0  0  0  0  0  0  0
  188.9270  177.9510  142.1480 N   0  0  0  0  0  2  0  0  0  0  0  0
  191.2610  178.1820  142.8570 C   0  0  0  0  0  1  0  0  0  0  0  0
  190.0540  177.2660  142.7790 C   0  0  1  0  0  3  0  0  0  0  0  0
  189.6930  176.7510  144.1680 C   0  0  0  0  0  2  0  0  0  0  0  0
  191.2380  176.6470  146.0960 C   0  0  0  0  0  1  0  0  0  0  0  0
  190.3690  177.5630  145.2610 C   0  0  2  0  0  3  0  0  0  0  0  0
  189.3670  178.1810  146.1150 N   0  0  0  0  0  2  0  0  0  0  0  0
  188.3080  177.2710  146.2200 N   0  0  0  0  0  2  0  0  0  0  0  0
  187.1820  178.0060  146.6110 N   0  0  0  0  0  2  0  0  0  0  0  0
  184.2660  178.2540  143.2610 O   0  0  0  0  0  0  0  0  0  0  0  0
  186.0630  178.1450  145.7390 C   0  0  0  0  0  0  0  0  0  0  0  0
  183.9210  179.3730  144.0210 C   0  0  0  0  0  2  0  0  0  0  0  0
  185.0290  178.8170  146.1560 N   0  0  0  0  0  0  0  0  0  0  0  0
  186.1130  177.5500  144.4710 O   0  0  0  0  0  0  0  0  0  0  0  0
  183.7450  178.9480  145.4690 C   0  0  0  0  0  2  0  0  0  0  0  0
  185.6610  178.2090  143.2920 C   0  0  0  0  0  2  0  0  0  0  0  0
  1  8  1  0  0  0  0
  2  7  2  0  0  0  0
  2  9  1  0  0  0  0
  3  6  1  0  0  0  0
  4  5  1  0  0  0  0
  4  6  2  0  0  0  0
  5 25  1  0  0  0  0
  7  4  1  0  0  0  0
  8 16  1  0  0  0  0
  8  5  2  0  0  0  0
  9  3  2  0  0  0  0
 10  1  2  0  0  0  0
 10  7  1  0  0  0  0
 11 12  2  0  0  0  0
 12 14  1  0  0  0  0
 13 16  1  0  0  0  0
 14 16  2  0  0  0  0
 15 17  1  0  0  0  0
 15 11  1  0  0  0  0
 17 13  2  0  0  0  0
 18 22  2  0  0  0  0
 18 19  1  0  0  0  0
 19 23  1  0  0  0  0
 20 21  1  0  0  0  0
 22 20  1  0  0  0  0
 23 21  1  0  0  0  0
 24 11  1  0  0  0  0
 24 22  1  0  0  0  0
 25 26  1  0  0  0  0
 26 28  1  0  0  0  0
 27 28  2  0  0  0  0
 28 29  1  0  0  0  0
 29 31  1  0  0  0  0
 31 30  1  1  0  0  0
 31 32  1  0  0  0  0
 32 34  1  0  0  0  0
 34 33  1  1  0  0  0
 34 35  1  0  0  0  0
 35 36  1  0  0  0  0
 36 37  1  0  0  0  0
 38 44  1  0  0  0  0
 38 40  1  0  0  0  0
 39 41  2  0  0  0  0
 39 37  1  0  0  0  0
 40 43  1  0  0  0  0
 42 39  1  0  0  0  0
 43 41  1  0  0  0  0
 44 42  1  0  0  0  0
M  END
>  <MODEL>
3

>  <REMARK>
 VINA RESULT:      -8.9      2.180      7.283
  Name = 
  10 active torsions:
  status: ('A' for Active; 'I' for Inactive)
    1  A    between atoms: C_2  and  N_40
    2  A    between atoms: N_7  and  N_25
    3  A    between atoms: N_8  and  C_39
    4  A    between atoms: C_9  and  N_28
    5  A    between atoms: C_9  and  C_42
    6  A    between atoms: C_23  and  C_39
    7  A    between atoms: N_25  and  N_38
    8  A    between atoms: C_33  and  C_35
    9  A    between atoms: N_38  and  C_41
   10  A    between atoms: C_41  and  C_42
                            x       y       z     vdW  Elec       q    Type
                         _______ _______ _______ _____ _____    ______ ____

>  <TORSDO>
F 10

$$$$
=
 OpenBabel10232407573D

 44 48  0  0  1  0  0  0  0  0999 V2000
  190.8110  175.4130  138.9380 N   0  0  0  0  0  0  0  0  0  0  0  0
  190.1220  175.3710  135.3880 C   0  0  0  0  0  3  0  0  0  0  0  0
  188.9360  177.3920  134.8200 C   0  0  0  0  0  3  0  0  0  0  0  0
  189.5890  177.0200  137.0770 C   0  0  0  0  0  0  0  0  0  0  0  0
  189.6410  177.4340  138.4150 C   0  0  0  0  0  0  0  0  0  0  0  0
  188.9910  177.7860  136.1220 N   0  0  0  0  0  0  0  0  0  0  0  0
  190.1670  175.7910  136.7180 C   0  0  0  0  0  0  0  0  0  0  0  0
  190.2600  176.5850  139.3680 C   0  0  0  0  0  0  0  0  0  0  0  0
  189.5010  176.1750  134.4300 C   0  0  0  0  0  3  0  0  0  0  0  0
  190.7680  175.0280  137.6620 N   0  0  0  0  0  0  0  0  0  0  0  0
  190.0430  177.2530  143.9660 C   0  0  0  0  0  0  0  0  0  0  0  0
  189.2260  176.7080  143.0710 C   0  0  0  0  0  3  0  0  0  0  0  0
  191.5990  177.5550  141.2560 C   0  0  0  0  0  3  0  0  0  0  0  0
  189.3680  176.5410  141.6250 C   0  0  0  0  0  3  0  0  0  0  0  0
  191.2930  177.8150  143.6790 O   0  0  0  0  0  0  0  0  0  0  0  0
  190.3570  176.9080  140.8140 C   0  0  0  0  0  0  0  0  0  0  0  0
  191.9820  177.9350  142.4700 C   0  0  0  0  0  3  0  0  0  0  0  0
  188.0310  177.5580  147.0640 N   0  0  0  0  0  0  0  0  0  0  0  0
  186.7970  177.9450  147.6180 N   0  0  0  0  0  2  0  0  0  0  0  0
  187.2530  178.2340  144.8560 C   0  0  0  0  0  2  0  0  0  0  0  0
  185.8390  178.0380  145.3920 C   0  0  0  0  0  2  0  0  0  0  0  0
  188.2810  177.6470  145.7910 C   0  0  0  0  0  0  0  0  0  0  0  0
  185.7680  178.5860  146.8070 C   0  0  0  0  0  2  0  0  0  0  0  0
  189.5780  177.2550  145.3210 N   0  0  0  0  0  2  0  0  0  0  0  0
  189.0590  178.7620  138.7970 C   0  0  0  0  0  2  0  0  0  0  0  0
  187.7830  178.5590  139.4660 N   0  0  0  0  0  2  0  0  0  0  0  0
  186.5110  179.0190  137.5650 O   0  0  0  0  0  0  0  0  0  0  0  0
  186.5360  178.7260  138.7910 C   0  0  0  0  0  0  0  0  0  0  0  0
  185.3010  178.5830  139.5010 N   0  0  0  0  0  2  0  0  0  0  0  0
  185.6070  179.4240  141.7820 C   0  0  0  0  0  1  0  0  0  0  0  0
  185.1930  178.2460  140.9190 C   0  0  1  0  0  3  0  0  0  0  0  0
  183.7830  177.7940  141.2840 C   0  0  0  0  0  2  0  0  0  0  0  0
  181.6420  178.3640  140.1870 C   0  0  0  0  0  1  0  0  0  0  0  0
  182.9260  177.5750  140.0480 C   0  0  2  0  0  3  0  0  0  0  0  0
  182.6070  176.1630  139.9060 N   0  0  0  0  0  2  0  0  0  0  0  0
  182.4430  175.9200  138.5360 N   0  0  0  0  0  2  0  0  0  0  0  0
  183.6510  176.2650  137.9190 N   0  0  0  0  0  2  0  0  0  0  0  0
  185.8230  172.6010  136.6360 O   0  0  0  0  0  0  0  0  0  0  0  0
  184.4830  175.2640  137.3360 C   0  0  0  0  0  0  0  0  0  0  0  0
  186.8640  173.5240  136.7450 C   0  0  0  0  0  2  0  0  0  0  0  0
  185.5850  175.6350  136.7500 N   0  0  0  0  0  0  0  0  0  0  0  0
  184.0840  173.9230  137.4080 O   0  0  0  0  0  0  0  0  0  0  0  0
  186.4880  174.7820  135.9810 C   0  0  0  0  0  2  0  0  0  0  0  0
  184.9860  172.8660  137.7210 C   0  0  0  0  0  2  0  0  0  0  0  0
  1  8  1  0  0  0  0
  2  7  1  0  0  0  0
  3  6  2  0  0  0  0
  4  5  1  0  0  0  0
  5 25  1  0  0  0  0
  5  8  2  0  0  0  0
  6  4  1  0  0  0  0
  7  4  2  0  0  0  0
  7 10  1  0  0  0  0
  8 16  1  0  0  0  0
  9  3  1  0  0  0  0
  9  2  2  0  0  0  0
 10  1  2  0  0  0  0
 11 24  1  0  0  0  0
 12 11  2  0  0  0  0
 13 17  2  0  0  0  0
 14 12  1  0  0  0  0
 15 11  1  0  0  0  0
 16 13  1  0  0  0  0
 16 14  2  0  0  0  0
 17 15  1  0  0  0  0
 18 19  1  0  0  0  0
 20 21  1  0  0  0  0
 20 22  1  0  0  0  0
 21 23  1  0  0  0  0
 22 18  2  0  0  0  0
 23 19  1  0  0  0  0
 24 22  1  0  0  0  0
 25 26  1  0  0  0  0
 27 28  2  0  0  0  0
 28 26  1  0  0  0  0
 28 29  1  0  0  0  0
 29 31  1  0  0  0  0
 31 32  1  0  0  0  0
 31 30  1  1  0  0  0
 34 33  1  1  0  0  0
 34 32  1  0  0  0  0
 35 34  1  0  0  0  0
 36 35  1  0  0  0  0
 37 36  1  0  0  0  0
 38 40  1  0  0  0  0
 38 44  1  0  0  0  0
 39 42  1  0  0  0  0
 39 37  1  0  0  0  0
 41 39  2  0  0  0  0
 42 44  1  0  0  0  0
 43 40  1  0  0  0  0
 43 41  1  0  0  0  0
M  END
>  <MODEL>
4

>  <REMARK>
 VINA RESULT:      -8.9      2.312      8.383
  Name = 
  10 active torsions:
  status: ('A' for Active; 'I' for Inactive)
    1  A    between atoms: C_2  and  N_40
    2  A    between atoms: N_7  and  N_25
    3  A    between atoms: N_8  and  C_39
    4  A    between atoms: C_9  and  N_28
    5  A    between atoms: C_9  and  C_42
    6  A    between atoms: C_23  and  C_39
    7  A    between atoms: N_25  and  N_38
    8  A    between atoms: C_33  and  C_35
    9  A    between atoms: N_38  and  C_41
   10  A    between atoms: C_41  and  C_42
                            x       y       z     vdW  Elec       q    Type
                         _______ _______ _______ _____ _____    ______ ____

>  <TORSDO>
F 10

$$$$
=
 OpenBabel10232407573D

 44 48  0  0  1  0  0  0  0  0999 V2000
  187.1360  175.1260  136.4140 N   0  0  0  0  0  0  0  0  0  0  0  0
  184.0320  176.7500  137.3070 C   0  0  0  0  0  3  0  0  0  0  0  0
  184.5520  178.7760  138.5070 C   0  0  0  0  0  3  0  0  0  0  0  0
  186.3250  177.3960  137.7280 C   0  0  0  0  0  0  0  0  0  0  0  0
  187.6950  177.1300  137.5950 C   0  0  0  0  0  0  0  0  0  0  0  0
  185.8800  178.5110  138.3730 N   0  0  0  0  0  0  0  0  0  0  0  0
  185.3970  176.4940  137.1820 C   0  0  0  0  0  0  0  0  0  0  0  0
  188.0980  175.9440  136.9300 C   0  0  0  0  0  0  0  0  0  0  0  0
  183.6030  177.8990  137.9760 C   0  0  0  0  0  3  0  0  0  0  0  0
  185.8350  175.3880  136.5350 N   0  0  0  0  0  0  0  0  0  0  0  0
  192.6640  175.3210  136.2980 C   0  0  0  0  0  0  0  0  0  0  0  0
  191.8520  176.3700  136.2110 C   0  0  0  0  0  3  0  0  0  0  0  0
  189.8440  174.1430  137.0150 C   0  0  0  0  0  3  0  0  0  0  0  0
  190.4100  176.4810  136.4220 C   0  0  0  0  0  3  0  0  0  0  0  0
  192.2680  174.0220  136.6360 O   0  0  0  0  0  0  0  0  0  0  0  0
  189.5180  175.5480  136.7460 C   0  0  0  0  0  0  0  0  0  0  0  0
  191.0100  173.5090  136.9640 C   0  0  0  0  0  3  0  0  0  0  0  0
  196.3670  175.4830  136.3770 N   0  0  0  0  0  0  0  0  0  0  0  0
  197.5310  175.1690  137.1020 N   0  0  0  0  0  2  0  0  0  0  0  0
  195.0020  174.5330  138.1580 C   0  0  0  0  0  2  0  0  0  0  0  0
  196.2300  173.7160  138.5420 C   0  0  0  0  0  2  0  0  0  0  0  0
  195.1760  175.1870  136.8090 C   0  0  0  0  0  0  0  0  0  0  0  0
  197.4610  174.6010  138.4420 C   0  0  0  0  0  2  0  0  0  0  0  0
  194.0460  175.5720  136.0150 N   0  0  0  0  0  2  0  0  0  0  0  0
  188.6910  178.1090  138.1430 C   0  0  0  0  0  2  0  0  0  0  0  0
  189.1530  177.6540  139.4450 N   0  0  0  0  0  2  0  0  0  0  0  0
  187.7970  179.1290  140.6390 O   0  0  0  0  0  0  0  0  0  0  0  0
  188.6770  178.2280  140.6630 C   0  0  0  0  0  0  0  0  0  0  0  0
  189.2060  177.7990  141.9220 N   0  0  0  0  0  2  0  0  0  0  0  0
  191.5980  177.3040  141.7270 C   0  0  0  0  0  1  0  0  0  0  0  0
  190.2250  176.7640  142.0860 C   0  0  1  0  0  3  0  0  0  0  0  0
  190.2340  176.2010  143.5040 C   0  0  0  0  0  2  0  0  0  0  0  0
  191.6610  176.3990  145.5140 C   0  0  0  0  0  1  0  0  0  0  0  0
  190.8600  177.1750  144.4890 C   0  0  2  0  0  3  0  0  0  0  0  0
  189.8230  177.9330  145.1690 N   0  0  0  0  0  2  0  0  0  0  0  0
  188.9230  177.0010  145.7020 N   0  0  0  0  0  2  0  0  0  0  0  0
  187.8980  177.7340  146.3130 N   0  0  0  0  0  2  0  0  0  0  0  0
  184.4630  178.1950  143.5250 O   0  0  0  0  0  0  0  0  0  0  0  0
  186.6510  177.9340  145.6520 C   0  0  0  0  0  0  0  0  0  0  0  0
  184.2790  179.2800  144.3840 C   0  0  0  0  0  2  0  0  0  0  0  0
  185.7190  178.6010  146.2700 N   0  0  0  0  0  0  0  0  0  0  0  0
  186.4710  177.4030  144.3670 O   0  0  0  0  0  0  0  0  0  0  0  0
  184.3410  178.7870  145.8190 C   0  0  0  0  0  2  0  0  0  0  0  0
  185.8420  178.1270  143.3150 C   0  0  0  0  0  2  0  0  0  0  0  0
  1 10  2  0  0  0  0
  1  8  1  0  0  0  0
  2  9  1  0  0  0  0
  4  6  2  0  0  0  0
  5  4  1  0  0  0  0
  5 25  1  0  0  0  0
  6  3  1  0  0  0  0
  7  2  2  0  0  0  0
  7  4  1  0  0  0  0
  8  5  2  0  0  0  0
  9  3  2  0  0  0  0
 10  7  1  0  0  0  0
 11 15  1  0  0  0  0
 12 11  2  0  0  0  0
 12 14  1  0  0  0  0
 14 16  2  0  0  0  0
 15 17  1  0  0  0  0
 16  8  1  0  0  0  0
 16 13  1  0  0  0  0
 17 13  2  0  0  0  0
 18 22  2  0  0  0  0
 18 19  1  0  0  0  0
 19 23  1  0  0  0  0
 20 21  1  0  0  0  0
 22 20  1  0  0  0  0
 23 21  1  0  0  0  0
 24 11  1  0  0  0  0
 24 22  1  0  0  0  0
 25 26  1  0  0  0  0
 26 28  1  0  0  0  0
 27 28  2  0  0  0  0
 28 29  1  0  0  0  0
 29 31  1  0  0  0  0
 31 30  1  1  0  0  0
 31 32  1  0  0  0  0
 32 34  1  0  0  0  0
 34 35  1  0  0  0  0
 34 33  1  1  0  0  0
 35 36  1  0  0  0  0
 36 37  1  0  0  0  0
 38 40  1  0  0  0  0
 39 41  2  0  0  0  0
 39 37  1  0  0  0  0
 40 43  1  0  0  0  0
 42 39  1  0  0  0  0
 43 41  1  0  0  0  0
 44 38  1  0  0  0  0
 44 42  1  0  0  0  0
M  END
>  <MODEL>
5

>  <REMARK>
 VINA RESULT:      -8.9      3.247      9.689
  Name = 
  10 active torsions:
  status: ('A' for Active; 'I' for Inactive)
    1  A    between atoms: C_2  and  N_40
    2  A    between atoms: N_7  and  N_25
    3  A    between atoms: N_8  and  C_39
    4  A    between atoms: C_9  and  N_28
    5  A    between atoms: C_9  and  C_42
    6  A    between atoms: C_23  and  C_39
    7  A    between atoms: N_25  and  N_38
    8  A    between atoms: C_33  and  C_35
    9  A    between atoms: N_38  and  C_41
   10  A    between atoms: C_41  and  C_42
                            x       y       z     vdW  Elec       q    Type
                         _______ _______ _______ _____ _____    ______ ____

>  <TORSDO>
F 10

$$$$
=
 OpenBabel10232407573D

 44 48  0  0  1  0  0  0  0  0999 V2000
  185.4470  174.1450  136.6990 N   0  0  0  0  0  0  0  0  0  0  0  0
  181.8960  174.0010  137.3660 C   0  0  0  0  0  3  0  0  0  0  0  0
  181.1520  176.2050  138.0020 C   0  0  0  0  0  3  0  0  0  0  0  0
  183.4440  175.8570  137.4710 C   0  0  0  0  0  0  0  0  0  0  0  0
  184.7490  176.3470  137.3190 C   0  0  0  0  0  0  0  0  0  0  0  0
  182.4220  176.6730  137.8530 N   0  0  0  0  0  0  0  0  0  0  0  0
  183.1910  174.4990  137.2200 C   0  0  0  0  0  0  0  0  0  0  0  0
  185.7760  175.4470  136.9380 C   0  0  0  0  0  0  0  0  0  0  0  0
  180.8670  174.8580  137.7610 C   0  0  0  0  0  3  0  0  0  0  0  0
  184.2030  173.6850  136.8350 N   0  0  0  0  0  0  0  0  0  0  0  0
  190.3040  176.5100  136.9940 C   0  0  0  0  0  0  0  0  0  0  0  0
  189.4320  176.1290  137.9210 C   0  0  0  0  0  3  0  0  0  0  0  0
  187.6190  176.1800  135.4010 C   0  0  0  0  0  3  0  0  0  0  0  0
  188.0070  175.8160  137.8210 C   0  0  0  0  0  3  0  0  0  0  0  0
  190.0070  176.7010  135.6390 O   0  0  0  0  0  0  0  0  0  0  0  0
  187.1960  175.8470  136.7660 C   0  0  0  0  0  0  0  0  0  0  0  0
  188.8110  176.5410  134.9380 C   0  0  0  0  0  3  0  0  0  0  0  0
  193.8580  176.1720  137.9930 N   0  0  0  0  0  0  0  0  0  0  0  0
  194.9350  175.2880  138.1810 N   0  0  0  0  0  2  0  0  0  0  0  0
  192.4350  174.3020  137.3470 C   0  0  0  0  0  2  0  0  0  0  0  0
  193.7190  173.5670  136.9800 C   0  0  0  0  0  2  0  0  0  0  0  0
  192.6900  175.7700  137.5840 C   0  0  0  0  0  0  0  0  0  0  0  0
  194.7670  173.8460  138.0440 C   0  0  0  0  0  2  0  0  0  0  0  0
  191.6430  176.7410  137.4490 N   0  0  0  0  0  2  0  0  0  0  0  0
  185.0180  177.8050  137.5480 C   0  0  0  0  0  2  0  0  0  0  0  0
  185.4490  178.0090  138.9220 N   0  0  0  0  0  2  0  0  0  0  0  0
  184.3600  180.0600  139.1480 O   0  0  0  0  0  0  0  0  0  0  0  0
  185.1000  179.1800  139.6630 C   0  0  0  0  0  0  0  0  0  0  0  0
  185.6000  179.3740  140.9900 N   0  0  0  0  0  2  0  0  0  0  0  0
  187.8520  178.4130  141.0870 C   0  0  0  0  0  1  0  0  0  0  0  0
  186.4630  178.4320  141.6990 C   0  0  1  0  0  3  0  0  0  0  0  0
  186.5470  178.7550  143.1870 C   0  0  0  0  0  2  0  0  0  0  0  0
  184.4880  179.0580  144.5220 C   0  0  0  0  0  1  0  0  0  0  0  0
  185.4660  178.0370  143.9790 C   0  0  2  0  0  3  0  0  0  0  0  0
  186.0600  177.3080  145.0870 N   0  0  0  0  0  2  0  0  0  0  0  0
  186.5580  178.2650  145.9810 N   0  0  0  0  0  2  0  0  0  0  0  0
  187.4230  177.5910  146.8520 N   0  0  0  0  0  2  0  0  0  0  0  0
  191.5720  177.6470  145.2490 O   0  0  0  0  0  0  0  0  0  0  0  0
  188.8260  177.5550  146.6030 C   0  0  0  0  0  0  0  0  0  0  0  0
  191.6050  176.5280  146.0820 C   0  0  0  0  0  2  0  0  0  0  0  0
  189.5940  176.9380  147.4540 N   0  0  0  0  0  0  0  0  0  0  0  0
  189.3280  178.1880  145.4570 O   0  0  0  0  0  0  0  0  0  0  0  0
  191.0550  176.9130  147.4450 C   0  0  0  0  0  2  0  0  0  0  0  0
  190.3230  177.6000  144.6250 C   0  0  0  0  0  2  0  0  0  0  0  0
  1 10  2  0  0  0  0
  1  8  1  0  0  0  0
  2  9  1  0  0  0  0
  4  6  2  0  0  0  0
  5  4  1  0  0  0  0
  5 25  1  0  0  0  0
  6  3  1  0  0  0  0
  7  2  2  0  0  0  0
  7  4  1  0  0  0  0
  8  5  2  0  0  0  0
  9  3  2  0  0  0  0
 10  7  1  0  0  0  0
 11 24  1  0  0  0  0
 11 12  2  0  0  0  0
 13 16  1  0  0  0  0
 14 12  1  0  0  0  0
 15 11  1  0  0  0  0
 16  8  1  0  0  0  0
 16 14  2  0  0  0  0
 17 13  2  0  0  0  0
 17 15  1  0  0  0  0
 18 19  1  0  0  0  0
 20 22  1  0  0  0  0
 21 20  1  0  0  0  0
 21 23  1  0  0  0  0
 22 18  2  0  0  0  0
 23 19  1  0  0  0  0
 24 22  1  0  0  0  0
 25 26  1  0  0  0  0
 26 28  1  0  0  0  0
 27 28  2  0  0  0  0
 28 29  1  0  0  0  0
 29 31  1  0  0  0  0
 31 30  1  6  0  0  0
 31 32  1  0  0  0  0
 32 34  1  0  0  0  0
 34 33  1  1  0  0  0
 34 35  1  0  0  0  0
 35 36  1  0  0  0  0
 36 37  1  0  0  0  0
 38 40  1  0  0  0  0
 39 37  1  0  0  0  0
 39 41  2  0  0  0  0
 40 43  1  0  0  0  0
 42 39  1  0  0  0  0
 43 41  1  0  0  0  0
 44 38  1  0  0  0  0
 44 42  1  0  0  0  0
M  END
>  <MODEL>
6

>  <REMARK>
 VINA RESULT:      -8.7      2.779      9.744
  Name = 
  10 active torsions:
  status: ('A' for Active; 'I' for Inactive)
    1  A    between atoms: C_2  and  N_40
    2  A    between atoms: N_7  and  N_25
    3  A    between atoms: N_8  and  C_39
    4  A    between atoms: C_9  and  N_28
    5  A    between atoms: C_9  and  C_42
    6  A    between atoms: C_23  and  C_39
    7  A    between atoms: N_25  and  N_38
    8  A    between atoms: C_33  and  C_35
    9  A    between atoms: N_38  and  C_41
   10  A    between atoms: C_41  and  C_42
                            x       y       z     vdW  Elec       q    Type
                         _______ _______ _______ _____ _____    ______ ____

>  <TORSDO>
F 10

$$$$
=
 OpenBabel10232407573D

 44 48  0  0  1  0  0  0  0  0999 V2000
  183.2270  178.2870  143.1710 N   0  0  0  0  0  0  0  0  0  0  0  0
  182.0490  179.0170  139.8310 C   0  0  0  0  0  3  0  0  0  0  0  0
  183.9250  179.7570  138.5080 C   0  0  0  0  0  3  0  0  0  0  0  0
  184.2670  179.1670  140.7870 C   0  0  0  0  0  0  0  0  0  0  0  0
  185.1150  179.0100  141.8920 C   0  0  0  0  0  0  0  0  0  0  0  0
  184.7420  179.6020  139.5860 N   0  0  0  0  0  0  0  0  0  0  0  0
  182.9020  178.8660  140.9250 C   0  0  0  0  0  0  0  0  0  0  0  0
  184.5600  178.5720  143.1210 C   0  0  0  0  0  0  0  0  0  0  0  0
  182.5620  179.4670  138.6120 C   0  0  0  0  0  3  0  0  0  0  0  0
  182.4260  178.4280  142.1150 N   0  0  0  0  0  0  0  0  0  0  0  0
  187.4880  177.7300  146.6360 C   0  0  0  0  0  0  0  0  0  0  0  0
  187.4590  177.3840  145.3530 C   0  0  0  0  0  3  0  0  0  0  0  0
  184.8600  179.0700  145.5630 C   0  0  0  0  0  3  0  0  0  0  0  0
  186.4880  177.6900  144.3040 C   0  0  0  0  0  3  0  0  0  0  0  0
  186.5230  178.5130  147.2820 O   0  0  0  0  0  0  0  0  0  0  0  0
  185.3560  178.3880  144.3620 C   0  0  0  0  0  0  0  0  0  0  0  0
  185.3610  179.1130  146.7920 C   0  0  0  0  0  3  0  0  0  0  0  0
  190.7730  176.3990  147.7240 N   0  0  0  0  0  0  0  0  0  0  0  0
  192.0240  175.9070  147.3110 N   0  0  0  0  0  2  0  0  0  0  0  0
  190.1040  176.6550  145.3950 C   0  0  0  0  0  2  0  0  0  0  0  0
  191.5920  176.7180  145.0670 C   0  0  0  0  0  2  0  0  0  0  0  0
  189.8620  176.7830  146.8780 C   0  0  0  0  0  0  0  0  0  0  0  0
  192.3240  175.6820  145.9020 C   0  0  0  0  0  2  0  0  0  0  0  0
  188.6050  177.2450  147.3910 N   0  0  0  0  0  2  0  0  0  0  0  0
  186.5810  179.2930  141.7400 C   0  0  0  0  0  2  0  0  0  0  0  0
  187.0780  178.6440  140.5370 N   0  0  0  0  0  2  0  0  0  0  0  0
  189.0350  177.8740  141.5470 O   0  0  0  0  0  0  0  0  0  0  0  0
  188.3340  177.9650  140.5040 C   0  0  0  0  0  0  0  0  0  0  0  0
  188.8200  177.3970  139.2830 N   0  0  0  0  0  2  0  0  0  0  0  0
  188.9380  178.1280  136.9470 C   0  0  0  0  0  1  0  0  0  0  0  0
  188.1050  177.4330  138.0090 C   0  0  1  0  0  3  0  0  0  0  0  0
  187.7170  176.0340  137.5400 C   0  0  0  0  0  2  0  0  0  0  0  0
  186.7120  176.0480  135.2810 C   0  0  0  0  0  1  0  0  0  0  0  0
  187.9950  175.8410  136.0580 C   0  0  2  0  0  3  0  0  0  0  0  0
  188.4900  174.4960  135.8140 N   0  0  0  0  0  2  0  0  0  0  0  0
  189.0340  174.0400  137.0220 N   0  0  0  0  0  2  0  0  0  0  0  0
  190.3070  173.5370  136.7260 N   0  0  0  0  0  2  0  0  0  0  0  0
  193.4430  176.1850  138.4420 O   0  0  0  0  0  0  0  0  0  0  0  0
  191.4770  174.1610  137.2510 C   0  0  0  0  0  0  0  0  0  0  0  0
  194.1390  175.5520  137.4100 C   0  0  0  0  0  2  0  0  0  0  0  0
  192.6380  173.6440  136.9690 N   0  0  0  0  0  0  0  0  0  0  0  0
  191.3360  175.3030  138.0520 O   0  0  0  0  0  0  0  0  0  0  0  0
  193.9270  174.0530  137.5220 C   0  0  0  0  0  2  0  0  0  0  0  0
  192.1740  176.4460  137.9200 C   0  0  0  0  0  2  0  0  0  0  0  0
  2  7  1  0  0  0  0
  3  9  1  0  0  0  0
  3  6  2  0  0  0  0
  4  7  2  0  0  0  0
  4  5  1  0  0  0  0
  5  8  2  0  0  0  0
  6  4  1  0  0  0  0
  7 10  1  0  0  0  0
  8  1  1  0  0  0  0
  8 16  1  0  0  0  0
  9  2  2  0  0  0  0
 10  1  2  0  0  0  0
 11 15  1  0  0  0  0
 11 24  1  0  0  0  0
 12 11  2  0  0  0  0
 13 17  2  0  0  0  0
 14 16  2  0  0  0  0
 14 12  1  0  0  0  0
 16 13  1  0  0  0  0
 17 15  1  0  0  0  0
 19 18  1  0  0  0  0
 20 22  1  0  0  0  0
 21 20  1  0  0  0  0
 21 23  1  0  0  0  0
 22 24  1  0  0  0  0
 22 18  2  0  0  0  0
 23 19  1  0  0  0  0
 25  5  1  0  0  0  0
 26 25  1  0  0  0  0
 28 26  1  0  0  0  0
 28 27  2  0  0  0  0
 29 28  1  0  0  0  0
 31 30  1  6  0  0  0
 31 29  1  0  0  0  0
 32 31  1  0  0  0  0
 34 33  1  6  0  0  0
 34 32  1  0  0  0  0
 35 34  1  0  0  0  0
 35 36  1  0  0  0  0
 37 36  1  0  0  0  0
 37 39  1  0  0  0  0
 39 42  1  0  0  0  0
 40 43  1  0  0  0  0
 40 38  1  0  0  0  0
 41 39  2  0  0  0  0
 41 43  1  0  0  0  0
 44 42  1  0  0  0  0
 44 38  1  0  0  0  0
M  END
>  <MODEL>
7

>  <REMARK>
 VINA RESULT:      -8.7      2.852      7.597
  Name = 
  10 active torsions:
  status: ('A' for Active; 'I' for Inactive)
    1  A    between atoms: C_2  and  N_40
    2  A    between atoms: N_7  and  N_25
    3  A    between atoms: N_8  and  C_39
    4  A    between atoms: C_9  and  N_28
    5  A    between atoms: C_9  and  C_42
    6  A    between atoms: C_23  and  C_39
    7  A    between atoms: N_25  and  N_38
    8  A    between atoms: C_33  and  C_35
    9  A    between atoms: N_38  and  C_41
   10  A    between atoms: C_41  and  C_42
                            x       y       z     vdW  Elec       q    Type
                         _______ _______ _______ _____ _____    ______ ____

>  <TORSDO>
F 10

$$$$
=
 OpenBabel10232407573D

 44 48  0  0  1  0  0  0  0  0999 V2000
  189.5220  176.3320  142.3890 N   0  0  0  0  0  0  0  0  0  0  0  0
  186.4040  177.4000  143.8760 C   0  0  0  0  0  3  0  0  0  0  0  0
  185.4310  179.0960  142.4660 C   0  0  0  0  0  3  0  0  0  0  0  0
  187.5060  178.1140  141.8440 C   0  0  0  0  0  0  0  0  0  0  0  0
  188.5880  178.0070  140.9590 C   0  0  0  0  0  0  0  0  0  0  0  0
  186.4850  178.9870  141.6120 N   0  0  0  0  0  0  0  0  0  0  0  0
  187.4760  177.3030  142.9900 C   0  0  0  0  0  0  0  0  0  0  0  0
  189.6300  177.0960  141.2640 C   0  0  0  0  0  0  0  0  0  0  0  0
  185.3720  178.3040  143.6150 C   0  0  0  0  0  3  0  0  0  0  0  0
  188.4860  176.4300  143.2220 N   0  0  0  0  0  0  0  0  0  0  0  0
  193.0100  176.2380  138.1850 C   0  0  0  0  0  0  0  0  0  0  0  0
  191.7340  175.8780  138.2820 C   0  0  0  0  0  3  0  0  0  0  0  0
  192.0480  177.6150  140.8370 C   0  0  0  0  0  3  0  0  0  0  0  0
  190.7290  176.1900  139.2980 C   0  0  0  0  0  3  0  0  0  0  0  0
  193.6920  177.0460  139.1030 O   0  0  0  0  0  0  0  0  0  0  0  0
  190.8330  176.9110  140.4120 C   0  0  0  0  0  0  0  0  0  0  0  0
  193.2510  177.6630  140.2760 C   0  0  0  0  0  3  0  0  0  0  0  0
  195.1790  174.3260  135.8650 N   0  0  0  0  0  0  0  0  0  0  0  0
  196.1250  173.2920  135.7400 N   0  0  0  0  0  2  0  0  0  0  0  0
  195.0900  173.9550  138.2720 C   0  0  0  0  0  2  0  0  0  0  0  0
  195.5850  172.5430  137.9830 C   0  0  0  0  0  2  0  0  0  0  0  0
  194.6520  174.6540  137.0080 C   0  0  0  0  0  0  0  0  0  0  0  0
  196.6600  172.6080  136.9110 C   0  0  0  0  0  2  0  0  0  0  0  0
  193.7160  175.7400  137.0420 N   0  0  0  0  0  2  0  0  0  0  0  0
  188.6050  178.8440  139.7140 C   0  0  0  0  0  2  0  0  0  0  0  0
  187.9530  178.1210  138.6330 N   0  0  0  0  0  2  0  0  0  0  0  0
  189.3080  179.0310  136.9670 O   0  0  0  0  0  0  0  0  0  0  0  0
  188.3440  178.2790  137.2690 C   0  0  0  0  0  0  0  0  0  0  0  0
  187.6340  177.6000  136.2270 N   0  0  0  0  0  2  0  0  0  0  0  0
  185.2380  177.2750  135.8280 C   0  0  0  0  0  1  0  0  0  0  0  0
  186.5010  176.7020  136.4440 C   0  0  1  0  0  3  0  0  0  0  0  0
  186.7740  175.3080  135.8870 C   0  0  0  0  0  2  0  0  0  0  0  0
  188.7090  174.1140  136.8570 C   0  0  0  0  0  1  0  0  0  0  0  0
  187.2180  174.3460  136.9770 C   0  0  2  0  0  3  0  0  0  0  0  0
  186.5240  173.0760  136.8340 N   0  0  0  0  0  2  0  0  0  0  0  0
  185.6130  172.9910  137.8960 N   0  0  0  0  0  2  0  0  0  0  0  0
  184.3450  172.8280  137.3270 N   0  0  0  0  0  2  0  0  0  0  0  0
  181.8400  176.4240  138.0930 O   0  0  0  0  0  0  0  0  0  0  0  0
  183.3910  173.8870  137.3560 C   0  0  0  0  0  0  0  0  0  0  0  0
  180.8700  175.4410  137.8860 C   0  0  0  0  0  2  0  0  0  0  0  0
  182.2330  173.6980  136.7920 N   0  0  0  0  0  0  0  0  0  0  0  0
  183.7330  175.0920  137.9850 O   0  0  0  0  0  0  0  0  0  0  0  0
  181.1880  174.7010  136.5980 C   0  0  0  0  0  2  0  0  0  0  0  0
  182.8400  175.7970  138.8400 C   0  0  0  0  0  2  0  0  0  0  0  0
  1 10  1  0  0  0  0
  3  9  1  0  0  0  0
  4  7  1  0  0  0  0
  5  8  1  0  0  0  0
  5  4  2  0  0  0  0
  6  4  1  0  0  0  0
  6  3  2  0  0  0  0
  7 10  2  0  0  0  0
  7  2  1  0  0  0  0
  8  1  2  0  0  0  0
  9  2  2  0  0  0  0
 11 12  2  0  0  0  0
 11 15  1  0  0  0  0
 12 14  1  0  0  0  0
 14 16  2  0  0  0  0
 15 17  1  0  0  0  0
 16 13  1  0  0  0  0
 16  8  1  0  0  0  0
 17 13  2  0  0  0  0
 18 22  2  0  0  0  0
 19 18  1  0  0  0  0
 19 23  1  0  0  0  0
 21 20  1  0  0  0  0
 22 24  1  0  0  0  0
 22 20  1  0  0  0  0
 23 21  1  0  0  0  0
 24 11  1  0  0  0  0
 25  5  1  0  0  0  0
 26 25  1  0  0  0  0
 27 28  2  0  0  0  0
 28 26  1  0  0  0  0
 29 31  1  0  0  0  0
 29 28  1  0  0  0  0
 31 30  1  6  0  0  0
 32 31  1  0  0  0  0
 32 34  1  0  0  0  0
 34 33  1  6  0  0  0
 35 34  1  0  0  0  0
 35 36  1  0  0  0  0
 37 39  1  0  0  0  0
 37 36  1  0  0  0  0
 38 44  1  0  0  0  0
 39 42  1  0  0  0  0
 40 38  1  0  0  0  0
 41 39  2  0  0  0  0
 42 44  1  0  0  0  0
 43 41  1  0  0  0  0
 43 40  1  0  0  0  0
M  END
>  <MODEL>
8

>  <REMARK>
 VINA RESULT:      -8.6      3.416      8.570
  Name = 
  10 active torsions:
  status: ('A' for Active; 'I' for Inactive)
    1  A    between atoms: C_2  and  N_40
    2  A    between atoms: N_7  and  N_25
    3  A    between atoms: N_8  and  C_39
    4  A    between atoms: C_9  and  N_28
    5  A    between atoms: C_9  and  C_42
    6  A    between atoms: C_23  and  C_39
    7  A    between atoms: N_25  and  N_38
    8  A    between atoms: C_33  and  C_35
    9  A    between atoms: N_38  and  C_41
   10  A    between atoms: C_41  and  C_42
                            x       y       z     vdW  Elec       q    Type
                         _______ _______ _______ _____ _____    ______ ____

>  <TORSDO>
F 10

$$$$
=
 OpenBabel10232407573D

 44 48  0  0  1  0  0  0  0  0999 V2000
  188.1710  177.2100  143.8550 N   0  0  0  0  0  0  0  0  0  0  0  0
  185.3310  178.1340  145.8940 C   0  0  0  0  0  3  0  0  0  0  0  0
  183.7360  179.2830  144.4990 C   0  0  0  0  0  3  0  0  0  0  0  0
  185.7660  178.4960  143.5420 C   0  0  0  0  0  0  0  0  0  0  0  0
  186.6130  178.3400  142.4350 C   0  0  0  0  0  0  0  0  0  0  0  0
  184.5640  179.1280  143.4300 N   0  0  0  0  0  0  0  0  0  0  0  0
  186.1670  177.9860  144.7870 C   0  0  0  0  0  0  0  0  0  0  0  0
  187.8590  177.6900  142.6170 C   0  0  0  0  0  0  0  0  0  0  0  0
  184.1060  178.7880  145.7520 C   0  0  0  0  0  3  0  0  0  0  0  0
  187.3580  177.3510  144.9020 N   0  0  0  0  0  0  0  0  0  0  0  0
  190.4640  177.1450  138.8020 C   0  0  0  0  0  0  0  0  0  0  0  0
  189.1590  177.2680  139.0220 C   0  0  0  0  0  3  0  0  0  0  0  0
  190.2570  177.4330  141.9210 C   0  0  0  0  0  3  0  0  0  0  0  0
  188.4120  177.4310  140.2670 C   0  0  0  0  0  3  0  0  0  0  0  0
  191.4520  177.1490  139.7940 O   0  0  0  0  0  0  0  0  0  0  0  0
  188.8450  177.4850  141.5250 C   0  0  0  0  0  0  0  0  0  0  0  0
  191.3500  177.2890  141.1800 C   0  0  0  0  0  3  0  0  0  0  0  0
  191.3020  175.8330  135.4370 N   0  0  0  0  0  0  0  0  0  0  0  0
  191.4420  174.6850  134.6370 N   0  0  0  0  0  2  0  0  0  0  0  0
  190.7230  174.4330  137.3460 C   0  0  0  0  0  2  0  0  0  0  0  0
  190.2990  173.3780  136.3300 C   0  0  0  0  0  2  0  0  0  0  0  0
  190.9470  175.7720  136.6870 C   0  0  0  0  0  0  0  0  0  0  0  0
  191.3140  173.3460  135.2000 C   0  0  0  0  0  2  0  0  0  0  0  0
  190.8580  176.9940  137.4330 N   0  0  0  0  0  2  0  0  0  0  0  0
  186.1720  178.8490  141.0950 C   0  0  0  0  0  2  0  0  0  0  0  0
  184.7560  178.5690  140.9110 N   0  0  0  0  0  2  0  0  0  0  0  0
  184.4820  180.1480  139.2150 O   0  0  0  0  0  0  0  0  0  0  0  0
  183.9590  179.2770  139.9600 C   0  0  0  0  0  0  0  0  0  0  0  0
  182.5540  179.0190  139.8560 N   0  0  0  0  0  2  0  0  0  0  0  0
  181.2500  178.6850  141.9040 C   0  0  0  0  0  1  0  0  0  0  0  0
  181.8290  178.0370  140.6590 C   0  0  1  0  0  3  0  0  0  0  0  0
  180.7240  177.3580  139.8560 C   0  0  0  0  0  2  0  0  0  0  0  0
  180.3550  174.9140  139.9070 C   0  0  0  0  0  1  0  0  0  0  0  0
  181.1810  176.0230  139.2900 C   0  0  2  0  0  3  0  0  0  0  0  0
  182.5840  175.8040  139.6010 N   0  0  0  0  0  2  0  0  0  0  0  0
  183.1750  175.2710  138.4480 N   0  0  0  0  0  2  0  0  0  0  0  0
  183.6150  176.3580  137.6820 N   0  0  0  0  0  2  0  0  0  0  0  0
  187.5060  175.4030  135.7480 O   0  0  0  0  0  0  0  0  0  0  0  0
  184.7950  176.2590  136.8870 C   0  0  0  0  0  0  0  0  0  0  0  0
  187.5370  176.7990  135.7760 C   0  0  0  0  0  2  0  0  0  0  0  0
  185.1510  177.2870  136.1720 N   0  0  0  0  0  0  0  0  0  0  0  0
  185.5240  175.0630  136.9000 O   0  0  0  0  0  0  0  0  0  0  0  0
  186.2380  177.3310  135.1970 C   0  0  0  0  0  2  0  0  0  0  0  0
  186.9460  175.0270  136.9710 C   0  0  0  0  0  2  0  0  0  0  0  0
  1 10  1  0  0  0  0
  3  9  1  0  0  0  0
  4  7  1  0  0  0  0
  5  8  1  0  0  0  0
  5  4  2  0  0  0  0
  6  4  1  0  0  0  0
  6  3  2  0  0  0  0
  7 10  2  0  0  0  0
  7  2  1  0  0  0  0
  8  1  2  0  0  0  0
  9  2  2  0  0  0  0
 11 12  2  0  0  0  0
 11 15  1  0  0  0  0
 12 14  1  0  0  0  0
 14 16  2  0  0  0  0
 15 17  1  0  0  0  0
 16 13  1  0  0  0  0
 16  8  1  0  0  0  0
 17 13  2  0  0  0  0
 18 22  2  0  0  0  0
 19 23  1  0  0  0  0
 19 18  1  0  0  0  0
 21 20  1  0  0  0  0
 22 20  1  0  0  0  0
 22 24  1  0  0  0  0
 23 21  1  0  0  0  0
 24 11  1  0  0  0  0
 25  5  1  0  0  0  0
 26 25  1  0  0  0  0
 27 28  2  0  0  0  0
 28 26  1  0  0  0  0
 29 28  1  0  0  0  0
 29 31  1  0  0  0  0
 31 30  1  1  0  0  0
 32 31  1  0  0  0  0
 34 35  1  0  0  0  0
 34 32  1  0  0  0  0
 34 33  1  1  0  0  0
 36 35  1  0  0  0  0
 37 36  1  0  0  0  0
 38 40  1  0  0  0  0
 38 44  1  0  0  0  0
 39 42  1  0  0  0  0
 39 37  1  0  0  0  0
 41 39  2  0  0  0  0
 42 44  1  0  0  0  0
 43 40  1  0  0  0  0
 43 41  1  0  0  0  0
M  END
>  <MODEL>
9

>  <REMARK>
 VINA RESULT:      -8.6      2.432      7.159
  Name = 
  10 active torsions:
  status: ('A' for Active; 'I' for Inactive)
    1  A    between atoms: C_2  and  N_40
    2  A    between atoms: N_7  and  N_25
    3  A    between atoms: N_8  and  C_39
    4  A    between atoms: C_9  and  N_28
    5  A    between atoms: C_9  and  C_42
    6  A    between atoms: C_23  and  C_39
    7  A    between atoms: N_25  and  N_38
    8  A    between atoms: C_33  and  C_35
    9  A    between atoms: N_38  and  C_41
   10  A    between atoms: C_41  and  C_42
                            x       y       z     vdW  Elec       q    Type
                         _______ _______ _______ _____ _____    ______ ____

>  <TORSDO>
F 10

$$$$
