=
 OpenBabel10222421453D

 31 34  0  0  1  0  0  0  0  0999 V2000
  184.1690  178.0150  140.3550 C   0  0  0  0  0  2  0  0  0  0  0  0
  184.0050  178.4960  142.8050 C   0  0  0  0  0  0  0  0  0  0  0  0
  185.6650  178.8860  146.7150 C   0  0  0  0  0  1  0  0  0  0  0  0
  181.3980  178.0440  138.9830 N   0  0  0  0  0  2  0  0  0  0  0  0
  181.8970  178.2450  141.5110 C   0  0  0  0  0  0  0  0  0  0  0  0
  182.1970  179.2780  137.1900 O   0  0  0  0  0  0  0  0  0  0  0  0
  180.3210  176.7650  140.5780 O   0  0  0  0  0  0  0  0  0  0  0  0
  183.7010  178.9740  145.1900 C   0  0  0  0  0  2  0  0  0  0  0  0
  185.9680  178.5220  144.2720 C   0  0  0  0  0  3  0  0  0  0  0  0
  183.3910  178.2550  141.6140 C   0  0  1  0  0  3  0  0  0  0  0  0
  183.2430  181.2330  138.6940 O   0  0  0  0  0  1  0  0  0  0  0  0
  183.1580  178.8400  143.9820 C   0  0  0  0  0  0  0  0  0  0  0  0
  185.4890  178.3980  143.0270 C   0  0  0  0  0  0  0  0  0  0  0  0
  182.1800  179.1170  138.4400 C   0  0  0  0  0  0  0  0  0  0  0  0
  181.7160  179.1920  143.8110 C   0  0  0  0  0  2  0  0  0  0  0  0
  181.1860  177.6510  140.3510 C   0  0  0  0  0  0  0  0  0  0  0  0
  183.0270  179.9970  139.3050 C   0  0  1  0  0  3  0  0  0  0  0  0
  185.1020  178.7680  145.3830 N   0  0  0  0  0  0  0  0  0  0  0  0
  184.3630  179.3260  139.5970 C   0  0  0  0  0  2  0  0  0  0  0  0
  181.1460  178.6110  142.5560 C   0  0  0  0  0  3  0  0  0  0  0  0
  188.4220  177.9850  143.0930 O   0  0  0  0  0  0  0  0  0  0  0  0
  186.3910  178.1570  141.9330 N   0  0  0  0  0  2  0  0  0  0  0  0
  187.8140  177.9630  141.9860 C   0  0  0  0  0  0  0  0  0  0  0  0
  190.5650  176.9980  138.3390 C   0  0  0  0  0  0  0  0  0  0  0  0
  191.6440  176.5210  137.5450 N   0  0  0  0  0  1  0  0  0  0  0  0
  189.7210  177.0770  140.8090 C   0  0  0  0  0  3  0  0  0  0  0  0
  187.9710  178.2630  139.4970 C   0  0  0  0  0  3  0  0  0  0  0  0
  189.6020  177.6300  137.7420 N   0  0  0  0  0  0  0  0  0  0  0  0
  188.4010  178.2210  138.2410 C   0  0  0  0  0  3  0  0  0  0  0  0
  190.6110  176.7480  139.7440 N   0  0  0  0  0  2  0  0  0  0  0  0
  188.5660  177.7370  140.7320 C   0  0  0  0  0  0  0  0  0  0  0  0
  2 13  1  0  0  0  0
  2 12  2  0  0  0  0
  4 16  1  0  0  0  0
  5 10  1  0  0  0  0
  5 20  2  0  0  0  0
  6 14  2  0  0  0  0
  8 18  1  0  0  0  0
  9 18  1  0  0  0  0
 10  1  1  6  0  0  0
 10  2  1  0  0  0  0
 12  8  1  0  0  0  0
 13  9  2  0  0  0  0
 14  4  1  0  0  0  0
 14 17  1  0  0  0  0
 15 12  1  0  0  0  0
 16  7  2  0  0  0  0
 16  5  1  0  0  0  0
 17 11  1  6  0  0  0
 17 19  1  0  0  0  0
 18  3  1  0  0  0  0
 19  1  1  0  0  0  0
 20 15  1  0  0  0  0
 22 23  1  0  0  0  0
 22 13  1  0  0  0  0
 23 21  2  0  0  0  0
 24 30  1  0  0  0  0
 25 24  1  0  0  0  0
 27 31  1  0  0  0  0
 28 29  1  0  0  0  0
 28 24  2  0  0  0  0
 29 27  2  0  0  0  0
 30 26  1  0  0  0  0
 31 26  2  0  0  0  0
 31 23  1  0  0  0  0
M  END
>  <MODEL>
1

>  <REMARK>
 VINA RESULT:      -8.7      0.000      0.000
  Name = 
  2 active torsions:
  status: ('A' for Active; 'I' for Inactive)
    1  A    between atoms: C_19  and  N_26
    2  A    between atoms: C_27  and  C_31
                            x       y       z     vdW  Elec       q    Type
                         _______ _______ _______ _____ _____    ______ ____

>  <TORSDO>
F 2

$$$$
=
 OpenBabel10222421453D

 31 34  0  0  1  0  0  0  0  0999 V2000
  186.6390  177.9790  137.4670 C   0  0  0  0  0  2  0  0  0  0  0  0
  188.3690  177.6990  139.2530 C   0  0  0  0  0  0  0  0  0  0  0  0
  189.8690  178.2700  143.2050 C   0  0  0  0  0  1  0  0  0  0  0  0
  187.5990  176.8690  134.7450 N   0  0  0  0  0  2  0  0  0  0  0  0
  188.9760  177.0870  136.9210 C   0  0  0  0  0  0  0  0  0  0  0  0
  185.5650  175.8270  134.3500 O   0  0  0  0  0  0  0  0  0  0  0  0
  189.6950  177.8390  134.8090 O   0  0  0  0  0  0  0  0  0  0  0  0
  190.1510  177.3690  140.9040 C   0  0  0  0  0  2  0  0  0  0  0  0
  188.0260  178.4880  141.5480 C   0  0  0  0  0  3  0  0  0  0  0  0
  188.0100  177.6030  137.9440 C   0  0  1  0  0  3  0  0  0  0  0  0
  185.5220  174.5010  136.6780 O   0  0  0  0  0  1  0  0  0  0  0  0
  189.7110  177.1940  139.6590 C   0  0  0  0  0  0  0  0  0  0  0  0
  187.5140  178.3240  140.3210 C   0  0  0  0  0  0  0  0  0  0  0  0
  186.4770  176.0870  135.1800 C   0  0  0  0  0  0  0  0  0  0  0  0
  190.5250  176.3520  138.7320 C   0  0  0  0  0  2  0  0  0  0  0  0
  188.7720  177.2890  135.4650 C   0  0  0  0  0  0  0  0  0  0  0  0
  186.3290  175.6370  136.6000 C   0  0  1  0  0  3  0  0  0  0  0  0
  189.3530  178.0620  141.8660 N   0  0  0  0  0  0  0  0  0  0  0  0
  185.7320  176.7520  137.4490 C   0  0  0  0  0  2  0  0  0  0  0  0
  190.1550  176.5820  137.3010 C   0  0  0  0  0  3  0  0  0  0  0  0
  185.0680  177.9770  141.9550 O   0  0  0  0  0  0  0  0  0  0  0  0
  186.1730  178.7590  140.0390 N   0  0  0  0  0  2  0  0  0  0  0  0
  184.9970  178.5770  140.8450 C   0  0  0  0  0  0  0  0  0  0  0  0
  181.1770  180.4660  138.9350 C   0  0  0  0  0  0  0  0  0  0  0  0
  180.3130  181.1960  138.0740 N   0  0  0  0  0  1  0  0  0  0  0  0
  183.6960  179.8630  139.2760 C   0  0  0  0  0  3  0  0  0  0  0  0
  182.5060  178.7210  141.1400 C   0  0  0  0  0  3  0  0  0  0  0  0
  180.6480  179.8350  139.9380 N   0  0  0  0  0  0  0  0  0  0  0  0
  181.2260  179.0270  140.9640 C   0  0  0  0  0  3  0  0  0  0  0  0
  182.5750  180.4720  138.6390 N   0  0  0  0  0  2  0  0  0  0  0  0
  183.6970  179.0970  140.3660 C   0  0  0  0  0  0  0  0  0  0  0  0
  2 12  2  0  0  0  0
  2 13  1  0  0  0  0
  4 14  1  0  0  0  0
  4 16  1  0  0  0  0
  5 20  2  0  0  0  0
  5 10  1  0  0  0  0
  6 14  2  0  0  0  0
  7 16  2  0  0  0  0
  8 18  1  0  0  0  0
  9 18  1  0  0  0  0
 10  1  1  1  0  0  0
 10  2  1  0  0  0  0
 12  8  1  0  0  0  0
 13  9  2  0  0  0  0
 14 17  1  0  0  0  0
 15 12  1  0  0  0  0
 16  5  1  0  0  0  0
 17 11  1  6  0  0  0
 17 19  1  0  0  0  0
 18  3  1  0  0  0  0
 19  1  1  0  0  0  0
 20 15  1  0  0  0  0
 22 13  1  0  0  0  0
 22 23  1  0  0  0  0
 23 21  2  0  0  0  0
 24 28  2  0  0  0  0
 25 24  1  0  0  0  0
 26 31  2  0  0  0  0
 28 29  1  0  0  0  0
 29 27  2  0  0  0  0
 30 24  1  0  0  0  0
 30 26  1  0  0  0  0
 31 23  1  0  0  0  0
 31 27  1  0  0  0  0
M  END
>  <MODEL>
2

>  <REMARK>
 VINA RESULT:      -7.5      3.012      7.268
  Name = 
  2 active torsions:
  status: ('A' for Active; 'I' for Inactive)
    1  A    between atoms: C_19  and  N_26
    2  A    between atoms: C_27  and  C_31
                            x       y       z     vdW  Elec       q    Type
                         _______ _______ _______ _____ _____    ______ ____

>  <TORSDO>
F 2

$$$$
=
 OpenBabel10222421453D

 31 34  0  0  1  0  0  0  0  0999 V2000
  190.8400  176.2120  140.1610 C   0  0  0  0  0  2  0  0  0  0  0  0
  188.8980  177.2260  138.9510 C   0  0  0  0  0  0  0  0  0  0  0  0
  185.0860  179.1350  138.8230 C   0  0  0  0  0  1  0  0  0  0  0  0
  192.8940  174.9690  138.2120 N   0  0  0  0  0  2  0  0  0  0  0  0
  190.5830  175.9670  137.6250 C   0  0  0  0  0  0  0  0  0  0  0  0
  194.6830  175.8910  139.3640 O   0  0  0  0  0  0  0  0  0  0  0  0
  191.3470  173.8620  136.8990 O   0  0  0  0  0  0  0  0  0  0  0  0
  187.0540  178.1730  137.6440 C   0  0  0  0  0  2  0  0  0  0  0  0
  187.0230  178.2760  140.1280 C   0  0  0  0  0  3  0  0  0  0  0  0
  190.0470  176.4970  138.9200 C   0  0  1  0  0  3  0  0  0  0  0  0
  193.7430  178.4000  139.2910 O   0  0  0  0  0  1  0  0  0  0  0  0
  188.2370  177.5610  137.6590 C   0  0  0  0  0  0  0  0  0  0  0  0
  188.2220  177.6840  140.2140 C   0  0  0  0  0  0  0  0  0  0  0  0
  193.5260  176.0620  138.8940 C   0  0  0  0  0  0  0  0  0  0  0  0
  188.9470  177.3590  136.3600 C   0  0  0  0  0  2  0  0  0  0  0  0
  191.6080  174.8940  137.5710 C   0  0  0  0  0  0  0  0  0  0  0  0
  192.8240  177.3630  139.1230 C   0  0  1  0  0  3  0  0  0  0  0  0
  186.3890  178.4990  138.8660 N   0  0  0  0  0  0  0  0  0  0  0  0
  191.9240  177.2710  140.3490 C   0  0  0  0  0  2  0  0  0  0  0  0
  190.0170  176.3210  136.4660 C   0  0  0  0  0  3  0  0  0  0  0  0
  186.9240  177.4380  142.8650 O   0  0  0  0  0  0  0  0  0  0  0  0
  188.8310  177.4820  141.5000 N   0  0  0  0  0  2  0  0  0  0  0  0
  188.1830  177.3680  142.7780 C   0  0  0  0  0  0  0  0  0  0  0  0
  191.1740  176.6160  146.2830 C   0  0  0  0  0  0  0  0  0  0  0  0
  192.3540  176.3050  147.0140 N   0  0  0  0  0  1  0  0  0  0  0  0
  190.2740  176.8150  143.8390 C   0  0  0  0  0  3  0  0  0  0  0  0
  188.3310  177.3860  145.2850 C   0  0  0  0  0  3  0  0  0  0  0  0
  190.1070  176.9270  146.9520 N   0  0  0  0  0  0  0  0  0  0  0  0
  188.7910  177.2850  146.5270 C   0  0  0  0  0  3  0  0  0  0  0  0
  191.2420  176.5690  144.8570 N   0  0  0  0  0  2  0  0  0  0  0  0
  189.0000  177.1710  143.9950 C   0  0  0  0  0  0  0  0  0  0  0  0
  1 19  1  0  0  0  0
  2 13  1  0  0  0  0
  3 18  1  0  0  0  0
  4 14  1  0  0  0  0
  5 10  1  0  0  0  0
  7 16  2  0  0  0  0
  8 12  1  0  0  0  0
  8 18  1  0  0  0  0
  9 13  2  0  0  0  0
 10  2  1  0  0  0  0
 10  1  1  6  0  0  0
 12  2  2  0  0  0  0
 13 22  1  0  0  0  0
 14 17  1  0  0  0  0
 14  6  2  0  0  0  0
 15 20  1  0  0  0  0
 15 12  1  0  0  0  0
 16  5  1  0  0  0  0
 16  4  1  0  0  0  0
 17 11  1  1  0  0  0
 17 19  1  0  0  0  0
 18  9  1  0  0  0  0
 20  5  2  0  0  0  0
 22 23  1  0  0  0  0
 23 21  2  0  0  0  0
 23 31  1  0  0  0  0
 24 28  2  0  0  0  0
 24 25  1  0  0  0  0
 26 31  2  0  0  0  0
 26 30  1  0  0  0  0
 27 29  2  0  0  0  0
 29 28  1  0  0  0  0
 30 24  1  0  0  0  0
 31 27  1  0  0  0  0
M  END
>  <MODEL>
3

>  <REMARK>
 VINA RESULT:      -7.2      3.932      8.333
  Name = 
  2 active torsions:
  status: ('A' for Active; 'I' for Inactive)
    1  A    between atoms: C_19  and  N_26
    2  A    between atoms: C_27  and  C_31
                            x       y       z     vdW  Elec       q    Type
                         _______ _______ _______ _____ _____    ______ ____

>  <TORSDO>
F 2

$$$$
=
 OpenBabel10222421453D

 31 34  0  0  1  0  0  0  0  0999 V2000
  184.3070  177.1300  137.9760 C   0  0  0  0  0  2  0  0  0  0  0  0
  182.4600  178.7570  137.5240 C   0  0  0  0  0  0  0  0  0  0  0  0
  179.9840  182.0700  138.5640 C   0  0  0  0  0  1  0  0  0  0  0  0
  184.5190  174.9780  135.7650 N   0  0  0  0  0  2  0  0  0  0  0  0
  182.7010  176.8000  136.0090 C   0  0  0  0  0  0  0  0  0  0  0  0
  186.8290  175.1610  135.6820 O   0  0  0  0  0  0  0  0  0  0  0  0
  182.2570  174.5150  135.6560 O   0  0  0  0  0  0  0  0  0  0  0  0
  180.6190  180.2750  136.9630 C   0  0  0  0  0  2  0  0  0  0  0  0
  181.9250  180.5940  139.0560 C   0  0  0  0  0  3  0  0  0  0  0  0
  183.1220  177.6130  137.1950 C   0  0  1  0  0  3  0  0  0  0  0  0
  186.8450  177.8160  135.3190 O   0  0  0  0  0  1  0  0  0  0  0  0
  181.3690  179.2270  136.6250 C   0  0  0  0  0  0  0  0  0  0  0  0
  182.7300  179.5630  138.7650 C   0  0  0  0  0  0  0  0  0  0  0  0
  185.7220  175.7600  135.7490 C   0  0  0  0  0  0  0  0  0  0  0  0
  181.1880  178.6370  135.2650 C   0  0  0  0  0  2  0  0  0  0  0  0
  183.1430  175.3960  135.8150 C   0  0  0  0  0  0  0  0  0  0  0  0
  185.7000  177.2500  135.8840 C   0  0  1  0  0  3  0  0  0  0  0  0
  180.8350  180.9530  138.2030 N   0  0  0  0  0  0  0  0  0  0  0  0
  185.5990  177.6480  137.3510 C   0  0  0  0  0  2  0  0  0  0  0  0
  181.7600  177.2580  135.1760 C   0  0  0  0  0  3  0  0  0  0  0  0
  182.6360  178.6600  141.5840 O   0  0  0  0  0  0  0  0  0  0  0  0
  183.8200  179.2340  139.6430 N   0  0  0  0  0  2  0  0  0  0  0  0
  183.7530  178.8010  141.0120 C   0  0  0  0  0  0  0  0  0  0  0  0
  187.3830  177.8090  143.7760 C   0  0  0  0  0  0  0  0  0  0  0  0
  188.1650  177.4390  144.9050 N   0  0  0  0  0  1  0  0  0  0  0  0
  184.9040  178.1470  143.0250 C   0  0  0  0  0  3  0  0  0  0  0  0
  186.2620  178.6780  141.0080 C   0  0  0  0  0  3  0  0  0  0  0  0
  188.0030  178.1040  142.6750 N   0  0  0  0  0  0  0  0  0  0  0  0
  187.5220  178.5050  141.3920 C   0  0  0  0  0  3  0  0  0  0  0  0
  185.9620  177.8290  143.9270 N   0  0  0  0  0  2  0  0  0  0  0  0
  185.0040  178.5200  141.7500 C   0  0  0  0  0  0  0  0  0  0  0  0
  2 13  1  0  0  0  0
  4 16  1  0  0  0  0
  5 10  1  0  0  0  0
  6 14  2  0  0  0  0
  7 16  2  0  0  0  0
  8 18  1  0  0  0  0
 10  2  1  0  0  0  0
 10  1  1  6  0  0  0
 12  8  1  0  0  0  0
 12  2  2  0  0  0  0
 13  9  2  0  0  0  0
 13 22  1  0  0  0  0
 14  4  1  0  0  0  0
 14 17  1  0  0  0  0
 15 12  1  0  0  0  0
 16  5  1  0  0  0  0
 17 11  1  1  0  0  0
 17 19  1  0  0  0  0
 18  3  1  0  0  0  0
 18  9  1  0  0  0  0
 19  1  1  0  0  0  0
 20 15  1  0  0  0  0
 20  5  2  0  0  0  0
 22 23  1  0  0  0  0
 23 21  2  0  0  0  0
 23 31  1  0  0  0  0
 24 30  1  0  0  0  0
 24 25  1  0  0  0  0
 26 30  1  0  0  0  0
 27 29  2  0  0  0  0
 27 31  1  0  0  0  0
 28 24  2  0  0  0  0
 29 28  1  0  0  0  0
 31 26  2  0  0  0  0
M  END
>  <MODEL>
4

>  <REMARK>
 VINA RESULT:      -6.8      3.198      6.097
  Name = 
  2 active torsions:
  status: ('A' for Active; 'I' for Inactive)
    1  A    between atoms: C_19  and  N_26
    2  A    between atoms: C_27  and  C_31
                            x       y       z     vdW  Elec       q    Type
                         _______ _______ _______ _____ _____    ______ ____

>  <TORSDO>
F 2

$$$$
=
 OpenBabel10222421453D

 31 34  0  0  1  0  0  0  0  0999 V2000
  182.5210  176.6500  138.7120 C   0  0  0  0  0  2  0  0  0  0  0  0
  181.5060  178.5380  137.4200 C   0  0  0  0  0  0  0  0  0  0  0  0
  180.3410  182.6140  136.9420 C   0  0  0  0  0  1  0  0  0  0  0  0
  182.2130  173.9470  137.2410 N   0  0  0  0  0  2  0  0  0  0  0  0
  181.2010  176.2260  136.5590 C   0  0  0  0  0  0  0  0  0  0  0  0
  184.4090  173.3500  137.6880 O   0  0  0  0  0  0  0  0  0  0  0  0
  179.9820  174.2160  136.6990 O   0  0  0  0  0  0  0  0  0  0  0  0
  180.4700  180.2920  136.0570 C   0  0  0  0  0  2  0  0  0  0  0  0
  181.4940  180.8420  138.2560 C   0  0  0  0  0  3  0  0  0  0  0  0
  181.7270  177.2030  137.5660 C   0  0  1  0  0  3  0  0  0  0  0  0
  185.4740  175.5930  136.6790 O   0  0  0  0  0  1  0  0  0  0  0  0
  180.8090  179.0110  136.1920 C   0  0  0  0  0  0  0  0  0  0  0  0
  181.8830  179.5740  138.4440 C   0  0  0  0  0  0  0  0  0  0  0  0
  183.6110  174.2570  137.3260 C   0  0  0  0  0  0  0  0  0  0  0  0
  180.6110  178.1000  135.0250 C   0  0  0  0  0  2  0  0  0  0  0  0
  181.1030  174.7720  136.8420 C   0  0  0  0  0  0  0  0  0  0  0  0
  184.1340  175.6350  137.0680 C   0  0  1  0  0  3  0  0  0  0  0  0
  180.7500  181.2310  137.0980 N   0  0  0  0  0  0  0  0  0  0  0  0
  183.9870  176.4990  138.3140 C   0  0  0  0  0  2  0  0  0  0  0  0
  180.6270  176.6610  135.4320 C   0  0  0  0  0  3  0  0  0  0  0  0
  184.7520  180.0370  139.0210 O   0  0  0  0  0  0  0  0  0  0  0  0
  182.6350  179.2210  139.6170 N   0  0  0  0  0  2  0  0  0  0  0  0
  184.0300  179.4520  139.8770 C   0  0  0  0  0  0  0  0  0  0  0  0
  186.3670  177.9910  143.6460 C   0  0  0  0  0  0  0  0  0  0  0  0
  187.4110  177.5570  144.5080 N   0  0  0  0  0  1  0  0  0  0  0  0
  185.9260  178.7390  141.1820 C   0  0  0  0  0  3  0  0  0  0  0  0
  183.7050  178.8690  142.2980 C   0  0  0  0  0  3  0  0  0  0  0  0
  185.1710  178.0900  144.1380 N   0  0  0  0  0  0  0  0  0  0  0  0
  183.9310  178.4890  143.5510 C   0  0  0  0  0  3  0  0  0  0  0  0
  186.7040  178.2920  142.2900 N   0  0  0  0  0  2  0  0  0  0  0  0
  184.6190  178.9980  141.1560 C   0  0  0  0  0  0  0  0  0  0  0  0
  2 10  1  0  0  0  0
  2 13  1  0  0  0  0
  3 18  1  0  0  0  0
  4 14  1  0  0  0  0
  5 16  1  0  0  0  0
  5 10  1  0  0  0  0
  7 16  2  0  0  0  0
  8 12  1  0  0  0  0
  8 18  1  0  0  0  0
  9 13  2  0  0  0  0
 10  1  1  6  0  0  0
 12  2  2  0  0  0  0
 13 22  1  0  0  0  0
 14  6  2  0  0  0  0
 15 20  1  0  0  0  0
 15 12  1  0  0  0  0
 16  4  1  0  0  0  0
 17 11  1  1  0  0  0
 17 14  1  0  0  0  0
 17 19  1  0  0  0  0
 18  9  1  0  0  0  0
 19  1  1  0  0  0  0
 20  5  2  0  0  0  0
 21 23  2  0  0  0  0
 22 23  1  0  0  0  0
 23 31  1  0  0  0  0
 24 28  2  0  0  0  0
 24 25  1  0  0  0  0
 26 30  1  0  0  0  0
 27 29  2  0  0  0  0
 29 28  1  0  0  0  0
 30 24  1  0  0  0  0
 31 26  2  0  0  0  0
 31 27  1  0  0  0  0
M  END
>  <MODEL>
5

>  <REMARK>
 VINA RESULT:      -6.8      3.156      6.492
  Name = 
  2 active torsions:
  status: ('A' for Active; 'I' for Inactive)
    1  A    between atoms: C_19  and  N_26
    2  A    between atoms: C_27  and  C_31
                            x       y       z     vdW  Elec       q    Type
                         _______ _______ _______ _____ _____    ______ ____

>  <TORSDO>
F 2

$$$$
=
 OpenBabel10222421453D

 31 34  0  0  1  0  0  0  0  0999 V2000
  188.8960  178.0080  142.2470 C   0  0  0  0  0  2  0  0  0  0  0  0
  186.9090  178.2480  143.7500 C   0  0  0  0  0  0  0  0  0  0  0  0
  182.7370  178.7640  144.4710 C   0  0  0  0  0  1  0  0  0  0  0  0
  191.5470  177.9300  143.8370 N   0  0  0  0  0  2  0  0  0  0  0  0
  189.1760  178.3800  144.7640 C   0  0  0  0  0  0  0  0  0  0  0  0
  192.3570  176.1610  142.5750 O   0  0  0  0  0  0  0  0  0  0  0  0
  191.0590  179.7200  145.2150 O   0  0  0  0  0  0  0  0  0  0  0  0
  185.0540  178.4900  145.3340 C   0  0  0  0  0  2  0  0  0  0  0  0
  184.6210  178.3960  142.8860 C   0  0  0  0  0  3  0  0  0  0  0  0
  188.2610  178.2210  143.5880 C   0  0  1  0  0  3  0  0  0  0  0  0
  190.2230  174.5900  142.9710 O   0  0  0  0  0  1  0  0  0  0  0  0
  186.3630  178.3470  145.1320 C   0  0  0  0  0  0  0  0  0  0  0  0
  185.9220  178.2270  142.6160 C   0  0  0  0  0  0  0  0  0  0  0  0
  191.3750  176.6630  143.1860 C   0  0  0  0  0  0  0  0  0  0  0  0
  187.2440  178.1360  146.3210 C   0  0  0  0  0  2  0  0  0  0  0  0
  190.6150  178.7090  144.6090 C   0  0  0  0  0  0  0  0  0  0  0  0
  190.0530  175.9640  143.1500 C   0  0  1  0  0  3  0  0  0  0  0  0
  184.1540  178.5730  144.2270 N   0  0  0  0  0  0  0  0  0  0  0  0
  189.1860  176.5250  142.0300 C   0  0  0  0  0  2  0  0  0  0  0  0
  188.6790  178.4100  146.0060 C   0  0  0  0  0  3  0  0  0  0  0  0
  184.9200  179.5430  140.1580 O   0  0  0  0  0  0  0  0  0  0  0  0
  186.3530  178.0460  141.2560 N   0  0  0  0  0  2  0  0  0  0  0  0
  185.8510  178.6930  140.0760 C   0  0  0  0  0  0  0  0  0  0  0  0
  187.1650  177.5420  135.7450 C   0  0  0  0  0  0  0  0  0  0  0  0
  187.1310  177.1500  134.3780 N   0  0  0  0  0  1  0  0  0  0  0  0
  185.5930  178.0250  137.7740 C   0  0  0  0  0  3  0  0  0  0  0  0
  187.8940  178.4140  138.6400 C   0  0  0  0  0  3  0  0  0  0  0  0
  188.3220  177.7680  136.2860 N   0  0  0  0  0  0  0  0  0  0  0  0
  188.6910  178.1690  137.6070 C   0  0  0  0  0  3  0  0  0  0  0  0
  185.9190  177.6640  136.4340 N   0  0  0  0  0  2  0  0  0  0  0  0
  186.4310  178.3550  138.7570 C   0  0  0  0  0  0  0  0  0  0  0  0
  2 12  2  0  0  0  0
  4 16  1  0  0  0  0
  5 20  2  0  0  0  0
  6 14  2  0  0  0  0
  9 18  1  0  0  0  0
 10  1  1  1  0  0  0
 10  2  1  0  0  0  0
 10  5  1  0  0  0  0
 12  8  1  0  0  0  0
 12 15  1  0  0  0  0
 13  9  2  0  0  0  0
 13  2  1  0  0  0  0
 14  4  1  0  0  0  0
 16  5  1  0  0  0  0
 16  7  2  0  0  0  0
 17 11  1  6  0  0  0
 17 14  1  0  0  0  0
 18  3  1  0  0  0  0
 18  8  1  0  0  0  0
 19  1  1  0  0  0  0
 19 17  1  0  0  0  0
 20 15  1  0  0  0  0
 22 13  1  0  0  0  0
 23 21  2  0  0  0  0
 23 22  1  0  0  0  0
 24 28  2  0  0  0  0
 24 30  1  0  0  0  0
 25 24  1  0  0  0  0
 26 31  2  0  0  0  0
 27 31  1  0  0  0  0
 28 29  1  0  0  0  0
 29 27  2  0  0  0  0
 30 26  1  0  0  0  0
 31 23  1  0  0  0  0
M  END
>  <MODEL>
6

>  <REMARK>
 VINA RESULT:      -6.8      2.670      6.443
  Name = 
  2 active torsions:
  status: ('A' for Active; 'I' for Inactive)
    1  A    between atoms: C_19  and  N_26
    2  A    between atoms: C_27  and  C_31
                            x       y       z     vdW  Elec       q    Type
                         _______ _______ _______ _____ _____    ______ ____

>  <TORSDO>
F 2

$$$$
=
 OpenBabel10222421453D

 31 34  0  0  1  0  0  0  0  0999 V2000
  190.3050  177.4460  142.1170 C   0  0  0  0  0  2  0  0  0  0  0  0
  187.8790  178.0150  141.8940 C   0  0  0  0  0  0  0  0  0  0  0  0
  184.4310  179.1150  139.6370 C   0  0  0  0  0  1  0  0  0  0  0  0
  191.1420  177.0840  145.0720 N   0  0  0  0  0  2  0  0  0  0  0  0
  188.8530  177.8870  144.1780 C   0  0  0  0  0  0  0  0  0  0  0  0
  192.3570  175.1690  144.5880 O   0  0  0  0  0  0  0  0  0  0  0  0
  190.0850  178.9830  145.8600 O   0  0  0  0  0  0  0  0  0  0  0  0
  185.4930  178.5730  141.8200 C   0  0  0  0  0  2  0  0  0  0  0  0
  186.8220  178.4300  139.7220 C   0  0  0  0  0  3  0  0  0  0  0  0
  188.9650  177.8010  142.6870 C   0  0  1  0  0  3  0  0  0  0  0  0
  190.3400  173.9160  143.3460 O   0  0  0  0  0  1  0  0  0  0  0  0
  186.5600  178.2470  142.5480 C   0  0  0  0  0  0  0  0  0  0  0  0
  187.9270  178.0760  140.3920 C   0  0  0  0  0  0  0  0  0  0  0  0
  191.2960  175.8240  144.4030 C   0  0  0  0  0  0  0  0  0  0  0  0
  186.3680  177.9730  144.0030 C   0  0  0  0  0  2  0  0  0  0  0  0
  190.0440  178.0140  145.0560 C   0  0  0  0  0  0  0  0  0  0  0  0
  190.2720  175.3070  143.4430 C   0  0  1  0  0  3  0  0  0  0  0  0
  185.6000  178.7260  140.4030 N   0  0  0  0  0  0  0  0  0  0  0  0
  190.4730  175.9290  142.0670 C   0  0  0  0  0  2  0  0  0  0  0  0
  187.6570  178.0380  144.7580 C   0  0  0  0  0  3  0  0  0  0  0  0
  188.3220  176.2450  138.0980 O   0  0  0  0  0  0  0  0  0  0  0  0
  189.1360  177.7790  139.6740 N   0  0  0  0  0  2  0  0  0  0  0  0
  189.3080  176.8830  138.5640 C   0  0  0  0  0  0  0  0  0  0  0  0
  193.2870  176.2150  136.2130 C   0  0  0  0  0  0  0  0  0  0  0  0
  194.2140  175.9330  135.1720 N   0  0  0  0  0  1  0  0  0  0  0  0
  190.7220  176.3830  136.6770 C   0  0  0  0  0  3  0  0  0  0  0  0
  191.8030  176.9130  138.8550 C   0  0  0  0  0  3  0  0  0  0  0  0
  193.7570  176.5030  137.3870 N   0  0  0  0  0  0  0  0  0  0  0  0
  193.1070  176.8290  138.6170 C   0  0  0  0  0  3  0  0  0  0  0  0
  191.8950  176.1630  135.8960 N   0  0  0  0  0  2  0  0  0  0  0  0
  190.6510  176.7090  137.9670 C   0  0  0  0  0  0  0  0  0  0  0  0
  2 12  2  0  0  0  0
  2 10  1  0  0  0  0
  3 18  1  0  0  0  0
  5 20  2  0  0  0  0
  5 16  1  0  0  0  0
  8 12  1  0  0  0  0
  9 13  2  0  0  0  0
  9 18  1  0  0  0  0
 10  1  1  1  0  0  0
 10  5  1  0  0  0  0
 12 15  1  0  0  0  0
 13  2  1  0  0  0  0
 14  6  2  0  0  0  0
 14  4  1  0  0  0  0
 15 20  1  0  0  0  0
 16  4  1  0  0  0  0
 16  7  2  0  0  0  0
 17 11  1  6  0  0  0
 17 14  1  0  0  0  0
 18  8  1  0  0  0  0
 19  1  1  0  0  0  0
 19 17  1  0  0  0  0
 21 23  2  0  0  0  0
 22 13  1  0  0  0  0
 23 22  1  0  0  0  0
 24 28  2  0  0  0  0
 25 24  1  0  0  0  0
 26 31  2  0  0  0  0
 28 29  1  0  0  0  0
 29 27  2  0  0  0  0
 30 24  1  0  0  0  0
 30 26  1  0  0  0  0
 31 23  1  0  0  0  0
 31 27  1  0  0  0  0
M  END
>  <MODEL>
7

>  <REMARK>
 VINA RESULT:      -6.7      3.392      6.917
  Name = 
  2 active torsions:
  status: ('A' for Active; 'I' for Inactive)
    1  A    between atoms: C_19  and  N_26
    2  A    between atoms: C_27  and  C_31
                            x       y       z     vdW  Elec       q    Type
                         _______ _______ _______ _____ _____    ______ ____

>  <TORSDO>
F 2

$$$$
=
 OpenBabel10222421453D

 31 34  0  0  1  0  0  0  0  0999 V2000
  184.8230  177.0100  137.9880 C   0  0  0  0  0  2  0  0  0  0  0  0
  182.8300  178.5070  137.7650 C   0  0  0  0  0  0  0  0  0  0  0  0
  180.1940  181.5500  139.1740 C   0  0  0  0  0  1  0  0  0  0  0  0
  185.0300  175.0040  135.6440 N   0  0  0  0  0  2  0  0  0  0  0  0
  183.1040  176.6590  136.1240 C   0  0  0  0  0  0  0  0  0  0  0  0
  187.3070  175.3750  135.4080 O   0  0  0  0  0  0  0  0  0  0  0  0
  182.8090  174.3670  135.6690 O   0  0  0  0  0  0  0  0  0  0  0  0
  180.8420  179.9000  137.4280 C   0  0  0  0  0  2  0  0  0  0  0  0
  182.2740  180.2090  139.4380 C   0  0  0  0  0  3  0  0  0  0  0  0
  183.5490  177.4390  137.3230 C   0  0  1  0  0  3  0  0  0  0  0  0
  187.0940  178.0380  135.2030 O   0  0  0  0  0  1  0  0  0  0  0  0
  181.6410  178.9350  136.9760 C   0  0  0  0  0  0  0  0  0  0  0  0
  183.1310  179.2640  139.0300 C   0  0  0  0  0  0  0  0  0  0  0  0
  186.1660  175.8790  135.5890 C   0  0  0  0  0  0  0  0  0  0  0  0
  181.4040  178.4060  135.6000 C   0  0  0  0  0  2  0  0  0  0  0  0
  183.6340  175.3070  135.8160 C   0  0  0  0  0  0  0  0  0  0  0  0
  186.0410  177.3530  135.8130 C   0  0  1  0  0  3  0  0  0  0  0  0
  181.0990  180.5260  138.6870 N   0  0  0  0  0  0  0  0  0  0  0  0
  186.0210  177.6630  137.3040 C   0  0  0  0  0  2  0  0  0  0  0  0
  182.0700  177.0840  135.3890 C   0  0  0  0  0  3  0  0  0  0  0  0
  183.3560  178.7740  141.9420 O   0  0  0  0  0  0  0  0  0  0  0  0
  184.3060  178.9770  139.8070 N   0  0  0  0  0  2  0  0  0  0  0  0
  184.3940  178.7450  141.2230 C   0  0  0  0  0  0  0  0  0  0  0  0
  188.7740  178.0400  142.6790 C   0  0  0  0  0  0  0  0  0  0  0  0
  190.1940  177.9620  142.7150 N   0  0  0  0  0  1  0  0  0  0  0  0
  186.8000  178.6850  141.0950 C   0  0  0  0  0  3  0  0  0  0  0  0
  185.7130  177.9910  143.2230 C   0  0  0  0  0  3  0  0  0  0  0  0
  188.1180  177.6980  143.7440 N   0  0  0  0  0  0  0  0  0  0  0  0
  186.7180  177.6640  144.0280 C   0  0  0  0  0  3  0  0  0  0  0  0
  188.1620  178.4930  141.4700 N   0  0  0  0  0  2  0  0  0  0  0  0
  185.7130  178.4740  141.8360 C   0  0  0  0  0  0  0  0  0  0  0  0
  2 13  1  0  0  0  0
  4 16  1  0  0  0  0
  5 10  1  0  0  0  0
  6 14  2  0  0  0  0
  7 16  2  0  0  0  0
  8 18  1  0  0  0  0
 10  2  1  0  0  0  0
 10  1  1  6  0  0  0
 12  8  1  0  0  0  0
 12  2  2  0  0  0  0
 13  9  2  0  0  0  0
 13 22  1  0  0  0  0
 14  4  1  0  0  0  0
 14 17  1  0  0  0  0
 15 12  1  0  0  0  0
 16  5  1  0  0  0  0
 17 11  1  6  0  0  0
 17 19  1  0  0  0  0
 18  3  1  0  0  0  0
 18  9  1  0  0  0  0
 19  1  1  0  0  0  0
 20 15  1  0  0  0  0
 20  5  2  0  0  0  0
 22 23  1  0  0  0  0
 23 31  1  0  0  0  0
 23 21  2  0  0  0  0
 24 25  1  0  0  0  0
 24 28  2  0  0  0  0
 26 30  1  0  0  0  0
 26 31  2  0  0  0  0
 27 29  2  0  0  0  0
 28 29  1  0  0  0  0
 30 24  1  0  0  0  0
 31 27  1  0  0  0  0
M  END
>  <MODEL>
8

>  <REMARK>
 VINA RESULT:      -6.6      3.209      5.785
  Name = 
  2 active torsions:
  status: ('A' for Active; 'I' for Inactive)
    1  A    between atoms: C_19  and  N_26
    2  A    between atoms: C_27  and  C_31
                            x       y       z     vdW  Elec       q    Type
                         _______ _______ _______ _____ _____    ______ ____

>  <TORSDO>
F 2

$$$$
=
 OpenBabel10222421453D

 31 34  0  0  1  0  0  0  0  0999 V2000
  183.6320  178.3590  139.5970 C   0  0  0  0  0  2  0  0  0  0  0  0
  185.5360  177.9140  138.0350 C   0  0  0  0  0  0  0  0  0  0  0  0
  189.6870  177.7000  137.0770 C   0  0  0  0  0  1  0  0  0  0  0  0
  180.8940  178.1340  138.1760 N   0  0  0  0  0  2  0  0  0  0  0  0
  183.2380  178.0100  137.0920 C   0  0  0  0  0  0  0  0  0  0  0  0
  179.9830  176.9190  139.9290 O   0  0  0  0  0  0  0  0  0  0  0  0
  181.4810  179.3730  136.3150 O   0  0  0  0  0  0  0  0  0  0  0  0
  187.3050  177.4620  136.4000 C   0  0  0  0  0  2  0  0  0  0  0  0
  187.8760  178.0360  138.7510 C   0  0  0  0  0  3  0  0  0  0  0  0
  184.2010  178.0950  138.2350 C   0  0  1  0  0  3  0  0  0  0  0  0
  181.9120  175.0600  139.9590 O   0  0  0  0  0  1  0  0  0  0  0  0
  186.0030  177.5390  136.6710 C   0  0  0  0  0  0  0  0  0  0  0  0
  186.5840  178.1080  139.0960 C   0  0  0  0  0  0  0  0  0  0  0  0
  180.9720  177.1010  139.1700 C   0  0  0  0  0  0  0  0  0  0  0  0
  185.0340  177.0960  135.6240 C   0  0  0  0  0  2  0  0  0  0  0  0
  181.8530  178.5370  137.1810 C   0  0  0  0  0  0  0  0  0  0  0  0
  182.2140  176.2920  139.3740 C   0  0  1  0  0  3  0  0  0  0  0  0
  188.2750  177.7570  137.4060 N   0  0  0  0  0  0  0  0  0  0  0  0
  183.2020  177.0500  140.2530 C   0  0  0  0  0  2  0  0  0  0  0  0
  183.6570  177.6170  135.8830 C   0  0  0  0  0  3  0  0  0  0  0  0
  188.0330  177.4070  141.5830 O   0  0  0  0  0  0  0  0  0  0  0  0
  186.2200  178.3840  140.4600 N   0  0  0  0  0  2  0  0  0  0  0  0
  186.9370  178.0320  141.6550 C   0  0  0  0  0  0  0  0  0  0  0  0
  185.6190  178.9530  146.0380 C   0  0  0  0  0  0  0  0  0  0  0  0
  185.5900  179.0200  147.4590 N   0  0  0  0  0  1  0  0  0  0  0  0
  187.0650  178.0470  144.0610 C   0  0  0  0  0  3  0  0  0  0  0  0
  185.1110  179.1420  142.9760 C   0  0  0  0  0  3  0  0  0  0  0  0
  184.6410  179.4980  145.3830 N   0  0  0  0  0  0  0  0  0  0  0  0
  184.3780  179.6040  143.9830 C   0  0  0  0  0  3  0  0  0  0  0  0
  186.7260  178.2920  145.4250 N   0  0  0  0  0  2  0  0  0  0  0  0
  186.3810  178.4040  142.9750 C   0  0  0  0  0  0  0  0  0  0  0  0
  1 19  1  0  0  0  0
  2 10  1  0  0  0  0
  2 13  1  0  0  0  0
  3 18  1  0  0  0  0
  4 14  1  0  0  0  0
  5 16  1  0  0  0  0
  5 10  1  0  0  0  0
  7 16  2  0  0  0  0
  8 12  1  0  0  0  0
  8 18  1  0  0  0  0
  9 13  2  0  0  0  0
 10  1  1  1  0  0  0
 12  2  2  0  0  0  0
 13 22  1  0  0  0  0
 14 17  1  0  0  0  0
 14  6  2  0  0  0  0
 15 20  1  0  0  0  0
 15 12  1  0  0  0  0
 16  4  1  0  0  0  0
 17 11  1  1  0  0  0
 17 19  1  0  0  0  0
 18  9  1  0  0  0  0
 20  5  2  0  0  0  0
 21 23  2  0  0  0  0
 22 23  1  0  0  0  0
 23 31  1  0  0  0  0
 24 25  1  0  0  0  0
 26 30  1  0  0  0  0
 27 29  2  0  0  0  0
 28 24  2  0  0  0  0
 29 28  1  0  0  0  0
 30 24  1  0  0  0  0
 31 27  1  0  0  0  0
 31 26  2  0  0  0  0
M  END
>  <MODEL>
9

>  <REMARK>
 VINA RESULT:      -6.6      1.883      6.178
  Name = 
  2 active torsions:
  status: ('A' for Active; 'I' for Inactive)
    1  A    between atoms: C_19  and  N_26
    2  A    between atoms: C_27  and  C_31
                            x       y       z     vdW  Elec       q    Type
                         _______ _______ _______ _____ _____    ______ ____

>  <TORSDO>
F 2

$$$$
