=
 OpenBabel10232409153D

 67 72  0  0  1  0  0  0  0  0999 V2000
  190.0380  178.4630  140.7910 O   0  0  0  0  0  0  0  0  0  0  0  0
  194.3400  173.9510  137.5190 C   0  0  0  0  0  0  0  0  0  0  0  0
  192.0550  176.9480  140.6100 C   0  0  0  0  0  3  0  0  0  0  0  0
  191.3310  172.6500  134.5040 C   0  0  0  0  0  2  0  0  0  0  0  0
  190.9460  177.4910  142.8530 C   0  0  1  0  0  0  0  0  0  0  0  0
  194.5830  175.0670  138.1290 N   0  0  0  0  0  0  0  0  0  0  0  0
  192.7030  172.7760  135.0780 C   0  0  0  0  0  2  0  0  0  0  0  0
  187.0610  176.7970  137.2320 C   0  0  0  0  0  0  0  0  0  0  0  0
  190.1170  176.3970  142.2060 C   0  0  0  0  0  2  0  0  0  0  0  0
  189.4820  177.9930  139.5930 C   0  0  2  0  0  3  0  0  0  0  0  0
  192.1230  177.0110  143.4310 O   0  0  0  0  0  1  0  0  0  0  0  0
  187.8110  176.3870  138.3550 C   0  0  0  0  0  0  0  0  0  0  0  0
  187.9870  174.1790  134.7360 N   0  0  0  0  0  2  0  0  0  0  0  0
  193.5730  176.0050  138.3700 N   0  0  0  0  0  2  0  0  0  0  0  0
  187.1320  176.0530  136.0480 C   0  0  0  0  0  3  0  0  0  0  0  0
  187.9390  174.9150  135.9670 C   0  0  0  0  0  0  0  0  0  0  0  0
  192.6790  177.6970  139.7780 N   0  0  0  0  0  0  0  0  0  0  0  0
  193.0100  173.6570  137.0560 N   0  0  0  0  0  2  0  0  0  0  0  0
  189.0520  173.3450  134.3460 N   0  0  0  0  0  0  0  0  0  0  0  0
  188.6440  174.4900  137.0980 C   0  0  0  0  0  3  0  0  0  0  0  0
  193.8680  177.2150  139.1210 C   0  0  0  0  0  2  0  0  0  0  0  0
  188.5790  175.2220  138.2840 C   0  0  0  0  0  3  0  0  0  0  0  0
  190.3560  173.4480  134.9120 C   0  0  0  0  0  3  0  0  0  0  0  0
  189.4140  179.1330  138.5970 C   0  0  0  0  0  1  0  0  0  0  0  0
  192.6850  172.4900  136.4480 O   0  0  0  0  0  0  0  0  0  0  0  0
  190.8330  177.4320  141.3380 C   0  0  1  0  0  0  0  0  0  0  0  0
  187.8130  177.3210  139.8910 S   0  0  0  0  0  0  0  0  0  0  0  0
  195.2070  171.6610  138.0920 C   0  0  0  0  0  2  0  0  0  0  0  0
  195.4680  172.9810  137.3370 C   0  0  1  0  0  3  0  0  0  0  0  0
  198.1160  169.8130  135.3640 C   0  0  0  0  0  1  0  0  0  0  0  0
  197.1530  172.0940  135.6250 C   0  0  0  0  0  2  0  0  0  0  0  0
  195.8600  170.0160  136.3430 C   0  0  0  0  0  3  0  0  0  0  0  0
  194.9410  170.4720  137.2050 C   0  0  0  0  0  3  0  0  0  0  0  0
  195.8410  172.8530  135.8570 C   0  0  0  0  0  2  0  0  0  0  0  0
  197.2070  170.6760  136.2080 C   0  0  1  0  0  3  0  0  0  0  0  0
  188.5600  178.7440  143.2340 O   0  0  0  0  0  0  0  0  0  0  0  0
  189.9460  178.6580  143.8340 P   0  0  2  0  0  0  0  0  0  0  0  0
  190.6910  180.1750  143.7630 O   0  0  0  0  0  1  0  0  0  0  0  0
  189.8570  178.0980  145.4980 N   0  0  0  0  0  2  0  0  0  0  0  0
  187.7660  176.5250  144.4870 O   0  0  0  0  0  0  0  0  0  0  0  0
  188.2660  176.5910  147.0450 O   0  0  0  0  0  1  0  0  0  0  0  0
  187.1450  178.7270  146.0170 O   0  0  0  0  0  1  0  0  0  0  0  0
  188.2480  177.4620  145.8070 P   0  0  0  0  0  0  0  0  0  0  0  0
  186.1770  178.0060  137.2510 C   0  0  0  0  0  2  0  0  0  0  0  0
  184.6140  179.2930  140.3450 N   0  0  0  0  0  2  0  0  0  0  0  0
  185.9290  178.4270  138.6220 N   0  0  0  0  0  2  0  0  0  0  0  0
  184.6810  178.9410  139.1030 C   0  0  0  0  0  0  0  0  0  0  0  0
  183.4070  178.7510  138.3020 C   0  0  2  0  0  3  0  0  0  0  0  0
  182.5380  179.8220  138.5400 O   0  0  0  0  0  1  0  0  0  0  0  0
  182.6660  177.4250  138.5810 C   0  0  2  0  0  3  0  0  0  0  0  0
  181.5050  177.1710  140.4340 O   0  0  0  0  0  1  0  0  0  0  0  0
  182.7240  177.0350  139.9370 O   0  0  0  0  0  0  0  0  0  0  0  0
  183.1590  176.3030  137.6630 C   0  0  0  0  0  2  0  0  0  0  0  0
  181.2980  174.3470  135.4570 O   0  0  0  0  0  0  0  0  0  0  0  0
  182.1190  175.1980  137.5320 C   0  0  2  0  0  3  0  0  0  0  0  0
  182.4050  174.3100  136.3290 C   0  0  1  0  0  3  0  0  0  0  0  0
  180.7890  175.8200  137.2260 C   0  0  0  0  0  2  0  0  0  0  0  0
  180.5990  175.5230  135.7610 C   0  0  0  0  0  2  0  0  0  0  0  0
  182.6110  172.9430  136.7880 N   0  0  0  0  0  2  0  0  0  0  0  0
  183.5670  172.2640  135.9170 C   0  0  0  0  0  0  0  0  0  0  0  0
  184.7380  173.0960  135.4330 C   0  0  0  0  0  2  0  0  0  0  0  0
  184.9200  172.1140  136.5800 C   0  0  0  0  0  2  0  0  0  0  0  0
  181.6850  170.9600  135.0610 O   0  0  0  0  0  1  0  0  0  0  0  0
  183.0820  171.0610  135.0850 C   0  0  2  0  0  3  0  0  0  0  0  0
  184.8580  169.3620  134.6320 C   0  0  0  0  0  1  0  0  0  0  0  0
  183.7150  169.7510  135.5520 C   0  0  2  0  0  3  0  0  0  0  0  0
  182.7710  168.7210  135.5870 O   0  0  0  0  0  1  0  0  0  0  0  0
  1 26  1  0  0  0  0
  2  6  2  0  0  0  0
  4 23  1  0  0  0  0
  4  7  1  0  0  0  0
  5 11  1  1  0  0  0
  5 37  1  0  0  0  0
  6 14  1  0  0  0  0
  7 25  1  0  0  0  0
  8 44  1  0  0  0  0
  8 12  1  0  0  0  0
  9  5  1  0  0  0  0
 10 24  1  6  0  0  0
 10 27  1  0  0  0  0
 10  1  1  0  0  0  0
 12 27  1  0  0  0  0
 13 16  1  0  0  0  0
 14 21  1  0  0  0  0
 15  8  2  0  0  0  0
 16 15  1  0  0  0  0
 16 20  2  0  0  0  0
 17  3  2  0  0  0  0
 18  2  1  0  0  0  0
 19 13  1  0  0  0  0
 19 23  2  0  0  0  0
 20 22  1  0  0  0  0
 21 17  1  0  0  0  0
 22 12  2  0  0  0  0
 25 18  1  0  0  0  0
 26  3  1  6  0  0  0
 26  9  1  0  0  0  0
 26  5  1  0  0  0  0
 29  2  1  6  0  0  0
 29 28  1  0  0  0  0
 31 34  1  0  0  0  0
 31 35  1  0  0  0  0
 32 33  2  0  0  0  0
 33 28  1  0  0  0  0
 34 29  1  0  0  0  0
 35 30  1  6  0  0  0
 35 32  1  0  0  0  0
 37 36  2  6  0  0  0
 37 39  1  0  0  0  0
 38 37  1  0  0  0  0
 39 43  1  0  0  0  0
 40 43  2  0  0  0  0
 43 42  1  0  0  0  0
 43 41  1  0  0  0  0
 44 46  1  0  0  0  0
 46 47  1  0  0  0  0
 47 45  2  0  0  0  0
 48 49  1  1  0  0  0
 48 50  1  0  0  0  0
 48 47  1  0  0  0  0
 50 53  1  6  0  0  0
 50 52  1  0  0  0  0
 52 51  1  0  0  0  0
 54 58  1  0  0  0  0
 54 56  1  0  0  0  0
 55 53  1  6  0  0  0
 56 59  1  1  0  0  0
 56 55  1  0  0  0  0
 57 55  1  0  0  0  0
 58 57  1  0  0  0  0
 60 62  1  0  0  0  0
 60 59  1  0  0  0  0
 61 60  1  0  0  0  0
 61 62  1  0  0  0  0
 64 63  1  1  0  0  0
 64 66  1  0  0  0  0
 64 60  1  0  0  0  0
 66 65  1  6  0  0  0
 66 67  1  0  0  0  0
M  END
>  <MODEL>
1

>  <REMARK>
 VINA RESULT:      -4.5      0.000      0.000
  Name = 
  15 active torsions:
  status: ('A' for Active; 'I' for Inactive)
    1  A    between atoms: C_6  and  C_8
    2  A    between atoms: N_10  and  C_28
    3  A    between atoms: C_11  and  C_55
    4  A    between atoms: N_13  and  P_35
    5  A    between atoms: N_13  and  P_61
    6  A    between atoms: C_14  and  P_61
    7  A    between atoms: C_18  and  C_32
    8  A    between atoms: C_18  and  N_34
    9  A    between atoms: C_19  and  C_28
   10  A    between atoms: C_20  and  N_34
   11  A    between atoms: C_29  and  C_32
   12  A    between atoms: C_33  and  C_43
   13  A    between atoms: C_33  and  C_47
   14  A    between atoms: O_45  and  C_47
   15  A    between atoms: C_47  and  C_55
                            x       y       z     vdW  Elec       q    Type
                         _______ _______ _______ _____ _____    ______ ____

>  <TORSDO>
F 15

$$$$
=
 OpenBabel10232409153D

 67 72  0  0  1  0  0  0  0  0999 V2000
  190.1430  178.3280  140.4440 O   0  0  0  0  0  0  0  0  0  0  0  0
  194.7650  173.7080  137.8250 C   0  0  0  0  0  0  0  0  0  0  0  0
  192.2010  176.8600  140.5160 C   0  0  0  0  0  3  0  0  0  0  0  0
  192.0070  172.1080  134.7150 C   0  0  0  0  0  2  0  0  0  0  0  0
  190.9240  177.5350  142.6310 C   0  0  1  0  0  0  0  0  0  0  0  0
  194.9390  174.8730  138.3640 N   0  0  0  0  0  0  0  0  0  0  0  0
  193.3310  172.3130  135.3720 C   0  0  0  0  0  2  0  0  0  0  0  0
  187.4640  176.3250  136.8230 C   0  0  0  0  0  0  0  0  0  0  0  0
  190.1670  176.3750  142.0120 C   0  0  0  0  0  2  0  0  0  0  0  0
  189.6840  177.7570  139.2500 C   0  0  2  0  0  3  0  0  0  0  0  0
  192.0670  177.1320  143.3230 O   0  0  0  0  0  1  0  0  0  0  0  0
  188.1400  176.0190  138.0230 C   0  0  0  0  0  0  0  0  0  0  0  0
  188.6220  173.5570  134.6000 N   0  0  0  0  0  2  0  0  0  0  0  0
  193.8940  175.7980  138.4640 N   0  0  0  0  0  2  0  0  0  0  0  0
  187.6340  175.4980  135.7060 C   0  0  0  0  0  3  0  0  0  0  0  0
  188.4700  174.3800  135.7660 C   0  0  0  0  0  0  0  0  0  0  0  0
  192.8650  177.5640  139.6760 N   0  0  0  0  0  0  0  0  0  0  0  0
  193.4780  173.3450  137.2940 N   0  0  0  0  0  2  0  0  0  0  0  0
  189.7300  172.7270  134.3480 N   0  0  0  0  0  0  0  0  0  0  0  0
  189.1020  174.0580  136.9720 C   0  0  0  0  0  3  0  0  0  0  0  0
  194.1080  177.0670  139.1410 C   0  0  0  0  0  2  0  0  0  0  0  0
  188.9380  174.8730  138.0920 C   0  0  0  0  0  3  0  0  0  0  0  0
  190.9890  172.9070  134.9940 C   0  0  0  0  0  3  0  0  0  0  0  0
  189.6610  178.8190  138.1680 C   0  0  0  0  0  1  0  0  0  0  0  0
  193.2230  172.1280  136.7550 O   0  0  0  0  0  0  0  0  0  0  0  0
  190.9190  177.3630  141.1200 C   0  0  1  0  0  0  0  0  0  0  0  0
  188.0130  177.0630  139.4810 S   0  0  0  0  0  0  0  0  0  0  0  0
  195.4890  171.3220  138.1490 C   0  0  0  0  0  2  0  0  0  0  0  0
  195.9240  172.7600  137.7940 C   0  0  1  0  0  3  0  0  0  0  0  0
  199.1360  169.9750  136.0990 C   0  0  0  0  0  1  0  0  0  0  0  0
  198.0710  172.1860  136.5210 C   0  0  0  0  0  2  0  0  0  0  0  0
  196.6860  170.0490  136.3780 C   0  0  0  0  0  3  0  0  0  0  0  0
  195.5380  170.3490  137.0000 C   0  0  0  0  0  3  0  0  0  0  0  0
  196.7270  172.9240  136.5010 C   0  0  0  0  0  2  0  0  0  0  0  0
  197.9910  170.6770  136.7910 C   0  0  1  0  0  3  0  0  0  0  0  0
  188.3970  178.4480  143.0690 O   0  0  0  0  0  1  0  0  0  0  0  0
  189.8310  178.7430  143.4500 P   0  0  2  0  0  0  0  0  0  0  0  0
  190.2560  180.2880  142.9080 O   0  0  0  0  0  0  0  0  0  0  0  0
  190.0350  178.6300  145.1920 N   0  0  0  0  0  2  0  0  0  0  0  0
  187.6000  177.7460  146.2690 O   0  0  0  0  0  1  0  0  0  0  0  0
  188.9960  176.2080  144.6930 O   0  0  0  0  0  0  0  0  0  0  0  0
  189.9320  176.5560  147.1180 O   0  0  0  0  0  1  0  0  0  0  0  0
  189.1390  177.2410  145.7900 P   0  0  0  0  0  0  0  0  0  0  0  0
  186.5540  177.5070  136.6910 C   0  0  0  0  0  2  0  0  0  0  0  0
  183.3140  176.7410  135.0800 N   0  0  0  0  0  2  0  0  0  0  0  0
  185.5060  177.2300  135.7210 N   0  0  0  0  0  2  0  0  0  0  0  0
  184.1310  176.9940  136.0500 C   0  0  0  0  0  0  0  0  0  0  0  0
  183.5890  177.3720  137.4160 C   0  0  2  0  0  3  0  0  0  0  0  0
  184.3920  178.3690  137.9800 O   0  0  0  0  0  1  0  0  0  0  0  0
  183.4710  176.1940  138.4080 C   0  0  2  0  0  3  0  0  0  0  0  0
  184.4390  174.3130  137.8040 O   0  0  0  0  0  1  0  0  0  0  0  0
  183.2800  174.9500  137.7670 O   0  0  0  0  0  0  0  0  0  0  0  0
  182.3820  176.4490  139.4540 C   0  0  0  0  0  2  0  0  0  0  0  0
  180.9510  178.9290  141.4430 O   0  0  0  0  0  0  0  0  0  0  0  0
  182.0830  177.9360  139.5900 C   0  0  2  0  0  3  0  0  0  0  0  0
  182.1890  178.3910  141.0390 C   0  0  1  0  0  3  0  0  0  0  0  0
  180.6470  178.1760  139.2290 C   0  0  0  0  0  2  0  0  0  0  0  0
  179.9910  178.4050  140.5670 C   0  0  0  0  0  2  0  0  0  0  0  0
  183.2160  179.4200  141.1380 N   0  0  0  0  0  2  0  0  0  0  0  0
  184.1750  179.0660  142.1830 C   0  0  0  0  0  0  0  0  0  0  0  0
  184.8770  177.7330  142.0230 C   0  0  0  0  0  2  0  0  0  0  0  0
  185.5920  179.0230  141.6520 C   0  0  0  0  0  2  0  0  0  0  0  0
  185.1720  180.2610  144.0690 O   0  0  0  0  0  1  0  0  0  0  0  0
  183.9940  179.6780  143.5860 C   0  0  2  0  0  3  0  0  0  0  0  0
  181.9660  178.4170  144.3240 C   0  0  0  0  0  1  0  0  0  0  0  0
  183.4400  178.6620  144.5850 C   0  0  2  0  0  3  0  0  0  0  0  0
  183.6160  179.1020  145.9000 O   0  0  0  0  0  1  0  0  0  0  0  0
  1 26  1  0  0  0  0
  2  6  2  0  0  0  0
  4 23  1  0  0  0  0
  4  7  1  0  0  0  0
  5 11  1  1  0  0  0
  5 37  1  0  0  0  0
  6 14  1  0  0  0  0
  7 25  1  0  0  0  0
  8 12  1  0  0  0  0
  9  5  1  0  0  0  0
 10 24  1  6  0  0  0
 10 27  1  0  0  0  0
 10  1  1  0  0  0  0
 12 22  2  0  0  0  0
 12 27  1  0  0  0  0
 13 16  1  0  0  0  0
 14 21  1  0  0  0  0
 15 16  1  0  0  0  0
 15  8  2  0  0  0  0
 16 20  2  0  0  0  0
 17  3  2  0  0  0  0
 18  2  1  0  0  0  0
 19 13  1  0  0  0  0
 19 23  2  0  0  0  0
 20 22  1  0  0  0  0
 21 17  1  0  0  0  0
 25 18  1  0  0  0  0
 26  3  1  6  0  0  0
 26  9  1  0  0  0  0
 26  5  1  0  0  0  0
 29  2  1  6  0  0  0
 29 28  1  0  0  0  0
 31 35  1  0  0  0  0
 32 35  1  0  0  0  0
 32 33  2  0  0  0  0
 33 28  1  0  0  0  0
 34 31  1  0  0  0  0
 34 29  1  0  0  0  0
 35 30  1  6  0  0  0
 36 37  1  0  0  0  0
 37 38  2  6  0  0  0
 37 39  1  0  0  0  0
 39 43  1  0  0  0  0
 41 43  2  0  0  0  0
 43 40  1  0  0  0  0
 43 42  1  0  0  0  0
 44  8  1  0  0  0  0
 45 47  2  0  0  0  0
 46 47  1  0  0  0  0
 46 44  1  0  0  0  0
 47 48  1  0  0  0  0
 48 49  1  1  0  0  0
 48 50  1  0  0  0  0
 50 53  1  1  0  0  0
 52 51  1  0  0  0  0
 52 50  1  0  0  0  0
 55 53  1  1  0  0  0
 55 56  1  0  0  0  0
 56 59  1  6  0  0  0
 56 54  1  0  0  0  0
 57 55  1  0  0  0  0
 57 58  1  0  0  0  0
 58 54  1  0  0  0  0
 59 60  1  0  0  0  0
 60 64  1  0  0  0  0
 61 60  1  0  0  0  0
 62 61  1  0  0  0  0
 62 60  1  0  0  0  0
 64 63  1  1  0  0  0
 64 66  1  0  0  0  0
 66 65  1  6  0  0  0
 66 67  1  0  0  0  0
M  END
>  <MODEL>
2

>  <REMARK>
 VINA RESULT:      -3.9      2.348      4.690
  Name = 
  15 active torsions:
  status: ('A' for Active; 'I' for Inactive)
    1  A    between atoms: C_6  and  C_8
    2  A    between atoms: N_10  and  C_28
    3  A    between atoms: C_11  and  C_55
    4  A    between atoms: N_13  and  P_35
    5  A    between atoms: N_13  and  P_61
    6  A    between atoms: C_14  and  P_61
    7  A    between atoms: C_18  and  C_32
    8  A    between atoms: C_18  and  N_34
    9  A    between atoms: C_19  and  C_28
   10  A    between atoms: C_20  and  N_34
   11  A    between atoms: C_29  and  C_32
   12  A    between atoms: C_33  and  C_43
   13  A    between atoms: C_33  and  C_47
   14  A    between atoms: O_45  and  C_47
   15  A    between atoms: C_47  and  C_55
                            x       y       z     vdW  Elec       q    Type
                         _______ _______ _______ _____ _____    ______ ____

>  <TORSDO>
F 15

$$$$
=
 OpenBabel10232409153D

 67 72  0  0  1  0  0  0  0  0999 V2000
  189.7360  178.3490  142.0320 O   0  0  0  0  0  0  0  0  0  0  0  0
  193.8870  174.8020  137.5870 C   0  0  0  0  0  0  0  0  0  0  0  0
  191.7010  176.8810  141.4150 C   0  0  0  0  0  3  0  0  0  0  0  0
  190.8400  174.5010  134.3530 C   0  0  0  0  0  3  0  0  0  0  0  0
  190.6080  176.8070  143.7300 C   0  0  1  0  0  0  0  0  0  0  0  0
  194.1660  175.6930  138.4850 N   0  0  0  0  0  0  0  0  0  0  0  0
  192.2140  174.4150  134.9280 C   0  0  0  0  0  2  0  0  0  0  0  0
  186.7090  177.8500  138.1730 C   0  0  0  0  0  0  0  0  0  0  0  0
  189.7430  175.9670  142.8080 C   0  0  0  0  0  2  0  0  0  0  0  0
  189.1660  178.2530  140.7550 C   0  0  2  0  0  3  0  0  0  0  0  0
  191.7670  176.1460  144.1400 O   0  0  0  0  0  1  0  0  0  0  0  0
  187.4420  177.1160  139.1290 C   0  0  0  0  0  0  0  0  0  0  0  0
  187.5490  176.0110  135.0330 N   0  0  0  0  0  2  0  0  0  0  0  0
  193.1890  176.5580  138.9880 N   0  0  0  0  0  2  0  0  0  0  0  0
  186.7560  177.4660  136.8270 C   0  0  0  0  0  3  0  0  0  0  0  0
  187.5240  176.3720  136.4220 C   0  0  0  0  0  0  0  0  0  0  0  0
  192.3500  177.8140  140.8220 N   0  0  0  0  0  0  0  0  0  0  0  0
  192.5490  174.6930  137.0720 N   0  0  0  0  0  2  0  0  0  0  0  0
  188.5860  175.2860  134.4160 N   0  0  0  0  0  2  0  0  0  0  0  0
  188.2130  175.6230  137.3820 C   0  0  0  0  0  3  0  0  0  0  0  0
  193.5230  177.4970  140.0470 C   0  0  0  0  0  2  0  0  0  0  0  0
  188.1720  175.9940  138.7270 C   0  0  0  0  0  3  0  0  0  0  0  0
  189.8920  175.1830  134.9780 C   0  0  0  0  0  3  0  0  0  0  0  0
  189.1370  179.6290  140.1200 C   0  0  0  0  0  1  0  0  0  0  0  0
  192.1860  173.7560  136.1630 O   0  0  0  0  0  0  0  0  0  0  0  0
  190.4950  177.1810  142.2600 C   0  0  1  0  0  0  0  0  0  0  0  0
  187.4740  177.5800  140.8660 S   0  0  0  0  0  0  0  0  0  0  0  0
  196.0630  174.6490  136.3370 C   0  0  0  0  0  2  0  0  0  0  0  0
  194.9820  173.8860  137.1310 C   0  0  1  0  0  3  0  0  0  0  0  0
  198.7680  171.3210  137.2990 C   0  0  0  0  0  1  0  0  0  0  0  0
  196.4010  171.8750  137.8380 C   0  0  0  0  0  2  0  0  0  0  0  0
  198.1190  173.7000  137.3680 C   0  0  0  0  0  3  0  0  0  0  0  0
  197.3890  174.7750  137.0420 C   0  0  0  0  0  3  0  0  0  0  0  0
  195.4800  173.0160  138.2880 C   0  0  0  0  0  2  0  0  0  0  0  0
  197.6480  172.3050  137.0540 C   0  0  1  0  0  3  0  0  0  0  0  0
  190.4010  178.9260  145.4250 O   0  0  0  0  0  0  0  0  0  0  0  0
  189.6470  177.6830  145.0080 P   0  0  2  0  0  0  0  0  0  0  0  0
  189.4740  176.6510  146.3360 O   0  0  0  0  0  1  0  0  0  0  0  0
  188.0710  178.1150  144.3610 N   0  0  0  0  0  2  0  0  0  0  0  0
  185.4730  178.7840  145.1820 O   0  0  0  0  0  0  0  0  0  0  0  0
  186.4940  176.4560  145.7590 O   0  0  0  0  0  1  0  0  0  0  0  0
  187.4350  178.5090  147.0920 O   0  0  0  0  0  1  0  0  0  0  0  0
  186.8570  177.9180  145.6160 P   0  0  0  0  0  0  0  0  0  0  0  0
  185.8660  179.0330  138.5390 C   0  0  0  0  0  2  0  0  0  0  0  0
  183.7280  178.5470  141.5160 N   0  0  0  0  0  2  0  0  0  0  0  0
  185.3780  178.9010  139.9030 N   0  0  0  0  0  2  0  0  0  0  0  0
  184.0180  178.6170  140.2580 C   0  0  0  0  0  0  0  0  0  0  0  0
  183.0480  178.0740  139.2270 C   0  0  2  0  0  3  0  0  0  0  0  0
  183.7560  177.3960  138.2270 O   0  0  0  0  0  1  0  0  0  0  0  0
  182.1420  179.1400  138.5730 C   0  0  2  0  0  3  0  0  0  0  0  0
  181.9370  181.2780  138.0970 O   0  0  0  0  0  1  0  0  0  0  0  0
  182.4390  180.4520  139.0000 O   0  0  0  0  0  0  0  0  0  0  0  0
  180.6590  178.8150  138.7740 C   0  0  0  0  0  2  0  0  0  0  0  0
  181.2410  177.6710  135.5330 O   0  0  0  0  0  0  0  0  0  0  0  0
  180.0240  178.3090  137.4860 C   0  0  2  0  0  3  0  0  0  0  0  0
  180.8860  177.2410  136.8270 C   0  0  1  0  0  3  0  0  0  0  0  0
  179.9950  179.4290  136.4890 C   0  0  0  0  0  2  0  0  0  0  0  0
  181.0990  179.0660  135.5300 C   0  0  0  0  0  2  0  0  0  0  0  0
  180.1190  176.0060  136.7300 N   0  0  0  0  0  2  0  0  0  0  0  0
  180.8670  174.9070  137.3360 C   0  0  0  0  0  0  0  0  0  0  0  0
  181.0750  174.9850  138.8350 C   0  0  0  0  0  2  0  0  0  0  0  0
  179.9980  174.0790  138.2590 C   0  0  0  0  0  2  0  0  0  0  0  0
  181.6400  172.7430  136.5010 O   0  0  0  0  0  1  0  0  0  0  0  0
  181.8660  174.1250  136.4600 C   0  0  2  0  0  3  0  0  0  0  0  0
  184.0920  174.8280  135.5690 C   0  0  0  0  0  1  0  0  0  0  0  0
  183.3160  174.4500  136.8170 C   0  0  2  0  0  3  0  0  0  0  0  0
  183.9350  173.3650  137.4440 O   0  0  0  0  0  1  0  0  0  0  0  0
  1 26  1  0  0  0  0
  2  6  2  0  0  0  0
  4  7  1  0  0  0  0
  4 23  2  0  0  0  0
  5 11  1  1  0  0  0
  5 37  1  0  0  0  0
  6 14  1  0  0  0  0
  7 25  1  0  0  0  0
  8 44  1  0  0  0  0
  8 12  1  0  0  0  0
  9  5  1  0  0  0  0
 10 24  1  1  0  0  0
 10 27  1  0  0  0  0
 10  1  1  0  0  0  0
 12 27  1  0  0  0  0
 13 16  1  0  0  0  0
 14 21  1  0  0  0  0
 15  8  2  0  0  0  0
 16 15  1  0  0  0  0
 16 20  2  0  0  0  0
 17  3  2  0  0  0  0
 18  2  1  0  0  0  0
 19 23  1  0  0  0  0
 19 13  1  0  0  0  0
 20 22  1  0  0  0  0
 21 17  1  0  0  0  0
 22 12  2  0  0  0  0
 25 18  1  0  0  0  0
 26  3  1  6  0  0  0
 26  9  1  0  0  0  0
 26  5  1  0  0  0  0
 28 33  1  0  0  0  0
 28 29  1  0  0  0  0
 29  2  1  1  0  0  0
 29 34  1  0  0  0  0
 31 34  1  0  0  0  0
 33 32  2  0  0  0  0
 35 30  1  1  0  0  0
 35 32  1  0  0  0  0
 35 31  1  0  0  0  0
 37 36  2  1  0  0  0
 37 38  1  0  0  0  0
 39 37  1  0  0  0  0
 39 43  1  0  0  0  0
 40 43  2  0  0  0  0
 43 41  1  0  0  0  0
 43 42  1  0  0  0  0
 44 46  1  0  0  0  0
 46 47  1  0  0  0  0
 47 45  2  0  0  0  0
 48 49  1  6  0  0  0
 48 47  1  0  0  0  0
 50 53  1  1  0  0  0
 50 52  1  0  0  0  0
 50 48  1  0  0  0  0
 51 52  1  0  0  0  0
 54 56  1  0  0  0  0
 55 53  1  1  0  0  0
 56 59  1  6  0  0  0
 56 55  1  0  0  0  0
 57 55  1  0  0  0  0
 58 54  1  0  0  0  0
 58 57  1  0  0  0  0
 59 60  1  0  0  0  0
 60 62  1  0  0  0  0
 60 61  1  0  0  0  0
 62 61  1  0  0  0  0
 64 63  1  1  0  0  0
 64 66  1  0  0  0  0
 64 60  1  0  0  0  0
 66 65  1  6  0  0  0
 66 67  1  0  0  0  0
M  END
>  <MODEL>
3

>  <REMARK>
 VINA RESULT:      -3.9      1.936      2.754
  Name = 
  15 active torsions:
  status: ('A' for Active; 'I' for Inactive)
    1  A    between atoms: C_6  and  C_8
    2  A    between atoms: N_10  and  C_28
    3  A    between atoms: C_11  and  C_55
    4  A    between atoms: N_13  and  P_35
    5  A    between atoms: N_13  and  P_61
    6  A    between atoms: C_14  and  P_61
    7  A    between atoms: C_18  and  C_32
    8  A    between atoms: C_18  and  N_34
    9  A    between atoms: C_19  and  C_28
   10  A    between atoms: C_20  and  N_34
   11  A    between atoms: C_29  and  C_32
   12  A    between atoms: C_33  and  C_43
   13  A    between atoms: C_33  and  C_47
   14  A    between atoms: O_45  and  C_47
   15  A    between atoms: C_47  and  C_55
                            x       y       z     vdW  Elec       q    Type
                         _______ _______ _______ _____ _____    ______ ____

>  <TORSDO>
F 15

$$$$
=
 OpenBabel10232409153D

 67 72  0  0  1  0  0  0  0  0999 V2000
  189.9140  178.3370  140.5910 O   0  0  0  0  0  0  0  0  0  0  0  0
  194.5320  173.9940  137.5250 C   0  0  0  0  0  0  0  0  0  0  0  0
  192.0270  176.9520  140.4820 C   0  0  0  0  0  3  0  0  0  0  0  0
  191.6410  172.3820  134.5450 C   0  0  0  0  0  2  0  0  0  0  0  0
  190.8660  177.5070  142.6950 C   0  0  1  0  0  0  0  0  0  0  0  0
  194.6950  175.1470  138.0930 N   0  0  0  0  0  0  0  0  0  0  0  0
  192.9960  172.6200  135.1230 C   0  0  0  0  0  2  0  0  0  0  0  0
  187.0840  176.3410  137.0820 C   0  0  0  0  0  0  0  0  0  0  0  0
  190.1150  176.3370  142.0860 C   0  0  0  0  0  2  0  0  0  0  0  0
  189.4000  177.7850  139.4090 C   0  0  2  0  0  3  0  0  0  0  0  0
  192.0660  177.1290  143.2990 O   0  0  0  0  0  1  0  0  0  0  0  0
  187.8490  176.0260  138.2250 C   0  0  0  0  0  0  0  0  0  0  0  0
  188.2020  173.6950  134.6960 N   0  0  0  0  0  2  0  0  0  0  0  0
  193.6240  176.0250  138.2900 N   0  0  0  0  0  2  0  0  0  0  0  0
  187.2140  175.5570  135.9280 C   0  0  0  0  0  3  0  0  0  0  0  0
  188.0950  174.4730  135.8970 C   0  0  0  0  0  0  0  0  0  0  0  0
  192.6080  177.7080  139.6250 N   0  0  0  0  0  0  0  0  0  0  0  0
  193.2280  173.5960  137.0660 N   0  0  0  0  0  2  0  0  0  0  0  0
  189.3220  172.9190  134.3460 N   0  0  0  0  0  0  0  0  0  0  0  0
  188.8160  174.1390  137.0480 C   0  0  0  0  0  3  0  0  0  0  0  0
  193.8320  177.2800  138.9950 C   0  0  0  0  0  2  0  0  0  0  0  0
  188.6930  174.9120  138.2040 C   0  0  0  0  0  3  0  0  0  0  0  0
  190.6130  173.1300  134.9160 C   0  0  0  0  0  3  0  0  0  0  0  0
  189.2660  178.8780  138.3690 C   0  0  0  0  0  1  0  0  0  0  0  0
  192.9860  172.3870  136.5030 O   0  0  0  0  0  0  0  0  0  0  0  0
  190.7700  177.3830  141.1830 C   0  0  1  0  0  0  0  0  0  0  0  0
  187.7760  177.0170  139.7230 S   0  0  0  0  0  0  0  0  0  0  0  0
  195.5510  171.8000  138.2100 C   0  0  0  0  0  2  0  0  0  0  0  0
  195.7220  173.0950  137.3890 C   0  0  1  0  0  3  0  0  0  0  0  0
  198.5780  170.0170  135.5690 C   0  0  0  0  0  1  0  0  0  0  0  0
  197.4630  172.2380  135.7170 C   0  0  0  0  0  2  0  0  0  0  0  0
  196.3140  170.1170  136.5440 C   0  0  0  0  0  3  0  0  0  0  0  0
  195.3660  170.5530  137.3860 C   0  0  0  0  0  3  0  0  0  0  0  0
  196.1030  172.9180  135.9160 C   0  0  0  0  0  2  0  0  0  0  0  0
  197.6130  170.8580  136.3720 C   0  0  1  0  0  3  0  0  0  0  0  0
  188.3740  178.0930  143.6200 O   0  0  0  0  0  1  0  0  0  0  0  0
  189.7830  178.6430  143.6230 P   0  0  2  0  0  0  0  0  0  0  0  0
  189.8080  180.1450  142.8450 O   0  0  0  0  0  0  0  0  0  0  0  0
  190.3730  178.7990  145.2710 N   0  0  0  0  0  2  0  0  0  0  0  0
  189.8830  176.0390  145.3780 O   0  0  0  0  0  0  0  0  0  0  0  0
  190.5100  177.3650  147.5340 O   0  0  0  0  0  1  0  0  0  0  0  0
  188.0950  177.7480  146.5850 O   0  0  0  0  0  1  0  0  0  0  0  0
  189.7300  177.4830  146.2420 P   0  0  0  0  0  0  0  0  0  0  0  0
  186.1230  177.4890  137.0480 C   0  0  0  0  0  2  0  0  0  0  0  0
  183.6160  177.1800  134.3470 N   0  0  0  0  0  2  0  0  0  0  0  0
  185.4360  177.5330  135.7660 N   0  0  0  0  0  2  0  0  0  0  0  0
  184.0880  177.0980  135.5480 C   0  0  0  0  0  0  0  0  0  0  0  0
  183.1450  176.8900  136.7170 C   0  0  2  0  0  3  0  0  0  0  0  0
  183.1770  175.5480  137.1140 O   0  0  0  0  0  1  0  0  0  0  0  0
  181.6820  177.3030  136.4440 C   0  0  2  0  0  3  0  0  0  0  0  0
  180.4150  177.5540  134.6630 O   0  0  0  0  0  1  0  0  0  0  0  0
  181.5240  178.0020  135.2280 O   0  0  0  0  0  0  0  0  0  0  0  0
  181.0950  178.0940  137.6160 C   0  0  0  0  0  2  0  0  0  0  0  0
  181.2550  181.0550  139.4500 O   0  0  0  0  0  0  0  0  0  0  0  0
  181.8540  179.3950  137.8410 C   0  0  2  0  0  3  0  0  0  0  0  0
  181.8550  179.7870  139.3120 C   0  0  1  0  0  3  0  0  0  0  0  0
  181.1160  180.5090  137.1600 C   0  0  0  0  0  2  0  0  0  0  0  0
  180.4660  181.2420  138.3060 C   0  0  0  0  0  2  0  0  0  0  0  0
  183.2320  179.8530  139.7830 N   0  0  0  0  0  2  0  0  0  0  0  0
  183.4060  178.9720  140.9360 C   0  0  0  0  0  0  0  0  0  0  0  0
  182.2040  178.1340  141.3240 C   0  0  0  0  0  2  0  0  0  0  0  0
  183.3480  177.5110  140.5390 C   0  0  0  0  0  2  0  0  0  0  0  0
  185.7220  179.5750  141.4360 O   0  0  0  0  0  1  0  0  0  0  0  0
  184.4590  179.3460  141.9970 C   0  0  2  0  0  3  0  0  0  0  0  0
  184.4210  178.9780  144.4690 C   0  0  0  0  0  1  0  0  0  0  0  0
  184.5390  178.3050  143.1140 C   0  0  2  0  0  3  0  0  0  0  0  0
  185.7390  177.5900  143.0490 O   0  0  0  0  0  1  0  0  0  0  0  0
  1 26  1  0  0  0  0
  2  6  2  0  0  0  0
  4 23  1  0  0  0  0
  4  7  1  0  0  0  0
  5 11  1  1  0  0  0
  5 37  1  0  0  0  0
  6 14  1  0  0  0  0
  7 25  1  0  0  0  0
  8 12  1  0  0  0  0
  9  5  1  0  0  0  0
 10 24  1  6  0  0  0
 10 27  1  0  0  0  0
 10  1  1  0  0  0  0
 12 27  1  0  0  0  0
 13 16  1  0  0  0  0
 14 21  1  0  0  0  0
 15  8  2  0  0  0  0
 16 15  1  0  0  0  0
 16 20  2  0  0  0  0
 17  3  2  0  0  0  0
 18  2  1  0  0  0  0
 19 13  1  0  0  0  0
 19 23  2  0  0  0  0
 20 22  1  0  0  0  0
 21 17  1  0  0  0  0
 22 12  2  0  0  0  0
 25 18  1  0  0  0  0
 26  3  1  6  0  0  0
 26  9  1  0  0  0  0
 26  5  1  0  0  0  0
 29  2  1  6  0  0  0
 29 28  1  0  0  0  0
 31 34  1  0  0  0  0
 31 35  1  0  0  0  0
 32 33  2  0  0  0  0
 33 28  1  0  0  0  0
 34 29  1  0  0  0  0
 35 30  1  6  0  0  0
 35 32  1  0  0  0  0
 36 37  1  0  0  0  0
 37 38  2  6  0  0  0
 37 39  1  0  0  0  0
 39 43  1  0  0  0  0
 40 43  2  0  0  0  0
 43 42  1  0  0  0  0
 43 41  1  0  0  0  0
 44  8  1  0  0  0  0
 45 47  2  0  0  0  0
 46 44  1  0  0  0  0
 47 46  1  0  0  0  0
 47 48  1  0  0  0  0
 48 49  1  6  0  0  0
 50 48  1  0  0  0  0
 50 53  1  1  0  0  0
 51 52  1  0  0  0  0
 52 50  1  0  0  0  0
 55 53  1  1  0  0  0
 55 56  1  0  0  0  0
 56 54  1  0  0  0  0
 56 59  1  6  0  0  0
 57 55  1  0  0  0  0
 57 58  1  0  0  0  0
 58 54  1  0  0  0  0
 59 60  1  0  0  0  0
 60 61  1  0  0  0  0
 60 64  1  0  0  0  0
 62 60  1  0  0  0  0
 62 61  1  0  0  0  0
 64 63  1  6  0  0  0
 64 66  1  0  0  0  0
 66 65  1  1  0  0  0
 67 66  1  0  0  0  0
M  END
>  <MODEL>
4

>  <REMARK>
 VINA RESULT:      -3.6      2.349      4.444
  Name = 
  15 active torsions:
  status: ('A' for Active; 'I' for Inactive)
    1  A    between atoms: C_6  and  C_8
    2  A    between atoms: N_10  and  C_28
    3  A    between atoms: C_11  and  C_55
    4  A    between atoms: N_13  and  P_35
    5  A    between atoms: N_13  and  P_61
    6  A    between atoms: C_14  and  P_61
    7  A    between atoms: C_18  and  C_32
    8  A    between atoms: C_18  and  N_34
    9  A    between atoms: C_19  and  C_28
   10  A    between atoms: C_20  and  N_34
   11  A    between atoms: C_29  and  C_32
   12  A    between atoms: C_33  and  C_43
   13  A    between atoms: C_33  and  C_47
   14  A    between atoms: O_45  and  C_47
   15  A    between atoms: C_47  and  C_55
                            x       y       z     vdW  Elec       q    Type
                         _______ _______ _______ _____ _____    ______ ____

>  <TORSDO>
F 15

$$$$
=
 OpenBabel10232409153D

 67 72  0  0  1  0  0  0  0  0999 V2000
  189.9730  178.1000  141.4630 O   0  0  0  0  0  0  0  0  0  0  0  0
  194.6890  174.3110  137.8620 C   0  0  0  0  0  0  0  0  0  0  0  0
  192.0830  176.7330  141.1930 C   0  0  0  0  0  3  0  0  0  0  0  0
  191.9110  173.2770  134.5370 C   0  0  0  0  0  2  0  0  0  0  0  0
  190.8380  176.9040  143.4240 C   0  0  1  0  0  0  0  0  0  0  0  0
  194.8350  175.3450  138.6280 N   0  0  0  0  0  0  0  0  0  0  0  0
  193.2440  173.3950  135.1980 C   0  0  0  0  0  2  0  0  0  0  0  0
  187.2750  176.7810  137.5540 C   0  0  0  0  0  0  0  0  0  0  0  0
  190.1070  175.8670  142.5910 C   0  0  0  0  0  2  0  0  0  0  0  0
  189.5040  177.7690  140.1840 C   0  0  2  0  0  3  0  0  0  0  0  0
  192.0120  176.4130  143.9970 O   0  0  0  0  0  1  0  0  0  0  0  0
  187.9930  176.2620  138.6520 C   0  0  0  0  0  0  0  0  0  0  0  0
  188.4740  174.5810  134.7850 N   0  0  0  0  0  2  0  0  0  0  0  0
  193.7610  176.1860  138.9350 N   0  0  0  0  0  2  0  0  0  0  0  0
  187.4470  176.2100  136.2860 C   0  0  0  0  0  3  0  0  0  0  0  0
  188.3230  175.1380  136.0990 C   0  0  0  0  0  0  0  0  0  0  0  0
  192.7000  177.6210  140.5050 N   0  0  0  0  0  0  0  0  0  0  0  0
  193.4030  174.0130  137.2900 N   0  0  0  0  0  2  0  0  0  0  0  0
  189.6050  173.8660  134.3470 N   0  0  0  0  0  0  0  0  0  0  0  0
  188.9980  174.6000  137.2000 C   0  0  0  0  0  3  0  0  0  0  0  0
  193.9460  177.2960  139.8570 C   0  0  0  0  0  2  0  0  0  0  0  0
  188.8330  175.1590  138.4680 C   0  0  0  0  0  3  0  0  0  0  0  0
  190.8720  173.9600  134.9940 C   0  0  0  0  0  3  0  0  0  0  0  0
  189.4150  179.0300  139.3470 C   0  0  0  0  0  1  0  0  0  0  0  0
  193.1780  172.9240  136.5150 O   0  0  0  0  0  0  0  0  0  0  0  0
  190.8010  177.0480  141.9110 C   0  0  1  0  0  0  0  0  0  0  0  0
  187.8660  176.9760  140.2970 S   0  0  0  0  0  0  0  0  0  0  0  0
  195.5260  171.9420  137.7610 C   0  0  0  0  0  2  0  0  0  0  0  0
  195.8810  173.4360  137.6150 C   0  0  1  0  0  3  0  0  0  0  0  0
  199.0840  171.1110  135.3180 C   0  0  0  0  0  1  0  0  0  0  0  0
  197.9620  173.1740  136.1460 C   0  0  0  0  0  2  0  0  0  0  0  0
  196.6560  171.0210  135.7450 C   0  0  0  0  0  3  0  0  0  0  0  0
  195.5390  171.1640  136.4710 C   0  0  0  0  0  3  0  0  0  0  0  0
  196.5910  173.8400  136.3200 C   0  0  0  0  0  2  0  0  0  0  0  0
  197.9580  171.6400  136.1770 C   0  0  1  0  0  3  0  0  0  0  0  0
  188.2950  177.4560  144.2240 O   0  0  0  0  0  1  0  0  0  0  0  0
  189.7240  177.8720  144.4950 P   0  0  2  0  0  0  0  0  0  0  0  0
  189.9200  179.5080  144.1150 O   0  0  0  0  0  0  0  0  0  0  0  0
  190.1340  177.5830  146.1790 N   0  0  0  0  0  2  0  0  0  0  0  0
  187.4950  178.5320  146.2690 O   0  0  0  0  0  0  0  0  0  0  0  0
  188.1690  176.3510  147.5270 O   0  0  0  0  0  1  0  0  0  0  0  0
  189.0070  178.6080  148.5670 O   0  0  0  0  0  1  0  0  0  0  0  0
  188.6830  177.7260  147.1600 P   0  0  0  0  0  0  0  0  0  0  0  0
  186.3210  177.9280  137.6850 C   0  0  0  0  0  2  0  0  0  0  0  0
  183.1760  177.6570  135.7590 N   0  0  0  0  0  2  0  0  0  0  0  0
  185.3350  177.8880  136.6160 N   0  0  0  0  0  2  0  0  0  0  0  0
  183.9290  177.6870  136.8090 C   0  0  0  0  0  0  0  0  0  0  0  0
  183.3070  177.8600  138.1820 C   0  0  2  0  0  3  0  0  0  0  0  0
  183.6020  176.7450  138.9750 O   0  0  0  0  0  1  0  0  0  0  0  0
  181.7790  178.0840  138.1700 C   0  0  2  0  0  3  0  0  0  0  0  0
  182.2580  179.1680  140.0230 O   0  0  0  0  0  1  0  0  0  0  0  0
  181.2760  178.5250  139.4130 O   0  0  0  0  0  0  0  0  0  0  0  0
  181.0340  176.8370  137.6840 C   0  0  0  0  0  2  0  0  0  0  0  0
  181.0320  173.3510  137.6490 O   0  0  0  0  0  0  0  0  0  0  0  0
  181.5990  175.5730  138.3160 C   0  0  2  0  0  3  0  0  0  0  0  0
  181.7960  174.4760  137.2790 C   0  0  1  0  0  3  0  0  0  0  0  0
  180.5820  175.0100  139.2640 C   0  0  0  0  0  2  0  0  0  0  0  0
  180.0350  173.8220  138.5150 C   0  0  0  0  0  2  0  0  0  0  0  0
  183.2050  174.1090  137.2390 N   0  0  0  0  0  2  0  0  0  0  0  0
  183.5090  173.4360  135.9780 C   0  0  0  0  0  0  0  0  0  0  0  0
  182.5270  173.6610  134.8470 C   0  0  0  0  0  2  0  0  0  0  0  0
  183.8410  174.4250  134.8810 C   0  0  0  0  0  2  0  0  0  0  0  0
  183.9700  171.2840  137.0440 O   0  0  0  0  0  1  0  0  0  0  0  0
  184.3600  172.1510  136.0150 C   0  0  2  0  0  3  0  0  0  0  0  0
  186.6520  171.3790  135.3880 C   0  0  0  0  0  1  0  0  0  0  0  0
  185.8540  172.4580  136.0970 C   0  0  2  0  0  3  0  0  0  0  0  0
  186.2760  172.5550  137.4270 O   0  0  0  0  0  1  0  0  0  0  0  0
  1 26  1  0  0  0  0
  2  6  2  0  0  0  0
  4 23  1  0  0  0  0
  4  7  1  0  0  0  0
  5 11  1  1  0  0  0
  5 37  1  0  0  0  0
  6 14  1  0  0  0  0
  7 25  1  0  0  0  0
  8 44  1  0  0  0  0
  8 12  1  0  0  0  0
  9  5  1  0  0  0  0
 10 24  1  6  0  0  0
 10 27  1  0  0  0  0
 10  1  1  0  0  0  0
 12 27  1  0  0  0  0
 13 16  1  0  0  0  0
 14 21  1  0  0  0  0
 15  8  2  0  0  0  0
 16 15  1  0  0  0  0
 16 20  2  0  0  0  0
 17  3  2  0  0  0  0
 18  2  1  0  0  0  0
 19 13  1  0  0  0  0
 19 23  2  0  0  0  0
 20 22  1  0  0  0  0
 21 17  1  0  0  0  0
 22 12  2  0  0  0  0
 25 18  1  0  0  0  0
 26  3  1  6  0  0  0
 26  9  1  0  0  0  0
 26  5  1  0  0  0  0
 29 28  1  0  0  0  0
 29  2  1  6  0  0  0
 31 35  1  0  0  0  0
 31 34  1  0  0  0  0
 32 35  1  0  0  0  0
 32 33  2  0  0  0  0
 33 28  1  0  0  0  0
 34 29  1  0  0  0  0
 35 30  1  6  0  0  0
 36 37  1  0  0  0  0
 37 38  2  6  0  0  0
 37 39  1  0  0  0  0
 39 43  1  0  0  0  0
 40 43  2  0  0  0  0
 43 41  1  0  0  0  0
 43 42  1  0  0  0  0
 45 47  2  0  0  0  0
 46 47  1  0  0  0  0
 46 44  1  0  0  0  0
 47 48  1  0  0  0  0
 48 49  1  1  0  0  0
 50 53  1  1  0  0  0
 50 48  1  0  0  0  0
 50 52  1  0  0  0  0
 52 51  1  0  0  0  0
 54 58  1  0  0  0  0
 55 53  1  6  0  0  0
 55 57  1  0  0  0  0
 56 59  1  1  0  0  0
 56 54  1  0  0  0  0
 56 55  1  0  0  0  0
 58 57  1  0  0  0  0
 60 64  1  0  0  0  0
 60 59  1  0  0  0  0
 61 62  1  0  0  0  0
 61 60  1  0  0  0  0
 62 60  1  0  0  0  0
 64 66  1  0  0  0  0
 64 63  1  1  0  0  0
 66 65  1  1  0  0  0
 66 67  1  0  0  0  0
M  END
>  <MODEL>
5

>  <REMARK>
 VINA RESULT:      -3.3      1.465      1.810
  Name = 
  15 active torsions:
  status: ('A' for Active; 'I' for Inactive)
    1  A    between atoms: C_6  and  C_8
    2  A    between atoms: N_10  and  C_28
    3  A    between atoms: C_11  and  C_55
    4  A    between atoms: N_13  and  P_35
    5  A    between atoms: N_13  and  P_61
    6  A    between atoms: C_14  and  P_61
    7  A    between atoms: C_18  and  C_32
    8  A    between atoms: C_18  and  N_34
    9  A    between atoms: C_19  and  C_28
   10  A    between atoms: C_20  and  N_34
   11  A    between atoms: C_29  and  C_32
   12  A    between atoms: C_33  and  C_43
   13  A    between atoms: C_33  and  C_47
   14  A    between atoms: O_45  and  C_47
   15  A    between atoms: C_47  and  C_55
                            x       y       z     vdW  Elec       q    Type
                         _______ _______ _______ _____ _____    ______ ____

>  <TORSDO>
F 15

$$$$
=
 OpenBabel10232409153D

 67 72  0  0  1  0  0  0  0  0999 V2000
  189.9470  178.1220  140.7610 O   0  0  0  0  0  0  0  0  0  0  0  0
  195.0210  174.0690  138.0400 C   0  0  0  0  0  0  0  0  0  0  0  0
  192.1200  176.8300  140.8190 C   0  0  0  0  0  3  0  0  0  0  0  0
  192.5000  172.4290  134.7550 C   0  0  0  0  0  2  0  0  0  0  0  0
  190.7310  177.2690  142.9250 C   0  0  1  0  0  0  0  0  0  0  0  0
  195.0790  175.2100  138.6500 N   0  0  0  0  0  0  0  0  0  0  0  0
  193.7830  172.7050  135.4660 C   0  0  0  0  0  2  0  0  0  0  0  0
  187.5540  176.1180  136.9450 C   0  0  0  0  0  0  0  0  0  0  0  0
  190.0940  176.0880  142.2160 C   0  0  0  0  0  2  0  0  0  0  0  0
  189.5730  177.5850  139.5210 C   0  0  2  0  0  3  0  0  0  0  0  0
  191.8840  176.9230  143.6300 O   0  0  0  0  0  1  0  0  0  0  0  0
  188.2190  175.8000  138.1470 C   0  0  0  0  0  0  0  0  0  0  0  0
  189.0080  173.5930  134.6090 N   0  0  0  0  0  2  0  0  0  0  0  0
  193.9570  176.0370  138.7670 N   0  0  0  0  0  2  0  0  0  0  0  0
  187.8260  175.3760  135.7900 C   0  0  0  0  0  3  0  0  0  0  0  0
  188.7530  174.3300  135.8140 C   0  0  0  0  0  0  0  0  0  0  0  0
  192.7460  177.6350  140.0410 N   0  0  0  0  0  0  0  0  0  0  0  0
  193.7860  173.6310  137.4480 N   0  0  0  0  0  2  0  0  0  0  0  0
  190.1900  172.8750  134.3480 N   0  0  0  0  0  0  0  0  0  0  0  0
  189.3760  173.9920  137.0200 C   0  0  0  0  0  3  0  0  0  0  0  0
  194.0410  177.2770  139.5210 C   0  0  0  0  0  2  0  0  0  0  0  0
  189.1100  174.7230  138.1790 C   0  0  0  0  0  3  0  0  0  0  0  0
  191.4090  173.1220  135.0450 C   0  0  0  0  0  3  0  0  0  0  0  0
  189.4900  178.7030  138.5010 C   0  0  0  0  0  1  0  0  0  0  0  0
  193.6520  172.4310  136.8320 O   0  0  0  0  0  0  0  0  0  0  0  0
  190.7840  177.1870  141.4070 C   0  0  1  0  0  0  0  0  0  0  0  0
  187.9620  176.7410  139.6570 S   0  0  0  0  0  0  0  0  0  0  0  0
  195.9410  171.7410  138.2780 C   0  0  0  0  0  2  0  0  0  0  0  0
  196.2580  173.2250  137.9950 C   0  0  1  0  0  3  0  0  0  0  0  0
  199.7280  170.8020  136.2550 C   0  0  0  0  0  1  0  0  0  0  0  0
  198.4700  172.8930  136.7470 C   0  0  0  0  0  2  0  0  0  0  0  0
  197.2760  170.6550  136.4810 C   0  0  0  0  0  3  0  0  0  0  0  0
  196.0940  170.8280  137.0890 C   0  0  0  0  0  3  0  0  0  0  0  0
  197.0680  173.5140  136.7280 C   0  0  0  0  0  2  0  0  0  0  0  0
  198.5140  171.3720  136.9490 C   0  0  1  0  0  3  0  0  0  0  0  0
  188.6590  179.0250  142.7370 O   0  0  0  0  0  0  0  0  0  0  0  0
  189.5160  178.3310  143.7730 P   0  0  2  0  0  0  0  0  0  0  0  0
  190.3640  179.4840  144.6730 O   0  0  0  0  0  1  0  0  0  0  0  0
  188.5150  177.3460  144.8310 N   0  0  0  0  0  2  0  0  0  0  0  0
  190.8540  176.7680  146.2680 O   0  0  0  0  0  0  0  0  0  0  0  0
  189.2360  178.6520  147.0600 O   0  0  0  0  0  1  0  0  0  0  0  0
  188.4200  176.1850  147.4120 O   0  0  0  0  0  1  0  0  0  0  0  0
  189.2510  177.2790  146.4250 P   0  0  0  0  0  0  0  0  0  0  0  0
  186.5500  177.2260  136.8490 C   0  0  0  0  0  2  0  0  0  0  0  0
  183.8070  177.0150  134.3780 N   0  0  0  0  0  2  0  0  0  0  0  0
  185.7830  177.1050  135.6190 N   0  0  0  0  0  2  0  0  0  0  0  0
  184.3520  177.1560  135.5420 C   0  0  0  0  0  0  0  0  0  0  0  0
  183.5360  177.7040  136.6970 C   0  0  2  0  0  3  0  0  0  0  0  0
  184.2760  177.6090  137.8820 O   0  0  0  0  0  1  0  0  0  0  0  0
  182.1670  177.0170  136.8990 C   0  0  2  0  0  3  0  0  0  0  0  0
  181.5800  179.0740  136.3840 O   0  0  0  0  0  1  0  0  0  0  0  0
  181.0770  177.8890  136.6900 O   0  0  0  0  0  0  0  0  0  0  0  0
  182.0770  176.3390  138.2680 C   0  0  0  0  0  2  0  0  0  0  0  0
  179.9820  175.4700  140.9160 O   0  0  0  0  0  0  0  0  0  0  0  0
  180.6610  176.4010  138.8240 C   0  0  2  0  0  3  0  0  0  0  0  0
  180.6680  176.5570  140.3390 C   0  0  1  0  0  3  0  0  0  0  0  0
  179.9910  175.0800  138.5910 C   0  0  0  0  0  2  0  0  0  0  0  0
  179.9930  174.4470  139.9580 C   0  0  0  0  0  2  0  0  0  0  0  0
  179.9880  177.7970  140.6900 N   0  0  0  0  0  2  0  0  0  0  0  0
  180.7720  178.5310  141.6810 C   0  0  0  0  0  0  0  0  0  0  0  0
  180.2210  179.8770  142.1070 C   0  0  0  0  0  2  0  0  0  0  0  0
  180.0330  178.6590  142.9970 C   0  0  0  0  0  2  0  0  0  0  0  0
  182.8480  178.7690  142.9510 O   0  0  0  0  0  1  0  0  0  0  0  0
  182.2850  178.2540  141.7760 C   0  0  2  0  0  3  0  0  0  0  0  0
  184.4550  179.1500  140.9180 C   0  0  0  0  0  1  0  0  0  0  0  0
  183.0370  178.7600  140.5450 C   0  0  2  0  0  3  0  0  0  0  0  0
  182.3850  179.8560  139.9730 O   0  0  0  0  0  1  0  0  0  0  0  0
  1 26  1  0  0  0  0
  2  6  2  0  0  0  0
  4 23  1  0  0  0  0
  4  7  1  0  0  0  0
  5 11  1  1  0  0  0
  5 37  1  0  0  0  0
  6 14  1  0  0  0  0
  7 25  1  0  0  0  0
  8 12  1  0  0  0  0
  9  5  1  0  0  0  0
 10 24  1  6  0  0  0
 10 27  1  0  0  0  0
 10  1  1  0  0  0  0
 12 22  2  0  0  0  0
 12 27  1  0  0  0  0
 13 16  1  0  0  0  0
 14 21  1  0  0  0  0
 15 16  1  0  0  0  0
 15  8  2  0  0  0  0
 16 20  2  0  0  0  0
 17  3  2  0  0  0  0
 18  2  1  0  0  0  0
 19 13  1  0  0  0  0
 19 23  2  0  0  0  0
 20 22  1  0  0  0  0
 21 17  1  0  0  0  0
 25 18  1  0  0  0  0
 26  3  1  6  0  0  0
 26  9  1  0  0  0  0
 26  5  1  0  0  0  0
 29  2  1  6  0  0  0
 29 28  1  0  0  0  0
 31 35  1  0  0  0  0
 32 35  1  0  0  0  0
 32 33  2  0  0  0  0
 33 28  1  0  0  0  0
 34 31  1  0  0  0  0
 34 29  1  0  0  0  0
 35 30  1  6  0  0  0
 37 36  2  6  0  0  0
 37 38  1  0  0  0  0
 37 39  1  0  0  0  0
 39 43  1  0  0  0  0
 40 43  2  0  0  0  0
 43 41  1  0  0  0  0
 43 42  1  0  0  0  0
 44  8  1  0  0  0  0
 45 47  2  0  0  0  0
 46 44  1  0  0  0  0
 47 46  1  0  0  0  0
 47 48  1  0  0  0  0
 48 50  1  0  0  0  0
 48 49  1  1  0  0  0
 50 53  1  1  0  0  0
 51 52  1  0  0  0  0
 52 50  1  0  0  0  0
 55 53  1  1  0  0  0
 55 56  1  0  0  0  0
 56 59  1  6  0  0  0
 56 54  1  0  0  0  0
 57 55  1  0  0  0  0
 57 58  1  0  0  0  0
 58 54  1  0  0  0  0
 59 60  1  0  0  0  0
 60 64  1  0  0  0  0
 60 61  1  0  0  0  0
 60 62  1  0  0  0  0
 61 62  1  0  0  0  0
 64 63  1  1  0  0  0
 66 65  1  1  0  0  0
 66 64  1  0  0  0  0
 67 66  1  0  0  0  0
M  END
>  <MODEL>
6

>  <REMARK>
 VINA RESULT:      -2.9      2.677      4.278
  Name = 
  15 active torsions:
  status: ('A' for Active; 'I' for Inactive)
    1  A    between atoms: C_6  and  C_8
    2  A    between atoms: N_10  and  C_28
    3  A    between atoms: C_11  and  C_55
    4  A    between atoms: N_13  and  P_35
    5  A    between atoms: N_13  and  P_61
    6  A    between atoms: C_14  and  P_61
    7  A    between atoms: C_18  and  C_32
    8  A    between atoms: C_18  and  N_34
    9  A    between atoms: C_19  and  C_28
   10  A    between atoms: C_20  and  N_34
   11  A    between atoms: C_29  and  C_32
   12  A    between atoms: C_33  and  C_43
   13  A    between atoms: C_33  and  C_47
   14  A    between atoms: O_45  and  C_47
   15  A    between atoms: C_47  and  C_55
                            x       y       z     vdW  Elec       q    Type
                         _______ _______ _______ _____ _____    ______ ____

>  <TORSDO>
F 15

$$$$
=
 OpenBabel10232409153D

 67 72  0  0  1  0  0  0  0  0999 V2000
  189.5780  177.9500  141.5380 O   0  0  0  0  0  0  0  0  0  0  0  0
  195.0190  174.9520  138.2250 C   0  0  0  0  0  0  0  0  0  0  0  0
  191.8730  176.8980  141.3990 C   0  0  0  0  0  3  0  0  0  0  0  0
  192.6510  173.6290  134.6920 C   0  0  0  0  0  2  0  0  0  0  0  0
  190.4650  176.8360  143.5370 C   0  0  1  0  0  0  0  0  0  0  0  0
  194.9640  175.9750  139.0170 N   0  0  0  0  0  0  0  0  0  0  0  0
  193.9050  173.9140  135.4500 C   0  0  0  0  0  2  0  0  0  0  0  0
  187.3700  176.3710  137.4230 C   0  0  0  0  0  0  0  0  0  0  0  0
  189.9470  175.7290  142.6370 C   0  0  0  0  0  2  0  0  0  0  0  0
  189.2500  177.5910  140.2240 C   0  0  2  0  0  3  0  0  0  0  0  0
  191.6540  176.4980  144.1850 O   0  0  0  0  0  1  0  0  0  0  0  0
  188.0760  175.9290  138.5610 C   0  0  0  0  0  0  0  0  0  0  0  0
  189.0560  174.4340  134.7130 N   0  0  0  0  0  2  0  0  0  0  0  0
  193.7630  176.6510  139.2600 N   0  0  0  0  0  2  0  0  0  0  0  0
  187.7080  175.8630  136.1620 C   0  0  0  0  0  3  0  0  0  0  0  0
  188.7370  174.9300  136.0210 C   0  0  0  0  0  0  0  0  0  0  0  0
  192.4050  177.8810  140.7720 N   0  0  0  0  0  0  0  0  0  0  0  0
  193.8300  174.4920  137.5580 N   0  0  0  0  0  2  0  0  0  0  0  0
  190.3030  173.8950  134.3460 N   0  0  0  0  0  0  0  0  0  0  0  0
  189.4030  174.4620  137.1590 C   0  0  0  0  0  3  0  0  0  0  0  0
  193.7260  177.7510  140.2100 C   0  0  0  0  0  2  0  0  0  0  0  0
  189.0730  174.9590  138.4210 C   0  0  0  0  0  3  0  0  0  0  0  0
  191.4970  174.1470  135.0840 C   0  0  0  0  0  3  0  0  0  0  0  0
  189.0430  178.8490  139.4030 C   0  0  0  0  0  1  0  0  0  0  0  0
  193.8150  173.4040  136.7500 O   0  0  0  0  0  0  0  0  0  0  0  0
  190.5130  177.0130  142.0270 C   0  0  1  0  0  0  0  0  0  0  0  0
  187.7360  176.5750  140.2040 S   0  0  0  0  0  0  0  0  0  0  0  0
  196.3360  172.8670  138.7170 C   0  0  0  0  0  2  0  0  0  0  0  0
  196.3360  174.2590  138.0510 C   0  0  1  0  0  3  0  0  0  0  0  0
  199.6820  171.8620  136.0510 C   0  0  0  0  0  1  0  0  0  0  0  0
  198.2400  173.8640  136.3840 C   0  0  0  0  0  2  0  0  0  0  0  0
  197.3980  171.5160  136.9180 C   0  0  0  0  0  3  0  0  0  0  0  0
  196.3690  171.7090  137.7540 C   0  0  0  0  0  3  0  0  0  0  0  0
  196.7870  174.3090  136.5880 C   0  0  0  0  0  2  0  0  0  0  0  0
  198.5750  172.4550  136.8910 C   0  0  1  0  0  3  0  0  0  0  0  0
  187.8910  177.7040  143.7130 O   0  0  0  0  0  0  0  0  0  0  0  0
  189.1540  177.6110  144.5400 P   0  0  2  0  0  0  0  0  0  0  0  0
  189.6690  179.1640  144.9670 O   0  0  0  0  0  1  0  0  0  0  0  0
  188.8700  176.6440  145.9800 N   0  0  0  0  0  2  0  0  0  0  0  0
  188.0640  176.7580  148.6650 O   0  0  0  0  0  1  0  0  0  0  0  0
  189.4860  178.6760  147.6180 O   0  0  0  0  0  1  0  0  0  0  0  0
  186.9740  178.5460  146.8790 O   0  0  0  0  0  0  0  0  0  0  0  0
  188.3770  177.6980  147.2960 P   0  0  0  0  0  0  0  0  0  0  0  0
  186.2570  177.3700  137.5040 C   0  0  0  0  0  2  0  0  0  0  0  0
  182.8990  176.2780  138.6040 N   0  0  0  0  0  2  0  0  0  0  0  0
  184.9760  176.6880  137.6210 N   0  0  0  0  0  2  0  0  0  0  0  0
  183.9840  176.9820  138.6120 C   0  0  0  0  0  0  0  0  0  0  0  0
  184.0390  178.2770  139.3990 C   0  0  2  0  0  3  0  0  0  0  0  0
  183.8110  178.0130  140.7550 O   0  0  0  0  0  1  0  0  0  0  0  0
  183.0480  179.3610  138.9220 C   0  0  2  0  0  3  0  0  0  0  0  0
  184.8890  180.5490  139.1260 O   0  0  0  0  0  1  0  0  0  0  0  0
  183.5770  180.6670  139.0070 O   0  0  0  0  0  0  0  0  0  0  0  0
  181.7080  179.2590  139.6560 C   0  0  0  0  0  2  0  0  0  0  0  0
  180.8220  180.9680  136.7500 O   0  0  0  0  0  0  0  0  0  0  0  0
  180.5590  179.7390  138.7800 C   0  0  2  0  0  3  0  0  0  0  0  0
  180.9260  179.6770  137.3040 C   0  0  1  0  0  3  0  0  0  0  0  0
  180.3270  181.1970  139.0440 C   0  0  0  0  0  2  0  0  0  0  0  0
  180.9100  181.8640  137.8240 C   0  0  0  0  0  2  0  0  0  0  0  0
  179.9970  178.7840  136.6230 N   0  0  0  0  0  2  0  0  0  0  0  0
  180.7270  177.9090  135.7080 C   0  0  0  0  0  0  0  0  0  0  0  0
  181.2290  178.5490  134.4290 C   0  0  0  0  0  2  0  0  0  0  0  0
  182.1820  178.3120  135.5910 C   0  0  0  0  0  2  0  0  0  0  0  0
  180.2140  175.9340  137.0550 O   0  0  0  0  0  1  0  0  0  0  0  0
  180.4420  176.3950  135.7520 C   0  0  2  0  0  3  0  0  0  0  0  0
  180.9750  174.3180  134.4690 C   0  0  0  0  0  1  0  0  0  0  0  0
  181.5480  175.5860  135.0740 C   0  0  2  0  0  3  0  0  0  0  0  0
  182.5590  175.2580  135.9810 O   0  0  0  0  0  1  0  0  0  0  0  0
  1 26  1  0  0  0  0
  2  6  2  0  0  0  0
  4 23  1  0  0  0  0
  4  7  1  0  0  0  0
  5 11  1  1  0  0  0
  5 37  1  0  0  0  0
  6 14  1  0  0  0  0
  7 25  1  0  0  0  0
  8 44  1  0  0  0  0
  8 12  1  0  0  0  0
  9  5  1  0  0  0  0
 10 24  1  6  0  0  0
 10  1  1  0  0  0  0
 12 27  1  0  0  0  0
 13 16  1  0  0  0  0
 14 21  1  0  0  0  0
 15  8  2  0  0  0  0
 16 15  1  0  0  0  0
 16 20  2  0  0  0  0
 17  3  2  0  0  0  0
 18  2  1  0  0  0  0
 19 13  1  0  0  0  0
 19 23  2  0  0  0  0
 20 22  1  0  0  0  0
 21 17  1  0  0  0  0
 22 12  2  0  0  0  0
 25 18  1  0  0  0  0
 26  3  1  6  0  0  0
 26  9  1  0  0  0  0
 26  5  1  0  0  0  0
 27 10  1  0  0  0  0
 29  2  1  6  0  0  0
 29 28  1  0  0  0  0
 31 34  1  0  0  0  0
 31 35  1  0  0  0  0
 32 33  2  0  0  0  0
 33 28  1  0  0  0  0
 34 29  1  0  0  0  0
 35 30  1  6  0  0  0
 35 32  1  0  0  0  0
 37 36  2  6  0  0  0
 37 38  1  0  0  0  0
 37 39  1  0  0  0  0
 39 43  1  0  0  0  0
 42 43  2  0  0  0  0
 43 41  1  0  0  0  0
 43 40  1  0  0  0  0
 44 46  1  0  0  0  0
 45 47  2  0  0  0  0
 46 47  1  0  0  0  0
 47 48  1  0  0  0  0
 48 49  1  1  0  0  0
 50 52  1  0  0  0  0
 50 48  1  0  0  0  0
 50 53  1  1  0  0  0
 52 51  1  0  0  0  0
 54 56  1  0  0  0  0
 54 58  1  0  0  0  0
 55 57  1  0  0  0  0
 55 53  1  1  0  0  0
 56 59  1  6  0  0  0
 56 55  1  0  0  0  0
 58 57  1  0  0  0  0
 60 64  1  0  0  0  0
 60 59  1  0  0  0  0
 61 62  1  0  0  0  0
 61 60  1  0  0  0  0
 62 60  1  0  0  0  0
 64 63  1  1  0  0  0
 66 65  1  1  0  0  0
 66 64  1  0  0  0  0
 66 67  1  0  0  0  0
M  END
>  <MODEL>
7

>  <REMARK>
 VINA RESULT:      -1.8      2.251      3.321
  Name = 
  15 active torsions:
  status: ('A' for Active; 'I' for Inactive)
    1  A    between atoms: C_6  and  C_8
    2  A    between atoms: N_10  and  C_28
    3  A    between atoms: C_11  and  C_55
    4  A    between atoms: N_13  and  P_35
    5  A    between atoms: N_13  and  P_61
    6  A    between atoms: C_14  and  P_61
    7  A    between atoms: C_18  and  C_32
    8  A    between atoms: C_18  and  N_34
    9  A    between atoms: C_19  and  C_28
   10  A    between atoms: C_20  and  N_34
   11  A    between atoms: C_29  and  C_32
   12  A    between atoms: C_33  and  C_43
   13  A    between atoms: C_33  and  C_47
   14  A    between atoms: O_45  and  C_47
   15  A    between atoms: C_47  and  C_55
                            x       y       z     vdW  Elec       q    Type
                         _______ _______ _______ _____ _____    ______ ____

>  <TORSDO>
F 15

$$$$
