=
 OpenBabel10232410083D

 65 71  0  0  1  0  0  0  0  0999 V2000
  189.1410  177.6960  142.0700 C   0  0  2  0  0  3  0  0  0  0  0  0
  189.3860  176.6580  139.8800 C   0  0  2  0  0  3  0  0  0  0  0  0
  187.5990  177.9500  138.8050 O   0  0  0  0  0  1  0  0  0  0  0  0
  191.0510  178.0600  143.7880 C   0  0  2  0  0  3  0  0  0  0  0  0
  189.8920  178.6690  142.9640 C   0  0  0  0  0  2  0  0  0  0  0  0
  188.0380  177.3670  139.9990 C   0  0  2  0  0  3  0  0  0  0  0  0
  190.1110  176.9000  141.2010 C   0  0  2  0  0  3  0  0  0  0  0  0
  190.8170  175.7800  143.1400 C   0  0  2  0  0  3  0  0  0  0  0  0
  190.4530  175.6550  141.7740 O   0  0  0  0  0  0  0  0  0  0  0  0
  188.2230  178.4000  141.0750 C   0  0  1  0  0  3  0  0  0  0  0  0
  189.6820  175.7640  143.9700 O   0  0  0  0  0  1  0  0  0  0  0  0
  191.6970  176.8600  143.3920 O   0  0  0  0  0  0  0  0  0  0  0  0
  190.8270  176.2170  137.8920 C   0  0  0  0  0  3  0  0  0  0  0  0
  190.2160  177.0800  138.6950 C   0  0  0  0  0  3  0  0  0  0  0  0
  191.7470  176.6990  136.7910 C   0  0  0  0  0  2  0  0  0  0  0  0
  192.6900  175.6370  136.2320 C   0  0  1  0  0  3  0  0  0  0  0  0
  196.1180  176.2150  135.4030 C   0  0  0  0  0  0  0  0  0  0  0  0
  196.1300  176.8970  134.3470 O   0  0  0  0  0  0  0  0  0  0  0  0
  194.7770  174.9860  137.1450 C   0  0  0  0  0  3  0  0  0  0  0  0
  197.3440  175.9230  136.0620 N   0  0  0  0  0  1  0  0  0  0  0  0
  193.6840  176.2230  135.4240 O   0  0  0  0  0  0  0  0  0  0  0  0
  194.8630  175.8380  135.9840 N   0  0  0  0  0  0  0  0  0  0  0  0
  193.3040  174.7710  137.3120 C   0  0  0  0  0  3  0  0  0  0  0  0
  186.9070  180.4090  141.8580 C   0  0  0  0  0  1  0  0  0  0  0  0
  186.8930  178.9050  141.6400 C   0  0  2  0  0  3  0  0  0  0  0  0
  186.2580  178.1070  142.7910 C   0  0  1  0  0  3  0  0  0  0  0  0
  186.4440  178.7150  144.0720 O   0  0  0  0  0  0  0  0  0  0  0  0
  185.6400  178.3530  145.1580 C   0  0  0  0  0  0  0  0  0  0  0  0
  185.8640  177.1080  145.8180 N   0  0  0  0  0  1  0  0  0  0  0  0
  184.7080  179.1140  145.5460 O   0  0  0  0  0  0  0  0  0  0  0  0
  184.8420  177.5580  142.6010 C   0  0  0  0  0  2  0  0  0  0  0  0
  182.3520  178.9700  143.0270 C   0  0  0  0  0  1  0  0  0  0  0  0
  182.9140  177.6090  141.0510 C   0  0  1  0  0  3  0  0  0  0  0  0
  184.2080  178.3050  141.4230 C   0  0  1  0  0  3  0  0  0  0  0  0
  182.8680  179.0190  141.6100 C   0  0  2  0  0  3  0  0  0  0  0  0
  187.2310  173.4640  134.7210 C   0  0  2  0  0  3  0  0  0  0  0  0
  187.2500  172.4670  137.0840 C   0  0  0  0  0  1  0  0  0  0  0  0
  187.6500  175.6760  135.6540 C   0  0  2  0  0  3  0  0  0  0  0  0
  183.5960  175.5520  138.0640 N   0  0  0  0  0  2  0  0  0  0  0  0
  184.5260  176.3860  137.3690 C   0  0  0  0  0  0  0  0  0  0  0  0
  184.5100  177.8610  137.5870 C   0  0  0  0  0  2  0  0  0  0  0  0
  189.2110  172.5370  135.6610 N   0  0  0  0  0  2  0  0  0  0  0  0
  186.2170  175.3080  135.7100 C   0  0  0  0  0  0  0  0  0  0  0  0
  181.7730  175.3990  139.5020 O   0  0  0  0  0  0  0  0  0  0  0  0
  187.7690  172.3770  135.6540 C   0  0  2  0  0  3  0  0  0  0  0  0
  187.8450  177.0260  134.9950 C   0  0  0  0  0  1  0  0  0  0  0  0
  185.3740  175.8570  136.5330 C   0  0  0  0  0  0  0  0  0  0  0  0
  188.2630  174.5830  134.7840 C   0  0  1  0  0  3  0  0  0  0  0  0
  182.7140  176.0960  139.0580 C   0  0  0  0  0  0  0  0  0  0  0  0
  189.4640  173.9680  135.4860 C   0  0  0  0  0  2  0  0  0  0  0  0
  184.2070  178.1470  139.0430 C   0  0  0  0  0  2  0  0  0  0  0  0
  182.8750  177.5310  139.5200 C   0  0  2  0  0  3  0  0  0  0  0  0
  185.9660  174.0210  135.1680 N   0  0  0  0  0  2  0  0  0  0  0  0
  191.0690  178.3290  145.1880 O   0  0  0  0  0  0  0  0  0  0  0  0
  188.8380  178.3880  145.7320 O   0  0  0  0  0  0  0  0  0  0  0  0
  190.0040  178.0060  146.0390 C   0  0  0  0  0  0  0  0  0  0  0  0
  189.4020  176.0790  147.2600 O   0  0  0  0  0  1  0  0  0  0  0  0
  190.2170  177.2420  147.3120 C   0  0  2  0  0  0  0  0  0  0  0  0
  189.8980  178.1040  148.4110 O   0  0  0  0  0  0  0  0  0  0  0  0
  188.5270  178.0280  148.7580 C   0  0  0  0  0  1  0  0  0  0  0  0
  191.9880  175.7400  146.5590 O   0  0  0  0  0  1  0  0  0  0  0  0
  191.7090  176.8360  147.3990 C   0  0  2  0  0  3  0  0  0  0  0  0
  192.8250  177.8080  149.2800 O   0  0  0  0  0  1  0  0  0  0  0  0
  192.2550  176.6210  148.8270 C   0  0  2  0  0  3  0  0  0  0  0  0
  193.3210  175.5470  148.8490 C   0  0  0  0  0  1  0  0  0  0  0  0
  1  5  1  6  0  0  0
  2 14  1  6  0  0  0
  2  6  1  0  0  0  0
  2  7  1  0  0  0  0
  4 54  1  1  0  0  0
  5  4  1  0  0  0  0
  6  3  1  6  0  0  0
  6 10  1  0  0  0  0
  7  9  1  1  0  0  0
  7  1  1  0  0  0  0
  8 12  1  0  0  0  0
  8 11  1  1  0  0  0
  9  8  1  0  0  0  0
 10 25  1  1  0  0  0
 10  1  1  0  0  0  0
 12  4  1  0  0  0  0
 13 14  2  0  0  0  0
 15 13  1  0  0  0  0
 16 15  1  1  0  0  0
 16 23  1  0  0  0  0
 17 22  1  0  0  0  0
 17 20  1  0  0  0  0
 18 17  2  0  0  0  0
 19 23  2  0  0  0  0
 21 22  1  0  0  0  0
 21 16  1  0  0  0  0
 22 19  1  0  0  0  0
 25 24  1  1  0  0  0
 25 26  1  0  0  0  0
 26 31  1  6  0  0  0
 26 27  1  0  0  0  0
 27 28  1  0  0  0  0
 28 30  2  0  0  0  0
 28 29  1  0  0  0  0
 33 52  1  6  0  0  0
 33 34  1  0  0  0  0
 33 35  1  0  0  0  0
 34 35  1  0  0  0  0
 34 31  1  1  0  0  0
 35 32  1  1  0  0  0
 36 48  1  0  0  0  0
 36 53  1  1  0  0  0
 36 45  1  0  0  0  0
 38 46  1  6  0  0  0
 38 43  1  0  0  0  0
 39 49  1  0  0  0  0
 40 41  1  0  0  0  0
 40 39  1  0  0  0  0
 41 51  1  0  0  0  0
 43 47  2  0  0  0  0
 45 42  1  0  0  0  0
 45 37  1  1  0  0  0
 47 40  2  0  0  0  0
 48 50  1  1  0  0  0
 48 38  1  0  0  0  0
 49 44  2  0  0  0  0
 49 52  1  0  0  0  0
 50 42  1  0  0  0  0
 52 51  1  6  0  0  0
 53 43  1  0  0  0  0
 54 56  1  0  0  0  0
 55 56  2  0  0  0  0
 56 58  1  0  0  0  0
 58 57  1  1  0  0  0
 58 62  1  0  0  0  0
 58 59  1  0  0  0  0
 59 60  1  0  0  0  0
 62 61  1  6  0  0  0
 62 64  1  0  0  0  0
 64 65  1  6  0  0  0
 64 63  1  0  0  0  0
M  END
>  <MODEL>
1

>  <REMARK>
 VINA RESULT:      -5.4      0.000      0.000
  Name = 
  16 active torsions:
  status: ('A' for Active; 'I' for Inactive)
    1  A    between atoms: C_2  and  C_39
    2  A    between atoms: C_5  and  C_24
    3  A    between atoms: C_5  and  C_51
    4  A    between atoms: O_7  and  C_55
    5  A    between atoms: C_8  and  C_39
    6  A    between atoms: C_10  and  O_36
    7  A    between atoms: C_11  and  C_35
    8  A    between atoms: C_15  and  O_28
    9  A    between atoms: C_19  and  C_31
   10  A    between atoms: C_19  and  C_55
   11  A    between atoms: C_24  and  O_36
   12  A    between atoms: C_24  and  C_54
   13  A    between atoms: O_28  and  C_50
   14  A    between atoms: C_33  and  C_62
   15  A    between atoms: C_37  and  C_54
   16  A    between atoms: C_50  and  C_55
                            x       y       z     vdW  Elec       q    Type
                         _______ _______ _______ _____ _____    ______ ____

>  <TORSDO>
F 16

$$$$
=
 OpenBabel10232410083D

 65 71  0  0  1  0  0  0  0  0999 V2000
  191.9890  175.1310  137.1170 C   0  0  2  0  0  3  0  0  0  0  0  0
  191.9020  176.9520  138.7320 C   0  0  2  0  0  3  0  0  0  0  0  0
  189.6220  176.4760  139.5030 O   0  0  0  0  0  1  0  0  0  0  0  0
  194.1250  173.8340  136.4200 C   0  0  2  0  0  3  0  0  0  0  0  0
  192.6720  173.7840  136.9490 C   0  0  0  0  0  2  0  0  0  0  0  0
  190.4990  176.4400  138.4130 C   0  0  2  0  0  3  0  0  0  0  0  0
  192.8640  176.0860  137.9250 C   0  0  2  0  0  3  0  0  0  0  0  0
  194.3260  176.1840  136.0910 C   0  0  2  0  0  3  0  0  0  0  0  0
  193.6560  176.9180  137.1050 O   0  0  0  0  0  0  0  0  0  0  0  0
  190.6890  175.0370  137.9110 C   0  0  1  0  0  3  0  0  0  0  0  0
  193.4980  175.9980  134.9700 O   0  0  0  0  0  1  0  0  0  0  0  0
  194.9300  174.9940  136.5620 O   0  0  0  0  0  0  0  0  0  0  0  0
  191.4060  177.3670  141.1420 C   0  0  0  0  0  3  0  0  0  0  0  0
  192.2480  176.9630  140.2000 C   0  0  0  0  0  3  0  0  0  0  0  0
  191.8470  177.4720  142.5860 C   0  0  0  0  0  2  0  0  0  0  0  0
  191.1810  176.4810  143.5350 C   0  0  1  0  0  3  0  0  0  0  0  0
  190.8710  176.9600  147.0640 C   0  0  0  0  0  0  0  0  0  0  0  0
  192.0140  176.7900  147.5590 O   0  0  0  0  0  0  0  0  0  0  0  0
  189.3950  176.9400  145.0240 C   0  0  0  0  0  3  0  0  0  0  0  0
  189.8010  177.3750  147.9020 N   0  0  0  0  0  1  0  0  0  0  0  0
  191.7420  176.5660  144.8250 O   0  0  0  0  0  0  0  0  0  0  0  0
  190.6930  176.8400  145.6470 N   0  0  0  0  0  0  0  0  0  0  0  0
  189.6750  176.6360  143.5830 C   0  0  0  0  0  3  0  0  0  0  0  0
  189.2520  173.0320  137.3640 C   0  0  0  0  0  1  0  0  0  0  0  0
  189.4740  174.5190  137.1370 C   0  0  2  0  0  3  0  0  0  0  0  0
  189.3180  174.9640  135.6730 C   0  0  1  0  0  3  0  0  0  0  0  0
  190.1860  174.2700  134.7740 O   0  0  0  0  0  0  0  0  0  0  0  0
  189.9860  172.9150  134.4910 C   0  0  0  0  0  0  0  0  0  0  0  0
  191.1130  172.0510  134.3460 N   0  0  0  0  0  1  0  0  0  0  0  0
  188.8170  172.4560  134.3470 O   0  0  0  0  0  0  0  0  0  0  0  0
  187.9040  175.1320  135.1120 C   0  0  0  0  0  2  0  0  0  0  0  0
  185.6700  173.5340  136.0240 C   0  0  0  0  0  1  0  0  0  0  0  0
  185.6440  175.9720  135.6690 C   0  0  1  0  0  3  0  0  0  0  0  0
  187.0180  175.6780  136.2370 C   0  0  1  0  0  3  0  0  0  0  0  0
  185.8040  174.8740  136.7040 C   0  0  2  0  0  3  0  0  0  0  0  0
  185.0060  179.7310  143.5020 C   0  0  2  0  0  3  0  0  0  0  0  0
  186.6260  177.7640  143.2060 C   0  0  0  0  0  1  0  0  0  0  0  0
  183.3040  178.5130  142.2540 C   0  0  2  0  0  3  0  0  0  0  0  0
  186.0310  178.4180  138.4060 N   0  0  0  0  0  2  0  0  0  0  0  0
  184.6890  178.4890  138.8950 C   0  0  0  0  0  0  0  0  0  0  0  0
  183.5490  178.1720  137.9880 C   0  0  0  0  0  2  0  0  0  0  0  0
  185.2110  178.0320  145.1560 N   0  0  0  0  0  2  0  0  0  0  0  0
  184.2660  179.1990  141.3630 C   0  0  0  0  0  0  0  0  0  0  0  0
  187.4580  178.0770  136.5990 O   0  0  0  0  0  0  0  0  0  0  0  0
  185.9840  178.7580  144.1660 C   0  0  2  0  0  3  0  0  0  0  0  0
  181.8750  178.8650  141.8950 C   0  0  0  0  0  1  0  0  0  0  0  0
  184.4660  178.8480  140.1280 C   0  0  0  0  0  0  0  0  0  0  0  0
  183.6420  179.0680  143.6340 C   0  0  1  0  0  3  0  0  0  0  0  0
  186.3100  177.9380  137.0810 C   0  0  0  0  0  0  0  0  0  0  0  0
  183.8530  177.9290  144.6190 C   0  0  0  0  0  2  0  0  0  0  0  0
  183.9400  177.0320  137.0730 C   0  0  0  0  0  2  0  0  0  0  0  0
  185.2060  177.3260  136.2410 C   0  0  2  0  0  3  0  0  0  0  0  0
  185.2610  179.9110  142.0830 N   0  0  0  0  0  2  0  0  0  0  0  0
  194.4450  173.0020  135.3080 O   0  0  0  0  0  0  0  0  0  0  0  0
  196.6670  172.9930  134.7250 O   0  0  0  0  0  0  0  0  0  0  0  0
  195.6770  172.3480  135.1760 C   0  0  0  0  0  0  0  0  0  0  0  0
  196.6850  170.3070  134.5550 O   0  0  0  0  0  1  0  0  0  0  0  0
  195.8420  170.9010  135.5330 C   0  0  2  0  0  0  0  0  0  0  0  0
  194.5420  170.3020  135.5930 O   0  0  0  0  0  0  0  0  0  0  0  0
  194.4140  169.4320  136.7020 C   0  0  0  0  0  1  0  0  0  0  0  0
  196.8790  172.0840  137.4000 O   0  0  0  0  0  1  0  0  0  0  0  0
  196.5090  170.8090  136.9290 C   0  0  2  0  0  3  0  0  0  0  0  0
  197.4450  168.9770  138.1510 O   0  0  0  0  0  1  0  0  0  0  0  0
  197.6660  169.7930  137.0450 C   0  0  2  0  0  3  0  0  0  0  0  0
  198.9930  170.4950  137.2340 C   0  0  0  0  0  1  0  0  0  0  0  0
  1  5  1  1  0  0  0
  1 10  1  0  0  0  0
  1  7  1  0  0  0  0
  2 14  1  1  0  0  0
  4 54  1  6  0  0  0
  4 12  1  0  0  0  0
  4  5  1  0  0  0  0
  6  2  1  0  0  0  0
  6  3  1  1  0  0  0
  7  9  1  6  0  0  0
  7  2  1  0  0  0  0
  8 11  1  6  0  0  0
  8 12  1  0  0  0  0
  8  9  1  0  0  0  0
 10 25  1  6  0  0  0
 10  6  1  0  0  0  0
 13 15  1  0  0  0  0
 14 13  2  0  0  0  0
 16 15  1  6  0  0  0
 16 23  1  0  0  0  0
 16 21  1  0  0  0  0
 17 18  2  0  0  0  0
 17 20  1  0  0  0  0
 19 22  1  0  0  0  0
 21 22  1  0  0  0  0
 22 17  1  0  0  0  0
 23 19  2  0  0  0  0
 25 24  1  6  0  0  0
 26 31  1  6  0  0  0
 26 25  1  0  0  0  0
 27 26  1  0  0  0  0
 28 27  1  0  0  0  0
 29 28  1  0  0  0  0
 30 28  2  0  0  0  0
 33 34  1  0  0  0  0
 33 52  1  1  0  0  0
 33 35  1  0  0  0  0
 34 31  1  6  0  0  0
 34 35  1  0  0  0  0
 35 32  1  6  0  0  0
 36 53  1  6  0  0  0
 36 48  1  0  0  0  0
 36 45  1  0  0  0  0
 38 46  1  6  0  0  0
 38 48  1  0  0  0  0
 39 40  1  0  0  0  0
 40 47  2  0  0  0  0
 41 40  1  0  0  0  0
 43 53  1  0  0  0  0
 43 38  1  0  0  0  0
 44 49  2  0  0  0  0
 45 37  1  6  0  0  0
 45 42  1  0  0  0  0
 47 43  2  0  0  0  0
 48 50  1  1  0  0  0
 49 39  1  0  0  0  0
 50 42  1  0  0  0  0
 51 41  1  0  0  0  0
 52 51  1  1  0  0  0
 52 49  1  0  0  0  0
 55 56  2  0  0  0  0
 56 54  1  0  0  0  0
 56 58  1  0  0  0  0
 58 57  1  6  0  0  0
 58 59  1  0  0  0  0
 58 62  1  0  0  0  0
 59 60  1  0  0  0  0
 62 64  1  0  0  0  0
 62 61  1  6  0  0  0
 64 65  1  1  0  0  0
 64 63  1  0  0  0  0
M  END
>  <MODEL>
2

>  <REMARK>
 VINA RESULT:      -5.3      3.055      9.765
  Name = 
  16 active torsions:
  status: ('A' for Active; 'I' for Inactive)
    1  A    between atoms: C_2  and  C_39
    2  A    between atoms: C_5  and  C_24
    3  A    between atoms: C_5  and  C_51
    4  A    between atoms: O_7  and  C_55
    5  A    between atoms: C_8  and  C_39
    6  A    between atoms: C_10  and  O_36
    7  A    between atoms: C_11  and  C_35
    8  A    between atoms: C_15  and  O_28
    9  A    between atoms: C_19  and  C_31
   10  A    between atoms: C_19  and  C_55
   11  A    between atoms: C_24  and  O_36
   12  A    between atoms: C_24  and  C_54
   13  A    between atoms: O_28  and  C_50
   14  A    between atoms: C_33  and  C_62
   15  A    between atoms: C_37  and  C_54
   16  A    between atoms: C_50  and  C_55
                            x       y       z     vdW  Elec       q    Type
                         _______ _______ _______ _____ _____    ______ ____

>  <TORSDO>
F 16

$$$$
=
 OpenBabel10232410083D

 65 71  0  0  1  0  0  0  0  0999 V2000
  189.7930  176.2680  137.3260 C   0  0  2  0  0  3  0  0  0  0  0  0
  192.2170  176.4950  137.4100 C   0  0  2  0  0  3  0  0  0  0  0  0
  192.3130  177.1290  139.7780 O   0  0  0  0  0  1  0  0  0  0  0  0
  188.4840  174.6330  135.7940 C   0  0  2  0  0  3  0  0  0  0  0  0
  188.7510  175.1660  137.2210 C   0  0  0  0  0  2  0  0  0  0  0  0
  191.5620  177.1970  138.5980 C   0  0  2  0  0  3  0  0  0  0  0  0
  191.0800  175.8670  136.6090 C   0  0  2  0  0  3  0  0  0  0  0  0
  189.9290  176.0810  134.5740 C   0  0  2  0  0  3  0  0  0  0  0  0
  191.1310  176.3450  135.2820 O   0  0  0  0  0  0  0  0  0  0  0  0
  190.2230  176.5370  138.7650 C   0  0  1  0  0  3  0  0  0  0  0  0
  188.9700  177.0800  134.8160 O   0  0  0  0  0  1  0  0  0  0  0  0
  189.4450  174.7630  134.7580 O   0  0  0  0  0  0  0  0  0  0  0  0
  193.2410  174.2210  137.3770 C   0  0  0  0  0  3  0  0  0  0  0  0
  193.2730  175.4850  137.7790 C   0  0  0  0  0  3  0  0  0  0  0  0
  194.2610  173.2200  137.8770 C   0  0  0  0  0  2  0  0  0  0  0  0
  195.3170  172.8150  136.8540 C   0  0  1  0  0  3  0  0  0  0  0  0
  198.6730  174.0440  136.8210 C   0  0  0  0  0  0  0  0  0  0  0  0
  198.6240  175.2340  136.4200 O   0  0  0  0  0  0  0  0  0  0  0  0
  197.4520  171.8990  137.3210 C   0  0  0  0  0  3  0  0  0  0  0  0
  199.9160  173.5000  137.2470 N   0  0  0  0  0  1  0  0  0  0  0  0
  196.2530  173.8510  136.6600 O   0  0  0  0  0  0  0  0  0  0  0  0
  197.4590  173.2920  136.9470 N   0  0  0  0  0  0  0  0  0  0  0  0
  196.0080  171.5140  137.2080 C   0  0  0  0  0  3  0  0  0  0  0  0
  189.3100  178.8480  139.2260 C   0  0  0  0  0  1  0  0  0  0  0  0
  189.2540  177.3760  139.6020 C   0  0  2  0  0  3  0  0  0  0  0  0
  189.2080  177.1130  141.1160 C   0  0  1  0  0  3  0  0  0  0  0  0
  189.9690  175.9700  141.5160 O   0  0  0  0  0  0  0  0  0  0  0  0
  190.7790  176.0140  142.6550 C   0  0  0  0  0  0  0  0  0  0  0  0
  191.7310  177.0660  142.8020 N   0  0  0  0  0  1  0  0  0  0  0  0
  190.6850  175.1200  143.5440 O   0  0  0  0  0  0  0  0  0  0  0  0
  189.3880  178.3000  142.0660 C   0  0  0  0  0  2  0  0  0  0  0  0
  187.7970  176.9720  144.0860 C   0  0  0  0  0  1  0  0  0  0  0  0
  186.9590  177.8450  141.9400 C   0  0  1  0  0  3  0  0  0  0  0  0
  187.9970  178.8540  142.3900 C   0  0  1  0  0  3  0  0  0  0  0  0
  187.1180  178.1430  143.4190 C   0  0  2  0  0  3  0  0  0  0  0  0
  180.0610  176.1430  136.8990 C   0  0  2  0  0  3  0  0  0  0  0  0
  180.9830  174.2780  138.3990 C   0  0  0  0  0  1  0  0  0  0  0  0
  182.3320  176.7220  136.2290 C   0  0  2  0  0  3  0  0  0  0  0  0
  183.4930  177.7920  140.6740 N   0  0  0  0  0  2  0  0  0  0  0  0
  183.7050  178.1050  139.2950 C   0  0  0  0  0  0  0  0  0  0  0  0
  184.9100  178.8830  138.8850 C   0  0  0  0  0  2  0  0  0  0  0  0
  180.2500  173.9030  136.1190 N   0  0  0  0  0  2  0  0  0  0  0  0
  181.9600  177.3280  137.5260 C   0  0  0  0  0  0  0  0  0  0  0  0
  184.1900  178.0270  142.8820 O   0  0  0  0  0  0  0  0  0  0  0  0
  179.9840  174.6730  137.3180 C   0  0  2  0  0  3  0  0  0  0  0  0
  182.8620  177.7640  135.2660 C   0  0  0  0  0  1  0  0  0  0  0  0
  182.8350  177.7250  138.4020 C   0  0  0  0  0  0  0  0  0  0  0  0
  181.0110  176.1620  135.7090 C   0  0  1  0  0  3  0  0  0  0  0  0
  184.4790  178.1180  141.6660 C   0  0  0  0  0  0  0  0  0  0  0  0
  181.1790  174.7020  135.3180 C   0  0  0  0  0  2  0  0  0  0  0  0
  186.0890  178.4620  139.7360 C   0  0  0  0  0  2  0  0  0  0  0  0
  185.8410  178.6360  141.2490 C   0  0  2  0  0  3  0  0  0  0  0  0
  180.6380  176.9960  137.9230 N   0  0  0  0  0  2  0  0  0  0  0  0
  187.1270  174.5720  135.3630 O   0  0  0  0  0  0  0  0  0  0  0  0
  187.0560  172.3470  134.7960 O   0  0  0  0  0  0  0  0  0  0  0  0
  186.4310  173.3660  135.2090 C   0  0  0  0  0  0  0  0  0  0  0  0
  184.3150  174.3410  134.8410 O   0  0  0  0  0  1  0  0  0  0  0  0
  184.9630  173.2610  135.4990 C   0  0  2  0  0  0  0  0  0  0  0  0
  184.7830  173.2800  136.9200 O   0  0  0  0  0  0  0  0  0  0  0  0
  185.9340  172.8190  137.6020 C   0  0  0  0  0  1  0  0  0  0  0  0
  183.1730  172.0650  134.3480 O   0  0  0  0  0  1  0  0  0  0  0  0
  184.4440  171.9140  134.9370 C   0  0  2  0  0  3  0  0  0  0  0  0
  185.3610  169.7600  135.4310 O   0  0  0  0  0  1  0  0  0  0  0  0
  184.4870  170.7250  135.9210 C   0  0  2  0  0  3  0  0  0  0  0  0
  183.1210  170.0920  136.0730 C   0  0  0  0  0  1  0  0  0  0  0  0
  1  5  1  1  0  0  0
  1 10  1  0  0  0  0
  2 14  1  1  0  0  0
  2  6  1  0  0  0  0
  4 54  1  6  0  0  0
  4  5  1  0  0  0  0
  6 10  1  0  0  0  0
  6  3  1  1  0  0  0
  7  9  1  6  0  0  0
  7  1  1  0  0  0  0
  7  2  1  0  0  0  0
  8 12  1  0  0  0  0
  8 11  1  1  0  0  0
  8  9  1  0  0  0  0
 10 25  1  6  0  0  0
 12  4  1  0  0  0  0
 13 14  2  0  0  0  0
 13 15  1  0  0  0  0
 16 23  1  0  0  0  0
 16 15  1  1  0  0  0
 17 22  1  0  0  0  0
 17 20  1  0  0  0  0
 18 17  2  0  0  0  0
 21 16  1  0  0  0  0
 21 22  1  0  0  0  0
 22 19  1  0  0  0  0
 23 19  2  0  0  0  0
 25 24  1  1  0  0  0
 25 26  1  0  0  0  0
 26 27  1  0  0  0  0
 26 31  1  1  0  0  0
 27 28  1  0  0  0  0
 28 29  1  0  0  0  0
 28 30  2  0  0  0  0
 33 52  1  6  0  0  0
 33 34  1  0  0  0  0
 33 35  1  0  0  0  0
 34 31  1  1  0  0  0
 34 35  1  0  0  0  0
 35 32  1  1  0  0  0
 36 45  1  0  0  0  0
 36 53  1  1  0  0  0
 38 46  1  6  0  0  0
 38 43  1  0  0  0  0
 39 49  1  0  0  0  0
 40 39  1  0  0  0  0
 41 40  1  0  0  0  0
 41 51  1  0  0  0  0
 42 45  1  0  0  0  0
 43 53  1  0  0  0  0
 43 47  2  0  0  0  0
 45 37  1  1  0  0  0
 47 40  2  0  0  0  0
 48 50  1  1  0  0  0
 48 38  1  0  0  0  0
 48 36  1  0  0  0  0
 49 44  2  0  0  0  0
 50 42  1  0  0  0  0
 52 51  1  6  0  0  0
 52 49  1  0  0  0  0
 55 56  2  0  0  0  0
 56 54  1  0  0  0  0
 56 58  1  0  0  0  0
 58 57  1  6  0  0  0
 58 59  1  0  0  0  0
 59 60  1  0  0  0  0
 62 61  1  1  0  0  0
 62 58  1  0  0  0  0
 62 64  1  0  0  0  0
 63 64  1  0  0  0  0
 64 65  1  6  0  0  0
M  END
>  <MODEL>
3

>  <REMARK>
 VINA RESULT:      -4.8      3.158      7.934
  Name = 
  16 active torsions:
  status: ('A' for Active; 'I' for Inactive)
    1  A    between atoms: C_2  and  C_39
    2  A    between atoms: C_5  and  C_24
    3  A    between atoms: C_5  and  C_51
    4  A    between atoms: O_7  and  C_55
    5  A    between atoms: C_8  and  C_39
    6  A    between atoms: C_10  and  O_36
    7  A    between atoms: C_11  and  C_35
    8  A    between atoms: C_15  and  O_28
    9  A    between atoms: C_19  and  C_31
   10  A    between atoms: C_19  and  C_55
   11  A    between atoms: C_24  and  O_36
   12  A    between atoms: C_24  and  C_54
   13  A    between atoms: O_28  and  C_50
   14  A    between atoms: C_33  and  C_62
   15  A    between atoms: C_37  and  C_54
   16  A    between atoms: C_50  and  C_55
                            x       y       z     vdW  Elec       q    Type
                         _______ _______ _______ _____ _____    ______ ____

>  <TORSDO>
F 16

$$$$
=
 OpenBabel10232410083D

 65 71  0  0  1  0  0  0  0  0999 V2000
  188.7730  177.8740  141.8010 C   0  0  2  0  0  3  0  0  0  0  0  0
  188.6520  177.1130  139.4910 C   0  0  2  0  0  3  0  0  0  0  0  0
  186.7580  178.5430  138.8700 O   0  0  0  0  0  1  0  0  0  0  0  0
  190.9330  178.0070  143.2330 C   0  0  2  0  0  3  0  0  0  0  0  0
  189.6790  178.7230  142.6790 C   0  0  0  0  0  2  0  0  0  0  0  0
  187.3580  177.8130  139.9020 C   0  0  2  0  0  3  0  0  0  0  0  0
  189.5770  177.1830  140.7020 C   0  0  2  0  0  3  0  0  0  0  0  0
  190.5410  175.8270  142.3590 C   0  0  2  0  0  3  0  0  0  0  0  0
  189.9680  175.8750  141.0600 O   0  0  0  0  0  0  0  0  0  0  0  0
  187.7330  178.7030  141.0530 C   0  0  1  0  0  3  0  0  0  0  0  0
  189.5460  175.7170  143.3460 O   0  0  0  0  0  1  0  0  0  0  0  0
  191.4780  176.8600  142.6000 O   0  0  0  0  0  0  0  0  0  0  0  0
  189.2280  177.0830  137.0640 C   0  0  0  0  0  3  0  0  0  0  0  0
  189.3030  177.6710  138.2510 C   0  0  0  0  0  3  0  0  0  0  0  0
  190.0020  177.6220  135.8790 C   0  0  0  0  0  2  0  0  0  0  0  0
  190.4810  176.5640  134.8900 C   0  0  1  0  0  3  0  0  0  0  0  0
  192.7340  173.9120  135.7030 C   0  0  0  0  0  0  0  0  0  0  0  0
  193.8750  174.4250  135.8300 O   0  0  0  0  0  0  0  0  0  0  0  0
  190.2980  174.2150  135.1410 C   0  0  0  0  0  3  0  0  0  0  0  0
  192.5540  172.5300  135.9840 N   0  0  0  0  0  1  0  0  0  0  0  0
  191.7630  176.0950  135.2380 O   0  0  0  0  0  0  0  0  0  0  0  0
  191.6160  174.7500  135.3840 N   0  0  0  0  0  0  0  0  0  0  0  0
  189.5020  175.4190  134.7360 C   0  0  0  0  0  3  0  0  0  0  0  0
  186.6210  180.6030  142.2930 C   0  0  0  0  0  1  0  0  0  0  0  0
  186.5200  179.1450  141.8750 C   0  0  2  0  0  3  0  0  0  0  0  0
  186.0300  178.2020  142.9870 C   0  0  1  0  0  3  0  0  0  0  0  0
  186.3240  178.6780  144.3030 O   0  0  0  0  0  0  0  0  0  0  0  0
  185.7530  178.0710  145.4260 C   0  0  0  0  0  0  0  0  0  0  0  0
  184.8100  178.7950  146.2150 N   0  0  0  0  0  1  0  0  0  0  0  0
  186.0780  176.8940  145.7540 O   0  0  0  0  0  0  0  0  0  0  0  0
  184.6200  177.6180  142.8750 C   0  0  0  0  0  2  0  0  0  0  0  0
  182.2840  179.0110  143.8630 C   0  0  0  0  0  1  0  0  0  0  0  0
  182.4640  177.8700  141.6870 C   0  0  1  0  0  3  0  0  0  0  0  0
  183.8250  178.5010  141.9080 C   0  0  1  0  0  3  0  0  0  0  0  0
  182.5600  179.2100  142.3930 C   0  0  2  0  0  3  0  0  0  0  0  0
  184.2870  173.3110  134.4900 C   0  0  2  0  0  3  0  0  0  0  0  0
  184.3600  172.1170  136.7580 C   0  0  0  0  0  1  0  0  0  0  0  0
  185.4980  175.1970  135.4460 C   0  0  2  0  0  3  0  0  0  0  0  0
  182.0200  176.0190  138.5250 N   0  0  0  0  0  2  0  0  0  0  0  0
  183.0430  176.6110  137.7200 C   0  0  0  0  0  0  0  0  0  0  0  0
  183.5120  177.9960  138.0130 C   0  0  0  0  0  2  0  0  0  0  0  0
  186.0070  171.7540  135.0170 N   0  0  0  0  0  2  0  0  0  0  0  0
  184.0490  175.2600  135.7360 C   0  0  0  0  0  0  0  0  0  0  0  0
  180.4790  176.2610  140.2520 O   0  0  0  0  0  0  0  0  0  0  0  0
  184.6020  172.0250  135.2570 C   0  0  2  0  0  3  0  0  0  0  0  0
  185.9940  176.4900  134.8330 C   0  0  0  0  0  1  0  0  0  0  0  0
  183.5490  175.9450  136.7210 C   0  0  0  0  0  0  0  0  0  0  0  0
  185.6070  174.0660  134.4270 C   0  0  1  0  0  3  0  0  0  0  0  0
  181.5090  176.6940  139.6850 C   0  0  0  0  0  0  0  0  0  0  0  0
  186.6560  173.0590  134.8730 C   0  0  0  0  0  2  0  0  0  0  0  0
  183.5370  178.2080  139.5110 C   0  0  0  0  0  2  0  0  0  0  0  0
  182.1700  177.9640  140.1840 C   0  0  2  0  0  3  0  0  0  0  0  0
  183.3360  174.1650  135.1810 N   0  0  0  0  0  2  0  0  0  0  0  0
  191.1720  178.1000  144.6360 O   0  0  0  0  0  0  0  0  0  0  0  0
  192.1440  176.0400  144.9350 O   0  0  0  0  0  0  0  0  0  0  0  0
  191.4680  176.9870  145.4330 C   0  0  0  0  0  0  0  0  0  0  0  0
  191.5970  177.9200  147.5960 O   0  0  0  0  0  1  0  0  0  0  0  0
  190.9820  176.8800  146.8470 C   0  0  2  0  0  0  0  0  0  0  0  0
  191.3020  175.5720  147.3350 O   0  0  0  0  0  0  0  0  0  0  0  0
  192.5080  175.5680  148.0770 C   0  0  0  0  0  1  0  0  0  0  0  0
  189.0510  178.1040  145.9910 O   0  0  0  0  0  1  0  0  0  0  0  0
  189.4430  177.0640  146.8560 C   0  0  2  0  0  3  0  0  0  0  0  0
  187.9150  176.1450  148.4520 O   0  0  0  0  0  1  0  0  0  0  0  0
  188.8000  177.2010  148.2530 C   0  0  2  0  0  3  0  0  0  0  0  0
  188.0250  178.4960  148.3720 C   0  0  0  0  0  1  0  0  0  0  0  0
  1  5  1  6  0  0  0
  2 14  1  6  0  0  0
  2  6  1  0  0  0  0
  2  7  1  0  0  0  0
  4 54  1  1  0  0  0
  5  4  1  0  0  0  0
  6  3  1  6  0  0  0
  6 10  1  0  0  0  0
  7  9  1  1  0  0  0
  7  1  1  0  0  0  0
  8 12  1  0  0  0  0
  8 11  1  1  0  0  0
  9  8  1  0  0  0  0
 10  1  1  0  0  0  0
 10 25  1  1  0  0  0
 12  4  1  0  0  0  0
 13 14  2  0  0  0  0
 15 13  1  0  0  0  0
 16 21  1  0  0  0  0
 16 15  1  1  0  0  0
 17 18  2  0  0  0  0
 17 20  1  0  0  0  0
 19 22  1  0  0  0  0
 21 22  1  0  0  0  0
 22 17  1  0  0  0  0
 23 16  1  0  0  0  0
 23 19  2  0  0  0  0
 25 24  1  1  0  0  0
 25 26  1  0  0  0  0
 26 31  1  1  0  0  0
 26 27  1  0  0  0  0
 27 28  1  0  0  0  0
 28 30  2  0  0  0  0
 28 29  1  0  0  0  0
 33 52  1  6  0  0  0
 33 34  1  0  0  0  0
 33 35  1  0  0  0  0
 34 35  1  0  0  0  0
 34 31  1  1  0  0  0
 35 32  1  1  0  0  0
 36 53  1  1  0  0  0
 36 45  1  0  0  0  0
 38 46  1  6  0  0  0
 38 43  1  0  0  0  0
 39 49  1  0  0  0  0
 40 41  1  0  0  0  0
 40 39  1  0  0  0  0
 41 51  1  0  0  0  0
 42 45  1  0  0  0  0
 43 47  2  0  0  0  0
 45 37  1  1  0  0  0
 47 40  2  0  0  0  0
 48 36  1  0  0  0  0
 48 50  1  1  0  0  0
 48 38  1  0  0  0  0
 49 52  1  0  0  0  0
 49 44  2  0  0  0  0
 50 42  1  0  0  0  0
 52 51  1  6  0  0  0
 53 43  1  0  0  0  0
 54 56  1  0  0  0  0
 55 56  2  0  0  0  0
 56 58  1  0  0  0  0
 58 62  1  0  0  0  0
 58 59  1  0  0  0  0
 58 57  1  1  0  0  0
 59 60  1  0  0  0  0
 62 61  1  6  0  0  0
 62 64  1  0  0  0  0
 64 65  1  6  0  0  0
 64 63  1  0  0  0  0
M  END
>  <MODEL>
4

>  <REMARK>
 VINA RESULT:      -4.7      1.726      2.535
  Name = 
  16 active torsions:
  status: ('A' for Active; 'I' for Inactive)
    1  A    between atoms: C_2  and  C_39
    2  A    between atoms: C_5  and  C_24
    3  A    between atoms: C_5  and  C_51
    4  A    between atoms: O_7  and  C_55
    5  A    between atoms: C_8  and  C_39
    6  A    between atoms: C_10  and  O_36
    7  A    between atoms: C_11  and  C_35
    8  A    between atoms: C_15  and  O_28
    9  A    between atoms: C_19  and  C_31
   10  A    between atoms: C_19  and  C_55
   11  A    between atoms: C_24  and  O_36
   12  A    between atoms: C_24  and  C_54
   13  A    between atoms: O_28  and  C_50
   14  A    between atoms: C_33  and  C_62
   15  A    between atoms: C_37  and  C_54
   16  A    between atoms: C_50  and  C_55
                            x       y       z     vdW  Elec       q    Type
                         _______ _______ _______ _____ _____    ______ ____

>  <TORSDO>
F 16

$$$$
=
 OpenBabel10232410083D

 65 71  0  0  1  0  0  0  0  0999 V2000
  185.6500  178.4600  140.7330 C   0  0  2  0  0  3  0  0  0  0  0  0
  186.1110  177.5850  142.9590 C   0  0  2  0  0  3  0  0  0  0  0  0
  188.5510  177.7560  142.7810 O   0  0  0  0  0  1  0  0  0  0  0  0
  183.5430  179.8110  140.0500 C   0  0  2  0  0  3  0  0  0  0  0  0
  185.0870  179.7180  140.0930 C   0  0  0  0  0  2  0  0  0  0  0  0
  187.3600  177.5280  142.0830 C   0  0  2  0  0  3  0  0  0  0  0  0
  185.0190  178.2180  142.1020 C   0  0  2  0  0  3  0  0  0  0  0  0
  183.0110  177.6940  141.0030 C   0  0  2  0  0  3  0  0  0  0  0  0
  183.9140  177.3410  142.0400 O   0  0  0  0  0  0  0  0  0  0  0  0
  187.1470  178.5620  141.0130 C   0  0  1  0  0  3  0  0  0  0  0  0
  183.4160  177.1490  139.7720 O   0  0  0  0  0  1  0  0  0  0  0  0
  182.7270  179.0810  140.9520 O   0  0  0  0  0  0  0  0  0  0  0  0
  186.5720  177.6950  145.4080 C   0  0  0  0  0  3  0  0  0  0  0  0
  186.2930  178.3120  144.2680 C   0  0  0  0  0  3  0  0  0  0  0  0
  186.6240  178.4610  146.7140 C   0  0  0  0  0  2  0  0  0  0  0  0
  187.3810  177.7610  147.8380 C   0  0  1  0  0  3  0  0  0  0  0  0
  190.8040  176.7500  147.6450 C   0  0  0  0  0  0  0  0  0  0  0  0
  190.8490  175.7510  146.8830 O   0  0  0  0  0  0  0  0  0  0  0  0
  189.4100  178.4800  148.8310 C   0  0  0  0  0  3  0  0  0  0  0  0
  192.0140  177.3010  148.1480 N   0  0  0  0  0  1  0  0  0  0  0  0
  188.3990  176.9350  147.3210 O   0  0  0  0  0  0  0  0  0  0  0  0
  189.5440  177.3830  147.9030 N   0  0  0  0  0  0  0  0  0  0  0  0
  187.9320  178.7280  148.8650 C   0  0  0  0  0  3  0  0  0  0  0  0
  187.3480  177.6550  138.6640 C   0  0  0  0  0  1  0  0  0  0  0  0
  188.0650  178.3570  139.8050 C   0  0  2  0  0  3  0  0  0  0  0  0
  189.4880  177.8380  140.0710 C   0  0  1  0  0  3  0  0  0  0  0  0
  189.5160  176.6240  140.8280 O   0  0  0  0  0  0  0  0  0  0  0  0
  190.5280  176.3890  141.7630 C   0  0  0  0  0  0  0  0  0  0  0  0
  190.3770  175.3380  142.7170 N   0  0  0  0  0  1  0  0  0  0  0  0
  191.5660  177.1100  141.7790 O   0  0  0  0  0  0  0  0  0  0  0  0
  190.4860  177.8310  138.9120 C   0  0  0  0  0  2  0  0  0  0  0  0
  193.0700  176.5930  138.4970 C   0  0  0  0  0  1  0  0  0  0  0  0
  191.1470  176.4560  136.9630 C   0  0  1  0  0  3  0  0  0  0  0  0
  190.5400  176.4060  138.3510 C   0  0  1  0  0  3  0  0  0  0  0  0
  191.8930  175.7470  138.0780 C   0  0  2  0  0  3  0  0  0  0  0  0
  182.7010  175.0120  135.3920 C   0  0  2  0  0  3  0  0  0  0  0  0
  183.4070  177.2860  136.3420 C   0  0  0  0  0  1  0  0  0  0  0  0
  184.1660  173.8930  136.9850 C   0  0  2  0  0  3  0  0  0  0  0  0
  187.9640  176.0070  135.1500 N   0  0  0  0  0  2  0  0  0  0  0  0
  187.4640  174.8210  135.7730 C   0  0  0  0  0  0  0  0  0  0  0  0
  188.4110  173.8490  136.3910 C   0  0  0  0  0  2  0  0  0  0  0  0
  181.4370  176.0910  137.0940 N   0  0  0  0  0  2  0  0  0  0  0  0
  184.9000  174.3720  135.7930 C   0  0  0  0  0  0  0  0  0  0  0  0
  189.8080  177.2590  134.4830 O   0  0  0  0  0  0  0  0  0  0  0  0
  182.2580  176.3730  135.9330 C   0  0  2  0  0  3  0  0  0  0  0  0
  184.4370  172.4260  137.2450 C   0  0  0  0  0  1  0  0  0  0  0  0
  186.1820  174.5840  135.7840 C   0  0  0  0  0  0  0  0  0  0  0  0
  182.7020  174.0890  136.6030 C   0  0  1  0  0  3  0  0  0  0  0  0
  189.3610  176.3370  135.2030 C   0  0  0  0  0  0  0  0  0  0  0  0
  181.9770  174.8670  137.6900 C   0  0  0  0  0  2  0  0  0  0  0  0
  189.5450  174.6060  137.0490 C   0  0  0  0  0  2  0  0  0  0  0  0
  190.3040  175.5320  136.0750 C   0  0  2  0  0  3  0  0  0  0  0  0
  184.0520  175.0240  134.8590 N   0  0  0  0  0  2  0  0  0  0  0  0
  182.9420  180.1160  138.7940 O   0  0  0  0  0  0  0  0  0  0  0  0
  180.9810  178.9200  138.7870 O   0  0  0  0  0  0  0  0  0  0  0  0
  181.5630  180.0210  138.5670 C   0  0  0  0  0  0  0  0  0  0  0  0
  179.9820  181.6830  139.1200 O   0  0  0  0  0  1  0  0  0  0  0  0
  180.7690  181.1820  138.0480 C   0  0  2  0  0  0  0  0  0  0  0  0
  179.9830  180.7290  136.9390 O   0  0  0  0  0  0  0  0  0  0  0  0
  180.7920  180.2350  135.8880 C   0  0  0  0  0  1  0  0  0  0  0  0
  182.8210  182.4350  138.4660 O   0  0  0  0  0  1  0  0  0  0  0  0
  181.7530  182.2760  137.5620 C   0  0  2  0  0  3  0  0  0  0  0  0
  181.0430  183.7290  135.7980 O   0  0  0  0  0  1  0  0  0  0  0  0
  181.1090  183.6270  137.1850 C   0  0  2  0  0  3  0  0  0  0  0  0
  181.9290  184.7870  137.7060 C   0  0  0  0  0  1  0  0  0  0  0  0
  1  5  1  1  0  0  0
  1 10  1  0  0  0  0
  1  7  1  0  0  0  0
  2 14  1  1  0  0  0
  4 54  1  6  0  0  0
  4  5  1  0  0  0  0
  4 12  1  0  0  0  0
  6  3  1  1  0  0  0
  6  2  1  0  0  0  0
  7  9  1  6  0  0  0
  7  2  1  0  0  0  0
  8 11  1  6  0  0  0
  8  9  1  0  0  0  0
 10 25  1  6  0  0  0
 10  6  1  0  0  0  0
 12  8  1  0  0  0  0
 13 15  1  0  0  0  0
 14 13  2  0  0  0  0
 16 15  1  6  0  0  0
 16 23  1  0  0  0  0
 17 22  1  0  0  0  0
 17 20  1  0  0  0  0
 18 17  2  0  0  0  0
 19 23  2  0  0  0  0
 21 16  1  0  0  0  0
 21 22  1  0  0  0  0
 22 19  1  0  0  0  0
 25 24  1  6  0  0  0
 25 26  1  0  0  0  0
 26 31  1  6  0  0  0
 26 27  1  0  0  0  0
 27 28  1  0  0  0  0
 28 30  2  0  0  0  0
 28 29  1  0  0  0  0
 33 52  1  6  0  0  0
 33 35  1  0  0  0  0
 33 34  1  0  0  0  0
 34 31  1  1  0  0  0
 35 34  1  0  0  0  0
 35 32  1  1  0  0  0
 36 53  1  1  0  0  0
 36 45  1  0  0  0  0
 36 48  1  0  0  0  0
 38 46  1  6  0  0  0
 39 49  1  0  0  0  0
 39 40  1  0  0  0  0
 40 47  2  0  0  0  0
 40 41  1  0  0  0  0
 41 51  1  0  0  0  0
 42 50  1  0  0  0  0
 43 38  1  0  0  0  0
 44 49  2  0  0  0  0
 45 37  1  1  0  0  0
 45 42  1  0  0  0  0
 47 43  2  0  0  0  0
 48 38  1  0  0  0  0
 48 50  1  1  0  0  0
 49 52  1  0  0  0  0
 52 51  1  1  0  0  0
 53 43  1  0  0  0  0
 56 55  2  0  0  0  0
 56 54  1  0  0  0  0
 58 56  1  0  0  0  0
 58 57  1  1  0  0  0
 59 58  1  0  0  0  0
 60 59  1  0  0  0  0
 62 58  1  0  0  0  0
 62 61  1  1  0  0  0
 63 64  1  0  0  0  0
 64 62  1  0  0  0  0
 64 65  1  6  0  0  0
M  END
>  <MODEL>
5

>  <REMARK>
 VINA RESULT:      -4.7      3.266      9.653
  Name = 
  16 active torsions:
  status: ('A' for Active; 'I' for Inactive)
    1  A    between atoms: C_2  and  C_39
    2  A    between atoms: C_5  and  C_24
    3  A    between atoms: C_5  and  C_51
    4  A    between atoms: O_7  and  C_55
    5  A    between atoms: C_8  and  C_39
    6  A    between atoms: C_10  and  O_36
    7  A    between atoms: C_11  and  C_35
    8  A    between atoms: C_15  and  O_28
    9  A    between atoms: C_19  and  C_31
   10  A    between atoms: C_19  and  C_55
   11  A    between atoms: C_24  and  O_36
   12  A    between atoms: C_24  and  C_54
   13  A    between atoms: O_28  and  C_50
   14  A    between atoms: C_33  and  C_62
   15  A    between atoms: C_37  and  C_54
   16  A    between atoms: C_50  and  C_55
                            x       y       z     vdW  Elec       q    Type
                         _______ _______ _______ _____ _____    ______ ____

>  <TORSDO>
F 16

$$$$
=
 OpenBabel10232410083D

 65 71  0  0  1  0  0  0  0  0999 V2000
  190.0680  175.9350  137.3520 C   0  0  2  0  0  3  0  0  0  0  0  0
  192.4140  176.5150  137.6590 C   0  0  2  0  0  3  0  0  0  0  0  0
  192.1560  177.3350  139.9560 O   0  0  0  0  0  1  0  0  0  0  0  0
  189.1730  174.0170  135.8520 C   0  0  2  0  0  3  0  0  0  0  0  0
  189.2030  174.6900  137.2440 C   0  0  0  0  0  2  0  0  0  0  0  0
  191.5410  177.2040  138.7060 C   0  0  2  0  0  3  0  0  0  0  0  0
  191.4700  175.6700  136.8090 C   0  0  2  0  0  3  0  0  0  0  0  0
  190.5370  175.5600  134.6570 C   0  0  2  0  0  3  0  0  0  0  0  0
  191.6060  176.0470  135.4550 O   0  0  0  0  0  0  0  0  0  0  0  0
  190.2930  176.3730  138.7960 C   0  0  1  0  0  3  0  0  0  0  0  0
  189.4310  176.4260  134.7080 O   0  0  0  0  0  1  0  0  0  0  0  0
  190.2180  174.2040  134.9100 O   0  0  0  0  0  0  0  0  0  0  0  0
  194.0380  174.6220  137.6220 C   0  0  0  0  0  3  0  0  0  0  0  0
  193.5480  175.6980  138.2240 C   0  0  0  0  0  3  0  0  0  0  0  0
  195.0950  173.7700  138.2930 C   0  0  0  0  0  2  0  0  0  0  0  0
  195.5020  172.5210  137.5160 C   0  0  1  0  0  3  0  0  0  0  0  0
  194.7210  169.1790  138.5100 C   0  0  0  0  0  0  0  0  0  0  0  0
  195.4570  168.9060  139.4920 O   0  0  0  0  0  0  0  0  0  0  0  0
  194.0540  170.8220  136.7220 C   0  0  0  0  0  3  0  0  0  0  0  0
  193.7390  168.2400  138.0910 N   0  0  0  0  0  1  0  0  0  0  0  0
  195.6600  171.4200  138.3800 O   0  0  0  0  0  0  0  0  0  0  0  0
  194.8090  170.4730  137.9010 N   0  0  0  0  0  0  0  0  0  0  0  0
  194.5470  172.1960  136.3860 C   0  0  0  0  0  3  0  0  0  0  0  0
  188.9150  178.4900  138.8190 C   0  0  0  0  0  1  0  0  0  0  0  0
  189.1310  177.1250  139.4510 C   0  0  2  0  0  3  0  0  0  0  0  0
  189.0550  177.1210  140.9870 C   0  0  1  0  0  3  0  0  0  0  0  0
  189.6900  175.9860  141.5830 O   0  0  0  0  0  0  0  0  0  0  0  0
  190.2900  176.0830  142.8420 C   0  0  0  0  0  0  0  0  0  0  0  0
  191.4770  176.8590  143.0000 N   0  0  0  0  0  1  0  0  0  0  0  0
  189.7970  175.4760  143.8360 O   0  0  0  0  0  0  0  0  0  0  0  0
  189.3580  178.4220  141.7330 C   0  0  0  0  0  2  0  0  0  0  0  0
  187.9800  177.3860  144.0570 C   0  0  0  0  0  1  0  0  0  0  0  0
  186.9230  178.0270  141.9260 C   0  0  1  0  0  3  0  0  0  0  0  0
  188.0210  179.0510  142.1380 C   0  0  1  0  0  3  0  0  0  0  0  0
  187.2500  178.4900  143.3340 C   0  0  2  0  0  3  0  0  0  0  0  0
  179.9910  176.0070  137.0520 C   0  0  2  0  0  3  0  0  0  0  0  0
  181.0460  174.1820  138.5120 C   0  0  0  0  0  1  0  0  0  0  0  0
  182.2100  176.7070  136.3280 C   0  0  2  0  0  3  0  0  0  0  0  0
  183.4320  177.8040  140.7500 N   0  0  0  0  0  2  0  0  0  0  0  0
  183.5910  178.1380  139.3690 C   0  0  0  0  0  0  0  0  0  0  0  0
  184.7430  178.9790  138.9350 C   0  0  0  0  0  2  0  0  0  0  0  0
  180.2740  173.7860  136.2490 N   0  0  0  0  0  2  0  0  0  0  0  0
  181.8420  177.2850  137.6400 C   0  0  0  0  0  0  0  0  0  0  0  0
  184.1740  178.0590  142.9410 O   0  0  0  0  0  0  0  0  0  0  0  0
  180.0000  174.5330  137.4610 C   0  0  2  0  0  3  0  0  0  0  0  0
  182.6610  177.7830  135.3600 C   0  0  0  0  0  1  0  0  0  0  0  0
  182.7190  177.7200  138.4960 C   0  0  0  0  0  0  0  0  0  0  0  0
  180.9070  176.0840  135.8370 C   0  0  1  0  0  3  0  0  0  0  0  0
  184.4260  178.1740  141.7190 C   0  0  0  0  0  0  0  0  0  0  0  0
  181.1390  174.6370  135.4300 C   0  0  0  0  0  2  0  0  0  0  0  0
  185.9640  178.6140  139.7500 C   0  0  0  0  0  2  0  0  0  0  0  0
  185.7480  178.7640  141.2710 C   0  0  2  0  0  3  0  0  0  0  0  0
  180.5500  176.8820  138.0680 N   0  0  0  0  0  2  0  0  0  0  0  0
  187.8930  173.7280  135.2930 O   0  0  0  0  0  0  0  0  0  0  0  0
  187.0020  172.6010  137.0860 O   0  0  0  0  0  0  0  0  0  0  0  0
  186.7980  173.3250  136.0690 C   0  0  0  0  0  0  0  0  0  0  0  0
  184.5330  173.1960  136.7140 O   0  0  0  0  0  1  0  0  0  0  0  0
  185.3940  173.7090  135.7080 C   0  0  2  0  0  0  0  0  0  0  0  0
  185.1070  173.1870  134.4040 O   0  0  0  0  0  0  0  0  0  0  0  0
  184.4650  171.9280  134.4710 C   0  0  0  0  0  1  0  0  0  0  0  0
  185.3670  175.7360  134.3480 O   0  0  0  0  0  1  0  0  0  0  0  0
  185.2990  175.2550  135.6700 C   0  0  2  0  0  3  0  0  0  0  0  0
  185.7130  176.0740  137.8800 O   0  0  0  0  0  1  0  0  0  0  0  0
  186.2720  176.0020  136.6080 C   0  0  2  0  0  3  0  0  0  0  0  0
  186.5240  177.4120  136.1210 C   0  0  0  0  0  1  0  0  0  0  0  0
  1  5  1  1  0  0  0
  1 10  1  0  0  0  0
  2 14  1  1  0  0  0
  2  6  1  0  0  0  0
  4 54  1  6  0  0  0
  4  5  1  0  0  0  0
  6 10  1  0  0  0  0
  6  3  1  1  0  0  0
  7  9  1  6  0  0  0
  7  1  1  0  0  0  0
  7  2  1  0  0  0  0
  8 11  1  1  0  0  0
  8 12  1  0  0  0  0
  8  9  1  0  0  0  0
 10 25  1  6  0  0  0
 12  4  1  0  0  0  0
 13 14  2  0  0  0  0
 13 15  1  0  0  0  0
 16 15  1  1  0  0  0
 16 21  1  0  0  0  0
 17 18  2  0  0  0  0
 19 22  1  0  0  0  0
 20 17  1  0  0  0  0
 22 21  1  0  0  0  0
 22 17  1  0  0  0  0
 23 19  2  0  0  0  0
 23 16  1  0  0  0  0
 25 24  1  1  0  0  0
 25 26  1  0  0  0  0
 26 27  1  0  0  0  0
 26 31  1  1  0  0  0
 27 28  1  0  0  0  0
 28 29  1  0  0  0  0
 28 30  2  0  0  0  0
 33 52  1  6  0  0  0
 33 34  1  0  0  0  0
 33 35  1  0  0  0  0
 34 31  1  1  0  0  0
 34 35  1  0  0  0  0
 35 32  1  1  0  0  0
 36 45  1  0  0  0  0
 36 53  1  1  0  0  0
 38 46  1  6  0  0  0
 38 43  1  0  0  0  0
 39 49  1  0  0  0  0
 40 39  1  0  0  0  0
 41 40  1  0  0  0  0
 41 51  1  0  0  0  0
 42 45  1  0  0  0  0
 43 53  1  0  0  0  0
 43 47  2  0  0  0  0
 45 37  1  1  0  0  0
 47 40  2  0  0  0  0
 48 50  1  1  0  0  0
 48 38  1  0  0  0  0
 48 36  1  0  0  0  0
 49 44  2  0  0  0  0
 50 42  1  0  0  0  0
 52 51  1  6  0  0  0
 52 49  1  0  0  0  0
 54 56  1  0  0  0  0
 56 55  2  0  0  0  0
 58 56  1  0  0  0  0
 58 57  1  1  0  0  0
 59 60  1  0  0  0  0
 59 58  1  0  0  0  0
 62 61  1  6  0  0  0
 62 58  1  0  0  0  0
 62 64  1  0  0  0  0
 64 65  1  6  0  0  0
 64 63  1  0  0  0  0
M  END
>  <MODEL>
6

>  <REMARK>
 VINA RESULT:      -4.6      3.269      7.806
  Name = 
  16 active torsions:
  status: ('A' for Active; 'I' for Inactive)
    1  A    between atoms: C_2  and  C_39
    2  A    between atoms: C_5  and  C_24
    3  A    between atoms: C_5  and  C_51
    4  A    between atoms: O_7  and  C_55
    5  A    between atoms: C_8  and  C_39
    6  A    between atoms: C_10  and  O_36
    7  A    between atoms: C_11  and  C_35
    8  A    between atoms: C_15  and  O_28
    9  A    between atoms: C_19  and  C_31
   10  A    between atoms: C_19  and  C_55
   11  A    between atoms: C_24  and  O_36
   12  A    between atoms: C_24  and  C_54
   13  A    between atoms: O_28  and  C_50
   14  A    between atoms: C_33  and  C_62
   15  A    between atoms: C_37  and  C_54
   16  A    between atoms: C_50  and  C_55
                            x       y       z     vdW  Elec       q    Type
                         _______ _______ _______ _____ _____    ______ ____

>  <TORSDO>
F 16

$$$$
=
 OpenBabel10232410083D

 65 71  0  0  1  0  0  0  0  0999 V2000
  185.7500  178.3890  140.0320 C   0  0  2  0  0  3  0  0  0  0  0  0
  186.3260  177.5180  142.2330 C   0  0  2  0  0  3  0  0  0  0  0  0
  188.7550  177.6470  141.9100 O   0  0  0  0  0  1  0  0  0  0  0  0
  183.6300  179.7730  139.4660 C   0  0  2  0  0  3  0  0  0  0  0  0
  185.1710  179.6540  139.4190 C   0  0  0  0  0  2  0  0  0  0  0  0
  187.5210  177.4350  141.2850 C   0  0  2  0  0  3  0  0  0  0  0  0
  185.1970  178.1650  141.4370 C   0  0  2  0  0  3  0  0  0  0  0  0
  183.1190  177.6700  140.4610 C   0  0  2  0  0  3  0  0  0  0  0  0
  184.0760  177.3070  141.4460 O   0  0  0  0  0  0  0  0  0  0  0  0
  187.2630  178.4670  140.2240 C   0  0  1  0  0  3  0  0  0  0  0  0
  183.4420  177.1120  139.2120 O   0  0  0  0  0  1  0  0  0  0  0  0
  182.8560  179.0610  140.4180 O   0  0  0  0  0  0  0  0  0  0  0  0
  186.8230  177.6280  144.6750 C   0  0  0  0  0  3  0  0  0  0  0  0
  186.5970  178.2480  143.5240 C   0  0  0  0  0  3  0  0  0  0  0  0
  186.9680  178.4110  145.9630 C   0  0  0  0  0  2  0  0  0  0  0  0
  187.5360  177.6170  147.1360 C   0  0  1  0  0  3  0  0  0  0  0  0
  190.9830  176.7430  147.5020 C   0  0  0  0  0  0  0  0  0  0  0  0
  191.2220  175.8350  146.6660 O   0  0  0  0  0  0  0  0  0  0  0  0
  189.3020  178.2870  148.5670 C   0  0  0  0  0  3  0  0  0  0  0  0
  192.0460  177.2730  148.2820 N   0  0  0  0  0  1  0  0  0  0  0  0
  188.6750  176.8850  146.7420 O   0  0  0  0  0  0  0  0  0  0  0  0
  189.6660  177.3030  147.5760 N   0  0  0  0  0  0  0  0  0  0  0  0
  187.8330  178.4820  148.3420 C   0  0  0  0  0  3  0  0  0  0  0  0
  188.6110  179.5490  138.3810 C   0  0  0  0  0  1  0  0  0  0  0  0
  188.1040  178.2400  138.9650 C   0  0  2  0  0  3  0  0  0  0  0  0
  187.5690  177.2480  137.9190 C   0  0  1  0  0  3  0  0  0  0  0  0
  187.5540  177.7780  136.5910 O   0  0  0  0  0  0  0  0  0  0  0  0
  186.4070  177.6840  135.7970 C   0  0  0  0  0  0  0  0  0  0  0  0
  185.1750  177.2670  136.3850 N   0  0  0  0  0  1  0  0  0  0  0  0
  186.4580  177.9490  134.5620 O   0  0  0  0  0  0  0  0  0  0  0  0
  188.0670  175.8020  137.9690 C   0  0  0  0  0  2  0  0  0  0  0  0
  186.8810  173.2760  137.2000 C   0  0  0  0  0  1  0  0  0  0  0  0
  189.1120  174.0800  136.5320 C   0  0  1  0  0  3  0  0  0  0  0  0
  188.2370  175.3170  136.5250 C   0  0  1  0  0  3  0  0  0  0  0  0
  187.6600  173.9640  136.1060 C   0  0  2  0  0  3  0  0  0  0  0  0
  197.6980  173.2870  135.2820 C   0  0  2  0  0  3  0  0  0  0  0  0
  196.6180  172.0460  137.2490 C   0  0  0  0  0  1  0  0  0  0  0  0
  196.4180  175.2830  135.8420 C   0  0  2  0  0  3  0  0  0  0  0  0
  192.3450  173.0210  135.1000 N   0  0  0  0  0  2  0  0  0  0  0  0
  193.0260  174.2760  135.0160 C   0  0  0  0  0  0  0  0  0  0  0  0
  192.2440  175.5400  134.8990 C   0  0  0  0  0  2  0  0  0  0  0  0
  198.7490  173.1890  137.4140 N   0  0  0  0  0  2  0  0  0  0  0  0
  195.6290  174.3200  135.0420 C   0  0  0  0  0  0  0  0  0  0  0  0
  190.3270  171.8620  135.0500 O   0  0  0  0  0  0  0  0  0  0  0  0
  197.9050  172.4160  136.5230 C   0  0  2  0  0  3  0  0  0  0  0  0
  196.3880  176.6660  135.2240 C   0  0  0  0  0  1  0  0  0  0  0  0
  194.3290  174.3090  135.0230 C   0  0  0  0  0  0  0  0  0  0  0  0
  197.8340  174.7190  135.7790 C   0  0  1  0  0  3  0  0  0  0  0  0
  190.9130  172.9620  135.1860 C   0  0  0  0  0  0  0  0  0  0  0  0
  198.4110  174.5940  137.1810 C   0  0  0  0  0  2  0  0  0  0  0  0
  190.9950  175.4350  135.7460 C   0  0  0  0  0  2  0  0  0  0  0  0
  190.1050  174.2310  135.3720 C   0  0  2  0  0  3  0  0  0  0  0  0
  196.3680  173.1540  134.7110 N   0  0  0  0  0  2  0  0  0  0  0  0
  182.9610  180.0820  138.2450 O   0  0  0  0  0  0  0  0  0  0  0  0
  180.8080  180.6440  138.8170 O   0  0  0  0  0  0  0  0  0  0  0  0
  181.5750  179.9550  138.0830 C   0  0  0  0  0  0  0  0  0  0  0  0
  182.0550  178.4040  136.3720 O   0  0  0  0  0  1  0  0  0  0  0  0
  180.9830  179.0080  137.0830 C   0  0  2  0  0  0  0  0  0  0  0  0
  180.0930  179.7460  136.2370 O   0  0  0  0  0  0  0  0  0  0  0  0
  180.7520  180.2420  135.0870 C   0  0  0  0  0  1  0  0  0  0  0  0
  180.0420  178.2570  139.2070 O   0  0  0  0  0  1  0  0  0  0  0  0
  180.1800  177.9240  137.8450 C   0  0  2  0  0  3  0  0  0  0  0  0
  179.9950  175.8990  136.5830 O   0  0  0  0  0  1  0  0  0  0  0  0
  180.6750  176.4740  137.6530 C   0  0  2  0  0  3  0  0  0  0  0  0
  180.4090  175.6380  138.8860 C   0  0  0  0  0  1  0  0  0  0  0  0
  1  5  1  1  0  0  0
  1 10  1  0  0  0  0
  1  7  1  0  0  0  0
  2 14  1  1  0  0  0
  4 54  1  6  0  0  0
  4 12  1  0  0  0  0
  5  4  1  0  0  0  0
  6  3  1  1  0  0  0
  6  2  1  0  0  0  0
  7  9  1  6  0  0  0
  7  2  1  0  0  0  0
  8 11  1  6  0  0  0
  8  9  1  0  0  0  0
 10 25  1  6  0  0  0
 10  6  1  0  0  0  0
 12  8  1  0  0  0  0
 13 15  1  0  0  0  0
 14 13  2  0  0  0  0
 16 15  1  6  0  0  0
 16 23  1  0  0  0  0
 17 22  1  0  0  0  0
 17 20  1  0  0  0  0
 18 17  2  0  0  0  0
 21 16  1  0  0  0  0
 21 22  1  0  0  0  0
 22 19  1  0  0  0  0
 23 19  2  0  0  0  0
 25 24  1  6  0  0  0
 26 31  1  6  0  0  0
 26 25  1  0  0  0  0
 27 26  1  0  0  0  0
 28 29  1  0  0  0  0
 28 27  1  0  0  0  0
 30 28  2  0  0  0  0
 33 52  1  6  0  0  0
 34 33  1  0  0  0  0
 34 31  1  1  0  0  0
 35 34  1  0  0  0  0
 35 33  1  0  0  0  0
 35 32  1  1  0  0  0
 36 53  1  1  0  0  0
 36 48  1  0  0  0  0
 36 45  1  0  0  0  0
 38 46  1  6  0  0  0
 39 49  1  0  0  0  0
 40 47  2  0  0  0  0
 40 39  1  0  0  0  0
 41 40  1  0  0  0  0
 41 51  1  0  0  0  0
 43 38  1  0  0  0  0
 44 49  2  0  0  0  0
 45 37  1  1  0  0  0
 45 42  1  0  0  0  0
 47 43  2  0  0  0  0
 48 38  1  0  0  0  0
 48 50  1  1  0  0  0
 49 52  1  0  0  0  0
 50 42  1  0  0  0  0
 52 51  1  1  0  0  0
 53 43  1  0  0  0  0
 56 54  1  0  0  0  0
 56 55  2  0  0  0  0
 58 57  1  6  0  0  0
 58 62  1  0  0  0  0
 58 56  1  0  0  0  0
 59 58  1  0  0  0  0
 60 59  1  0  0  0  0
 62 61  1  1  0  0  0
 63 64  1  0  0  0  0
 64 62  1  0  0  0  0
 64 65  1  1  0  0  0
M  END
>  <MODEL>
7

>  <REMARK>
 VINA RESULT:      -4.3      2.859     10.267
  Name = 
  16 active torsions:
  status: ('A' for Active; 'I' for Inactive)
    1  A    between atoms: C_2  and  C_39
    2  A    between atoms: C_5  and  C_24
    3  A    between atoms: C_5  and  C_51
    4  A    between atoms: O_7  and  C_55
    5  A    between atoms: C_8  and  C_39
    6  A    between atoms: C_10  and  O_36
    7  A    between atoms: C_11  and  C_35
    8  A    between atoms: C_15  and  O_28
    9  A    between atoms: C_19  and  C_31
   10  A    between atoms: C_19  and  C_55
   11  A    between atoms: C_24  and  O_36
   12  A    between atoms: C_24  and  C_54
   13  A    between atoms: O_28  and  C_50
   14  A    between atoms: C_33  and  C_62
   15  A    between atoms: C_37  and  C_54
   16  A    between atoms: C_50  and  C_55
                            x       y       z     vdW  Elec       q    Type
                         _______ _______ _______ _____ _____    ______ ____

>  <TORSDO>
F 16

$$$$
=
 OpenBabel10232410083D

 65 71  0  0  1  0  0  0  0  0999 V2000
  188.8000  175.8360  136.6960 C   0  0  2  0  0  3  0  0  0  0  0  0
  190.0310  177.6740  137.7160 C   0  0  2  0  0  3  0  0  0  0  0  0
  188.0920  179.1580  137.9480 O   0  0  0  0  0  1  0  0  0  0  0  0
  189.3710  173.3180  136.9430 C   0  0  2  0  0  3  0  0  0  0  0  0
  188.3160  174.4430  137.0620 C   0  0  0  0  0  2  0  0  0  0  0  0
  188.6860  178.1540  137.1750 C   0  0  2  0  0  3  0  0  0  0  0  0
  190.0890  176.1750  137.4390 C   0  0  2  0  0  3  0  0  0  0  0  0
  191.1930  174.5960  136.0960 C   0  0  2  0  0  3  0  0  0  0  0  0
  191.2430  175.8910  136.6760 O   0  0  0  0  0  0  0  0  0  0  0  0
  187.8190  176.9280  137.1130 C   0  0  1  0  0  3  0  0  0  0  0  0
  190.4860  174.6140  134.8810 O   0  0  0  0  0  1  0  0  0  0  0  0
  190.7620  173.5920  136.9960 O   0  0  0  0  0  0  0  0  0  0  0  0
  190.6750  177.0830  140.0520 C   0  0  0  0  0  3  0  0  0  0  0  0
  190.2730  177.9890  139.1700 C   0  0  0  0  0  3  0  0  0  0  0  0
  190.7850  177.4270  141.5230 C   0  0  0  0  0  2  0  0  0  0  0  0
  190.0130  176.5000  142.4580 C   0  0  1  0  0  3  0  0  0  0  0  0
  189.4060  177.1700  145.9160 C   0  0  0  0  0  0  0  0  0  0  0  0
  190.4960  177.0030  146.5190 O   0  0  0  0  0  0  0  0  0  0  0  0
  188.1150  177.0710  143.7560 C   0  0  0  0  0  3  0  0  0  0  0  0
  188.2760  177.6500  146.6330 N   0  0  0  0  0  1  0  0  0  0  0  0
  190.4600  176.6410  143.7870 O   0  0  0  0  0  0  0  0  0  0  0  0
  189.3500  176.9790  144.4960 N   0  0  0  0  0  0  0  0  0  0  0  0
  188.5140  176.6870  142.3630 C   0  0  0  0  0  3  0  0  0  0  0  0
  186.8610  178.1460  135.1180 C   0  0  0  0  0  1  0  0  0  0  0  0
  186.6030  177.1130  136.2020 C   0  0  2  0  0  3  0  0  0  0  0  0
  185.2220  177.2310  136.8700 C   0  0  1  0  0  3  0  0  0  0  0  0
  185.1160  178.3470  137.7580 O   0  0  0  0  0  0  0  0  0  0  0  0
  185.0390  178.1550  139.1410 C   0  0  0  0  0  0  0  0  0  0  0  0
  185.9350  178.8570  140.0010 N   0  0  0  0  0  1  0  0  0  0  0  0
  184.1920  177.3540  139.6310 O   0  0  0  0  0  0  0  0  0  0  0  0
  183.9770  177.0510  136.0000 C   0  0  0  0  0  2  0  0  0  0  0  0
  181.8280  175.2870  135.1970 C   0  0  0  0  0  1  0  0  0  0  0  0
  181.5560  177.4880  136.2700 C   0  0  1  0  0  3  0  0  0  0  0  0
  182.7750  176.8810  136.9350 C   0  0  1  0  0  3  0  0  0  0  0  0
  181.6050  175.9910  136.5120 C   0  0  2  0  0  3  0  0  0  0  0  0
  182.9590  180.0530  144.4760 C   0  0  2  0  0  3  0  0  0  0  0  0
  184.9780  179.5090  142.9920 C   0  0  0  0  0  1  0  0  0  0  0  0
  181.8340  178.0430  143.6800 C   0  0  2  0  0  3  0  0  0  0  0  0
  181.8530  179.6510  139.2450 N   0  0  0  0  0  2  0  0  0  0  0  0
  181.1390  178.8780  140.2130 C   0  0  0  0  0  0  0  0  0  0  0  0
  180.0830  177.9230  139.7700 C   0  0  0  0  0  2  0  0  0  0  0  0
  184.8280  178.8460  145.3190 N   0  0  0  0  0  2  0  0  0  0  0  0
  181.6840  179.1770  142.7400 C   0  0  0  0  0  0  0  0  0  0  0  0
  182.1220  180.2650  137.0160 O   0  0  0  0  0  0  0  0  0  0  0  0
  184.4770  179.8930  144.3790 C   0  0  2  0  0  3  0  0  0  0  0  0
  180.4910  177.4360  144.0290 C   0  0  0  0  0  1  0  0  0  0  0  0
  181.4000  179.0240  141.4810 C   0  0  0  0  0  0  0  0  0  0  0  0
  182.4470  178.6890  144.9190 C   0  0  1  0  0  3  0  0  0  0  0  0
  181.6500  179.4460  137.8380 C   0  0  0  0  0  0  0  0  0  0  0  0
  183.6900  177.9250  145.3470 C   0  0  0  0  0  2  0  0  0  0  0  0
  180.5130  177.2690  138.4750 C   0  0  0  0  0  2  0  0  0  0  0  0
  180.8100  178.2830  137.3490 C   0  0  2  0  0  3  0  0  0  0  0  0
  182.3360  180.3520  143.1980 N   0  0  0  0  0  2  0  0  0  0  0  0
  189.0060  172.1550  136.2030 O   0  0  0  0  0  0  0  0  0  0  0  0
  187.7850  172.7340  134.3460 O   0  0  0  0  0  0  0  0  0  0  0  0
  187.8420  172.0810  135.4280 C   0  0  0  0  0  0  0  0  0  0  0  0
  186.8410  170.9320  137.2290 O   0  0  0  0  0  1  0  0  0  0  0  0
  186.6580  171.2690  135.8610 C   0  0  2  0  0  0  0  0  0  0  0  0
  186.5640  170.1210  135.0080 O   0  0  0  0  0  0  0  0  0  0  0  0
  187.6940  169.2770  135.1360 C   0  0  0  0  0  1  0  0  0  0  0  0
  185.3960  173.2320  136.5740 O   0  0  0  0  0  1  0  0  0  0  0  0
  185.3810  172.1310  135.6970 C   0  0  2  0  0  3  0  0  0  0  0  0
  183.5260  171.2380  134.4760 O   0  0  0  0  0  1  0  0  0  0  0  0
  184.0460  171.3580  135.7620 C   0  0  2  0  0  3  0  0  0  0  0  0
  183.0330  172.0890  136.6160 C   0  0  0  0  0  1  0  0  0  0  0  0
  1  5  1  1  0  0  0
  1 10  1  0  0  0  0
  1  7  1  0  0  0  0
  2 14  1  1  0  0  0
  4 54  1  6  0  0  0
  4 12  1  0  0  0  0
  4  5  1  0  0  0  0
  6  2  1  0  0  0  0
  6  3  1  1  0  0  0
  7  9  1  6  0  0  0
  7  2  1  0  0  0  0
  8 11  1  6  0  0  0
  8  9  1  0  0  0  0
  8 12  1  0  0  0  0
 10 25  1  6  0  0  0
 10  6  1  0  0  0  0
 13 15  1  0  0  0  0
 14 13  2  0  0  0  0
 16 15  1  6  0  0  0
 16 21  1  0  0  0  0
 17 18  2  0  0  0  0
 17 20  1  0  0  0  0
 19 22  1  0  0  0  0
 21 22  1  0  0  0  0
 22 17  1  0  0  0  0
 23 16  1  0  0  0  0
 23 19  2  0  0  0  0
 25 24  1  1  0  0  0
 25 26  1  0  0  0  0
 26 31  1  6  0  0  0
 26 27  1  0  0  0  0
 27 28  1  0  0  0  0
 28 30  2  0  0  0  0
 28 29  1  0  0  0  0
 33 35  1  0  0  0  0
 33 34  1  0  0  0  0
 33 52  1  1  0  0  0
 34 31  1  6  0  0  0
 35 32  1  6  0  0  0
 35 34  1  0  0  0  0
 36 53  1  6  0  0  0
 36 48  1  0  0  0  0
 38 46  1  1  0  0  0
 38 48  1  0  0  0  0
 39 40  1  0  0  0  0
 40 47  2  0  0  0  0
 41 40  1  0  0  0  0
 42 50  1  0  0  0  0
 43 53  1  0  0  0  0
 43 38  1  0  0  0  0
 44 49  2  0  0  0  0
 45 37  1  6  0  0  0
 45 36  1  0  0  0  0
 45 42  1  0  0  0  0
 47 43  2  0  0  0  0
 48 50  1  6  0  0  0
 49 39  1  0  0  0  0
 51 41  1  0  0  0  0
 52 49  1  0  0  0  0
 52 51  1  1  0  0  0
 55 56  2  0  0  0  0
 56 58  1  0  0  0  0
 56 54  1  0  0  0  0
 58 57  1  1  0  0  0
 59 60  1  0  0  0  0
 59 58  1  0  0  0  0
 62 64  1  0  0  0  0
 62 58  1  0  0  0  0
 62 61  1  1  0  0  0
 63 64  1  0  0  0  0
 64 65  1  1  0  0  0
M  END
>  <MODEL>
8

>  <REMARK>
 VINA RESULT:      -3.9      3.402      9.460
  Name = 
  16 active torsions:
  status: ('A' for Active; 'I' for Inactive)
    1  A    between atoms: C_2  and  C_39
    2  A    between atoms: C_5  and  C_24
    3  A    between atoms: C_5  and  C_51
    4  A    between atoms: O_7  and  C_55
    5  A    between atoms: C_8  and  C_39
    6  A    between atoms: C_10  and  O_36
    7  A    between atoms: C_11  and  C_35
    8  A    between atoms: C_15  and  O_28
    9  A    between atoms: C_19  and  C_31
   10  A    between atoms: C_19  and  C_55
   11  A    between atoms: C_24  and  O_36
   12  A    between atoms: C_24  and  C_54
   13  A    between atoms: O_28  and  C_50
   14  A    between atoms: C_33  and  C_62
   15  A    between atoms: C_37  and  C_54
   16  A    between atoms: C_50  and  C_55
                            x       y       z     vdW  Elec       q    Type
                         _______ _______ _______ _____ _____    ______ ____

>  <TORSDO>
F 16

$$$$
=
 OpenBabel10232410083D

 65 71  0  0  1  0  0  0  0  0999 V2000
  188.6940  177.1000  138.6140 C   0  0  2  0  0  3  0  0  0  0  0  0
  190.0930  175.9850  136.9610 C   0  0  2  0  0  3  0  0  0  0  0  0
  188.5430  176.3020  135.0860 O   0  0  0  0  0  1  0  0  0  0  0  0
  189.5550  178.4130  140.6780 C   0  0  2  0  0  3  0  0  0  0  0  0
  188.6740  178.3960  139.4070 C   0  0  0  0  0  2  0  0  0  0  0  0
  188.6520  176.0990  136.4660 C   0  0  2  0  0  3  0  0  0  0  0  0
  190.1270  176.6600  138.3280 C   0  0  2  0  0  3  0  0  0  0  0  0
  190.3560  176.1720  140.6130 C   0  0  2  0  0  3  0  0  0  0  0  0
  190.6120  175.7410  139.2850 O   0  0  0  0  0  0  0  0  0  0  0  0
  188.0550  177.2430  137.2350 C   0  0  1  0  0  3  0  0  0  0  0  0
  189.0640  175.8030  141.0250 O   0  0  0  0  0  1  0  0  0  0  0  0
  190.6610  177.5370  140.8320 O   0  0  0  0  0  0  0  0  0  0  0  0
  192.0280  175.8090  135.3960 C   0  0  0  0  0  3  0  0  0  0  0  0
  191.1270  176.5540  136.0230 C   0  0  0  0  0  3  0  0  0  0  0  0
  193.1190  176.4470  134.5620 C   0  0  0  0  0  2  0  0  0  0  0  0
  194.5400  176.1620  135.0390 C   0  0  1  0  0  3  0  0  0  0  0  0
  195.3510  174.5750  138.1370 C   0  0  0  0  0  0  0  0  0  0  0  0
  195.1260  175.4120  139.0480 O   0  0  0  0  0  0  0  0  0  0  0  0
  195.4180  174.0550  135.6740 C   0  0  0  0  0  3  0  0  0  0  0  0
  195.7420  173.2530  138.4830 N   0  0  0  0  0  1  0  0  0  0  0  0
  194.6070  176.1600  136.4470 O   0  0  0  0  0  0  0  0  0  0  0  0
  195.1020  174.9360  136.7720 N   0  0  0  0  0  0  0  0  0  0  0  0
  195.1070  174.8820  134.4630 C   0  0  0  0  0  3  0  0  0  0  0  0
  185.9340  177.8280  138.4770 C   0  0  0  0  0  1  0  0  0  0  0  0
  186.5240  177.2360  137.2080 C   0  0  2  0  0  3  0  0  0  0  0  0
  185.8270  175.9520  136.7270 C   0  0  1  0  0  3  0  0  0  0  0  0
  185.7970  174.9180  137.7140 O   0  0  0  0  0  0  0  0  0  0  0  0
  185.9330  173.5760  137.3480 C   0  0  0  0  0  0  0  0  0  0  0  0
  186.9250  173.2030  136.3920 N   0  0  0  0  0  1  0  0  0  0  0  0
  185.1750  172.6960  137.8450 O   0  0  0  0  0  0  0  0  0  0  0  0
  184.5000  176.0850  135.9760 C   0  0  0  0  0  2  0  0  0  0  0  0
  182.5950  173.9090  135.8490 C   0  0  0  0  0  1  0  0  0  0  0  0
  182.0540  176.2690  136.3010 C   0  0  1  0  0  3  0  0  0  0  0  0
  183.3710  176.0320  137.0110 C   0  0  1  0  0  3  0  0  0  0  0  0
  182.3250  174.9190  136.9370 C   0  0  2  0  0  3  0  0  0  0  0  0
  182.8620  180.0880  144.0890 C   0  0  2  0  0  3  0  0  0  0  0  0
  184.9790  179.2930  142.8800 C   0  0  0  0  0  1  0  0  0  0  0  0
  181.7570  177.9900  143.5290 C   0  0  2  0  0  3  0  0  0  0  0  0
  182.1650  178.8740  138.9130 N   0  0  0  0  0  2  0  0  0  0  0  0
  181.3580  178.2720  139.9290 C   0  0  0  0  0  0  0  0  0  0  0  0
  180.3180  177.2700  139.5560 C   0  0  0  0  0  2  0  0  0  0  0  0
  184.6290  179.0100  145.2610 N   0  0  0  0  0  2  0  0  0  0  0  0
  181.7090  178.9610  142.4140 C   0  0  0  0  0  0  0  0  0  0  0  0
  182.6240  179.1230  136.6450 O   0  0  0  0  0  0  0  0  0  0  0  0
  184.3790  179.8980  144.1430 C   0  0  2  0  0  3  0  0  0  0  0  0
  180.3760  177.4600  143.8580 C   0  0  0  0  0  1  0  0  0  0  0  0
  181.5220  178.6140  141.1750 C   0  0  0  0  0  0  0  0  0  0  0  0
  182.2850  178.8170  144.6970 C   0  0  1  0  0  3  0  0  0  0  0  0
  182.0690  178.4500  137.5440 C   0  0  0  0  0  0  0  0  0  0  0  0
  183.4720  178.1170  145.3410 C   0  0  0  0  0  2  0  0  0  0  0  0
  180.8340  176.4140  138.4190 C   0  0  0  0  0  2  0  0  0  0  0  0
  181.2430  177.2330  137.1770 C   0  0  2  0  0  3  0  0  0  0  0  0
  182.3500  180.1870  142.7330 N   0  0  0  0  0  2  0  0  0  0  0  0
  188.9410  178.8390  141.8930 O   0  0  0  0  0  0  0  0  0  0  0  0
  187.6320  177.2480  142.9100 O   0  0  0  0  0  0  0  0  0  0  0  0
  188.6720  177.9660  142.9560 C   0  0  0  0  0  0  0  0  0  0  0  0
  190.1740  179.1580  144.3310 O   0  0  0  0  0  1  0  0  0  0  0  0
  189.5720  177.8830  144.1520 C   0  0  2  0  0  0  0  0  0  0  0  0
  190.5270  176.8390  143.9240 O   0  0  0  0  0  0  0  0  0  0  0  0
  191.8430  177.3470  143.8020 C   0  0  0  0  0  1  0  0  0  0  0  0
  187.5050  178.2490  145.3970 O   0  0  0  0  0  1  0  0  0  0  0  0
  188.7140  177.5260  145.3920 C   0  0  2  0  0  3  0  0  0  0  0  0
  189.6290  176.3230  147.2480 O   0  0  0  0  0  1  0  0  0  0  0  0
  189.4440  177.6100  146.7500 C   0  0  2  0  0  3  0  0  0  0  0  0
  188.6330  178.3950  147.7580 C   0  0  0  0  0  1  0  0  0  0  0  0
  1  5  1  6  0  0  0
  2 14  1  6  0  0  0
  2  7  1  0  0  0  0
  4 12  1  0  0  0  0
  4 54  1  1  0  0  0
  5  4  1  0  0  0  0
  6  3  1  6  0  0  0
  6  2  1  0  0  0  0
  6 10  1  0  0  0  0
  7  1  1  0  0  0  0
  7  9  1  1  0  0  0
  8 12  1  0  0  0  0
  8 11  1  6  0  0  0
  9  8  1  0  0  0  0
 10 25  1  1  0  0  0
 10  1  1  0  0  0  0
 13 14  2  0  0  0  0
 15 13  1  0  0  0  0
 16 15  1  1  0  0  0
 16 21  1  0  0  0  0
 17 20  1  0  0  0  0
 17 18  2  0  0  0  0
 19 22  1  0  0  0  0
 21 22  1  0  0  0  0
 22 17  1  0  0  0  0
 23 16  1  0  0  0  0
 23 19  2  0  0  0  0
 25 24  1  1  0  0  0
 26 31  1  1  0  0  0
 26 25  1  0  0  0  0
 26 27  1  0  0  0  0
 28 27  1  0  0  0  0
 28 30  2  0  0  0  0
 29 28  1  0  0  0  0
 33 35  1  0  0  0  0
 33 34  1  0  0  0  0
 33 52  1  1  0  0  0
 34 31  1  6  0  0  0
 35 32  1  6  0  0  0
 35 34  1  0  0  0  0
 36 53  1  6  0  0  0
 36 45  1  0  0  0  0
 36 48  1  0  0  0  0
 38 46  1  1  0  0  0
 38 48  1  0  0  0  0
 39 40  1  0  0  0  0
 40 47  2  0  0  0  0
 41 40  1  0  0  0  0
 42 50  1  0  0  0  0
 43 53  1  0  0  0  0
 43 38  1  0  0  0  0
 44 49  2  0  0  0  0
 45 37  1  6  0  0  0
 45 42  1  0  0  0  0
 47 43  2  0  0  0  0
 48 50  1  6  0  0  0
 49 39  1  0  0  0  0
 51 41  1  0  0  0  0
 52 49  1  0  0  0  0
 52 51  1  1  0  0  0
 54 56  1  0  0  0  0
 55 56  2  0  0  0  0
 56 58  1  0  0  0  0
 58 57  1  1  0  0  0
 58 62  1  0  0  0  0
 59 58  1  0  0  0  0
 60 59  1  0  0  0  0
 62 61  1  1  0  0  0
 62 64  1  0  0  0  0
 64 63  1  0  0  0  0
 64 65  1  1  0  0  0
M  END
>  <MODEL>
9

>  <REMARK>
 VINA RESULT:      -3.9      2.261      6.217
  Name = 
  16 active torsions:
  status: ('A' for Active; 'I' for Inactive)
    1  A    between atoms: C_2  and  C_39
    2  A    between atoms: C_5  and  C_24
    3  A    between atoms: C_5  and  C_51
    4  A    between atoms: O_7  and  C_55
    5  A    between atoms: C_8  and  C_39
    6  A    between atoms: C_10  and  O_36
    7  A    between atoms: C_11  and  C_35
    8  A    between atoms: C_15  and  O_28
    9  A    between atoms: C_19  and  C_31
   10  A    between atoms: C_19  and  C_55
   11  A    between atoms: C_24  and  O_36
   12  A    between atoms: C_24  and  C_54
   13  A    between atoms: O_28  and  C_50
   14  A    between atoms: C_33  and  C_62
   15  A    between atoms: C_37  and  C_54
   16  A    between atoms: C_50  and  C_55
                            x       y       z     vdW  Elec       q    Type
                         _______ _______ _______ _____ _____    ______ ____

>  <TORSDO>
F 16

$$$$
