=
 OpenBabel10222421563D

 40 43  0  0  1  0  0  0  0  0999 V2000
  186.2010  177.6010  143.3440 N   0  0  0  0  0  2  0  0  0  0  0  0
  186.9830  178.4960  142.5100 C   0  0  0  0  0  2  0  0  0  0  0  0
  188.1410  178.2780  140.3000 C   0  0  0  0  0  2  0  0  0  0  0  0
  190.4030  177.0570  141.5880 C   0  0  0  0  0  2  0  0  0  0  0  0
  189.3530  177.7780  142.4280 C   0  0  0  0  0  2  0  0  0  0  0  0
  188.0090  177.7130  141.7140 C   0  0  1  0  0  3  0  0  0  0  0  0
  189.2620  177.5470  139.5590 C   0  0  0  0  0  2  0  0  0  0  0  0
  190.5300  177.7020  140.2780 N   0  0  0  0  0  0  0  0  0  0  0  0
  191.5240  176.9430  139.5390 C   0  0  0  0  0  2  0  0  0  0  0  0
  190.8790  175.8410  138.8420 N   0  0  0  0  0  2  0  0  0  0  0  0
  192.9120  175.3710  137.5080 N   0  0  0  0  0  2  0  0  0  0  0  0
  190.9890  173.9950  137.3960 N   0  0  0  0  0  2  0  0  0  0  0  0
  191.5870  175.0150  137.9210 C   0  0  0  0  0  0  0  0  0  0  0  0
  193.6580  174.6470  136.4860 C   0  0  0  0  0  2  0  0  0  0  0  0
  195.2250  174.7770  138.3510 N   0  0  0  0  0  2  0  0  0  0  0  0
  195.0750  174.3490  136.9590 C   0  0  2  0  0  3  0  0  0  0  0  0
  196.5860  174.4550  138.7830 C   0  0  0  0  0  2  0  0  0  0  0  0
  196.0920  175.0710  136.0740 C   0  0  0  0  0  2  0  0  0  0  0  0
  197.4950  174.8420  136.6330 C   0  0  0  0  0  2  0  0  0  0  0  0
  197.5480  175.2610  138.0330 N   0  0  0  0  0  2  0  0  0  0  0  0
  184.9300  178.2630  143.5990 C   0  0  2  0  0  3  0  0  0  0  0  0
  184.5740  179.1700  142.4300 C   0  0  0  0  0  2  0  0  0  0  0  0
  183.7300  178.4340  141.3980 C   0  0  2  0  0  3  0  0  0  0  0  0
  184.1340  178.8220  139.9990 C   0  0  0  0  0  2  0  0  0  0  0  0
  181.7700  178.7690  140.2590 N   0  0  0  0  0  2  0  0  0  0  0  0
  182.6940  178.3100  138.0590 C   0  0  0  0  0  1  0  0  0  0  0  0
  182.3350  178.8130  141.5450 N   0  0  0  0  0  2  0  0  0  0  0  0
  182.8260  179.1310  139.3260 C   0  0  2  0  0  3  0  0  0  0  0  0
  185.0420  179.0630  144.8120 N   0  0  0  0  0  2  0  0  0  0  0  0
  185.0600  178.1570  145.9540 C   0  0  0  0  0  2  0  0  0  0  0  0
  186.0290  178.6030  146.9500 N   0  0  0  0  0  2  0  0  0  0  0  0
  189.2450  176.9800  145.9920 C   0  0  0  0  0  3  0  0  0  0  0  0
  188.1610  178.3450  148.1760 C   0  0  0  0  0  3  0  0  0  0  0  0
  187.3770  178.1260  147.0320 C   0  0  0  0  0  0  0  0  0  0  0  0
  190.0290  177.1950  147.1350 C   0  0  0  0  0  0  0  0  0  0  0  0
  187.9270  177.4440  145.9420 C   0  0  0  0  0  3  0  0  0  0  0  0
  189.4770  177.8820  148.2260 C   0  0  0  0  0  3  0  0  0  0  0  0
  191.9800  176.0720  146.0810 O   0  0  0  0  0  0  0  0  0  0  0  0
  191.4170  176.7010  147.1860 C   0  0  0  0  0  0  0  0  0  0  0  0
  192.1060  176.8460  148.2320 O   0  0  0  0  0  1  0  0  0  0  0  0
  1 21  1  0  0  0  0
  2  1  1  0  0  0  0
  3  6  1  0  0  0  0
  4  5  1  0  0  0  0
  6  5  1  0  0  0  0
  6  2  1  1  0  0  0
  7  8  1  0  0  0  0
  7  3  1  0  0  0  0
  8  4  1  0  0  0  0
  9  8  1  0  0  0  0
 10  9  1  0  0  0  0
 11 13  1  0  0  0  0
 12 13  2  0  0  0  0
 13 10  1  0  0  0  0
 14 11  1  0  0  0  0
 15 17  1  0  0  0  0
 16 14  1  6  0  0  0
 16 15  1  0  0  0  0
 18 19  1  0  0  0  0
 18 16  1  0  0  0  0
 19 20  1  0  0  0  0
 20 17  1  0  0  0  0
 21 22  1  6  0  0  0
 21 29  1  0  0  0  0
 23 27  1  0  0  0  0
 23 22  1  1  0  0  0
 24 23  1  0  0  0  0
 25 27  1  0  0  0  0
 28 26  1  6  0  0  0
 28 24  1  0  0  0  0
 28 25  1  0  0  0  0
 29 30  1  0  0  0  0
 30 31  1  0  0  0  0
 31 34  1  0  0  0  0
 32 35  1  0  0  0  0
 33 37  1  0  0  0  0
 34 33  2  0  0  0  0
 35 39  1  0  0  0  0
 35 37  2  0  0  0  0
 36 32  2  0  0  0  0
 36 34  1  0  0  0  0
 38 39  2  0  0  0  0
 39 40  1  0  0  0  0
M  END
>  <MODEL>
1

>  <REMARK>
 VINA RESULT:      -8.4      0.000      0.000
  Name = 
  14 active torsions:
  status: ('A' for Active; 'I' for Inactive)
    1  A    between atoms: N_1  and  C_21
    2  A    between atoms: N_1  and  C_25
    3  A    between atoms: C_3  and  N_12
    4  A    between atoms: C_3  and  N_38
    5  A    between atoms: C_4  and  C_7
    6  A    between atoms: C_4  and  N_17
    7  A    between atoms: C_6  and  C_9
    8  A    between atoms: C_6  and  C_25
    9  A    between atoms: C_14  and  C_31
   10  A    between atoms: N_16  and  C_23
   11  A    between atoms: N_16  and  C_36
   12  A    between atoms: C_21  and  C_22
   13  A    between atoms: C_25  and  N_34
   14  A    between atoms: N_34  and  C_36
                            x       y       z     vdW  Elec       q    Type
                         _______ _______ _______ _____ _____    ______ ____

>  <TORSDO>
F 14

$$$$
=
 OpenBabel10222421563D

 40 43  0  0  1  0  0  0  0  0999 V2000
  187.2210  176.7650  144.8530 N   0  0  0  0  0  2  0  0  0  0  0  0
  186.9240  177.1700  143.4890 C   0  0  0  0  0  2  0  0  0  0  0  0
  189.0790  176.2220  142.6340 C   0  0  0  0  0  2  0  0  0  0  0  0
  189.1550  178.2180  140.5670 C   0  0  0  0  0  2  0  0  0  0  0  0
  187.8650  177.9880  141.3480 C   0  0  0  0  0  2  0  0  0  0  0  0
  188.2070  177.4740  142.7400 C   0  0  1  0  0  3  0  0  0  0  0  0
  190.3070  176.5250  141.7750 C   0  0  0  0  0  2  0  0  0  0  0  0
  189.8970  176.9610  140.4380 N   0  0  0  0  0  0  0  0  0  0  0  0
  191.1140  177.2730  139.7090 C   0  0  0  0  0  2  0  0  0  0  0  0
  191.2390  176.3870  138.5620 N   0  0  0  0  0  2  0  0  0  0  0  0
  189.7020  177.7760  137.2040 N   0  0  0  0  0  2  0  0  0  0  0  0
  190.8390  175.9070  136.3000 N   0  0  0  0  0  2  0  0  0  0  0  0
  190.6250  176.6850  137.3110 C   0  0  0  0  0  0  0  0  0  0  0  0
  188.9470  178.0740  135.9940 C   0  0  0  0  0  2  0  0  0  0  0  0
  187.2550  178.2330  137.7440 N   0  0  0  0  0  2  0  0  0  0  0  0
  187.4570  178.1690  136.2950 C   0  0  2  0  0  3  0  0  0  0  0  0
  185.8190  178.3480  138.0000 C   0  0  0  0  0  2  0  0  0  0  0  0
  186.7200  176.9590  135.7150 C   0  0  0  0  0  2  0  0  0  0  0  0
  185.2500  177.0250  136.1230 C   0  0  0  0  0  2  0  0  0  0  0  0
  185.1390  177.1230  137.5770 N   0  0  0  0  0  2  0  0  0  0  0  0
  187.1640  177.9670  145.6720 C   0  0  2  0  0  3  0  0  0  0  0  0
  188.2690  177.9360  146.7170 C   0  0  0  0  0  2  0  0  0  0  0  0
  189.4220  177.0450  146.2740 C   0  0  2  0  0  3  0  0  0  0  0  0
  190.1410  176.4670  147.4650 C   0  0  0  0  0  2  0  0  0  0  0  0
  191.6570  177.2670  145.8150 N   0  0  0  0  0  2  0  0  0  0  0  0
  192.3730  175.4330  147.2380 C   0  0  0  0  0  1  0  0  0  0  0  0
  190.4000  177.8360  145.5450 N   0  0  0  0  0  2  0  0  0  0  0  0
  191.5910  176.7290  147.1650 C   0  0  2  0  0  3  0  0  0  0  0  0
  185.8710  178.0300  146.3400 N   0  0  0  0  0  2  0  0  0  0  0  0
  185.1940  179.2470  145.9080 C   0  0  0  0  0  2  0  0  0  0  0  0
  183.7930  178.9740  145.5980 N   0  0  0  0  0  2  0  0  0  0  0  0
  181.3510  178.8260  142.7860 C   0  0  0  0  0  3  0  0  0  0  0  0
  184.1180  178.7120  143.1610 C   0  0  0  0  0  3  0  0  0  0  0  0
  183.2700  178.8620  144.2700 C   0  0  0  0  0  0  0  0  0  0  0  0
  182.1960  178.6740  141.6770 C   0  0  0  0  0  0  0  0  0  0  0  0
  181.8860  178.9200  144.0740 C   0  0  0  0  0  3  0  0  0  0  0  0
  183.5830  178.6180  141.8740 C   0  0  0  0  0  3  0  0  0  0  0  0
  181.7240  179.6410  139.4360 O   0  0  0  0  0  0  0  0  0  0  0  0
  181.6290  178.5710  140.3210 C   0  0  0  0  0  0  0  0  0  0  0  0
  181.0530  177.5130  139.9490 O   0  0  0  0  0  1  0  0  0  0  0  0
  1 21  1  0  0  0  0
  2  1  1  0  0  0  0
  3  6  1  0  0  0  0
  4  5  1  0  0  0  0
  5  6  1  0  0  0  0
  6  2  1  6  0  0  0
  7  3  1  0  0  0  0
  8  4  1  0  0  0  0
  8  7  1  0  0  0  0
  9  8  1  0  0  0  0
 10  9  1  0  0  0  0
 11 13  1  0  0  0  0
 12 13  2  0  0  0  0
 13 10  1  0  0  0  0
 14 11  1  0  0  0  0
 15 17  1  0  0  0  0
 16 14  1  1  0  0  0
 16 15  1  0  0  0  0
 18 19  1  0  0  0  0
 18 16  1  0  0  0  0
 19 20  1  0  0  0  0
 20 17  1  0  0  0  0
 21 29  1  0  0  0  0
 21 22  1  1  0  0  0
 23 22  1  1  0  0  0
 23 24  1  0  0  0  0
 25 28  1  0  0  0  0
 27 25  1  0  0  0  0
 27 23  1  0  0  0  0
 28 26  1  6  0  0  0
 28 24  1  0  0  0  0
 30 29  1  0  0  0  0
 31 30  1  0  0  0  0
 32 36  1  0  0  0  0
 33 34  1  0  0  0  0
 34 31  1  0  0  0  0
 35 37  1  0  0  0  0
 35 32  2  0  0  0  0
 36 34  2  0  0  0  0
 37 33  2  0  0  0  0
 38 39  2  0  0  0  0
 39 35  1  0  0  0  0
 40 39  1  0  0  0  0
M  END
>  <MODEL>
2

>  <REMARK>
 VINA RESULT:      -8.3      4.084      7.723
  Name = 
  14 active torsions:
  status: ('A' for Active; 'I' for Inactive)
    1  A    between atoms: N_1  and  C_21
    2  A    between atoms: N_1  and  C_25
    3  A    between atoms: C_3  and  N_12
    4  A    between atoms: C_3  and  N_38
    5  A    between atoms: C_4  and  C_7
    6  A    between atoms: C_4  and  N_17
    7  A    between atoms: C_6  and  C_9
    8  A    between atoms: C_6  and  C_25
    9  A    between atoms: C_14  and  C_31
   10  A    between atoms: N_16  and  C_23
   11  A    between atoms: N_16  and  C_36
   12  A    between atoms: C_21  and  C_22
   13  A    between atoms: C_25  and  N_34
   14  A    between atoms: N_34  and  C_36
                            x       y       z     vdW  Elec       q    Type
                         _______ _______ _______ _____ _____    ______ ____

>  <TORSDO>
F 14

$$$$
=
 OpenBabel10222421563D

 40 43  0  0  1  0  0  0  0  0999 V2000
  184.8340  179.5160  141.3940 N   0  0  0  0  0  2  0  0  0  0  0  0
  183.7290  178.9520  140.6400 C   0  0  0  0  0  2  0  0  0  0  0  0
  183.0810  177.0660  139.1240 C   0  0  0  0  0  2  0  0  0  0  0  0
  185.3970  177.5570  137.4950 C   0  0  0  0  0  2  0  0  0  0  0  0
  184.9560  178.6010  138.5160 C   0  0  0  0  0  2  0  0  0  0  0  0
  184.2370  177.9070  139.6650 C   0  0  1  0  0  3  0  0  0  0  0  0
  183.6030  176.1020  138.0590 C   0  0  0  0  0  2  0  0  0  0  0  0
  184.2310  176.8470  136.9650 N   0  0  0  0  0  0  0  0  0  0  0  0
  184.7400  175.8600  136.0260 C   0  0  0  0  0  2  0  0  0  0  0  0
  184.8760  174.5760  136.6930 N   0  0  0  0  0  2  0  0  0  0  0  0
  187.3480  174.7080  136.6480 N   0  0  0  0  0  2  0  0  0  0  0  0
  186.2030  172.9530  137.7490 N   0  0  0  0  0  2  0  0  0  0  0  0
  186.1460  174.0590  137.0810 C   0  0  0  0  0  0  0  0  0  0  0  0
  188.6830  174.1810  136.9020 C   0  0  0  0  0  2  0  0  0  0  0  0
  190.7850  174.7770  137.9880 N   0  0  0  0  0  2  0  0  0  0  0  0
  189.6600  175.3070  137.2140 C   0  0  2  0  0  3  0  0  0  0  0  0
  191.7170  175.8750  138.2490 C   0  0  0  0  0  2  0  0  0  0  0  0
  188.9590  176.4170  137.9990 C   0  0  0  0  0  2  0  0  0  0  0  0
  189.9840  177.4800  138.3900 C   0  0  0  0  0  2  0  0  0  0  0  0
  191.0870  176.8630  139.1250 N   0  0  0  0  0  2  0  0  0  0  0  0
  185.5380  178.4020  142.0110 C   0  0  2  0  0  3  0  0  0  0  0  0
  184.8980  178.0580  143.3480 C   0  0  0  0  0  2  0  0  0  0  0  0
  185.6600  178.6910  144.5040 C   0  0  2  0  0  3  0  0  0  0  0  0
  186.3880  177.6420  145.3050 C   0  0  0  0  0  2  0  0  0  0  0  0
  185.2790  179.2170  146.7020 N   0  0  0  0  0  2  0  0  0  0  0  0
  187.2810  178.1370  147.5540 C   0  0  0  0  0  1  0  0  0  0  0  0
  184.7270  179.3320  145.4140 N   0  0  0  0  0  2  0  0  0  0  0  0
  186.0230  177.9670  146.7270 C   0  0  2  0  0  3  0  0  0  0  0  0
  186.9300  178.7750  142.2250 N   0  0  0  0  0  2  0  0  0  0  0  0
  187.7730  177.7060  141.7020 C   0  0  0  0  0  2  0  0  0  0  0  0
  189.1820  177.9890  141.9610 N   0  0  0  0  0  2  0  0  0  0  0  0
  190.3120  177.6730  145.4990 C   0  0  0  0  0  3  0  0  0  0  0  0
  190.8420  176.4950  143.0210 C   0  0  0  0  0  3  0  0  0  0  0  0
  189.8970  177.5290  143.1130 C   0  0  0  0  0  0  0  0  0  0  0  0
  191.2580  176.6420  145.4090 C   0  0  0  0  0  0  0  0  0  0  0  0
  189.6360  178.1130  144.3570 C   0  0  0  0  0  3  0  0  0  0  0  0
  191.5170  176.0550  144.1620 C   0  0  0  0  0  3  0  0  0  0  0  0
  192.6700  174.9790  146.6020 O   0  0  0  0  0  0  0  0  0  0  0  0
  191.9710  176.1830  146.6140 C   0  0  0  0  0  0  0  0  0  0  0  0
  191.9560  176.8760  147.6660 O   0  0  0  0  0  1  0  0  0  0  0  0
  1 21  1  0  0  0  0
  2  1  1  0  0  0  0
  3  6  1  0  0  0  0
  4  5  1  0  0  0  0
  5  6  1  0  0  0  0
  6  2  1  1  0  0  0
  7  3  1  0  0  0  0
  8  4  1  0  0  0  0
  8  7  1  0  0  0  0
  9 10  1  0  0  0  0
  9  8  1  0  0  0  0
 10 13  1  0  0  0  0
 11 14  1  0  0  0  0
 11 13  1  0  0  0  0
 13 12  2  0  0  0  0
 15 17  1  0  0  0  0
 16 14  1  1  0  0  0
 16 15  1  0  0  0  0
 16 18  1  0  0  0  0
 17 20  1  0  0  0  0
 18 19  1  0  0  0  0
 19 20  1  0  0  0  0
 21 29  1  0  0  0  0
 21 22  1  1  0  0  0
 23 22  1  6  0  0  0
 23 24  1  0  0  0  0
 23 27  1  0  0  0  0
 24 28  1  0  0  0  0
 25 28  1  0  0  0  0
 27 25  1  0  0  0  0
 28 26  1  1  0  0  0
 30 31  1  0  0  0  0
 30 29  1  0  0  0  0
 31 34  1  0  0  0  0
 33 34  2  0  0  0  0
 33 37  1  0  0  0  0
 34 36  1  0  0  0  0
 35 32  1  0  0  0  0
 35 39  1  0  0  0  0
 36 32  2  0  0  0  0
 37 35  2  0  0  0  0
 38 39  2  0  0  0  0
 39 40  1  0  0  0  0
M  END
>  <MODEL>
3

>  <REMARK>
 VINA RESULT:      -8.1      2.501      5.409
  Name = 
  14 active torsions:
  status: ('A' for Active; 'I' for Inactive)
    1  A    between atoms: N_1  and  C_21
    2  A    between atoms: N_1  and  C_25
    3  A    between atoms: C_3  and  N_12
    4  A    between atoms: C_3  and  N_38
    5  A    between atoms: C_4  and  C_7
    6  A    between atoms: C_4  and  N_17
    7  A    between atoms: C_6  and  C_9
    8  A    between atoms: C_6  and  C_25
    9  A    between atoms: C_14  and  C_31
   10  A    between atoms: N_16  and  C_23
   11  A    between atoms: N_16  and  C_36
   12  A    between atoms: C_21  and  C_22
   13  A    between atoms: C_25  and  N_34
   14  A    between atoms: N_34  and  C_36
                            x       y       z     vdW  Elec       q    Type
                         _______ _______ _______ _____ _____    ______ ____

>  <TORSDO>
F 14

$$$$
=
 OpenBabel10222421563D

 40 43  0  0  1  0  0  0  0  0999 V2000
  183.4280  178.0800  142.3830 N   0  0  0  0  0  2  0  0  0  0  0  0
  182.3200  178.7910  141.7700 C   0  0  0  0  0  2  0  0  0  0  0  0
  182.5780  179.3610  139.3450 C   0  0  0  0  0  2  0  0  0  0  0  0
  182.7270  176.5670  138.6870 C   0  0  0  0  0  2  0  0  0  0  0  0
  182.8760  177.0110  140.1390 C   0  0  0  0  0  2  0  0  0  0  0  0
  182.1070  178.3080  140.3480 C   0  0  1  0  0  3  0  0  0  0  0  0
  182.4620  178.8040  137.9260 C   0  0  0  0  0  2  0  0  0  0  0  0
  183.2700  177.5890  137.7900 N   0  0  0  0  0  0  0  0  0  0  0  0
  183.0660  177.1010  136.4360 C   0  0  0  0  0  2  0  0  0  0  0  0
  183.2950  175.6660  136.3940 N   0  0  0  0  0  2  0  0  0  0  0  0
  185.6770  175.9700  135.7860 N   0  0  0  0  0  2  0  0  0  0  0  0
  184.7540  173.8350  136.2290 N   0  0  0  0  0  2  0  0  0  0  0  0
  184.5910  175.1170  136.1710 C   0  0  0  0  0  0  0  0  0  0  0  0
  187.0000  175.4750  135.4280 C   0  0  0  0  0  2  0  0  0  0  0  0
  188.6050  177.2150  136.0180 N   0  0  0  0  0  2  0  0  0  0  0  0
  188.0420  175.9310  136.4410 C   0  0  2  0  0  3  0  0  0  0  0  0
  189.5820  177.6380  137.0220 C   0  0  0  0  0  2  0  0  0  0  0  0
  189.1530  174.8870  136.5670 C   0  0  0  0  0  2  0  0  0  0  0  0
  190.2340  175.4160  137.5070 C   0  0  0  0  0  2  0  0  0  0  0  0
  190.7150  176.7130  137.0320 N   0  0  0  0  0  2  0  0  0  0  0  0
  184.0700  179.0090  143.3010 C   0  0  2  0  0  3  0  0  0  0  0  0
  185.3460  179.5560  142.6790 C   0  0  0  0  0  2  0  0  0  0  0  0
  185.9970  178.5300  141.7620 C   0  0  2  0  0  3  0  0  0  0  0  0
  187.4510  178.3430  142.1110 C   0  0  0  0  0  2  0  0  0  0  0  0
  187.1160  178.5100  139.7620 N   0  0  0  0  0  2  0  0  0  0  0  0
  189.0080  177.2130  140.5620 C   0  0  0  0  0  1  0  0  0  0  0  0
  185.9600  179.0060  140.3900 N   0  0  0  0  0  2  0  0  0  0  0  0
  188.1500  178.4420  140.7830 C   0  0  2  0  0  3  0  0  0  0  0  0
  184.3980  178.3100  144.5370 N   0  0  0  0  0  2  0  0  0  0  0  0
  185.3210  179.1440  145.2990 C   0  0  0  0  0  2  0  0  0  0  0  0
  185.8670  178.4030  146.4330 N   0  0  0  0  0  2  0  0  0  0  0  0
  189.1930  177.6210  147.9220 C   0  0  0  0  0  3  0  0  0  0  0  0
  187.9450  177.5200  145.4240 C   0  0  0  0  0  3  0  0  0  0  0  0
  187.2330  177.9870  146.5410 C   0  0  0  0  0  0  0  0  0  0  0  0
  189.9060  177.1560  146.8080 C   0  0  0  0  0  0  0  0  0  0  0  0
  187.8640  178.0330  147.7880 C   0  0  0  0  0  3  0  0  0  0  0  0
  189.2720  177.1070  145.5580 C   0  0  0  0  0  3  0  0  0  0  0  0
  191.9550  176.0760  145.9040 O   0  0  0  0  0  0  0  0  0  0  0  0
  191.3090  176.7250  146.9510 C   0  0  0  0  0  0  0  0  0  0  0  0
  191.9350  176.9430  148.0230 O   0  0  0  0  0  1  0  0  0  0  0  0
  1 21  1  0  0  0  0
  2  1  1  0  0  0  0
  3  6  1  0  0  0  0
  4  5  1  0  0  0  0
  5  6  1  0  0  0  0
  6  2  1  1  0  0  0
  7  3  1  0  0  0  0
  8  7  1  0  0  0  0
  8  4  1  0  0  0  0
  9  8  1  0  0  0  0
 10  9  1  0  0  0  0
 11 13  1  0  0  0  0
 13 12  2  0  0  0  0
 13 10  1  0  0  0  0
 14 11  1  0  0  0  0
 15 16  1  0  0  0  0
 15 17  1  0  0  0  0
 16 14  1  6  0  0  0
 16 18  1  0  0  0  0
 17 20  1  0  0  0  0
 18 19  1  0  0  0  0
 20 19  1  0  0  0  0
 21 22  1  6  0  0  0
 21 29  1  0  0  0  0
 23 24  1  0  0  0  0
 23 22  1  1  0  0  0
 25 27  1  0  0  0  0
 25 28  1  0  0  0  0
 27 23  1  0  0  0  0
 28 26  1  6  0  0  0
 28 24  1  0  0  0  0
 29 30  1  0  0  0  0
 30 31  1  0  0  0  0
 31 34  1  0  0  0  0
 33 37  2  0  0  0  0
 33 34  1  0  0  0  0
 34 36  2  0  0  0  0
 35 39  1  0  0  0  0
 35 32  2  0  0  0  0
 36 32  1  0  0  0  0
 37 35  1  0  0  0  0
 38 39  2  0  0  0  0
 39 40  1  0  0  0  0
M  END
>  <MODEL>
4

>  <REMARK>
 VINA RESULT:      -7.8      2.847      5.383
  Name = 
  14 active torsions:
  status: ('A' for Active; 'I' for Inactive)
    1  A    between atoms: N_1  and  C_21
    2  A    between atoms: N_1  and  C_25
    3  A    between atoms: C_3  and  N_12
    4  A    between atoms: C_3  and  N_38
    5  A    between atoms: C_4  and  C_7
    6  A    between atoms: C_4  and  N_17
    7  A    between atoms: C_6  and  C_9
    8  A    between atoms: C_6  and  C_25
    9  A    between atoms: C_14  and  C_31
   10  A    between atoms: N_16  and  C_23
   11  A    between atoms: N_16  and  C_36
   12  A    between atoms: C_21  and  C_22
   13  A    between atoms: C_25  and  N_34
   14  A    between atoms: N_34  and  C_36
                            x       y       z     vdW  Elec       q    Type
                         _______ _______ _______ _____ _____    ______ ____

>  <TORSDO>
F 14

$$$$
=
 OpenBabel10222421563D

 40 43  0  0  1  0  0  0  0  0999 V2000
  185.2660  178.9420  140.5950 N   0  0  0  0  0  2  0  0  0  0  0  0
  186.4190  179.0560  141.4700 C   0  0  0  0  0  2  0  0  0  0  0  0
  187.9070  178.4080  139.5620 C   0  0  0  0  0  2  0  0  0  0  0  0
  189.8690  177.4100  141.4100 C   0  0  0  0  0  2  0  0  0  0  0  0
  188.7340  178.2940  141.9180 C   0  0  0  0  0  2  0  0  0  0  0  0
  187.5210  178.1200  141.0130 C   0  0  1  0  0  3  0  0  0  0  0  0
  189.0960  177.5330  139.1650 C   0  0  0  0  0  2  0  0  0  0  0  0
  190.2370  177.7970  140.0460 N   0  0  0  0  0  0  0  0  0  0  0  0
  191.3000  176.8950  139.6330 C   0  0  0  0  0  2  0  0  0  0  0  0
  190.7400  175.8040  138.8530 N   0  0  0  0  0  2  0  0  0  0  0  0
  192.8560  175.4850  137.6060 N   0  0  0  0  0  2  0  0  0  0  0  0
  191.0020  174.0380  137.3290 N   0  0  0  0  0  2  0  0  0  0  0  0
  191.5280  175.0540  137.9320 C   0  0  0  0  0  0  0  0  0  0  0  0
  193.6820  174.8430  136.5920 C   0  0  0  0  0  2  0  0  0  0  0  0
  195.1090  174.8390  138.5700 N   0  0  0  0  0  2  0  0  0  0  0  0
  195.0000  174.3670  137.1880 C   0  0  2  0  0  3  0  0  0  0  0  0
  196.3710  174.3460  139.1240 C   0  0  0  0  0  2  0  0  0  0  0  0
  196.1770  174.8890  136.3610 C   0  0  0  0  0  2  0  0  0  0  0  0
  197.4850  174.4880  137.0410 C   0  0  0  0  0  2  0  0  0  0  0  0
  197.4950  174.9660  138.4230 N   0  0  0  0  0  2  0  0  0  0  0  0
  184.1940  178.3510  141.3820 C   0  0  2  0  0  3  0  0  0  0  0  0
  182.9440  178.2030  140.5290 C   0  0  0  0  0  2  0  0  0  0  0  0
  182.9330  176.8710  139.7900 C   0  0  2  0  0  3  0  0  0  0  0  0
  183.2610  177.0620  138.3330 C   0  0  0  0  0  2  0  0  0  0  0  0
  181.4270  175.5790  138.6430 N   0  0  0  0  0  2  0  0  0  0  0  0
  182.8200  175.2860  136.6740 C   0  0  0  0  0  1  0  0  0  0  0  0
  181.6010  176.2930  139.8420 N   0  0  0  0  0  2  0  0  0  0  0  0
  182.1880  176.2840  137.6230 C   0  0  2  0  0  3  0  0  0  0  0  0
  183.9020  179.2150  142.5180 N   0  0  0  0  0  2  0  0  0  0  0  0
  183.6420  178.3690  143.6780 C   0  0  0  0  0  2  0  0  0  0  0  0
  184.1440  178.9980  144.8960 N   0  0  0  0  0  2  0  0  0  0  0  0
  187.5260  177.5390  145.4690 C   0  0  0  0  0  3  0  0  0  0  0  0
  185.5830  178.9410  146.9060 C   0  0  0  0  0  3  0  0  0  0  0  0
  185.3540  178.6140  145.5600 C   0  0  0  0  0  0  0  0  0  0  0  0
  187.7560  177.8630  146.8140 C   0  0  0  0  0  0  0  0  0  0  0  0
  186.3320  177.9140  144.8470 C   0  0  0  0  0  3  0  0  0  0  0  0
  186.7750  178.5680  147.5280 C   0  0  0  0  0  3  0  0  0  0  0  0
  189.4790  178.1580  148.5820 O   0  0  0  0  0  1  0  0  0  0  0  0
  189.0150  177.4640  147.4690 C   0  0  0  0  0  0  0  0  0  0  0  0
  189.6810  176.4890  147.0270 O   0  0  0  0  0  0  0  0  0  0  0  0
  1 21  1  0  0  0  0
  1  2  1  0  0  0  0
  3  6  1  0  0  0  0
  4  5  1  0  0  0  0
  6  2  1  1  0  0  0
  6  5  1  0  0  0  0
  7  3  1  0  0  0  0
  7  8  1  0  0  0  0
  8  4  1  0  0  0  0
  9  8  1  0  0  0  0
 10  9  1  0  0  0  0
 11 13  1  0  0  0  0
 12 13  2  0  0  0  0
 13 10  1  0  0  0  0
 14 11  1  0  0  0  0
 15 17  1  0  0  0  0
 16 14  1  6  0  0  0
 16 15  1  0  0  0  0
 18 19  1  0  0  0  0
 18 16  1  0  0  0  0
 19 20  1  0  0  0  0
 20 17  1  0  0  0  0
 21 22  1  6  0  0  0
 21 29  1  0  0  0  0
 23 27  1  0  0  0  0
 23 22  1  1  0  0  0
 24 23  1  0  0  0  0
 25 27  1  0  0  0  0
 28 26  1  6  0  0  0
 28 24  1  0  0  0  0
 28 25  1  0  0  0  0
 29 30  1  0  0  0  0
 30 31  1  0  0  0  0
 31 34  1  0  0  0  0
 32 35  1  0  0  0  0
 33 37  1  0  0  0  0
 34 33  2  0  0  0  0
 35 39  1  0  0  0  0
 35 37  2  0  0  0  0
 36 32  2  0  0  0  0
 36 34  1  0  0  0  0
 39 38  1  0  0  0  0
 40 39  2  0  0  0  0
M  END
>  <MODEL>
5

>  <REMARK>
 VINA RESULT:      -7.8      1.482      2.095
  Name = 
  14 active torsions:
  status: ('A' for Active; 'I' for Inactive)
    1  A    between atoms: N_1  and  C_21
    2  A    between atoms: N_1  and  C_25
    3  A    between atoms: C_3  and  N_12
    4  A    between atoms: C_3  and  N_38
    5  A    between atoms: C_4  and  C_7
    6  A    between atoms: C_4  and  N_17
    7  A    between atoms: C_6  and  C_9
    8  A    between atoms: C_6  and  C_25
    9  A    between atoms: C_14  and  C_31
   10  A    between atoms: N_16  and  C_23
   11  A    between atoms: N_16  and  C_36
   12  A    between atoms: C_21  and  C_22
   13  A    between atoms: C_25  and  N_34
   14  A    between atoms: N_34  and  C_36
                            x       y       z     vdW  Elec       q    Type
                         _______ _______ _______ _____ _____    ______ ____

>  <TORSDO>
F 14

$$$$
=
 OpenBabel10222421563D

 40 43  0  0  1  0  0  0  0  0999 V2000
  190.1380  177.0380  140.1130 N   0  0  0  0  0  2  0  0  0  0  0  0
  191.0840  177.5500  141.0900 C   0  0  0  0  0  2  0  0  0  0  0  0
  190.8370  178.3510  143.4500 C   0  0  0  0  0  2  0  0  0  0  0  0
  188.7150  176.4620  143.8870 C   0  0  0  0  0  2  0  0  0  0  0  0
  189.1790  176.7620  142.4650 C   0  0  0  0  0  2  0  0  0  0  0  0
  190.6440  177.1750  142.4920 C   0  0  1  0  0  3  0  0  0  0  0  0
  190.2790  177.9880  144.8260 C   0  0  0  0  0  2  0  0  0  0  0  0
  188.8550  177.6550  144.7250 N   0  0  0  0  0  0  0  0  0  0  0  0
  188.4190  177.2770  146.0590 C   0  0  0  0  0  2  0  0  0  0  0  0
  187.6060  178.3400  146.6270 N   0  0  0  0  0  2  0  0  0  0  0  0
  185.8620  178.0620  144.8910 N   0  0  0  0  0  2  0  0  0  0  0  0
  185.5980  179.5530  146.7110 N   0  0  0  0  0  2  0  0  0  0  0  0
  186.3150  178.6570  146.1130 C   0  0  0  0  0  0  0  0  0  0  0  0
  184.6080  178.4190  144.2390 C   0  0  0  0  0  2  0  0  0  0  0  0
  185.8900  178.9950  142.2460 N   0  0  0  0  0  2  0  0  0  0  0  0
  184.7180  178.2610  142.7290 C   0  0  2  0  0  3  0  0  0  0  0  0
  185.9840  178.8040  140.7980 C   0  0  0  0  0  2  0  0  0  0  0  0
  183.4530  178.7860  142.0460 C   0  0  0  0  0  2  0  0  0  0  0  0
  183.6350  178.7140  140.5310 C   0  0  0  0  0  2  0  0  0  0  0  0
  184.8430  179.4380  140.1390 N   0  0  0  0  0  2  0  0  0  0  0  0
  190.8790  176.8310  138.8770 C   0  0  2  0  0  3  0  0  0  0  0  0
  190.1310  177.4600  137.7110 C   0  0  0  0  0  2  0  0  0  0  0  0
  188.6850  177.7630  138.0820 C   0  0  2  0  0  3  0  0  0  0  0  0
  187.7360  176.8930  137.3010 C   0  0  0  0  0  2  0  0  0  0  0  0
  187.0090  179.1580  137.3750 N   0  0  0  0  0  2  0  0  0  0  0  0
  185.3250  177.4180  137.1710 C   0  0  0  0  0  1  0  0  0  0  0  0
  188.3690  179.1380  137.7330 N   0  0  0  0  0  2  0  0  0  0  0  0
  186.7170  177.8660  136.7730 C   0  0  2  0  0  3  0  0  0  0  0  0
  191.0250  175.4010  138.6410 N   0  0  0  0  0  2  0  0  0  0  0  0
  191.5870  175.2150  137.3080 C   0  0  0  0  0  2  0  0  0  0  0  0
  192.5340  174.1040  137.2990 N   0  0  0  0  0  2  0  0  0  0  0  0
  195.9400  175.0970  136.1560 C   0  0  0  0  0  3  0  0  0  0  0  0
  194.7620  173.7780  138.3200 C   0  0  0  0  0  3  0  0  0  0  0  0
  193.9570  174.2600  137.2760 C   0  0  0  0  0  0  0  0  0  0  0  0
  196.7460  174.6130  137.1970 C   0  0  0  0  0  0  0  0  0  0  0  0
  194.5540  174.9210  136.1960 C   0  0  0  0  0  3  0  0  0  0  0  0
  196.1470  173.9540  138.2800 C   0  0  0  0  0  3  0  0  0  0  0  0
  198.9710  174.6620  138.3060 O   0  0  0  0  0  1  0  0  0  0  0  0
  198.2080  174.7970  137.1500 C   0  0  0  0  0  0  0  0  0  0  0  0
  198.7800  175.0770  136.0620 O   0  0  0  0  0  0  0  0  0  0  0  0
  1  2  1  0  0  0  0
  3  7  1  0  0  0  0
  4  8  1  0  0  0  0
  5  6  1  0  0  0  0
  5  4  1  0  0  0  0
  6  2  1  6  0  0  0
  6  3  1  0  0  0  0
  8  7  1  0  0  0  0
  8  9  1  0  0  0  0
  9 10  1  0  0  0  0
 11 13  1  0  0  0  0
 13 10  1  0  0  0  0
 13 12  2  0  0  0  0
 14 11  1  0  0  0  0
 15 16  1  0  0  0  0
 16 14  1  1  0  0  0
 17 15  1  0  0  0  0
 18 16  1  0  0  0  0
 19 18  1  0  0  0  0
 20 19  1  0  0  0  0
 20 17  1  0  0  0  0
 21 22  1  6  0  0  0
 21  1  1  0  0  0  0
 23 22  1  6  0  0  0
 24 23  1  0  0  0  0
 25 27  1  0  0  0  0
 27 23  1  0  0  0  0
 28 26  1  1  0  0  0
 28 24  1  0  0  0  0
 28 25  1  0  0  0  0
 29 21  1  0  0  0  0
 30 29  1  0  0  0  0
 31 30  1  0  0  0  0
 32 36  2  0  0  0  0
 32 35  1  0  0  0  0
 34 31  1  0  0  0  0
 34 33  2  0  0  0  0
 35 37  2  0  0  0  0
 36 34  1  0  0  0  0
 37 33  1  0  0  0  0
 39 35  1  0  0  0  0
 39 38  1  0  0  0  0
 40 39  2  0  0  0  0
M  END
>  <MODEL>
6

>  <REMARK>
 VINA RESULT:      -7.7      3.131      9.806
  Name = 
  14 active torsions:
  status: ('A' for Active; 'I' for Inactive)
    1  A    between atoms: N_1  and  C_21
    2  A    between atoms: N_1  and  C_25
    3  A    between atoms: C_3  and  N_12
    4  A    between atoms: C_3  and  N_38
    5  A    between atoms: C_4  and  C_7
    6  A    between atoms: C_4  and  N_17
    7  A    between atoms: C_6  and  C_9
    8  A    between atoms: C_6  and  C_25
    9  A    between atoms: C_14  and  C_31
   10  A    between atoms: N_16  and  C_23
   11  A    between atoms: N_16  and  C_36
   12  A    between atoms: C_21  and  C_22
   13  A    between atoms: C_25  and  N_34
   14  A    between atoms: N_34  and  C_36
                            x       y       z     vdW  Elec       q    Type
                         _______ _______ _______ _____ _____    ______ ____

>  <TORSDO>
F 14

$$$$
=
 OpenBabel10222421563D

 40 43  0  0  1  0  0  0  0  0999 V2000
  187.1900  176.8780  144.9030 N   0  0  0  0  0  2  0  0  0  0  0  0
  186.6660  177.2800  143.6100 C   0  0  0  0  0  2  0  0  0  0  0  0
  188.7850  176.5280  142.5060 C   0  0  0  0  0  2  0  0  0  0  0  0
  188.3660  178.4150  140.3790 C   0  0  0  0  0  2  0  0  0  0  0  0
  187.2220  178.0870  141.3340 C   0  0  0  0  0  2  0  0  0  0  0  0
  187.7980  177.6820  142.6850 C   0  0  1  0  0  3  0  0  0  0  0  0
  189.8490  176.9190  141.4810 C   0  0  0  0  0  2  0  0  0  0  0  0
  189.2220  177.2410  140.1960 N   0  0  0  0  0  0  0  0  0  0  0  0
  190.2920  177.6460  139.2990 C   0  0  0  0  0  2  0  0  0  0  0  0
  189.7340  178.3670  138.1670 N   0  0  0  0  0  2  0  0  0  0  0  0
  189.5770  176.3020  136.8090 N   0  0  0  0  0  2  0  0  0  0  0  0
  188.7290  178.3760  136.0460 N   0  0  0  0  0  2  0  0  0  0  0  0
  189.2970  177.6960  136.9880 C   0  0  0  0  0  0  0  0  0  0  0  0
  189.2690  175.5700  135.5860 C   0  0  0  0  0  2  0  0  0  0  0  0
  187.0420  175.1430  136.4850 N   0  0  0  0  0  2  0  0  0  0  0  0
  188.1980  174.5170  135.8410 C   0  0  2  0  0  3  0  0  0  0  0  0
  186.0220  174.1140  136.6930 C   0  0  0  0  0  2  0  0  0  0  0  0
  188.7520  173.4000  136.7270 C   0  0  0  0  0  2  0  0  0  0  0  0
  187.6300  172.4160  137.0530 C   0  0  0  0  0  2  0  0  0  0  0  0
  186.5050  173.1260  137.6580 N   0  0  0  0  0  2  0  0  0  0  0  0
  187.1440  178.0530  145.7610 C   0  0  2  0  0  3  0  0  0  0  0  0
  188.2900  178.0110  146.7620 C   0  0  0  0  0  2  0  0  0  0  0  0
  189.3960  177.0740  146.2960 C   0  0  2  0  0  3  0  0  0  0  0  0
  190.1640  176.5250  147.4690 C   0  0  0  0  0  2  0  0  0  0  0  0
  191.6060  177.2190  145.7080 N   0  0  0  0  0  2  0  0  0  0  0  0
  192.3560  175.4250  147.1670 C   0  0  0  0  0  1  0  0  0  0  0  0
  190.3500  177.8090  145.4830 N   0  0  0  0  0  2  0  0  0  0  0  0
  191.6020  176.7370  147.0810 C   0  0  2  0  0  3  0  0  0  0  0  0
  185.8770  178.0710  146.4800 N   0  0  0  0  0  2  0  0  0  0  0  0
  185.0980  179.2070  146.0020 C   0  0  0  0  0  2  0  0  0  0  0  0
  183.7320  178.7980  145.6880 N   0  0  0  0  0  2  0  0  0  0  0  0
  183.5120  178.7870  141.9660 C   0  0  0  0  0  3  0  0  0  0  0  0
  181.7850  178.7910  144.1630 C   0  0  0  0  0  3  0  0  0  0  0  0
  183.1740  178.8010  144.3690 C   0  0  0  0  0  0  0  0  0  0  0  0
  182.1250  178.7790  141.7600 C   0  0  0  0  0  0  0  0  0  0  0  0
  184.0320  178.7970  143.2640 C   0  0  0  0  0  3  0  0  0  0  0  0
  181.2660  178.7800  142.8680 C   0  0  0  0  0  3  0  0  0  0  0  0
  181.2000  179.9630  139.7790 O   0  0  0  0  0  1  0  0  0  0  0  0
  181.5790  178.7720  140.3900 C   0  0  0  0  0  0  0  0  0  0  0  0
  181.4530  177.6880  139.7600 O   0  0  0  0  0  0  0  0  0  0  0  0
  1 21  1  0  0  0  0
  2  1  1  0  0  0  0
  3  6  1  0  0  0  0
  4  5  1  0  0  0  0
  5  6  1  0  0  0  0
  6  2  1  1  0  0  0
  7  3  1  0  0  0  0
  8  4  1  0  0  0  0
  8  7  1  0  0  0  0
  9  8  1  0  0  0  0
 10  9  1  0  0  0  0
 11 13  1  0  0  0  0
 12 13  2  0  0  0  0
 13 10  1  0  0  0  0
 14 11  1  0  0  0  0
 15 17  1  0  0  0  0
 16 14  1  1  0  0  0
 16 15  1  0  0  0  0
 16 18  1  0  0  0  0
 17 20  1  0  0  0  0
 18 19  1  0  0  0  0
 19 20  1  0  0  0  0
 21 29  1  0  0  0  0
 21 22  1  1  0  0  0
 23 22  1  1  0  0  0
 23 24  1  0  0  0  0
 25 28  1  0  0  0  0
 27 25  1  0  0  0  0
 27 23  1  0  0  0  0
 28 26  1  6  0  0  0
 28 24  1  0  0  0  0
 30 29  1  0  0  0  0
 31 30  1  0  0  0  0
 32 36  1  0  0  0  0
 33 34  1  0  0  0  0
 34 31  1  0  0  0  0
 35 32  2  0  0  0  0
 35 37  1  0  0  0  0
 36 34  2  0  0  0  0
 37 33  2  0  0  0  0
 38 39  1  0  0  0  0
 39 35  1  0  0  0  0
 40 39  2  0  0  0  0
M  END
>  <MODEL>
7

>  <REMARK>
 VINA RESULT:      -7.6      4.459      7.489
  Name = 
  14 active torsions:
  status: ('A' for Active; 'I' for Inactive)
    1  A    between atoms: N_1  and  C_21
    2  A    between atoms: N_1  and  C_25
    3  A    between atoms: C_3  and  N_12
    4  A    between atoms: C_3  and  N_38
    5  A    between atoms: C_4  and  C_7
    6  A    between atoms: C_4  and  N_17
    7  A    between atoms: C_6  and  C_9
    8  A    between atoms: C_6  and  C_25
    9  A    between atoms: C_14  and  C_31
   10  A    between atoms: N_16  and  C_23
   11  A    between atoms: N_16  and  C_36
   12  A    between atoms: C_21  and  C_22
   13  A    between atoms: C_25  and  N_34
   14  A    between atoms: N_34  and  C_36
                            x       y       z     vdW  Elec       q    Type
                         _______ _______ _______ _____ _____    ______ ____

>  <TORSDO>
F 14

$$$$
=
 OpenBabel10222421563D

 40 43  0  0  1  0  0  0  0  0999 V2000
  188.1070  178.4430  139.3400 N   0  0  0  0  0  2  0  0  0  0  0  0
  187.8460  177.9520  137.9980 C   0  0  0  0  0  2  0  0  0  0  0  0
  185.7970  176.8100  137.1220 C   0  0  0  0  0  2  0  0  0  0  0  0
  184.1320  178.6550  138.5660 C   0  0  0  0  0  2  0  0  0  0  0  0
  185.6190  178.5630  138.8940 C   0  0  0  0  0  2  0  0  0  0  0  0
  186.3800  178.1200  137.6510 C   0  0  1  0  0  3  0  0  0  0  0  0
  184.2940  176.9730  136.8920 C   0  0  0  0  0  2  0  0  0  0  0  0
  183.6270  177.3460  138.1430 N   0  0  0  0  0  0  0  0  0  0  0  0
  182.2200  177.5280  137.8270 C   0  0  0  0  0  2  0  0  0  0  0  0
  181.4130  176.6650  138.6740 N   0  0  0  0  0  2  0  0  0  0  0  0
  181.4880  178.2800  140.5510 N   0  0  0  0  0  2  0  0  0  0  0  0
  180.1890  176.3020  140.6440 N   0  0  0  0  0  2  0  0  0  0  0  0
  180.9770  177.0740  139.9680 C   0  0  0  0  0  0  0  0  0  0  0  0
  181.1830  178.7070  141.9100 C   0  0  0  0  0  2  0  0  0  0  0  0
  183.6090  178.4870  142.0330 N   0  0  0  0  0  2  0  0  0  0  0  0
  182.4470  179.1430  142.6380 C   0  0  2  0  0  3  0  0  0  0  0  0
  184.8090  178.9440  142.7360 C   0  0  0  0  0  2  0  0  0  0  0  0
  182.3560  178.7850  144.1220 C   0  0  0  0  0  2  0  0  0  0  0  0
  183.6770  179.1350  144.8050 C   0  0  0  0  0  2  0  0  0  0  0  0
  184.7840  178.4700  144.1190 N   0  0  0  0  0  2  0  0  0  0  0  0
  189.3260  177.7940  139.7980 C   0  0  2  0  0  3  0  0  0  0  0  0
  189.7430  176.7160  138.8080 C   0  0  0  0  0  2  0  0  0  0  0  0
  191.1110  177.0150  138.2100 C   0  0  2  0  0  3  0  0  0  0  0  0
  191.5070  175.9530  137.2170 C   0  0  0  0  0  2  0  0  0  0  0  0
  193.3050  176.5290  138.6640 N   0  0  0  0  0  2  0  0  0  0  0  0
  193.8380  175.7360  136.4310 C   0  0  0  0  0  1  0  0  0  0  0  0
  192.1190  176.9970  139.2570 N   0  0  0  0  0  2  0  0  0  0  0  0
  192.9110  175.5960  137.6200 C   0  0  2  0  0  3  0  0  0  0  0  0
  189.0840  177.1850  141.0990 N   0  0  0  0  0  2  0  0  0  0  0  0
  188.8560  178.2530  142.0650 C   0  0  0  0  0  2  0  0  0  0  0  0
  188.4320  177.7030  143.3490 N   0  0  0  0  0  2  0  0  0  0  0  0
  191.5670  176.8160  145.1590 C   0  0  0  0  0  3  0  0  0  0  0  0
  188.8780  177.2980  145.7470 C   0  0  0  0  0  3  0  0  0  0  0  0
  189.3250  177.3710  144.4180 C   0  0  0  0  0  0  0  0  0  0  0  0
  191.1220  176.7410  146.4870 C   0  0  0  0  0  0  0  0  0  0  0  0
  190.6730  177.1300  144.1320 C   0  0  0  0  0  3  0  0  0  0  0  0
  189.7720  176.9850  146.7730 C   0  0  0  0  0  3  0  0  0  0  0  0
  192.2650  177.2880  148.6260 O   0  0  0  0  0  1  0  0  0  0  0  0
  192.0670  176.4060  147.5680 C   0  0  0  0  0  0  0  0  0  0  0  0
  192.7030  175.3180  147.5440 O   0  0  0  0  0  0  0  0  0  0  0  0
  1 21  1  0  0  0  0
  2  1  1  0  0  0  0
  3  6  1  0  0  0  0
  4  5  1  0  0  0  0
  6  2  1  1  0  0  0
  6  5  1  0  0  0  0
  7  3  1  0  0  0  0
  7  8  1  0  0  0  0
  8  4  1  0  0  0  0
  9  8  1  0  0  0  0
  9 10  1  0  0  0  0
 10 13  1  0  0  0  0
 11 14  1  0  0  0  0
 13 11  1  0  0  0  0
 13 12  2  0  0  0  0
 15 16  1  0  0  0  0
 15 17  1  0  0  0  0
 16 14  1  6  0  0  0
 16 18  1  0  0  0  0
 17 20  1  0  0  0  0
 18 19  1  0  0  0  0
 20 19  1  0  0  0  0
 21 22  1  6  0  0  0
 21 29  1  0  0  0  0
 23 22  1  1  0  0  0
 23 27  1  0  0  0  0
 24 28  1  0  0  0  0
 24 23  1  0  0  0  0
 25 27  1  0  0  0  0
 28 26  1  6  0  0  0
 28 25  1  0  0  0  0
 29 30  1  0  0  0  0
 30 31  1  0  0  0  0
 31 34  1  0  0  0  0
 32 35  1  0  0  0  0
 33 37  1  0  0  0  0
 34 33  2  0  0  0  0
 35 37  2  0  0  0  0
 35 39  1  0  0  0  0
 36 34  1  0  0  0  0
 36 32  2  0  0  0  0
 39 38  1  0  0  0  0
 40 39  2  0  0  0  0
M  END
>  <MODEL>
8

>  <REMARK>
 VINA RESULT:      -7.6      1.961      8.913
  Name = 
  14 active torsions:
  status: ('A' for Active; 'I' for Inactive)
    1  A    between atoms: N_1  and  C_21
    2  A    between atoms: N_1  and  C_25
    3  A    between atoms: C_3  and  N_12
    4  A    between atoms: C_3  and  N_38
    5  A    between atoms: C_4  and  C_7
    6  A    between atoms: C_4  and  N_17
    7  A    between atoms: C_6  and  C_9
    8  A    between atoms: C_6  and  C_25
    9  A    between atoms: C_14  and  C_31
   10  A    between atoms: N_16  and  C_23
   11  A    between atoms: N_16  and  C_36
   12  A    between atoms: C_21  and  C_22
   13  A    between atoms: C_25  and  N_34
   14  A    between atoms: N_34  and  C_36
                            x       y       z     vdW  Elec       q    Type
                         _______ _______ _______ _____ _____    ______ ____

>  <TORSDO>
F 14

$$$$
=
 OpenBabel10222421563D

 40 43  0  0  1  0  0  0  0  0999 V2000
  188.0410  176.8520  136.8700 N   0  0  0  0  0  2  0  0  0  0  0  0
  188.4810  178.1860  137.2380 C   0  0  0  0  0  2  0  0  0  0  0  0
  188.5740  177.8330  139.7150 C   0  0  0  0  0  2  0  0  0  0  0  0
  191.2930  176.9250  139.4990 C   0  0  0  0  0  2  0  0  0  0  0  0
  190.4320  177.0400  138.2450 C   0  0  0  0  0  2  0  0  0  0  0  0
  189.3850  178.1260  138.4530 C   0  0  1  0  0  3  0  0  0  0  0  0
  189.5200  177.6610  140.9040 C   0  0  0  0  0  2  0  0  0  0  0  0
  190.4600  176.5650  140.6500 N   0  0  0  0  0  0  0  0  0  0  0  0
  191.3480  176.5020  141.7990 C   0  0  0  0  0  2  0  0  0  0  0  0
  191.5320  177.8360  142.3480 N   0  0  0  0  0  2  0  0  0  0  0  0
  191.1150  177.0440  144.6570 N   0  0  0  0  0  2  0  0  0  0  0  0
  191.7690  179.2710  144.1900 N   0  0  0  0  0  2  0  0  0  0  0  0
  191.5130  178.0810  143.7520 C   0  0  0  0  0  0  0  0  0  0  0  0
  190.9580  177.2470  146.0920 C   0  0  0  0  0  2  0  0  0  0  0  0
  189.1670  177.4020  147.7410 N   0  0  0  0  0  2  0  0  0  0  0  0
  189.5910  177.8390  146.4090 C   0  0  2  0  0  3  0  0  0  0  0  0
  187.8650  178.0060  148.0270 C   0  0  0  0  0  2  0  0  0  0  0  0
  188.5660  177.4000  145.3610 C   0  0  0  0  0  2  0  0  0  0  0  0
  187.1860  177.9190  145.7620 C   0  0  0  0  0  2  0  0  0  0  0  0
  186.8570  177.4680  147.1130 N   0  0  0  0  0  2  0  0  0  0  0  0
  186.6090  176.7930  137.1260 C   0  0  2  0  0  3  0  0  0  0  0  0
  185.9320  175.9090  136.0890 C   0  0  0  0  0  2  0  0  0  0  0  0
  185.5550  174.5560  136.6780 C   0  0  2  0  0  3  0  0  0  0  0  0
  185.5460  173.4910  135.6130 C   0  0  0  0  0  2  0  0  0  0  0  0
  183.6480  173.3360  137.0390 N   0  0  0  0  0  2  0  0  0  0  0  0
  184.4700  171.3010  135.9970 C   0  0  0  0  0  1  0  0  0  0  0  0
  184.2050  174.6150  137.2140 N   0  0  0  0  0  2  0  0  0  0  0  0
  184.2340  172.7880  135.8260 C   0  0  2  0  0  3  0  0  0  0  0  0
  186.0540  178.1370  137.0490 N   0  0  0  0  0  2  0  0  0  0  0  0
  185.0200  178.2610  138.0710 C   0  0  0  0  0  2  0  0  0  0  0  0
  185.5760  178.8210  139.2990 N   0  0  0  0  0  2  0  0  0  0  0  0
  185.0130  179.0650  142.9760 C   0  0  0  0  0  3  0  0  0  0  0  0
  183.5350  178.5330  140.6650 C   0  0  0  0  0  3  0  0  0  0  0  0
  184.9100  178.8000  140.5670 C   0  0  0  0  0  0  0  0  0  0  0  0
  183.6400  178.7960  143.0760 C   0  0  0  0  0  0  0  0  0  0  0  0
  185.6430  179.0670  141.7280 C   0  0  0  0  0  3  0  0  0  0  0  0
  182.9060  178.5320  141.9110 C   0  0  0  0  0  3  0  0  0  0  0  0
  183.6860  179.1540  145.5360 O   0  0  0  0  0  1  0  0  0  0  0  0
  182.9790  178.7910  144.3940 C   0  0  0  0  0  0  0  0  0  0  0  0
  181.7680  178.4590  144.4980 O   0  0  0  0  0  0  0  0  0  0  0  0
  1 21  1  0  0  0  0
  1  2  1  0  0  0  0
  3  7  1  0  0  0  0
  4  8  1  0  0  0  0
  5  6  1  0  0  0  0
  5  4  1  0  0  0  0
  6  2  1  6  0  0  0
  6  3  1  0  0  0  0
  8  7  1  0  0  0  0
  8  9  1  0  0  0  0
  9 10  1  0  0  0  0
 10 13  1  0  0  0  0
 11 14  1  0  0  0  0
 13 12  2  0  0  0  0
 13 11  1  0  0  0  0
 15 17  1  0  0  0  0
 16 14  1  6  0  0  0
 16 15  1  0  0  0  0
 18 19  1  0  0  0  0
 18 16  1  0  0  0  0
 19 20  1  0  0  0  0
 20 17  1  0  0  0  0
 21 22  1  6  0  0  0
 23 22  1  6  0  0  0
 23 27  1  0  0  0  0
 24 28  1  0  0  0  0
 24 23  1  0  0  0  0
 25 27  1  0  0  0  0
 28 26  1  1  0  0  0
 28 25  1  0  0  0  0
 29 21  1  0  0  0  0
 29 30  1  0  0  0  0
 30 31  1  0  0  0  0
 31 34  1  0  0  0  0
 32 35  1  0  0  0  0
 33 37  1  0  0  0  0
 34 33  2  0  0  0  0
 34 36  1  0  0  0  0
 35 39  1  0  0  0  0
 36 32  2  0  0  0  0
 37 35  2  0  0  0  0
 39 40  2  0  0  0  0
 39 38  1  0  0  0  0
M  END
>  <MODEL>
9

>  <REMARK>
 VINA RESULT:      -7.6      3.921      8.041
  Name = 
  14 active torsions:
  status: ('A' for Active; 'I' for Inactive)
    1  A    between atoms: N_1  and  C_21
    2  A    between atoms: N_1  and  C_25
    3  A    between atoms: C_3  and  N_12
    4  A    between atoms: C_3  and  N_38
    5  A    between atoms: C_4  and  C_7
    6  A    between atoms: C_4  and  N_17
    7  A    between atoms: C_6  and  C_9
    8  A    between atoms: C_6  and  C_25
    9  A    between atoms: C_14  and  C_31
   10  A    between atoms: N_16  and  C_23
   11  A    between atoms: N_16  and  C_36
   12  A    between atoms: C_21  and  C_22
   13  A    between atoms: C_25  and  N_34
   14  A    between atoms: N_34  and  C_36
                            x       y       z     vdW  Elec       q    Type
                         _______ _______ _______ _____ _____    ______ ____

>  <TORSDO>
F 14

$$$$
