=
 OpenBabel10222422113D

 29 35  0  0  1  0  0  0  0  0999 V2000
  188.3630  176.7400  143.1200 C   0  0  0  0  0  3  0  0  0  0  0  0
  185.5430  178.6800  138.9490 N   0  0  0  0  0  0  0  0  0  0  0  0
  183.1430  178.1960  139.1290 C   0  0  0  0  0  0  0  0  0  0  0  0
  181.5260  176.8690  139.7180 O   0  0  0  0  0  0  0  0  0  0  0  0
  184.2790  178.9910  139.6310 C   0  0  1  0  0  3  0  0  0  0  0  0
  189.8820  177.4860  140.3210 C   0  0  1  0  0  3  0  0  0  0  0  0
  181.3530  177.1920  138.4410 C   0  0  0  0  0  3  0  0  0  0  0  0
  189.3420  175.6850  143.0830 N   0  0  0  0  0  0  0  0  0  0  0  0
  186.6510  178.6130  139.6340 C   0  0  0  0  0  0  0  0  0  0  0  0
  188.7720  177.7000  142.3040 C   0  0  1  0  0  3  0  0  0  0  0  0
  188.6960  178.3480  140.1420 C   0  0  2  0  0  3  0  0  0  0  0  0
  189.9130  177.1760  141.6200 C   0  0  1  0  0  3  0  0  0  0  0  0
  185.5940  178.5670  141.8140 C   0  0  0  0  0  0  0  0  0  0  0  0
  184.3190  178.4670  141.0660 C   0  0  2  0  0  3  0  0  0  0  0  0
  183.3340  177.5960  141.3520 C   0  0  0  0  0  2  0  0  0  0  0  0
  182.3630  178.0700  138.0050 C   0  0  0  0  0  3  0  0  0  0  0  0
  190.2220  175.9170  142.1890 N   0  0  0  0  0  2  0  0  0  0  0  0
  188.0330  178.4940  141.3360 C   0  0  1  0  0  3  0  0  0  0  0  0
  182.5960  177.4970  140.1100 C   0  0  0  0  0  0  0  0  0  0  0  0
  186.6940  178.6290  141.0310 C   0  0  0  0  0  0  0  0  0  0  0  0
  187.8610  178.3760  139.0790 N   0  0  0  0  0  2  0  0  0  0  0  0
  186.0210  177.4330  144.0120 C   0  0  0  0  0  3  0  0  0  0  0  0
  185.6430  178.5800  143.2970 C   0  0  0  0  0  0  0  0  0  0  0  0
  185.2900  179.7390  145.4080 C   0  0  0  0  0  3  0  0  0  0  0  0
  185.6820  178.5940  146.1070 C   0  0  0  0  0  3  0  0  0  0  0  0
  185.2670  179.7300  144.0100 C   0  0  0  0  0  3  0  0  0  0  0  0
  186.0450  177.4410  145.4080 C   0  0  0  0  0  3  0  0  0  0  0  0
  191.9110  176.9340  139.0740 C   0  0  0  0  0  2  0  0  0  0  0  0
  190.6130  176.7550  139.2770 C   0  0  0  0  0  3  0  0  0  0  0  0
  2  9  2  0  0  0  0
  3  5  1  0  0  0  0
  3 19  2  0  0  0  0
  4 19  1  0  0  0  0
  5  2  1  6  0  0  0
  5 14  1  0  0  0  0
  6 29  1  6  0  0  0
  6 12  1  0  0  0  0
  7  4  1  0  0  0  0
  8  1  2  0  0  0  0
  9 20  1  0  0  0  0
 10  1  1  6  0  0  0
 11 21  1  6  0  0  0
 11  6  1  0  0  0  0
 11 18  1  0  0  0  0
 12 17  1  6  0  0  0
 12 10  1  0  0  0  0
 13 23  1  0  0  0  0
 14 15  1  6  0  0  0
 14 13  1  0  0  0  0
 16  7  2  0  0  0  0
 16  3  1  0  0  0  0
 17  8  1  0  0  0  0
 18 20  1  6  0  0  0
 18 10  1  0  0  0  0
 19 15  1  0  0  0  0
 20 13  2  0  0  0  0
 21  9  1  0  0  0  0
 22 27  1  0  0  0  0
 23 26  1  0  0  0  0
 23 22  2  0  0  0  0
 24 25  1  0  0  0  0
 26 24  2  0  0  0  0
 27 25  2  0  0  0  0
 28 29  2  0  0  0  0
M  END
>  <MODEL>
1

>  <REMARK>
 VINA RESULT:      -8.8      0.000      0.000
  Name = 
  2 active torsions:
  status: ('A' for Active; 'I' for Inactive)
    1  A    between atoms: C_7  and  C_27
    2  A    between atoms: C_11  and  C_18
                            x       y       z     vdW  Elec       q    Type
                         _______ _______ _______ _____ _____    ______ ____

>  <TORSDO>
F 2

$$$$
=
 OpenBabel10222422113D

 29 35  0  0  1  0  0  0  0  0999 V2000
  187.0900  177.1200  143.2550 C   0  0  0  0  0  3  0  0  0  0  0  0
  185.4820  178.5470  138.3050 N   0  0  0  0  0  0  0  0  0  0  0  0
  183.1260  177.9980  137.8870 C   0  0  0  0  0  0  0  0  0  0  0  0
  181.4210  176.6770  138.1550 O   0  0  0  0  0  0  0  0  0  0  0  0
  184.0780  178.8770  138.5890 C   0  0  1  0  0  3  0  0  0  0  0  0
  189.3000  177.6450  140.9020 C   0  0  1  0  0  3  0  0  0  0  0  0
  181.5960  176.8690  136.8520 C   0  0  0  0  0  3  0  0  0  0  0  0
  188.0510  176.1020  143.5880 N   0  0  0  0  0  0  0  0  0  0  0  0
  186.3650  178.5860  139.2650 C   0  0  0  0  0  0  0  0  0  0  0  0
  187.6960  178.0110  142.4830 C   0  0  1  0  0  3  0  0  0  0  0  0
  188.1990  178.4430  140.3250 C   0  0  2  0  0  3  0  0  0  0  0  0
  188.9830  177.4630  142.1860 C   0  0  1  0  0  3  0  0  0  0  0  0
  184.7600  178.7130  141.0760 C   0  0  0  0  0  0  0  0  0  0  0  0
  183.7340  178.4960  140.0280 C   0  0  2  0  0  3  0  0  0  0  0  0
  182.7170  177.6220  140.1290 C   0  0  0  0  0  2  0  0  0  0  0  0
  182.6780  177.7360  136.6140 C   0  0  0  0  0  3  0  0  0  0  0  0
  189.1380  176.2770  142.9430 N   0  0  0  0  0  2  0  0  0  0  0  0
  187.2380  178.6810  141.2770 C   0  0  1  0  0  3  0  0  0  0  0  0
  182.3410  177.3770  138.7520 C   0  0  0  0  0  0  0  0  0  0  0  0
  186.0290  178.7380  140.6140 C   0  0  0  0  0  0  0  0  0  0  0  0
  187.6820  178.3390  139.0810 N   0  0  0  0  0  2  0  0  0  0  0  0
  183.2570  178.2620  143.0340 C   0  0  0  0  0  3  0  0  0  0  0  0
  184.4070  178.8700  142.5090 C   0  0  0  0  0  0  0  0  0  0  0  0
  184.8560  179.8370  144.6970 C   0  0  0  0  0  3  0  0  0  0  0  0
  183.7160  179.2150  145.2100 C   0  0  0  0  0  3  0  0  0  0  0  0
  185.1980  179.6690  143.3510 C   0  0  0  0  0  3  0  0  0  0  0  0
  182.9150  178.4290  144.3780 C   0  0  0  0  0  3  0  0  0  0  0  0
  191.5580  177.2220  140.0640 C   0  0  0  0  0  2  0  0  0  0  0  0
  190.2920  176.8440  140.1720 C   0  0  0  0  0  3  0  0  0  0  0  0
  1  8  2  0  0  0  0
  2  5  1  0  0  0  0
  2  9  2  0  0  0  0
  3 19  2  0  0  0  0
  4 19  1  0  0  0  0
  5  3  1  6  0  0  0
  5 14  1  0  0  0  0
  6 29  1  6  0  0  0
  6 12  1  0  0  0  0
  7  4  1  0  0  0  0
  9 20  1  0  0  0  0
 10  1  1  6  0  0  0
 11 21  1  6  0  0  0
 11  6  1  0  0  0  0
 11 18  1  0  0  0  0
 12 10  1  0  0  0  0
 12 17  1  6  0  0  0
 13 23  1  0  0  0  0
 14 15  1  6  0  0  0
 14 13  1  0  0  0  0
 16  7  2  0  0  0  0
 16  3  1  0  0  0  0
 17  8  1  0  0  0  0
 18 20  1  6  0  0  0
 18 10  1  0  0  0  0
 19 15  1  0  0  0  0
 20 13  2  0  0  0  0
 21  9  1  0  0  0  0
 22 27  1  0  0  0  0
 23 22  2  0  0  0  0
 23 26  1  0  0  0  0
 24 25  1  0  0  0  0
 26 24  2  0  0  0  0
 27 25  2  0  0  0  0
 28 29  2  0  0  0  0
M  END
>  <MODEL>
2

>  <REMARK>
 VINA RESULT:      -8.2      1.141      1.432
  Name = 
  2 active torsions:
  status: ('A' for Active; 'I' for Inactive)
    1  A    between atoms: C_7  and  C_27
    2  A    between atoms: C_11  and  C_18
                            x       y       z     vdW  Elec       q    Type
                         _______ _______ _______ _____ _____    ______ ____

>  <TORSDO>
F 2

$$$$
=
 OpenBabel10222422113D

 29 35  0  0  1  0  0  0  0  0999 V2000
  185.6350  176.3080  137.2960 C   0  0  0  0  0  3  0  0  0  0  0  0
  187.2320  178.7480  141.8370 N   0  0  0  0  0  0  0  0  0  0  0  0
  189.3300  177.8240  142.7130 C   0  0  0  0  0  0  0  0  0  0  0  0
  190.6450  176.1290  143.0580 O   0  0  0  0  0  0  0  0  0  0  0  0
  188.6880  178.6460  141.6710 C   0  0  1  0  0  3  0  0  0  0  0  0
  183.4890  178.0110  139.0820 C   0  0  1  0  0  3  0  0  0  0  0  0
  190.4420  176.7390  144.2200 C   0  0  0  0  0  3  0  0  0  0  0  0
  184.4650  175.4870  137.1250 N   0  0  0  0  0  0  0  0  0  0  0  0
  186.4540  178.6990  140.7900 C   0  0  0  0  0  0  0  0  0  0  0  0
  185.2330  177.5040  137.7010 C   0  0  1  0  0  3  0  0  0  0  0  0
  184.7200  178.6700  139.5660 C   0  0  2  0  0  3  0  0  0  0  0  0
  183.8310  177.3830  137.9550 C   0  0  1  0  0  3  0  0  0  0  0  0
  188.1510  177.9020  139.2550 C   0  0  0  0  0  0  0  0  0  0  0  0
  189.0140  177.7810  140.4540 C   0  0  2  0  0  3  0  0  0  0  0  0
  189.7730  176.7070  140.7400 C   0  0  0  0  0  2  0  0  0  0  0  0
  189.6100  177.8620  144.0580 C   0  0  0  0  0  3  0  0  0  0  0  0
  183.4220  176.0930  137.5390 N   0  0  0  0  0  2  0  0  0  0  0  0
  185.7690  178.3820  138.7280 C   0  0  1  0  0  3  0  0  0  0  0  0
  189.9810  176.8090  142.1700 C   0  0  0  0  0  0  0  0  0  0  0  0
  186.9050  178.3570  139.5120 C   0  0  0  0  0  0  0  0  0  0  0  0
  185.1090  178.8290  140.8500 N   0  0  0  0  0  2  0  0  0  0  0  0
  189.0000  176.2160  137.6020 C   0  0  0  0  0  3  0  0  0  0  0  0
  188.6260  177.5350  137.8980 C   0  0  0  0  0  0  0  0  0  0  0  0
  189.2180  178.1780  135.6270 C   0  0  0  0  0  3  0  0  0  0  0  0
  189.5740  176.8580  135.3410 C   0  0  0  0  0  3  0  0  0  0  0  0
  188.7510  178.5160  136.9000 C   0  0  0  0  0  3  0  0  0  0  0  0
  189.4670  175.8770  136.3290 C   0  0  0  0  0  3  0  0  0  0  0  0
  181.4870  178.6770  140.3190 C   0  0  0  0  0  2  0  0  0  0  0  0
  182.2770  177.7170  139.8590 C   0  0  0  0  0  3  0  0  0  0  0  0
  3 16  1  0  0  0  0
  4  7  1  0  0  0  0
  5  2  1  1  0  0  0
  5  3  1  0  0  0  0
  6 11  1  0  0  0  0
  6 29  1  1  0  0  0
  8  1  2  0  0  0  0
  8 17  1  0  0  0  0
  9 21  1  0  0  0  0
  9  2  2  0  0  0  0
 10  1  1  1  0  0  0
 10 12  1  0  0  0  0
 10 18  1  0  0  0  0
 11 21  1  1  0  0  0
 12 17  1  1  0  0  0
 12  6  1  0  0  0  0
 13 20  2  0  0  0  0
 13 14  1  0  0  0  0
 14 15  1  1  0  0  0
 14  5  1  0  0  0  0
 15 19  1  0  0  0  0
 16  7  2  0  0  0  0
 18 20  1  1  0  0  0
 18 11  1  0  0  0  0
 19  3  2  0  0  0  0
 19  4  1  0  0  0  0
 20  9  1  0  0  0  0
 22 23  1  0  0  0  0
 23 13  1  0  0  0  0
 24 26  1  0  0  0  0
 25 24  2  0  0  0  0
 25 27  1  0  0  0  0
 26 23  2  0  0  0  0
 27 22  2  0  0  0  0
 29 28  2  0  0  0  0
M  END
>  <MODEL>
3

>  <REMARK>
 VINA RESULT:      -8.0      2.990      7.302
  Name = 
  2 active torsions:
  status: ('A' for Active; 'I' for Inactive)
    1  A    between atoms: C_7  and  C_27
    2  A    between atoms: C_11  and  C_18
                            x       y       z     vdW  Elec       q    Type
                         _______ _______ _______ _____ _____    ______ ____

>  <TORSDO>
F 2

$$$$
=
 OpenBabel10222422113D

 29 35  0  0  1  0  0  0  0  0999 V2000
  185.9870  176.2300  137.2670 C   0  0  0  0  0  3  0  0  0  0  0  0
  184.5970  179.0040  141.6820 N   0  0  0  0  0  0  0  0  0  0  0  0
  186.0660  178.5340  143.5900 C   0  0  0  0  0  0  0  0  0  0  0  0
  187.2780  177.1430  144.7400 O   0  0  0  0  0  0  0  0  0  0  0  0
  185.9250  179.1950  142.2800 C   0  0  1  0  0  3  0  0  0  0  0  0
  182.9810  177.4900  137.5300 C   0  0  1  0  0  3  0  0  0  0  0  0
  186.4090  177.7160  145.5650 C   0  0  0  0  0  3  0  0  0  0  0  0
  185.2270  175.1870  136.6290 N   0  0  0  0  0  0  0  0  0  0  0  0
  184.4870  178.7850  140.4000 C   0  0  0  0  0  0  0  0  0  0  0  0
  185.2430  177.3260  137.2760 C   0  0  1  0  0  3  0  0  0  0  0  0
  183.6600  178.3900  138.4850 C   0  0  2  0  0  3  0  0  0  0  0  0
  183.9520  176.9280  136.8060 C   0  0  1  0  0  3  0  0  0  0  0  0
  186.8360  178.3250  140.0240 C   0  0  0  0  0  0  0  0  0  0  0  0
  186.9680  178.3960  141.4990 C   0  0  2  0  0  3  0  0  0  0  0  0
  187.6380  177.5020  142.2480 C   0  0  0  0  0  2  0  0  0  0  0  0
  185.6050  178.6460  144.8800 C   0  0  0  0  0  3  0  0  0  0  0  0
  184.0350  175.5770  136.3930 N   0  0  0  0  0  2  0  0  0  0  0  0
  185.0210  178.3080  138.3250 C   0  0  1  0  0  3  0  0  0  0  0  0
  187.0630  177.6630  143.5670 C   0  0  0  0  0  0  0  0  0  0  0  0
  185.5800  178.5230  139.5680 C   0  0  0  0  0  0  0  0  0  0  0  0
  183.3020  178.6420  139.7630 N   0  0  0  0  0  2  0  0  0  0  0  0
  188.2790  178.8750  138.0460 C   0  0  0  0  0  3  0  0  0  0  0  0
  187.9940  178.0430  139.1390 C   0  0  0  0  0  0  0  0  0  0  0  0
  189.8740  176.6300  138.5130 C   0  0  0  0  0  3  0  0  0  0  0  0
  190.1560  177.4740  137.4370 C   0  0  0  0  0  3  0  0  0  0  0  0
  188.7960  176.9100  139.3580 C   0  0  0  0  0  3  0  0  0  0  0  0
  189.3570  178.5950  137.2020 C   0  0  0  0  0  3  0  0  0  0  0  0
  181.2570  176.0860  138.5480 C   0  0  0  0  0  2  0  0  0  0  0  0
  181.6110  176.9680  137.6240 C   0  0  0  0  0  3  0  0  0  0  0  0
  3 16  1  0  0  0  0
  4  7  1  0  0  0  0
  5  2  1  6  0  0  0
  5  3  1  0  0  0  0
  6 29  1  1  0  0  0
  6 11  1  0  0  0  0
  8  1  2  0  0  0  0
  9  2  2  0  0  0  0
 10  1  1  1  0  0  0
 10 18  1  0  0  0  0
 11 21  1  1  0  0  0
 12 17  1  1  0  0  0
 12 10  1  0  0  0  0
 12  6  1  0  0  0  0
 13 14  1  0  0  0  0
 14 15  1  1  0  0  0
 14  5  1  0  0  0  0
 15 19  1  0  0  0  0
 16  7  2  0  0  0  0
 17  8  1  0  0  0  0
 18 11  1  0  0  0  0
 18 20  1  1  0  0  0
 19  3  2  0  0  0  0
 19  4  1  0  0  0  0
 20 13  2  0  0  0  0
 20  9  1  0  0  0  0
 21  9  1  0  0  0  0
 22 23  1  0  0  0  0
 23 26  2  0  0  0  0
 23 13  1  0  0  0  0
 24 26  1  0  0  0  0
 25 24  2  0  0  0  0
 27 25  1  0  0  0  0
 27 22  2  0  0  0  0
 29 28  2  0  0  0  0
M  END
>  <MODEL>
4

>  <REMARK>
 VINA RESULT:      -7.7      2.618      6.599
  Name = 
  2 active torsions:
  status: ('A' for Active; 'I' for Inactive)
    1  A    between atoms: C_7  and  C_27
    2  A    between atoms: C_11  and  C_18
                            x       y       z     vdW  Elec       q    Type
                         _______ _______ _______ _____ _____    ______ ____

>  <TORSDO>
F 2

$$$$
=
 OpenBabel10222422113D

 29 35  0  0  1  0  0  0  0  0999 V2000
  183.0030  176.1510  138.5290 C   0  0  0  0  0  3  0  0  0  0  0  0
  187.7200  178.6460  139.3340 N   0  0  0  0  0  0  0  0  0  0  0  0
  189.6350  177.2990  138.5980 C   0  0  0  0  0  0  0  0  0  0  0  0
  190.5990  175.3660  138.3560 O   0  0  0  0  0  0  0  0  0  0  0  0
  188.4760  178.1150  138.1920 C   0  0  1  0  0  3  0  0  0  0  0  0
  183.2070  178.6200  140.6640 C   0  0  1  0  0  3  0  0  0  0  0  0
  191.4290  176.1640  139.0180 C   0  0  0  0  0  3  0  0  0  0  0  0
  182.0960  175.6770  139.5410 N   0  0  0  0  0  0  0  0  0  0  0  0
  186.4160  178.6740  139.2930 C   0  0  0  0  0  0  0  0  0  0  0  0
  183.1560  177.4560  138.7020 C   0  0  1  0  0  3  0  0  0  0  0  0
  184.3860  178.9660  139.8450 C   0  0  2  0  0  3  0  0  0  0  0  0
  182.4870  177.7710  139.9260 C   0  0  1  0  0  3  0  0  0  0  0  0
  186.1960  177.2250  137.3630 C   0  0  0  0  0  0  0  0  0  0  0  0
  187.6610  177.0330  137.4850 C   0  0  2  0  0  3  0  0  0  0  0  0
  188.2790  175.8400  137.4270 C   0  0  0  0  0  2  0  0  0  0  0  0
  190.8670  177.4420  139.1890 C   0  0  0  0  0  3  0  0  0  0  0  0
  181.8220  176.6050  140.3730 N   0  0  0  0  0  2  0  0  0  0  0  0
  184.3520  178.2810  138.6550 C   0  0  1  0  0  3  0  0  0  0  0  0
  189.5380  176.0760  138.1020 C   0  0  0  0  0  0  0  0  0  0  0  0
  185.6640  178.0440  138.2960 C   0  0  0  0  0  0  0  0  0  0  0  0
  185.6460  179.1850  140.2810 N   0  0  0  0  0  2  0  0  0  0  0  0
  184.7330  177.3070  135.3260 C   0  0  0  0  0  3  0  0  0  0  0  0
  185.3950  176.5550  136.3090 C   0  0  0  0  0  0  0  0  0  0  0  0
  184.4800  174.5250  135.3270 C   0  0  0  0  0  3  0  0  0  0  0  0
  183.8370  175.2840  134.3460 C   0  0  0  0  0  3  0  0  0  0  0  0
  185.2520  175.1580  136.3060 C   0  0  0  0  0  3  0  0  0  0  0  0
  183.9620  176.6750  134.3470 C   0  0  0  0  0  3  0  0  0  0  0  0
  183.9970  178.4170  142.9690 C   0  0  0  0  0  2  0  0  0  0  0  0
  183.0540  178.7910  142.1160 C   0  0  0  0  0  3  0  0  0  0  0  0
  1  8  2  0  0  0  0
  3 16  1  0  0  0  0
  4  7  1  0  0  0  0
  5  3  1  1  0  0  0
  5  2  1  0  0  0  0
  6 29  1  1  0  0  0
  7 16  2  0  0  0  0
  8 17  1  0  0  0  0
  9  2  2  0  0  0  0
  9 21  1  0  0  0  0
 10  1  1  1  0  0  0
 10 12  1  0  0  0  0
 11 21  1  1  0  0  0
 11  6  1  0  0  0  0
 12 17  1  1  0  0  0
 12  6  1  0  0  0  0
 13 14  1  0  0  0  0
 13 20  2  0  0  0  0
 14 15  1  1  0  0  0
 14  5  1  0  0  0  0
 15 19  1  0  0  0  0
 18 20  1  1  0  0  0
 18 10  1  0  0  0  0
 18 11  1  0  0  0  0
 19  4  1  0  0  0  0
 19  3  2  0  0  0  0
 20  9  1  0  0  0  0
 22 23  1  0  0  0  0
 23 13  1  0  0  0  0
 24 26  1  0  0  0  0
 25 27  1  0  0  0  0
 25 24  2  0  0  0  0
 26 23  2  0  0  0  0
 27 22  2  0  0  0  0
 29 28  2  0  0  0  0
M  END
>  <MODEL>
5

>  <REMARK>
 VINA RESULT:      -7.3      3.183      7.522
  Name = 
  2 active torsions:
  status: ('A' for Active; 'I' for Inactive)
    1  A    between atoms: C_7  and  C_27
    2  A    between atoms: C_11  and  C_18
                            x       y       z     vdW  Elec       q    Type
                         _______ _______ _______ _____ _____    ______ ____

>  <TORSDO>
F 2

$$$$
=
 OpenBabel10222422113D

 29 35  0  0  1  0  0  0  0  0999 V2000
  186.7910  174.8180  135.8520 C   0  0  0  0  0  3  0  0  0  0  0  0
  187.3750  178.4150  139.8320 N   0  0  0  0  0  0  0  0  0  0  0  0
  189.3310  177.9500  141.2410 C   0  0  0  0  0  0  0  0  0  0  0  0
  190.6630  176.5320  142.2090 O   0  0  0  0  0  0  0  0  0  0  0  0
  188.8410  178.4300  139.9360 C   0  0  1  0  0  3  0  0  0  0  0  0
  184.2530  176.6600  136.7820 C   0  0  1  0  0  3  0  0  0  0  0  0
  190.2130  177.3750  143.1320 C   0  0  0  0  0  3  0  0  0  0  0  0
  185.7260  173.8610  135.7060 N   0  0  0  0  0  0  0  0  0  0  0  0
  186.8070  178.0390  138.7200 C   0  0  0  0  0  0  0  0  0  0  0  0
  186.2480  176.0270  135.8740 C   0  0  1  0  0  3  0  0  0  0  0  0
  185.3310  177.5400  137.2770 C   0  0  2  0  0  3  0  0  0  0  0  0
  184.8340  175.8230  135.9190 C   0  0  1  0  0  3  0  0  0  0  0  0
  188.8030  177.0850  137.7310 C   0  0  0  0  0  0  0  0  0  0  0  0
  189.4370  177.3410  139.0450 C   0  0  2  0  0  3  0  0  0  0  0  0
  190.1960  176.4520  139.7110 C   0  0  0  0  0  2  0  0  0  0  0  0
  189.3560  178.3340  142.5610 C   0  0  0  0  0  3  0  0  0  0  0  0
  184.5890  174.4360  135.7800 N   0  0  0  0  0  2  0  0  0  0  0  0
  186.5320  177.1740  136.7210 C   0  0  1  0  0  3  0  0  0  0  0  0
  190.1320  176.9090  141.0830 C   0  0  0  0  0  0  0  0  0  0  0  0
  187.5050  177.4540  137.6590 C   0  0  0  0  0  0  0  0  0  0  0  0
  185.4680  178.0370  138.5260 N   0  0  0  0  0  2  0  0  0  0  0  0
  190.0960  175.1780  136.7360 C   0  0  0  0  0  3  0  0  0  0  0  0
  189.5400  176.4600  136.6050 C   0  0  0  0  0  0  0  0  0  0  0  0
  190.4420  176.5850  134.3480 C   0  0  0  0  0  3  0  0  0  0  0  0
  190.9790  175.3030  134.4860 C   0  0  0  0  0  3  0  0  0  0  0  0
  189.7290  177.1620  135.4030 C   0  0  0  0  0  3  0  0  0  0  0  0
  190.8080  174.6010  135.6820 C   0  0  0  0  0  3  0  0  0  0  0  0
  182.7920  175.6630  138.4700 C   0  0  0  0  0  2  0  0  0  0  0  0
  182.9400  176.4320  137.4000 C   0  0  0  0  0  3  0  0  0  0  0  0
  3 16  1  0  0  0  0
  4  7  1  0  0  0  0
  5  2  1  1  0  0  0
  5  3  1  0  0  0  0
  6 11  1  0  0  0  0
  6 29  1  1  0  0  0
  8 17  1  0  0  0  0
  8  1  2  0  0  0  0
  9  2  2  0  0  0  0
 10  1  1  1  0  0  0
 10 12  1  0  0  0  0
 10 18  1  0  0  0  0
 11 21  1  1  0  0  0
 12 17  1  1  0  0  0
 12  6  1  0  0  0  0
 13 14  1  0  0  0  0
 14 15  1  1  0  0  0
 14  5  1  0  0  0  0
 15 19  1  0  0  0  0
 16  7  2  0  0  0  0
 18 11  1  0  0  0  0
 18 20  1  1  0  0  0
 19  3  2  0  0  0  0
 19  4  1  0  0  0  0
 20 13  2  0  0  0  0
 20  9  1  0  0  0  0
 21  9  1  0  0  0  0
 23 22  1  0  0  0  0
 23 13  1  0  0  0  0
 24 25  2  0  0  0  0
 24 26  1  0  0  0  0
 25 27  1  0  0  0  0
 26 23  2  0  0  0  0
 27 22  2  0  0  0  0
 29 28  2  0  0  0  0
M  END
>  <MODEL>
6

>  <REMARK>
 VINA RESULT:      -7.3      3.587      7.813
  Name = 
  2 active torsions:
  status: ('A' for Active; 'I' for Inactive)
    1  A    between atoms: C_7  and  C_27
    2  A    between atoms: C_11  and  C_18
                            x       y       z     vdW  Elec       q    Type
                         _______ _______ _______ _____ _____    ______ ____

>  <TORSDO>
F 2

$$$$
=
 OpenBabel10222422113D

 29 35  0  0  1  0  0  0  0  0999 V2000
  188.8690  175.0880  136.4330 C   0  0  0  0  0  3  0  0  0  0  0  0
  188.1210  178.4980  140.5490 N   0  0  0  0  0  0  0  0  0  0  0  0
  189.1820  177.7190  142.6210 C   0  0  0  0  0  0  0  0  0  0  0  0
  189.7560  176.1000  143.9520 O   0  0  0  0  0  0  0  0  0  0  0  0
  189.3810  178.2860  141.2750 C   0  0  1  0  0  3  0  0  0  0  0  0
  186.4480  177.2840  136.3220 C   0  0  1  0  0  3  0  0  0  0  0  0
  189.0630  176.9890  144.6550 C   0  0  0  0  0  3  0  0  0  0  0  0
  187.8600  174.3080  135.7670 N   0  0  0  0  0  0  0  0  0  0  0  0
  188.0530  178.2290  139.2740 C   0  0  0  0  0  0  0  0  0  0  0  0
  188.5370  176.3650  136.3150 C   0  0  1  0  0  3  0  0  0  0  0  0
  187.3060  177.9810  137.3020 C   0  0  2  0  0  3  0  0  0  0  0  0
  187.2320  176.3800  135.7300 C   0  0  1  0  0  3  0  0  0  0  0  0
  190.1350  176.9930  139.1690 C   0  0  0  0  0  0  0  0  0  0  0  0
  190.1580  177.1310  140.6440 C   0  0  2  0  0  3  0  0  0  0  0  0
  190.4230  176.1270  141.4990 C   0  0  0  0  0  2  0  0  0  0  0  0
  188.6780  178.0760  143.8490 C   0  0  0  0  0  3  0  0  0  0  0  0
  186.8920  175.0490  135.3890 N   0  0  0  0  0  2  0  0  0  0  0  0
  188.5700  177.4440  137.2900 C   0  0  1  0  0  3  0  0  0  0  0  0
  189.8270  176.5700  142.7410 C   0  0  0  0  0  0  0  0  0  0  0  0
  189.0610  177.5580  138.5740 C   0  0  0  0  0  0  0  0  0  0  0  0
  186.9470  178.4350  138.5230 N   0  0  0  0  0  2  0  0  0  0  0  0
  191.0350  174.9370  138.0460 C   0  0  0  0  0  3  0  0  0  0  0  0
  191.2010  176.2780  138.4240 C   0  0  0  0  0  0  0  0  0  0  0  0
  193.4280  176.2450  137.4430 C   0  0  0  0  0  3  0  0  0  0  0  0
  193.2440  174.9140  137.0600 C   0  0  0  0  0  3  0  0  0  0  0  0
  192.4130  176.9220  138.1250 C   0  0  0  0  0  3  0  0  0  0  0  0
  192.0480  174.2600  137.3630 C   0  0  0  0  0  3  0  0  0  0  0  0
  184.2750  176.5870  137.1990 C   0  0  0  0  0  2  0  0  0  0  0  0
  184.9790  177.2520  136.2940 C   0  0  0  0  0  3  0  0  0  0  0  0
  3 19  2  0  0  0  0
  3 16  1  0  0  0  0
  4  7  1  0  0  0  0
  5  2  1  6  0  0  0
  5  3  1  0  0  0  0
  6 29  1  1  0  0  0
  6 11  1  0  0  0  0
  8  1  2  0  0  0  0
  9  2  2  0  0  0  0
 10  1  1  1  0  0  0
 10 18  1  0  0  0  0
 11 21  1  1  0  0  0
 12 17  1  1  0  0  0
 12 10  1  0  0  0  0
 12  6  1  0  0  0  0
 13 14  1  0  0  0  0
 14  5  1  0  0  0  0
 14 15  1  1  0  0  0
 15 19  1  0  0  0  0
 16  7  2  0  0  0  0
 17  8  1  0  0  0  0
 18 11  1  0  0  0  0
 18 20  1  1  0  0  0
 19  4  1  0  0  0  0
 20 13  2  0  0  0  0
 20  9  1  0  0  0  0
 21  9  1  0  0  0  0
 22 23  1  0  0  0  0
 23 13  1  0  0  0  0
 24 26  1  0  0  0  0
 25 27  1  0  0  0  0
 25 24  2  0  0  0  0
 26 23  2  0  0  0  0
 27 22  2  0  0  0  0
 29 28  2  0  0  0  0
M  END
>  <MODEL>
7

>  <REMARK>
 VINA RESULT:      -7.1      3.239      7.354
  Name = 
  2 active torsions:
  status: ('A' for Active; 'I' for Inactive)
    1  A    between atoms: C_7  and  C_27
    2  A    between atoms: C_11  and  C_18
                            x       y       z     vdW  Elec       q    Type
                         _______ _______ _______ _____ _____    ______ ____

>  <TORSDO>
F 2

$$$$
=
 OpenBabel10222422113D

 29 35  0  0  1  0  0  0  0  0999 V2000
  184.2770  178.4140  141.5970 C   0  0  0  0  0  3  0  0  0  0  0  0
  185.7110  176.7030  136.6840 N   0  0  0  0  0  0  0  0  0  0  0  0
  183.9820  175.3180  135.6280 C   0  0  0  0  0  0  0  0  0  0  0  0
  182.4020  173.8320  135.7800 O   0  0  0  0  0  0  0  0  0  0  0  0
  184.3910  176.6730  136.0400 C   0  0  1  0  0  3  0  0  0  0  0  0
  187.4280  178.4020  140.7210 C   0  0  1  0  0  3  0  0  0  0  0  0
  183.2740  173.4180  134.8680 C   0  0  0  0  0  3  0  0  0  0  0  0
  184.8800  178.0390  142.8490 N   0  0  0  0  0  0  0  0  0  0  0  0
  185.9110  177.4710  137.7190 C   0  0  0  0  0  0  0  0  0  0  0  0
  185.2190  178.9610  140.8430 C   0  0  1  0  0  3  0  0  0  0  0  0
  186.8430  178.4360  139.3650 C   0  0  2  0  0  3  0  0  0  0  0  0
  186.4480  178.7710  141.5490 C   0  0  1  0  0  3  0  0  0  0  0  0
  183.5710  177.9450  138.1340 C   0  0  0  0  0  0  0  0  0  0  0  0
  183.3000  176.9450  137.0750 C   0  0  2  0  0  3  0  0  0  0  0  0
  182.3900  175.9590  137.1740 C   0  0  0  0  0  2  0  0  0  0  0  0
  184.3150  174.3520  134.7090 C   0  0  0  0  0  3  0  0  0  0  0  0
  186.1430  178.2110  142.8130 N   0  0  0  0  0  2  0  0  0  0  0  0
  185.5180  178.7880  139.4310 C   0  0  1  0  0  3  0  0  0  0  0  0
  182.8410  174.9800  136.2080 C   0  0  0  0  0  0  0  0  0  0  0  0
  184.8830  178.1400  138.3910 C   0  0  0  0  0  0  0  0  0  0  0  0
  187.1050  177.5910  138.3430 N   0  0  0  0  0  2  0  0  0  0  0  0
  181.6920  177.9810  139.7970 C   0  0  0  0  0  3  0  0  0  0  0  0
  182.4820  178.6530  138.8520 C   0  0  0  0  0  0  0  0  0  0  0  0
  181.1580  180.6610  139.2210 C   0  0  0  0  0  3  0  0  0  0  0  0
  180.3880  179.9840  140.1700 C   0  0  0  0  0  3  0  0  0  0  0  0
  182.1970  179.9980  138.5620 C   0  0  0  0  0  3  0  0  0  0  0  0
  180.6540  178.6440  140.4560 C   0  0  0  0  0  3  0  0  0  0  0  0
  189.7340  177.6630  140.3810 C   0  0  0  0  0  2  0  0  0  0  0  0
  188.6500  177.7030  141.1430 C   0  0  0  0  0  3  0  0  0  0  0  0
  1  8  2  0  0  0  0
  2  9  2  0  0  0  0
  3 19  2  0  0  0  0
  4 19  1  0  0  0  0
  5  3  1  1  0  0  0
  5  2  1  0  0  0  0
  5 14  1  0  0  0  0
  6 29  1  1  0  0  0
  6 12  1  0  0  0  0
  7  4  1  0  0  0  0
  9 21  1  0  0  0  0
  9 20  1  0  0  0  0
 10 12  1  0  0  0  0
 10  1  1  1  0  0  0
 11 21  1  1  0  0  0
 11 18  1  0  0  0  0
 11  6  1  0  0  0  0
 12 17  1  1  0  0  0
 13 20  2  0  0  0  0
 13 23  1  0  0  0  0
 14 15  1  1  0  0  0
 14 13  1  0  0  0  0
 16  7  2  0  0  0  0
 16  3  1  0  0  0  0
 17  8  1  0  0  0  0
 18 20  1  1  0  0  0
 18 10  1  0  0  0  0
 19 15  1  0  0  0  0
 22 27  1  0  0  0  0
 23 22  2  0  0  0  0
 24 25  1  0  0  0  0
 25 27  2  0  0  0  0
 26 23  1  0  0  0  0
 26 24  2  0  0  0  0
 28 29  2  0  0  0  0
M  END
>  <MODEL>
8

>  <REMARK>
 VINA RESULT:      -7.0      2.744      4.734
  Name = 
  2 active torsions:
  status: ('A' for Active; 'I' for Inactive)
    1  A    between atoms: C_7  and  C_27
    2  A    between atoms: C_11  and  C_18
                            x       y       z     vdW  Elec       q    Type
                         _______ _______ _______ _____ _____    ______ ____

>  <TORSDO>
F 2

$$$$
=
 OpenBabel10222422113D

 29 35  0  0  1  0  0  0  0  0999 V2000
  184.5110  178.3270  141.8270 C   0  0  0  0  0  3  0  0  0  0  0  0
  187.4450  176.7930  137.5650 N   0  0  0  0  0  0  0  0  0  0  0  0
  186.1650  175.4170  135.9880 C   0  0  0  0  0  0  0  0  0  0  0  0
  184.6530  173.9040  135.6010 O   0  0  0  0  0  0  0  0  0  0  0  0
  186.3930  176.7640  136.5410 C   0  0  1  0  0  3  0  0  0  0  0  0
  187.7770  178.3900  141.9790 C   0  0  1  0  0  3  0  0  0  0  0  0
  185.7750  173.5320  134.9970 C   0  0  0  0  0  3  0  0  0  0  0  0
  184.7020  177.9220  143.1940 N   0  0  0  0  0  0  0  0  0  0  0  0
  187.2950  177.5320  138.6300 C   0  0  0  0  0  0  0  0  0  0  0  0
  185.6280  178.9120  141.4190 C   0  0  1  0  0  3  0  0  0  0  0  0
  187.6440  178.4580  140.5090 C   0  0  2  0  0  3  0  0  0  0  0  0
  186.5790  178.7180  142.4680 C   0  0  1  0  0  3  0  0  0  0  0  0
  184.9310  177.9580  138.3050 C   0  0  0  0  0  0  0  0  0  0  0  0
  185.0280  176.9870  137.1900 C   0  0  2  0  0  3  0  0  0  0  0  0
  184.1560  175.9860  136.9750 C   0  0  0  0  0  2  0  0  0  0  0  0
  186.7920  174.4850  135.1950 C   0  0  0  0  0  3  0  0  0  0  0  0
  185.9090  178.1140  143.5590 N   0  0  0  0  0  2  0  0  0  0  0  0
  186.3560  178.7880  140.1670 C   0  0  1  0  0  3  0  0  0  0  0  0
  184.9090  175.0440  136.1730 C   0  0  0  0  0  0  0  0  0  0  0  0
  186.0930  178.1640  138.9650 C   0  0  0  0  0  0  0  0  0  0  0  0
  188.2310  177.6490  139.5990 N   0  0  0  0  0  2  0  0  0  0  0  0
  182.5530  177.8780  139.1030 C   0  0  0  0  0  3  0  0  0  0  0  0
  183.6560  178.6270  138.6650 C   0  0  0  0  0  0  0  0  0  0  0  0
  182.3140  180.6490  138.8460 C   0  0  0  0  0  3  0  0  0  0  0  0
  181.2280  179.8930  139.2940 C   0  0  0  0  0  3  0  0  0  0  0  0
  183.5210  180.0180  138.5290 C   0  0  0  0  0  3  0  0  0  0  0  0
  181.3470  178.5080  139.4210 C   0  0  0  0  0  3  0  0  0  0  0  0
  188.7780  176.3910  142.9700 C   0  0  0  0  0  2  0  0  0  0  0  0
  188.8230  177.6960  142.7430 C   0  0  0  0  0  3  0  0  0  0  0  0
  1  8  2  0  0  0  0
  2  9  2  0  0  0  0
  3 19  2  0  0  0  0
  4 19  1  0  0  0  0
  5  3  1  1  0  0  0
  5 14  1  0  0  0  0
  5  2  1  0  0  0  0
  6 12  1  0  0  0  0
  6 29  1  6  0  0  0
  7 16  2  0  0  0  0
  7  4  1  0  0  0  0
  8 17  1  0  0  0  0
  9 20  1  0  0  0  0
  9 21  1  0  0  0  0
 10  1  1  6  0  0  0
 10 12  1  0  0  0  0
 11 21  1  6  0  0  0
 11  6  1  0  0  0  0
 12 17  1  1  0  0  0
 13 23  1  0  0  0  0
 13 20  2  0  0  0  0
 14 15  1  1  0  0  0
 14 13  1  0  0  0  0
 16  3  1  0  0  0  0
 18 20  1  6  0  0  0
 18 11  1  0  0  0  0
 18 10  1  0  0  0  0
 19 15  1  0  0  0  0
 22 27  1  0  0  0  0
 23 22  2  0  0  0  0
 24 25  1  0  0  0  0
 25 27  2  0  0  0  0
 26 23  1  0  0  0  0
 26 24  2  0  0  0  0
 29 28  2  0  0  0  0
M  END
>  <MODEL>
9

>  <REMARK>
 VINA RESULT:      -7.0      2.998      4.880
  Name = 
  2 active torsions:
  status: ('A' for Active; 'I' for Inactive)
    1  A    between atoms: C_7  and  C_27
    2  A    between atoms: C_11  and  C_18
                            x       y       z     vdW  Elec       q    Type
                         _______ _______ _______ _____ _____    ______ ____

>  <TORSDO>
F 2

$$$$
