=
 OpenBabel10232411453D

 27 30  0  0  1  0  0  0  0  0999 V2000
  186.9490  177.0700  144.8170 C   0  0  2  0  0  3  0  0  0  0  0  0
  189.5840  176.8170  140.8260 C   0  0  0  0  0  3  0  0  0  0  0  0
  187.5840  177.6820  145.9170 O   0  0  0  0  0  0  0  0  0  0  0  0
  186.5700  177.8770  142.3990 C   0  0  1  0  0  3  0  0  0  0  0  0
  188.4330  177.0450  144.9950 C   0  0  2  0  0  3  0  0  0  0  0  0
  188.2470  176.9950  140.8370 N   0  0  0  0  0  0  0  0  0  0  0  0
  189.0950  177.6540  142.7010 C   0  0  0  0  0  0  0  0  0  0  0  0
  190.1480  177.2110  141.9880 N   0  0  0  0  0  0  0  0  0  0  0  0
  189.1640  178.0770  144.1400 C   0  0  2  0  0  3  0  0  0  0  0  0
  187.9430  177.5130  142.0140 N   0  0  0  0  0  0  0  0  0  0  0  0
  186.3960  178.1740  143.9040 C   0  0  1  0  0  3  0  0  0  0  0  0
  184.9620  178.4280  144.2550 C   0  0  0  0  0  0  0  0  0  0  0  0
  184.6420  179.0850  145.4750 N   0  0  0  0  0  1  0  0  0  0  0  0
  184.0380  178.0570  143.4830 O   0  0  0  0  0  0  0  0  0  0  0  0
  190.5690  178.3020  144.6220 C   0  0  0  0  0  0  0  0  0  0  0  0
  191.2270  179.2800  144.1750 O   0  0  0  0  0  0  0  0  0  0  0  0
  191.8720  175.7220  143.9380 N   0  0  0  0  0  1  0  0  0  0  0  0
  191.1520  177.3840  145.6300 C   0  0  0  0  0  0  0  0  0  0  0  0
  192.2820  175.3770  146.2760 N   0  0  0  0  0  0  0  0  0  0  0  0
  191.7710  176.1610  145.2900 C   0  0  0  0  0  0  0  0  0  0  0  0
  191.6060  176.9460  147.9240 C   0  0  0  0  0  3  0  0  0  0  0  0
  192.2140  175.7410  147.5820 C   0  0  0  0  0  3  0  0  0  0  0  0
  191.0920  177.7350  146.9450 N   0  0  0  0  0  0  0  0  0  0  0  0
  186.1240  179.0610  141.5950 C   0  0  0  0  0  3  0  0  0  0  0  0
  185.2930  178.9160  140.5730 C   0  0  0  0  0  3  0  0  0  0  0  0
  184.8940  180.0270  139.8410 O   0  0  0  0  0  0  0  0  0  0  0  0
  183.7380  179.9580  139.0260 C   0  0  0  0  0  1  0  0  0  0  0  0
  1  5  1  0  0  0  0
  1  3  1  1  0  0  0
  2  6  2  0  0  0  0
  2  8  1  0  0  0  0
  4 24  1  6  0  0  0
  4 11  1  0  0  0  0
  5  3  1  1  0  0  0
  6 10  1  0  0  0  0
  7  9  1  0  0  0  0
  8  7  2  0  0  0  0
  9 15  1  1  0  0  0
  9  5  1  0  0  0  0
 10  4  1  0  0  0  0
 10  7  1  0  0  0  0
 11 12  1  6  0  0  0
 11  1  1  0  0  0  0
 12 13  1  0  0  0  0
 14 12  2  0  0  0  0
 15 18  1  0  0  0  0
 16 15  2  0  0  0  0
 17 20  1  0  0  0  0
 18 23  1  0  0  0  0
 19 22  2  0  0  0  0
 20 18  2  0  0  0  0
 20 19  1  0  0  0  0
 22 21  1  0  0  0  0
 23 21  2  0  0  0  0
 25 24  2  0  0  0  0
 26 25  1  0  0  0  0
 27 26  1  0  0  0  0
M  END
>  <MODEL>
1

>  <REMARK>
 VINA RESULT:      -7.3      0.000      0.000
  Name = 
  5 active torsions:
  status: ('A' for Active; 'I' for Inactive)
    1  A    between atoms: C_2  and  C_27
    2  A    between atoms: C_6  and  C_7
    3  A    between atoms: C_7  and  C_25
    4  A    between atoms: C_11  and  C_16
    5  A    between atoms: C_13  and  O_14
                            x       y       z     vdW  Elec       q    Type
                         _______ _______ _______ _____ _____    ______ ____

>  <TORSDO>
F 5

$$$$
=
 OpenBabel10232411453D

 27 30  0  0  1  0  0  0  0  0999 V2000
  186.5420  179.3040  140.8480 C   0  0  2  0  0  3  0  0  0  0  0  0
  185.2050  178.8490  145.4240 C   0  0  0  0  0  3  0  0  0  0  0  0
  187.4890  178.3590  140.4030 O   0  0  0  0  0  0  0  0  0  0  0  0
  184.2530  179.0160  141.9960 C   0  0  1  0  0  3  0  0  0  0  0  0
  187.5290  178.6690  141.7740 C   0  0  2  0  0  3  0  0  0  0  0  0
  184.3850  179.2610  144.4360 N   0  0  0  0  0  0  0  0  0  0  0  0
  185.9980  178.0970  143.6170 C   0  0  0  0  0  0  0  0  0  0  0  0
  186.2370  178.1220  144.9430 N   0  0  0  0  0  0  0  0  0  0  0  0
  186.9400  177.5260  142.5970 C   0  0  2  0  0  3  0  0  0  0  0  0
  184.8870  178.7960  143.3060 N   0  0  0  0  0  0  0  0  0  0  0  0
  185.1520  178.6550  140.7930 C   0  0  1  0  0  3  0  0  0  0  0  0
  184.4980  179.0040  139.4910 C   0  0  0  0  0  0  0  0  0  0  0  0
  184.1020  177.9660  138.6030 N   0  0  0  0  0  1  0  0  0  0  0  0
  184.3040  180.2080  139.1740 O   0  0  0  0  0  0  0  0  0  0  0  0
  188.0140  176.6670  143.2010 C   0  0  0  0  0  0  0  0  0  0  0  0
  187.7600  175.4630  143.4770 O   0  0  0  0  0  0  0  0  0  0  0  0
  190.3220  176.2860  141.3700 N   0  0  0  0  0  1  0  0  0  0  0  0
  189.3590  177.2410  143.4450 C   0  0  0  0  0  0  0  0  0  0  0  0
  191.6490  177.6140  142.8630 N   0  0  0  0  0  0  0  0  0  0  0  0
  190.4470  177.0530  142.5650 C   0  0  0  0  0  0  0  0  0  0  0  0
  190.7610  178.5430  144.8590 C   0  0  0  0  0  3  0  0  0  0  0  0
  191.8300  178.3540  143.9880 C   0  0  0  0  0  3  0  0  0  0  0  0
  189.5580  177.9850  144.5700 N   0  0  0  0  0  0  0  0  0  0  0  0
  182.9740  178.2370  141.9240 C   0  0  0  0  0  3  0  0  0  0  0  0
  181.8010  178.8540  141.9100 C   0  0  0  0  0  3  0  0  0  0  0  0
  180.6300  178.1130  141.8440 O   0  0  0  0  0  0  0  0  0  0  0  0
  180.3170  177.3880  140.6680 C   0  0  0  0  0  1  0  0  0  0  0  0
  1  3  1  6  0  0  0
  1  5  1  0  0  0  0
  4 24  1  1  0  0  0
  4 10  1  0  0  0  0
  5  3  1  6  0  0  0
  5  9  1  0  0  0  0
  6  2  2  0  0  0  0
  7  8  2  0  0  0  0
  8  2  1  0  0  0  0
  9 15  1  1  0  0  0
  9  7  1  0  0  0  0
 10  7  1  0  0  0  0
 10  6  1  0  0  0  0
 11 12  1  6  0  0  0
 11  1  1  0  0  0  0
 11  4  1  0  0  0  0
 13 12  1  0  0  0  0
 14 12  2  0  0  0  0
 15 18  1  0  0  0  0
 15 16  2  0  0  0  0
 17 20  1  0  0  0  0
 18 23  1  0  0  0  0
 19 22  2  0  0  0  0
 20 19  1  0  0  0  0
 20 18  2  0  0  0  0
 22 21  1  0  0  0  0
 23 21  2  0  0  0  0
 25 24  2  0  0  0  0
 26 25  1  0  0  0  0
 27 26  1  0  0  0  0
M  END
>  <MODEL>
2

>  <REMARK>
 VINA RESULT:      -7.1      2.390      4.334
  Name = 
  5 active torsions:
  status: ('A' for Active; 'I' for Inactive)
    1  A    between atoms: C_2  and  C_27
    2  A    between atoms: C_6  and  C_7
    3  A    between atoms: C_7  and  C_25
    4  A    between atoms: C_11  and  C_16
    5  A    between atoms: C_13  and  O_14
                            x       y       z     vdW  Elec       q    Type
                         _______ _______ _______ _____ _____    ______ ____

>  <TORSDO>
F 5

$$$$
=
 OpenBabel10232411453D

 27 30  0  0  1  0  0  0  0  0999 V2000
  190.9270  175.1950  137.1280 C   0  0  2  0  0  3  0  0  0  0  0  0
  188.5800  179.3700  137.1470 C   0  0  0  0  0  3  0  0  0  0  0  0
  191.3240  174.7250  138.3980 O   0  0  0  0  0  0  0  0  0  0  0  0
  188.6290  175.9310  136.2240 C   0  0  1  0  0  3  0  0  0  0  0  0
  191.2160  176.1210  138.2670 C   0  0  2  0  0  3  0  0  0  0  0  0
  188.3290  178.3680  136.2810 N   0  0  0  0  0  0  0  0  0  0  0  0
  189.2480  177.5890  138.0630 C   0  0  0  0  0  0  0  0  0  0  0  0
  189.1680  178.9170  138.2760 N   0  0  0  0  0  0  0  0  0  0  0  0
  189.9590  176.6270  138.9710 C   0  0  2  0  0  3  0  0  0  0  0  0
  188.7540  177.2550  136.8540 N   0  0  0  0  0  0  0  0  0  0  0  0
  189.4520  174.8240  136.9170 C   0  0  1  0  0  3  0  0  0  0  0  0
  189.3750  173.5280  136.1700 C   0  0  0  0  0  0  0  0  0  0  0  0
  190.0000  173.4110  134.8980 N   0  0  0  0  0  1  0  0  0  0  0  0
  188.7530  172.5450  136.6550 O   0  0  0  0  0  0  0  0  0  0  0  0
  190.2760  177.2110  140.3180 C   0  0  0  0  0  0  0  0  0  0  0  0
  191.4170  177.7060  140.5240 O   0  0  0  0  0  0  0  0  0  0  0  0
  190.3530  175.4440  142.7040 N   0  0  0  0  0  1  0  0  0  0  0  0
  189.2380  177.2150  141.3760 C   0  0  0  0  0  0  0  0  0  0  0  0
  188.2950  176.4360  143.4320 N   0  0  0  0  0  0  0  0  0  0  0  0
  189.2880  176.3700  142.5070 C   0  0  0  0  0  0  0  0  0  0  0  0
  187.1990  178.1340  142.1870 C   0  0  0  0  0  3  0  0  0  0  0  0
  187.2540  177.2980  143.2980 C   0  0  0  0  0  3  0  0  0  0  0  0
  188.1860  178.0730  141.2570 N   0  0  0  0  0  0  0  0  0  0  0  0
  187.1840  175.5340  136.1800 C   0  0  0  0  0  3  0  0  0  0  0  0
  186.5340  175.2090  137.2880 C   0  0  0  0  0  3  0  0  0  0  0  0
  185.1960  174.8430  137.2240 O   0  0  0  0  0  0  0  0  0  0  0  0
  184.8050  173.5270  137.5710 C   0  0  0  0  0  1  0  0  0  0  0  0
  1  5  1  0  0  0  0
  1  3  1  1  0  0  0
  2  8  1  0  0  0  0
  4 24  1  1  0  0  0
  4 10  1  0  0  0  0
  4 11  1  0  0  0  0
  5  3  1  1  0  0  0
  5  9  1  0  0  0  0
  6 10  1  0  0  0  0
  6  2  2  0  0  0  0
  7  8  2  0  0  0  0
  7  9  1  0  0  0  0
  9 15  1  1  0  0  0
 10  7  1  0  0  0  0
 11 12  1  6  0  0  0
 11  1  1  0  0  0  0
 12 14  2  0  0  0  0
 13 12  1  0  0  0  0
 15 16  2  0  0  0  0
 15 18  1  0  0  0  0
 18 20  1  0  0  0  0
 20 17  1  0  0  0  0
 20 19  2  0  0  0  0
 21 22  2  0  0  0  0
 22 19  1  0  0  0  0
 23 18  2  0  0  0  0
 23 21  1  0  0  0  0
 24 25  2  0  0  0  0
 26 25  1  0  0  0  0
 26 27  1  0  0  0  0
M  END
>  <MODEL>
3

>  <REMARK>
 VINA RESULT:      -6.6      4.415      6.765
  Name = 
  5 active torsions:
  status: ('A' for Active; 'I' for Inactive)
    1  A    between atoms: C_2  and  C_27
    2  A    between atoms: C_6  and  C_7
    3  A    between atoms: C_7  and  C_25
    4  A    between atoms: C_11  and  C_16
    5  A    between atoms: C_13  and  O_14
                            x       y       z     vdW  Elec       q    Type
                         _______ _______ _______ _____ _____    ______ ____

>  <TORSDO>
F 5

$$$$
=
 OpenBabel10232411453D

 27 30  0  0  1  0  0  0  0  0999 V2000
  188.6110  176.2120  135.7750 C   0  0  2  0  0  3  0  0  0  0  0  0
  184.7580  178.0420  137.9520 C   0  0  0  0  0  3  0  0  0  0  0  0
  189.8300  176.3860  136.4650 O   0  0  0  0  0  0  0  0  0  0  0  0
  186.3600  175.2030  136.5180 C   0  0  1  0  0  3  0  0  0  0  0  0
  188.8480  177.3660  136.6960 C   0  0  2  0  0  3  0  0  0  0  0  0
  184.7420  176.9160  137.2120 N   0  0  0  0  0  0  0  0  0  0  0  0
  186.7290  177.2840  137.9500 C   0  0  0  0  0  0  0  0  0  0  0  0
  185.9960  178.3100  138.4240 N   0  0  0  0  0  0  0  0  0  0  0  0
  188.2210  177.1800  138.0750 C   0  0  2  0  0  3  0  0  0  0  0  0
  185.9780  176.4470  137.2060 N   0  0  0  0  0  0  0  0  0  0  0  0
  187.8850  175.0020  136.3810 C   0  0  1  0  0  3  0  0  0  0  0  0
  188.2110  173.7810  135.5780 C   0  0  0  0  0  0  0  0  0  0  0  0
  188.9940  172.7450  136.1600 N   0  0  0  0  0  1  0  0  0  0  0  0
  187.8060  173.6680  134.3900 O   0  0  0  0  0  0  0  0  0  0  0  0
  188.7970  178.1380  139.0790 C   0  0  0  0  0  0  0  0  0  0  0  0
  189.0500  179.3230  138.7280 O   0  0  0  0  0  0  0  0  0  0  0  0
  187.0420  178.8430  141.3700 N   0  0  0  0  0  1  0  0  0  0  0  0
  189.0390  177.6840  140.4690 C   0  0  0  0  0  0  0  0  0  0  0  0
  188.4900  177.5650  142.7940 N   0  0  0  0  0  0  0  0  0  0  0  0
  188.1960  178.0250  141.5490 C   0  0  0  0  0  0  0  0  0  0  0  0
  190.4100  176.4430  141.9660 C   0  0  0  0  0  3  0  0  0  0  0  0
  189.5750  176.7830  143.0260 C   0  0  0  0  0  3  0  0  0  0  0  0
  190.1250  176.8990  140.7190 N   0  0  0  0  0  0  0  0  0  0  0  0
  185.7590  174.0310  137.2350 C   0  0  0  0  0  3  0  0  0  0  0  0
  184.7620  173.3430  136.6980 C   0  0  0  0  0  3  0  0  0  0  0  0
  184.2190  172.2620  137.3800 O   0  0  0  0  0  0  0  0  0  0  0  0
  183.5280  171.2520  136.6680 C   0  0  0  0  0  1  0  0  0  0  0  0
  1 11  1  0  0  0  0
  1  3  1  1  0  0  0
  1  5  1  0  0  0  0
  2  8  1  0  0  0  0
  4 10  1  0  0  0  0
  4 24  1  1  0  0  0
  5  3  1  1  0  0  0
  5  9  1  0  0  0  0
  6  2  2  0  0  0  0
  7  9  1  0  0  0  0
  7  8  2  0  0  0  0
  9 15  1  1  0  0  0
 10  6  1  0  0  0  0
 10  7  1  0  0  0  0
 11 12  1  6  0  0  0
 11  4  1  0  0  0  0
 12 13  1  0  0  0  0
 14 12  2  0  0  0  0
 15 18  1  0  0  0  0
 16 15  2  0  0  0  0
 17 20  1  0  0  0  0
 18 23  2  0  0  0  0
 18 20  1  0  0  0  0
 19 22  1  0  0  0  0
 20 19  2  0  0  0  0
 21 22  2  0  0  0  0
 23 21  1  0  0  0  0
 25 24  2  0  0  0  0
 25 26  1  0  0  0  0
 27 26  1  0  0  0  0
M  END
>  <MODEL>
4

>  <REMARK>
 VINA RESULT:      -6.3      4.924      7.357
  Name = 
  5 active torsions:
  status: ('A' for Active; 'I' for Inactive)
    1  A    between atoms: C_2  and  C_27
    2  A    between atoms: C_6  and  C_7
    3  A    between atoms: C_7  and  C_25
    4  A    between atoms: C_11  and  C_16
    5  A    between atoms: C_13  and  O_14
                            x       y       z     vdW  Elec       q    Type
                         _______ _______ _______ _____ _____    ______ ____

>  <TORSDO>
F 5

$$$$
=
 OpenBabel10232411453D

 27 30  0  0  1  0  0  0  0  0999 V2000
  188.6290  178.6620  140.6200 C   0  0  2  0  0  3  0  0  0  0  0  0
  192.9280  177.1260  139.1730 C   0  0  0  0  0  3  0  0  0  0  0  0
  187.5390  178.2120  139.8450 O   0  0  0  0  0  0  0  0  0  0  0  0
  190.5310  177.3820  141.7950 C   0  0  1  0  0  3  0  0  0  0  0  0
  188.7660  178.3270  139.1690 C   0  0  2  0  0  3  0  0  0  0  0  0
  192.5940  177.3280  140.4630 N   0  0  0  0  0  0  0  0  0  0  0  0
  190.8250  176.9780  139.2920 C   0  0  0  0  0  0  0  0  0  0  0  0
  191.8370  176.9130  138.4040 N   0  0  0  0  0  0  0  0  0  0  0  0
  189.3700  176.9470  138.9200 C   0  0  2  0  0  3  0  0  0  0  0  0
  191.2770  177.2430  140.5340 N   0  0  0  0  0  0  0  0  0  0  0  0
  189.0080  177.5510  141.6090 C   0  0  1  0  0  3  0  0  0  0  0  0
  188.3160  177.7990  142.9150 C   0  0  0  0  0  0  0  0  0  0  0  0
  186.9810  177.3470  143.1010 N   0  0  0  0  0  1  0  0  0  0  0  0
  188.9050  178.4140  143.8440 O   0  0  0  0  0  0  0  0  0  0  0  0
  189.1310  176.4830  137.5120 C   0  0  0  0  0  0  0  0  0  0  0  0
  189.5080  177.2060  136.5500 O   0  0  0  0  0  0  0  0  0  0  0  0
  190.6040  173.9100  137.3290 N   0  0  0  0  0  1  0  0  0  0  0  0
  188.4740  175.1760  137.2740 C   0  0  0  0  0  0  0  0  0  0  0  0
  188.5070  172.8030  136.9710 N   0  0  0  0  0  0  0  0  0  0  0  0
  189.1860  173.9590  137.1910 C   0  0  0  0  0  0  0  0  0  0  0  0
  186.4470  173.9820  136.9110 C   0  0  0  0  0  3  0  0  0  0  0  0
  187.1560  172.7870  136.8300 C   0  0  0  0  0  3  0  0  0  0  0  0
  187.1190  175.1420  137.1300 N   0  0  0  0  0  0  0  0  0  0  0  0
  190.8050  176.1960  142.6700 C   0  0  0  0  0  3  0  0  0  0  0  0
  191.6070  176.2960  143.7210 C   0  0  0  0  0  3  0  0  0  0  0  0
  191.8480  175.1850  144.5170 O   0  0  0  0  0  0  0  0  0  0  0  0
  191.9880  175.3370  145.9180 C   0  0  0  0  0  1  0  0  0  0  0  0
  1  3  1  6  0  0  0
  1 11  1  0  0  0  0
  2  6  2  0  0  0  0
  4 24  1  1  0  0  0
  5  3  1  1  0  0  0
  5  1  1  0  0  0  0
  6 10  1  0  0  0  0
  7 10  1  0  0  0  0
  8  2  1  0  0  0  0
  8  7  2  0  0  0  0
  9 15  1  6  0  0  0
  9  5  1  0  0  0  0
  9  7  1  0  0  0  0
 10  4  1  0  0  0  0
 11  4  1  0  0  0  0
 11 12  1  1  0  0  0
 12 13  1  0  0  0  0
 12 14  2  0  0  0  0
 16 15  2  0  0  0  0
 18 15  1  0  0  0  0
 19 20  2  0  0  0  0
 20 18  1  0  0  0  0
 20 17  1  0  0  0  0
 21 23  1  0  0  0  0
 22 21  2  0  0  0  0
 22 19  1  0  0  0  0
 23 18  2  0  0  0  0
 24 25  2  0  0  0  0
 25 26  1  0  0  0  0
 26 27  1  0  0  0  0
M  END
>  <MODEL>
5

>  <REMARK>
 VINA RESULT:      -6.2      3.585      7.359
  Name = 
  5 active torsions:
  status: ('A' for Active; 'I' for Inactive)
    1  A    between atoms: C_2  and  C_27
    2  A    between atoms: C_6  and  C_7
    3  A    between atoms: C_7  and  C_25
    4  A    between atoms: C_11  and  C_16
    5  A    between atoms: C_13  and  O_14
                            x       y       z     vdW  Elec       q    Type
                         _______ _______ _______ _____ _____    ______ ____

>  <TORSDO>
F 5

$$$$
=
 OpenBabel10232411453D

 27 30  0  0  1  0  0  0  0  0999 V2000
  187.5010  177.2960  147.1570 C   0  0  2  0  0  3  0  0  0  0  0  0
  188.8080  175.6650  142.8480 C   0  0  0  0  0  3  0  0  0  0  0  0
  188.5060  177.9850  147.8680 O   0  0  0  0  0  0  0  0  0  0  0  0
  186.5550  177.6300  144.7840 C   0  0  1  0  0  3  0  0  0  0  0  0
  188.9550  177.0060  146.9640 C   0  0  2  0  0  3  0  0  0  0  0  0
  187.5700  176.1110  143.1420 N   0  0  0  0  0  0  0  0  0  0  0  0
  189.0030  176.9640  144.5010 C   0  0  0  0  0  0  0  0  0  0  0  0
  189.7330  176.1730  143.6910 N   0  0  0  0  0  0  0  0  0  0  0  0
  189.5430  177.6610  145.7160 C   0  0  2  0  0  3  0  0  0  0  0  0
  187.6940  176.9190  144.1810 N   0  0  0  0  0  0  0  0  0  0  0  0
  186.8660  178.2700  146.1540 C   0  0  1  0  0  3  0  0  0  0  0  0
  185.6450  178.8810  146.7690 C   0  0  0  0  0  0  0  0  0  0  0  0
  184.3750  178.2730  146.5640 N   0  0  0  0  0  1  0  0  0  0  0  0
  185.7320  179.9320  147.4580 O   0  0  0  0  0  0  0  0  0  0  0  0
  191.0440  177.6900  145.7610 C   0  0  0  0  0  0  0  0  0  0  0  0
  191.6760  178.3380  144.8820 O   0  0  0  0  0  0  0  0  0  0  0  0
  192.2190  174.9790  145.4530 N   0  0  0  0  0  1  0  0  0  0  0  0
  191.7580  176.9770  146.8460 C   0  0  0  0  0  0  0  0  0  0  0  0
  192.9540  175.1040  147.7330 N   0  0  0  0  0  0  0  0  0  0  0  0
  192.3130  175.6890  146.6860 C   0  0  0  0  0  0  0  0  0  0  0  0
  192.5310  177.0010  149.0970 C   0  0  0  0  0  3  0  0  0  0  0  0
  193.0750  175.7300  148.9320 C   0  0  0  0  0  3  0  0  0  0  0  0
  191.8880  177.5910  148.0560 N   0  0  0  0  0  0  0  0  0  0  0  0
  186.0640  178.6810  143.8350 C   0  0  0  0  0  3  0  0  0  0  0  0
  185.1750  178.3900  142.8960 C   0  0  0  0  0  3  0  0  0  0  0  0
  184.7350  179.3790  142.0270 O   0  0  0  0  0  0  0  0  0  0  0  0
  184.6300  179.1060  140.6410 C   0  0  0  0  0  1  0  0  0  0  0  0
  1  3  1  1  0  0  0
  2  6  2  0  0  0  0
  2  8  1  0  0  0  0
  4 24  1  6  0  0  0
  4 11  1  0  0  0  0
  5  1  1  0  0  0  0
  5  3  1  1  0  0  0
  6 10  1  0  0  0  0
  7  9  1  0  0  0  0
  8  7  2  0  0  0  0
  9 15  1  1  0  0  0
  9  5  1  0  0  0  0
 10  7  1  0  0  0  0
 10  4  1  0  0  0  0
 11 12  1  1  0  0  0
 11  1  1  0  0  0  0
 12 14  2  0  0  0  0
 13 12  1  0  0  0  0
 15 18  1  0  0  0  0
 16 15  2  0  0  0  0
 17 20  1  0  0  0  0
 18 23  1  0  0  0  0
 19 22  2  0  0  0  0
 20 18  2  0  0  0  0
 20 19  1  0  0  0  0
 22 21  1  0  0  0  0
 23 21  2  0  0  0  0
 25 24  2  0  0  0  0
 26 25  1  0  0  0  0
 27 26  1  0  0  0  0
M  END
>  <MODEL>
6

>  <REMARK>
 VINA RESULT:      -6.2      1.704      2.158
  Name = 
  5 active torsions:
  status: ('A' for Active; 'I' for Inactive)
    1  A    between atoms: C_2  and  C_27
    2  A    between atoms: C_6  and  C_7
    3  A    between atoms: C_7  and  C_25
    4  A    between atoms: C_11  and  C_16
    5  A    between atoms: C_13  and  O_14
                            x       y       z     vdW  Elec       q    Type
                         _______ _______ _______ _____ _____    ______ ____

>  <TORSDO>
F 5

$$$$
=
 OpenBabel10232411453D

 27 30  0  0  1  0  0  0  0  0999 V2000
  190.1390  176.9400  137.4910 C   0  0  2  0  0  3  0  0  0  0  0  0
  185.6160  178.3950  138.0930 C   0  0  0  0  0  3  0  0  0  0  0  0
  190.9310  176.9440  138.6590 O   0  0  0  0  0  0  0  0  0  0  0  0
  187.8570  175.8590  136.9820 C   0  0  1  0  0  3  0  0  0  0  0  0
  189.8840  177.8830  138.6240 C   0  0  2  0  0  3  0  0  0  0  0  0
  185.9910  177.4390  137.2190 N   0  0  0  0  0  0  0  0  0  0  0  0
  187.4420  177.6040  138.7980 C   0  0  0  0  0  0  0  0  0  0  0  0
  186.5130  178.5330  139.0940 N   0  0  0  0  0  0  0  0  0  0  0  0
  188.7410  177.4410  139.5340 C   0  0  2  0  0  3  0  0  0  0  0  0
  187.1380  176.9500  137.6590 N   0  0  0  0  0  0  0  0  0  0  0  0
  189.3030  175.6530  137.4820 C   0  0  1  0  0  3  0  0  0  0  0  0
  190.0200  174.6070  136.6830 C   0  0  0  0  0  0  0  0  0  0  0  0
  190.1740  174.7780  135.2800 N   0  0  0  0  0  1  0  0  0  0  0  0
  190.4780  173.5760  137.2430 O   0  0  0  0  0  0  0  0  0  0  0  0
  188.7690  178.1660  140.8500 C   0  0  0  0  0  0  0  0  0  0  0  0
  188.1290  179.2450  140.9740 O   0  0  0  0  0  0  0  0  0  0  0  0
  187.4920  176.8570  143.1910 N   0  0  0  0  0  1  0  0  0  0  0  0
  189.5290  177.5920  141.9850 C   0  0  0  0  0  0  0  0  0  0  0  0
  189.6810  176.4700  144.0920 N   0  0  0  0  0  0  0  0  0  0  0  0
  188.9090  176.9710  143.0920 C   0  0  0  0  0  0  0  0  0  0  0  0
  191.6530  177.1600  142.9660 C   0  0  0  0  0  3  0  0  0  0  0  0
  191.0360  176.5500  144.0540 C   0  0  0  0  0  3  0  0  0  0  0  0
  190.8900  177.6650  141.9630 N   0  0  0  0  0  0  0  0  0  0  0  0
  187.0830  174.5830  137.1320 C   0  0  0  0  0  3  0  0  0  0  0  0
  186.3880  174.0850  136.1190 C   0  0  0  0  0  3  0  0  0  0  0  0
  185.6780  172.9040  136.2800 O   0  0  0  0  0  0  0  0  0  0  0  0
  184.9160  172.6920  137.4550 C   0  0  0  0  0  1  0  0  0  0  0  0
  1  5  1  0  0  0  0
  1  3  1  1  0  0  0
  2  8  1  0  0  0  0
  4 24  1  1  0  0  0
  4 11  1  0  0  0  0
  4 10  1  0  0  0  0
  5  3  1  1  0  0  0
  5  9  1  0  0  0  0
  6 10  1  0  0  0  0
  6  2  2  0  0  0  0
  7  8  2  0  0  0  0
  7  9  1  0  0  0  0
  9 15  1  1  0  0  0
 10  7  1  0  0  0  0
 11 12  1  6  0  0  0
 11  1  1  0  0  0  0
 12 14  2  0  0  0  0
 13 12  1  0  0  0  0
 15 16  2  0  0  0  0
 15 18  1  0  0  0  0
 18 20  1  0  0  0  0
 20 17  1  0  0  0  0
 20 19  2  0  0  0  0
 21 22  2  0  0  0  0
 22 19  1  0  0  0  0
 23 18  2  0  0  0  0
 23 21  1  0  0  0  0
 25 26  1  0  0  0  0
 25 24  2  0  0  0  0
 26 27  1  0  0  0  0
M  END
>  <MODEL>
7

>  <REMARK>
 VINA RESULT:      -6.1      4.268      6.417
  Name = 
  5 active torsions:
  status: ('A' for Active; 'I' for Inactive)
    1  A    between atoms: C_2  and  C_27
    2  A    between atoms: C_6  and  C_7
    3  A    between atoms: C_7  and  C_25
    4  A    between atoms: C_11  and  C_16
    5  A    between atoms: C_13  and  O_14
                            x       y       z     vdW  Elec       q    Type
                         _______ _______ _______ _____ _____    ______ ____

>  <TORSDO>
F 5

$$$$
=
 OpenBabel10232411453D

 27 30  0  0  1  0  0  0  0  0999 V2000
  189.2820  178.4760  138.8120 C   0  0  2  0  0  3  0  0  0  0  0  0
  184.9070  179.3300  140.5610 C   0  0  0  0  0  3  0  0  0  0  0  0
  190.1440  177.7630  139.6720 O   0  0  0  0  0  0  0  0  0  0  0  0
  186.9080  177.9520  137.9580 C   0  0  1  0  0  3  0  0  0  0  0  0
  189.1590  178.5450  140.3010 C   0  0  2  0  0  3  0  0  0  0  0  0
  185.1650  179.0910  139.2600 N   0  0  0  0  0  0  0  0  0  0  0  0
  186.7190  178.2490  140.4860 C   0  0  0  0  0  0  0  0  0  0  0  0
  185.8710  178.8230  141.3610 N   0  0  0  0  0  0  0  0  0  0  0  0
  188.0480  177.6580  140.8590 C   0  0  2  0  0  3  0  0  0  0  0  0
  186.3040  178.4220  139.2150 N   0  0  0  0  0  0  0  0  0  0  0  0
  188.3670  177.4670  138.1040 C   0  0  1  0  0  3  0  0  0  0  0  0
  188.9650  177.1080  136.7780 C   0  0  0  0  0  0  0  0  0  0  0  0
  189.4170  175.7790  136.5470 N   0  0  0  0  0  1  0  0  0  0  0  0
  189.0790  177.9750  135.8710 O   0  0  0  0  0  0  0  0  0  0  0  0
  188.2030  177.4400  142.3370 C   0  0  0  0  0  0  0  0  0  0  0  0
  187.2210  177.0180  143.0050 O   0  0  0  0  0  0  0  0  0  0  0  0
  190.2810  175.3580  142.7510 N   0  0  0  0  0  1  0  0  0  0  0  0
  189.5110  177.7020  142.9820 C   0  0  0  0  0  0  0  0  0  0  0  0
  191.6670  177.0280  143.7720 N   0  0  0  0  0  0  0  0  0  0  0  0
  190.4910  176.7030  143.1710 C   0  0  0  0  0  0  0  0  0  0  0  0
  190.9630  179.2830  144.0110 C   0  0  0  0  0  3  0  0  0  0  0  0
  191.9240  178.2930  144.1950 C   0  0  0  0  0  3  0  0  0  0  0  0
  189.7850  178.9660  143.4130 N   0  0  0  0  0  0  0  0  0  0  0  0
  186.0660  176.8550  137.3780 C   0  0  0  0  0  3  0  0  0  0  0  0
  185.3600  177.0510  136.2740 C   0  0  0  0  0  3  0  0  0  0  0  0
  184.5860  176.0220  135.7550 O   0  0  0  0  0  0  0  0  0  0  0  0
  185.0170  175.3280  134.5980 C   0  0  0  0  0  1  0  0  0  0  0  0
  1  3  1  1  0  0  0
  1  5  1  0  0  0  0
  2  8  1  0  0  0  0
  4 24  1  1  0  0  0
  4 11  1  0  0  0  0
  4 10  1  0  0  0  0
  5  3  1  1  0  0  0
  5  9  1  0  0  0  0
  6  2  2  0  0  0  0
  7  9  1  0  0  0  0
  7  8  2  0  0  0  0
  9 15  1  1  0  0  0
 10  6  1  0  0  0  0
 10  7  1  0  0  0  0
 11 12  1  6  0  0  0
 11  1  1  0  0  0  0
 13 12  1  0  0  0  0
 14 12  2  0  0  0  0
 15 18  1  0  0  0  0
 15 16  2  0  0  0  0
 17 20  1  0  0  0  0
 18 20  2  0  0  0  0
 18 23  1  0  0  0  0
 19 22  2  0  0  0  0
 20 19  1  0  0  0  0
 21 22  1  0  0  0  0
 23 21  2  0  0  0  0
 25 24  2  0  0  0  0
 26 25  1  0  0  0  0
 27 26  1  0  0  0  0
M  END
>  <MODEL>
8

>  <REMARK>
 VINA RESULT:      -6.0      3.352      5.380
  Name = 
  5 active torsions:
  status: ('A' for Active; 'I' for Inactive)
    1  A    between atoms: C_2  and  C_27
    2  A    between atoms: C_6  and  C_7
    3  A    between atoms: C_7  and  C_25
    4  A    between atoms: C_11  and  C_16
    5  A    between atoms: C_13  and  O_14
                            x       y       z     vdW  Elec       q    Type
                         _______ _______ _______ _____ _____    ______ ____

>  <TORSDO>
F 5

$$$$
=
 OpenBabel10232411453D

 27 30  0  0  1  0  0  0  0  0999 V2000
  184.2340  178.8680  138.9700 C   0  0  2  0  0  3  0  0  0  0  0  0
  181.1380  178.9320  142.6240 C   0  0  0  0  0  3  0  0  0  0  0  0
  185.5940  178.7900  139.3370 O   0  0  0  0  0  0  0  0  0  0  0  0
  182.2110  177.3980  139.5940 C   0  0  1  0  0  3  0  0  0  0  0  0
  184.7410  179.4100  140.2680 C   0  0  2  0  0  3  0  0  0  0  0  0
  180.8910  178.3450  141.4360 N   0  0  0  0  0  0  0  0  0  0  0  0
  183.0130  178.4850  141.7600 C   0  0  0  0  0  0  0  0  0  0  0  0
  182.4640  179.0470  142.8560 N   0  0  0  0  0  0  0  0  0  0  0  0
  184.4820  178.4850  141.4550 C   0  0  2  0  0  3  0  0  0  0  0  0
  182.0650  178.0730  140.8940 N   0  0  0  0  0  0  0  0  0  0  0  0
  183.6420  177.4520  139.0150 C   0  0  1  0  0  3  0  0  0  0  0  0
  183.7060  176.8500  137.6450 C   0  0  0  0  0  0  0  0  0  0  0  0
  182.8940  177.3810  136.6050 N   0  0  0  0  0  1  0  0  0  0  0  0
  184.4650  175.8730  137.4090 O   0  0  0  0  0  0  0  0  0  0  0  0
  185.3320  178.8510  142.6380 C   0  0  0  0  0  0  0  0  0  0  0  0
  185.0040  179.8370  143.3530 O   0  0  0  0  0  0  0  0  0  0  0  0
  185.8550  177.6830  145.3190 N   0  0  0  0  0  1  0  0  0  0  0  0
  186.5280  178.0380  142.9600 C   0  0  0  0  0  0  0  0  0  0  0  0
  187.8880  176.7520  144.4510 N   0  0  0  0  0  0  0  0  0  0  0  0
  186.7640  177.4870  144.2390 C   0  0  0  0  0  0  0  0  0  0  0  0
  188.5650  177.0720  142.1980 C   0  0  0  0  0  3  0  0  0  0  0  0
  188.7910  176.5320  143.4610 C   0  0  0  0  0  3  0  0  0  0  0  0
  187.4450  177.8090  141.9780 N   0  0  0  0  0  0  0  0  0  0  0  0
  181.7700  175.9710  139.7200 C   0  0  0  0  0  3  0  0  0  0  0  0
  180.5880  175.5810  139.2660 C   0  0  0  0  0  3  0  0  0  0  0  0
  180.1990  174.2550  139.3940 O   0  0  0  0  0  0  0  0  0  0  0  0
  180.1260  173.4260  138.2480 C   0  0  0  0  0  1  0  0  0  0  0  0
  1 11  1  0  0  0  0
  1  3  1  6  0  0  0
  1  5  1  0  0  0  0
  2  8  1  0  0  0  0
  4 24  1  1  0  0  0
  4 10  1  0  0  0  0
  5  3  1  6  0  0  0
  5  9  1  0  0  0  0
  6  2  2  0  0  0  0
  7  8  2  0  0  0  0
  9  7  1  0  0  0  0
  9 15  1  1  0  0  0
 10  6  1  0  0  0  0
 10  7  1  0  0  0  0
 11 12  1  6  0  0  0
 11  4  1  0  0  0  0
 13 12  1  0  0  0  0
 14 12  2  0  0  0  0
 15 18  1  0  0  0  0
 15 16  2  0  0  0  0
 18 20  1  0  0  0  0
 20 19  2  0  0  0  0
 20 17  1  0  0  0  0
 21 22  2  0  0  0  0
 22 19  1  0  0  0  0
 23 21  1  0  0  0  0
 23 18  2  0  0  0  0
 25 26  1  0  0  0  0
 25 24  2  0  0  0  0
 27 26  1  0  0  0  0
M  END
>  <MODEL>
9

>  <REMARK>
 VINA RESULT:      -6.0      3.702      6.537
  Name = 
  5 active torsions:
  status: ('A' for Active; 'I' for Inactive)
    1  A    between atoms: C_2  and  C_27
    2  A    between atoms: C_6  and  C_7
    3  A    between atoms: C_7  and  C_25
    4  A    between atoms: C_11  and  C_16
    5  A    between atoms: C_13  and  O_14
                            x       y       z     vdW  Elec       q    Type
                         _______ _______ _______ _____ _____    ______ ____

>  <TORSDO>
F 5

$$$$
