=
 OpenBabel10232411523D

 31 35  0  0  1  0  0  0  0  0999 V2000
  189.4860  177.1120  138.2580 C   0  0  0  0  0  0  0  0  0  0  0  0
  188.9490  177.7970  140.6440 C   0  0  0  0  0  0  0  0  0  0  0  0
  188.8760  173.9330  136.9070 C   0  0  0  0  0  3  0  0  0  0  0  0
  193.0570  174.6430  136.4550 C   0  0  0  0  0  3  0  0  0  0  0  0
  192.3550  173.7170  135.6630 C   0  0  1  0  0  3  0  0  0  0  0  0
  191.0030  175.2030  137.6240 C   0  0  0  0  0  0  0  0  0  0  0  0
  187.4480  178.0320  142.5880 N   0  0  0  0  0  0  0  0  0  0  0  0
  191.4570  177.3720  140.4970 C   0  0  0  0  0  3  0  0  0  0  0  0
  190.2080  177.5730  141.2950 C   0  0  0  0  0  0  0  0  0  0  0  0
  193.1510  176.5500  138.5200 S   0  0  0  0  0  0  0  0  0  0  0  0
  191.5720  176.6880  139.3650 C   0  0  0  0  0  0  0  0  0  0  0  0
  186.7070  178.2900  140.5260 O   0  0  0  0  0  0  0  0  0  0  0  0
  192.3680  175.3760  137.4320 C   0  0  0  0  0  0  0  0  0  0  0  0
  190.3130  174.2740  136.8390 C   0  0  0  0  0  0  0  0  0  0  0  0
  190.9740  173.5550  135.8730 C   0  0  0  0  0  0  0  0  0  0  0  0
  191.8080  177.4400  143.1390 N   0  0  0  0  0  1  0  0  0  0  0  0
  187.7020  178.0490  141.2650 C   0  0  0  0  0  0  0  0  0  0  0  0
  190.0620  172.6390  135.1530 C   0  0  0  0  0  3  0  0  0  0  0  0
  188.6940  172.8830  135.8040 C   0  0  0  0  0  3  0  0  0  0  0  0
  188.2060  177.8500  143.6820 C   0  0  0  0  0  0  0  0  0  0  0  0
  190.4070  176.0220  138.7230 C   0  0  1  0  0  3  0  0  0  0  0  0
  189.5400  177.6900  143.6670 N   0  0  0  0  0  0  0  0  0  0  0  0
  190.4600  177.5920  142.6880 C   0  0  0  0  0  0  0  0  0  0  0  0
  188.8650  177.8830  139.1510 C   0  0  0  0  0  3  0  0  0  0  0  0
  189.2890  177.4070  136.8590 C   0  0  0  0  0  0  0  0  0  0  0  0
  189.1220  177.6470  135.6890 C   0  0  0  0  0  0  0  0  0  0  0  0
  188.9320  177.9170  134.3650 O   0  0  0  0  0  1  0  0  0  0  0  0
  187.5540  177.8910  144.9590 C   0  0  0  0  0  0  0  0  0  0  0  0
  187.0280  177.9240  145.9890 N   0  0  0  0  0  0  0  0  0  0  0  0
  194.4490  173.1130  134.7580 O   0  0  0  0  0  1  0  0  0  0  0  0
  193.0730  172.9550  134.6020 C   0  0  0  0  0  2  0  0  0  0  0  0
  1 21  1  0  0  0  0
  1 24  2  0  0  0  0
  2 17  1  0  0  0  0
  2  9  2  0  0  0  0
  4 13  2  0  0  0  0
  5 31  1  6  0  0  0
  5 15  1  0  0  0  0
  5  4  1  0  0  0  0
  7 20  2  0  0  0  0
  8  9  1  0  0  0  0
  9 23  1  0  0  0  0
 10 11  1  0  0  0  0
 11  8  2  0  0  0  0
 12 17  2  0  0  0  0
 13  6  1  0  0  0  0
 13 10  1  0  0  0  0
 14  3  1  0  0  0  0
 14  6  2  0  0  0  0
 15 14  1  0  0  0  0
 17  7  1  0  0  0  0
 18 19  1  0  0  0  0
 18 15  2  0  0  0  0
 19  3  2  0  0  0  0
 20 28  1  0  0  0  0
 21  6  1  6  0  0  0
 21 11  1  0  0  0  0
 22 20  1  0  0  0  0
 23 16  1  0  0  0  0
 23 22  2  0  0  0  0
 24  2  1  0  0  0  0
 25  1  1  0  0  0  0
 26 25  3  0  0  0  0
 27 26  1  0  0  0  0
 28 29  3  0  0  0  0
 31 30  1  0  0  0  0
M  END
>  <MODEL>
1

>  <REMARK>
 VINA RESULT:      -6.8      0.000      0.000
  Name = 
  3 active torsions:
  status: ('A' for Active; 'I' for Inactive)
    1  A    between atoms: C_1  and  C_11
    2  A    between atoms: C_2  and  C_26
    3  A    between atoms: C_6  and  C_29
                            x       y       z     vdW  Elec       q    Type
                         _______ _______ _______ _____ _____    ______ ____

>  <TORSDO>
F 3

$$$$
=
 OpenBabel10232411523D

 31 35  0  0  1  0  0  0  0  0999 V2000
  188.5590  177.4100  138.8700 C   0  0  0  0  0  0  0  0  0  0  0  0
  188.4140  177.8750  141.3610 C   0  0  0  0  0  0  0  0  0  0  0  0
  187.6110  174.3980  137.3410 C   0  0  0  0  0  3  0  0  0  0  0  0
  191.7070  175.0160  136.3260 C   0  0  0  0  0  3  0  0  0  0  0  0
  190.8530  174.1940  135.5690 C   0  0  1  0  0  3  0  0  0  0  0  0
  189.8760  175.5240  137.8400 C   0  0  0  0  0  0  0  0  0  0  0  0
  187.2300  177.9670  143.5250 N   0  0  0  0  0  0  0  0  0  0  0  0
  190.8500  177.3870  140.7980 C   0  0  0  0  0  3  0  0  0  0  0  0
  189.7430  177.5480  141.7910 C   0  0  0  0  0  0  0  0  0  0  0  0
  192.1930  176.7080  138.5190 S   0  0  0  0  0  0  0  0  0  0  0  0
  190.7640  176.8130  139.6030 C   0  0  0  0  0  0  0  0  0  0  0  0
  186.2040  178.4480  141.6320 O   0  0  0  0  0  0  0  0  0  0  0  0
  191.2050  175.6720  137.4590 C   0  0  0  0  0  0  0  0  0  0  0  0
  189.0360  174.6990  137.0870 C   0  0  0  0  0  0  0  0  0  0  0  0
  189.5130  174.0570  135.9700 C   0  0  0  0  0  0  0  0  0  0  0  0
  191.5920  177.1860  143.3500 N   0  0  0  0  0  1  0  0  0  0  0  0
  187.2860  178.1050  142.1850 C   0  0  0  0  0  0  0  0  0  0  0  0
  188.4630  173.2440  135.3160 C   0  0  0  0  0  3  0  0  0  0  0  0
  187.2190  173.4670  136.1860 C   0  0  0  0  0  3  0  0  0  0  0  0
  188.1330  177.6550  144.4690 C   0  0  0  0  0  0  0  0  0  0  0  0
  189.4880  176.2510  139.0870 C   0  0  1  0  0  3  0  0  0  0  0  0
  189.4400  177.4550  144.2380 N   0  0  0  0  0  0  0  0  0  0  0  0
  190.1990  177.4240  143.1250 C   0  0  0  0  0  0  0  0  0  0  0  0
  188.1140  178.1090  139.9120 C   0  0  0  0  0  3  0  0  0  0  0  0
  188.1720  177.8450  137.5490 C   0  0  0  0  0  0  0  0  0  0  0  0
  187.8420  178.2070  136.4470 C   0  0  0  0  0  0  0  0  0  0  0  0
  187.4670  178.6140  135.2000 O   0  0  0  0  0  1  0  0  0  0  0  0
  187.6790  177.5920  145.8280 C   0  0  0  0  0  0  0  0  0  0  0  0
  187.3130  177.5410  146.9250 N   0  0  0  0  0  0  0  0  0  0  0  0
  192.7550  173.3800  134.4330 O   0  0  0  0  0  1  0  0  0  0  0  0
  191.3710  173.5170  134.3460 C   0  0  0  0  0  2  0  0  0  0  0  0
  1 21  1  0  0  0  0
  1 24  2  0  0  0  0
  2  9  2  0  0  0  0
  2 17  1  0  0  0  0
  4 13  2  0  0  0  0
  5 31  1  6  0  0  0
  5 15  1  0  0  0  0
  5  4  1  0  0  0  0
  7 20  2  0  0  0  0
  8  9  1  0  0  0  0
  9 23  1  0  0  0  0
 10 11  1  0  0  0  0
 11  8  2  0  0  0  0
 12 17  2  0  0  0  0
 13  6  1  0  0  0  0
 13 10  1  0  0  0  0
 14  3  1  0  0  0  0
 14  6  2  0  0  0  0
 15 14  1  0  0  0  0
 17  7  1  0  0  0  0
 18 15  2  0  0  0  0
 18 19  1  0  0  0  0
 19  3  2  0  0  0  0
 20 28  1  0  0  0  0
 21  6  1  6  0  0  0
 21 11  1  0  0  0  0
 22 20  1  0  0  0  0
 23 16  1  0  0  0  0
 23 22  2  0  0  0  0
 24  2  1  0  0  0  0
 25  1  1  0  0  0  0
 26 25  3  0  0  0  0
 27 26  1  0  0  0  0
 28 29  3  0  0  0  0
 31 30  1  0  0  0  0
M  END
>  <MODEL>
2

>  <REMARK>
 VINA RESULT:      -6.6      1.116      1.234
  Name = 
  3 active torsions:
  status: ('A' for Active; 'I' for Inactive)
    1  A    between atoms: C_1  and  C_11
    2  A    between atoms: C_2  and  C_26
    3  A    between atoms: C_6  and  C_29
                            x       y       z     vdW  Elec       q    Type
                         _______ _______ _______ _____ _____    ______ ____

>  <TORSDO>
F 3

$$$$
=
 OpenBabel10232411523D

 31 35  0  0  1  0  0  0  0  0999 V2000
  183.2090  178.7020  141.3220 C   0  0  0  0  0  0  0  0  0  0  0  0
  184.8500  178.6730  143.2590 C   0  0  0  0  0  0  0  0  0  0  0  0
  181.2850  175.9540  140.2930 C   0  0  0  0  0  3  0  0  0  0  0  0
  183.5800  177.1460  136.9010 C   0  0  0  0  0  3  0  0  0  0  0  0
  182.3910  176.4030  136.7900 C   0  0  0  0  0  0  0  0  0  0  0  0
  183.3340  177.1810  139.3180 C   0  0  0  0  0  0  0  0  0  0  0  0
  185.4930  178.2410  145.6020 N   0  0  0  0  0  0  0  0  0  0  0  0
  186.1900  178.5390  141.0960 C   0  0  0  0  0  3  0  0  0  0  0  0
  186.0860  178.4020  142.5820 C   0  0  0  0  0  0  0  0  0  0  0  0
  185.5460  178.4350  138.4450 S   0  0  0  0  0  0  0  0  0  0  0  0
  185.2690  178.1940  140.2030 C   0  0  0  0  0  0  0  0  0  0  0  0
  183.4770  178.9680  145.0790 O   0  0  0  0  0  0  0  0  0  0  0  0
  184.0390  177.5250  138.1710 C   0  0  0  0  0  0  0  0  0  0  0  0
  182.1570  176.4340  139.1990 C   0  0  0  0  0  0  0  0  0  0  0  0
  181.6920  176.0630  137.9610 C   0  0  0  0  0  0  0  0  0  0  0  0
  188.4730  177.9330  142.3320 N   0  0  0  0  0  1  0  0  0  0  0  0
  184.6180  178.6330  144.6550 C   0  0  0  0  0  0  0  0  0  0  0  0
  180.4330  175.2900  138.0580 C   0  0  0  0  0  3  0  0  0  0  0  0
  180.1500  175.2230  139.5650 C   0  0  0  0  0  2  0  0  0  0  0  0
  186.7760  177.8460  145.5810 C   0  0  0  0  0  0  0  0  0  0  0  0
  183.9580  177.6180  140.6030 C   0  0  1  0  0  3  0  0  0  0  0  0
  187.5480  177.8210  144.4820 N   0  0  0  0  0  0  0  0  0  0  0  0
  187.3270  178.0730  143.1770 C   0  0  0  0  0  0  0  0  0  0  0  0
  183.6490  179.1450  142.4990 C   0  0  0  0  0  3  0  0  0  0  0  0
  182.0450  179.3380  140.7530 C   0  0  0  0  0  0  0  0  0  0  0  0
  181.0770  179.8730  140.2730 C   0  0  0  0  0  0  0  0  0  0  0  0
  179.9820  180.4810  139.7300 O   0  0  0  0  0  1  0  0  0  0  0  0
  187.3830  177.4840  146.8290 C   0  0  0  0  0  0  0  0  0  0  0  0
  187.8720  177.1920  147.8370 N   0  0  0  0  0  0  0  0  0  0  0  0
  182.4160  174.7910  135.0660 O   0  0  0  0  0  1  0  0  0  0  0  0
  181.8800  176.0210  135.4420 C   0  0  0  0  0  2  0  0  0  0  0  0
  1 24  2  0  0  0  0
  2 17  1  0  0  0  0
  4 13  1  0  0  0  0
  5  4  2  0  0  0  0
  5 15  1  0  0  0  0
  8  9  1  0  0  0  0
  9 23  1  0  0  0  0
  9  2  2  0  0  0  0
 10 11  1  0  0  0  0
 11 21  1  0  0  0  0
 11  8  2  0  0  0  0
 13 10  1  0  0  0  0
 13  6  2  0  0  0  0
 14  6  1  0  0  0  0
 14  3  2  0  0  0  0
 15 18  2  0  0  0  0
 15 14  1  0  0  0  0
 16 23  1  0  0  0  0
 17 12  2  0  0  0  0
 17  7  1  0  0  0  0
 18 19  1  0  0  0  0
 19  3  1  0  0  0  0
 20  7  2  0  0  0  0
 20 28  1  0  0  0  0
 21  6  1  6  0  0  0
 21  1  1  0  0  0  0
 22 20  1  0  0  0  0
 23 22  2  0  0  0  0
 24  2  1  0  0  0  0
 25  1  1  0  0  0  0
 26 25  3  0  0  0  0
 27 26  1  0  0  0  0
 28 29  3  0  0  0  0
 30 31  1  0  0  0  0
 31  5  1  0  0  0  0
M  END
>  <MODEL>
3

>  <REMARK>
 VINA RESULT:      -6.2      6.203      7.568
  Name = 
  3 active torsions:
  status: ('A' for Active; 'I' for Inactive)
    1  A    between atoms: C_1  and  C_11
    2  A    between atoms: C_2  and  C_26
    3  A    between atoms: C_6  and  C_29
                            x       y       z     vdW  Elec       q    Type
                         _______ _______ _______ _____ _____    ______ ____

>  <TORSDO>
F 3

$$$$
=
 OpenBabel10232411523D

 31 35  0  0  1  0  0  0  0  0999 V2000
  190.7560  178.1280  142.2910 C   0  0  0  0  0  0  0  0  0  0  0  0
  191.4000  177.1020  140.0590 C   0  0  0  0  0  0  0  0  0  0  0  0
  190.4920  176.3520  145.3050 C   0  0  0  0  0  3  0  0  0  0  0  0
  186.6870  178.1610  144.6450 C   0  0  0  0  0  3  0  0  0  0  0  0
  187.1240  177.7570  145.9200 C   0  0  0  0  0  0  0  0  0  0  0  0
  188.7850  177.4040  143.6830 C   0  0  0  0  0  0  0  0  0  0  0  0
  192.8570  175.7650  138.5830 N   0  0  0  0  0  0  0  0  0  0  0  0
  188.8780  177.4610  140.0560 C   0  0  0  0  0  3  0  0  0  0  0  0
  190.1130  176.8410  139.4830 C   0  0  0  0  0  0  0  0  0  0  0  0
  187.0740  178.4130  141.8710 S   0  0  0  0  0  0  0  0  0  0  0  0
  188.6070  177.6390  141.3450 C   0  0  0  0  0  0  0  0  0  0  0  0
  193.6940  177.0160  140.1960 O   0  0  0  0  0  0  0  0  0  0  0  0
  187.5270  177.9770  143.5380 C   0  0  0  0  0  0  0  0  0  0  0  0
  189.2090  176.9970  144.9520 C   0  0  0  0  0  0  0  0  0  0  0  0
  188.3990  177.1790  146.0470 C   0  0  0  0  0  0  0  0  0  0  0  0
  188.4910  176.0210  137.8470 N   0  0  0  0  0  1  0  0  0  0  0  0
  192.6520  176.6280  139.5970 C   0  0  0  0  0  0  0  0  0  0  0  0
  189.0390  176.6890  147.2880 C   0  0  0  0  0  3  0  0  0  0  0  0
  190.4030  176.1620  146.8240 C   0  0  0  0  0  2  0  0  0  0  0  0
  192.0500  175.1540  137.7000 C   0  0  0  0  0  0  0  0  0  0  0  0
  189.5570  177.2350  142.4150 C   0  0  1  0  0  3  0  0  0  0  0  0
  190.7250  175.3570  137.6100 N   0  0  0  0  0  0  0  0  0  0  0  0
  189.8400  176.0850  138.3180 C   0  0  0  0  0  0  0  0  0  0  0  0
  191.5440  178.0380  141.2200 C   0  0  0  0  0  3  0  0  0  0  0  0
  191.0630  179.1420  143.2720 C   0  0  0  0  0  0  0  0  0  0  0  0
  191.3190  179.9840  144.0960 C   0  0  0  0  0  0  0  0  0  0  0  0
  191.6060  180.9370  145.0300 O   0  0  0  0  0  1  0  0  0  0  0  0
  192.6540  174.2680  136.7480 C   0  0  0  0  0  0  0  0  0  0  0  0
  193.1420  173.5530  135.9790 N   0  0  0  0  0  0  0  0  0  0  0  0
  185.6070  179.2080  146.9970 O   0  0  0  0  0  1  0  0  0  0  0  0
  186.2500  177.9760  147.1070 C   0  0  0  0  0  2  0  0  0  0  0  0
  1 21  1  0  0  0  0
  1 25  1  0  0  0  0
  2 24  1  0  0  0  0
  3 19  1  0  0  0  0
  4  5  2  0  0  0  0
  5 15  1  0  0  0  0
  5 31  1  0  0  0  0
  6 14  1  0  0  0  0
  7 17  1  0  0  0  0
  8 11  2  0  0  0  0
  9  8  1  0  0  0  0
  9  2  2  0  0  0  0
 10 13  1  0  0  0  0
 11 10  1  0  0  0  0
 13  6  2  0  0  0  0
 13  4  1  0  0  0  0
 14  3  2  0  0  0  0
 14 15  1  0  0  0  0
 15 18  2  0  0  0  0
 16 23  1  0  0  0  0
 17  2  1  0  0  0  0
 17 12  2  0  0  0  0
 19 18  1  0  0  0  0
 20  7  2  0  0  0  0
 21 11  1  6  0  0  0
 21  6  1  0  0  0  0
 22 20  1  0  0  0  0
 22 23  2  0  0  0  0
 23  9  1  0  0  0  0
 24  1  2  0  0  0  0
 25 26  3  0  0  0  0
 26 27  1  0  0  0  0
 28 20  1  0  0  0  0
 29 28  3  0  0  0  0
 30 31  1  0  0  0  0
M  END
>  <MODEL>
4

>  <REMARK>
 VINA RESULT:      -6.1      3.763      8.794
  Name = 
  3 active torsions:
  status: ('A' for Active; 'I' for Inactive)
    1  A    between atoms: C_1  and  C_11
    2  A    between atoms: C_2  and  C_26
    3  A    between atoms: C_6  and  C_29
                            x       y       z     vdW  Elec       q    Type
                         _______ _______ _______ _____ _____    ______ ____

>  <TORSDO>
F 3

$$$$
=
 OpenBabel10232411523D

 31 35  0  0  1  0  0  0  0  0999 V2000
  189.1820  174.6320  137.1020 C   0  0  0  0  0  0  0  0  0  0  0  0
  191.6960  174.4480  136.8050 C   0  0  0  0  0  0  0  0  0  0  0  0
  187.0470  176.4460  134.9900 C   0  0  0  0  0  3  0  0  0  0  0  0
  186.4990  178.0460  138.9060 C   0  0  0  0  0  3  0  0  0  0  0  0
  185.5350  178.1780  137.8900 C   0  0  0  0  0  0  0  0  0  0  0  0
  187.9280  176.7990  137.3880 C   0  0  0  0  0  0  0  0  0  0  0  0
  193.7370  173.9730  135.5010 N   0  0  0  0  0  0  0  0  0  0  0  0
  191.2500  176.1150  138.6800 C   0  0  0  0  0  3  0  0  0  0  0  0
  192.1630  175.4920  137.6720 C   0  0  0  0  0  0  0  0  0  0  0  0
  189.0010  177.1520  139.8290 S   0  0  0  0  0  0  0  0  0  0  0  0
  189.9660  176.4100  138.5080 C   0  0  0  0  0  0  0  0  0  0  0  0
  191.8900  172.8000  135.2140 O   0  0  0  0  0  0  0  0  0  0  0  0
  187.6900  177.3550  138.6390 C   0  0  0  0  0  0  0  0  0  0  0  0
  186.9690  176.9430  136.3810 C   0  0  1  0  0  3  0  0  0  0  0  0
  185.7940  177.6100  136.6310 C   0  0  0  0  0  0  0  0  0  0  0  0
  193.7720  176.9750  138.7640 N   0  0  0  0  0  1  0  0  0  0  0  0
  192.4550  173.7370  135.8450 C   0  0  0  0  0  0  0  0  0  0  0  0
  184.9180  177.6400  135.4390 C   0  0  0  0  0  3  0  0  0  0  0  0
  185.7120  176.8770  134.3700 C   0  0  0  0  0  3  0  0  0  0  0  0
  194.6760  174.8300  135.9320 C   0  0  0  0  0  0  0  0  0  0  0  0
  189.2530  176.1250  137.2350 C   0  0  1  0  0  3  0  0  0  0  0  0
  194.5170  175.6820  136.9590 N   0  0  0  0  0  0  0  0  0  0  0  0
  193.4830  175.9950  137.7630 C   0  0  0  0  0  0  0  0  0  0  0  0
  190.2970  173.9270  136.9200 C   0  0  0  0  0  3  0  0  0  0  0  0
  187.9390  173.9090  137.2280 C   0  0  0  0  0  0  0  0  0  0  0  0
  186.8970  173.3090  137.3300 C   0  0  0  0  0  0  0  0  0  0  0  0
  185.7180  172.6320  137.4440 O   0  0  0  0  0  1  0  0  0  0  0  0
  195.9590  174.7910  135.2920 C   0  0  0  0  0  0  0  0  0  0  0  0
  196.9940  174.7590  134.7750 N   0  0  0  0  0  0  0  0  0  0  0  0
  184.4840  179.9500  139.0420 O   0  0  0  0  0  1  0  0  0  0  0  0
  184.2530  178.8850  138.1730 C   0  0  0  0  0  2  0  0  0  0  0  0
  1 25  1  0  0  0  0
  2 24  1  0  0  0  0
  2  9  2  0  0  0  0
  5 31  1  0  0  0  0
  5  4  2  0  0  0  0
  6 13  2  0  0  0  0
  7 17  1  0  0  0  0
  7 20  2  0  0  0  0
  9 23  1  0  0  0  0
  9  8  1  0  0  0  0
 11  8  2  0  0  0  0
 11 10  1  0  0  0  0
 12 17  2  0  0  0  0
 13  4  1  0  0  0  0
 13 10  1  0  0  0  0
 14  3  1  6  0  0  0
 14 15  1  0  0  0  0
 14  6  1  0  0  0  0
 15  5  1  0  0  0  0
 17  2  1  0  0  0  0
 18 15  2  0  0  0  0
 19  3  2  0  0  0  0
 19 18  1  0  0  0  0
 20 22  1  0  0  0  0
 21  1  1  1  0  0  0
 21  6  1  0  0  0  0
 21 11  1  0  0  0  0
 22 23  2  0  0  0  0
 23 16  1  0  0  0  0
 24  1  2  0  0  0  0
 25 26  3  0  0  0  0
 26 27  1  0  0  0  0
 28 20  1  0  0  0  0
 29 28  3  0  0  0  0
 31 30  1  0  0  0  0
M  END
>  <MODEL>
5

>  <REMARK>
 VINA RESULT:      -5.4      3.829      7.481
  Name = 
  3 active torsions:
  status: ('A' for Active; 'I' for Inactive)
    1  A    between atoms: C_1  and  C_11
    2  A    between atoms: C_2  and  C_26
    3  A    between atoms: C_6  and  C_29
                            x       y       z     vdW  Elec       q    Type
                         _______ _______ _______ _____ _____    ______ ____

>  <TORSDO>
F 3

$$$$
=
 OpenBabel10232411523D

 31 35  0  0  1  0  0  0  0  0999 V2000
  184.9380  178.5330  139.6530 C   0  0  0  0  0  0  0  0  0  0  0  0
  186.9910  178.3260  141.1330 C   0  0  0  0  0  0  0  0  0  0  0  0
  182.5390  176.0140  139.2020 C   0  0  0  0  0  3  0  0  0  0  0  0
  184.0470  176.9380  135.3210 C   0  0  0  0  0  3  0  0  0  0  0  0
  182.7950  176.3310  135.5240 C   0  0  0  0  0  0  0  0  0  0  0  0
  184.4050  177.0040  137.7230 C   0  0  0  0  0  0  0  0  0  0  0  0
  188.1380  177.8300  143.2610 N   0  0  0  0  0  0  0  0  0  0  0  0
  187.7380  178.0400  138.7140 C   0  0  0  0  0  3  0  0  0  0  0  0
  187.9870  177.9180  140.1840 C   0  0  0  0  0  0  0  0  0  0  0  0
  186.4580  178.0030  136.3030 S   0  0  0  0  0  0  0  0  0  0  0  0
  186.5950  177.7980  138.0820 C   0  0  0  0  0  0  0  0  0  0  0  0
  186.1450  178.7750  143.2230 O   0  0  0  0  0  0  0  0  0  0  0  0
  184.8410  177.2660  136.4300 C   0  0  0  0  0  0  0  0  0  0  0  0
  183.1630  176.3920  137.9160 C   0  0  0  0  0  0  0  0  0  0  0  0
  182.3710  176.0730  136.8390 C   0  0  0  0  0  0  0  0  0  0  0  0
  190.1760  177.1880  139.3750 N   0  0  0  0  0  1  0  0  0  0  0  0
  187.1050  178.3150  142.5440 C   0  0  0  0  0  0  0  0  0  0  0  0
  181.1000  175.4450  137.2620 C   0  0  0  0  0  3  0  0  0  0  0  0
  181.1880  175.4120  138.7930 C   0  0  0  0  0  2  0  0  0  0  0  0
  189.3270  177.2950  142.9400 C   0  0  0  0  0  0  0  0  0  0  0  0
  185.3680  177.3720  138.8050 C   0  0  1  0  0  3  0  0  0  0  0  0
  189.7990  177.1820  141.6870 N   0  0  0  0  0  0  0  0  0  0  0  0
  189.2940  177.4550  140.4690 C   0  0  0  0  0  0  0  0  0  0  0  0
  185.6980  178.9270  140.6740 C   0  0  0  0  0  3  0  0  0  0  0  0
  183.7460  179.2940  139.3660 C   0  0  0  0  0  0  0  0  0  0  0  0
  182.7470  179.9250  139.1230 C   0  0  0  0  0  0  0  0  0  0  0  0
  181.6170  180.6370  138.8450 O   0  0  0  0  0  1  0  0  0  0  0  0
  190.1780  176.8700  144.0130 C   0  0  0  0  0  0  0  0  0  0  0  0
  190.8650  176.5270  144.8800 N   0  0  0  0  0  0  0  0  0  0  0  0
  181.6390  174.6430  134.3460 O   0  0  0  0  0  1  0  0  0  0  0  0
  181.9320  176.0060  134.3530 C   0  0  0  0  0  2  0  0  0  0  0  0
  1 24  2  0  0  0  0
  2 17  1  0  0  0  0
  4  5  2  0  0  0  0
  4 13  1  0  0  0  0
  5 15  1  0  0  0  0
  6 14  1  0  0  0  0
  8  9  1  0  0  0  0
  9 23  1  0  0  0  0
  9  2  2  0  0  0  0
 10 13  1  0  0  0  0
 10 11  1  0  0  0  0
 11  8  2  0  0  0  0
 11 21  1  0  0  0  0
 13  6  2  0  0  0  0
 14  3  2  0  0  0  0
 15 18  2  0  0  0  0
 15 14  1  0  0  0  0
 16 23  1  0  0  0  0
 17 12  2  0  0  0  0
 17  7  1  0  0  0  0
 18 19  1  0  0  0  0
 19  3  1  0  0  0  0
 20  7  2  0  0  0  0
 20 28  1  0  0  0  0
 21  6  1  6  0  0  0
 21  1  1  0  0  0  0
 22 20  1  0  0  0  0
 23 22  2  0  0  0  0
 24  2  1  0  0  0  0
 25  1  1  0  0  0  0
 26 25  3  0  0  0  0
 27 26  1  0  0  0  0
 28 29  3  0  0  0  0
 30 31  1  0  0  0  0
 31  5  1  0  0  0  0
M  END
>  <MODEL>
6

>  <REMARK>
 VINA RESULT:      -5.3      4.813      6.637
  Name = 
  3 active torsions:
  status: ('A' for Active; 'I' for Inactive)
    1  A    between atoms: C_1  and  C_11
    2  A    between atoms: C_2  and  C_26
    3  A    between atoms: C_6  and  C_29
                            x       y       z     vdW  Elec       q    Type
                         _______ _______ _______ _____ _____    ______ ____

>  <TORSDO>
F 3

$$$$
=
 OpenBabel10232411523D

 31 35  0  0  1  0  0  0  0  0999 V2000
  185.3800  176.5020  136.6290 C   0  0  0  0  0  0  0  0  0  0  0  0
  187.8840  176.6240  137.0310 C   0  0  0  0  0  0  0  0  0  0  0  0
  182.9480  176.5070  139.1580 C   0  0  0  0  0  3  0  0  0  0  0  0
  182.3480  172.9210  136.9290 C   0  0  0  0  0  3  0  0  0  0  0  0
  181.3360  173.5060  137.7120 C   0  0  0  0  0  0  0  0  0  0  0  0
  183.8680  174.7110  137.5530 C   0  0  0  0  0  0  0  0  0  0  0  0
  189.9170  177.6230  138.0100 N   0  0  0  0  0  0  0  0  0  0  0  0
  187.2970  174.2070  136.4790 C   0  0  0  0  0  3  0  0  0  0  0  0
  188.2440  175.2350  137.0110 C   0  0  0  0  0  0  0  0  0  0  0  0
  184.9780  172.8720  135.9340 S   0  0  0  0  0  0  0  0  0  0  0  0
  185.9800  174.1790  136.6510 C   0  0  0  0  0  0  0  0  0  0  0  0
  188.2280  178.8760  137.3410 O   0  0  0  0  0  0  0  0  0  0  0  0
  183.6070  173.5340  136.8610 C   0  0  0  0  0  0  0  0  0  0  0  0
  182.8600  175.2810  138.3360 C   0  0  0  0  0  0  0  0  0  0  0  0
  181.6190  174.6960  138.4050 C   0  0  0  0  0  0  0  0  0  0  0  0
  189.6870  173.2700  137.1980 N   0  0  0  0  0  1  0  0  0  0  0  0
  188.6910  177.7060  137.4560 C   0  0  0  0  0  0  0  0  0  0  0  0
  180.7010  175.4610  139.2780 C   0  0  0  0  0  3  0  0  0  0  0  0
  181.5450  176.6470  139.7630 C   0  0  0  0  0  2  0  0  0  0  0  0
  190.7520  176.6070  138.2780 C   0  0  0  0  0  0  0  0  0  0  0  0
  185.2620  175.2310  137.4190 C   0  0  1  0  0  3  0  0  0  0  0  0
  190.5240  175.3250  137.9490 N   0  0  0  0  0  0  0  0  0  0  0  0
  189.4900  174.6740  137.3810 C   0  0  0  0  0  0  0  0  0  0  0  0
  186.5700  177.0810  136.4770 C   0  0  0  0  0  3  0  0  0  0  0  0
  184.2470  177.1000  135.9640 C   0  0  0  0  0  0  0  0  0  0  0  0
  183.3030  177.6050  135.4090 C   0  0  0  0  0  0  0  0  0  0  0  0
  182.2350  178.1790  134.7830 O   0  0  0  0  0  1  0  0  0  0  0  0
  192.0040  176.9210  138.9050 C   0  0  0  0  0  0  0  0  0  0  0  0
  193.0140  177.1750  139.4110 N   0  0  0  0  0  0  0  0  0  0  0  0
  180.0730  171.5390  137.3890 O   0  0  0  0  0  1  0  0  0  0  0  0
  179.9860  172.8780  137.7660 C   0  0  0  0  0  2  0  0  0  0  0  0
  2 17  1  0  0  0  0
  3 19  1  0  0  0  0
  4  5  2  0  0  0  0
  5 31  1  0  0  0  0
  5 15  1  0  0  0  0
  6 14  1  0  0  0  0
  7 20  2  0  0  0  0
  8 11  2  0  0  0  0
  8  9  1  0  0  0  0
  9  2  2  0  0  0  0
  9 23  1  0  0  0  0
 10 11  1  0  0  0  0
 10 13  1  0  0  0  0
 11 21  1  0  0  0  0
 12 17  2  0  0  0  0
 13  4  1  0  0  0  0
 13  6  2  0  0  0  0
 14 15  1  0  0  0  0
 14  3  2  0  0  0  0
 15 18  2  0  0  0  0
 16 23  1  0  0  0  0
 17  7  1  0  0  0  0
 18 19  1  0  0  0  0
 20 28  1  0  0  0  0
 21  1  1  6  0  0  0
 21  6  1  0  0  0  0
 22 20  1  0  0  0  0
 23 22  2  0  0  0  0
 24  1  2  0  0  0  0
 24  2  1  0  0  0  0
 25  1  1  0  0  0  0
 26 25  3  0  0  0  0
 27 26  1  0  0  0  0
 28 29  3  0  0  0  0
 30 31  1  0  0  0  0
M  END
>  <MODEL>
7

>  <REMARK>
 VINA RESULT:      -5.3      5.532      7.863
  Name = 
  3 active torsions:
  status: ('A' for Active; 'I' for Inactive)
    1  A    between atoms: C_1  and  C_11
    2  A    between atoms: C_2  and  C_26
    3  A    between atoms: C_6  and  C_29
                            x       y       z     vdW  Elec       q    Type
                         _______ _______ _______ _____ _____    ______ ____

>  <TORSDO>
F 3

$$$$
=
 OpenBabel10232411523D

 31 35  0  0  1  0  0  0  0  0999 V2000
  189.9730  177.9940  141.8340 C   0  0  0  0  0  0  0  0  0  0  0  0
  190.3420  176.8450  139.6000 C   0  0  0  0  0  0  0  0  0  0  0  0
  189.5970  176.3300  144.8990 C   0  0  0  0  0  3  0  0  0  0  0  0
  186.0780  178.6830  144.3770 C   0  0  0  0  0  3  0  0  0  0  0  0
  186.5140  178.2380  145.6380 C   0  0  0  0  0  0  0  0  0  0  0  0
  187.9880  177.6010  143.3350 C   0  0  0  0  0  0  0  0  0  0  0  0
  191.5040  175.2790  138.0890 N   0  0  0  0  0  0  0  0  0  0  0  0
  187.9050  177.5820  139.7070 C   0  0  0  0  0  3  0  0  0  0  0  0
  189.0020  176.7730  139.0920 C   0  0  0  0  0  0  0  0  0  0  0  0
  186.3580  178.8270  141.5820 S   0  0  0  0  0  0  0  0  0  0  0  0
  187.7290  177.8210  141.0020 C   0  0  0  0  0  0  0  0  0  0  0  0
  192.6000  176.4150  139.6290 O   0  0  0  0  0  0  0  0  0  0  0  0
  186.8250  178.3550  143.2350 C   0  0  0  0  0  0  0  0  0  0  0  0
  188.4090  177.1550  144.5910 C   0  0  0  0  0  0  0  0  0  0  0  0
  187.6920  177.4760  145.7190 C   0  0  0  0  0  0  0  0  0  0  0  0
  187.1950  176.1800  137.5540 N   0  0  0  0  0  1  0  0  0  0  0  0
  191.4830  176.1790  139.0900 C   0  0  0  0  0  0  0  0  0  0  0  0
  188.3120  176.9160  146.9400 C   0  0  0  0  0  3  0  0  0  0  0  0
  189.5570  176.1810  146.4250 C   0  0  0  0  0  2  0  0  0  0  0  0
  190.5710  174.7810  137.2600 C   0  0  0  0  0  0  0  0  0  0  0  0
  188.6600  177.2950  142.0360 C   0  0  1  0  0  3  0  0  0  0  0  0
  189.2890  175.1820  137.2280 N   0  0  0  0  0  0  0  0  0  0  0  0
  188.5600  176.0470  137.9590 C   0  0  0  0  0  0  0  0  0  0  0  0
  190.6820  177.7680  140.7290 C   0  0  0  0  0  3  0  0  0  0  0  0
  190.4770  178.9660  142.7740 C   0  0  0  0  0  0  0  0  0  0  0  0
  190.9030  179.7730  143.5620 C   0  0  0  0  0  0  0  0  0  0  0  0
  191.3840  180.6850  144.4570 O   0  0  0  0  0  1  0  0  0  0  0  0
  190.9870  173.7990  136.3020 C   0  0  0  0  0  0  0  0  0  0  0  0
  191.3220  173.0050  135.5290 N   0  0  0  0  0  0  0  0  0  0  0  0
  184.4380  178.1310  146.7550 O   0  0  0  0  0  1  0  0  0  0  0  0
  185.7430  178.6080  146.8590 C   0  0  0  0  0  2  0  0  0  0  0  0
  1 21  1  0  0  0  0
  1 25  1  0  0  0  0
  2 24  1  0  0  0  0
  3 19  1  0  0  0  0
  4  5  2  0  0  0  0
  5 15  1  0  0  0  0
  5 31  1  0  0  0  0
  6 14  1  0  0  0  0
  7 17  1  0  0  0  0
  8 11  2  0  0  0  0
  9  2  2  0  0  0  0
  9  8  1  0  0  0  0
 10 13  1  0  0  0  0
 11 10  1  0  0  0  0
 13  6  2  0  0  0  0
 13  4  1  0  0  0  0
 14  3  2  0  0  0  0
 14 15  1  0  0  0  0
 15 18  2  0  0  0  0
 16 23  1  0  0  0  0
 17  2  1  0  0  0  0
 17 12  2  0  0  0  0
 19 18  1  0  0  0  0
 20  7  2  0  0  0  0
 21 11  1  6  0  0  0
 21  6  1  0  0  0  0
 22 20  1  0  0  0  0
 22 23  2  0  0  0  0
 23  9  1  0  0  0  0
 24  1  2  0  0  0  0
 25 26  3  0  0  0  0
 26 27  1  0  0  0  0
 28 20  1  0  0  0  0
 29 28  3  0  0  0  0
 30 31  1  0  0  0  0
M  END
>  <MODEL>
8

>  <REMARK>
 VINA RESULT:      -5.1      3.672      8.741
  Name = 
  3 active torsions:
  status: ('A' for Active; 'I' for Inactive)
    1  A    between atoms: C_1  and  C_11
    2  A    between atoms: C_2  and  C_26
    3  A    between atoms: C_6  and  C_29
                            x       y       z     vdW  Elec       q    Type
                         _______ _______ _______ _____ _____    ______ ____

>  <TORSDO>
F 3

$$$$
=
 OpenBabel10232411523D

 31 35  0  0  1  0  0  0  0  0999 V2000
  183.7800  178.3700  142.0420 C   0  0  0  0  0  0  0  0  0  0  0  0
  186.1530  178.1220  142.9110 C   0  0  0  0  0  0  0  0  0  0  0  0
  181.8450  175.7480  140.7420 C   0  0  0  0  0  3  0  0  0  0  0  0
  182.0830  178.6960  137.6700 C   0  0  0  0  0  3  0  0  0  0  0  0
  181.0600  177.7330  137.7190 C   0  0  0  0  0  0  0  0  0  0  0  0
  183.0440  177.7820  139.7050 C   0  0  0  0  0  0  0  0  0  0  0  0
  187.8910  177.0800  144.3200 N   0  0  0  0  0  0  0  0  0  0  0  0
  186.2750  179.1740  140.5940 C   0  0  0  0  0  3  0  0  0  0  0  0
  186.9200  178.4850  141.7550 C   0  0  0  0  0  0  0  0  0  0  0  0
  184.4330  179.8520  138.6960 S   0  0  0  0  0  0  0  0  0  0  0  0
  185.0690  178.9230  140.0960 C   0  0  0  0  0  0  0  0  0  0  0  0
  185.8210  177.3270  145.0430 O   0  0  0  0  0  0  0  0  0  0  0  0
  183.0680  178.7070  138.6680 C   0  0  0  0  0  0  0  0  0  0  0  0
  182.0280  176.8220  139.7420 C   0  0  0  0  0  0  0  0  0  0  0  0
  181.0530  176.8050  138.7750 C   0  0  0  0  0  0  0  0  0  0  0  0
  188.9130  178.8540  140.3870 N   0  0  0  0  0  1  0  0  0  0  0  0
  186.6350  177.5150  144.0960 C   0  0  0  0  0  0  0  0  0  0  0  0
  180.0730  175.7190  139.0040 C   0  0  0  0  0  3  0  0  0  0  0  0
  180.5670  175.0340  140.2850 C   0  0  0  0  0  2  0  0  0  0  0  0
  189.0290  177.1100  143.6090 C   0  0  0  0  0  0  0  0  0  0  0  0
  184.1750  177.8870  140.6760 C   0  0  1  0  0  3  0  0  0  0  0  0
  189.1670  177.7090  142.4150 N   0  0  0  0  0  0  0  0  0  0  0  0
  188.3170  178.3400  141.5810 C   0  0  0  0  0  0  0  0  0  0  0  0
  184.6980  178.4650  143.0030 C   0  0  0  0  0  3  0  0  0  0  0  0
  182.4370  178.8010  142.3460 C   0  0  0  0  0  0  0  0  0  0  0  0
  181.3140  179.1570  142.6040 C   0  0  0  0  0  0  0  0  0  0  0  0
  180.0420  179.5580  142.8960 O   0  0  0  0  0  1  0  0  0  0  0  0
  190.1960  176.5150  144.1940 C   0  0  0  0  0  0  0  0  0  0  0  0
  191.1370  176.0340  144.6660 N   0  0  0  0  0  0  0  0  0  0  0  0
  180.3210  176.8330  135.6660 O   0  0  0  0  0  1  0  0  0  0  0  0
  179.9920  177.7330  136.6780 C   0  0  0  0  0  2  0  0  0  0  0  0
  1 25  1  0  0  0  0
  1 24  2  0  0  0  0
  2 24  1  0  0  0  0
  2 17  1  0  0  0  0
  4  5  2  0  0  0  0
  4 13  1  0  0  0  0
  5 15  1  0  0  0  0
  6 14  1  0  0  0  0
  8  9  1  0  0  0  0
  9  2  2  0  0  0  0
 10 11  1  0  0  0  0
 11  8  2  0  0  0  0
 11 21  1  0  0  0  0
 13 10  1  0  0  0  0
 13  6  2  0  0  0  0
 14  3  2  0  0  0  0
 15 18  2  0  0  0  0
 15 14  1  0  0  0  0
 16 23  1  0  0  0  0
 17  7  1  0  0  0  0
 17 12  2  0  0  0  0
 18 19  1  0  0  0  0
 19  3  1  0  0  0  0
 20 28  1  0  0  0  0
 20  7  2  0  0  0  0
 21  6  1  6  0  0  0
 21  1  1  0  0  0  0
 22 20  1  0  0  0  0
 23  9  1  0  0  0  0
 23 22  2  0  0  0  0
 25 26  3  0  0  0  0
 26 27  1  0  0  0  0
 28 29  3  0  0  0  0
 30 31  1  0  0  0  0
 31  5  1  0  0  0  0
M  END
>  <MODEL>
9

>  <REMARK>
 VINA RESULT:      -4.9      6.051      8.253
  Name = 
  3 active torsions:
  status: ('A' for Active; 'I' for Inactive)
    1  A    between atoms: C_1  and  C_11
    2  A    between atoms: C_2  and  C_26
    3  A    between atoms: C_6  and  C_29
                            x       y       z     vdW  Elec       q    Type
                         _______ _______ _______ _____ _____    ______ ____

>  <TORSDO>
F 3

$$$$
