=
 OpenBabel10232409173D

 49 53  0  0  1  0  0  0  0  0999 V2000
  184.8350  178.5480  139.3580 C   0  0  0  0  0  0  0  0  0  0  0  0
  185.2090  179.1460  140.5710 C   0  0  0  0  0  3  0  0  0  0  0  0
  183.4520  177.9590  141.7290 C   0  0  0  0  0  3  0  0  0  0  0  0
  183.0730  177.3550  140.5290 C   0  0  0  0  0  3  0  0  0  0  0  0
  184.5220  178.8550  141.7510 C   0  0  0  0  0  0  0  0  0  0  0  0
  183.7540  177.6370  139.3340 C   0  0  0  0  0  0  0  0  0  0  0  0
  181.1790  178.0010  137.5180 C   0  0  0  0  0  1  0  0  0  0  0  0
  182.6150  177.7660  137.0820 C   0  0  2  0  0  3  0  0  0  0  0  0
  182.8260  175.0410  134.3460 C   0  0  0  0  0  1  0  0  0  0  0  0
  182.3120  177.8940  134.5320 C   0  0  0  0  0  1  0  0  0  0  0  0
  182.8880  175.7590  135.6570 C   0  0  0  0  0  0  0  0  0  0  0  0
  182.6400  177.0800  135.7430 C   0  0  0  0  0  0  0  0  0  0  0  0
  183.2460  175.0080  136.8250 N   0  0  0  0  0  0  0  0  0  0  0  0
  183.3310  177.0030  138.1100 N   0  0  0  0  0  0  0  0  0  0  0  0
  183.4630  175.5770  137.9690 C   0  0  0  0  0  3  0  0  0  0  0  0
  184.9540  179.4750  143.0340 C   0  0  0  0  0  2  0  0  0  0  0  0
  184.7560  178.5190  144.1950 C   0  0  2  0  0  3  0  0  0  0  0  0
  183.8200  179.1090  145.1650 N   0  0  0  0  0  2  0  0  0  0  0  0
  185.2710  179.1490  145.4050 C   0  0  1  0  0  3  0  0  0  0  0  0
  185.6510  178.0870  146.4250 C   0  0  0  0  0  2  0  0  0  0  0  0
  187.8100  177.7470  147.3870 O   0  0  0  0  0  0  0  0  0  0  0  0
  187.7040  177.5330  145.0680 N   0  0  0  0  0  2  0  0  0  0  0  0
  187.1120  177.7880  146.3400 C   0  0  0  0  0  0  0  0  0  0  0  0
  189.1280  177.2690  144.9090 C   0  0  0  0  0  2  0  0  0  0  0  0
  189.6440  177.6870  143.5260 C   0  0  2  0  0  0  0  0  0  0  0  0
  190.1580  178.9730  143.5910 F   0  0  0  0  0  0  0  0  0  0  0  0
  188.4340  177.7190  142.6020 C   0  0  0  0  0  1  0  0  0  0  0  0
  190.1480  175.5120  142.6200 O   0  0  0  0  0  1  0  0  0  0  0  0
  191.4650  177.2940  141.7910 C   0  0  0  0  0  1  0  0  0  0  0  0
  190.7430  176.7180  143.0060 C   0  0  1  0  0  0  0  0  0  0  0  0
  191.7700  176.3810  144.0940 C   0  0  0  0  0  2  0  0  0  0  0  0
  192.0770  175.0180  144.1150 O   0  0  0  0  0  1  0  0  0  0  0  0
  185.6120  178.7880  138.1760 N   0  0  0  0  0  2  0  0  0  0  0  0
  186.0560  177.8120  135.4220 C   0  0  0  0  0  1  0  0  0  0  0  0
  188.9030  177.0850  138.5500 C   0  0  0  0  0  3  0  0  0  0  0  0
  187.7350  177.7950  138.8400 C   0  0  0  0  0  3  0  0  0  0  0  0
  188.2070  176.8860  136.2420 C   0  0  0  0  0  3  0  0  0  0  0  0
  189.1420  176.6270  137.2490 C   0  0  0  0  0  0  0  0  0  0  0  0
  187.0430  177.6070  136.5210 C   0  0  0  0  0  0  0  0  0  0  0  0
  186.8070  178.0750  137.8330 C   0  0  0  0  0  0  0  0  0  0  0  0
  192.3120  175.7180  135.3050 C   0  0  0  0  0  3  0  0  0  0  0  0
  191.0430  176.4320  135.6490 C   0  0  0  0  0  2  0  0  0  0  0  0
  193.4260  176.6020  137.2620 N   0  0  0  0  0  0  0  0  0  0  0  0
  190.3800  175.8610  136.9090 C   0  0  1  0  0  3  0  0  0  0  0  0
  194.6130  175.2160  135.6040 N   0  0  0  0  0  1  0  0  0  0  0  0
  193.4060  175.8130  136.0630 C   0  0  0  0  0  0  0  0  0  0  0  0
  192.4910  176.6090  138.1700 C   0  0  0  0  0  3  0  0  0  0  0  0
  191.2950  175.6950  138.1340 C   0  0  2  0  0  3  0  0  0  0  0  0
  191.6990  174.3640  138.2490 O   0  0  0  0  0  1  0  0  0  0  0  0
  1  2  1  0  0  0  0
  2  5  2  0  0  0  0
  3  5  1  0  0  0  0
  4  3  2  0  0  0  0
  5 16  1  0  0  0  0
  6  1  2  0  0  0  0
  6  4  1  0  0  0  0
  8  7  1  1  0  0  0
  8 14  1  0  0  0  0
  9 11  1  0  0  0  0
 10 12  1  0  0  0  0
 11 12  2  0  0  0  0
 11 13  1  0  0  0  0
 12  8  1  0  0  0  0
 13 15  2  0  0  0  0
 14  6  1  0  0  0  0
 15 14  1  0  0  0  0
 17 16  1  6  0  0  0
 17 18  1  0  0  0  0
 17 19  1  0  0  0  0
 18 19  1  0  0  0  0
 19 20  1  1  0  0  0
 22 23  1  0  0  0  0
 23 20  1  0  0  0  0
 23 21  2  0  0  0  0
 24 22  1  0  0  0  0
 25 27  1  6  0  0  0
 25 26  1  0  0  0  0
 25 24  1  0  0  0  0
 28 30  1  0  0  0  0
 30 29  1  6  0  0  0
 30 25  1  0  0  0  0
 30 31  1  0  0  0  0
 31 32  1  0  0  0  0
 33  1  1  0  0  0  0
 34 39  1  0  0  0  0
 35 36  1  0  0  0  0
 37 39  2  0  0  0  0
 37 38  1  0  0  0  0
 38 35  2  0  0  0  0
 39 40  1  0  0  0  0
 40 33  1  0  0  0  0
 40 36  2  0  0  0  0
 41 42  1  0  0  0  0
 41 46  2  0  0  0  0
 42 44  1  0  0  0  0
 43 47  2  0  0  0  0
 44 38  1  1  0  0  0
 44 48  1  0  0  0  0
 45 46  1  0  0  0  0
 46 43  1  0  0  0  0
 48 47  1  0  0  0  0
 48 49  1  6  0  0  0
M  END
>  <MODEL>
1

>  <REMARK>
 VINA RESULT:      -8.9      0.000      0.000
  Name = 
  12 active torsions:
  status: ('A' for Active; 'I' for Inactive)
    1  A    between atoms: C_2  and  C_8
    2  A    between atoms: N_3  and  C_38
    3  A    between atoms: C_8  and  C_41
    4  A    between atoms: C_9  and  C_38
    5  A    between atoms: C_9  and  C_49
    6  A    between atoms: C_15  and  N_27
    7  A    between atoms: C_18  and  C_33
    8  A    between atoms: N_27  and  C_40
    9  A    between atoms: C_28  and  C_49
   10  A    between atoms: C_36  and  C_47
   11  A    between atoms: C_39  and  C_47
   12  A    between atoms: C_43  and  N_44
                            x       y       z     vdW  Elec       q    Type
                         _______ _______ _______ _____ _____    ______ ____

>  <TORSDO>
F 12

$$$$
=
 OpenBabel10232409173D

 49 53  0  0  1  0  0  0  0  0999 V2000
  184.7720  178.6320  139.5940 C   0  0  0  0  0  0  0  0  0  0  0  0
  185.1860  179.1820  140.8170 C   0  0  0  0  0  3  0  0  0  0  0  0
  183.2610  178.2350  141.9270 C   0  0  0  0  0  3  0  0  0  0  0  0
  182.8400  177.6790  140.7170 C   0  0  0  0  0  3  0  0  0  0  0  0
  184.4360  178.9860  141.9770 C   0  0  0  0  0  0  0  0  0  0  0  0
  183.5840  177.8660  139.5410 C   0  0  0  0  0  0  0  0  0  0  0  0
  180.9130  178.2540  137.8750 C   0  0  0  0  0  1  0  0  0  0  0  0
  182.3300  178.0830  137.3570 C   0  0  2  0  0  3  0  0  0  0  0  0
  182.4750  175.5130  134.4700 C   0  0  0  0  0  1  0  0  0  0  0  0
  181.8970  178.3370  134.8360 C   0  0  0  0  0  1  0  0  0  0  0  0
  182.5830  176.1620  135.8130 C   0  0  0  0  0  0  0  0  0  0  0  0
  182.3070  177.4690  135.9840 C   0  0  0  0  0  0  0  0  0  0  0  0
  183.0190  175.3600  136.9200 N   0  0  0  0  0  0  0  0  0  0  0  0
  183.1170  177.2860  138.3070 N   0  0  0  0  0  0  0  0  0  0  0  0
  183.2780  175.8740  138.0820 C   0  0  0  0  0  3  0  0  0  0  0  0
  184.9090  179.5510  143.2720 C   0  0  0  0  0  2  0  0  0  0  0  0
  184.7720  178.5370  144.3910 C   0  0  2  0  0  3  0  0  0  0  0  0
  183.8580  179.0570  145.4200 N   0  0  0  0  0  2  0  0  0  0  0  0
  185.3160  179.1200  145.6120 C   0  0  1  0  0  3  0  0  0  0  0  0
  185.7550  178.0210  146.5650 C   0  0  0  0  0  2  0  0  0  0  0  0
  187.7260  178.2790  147.8900 O   0  0  0  0  0  0  0  0  0  0  0  0
  188.0910  177.8250  145.6330 N   0  0  0  0  0  2  0  0  0  0  0  0
  187.2370  178.0590  146.7510 C   0  0  0  0  0  0  0  0  0  0  0  0
  189.5430  177.8800  145.7350 C   0  0  0  0  0  2  0  0  0  0  0  0
  190.2340  177.1080  144.6040 C   0  0  2  0  0  0  0  0  0  0  0  0
  189.3740  176.1420  144.1080 F   0  0  0  0  0  0  0  0  0  0  0  0
  191.4220  176.3900  145.2320 C   0  0  0  0  0  1  0  0  0  0  0  0
  189.5910  178.2560  142.5860 O   0  0  0  0  0  1  0  0  0  0  0  0
  191.1140  179.4130  143.9780 C   0  0  0  0  0  1  0  0  0  0  0  0
  190.6730  178.0510  143.4490 C   0  0  1  0  0  0  0  0  0  0  0  0
  191.8030  177.4410  142.6120 C   0  0  0  0  0  2  0  0  0  0  0  0
  191.5060  177.4560  141.2460 O   0  0  0  0  0  1  0  0  0  0  0  0
  185.6050  178.7640  138.4340 N   0  0  0  0  0  2  0  0  0  0  0  0
  185.9570  177.3000  135.8910 C   0  0  0  0  0  1  0  0  0  0  0  0
  188.8980  177.1250  139.0110 C   0  0  0  0  0  3  0  0  0  0  0  0
  187.7430  177.8870  139.2030 C   0  0  0  0  0  3  0  0  0  0  0  0
  188.1290  176.5170  136.8000 C   0  0  0  0  0  3  0  0  0  0  0  0
  189.0940  176.4350  137.8080 C   0  0  0  0  0  0  0  0  0  0  0  0
  186.9770  177.2880  136.9780 C   0  0  0  0  0  0  0  0  0  0  0  0
  186.7850  177.9890  138.1900 C   0  0  0  0  0  0  0  0  0  0  0  0
  191.1550  173.4240  136.6520 C   0  0  0  0  0  3  0  0  0  0  0  0
  189.9500  174.2600  136.9410 C   0  0  0  0  0  2  0  0  0  0  0  0
  191.8890  174.9470  134.9220 N   0  0  0  0  0  0  0  0  0  0  0  0
  190.3170  175.6080  137.5760 C   0  0  1  0  0  3  0  0  0  0  0  0
  193.0880  172.8480  135.4000 N   0  0  0  0  0  1  0  0  0  0  0  0
  192.0400  173.7570  135.7100 C   0  0  0  0  0  0  0  0  0  0  0  0
  191.5680  176.1210  135.3890 C   0  0  0  0  0  3  0  0  0  0  0  0
  191.4150  176.4120  136.8590 C   0  0  2  0  0  3  0  0  0  0  0  0
  192.6340  176.2420  137.5160 O   0  0  0  0  0  1  0  0  0  0  0  0
  1  2  1  0  0  0  0
  2  5  2  0  0  0  0
  3  5  1  0  0  0  0
  4  3  2  0  0  0  0
  5 16  1  0  0  0  0
  6  1  2  0  0  0  0
  6  4  1  0  0  0  0
  8  7  1  1  0  0  0
  8 14  1  0  0  0  0
  9 11  1  0  0  0  0
 10 12  1  0  0  0  0
 11 12  2  0  0  0  0
 11 13  1  0  0  0  0
 12  8  1  0  0  0  0
 13 15  2  0  0  0  0
 14  6  1  0  0  0  0
 15 14  1  0  0  0  0
 17 16  1  6  0  0  0
 17 18  1  0  0  0  0
 17 19  1  0  0  0  0
 18 19  1  0  0  0  0
 19 20  1  1  0  0  0
 20 23  1  0  0  0  0
 22 24  1  0  0  0  0
 22 23  1  0  0  0  0
 23 21  2  0  0  0  0
 25 27  1  1  0  0  0
 25 24  1  0  0  0  0
 26 25  1  0  0  0  0
 28 30  1  0  0  0  0
 30 29  1  1  0  0  0
 30 25  1  0  0  0  0
 31 30  1  0  0  0  0
 32 31  1  0  0  0  0
 33  1  1  0  0  0  0
 34 39  1  0  0  0  0
 35 36  1  0  0  0  0
 37 39  2  0  0  0  0
 37 38  1  0  0  0  0
 38 35  2  0  0  0  0
 39 40  1  0  0  0  0
 40 33  1  0  0  0  0
 40 36  2  0  0  0  0
 41 42  1  0  0  0  0
 42 44  1  0  0  0  0
 43 47  2  0  0  0  0
 43 46  1  0  0  0  0
 44 38  1  6  0  0  0
 45 46  1  0  0  0  0
 46 41  2  0  0  0  0
 47 48  1  0  0  0  0
 48 49  1  1  0  0  0
 48 44  1  0  0  0  0
M  END
>  <MODEL>
2

>  <REMARK>
 VINA RESULT:      -8.8      1.304      1.633
  Name = 
  12 active torsions:
  status: ('A' for Active; 'I' for Inactive)
    1  A    between atoms: C_2  and  C_8
    2  A    between atoms: N_3  and  C_38
    3  A    between atoms: C_8  and  C_41
    4  A    between atoms: C_9  and  C_38
    5  A    between atoms: C_9  and  C_49
    6  A    between atoms: C_15  and  N_27
    7  A    between atoms: C_18  and  C_33
    8  A    between atoms: N_27  and  C_40
    9  A    between atoms: C_28  and  C_49
   10  A    between atoms: C_36  and  C_47
   11  A    between atoms: C_39  and  C_47
   12  A    between atoms: C_43  and  N_44
                            x       y       z     vdW  Elec       q    Type
                         _______ _______ _______ _____ _____    ______ ____

>  <TORSDO>
F 12

$$$$
=
 OpenBabel10232409173D

 49 53  0  0  1  0  0  0  0  0999 V2000
  185.9080  178.4650  139.2530 C   0  0  0  0  0  0  0  0  0  0  0  0
  185.0190  178.8560  140.2660 C   0  0  0  0  0  3  0  0  0  0  0  0
  186.8030  178.8020  141.8930 C   0  0  0  0  0  3  0  0  0  0  0  0
  187.6990  178.4160  140.8950 C   0  0  0  0  0  3  0  0  0  0  0  0
  185.4610  179.0230  141.5790 C   0  0  0  0  0  0  0  0  0  0  0  0
  187.2690  178.2440  139.5690 C   0  0  0  0  0  0  0  0  0  0  0  0
  190.0540  176.7360  139.7450 C   0  0  0  0  0  1  0  0  0  0  0  0
  188.9610  176.5790  138.7030 C   0  0  2  0  0  3  0  0  0  0  0  0
  190.4220  176.5820  135.1210 C   0  0  0  0  0  1  0  0  0  0  0  0
  189.9900  174.6950  137.2870 C   0  0  0  0  0  1  0  0  0  0  0  0
  189.7480  176.9960  136.3910 C   0  0  0  0  0  0  0  0  0  0  0  0
  189.5560  176.1220  137.3980 C   0  0  0  0  0  0  0  0  0  0  0  0
  189.2810  178.3480  136.5020 N   0  0  0  0  0  0  0  0  0  0  0  0
  188.2180  177.8370  138.5630 N   0  0  0  0  0  0  0  0  0  0  0  0
  188.5620  178.7480  137.5030 C   0  0  0  0  0  3  0  0  0  0  0  0
  184.5080  179.4690  142.6330 C   0  0  0  0  0  2  0  0  0  0  0  0
  184.3400  178.4060  143.7010 C   0  0  2  0  0  3  0  0  0  0  0  0
  183.1320  178.6860  144.4920 N   0  0  0  0  0  2  0  0  0  0  0  0
  184.4640  179.0400  145.0080 C   0  0  1  0  0  3  0  0  0  0  0  0
  184.8990  178.0180  146.0460 C   0  0  0  0  0  2  0  0  0  0  0  0
  186.7130  178.7740  147.4030 O   0  0  0  0  0  0  0  0  0  0  0  0
  187.3230  177.6400  145.4600 N   0  0  0  0  0  2  0  0  0  0  0  0
  186.3520  178.1800  146.3540 C   0  0  0  0  0  0  0  0  0  0  0  0
  188.7560  177.7910  145.6810 C   0  0  0  0  0  2  0  0  0  0  0  0
  189.5670  177.5630  144.3990 C   0  0  2  0  0  0  0  0  0  0  0  0
  189.4860  178.6850  143.5910 F   0  0  0  0  0  0  0  0  0  0  0  0
  188.8960  176.4120  143.6600 C   0  0  0  0  0  1  0  0  0  0  0  0
  191.8120  178.4250  144.5420 O   0  0  0  0  0  1  0  0  0  0  0  0
  191.2430  176.7860  146.1510 C   0  0  0  0  0  1  0  0  0  0  0  0
  191.0590  177.2570  144.7110 C   0  0  1  0  0  0  0  0  0  0  0  0
  191.6400  176.2090  143.7550 C   0  0  0  0  0  2  0  0  0  0  0  0
  192.1380  176.7900  142.5860 O   0  0  0  0  0  1  0  0  0  0  0  0
  185.4540  178.3910  137.8950 N   0  0  0  0  0  2  0  0  0  0  0  0
  182.5370  178.0030  137.6130 C   0  0  0  0  0  1  0  0  0  0  0  0
  185.3390  175.0370  136.2820 C   0  0  0  0  0  3  0  0  0  0  0  0
  185.8150  176.2120  136.8690 C   0  0  0  0  0  3  0  0  0  0  0  0
  183.0670  175.8240  136.5520 C   0  0  0  0  0  3  0  0  0  0  0  0
  183.9610  174.8380  136.1240 C   0  0  0  0  0  0  0  0  0  0  0  0
  183.5360  177.0080  137.1270 C   0  0  0  0  0  0  0  0  0  0  0  0
  184.9260  177.2090  137.2800 C   0  0  0  0  0  0  0  0  0  0  0  0
  184.0600  171.4490  134.3460 C   0  0  0  0  0  3  0  0  0  0  0  0
  184.5590  172.7300  134.9350 C   0  0  0  0  0  2  0  0  0  0  0  0
  183.4360  170.6050  136.5260 N   0  0  0  0  0  0  0  0  0  0  0  0
  183.4220  173.5890  135.5030 C   0  0  1  0  0  3  0  0  0  0  0  0
  183.2160  169.2350  134.4890 N   0  0  0  0  0  1  0  0  0  0  0  0
  183.5470  170.4750  135.1010 C   0  0  0  0  0  0  0  0  0  0  0  0
  182.9980  171.6620  137.1510 C   0  0  0  0  0  3  0  0  0  0  0  0
  182.4410  172.8700  136.4440 C   0  0  2  0  0  3  0  0  0  0  0  0
  181.2790  172.5310  135.7500 O   0  0  0  0  0  1  0  0  0  0  0  0
  1  6  2  0  0  0  0
  1  2  1  0  0  0  0
  2  5  2  0  0  0  0
  4  3  2  0  0  0  0
  5  3  1  0  0  0  0
  5 16  1  0  0  0  0
  6  4  1  0  0  0  0
  8  7  1  1  0  0  0
  9 11  1  0  0  0  0
 10 12  1  0  0  0  0
 11 13  1  0  0  0  0
 11 12  2  0  0  0  0
 12  8  1  0  0  0  0
 13 15  2  0  0  0  0
 14  8  1  0  0  0  0
 14  6  1  0  0  0  0
 15 14  1  0  0  0  0
 17 16  1  6  0  0  0
 17 18  1  0  0  0  0
 17 19  1  0  0  0  0
 18 19  1  0  0  0  0
 19 20  1  1  0  0  0
 20 23  1  0  0  0  0
 22 24  1  0  0  0  0
 22 23  1  0  0  0  0
 23 21  2  0  0  0  0
 25 27  1  6  0  0  0
 25 30  1  0  0  0  0
 25 24  1  0  0  0  0
 26 25  1  0  0  0  0
 28 30  1  0  0  0  0
 30 29  1  1  0  0  0
 31 30  1  0  0  0  0
 32 31  1  0  0  0  0
 33  1  1  0  0  0  0
 35 36  1  0  0  0  0
 36 40  2  0  0  0  0
 37 39  2  0  0  0  0
 38 35  2  0  0  0  0
 38 37  1  0  0  0  0
 39 40  1  0  0  0  0
 39 34  1  0  0  0  0
 40 33  1  0  0  0  0
 41 42  1  0  0  0  0
 41 46  2  0  0  0  0
 42 44  1  0  0  0  0
 43 47  2  0  0  0  0
 44 38  1  1  0  0  0
 44 48  1  0  0  0  0
 45 46  1  0  0  0  0
 46 43  1  0  0  0  0
 48 49  1  6  0  0  0
 48 47  1  0  0  0  0
M  END
>  <MODEL>
3

>  <REMARK>
 VINA RESULT:      -8.1      2.679      5.820
  Name = 
  12 active torsions:
  status: ('A' for Active; 'I' for Inactive)
    1  A    between atoms: C_2  and  C_8
    2  A    between atoms: N_3  and  C_38
    3  A    between atoms: C_8  and  C_41
    4  A    between atoms: C_9  and  C_38
    5  A    between atoms: C_9  and  C_49
    6  A    between atoms: C_15  and  N_27
    7  A    between atoms: C_18  and  C_33
    8  A    between atoms: N_27  and  C_40
    9  A    between atoms: C_28  and  C_49
   10  A    between atoms: C_36  and  C_47
   11  A    between atoms: C_39  and  C_47
   12  A    between atoms: C_43  and  N_44
                            x       y       z     vdW  Elec       q    Type
                         _______ _______ _______ _____ _____    ______ ____

>  <TORSDO>
F 12

$$$$
=
 OpenBabel10232409173D

 49 53  0  0  1  0  0  0  0  0999 V2000
  185.5980  177.3430  137.7330 C   0  0  0  0  0  0  0  0  0  0  0  0
  186.5720  176.5950  137.0530 C   0  0  0  0  0  3  0  0  0  0  0  0
  184.8600  175.1910  136.0860 C   0  0  0  0  0  3  0  0  0  0  0  0
  183.8810  175.9290  136.7550 C   0  0  0  0  0  3  0  0  0  0  0  0
  186.2070  175.5250  136.2340 C   0  0  0  0  0  0  0  0  0  0  0  0
  184.2320  177.0090  137.5810 C   0  0  0  0  0  0  0  0  0  0  0  0
  182.1920  176.2000  139.8710 C   0  0  0  0  0  1  0  0  0  0  0  0
  182.9320  177.5130  139.6890 C   0  0  2  0  0  3  0  0  0  0  0  0
  180.5660  180.5380  140.1470 C   0  0  0  0  0  1  0  0  0  0  0  0
  182.1420  178.7450  141.8020 C   0  0  0  0  0  1  0  0  0  0  0  0
  181.4250  179.4730  139.5420 C   0  0  0  0  0  0  0  0  0  0  0  0
  182.1480  178.6370  140.3110 C   0  0  0  0  0  0  0  0  0  0  0  0
  181.4830  179.3800  138.1110 N   0  0  0  0  0  0  0  0  0  0  0  0
  183.1980  177.7450  138.2640 N   0  0  0  0  0  0  0  0  0  0  0  0
  182.3090  178.5860  137.5070 C   0  0  0  0  0  3  0  0  0  0  0  0
  187.2530  174.7640  135.4960 C   0  0  0  0  0  2  0  0  0  0  0  0
  188.4740  175.6270  135.2370 C   0  0  2  0  0  3  0  0  0  0  0  0
  189.4030  174.9130  134.3480 N   0  0  0  0  0  2  0  0  0  0  0  0
  189.6400  174.9570  135.8000 C   0  0  1  0  0  3  0  0  0  0  0  0
  190.7270  175.9730  136.1110 C   0  0  0  0  0  2  0  0  0  0  0  0
  191.2400  174.7340  138.0870 O   0  0  0  0  0  0  0  0  0  0  0  0
  193.0710  175.6730  136.9920 N   0  0  0  0  0  2  0  0  0  0  0  0
  191.6730  175.4250  137.1280 C   0  0  0  0  0  0  0  0  0  0  0  0
  194.0470  175.1980  137.9640 C   0  0  0  0  0  2  0  0  0  0  0  0
  195.2460  174.5150  137.2960 C   0  0  2  0  0  0  0  0  0  0  0  0
  195.7980  175.3630  136.3500 F   0  0  0  0  0  0  0  0  0  0  0  0
  194.6980  173.2980  136.5610 C   0  0  0  0  0  1  0  0  0  0  0  0
  196.3190  172.7330  138.5120 O   0  0  0  0  0  1  0  0  0  0  0  0
  197.7300  174.5160  137.8560 C   0  0  0  0  0  1  0  0  0  0  0  0
  196.3350  174.1210  138.3340 C   0  0  1  0  0  0  0  0  0  0  0  0
  196.0700  174.7510  139.7060 C   0  0  0  0  0  2  0  0  0  0  0  0
  197.2280  175.3100  140.2540 O   0  0  0  0  0  1  0  0  0  0  0  0
  185.9860  178.4960  138.4920 N   0  0  0  0  0  2  0  0  0  0  0  0
  188.9320  178.3900  138.2760 C   0  0  0  0  0  1  0  0  0  0  0  0
  186.9530  178.3450  142.0850 C   0  0  0  0  0  3  0  0  0  0  0  0
  186.1880  178.4050  140.9170 C   0  0  0  0  0  3  0  0  0  0  0  0
  188.9760  178.3390  140.7570 C   0  0  0  0  0  3  0  0  0  0  0  0
  188.3520  178.3100  142.0070 C   0  0  0  0  0  0  0  0  0  0  0  0
  188.2180  178.4130  139.5850 C   0  0  0  0  0  0  0  0  0  0  0  0
  186.8070  178.4550  139.6650 C   0  0  0  0  0  0  0  0  0  0  0  0
  189.6370  176.9280  145.3380 C   0  0  0  0  0  3  0  0  0  0  0  0
  188.7820  177.0540  144.1170 C   0  0  0  0  0  2  0  0  0  0  0  0
  191.5630  176.3040  144.0130 N   0  0  0  0  0  0  0  0  0  0  0  0
  189.1960  178.2420  143.2390 C   0  0  1  0  0  3  0  0  0  0  0  0
  191.6370  176.3450  146.4760 N   0  0  0  0  0  1  0  0  0  0  0  0
  190.9230  176.5750  145.2690 C   0  0  0  0  0  0  0  0  0  0  0  0
  191.4460  177.0330  142.9390 C   0  0  0  0  0  3  0  0  0  0  0  0
  190.6940  178.3380  142.9020 C   0  0  2  0  0  3  0  0  0  0  0  0
  191.3090  179.2750  143.7340 O   0  0  0  0  0  1  0  0  0  0  0  0
  1 33  1  0  0  0  0
  2  1  2  0  0  0  0
  3  5  2  0  0  0  0
  3  4  1  0  0  0  0
  4  6  2  0  0  0  0
  5  2  1  0  0  0  0
  6  1  1  0  0  0  0
  6 14  1  0  0  0  0
  8  7  1  6  0  0  0
  8 12  1  0  0  0  0
 11  9  1  0  0  0  0
 11 12  2  0  0  0  0
 12 10  1  0  0  0  0
 13 11  1  0  0  0  0
 14  8  1  0  0  0  0
 15 13  2  0  0  0  0
 15 14  1  0  0  0  0
 16  5  1  0  0  0  0
 17 16  1  1  0  0  0
 17 19  1  0  0  0  0
 18 17  1  0  0  0  0
 18 19  1  0  0  0  0
 19 20  1  6  0  0  0
 20 23  1  0  0  0  0
 22 23  1  0  0  0  0
 22 24  1  0  0  0  0
 23 21  2  0  0  0  0
 25 27  1  6  0  0  0
 25 24  1  0  0  0  0
 25 30  1  0  0  0  0
 26 25  1  0  0  0  0
 30 29  1  6  0  0  0
 30 28  1  0  0  0  0
 30 31  1  0  0  0  0
 31 32  1  0  0  0  0
 33 40  1  0  0  0  0
 34 39  1  0  0  0  0
 36 35  2  0  0  0  0
 37 38  2  0  0  0  0
 38 35  1  0  0  0  0
 39 40  2  0  0  0  0
 39 37  1  0  0  0  0
 40 36  1  0  0  0  0
 42 41  1  0  0  0  0
 43 46  1  0  0  0  0
 44 38  1  6  0  0  0
 44 42  1  0  0  0  0
 46 41  2  0  0  0  0
 46 45  1  0  0  0  0
 47 43  2  0  0  0  0
 48 47  1  0  0  0  0
 48 44  1  0  0  0  0
 48 49  1  1  0  0  0
M  END
>  <MODEL>
4

>  <REMARK>
 VINA RESULT:      -7.5      2.884      7.324
  Name = 
  12 active torsions:
  status: ('A' for Active; 'I' for Inactive)
    1  A    between atoms: C_2  and  C_8
    2  A    between atoms: N_3  and  C_38
    3  A    between atoms: C_8  and  C_41
    4  A    between atoms: C_9  and  C_38
    5  A    between atoms: C_9  and  C_49
    6  A    between atoms: C_15  and  N_27
    7  A    between atoms: C_18  and  C_33
    8  A    between atoms: N_27  and  C_40
    9  A    between atoms: C_28  and  C_49
   10  A    between atoms: C_36  and  C_47
   11  A    between atoms: C_39  and  C_47
   12  A    between atoms: C_43  and  N_44
                            x       y       z     vdW  Elec       q    Type
                         _______ _______ _______ _____ _____    ______ ____

>  <TORSDO>
F 12

$$$$
=
 OpenBabel10232409173D

 49 53  0  0  1  0  0  0  0  0999 V2000
  186.6680  178.4930  141.6520 C   0  0  0  0  0  0  0  0  0  0  0  0
  185.9510  178.7930  140.4820 C   0  0  0  0  0  3  0  0  0  0  0  0
  183.8670  178.6830  141.6980 C   0  0  0  0  0  3  0  0  0  0  0  0
  184.5680  178.3880  142.8690 C   0  0  0  0  0  3  0  0  0  0  0  0
  184.5590  178.8870  140.5030 C   0  0  0  0  0  0  0  0  0  0  0  0
  185.9690  178.2910  142.8640 C   0  0  0  0  0  0  0  0  0  0  0  0
  188.0090  175.9860  143.6320 C   0  0  0  0  0  1  0  0  0  0  0  0
  188.0290  177.4440  144.0570 C   0  0  2  0  0  3  0  0  0  0  0  0
  188.6750  177.7920  147.8550 C   0  0  0  0  0  1  0  0  0  0  0  0
  190.2130  177.4610  145.4130 C   0  0  0  0  0  1  0  0  0  0  0  0
  188.0100  177.7450  146.5160 C   0  0  0  0  0  0  0  0  0  0  0  0
  188.7230  177.5830  145.3850 C   0  0  0  0  0  0  0  0  0  0  0  0
  186.5850  177.9060  146.4610 N   0  0  0  0  0  0  0  0  0  0  0  0
  186.6620  177.9750  144.0880 N   0  0  0  0  0  0  0  0  0  0  0  0
  185.9490  178.0230  145.3380 C   0  0  0  0  0  3  0  0  0  0  0  0
  183.8190  179.2370  139.2590 C   0  0  0  0  0  2  0  0  0  0  0  0
  182.7430  178.2120  138.9580 C   0  0  2  0  0  3  0  0  0  0  0  0
  183.2230  176.8700  139.3240 N   0  0  0  0  0  2  0  0  0  0  0  0
  183.2360  177.3150  137.9200 C   0  0  1  0  0  3  0  0  0  0  0  0
  182.0700  176.6880  137.1740 C   0  0  0  0  0  2  0  0  0  0  0  0
  181.7700  175.0570  135.4550 O   0  0  0  0  0  0  0  0  0  0  0  0
  183.9180  175.1800  136.3530 N   0  0  0  0  0  2  0  0  0  0  0  0
  182.5550  175.5950  136.2790 C   0  0  0  0  0  0  0  0  0  0  0  0
  184.4500  174.0980  135.5360 C   0  0  0  0  0  2  0  0  0  0  0  0
  185.4490  173.2270  136.3060 C   0  0  2  0  0  0  0  0  0  0  0  0
  185.4220  171.9350  135.8060 F   0  0  0  0  0  0  0  0  0  0  0  0
  184.9590  173.1740  137.7470 C   0  0  0  0  0  1  0  0  0  0  0  0
  187.1200  174.6720  137.2680 O   0  0  0  0  0  1  0  0  0  0  0  0
  187.9350  172.6720  136.3020 C   0  0  0  0  0  1  0  0  0  0  0  0
  186.8960  173.7870  136.2080 C   0  0  1  0  0  0  0  0  0  0  0  0
  187.1160  174.5780  134.9130 C   0  0  0  0  0  2  0  0  0  0  0  0
  187.3780  175.9270  135.1650 O   0  0  0  0  0  1  0  0  0  0  0  0
  188.1020  178.4940  141.6290 N   0  0  0  0  0  2  0  0  0  0  0  0
  190.8880  177.6240  142.0900 C   0  0  0  0  0  1  0  0  0  0  0  0
  189.0980  177.4640  138.1920 C   0  0  0  0  0  3  0  0  0  0  0  0
  188.3490  177.9450  139.2690 C   0  0  0  0  0  3  0  0  0  0  0  0
  190.9750  177.0790  139.6700 C   0  0  0  0  0  3  0  0  0  0  0  0
  190.4160  177.0310  138.3900 C   0  0  0  0  0  0  0  0  0  0  0  0
  190.2270  177.5460  140.7550 C   0  0  0  0  0  0  0  0  0  0  0  0
  188.8960  177.9760  140.5550 C   0  0  0  0  0  0  0  0  0  0  0  0
  193.5770  175.8940  136.5550 C   0  0  0  0  0  3  0  0  0  0  0  0
  192.7240  176.4490  137.6510 C   0  0  0  0  0  2  0  0  0  0  0  0
  192.5870  173.7000  136.7950 N   0  0  0  0  0  0  0  0  0  0  0  0
  191.2430  176.5160  137.2560 C   0  0  1  0  0  3  0  0  0  0  0  0
  194.4340  174.1280  135.2200 N   0  0  0  0  0  1  0  0  0  0  0  0
  193.5010  174.6170  136.1750 C   0  0  0  0  0  0  0  0  0  0  0  0
  191.3380  173.9540  137.0650 C   0  0  0  0  0  3  0  0  0  0  0  0
  190.6460  175.2300  136.6600 C   0  0  2  0  0  3  0  0  0  0  0  0
  190.5930  175.3310  135.2690 O   0  0  0  0  0  1  0  0  0  0  0  0
  1  6  1  0  0  0  0
  2  5  1  0  0  0  0
  2  1  2  0  0  0  0
  3  4  1  0  0  0  0
  5  3  2  0  0  0  0
  6  4  2  0  0  0  0
  6 14  1  0  0  0  0
  8  7  1  1  0  0  0
  8 14  1  0  0  0  0
  8 12  1  0  0  0  0
 11  9  1  0  0  0  0
 12 10  1  0  0  0  0
 12 11  2  0  0  0  0
 13 11  1  0  0  0  0
 14 15  1  0  0  0  0
 15 13  2  0  0  0  0
 16  5  1  0  0  0  0
 17 16  1  1  0  0  0
 17 18  1  0  0  0  0
 19 20  1  6  0  0  0
 19 17  1  0  0  0  0
 19 18  1  0  0  0  0
 21 23  2  0  0  0  0
 23 22  1  0  0  0  0
 23 20  1  0  0  0  0
 24 25  1  0  0  0  0
 24 22  1  0  0  0  0
 25 27  1  1  0  0  0
 26 25  1  0  0  0  0
 30 29  1  1  0  0  0
 30 25  1  0  0  0  0
 30 28  1  0  0  0  0
 31 32  1  0  0  0  0
 31 30  1  0  0  0  0
 33  1  1  0  0  0  0
 35 38  2  0  0  0  0
 35 36  1  0  0  0  0
 36 40  2  0  0  0  0
 37 39  2  0  0  0  0
 38 37  1  0  0  0  0
 39 34  1  0  0  0  0
 40 39  1  0  0  0  0
 40 33  1  0  0  0  0
 41 42  1  0  0  0  0
 43 47  2  0  0  0  0
 44 42  1  0  0  0  0
 44 38  1  1  0  0  0
 45 46  1  0  0  0  0
 46 41  2  0  0  0  0
 46 43  1  0  0  0  0
 48 49  1  6  0  0  0
 48 47  1  0  0  0  0
 48 44  1  0  0  0  0
M  END
>  <MODEL>
5

>  <REMARK>
 VINA RESULT:      -7.3      3.170      7.495
  Name = 
  12 active torsions:
  status: ('A' for Active; 'I' for Inactive)
    1  A    between atoms: C_2  and  C_8
    2  A    between atoms: N_3  and  C_38
    3  A    between atoms: C_8  and  C_41
    4  A    between atoms: C_9  and  C_38
    5  A    between atoms: C_9  and  C_49
    6  A    between atoms: C_15  and  N_27
    7  A    between atoms: C_18  and  C_33
    8  A    between atoms: N_27  and  C_40
    9  A    between atoms: C_28  and  C_49
   10  A    between atoms: C_36  and  C_47
   11  A    between atoms: C_39  and  C_47
   12  A    between atoms: C_43  and  N_44
                            x       y       z     vdW  Elec       q    Type
                         _______ _______ _______ _____ _____    ______ ____

>  <TORSDO>
F 12

$$$$
=
 OpenBabel10232409173D

 49 53  0  0  1  0  0  0  0  0999 V2000
  187.7070  177.5410  137.9080 C   0  0  0  0  0  0  0  0  0  0  0  0
  186.5410  178.2780  138.1660 C   0  0  0  0  0  3  0  0  0  0  0  0
  185.2580  176.7960  136.7540 C   0  0  0  0  0  3  0  0  0  0  0  0
  186.4110  176.0530  136.4920 C   0  0  0  0  0  3  0  0  0  0  0  0
  185.3230  177.9090  137.5930 C   0  0  0  0  0  0  0  0  0  0  0  0
  187.6430  176.4100  137.0610 C   0  0  0  0  0  0  0  0  0  0  0  0
  189.2010  175.8410  134.3570 C   0  0  0  0  0  1  0  0  0  0  0  0
  189.7740  176.0740  135.7440 C   0  0  2  0  0  3  0  0  0  0  0  0
  192.5010  173.4670  136.5950 C   0  0  0  0  0  1  0  0  0  0  0  0
  192.2820  175.9980  135.1870 C   0  0  0  0  0  1  0  0  0  0  0  0
  191.2070  174.2140  136.5340 C   0  0  0  0  0  0  0  0  0  0  0  0
  191.1050  175.3830  135.8740 C   0  0  0  0  0  0  0  0  0  0  0  0
  190.0750  173.6670  137.2250 N   0  0  0  0  0  0  0  0  0  0  0  0
  188.8160  175.6270  136.7630 N   0  0  0  0  0  0  0  0  0  0  0  0
  188.9610  174.3190  137.3450 C   0  0  0  0  0  3  0  0  0  0  0  0
  184.0900  178.6850  137.9050 C   0  0  0  0  0  2  0  0  0  0  0  0
  183.0460  177.8060  138.5680 C   0  0  2  0  0  3  0  0  0  0  0  0
  181.9050  177.6240  137.6580 N   0  0  0  0  0  2  0  0  0  0  0  0
  181.8360  178.5940  138.7640 C   0  0  1  0  0  3  0  0  0  0  0  0
  181.0140  178.0130  139.9030 C   0  0  0  0  0  2  0  0  0  0  0  0
  180.5280  179.4880  141.7180 O   0  0  0  0  0  0  0  0  0  0  0  0
  182.6060  178.4360  141.8130 N   0  0  0  0  0  2  0  0  0  0  0  0
  181.3520  178.6980  141.1870 C   0  0  0  0  0  0  0  0  0  0  0  0
  183.0160  179.0940  143.0460 C   0  0  0  0  0  2  0  0  0  0  0  0
  184.5330  179.0330  143.2610 C   0  0  2  0  0  0  0  0  0  0  0  0
  185.1290  180.1430  142.6840 F   0  0  0  0  0  0  0  0  0  0  0  0
  185.0280  177.8020  142.5120 C   0  0  0  0  0  1  0  0  0  0  0  0
  185.5010  180.1850  145.1430 O   0  0  0  0  0  1  0  0  0  0  0  0
  183.6570  178.7880  145.6390 C   0  0  0  0  0  1  0  0  0  0  0  0
  184.8980  178.9780  144.7710 C   0  0  1  0  0  0  0  0  0  0  0  0
  185.9060  177.8630  145.0750 C   0  0  0  0  0  2  0  0  0  0  0  0
  185.9140  177.5240  146.4300 O   0  0  0  0  0  1  0  0  0  0  0  0
  188.9280  177.8800  138.5800 N   0  0  0  0  0  2  0  0  0  0  0  0
  191.6080  176.8240  139.2440 C   0  0  0  0  0  1  0  0  0  0  0  0
  188.5260  177.1630  142.2120 C   0  0  0  0  0  3  0  0  0  0  0  0
  188.2550  177.5550  140.8980 C   0  0  0  0  0  3  0  0  0  0  0  0
  190.7870  176.5850  141.5740 C   0  0  0  0  0  3  0  0  0  0  0  0
  189.7930  176.6740  142.5530 C   0  0  0  0  0  0  0  0  0  0  0  0
  190.5290  176.9880  140.2610 C   0  0  0  0  0  0  0  0  0  0  0  0
  189.2510  177.4870  139.9190 C   0  0  0  0  0  0  0  0  0  0  0  0
  191.9410  175.4070  145.4570 C   0  0  0  0  0  3  0  0  0  0  0  0
  191.5760  175.8030  144.0620 C   0  0  0  0  0  2  0  0  0  0  0  0
  191.7320  177.6880  146.2370 N   0  0  0  0  0  0  0  0  0  0  0  0
  190.1100  176.2430  143.9490 C   0  0  1  0  0  3  0  0  0  0  0  0
  192.4950  175.8720  147.7190 N   0  0  0  0  0  1  0  0  0  0  0  0
  192.0120  176.2960  146.4510 C   0  0  0  0  0  0  0  0  0  0  0  0
  190.7240  178.1540  145.5560 C   0  0  0  0  0  3  0  0  0  0  0  0
  189.6390  177.2810  144.9810 C   0  0  2  0  0  3  0  0  0  0  0  0
  188.9350  176.6470  146.0060 O   0  0  0  0  0  1  0  0  0  0  0  0
  1  2  1  0  0  0  0
  1 33  1  0  0  0  0
  3  5  1  0  0  0  0
  4  3  2  0  0  0  0
  4  6  1  0  0  0  0
  5 16  1  0  0  0  0
  5  2  2  0  0  0  0
  6  1  2  0  0  0  0
  8  7  1  6  0  0  0
  8 12  1  0  0  0  0
  8 14  1  0  0  0  0
 10 12  1  0  0  0  0
 11  9  1  0  0  0  0
 11 13  1  0  0  0  0
 12 11  2  0  0  0  0
 13 15  2  0  0  0  0
 14  6  1  0  0  0  0
 14 15  1  0  0  0  0
 17 16  1  6  0  0  0
 17 19  1  0  0  0  0
 18 17  1  0  0  0  0
 18 19  1  0  0  0  0
 19 20  1  1  0  0  0
 20 23  1  0  0  0  0
 22 24  1  0  0  0  0
 23 21  2  0  0  0  0
 23 22  1  0  0  0  0
 24 25  1  0  0  0  0
 25 27  1  6  0  0  0
 25 30  1  0  0  0  0
 26 25  1  0  0  0  0
 30 31  1  0  0  0  0
 30 28  1  0  0  0  0
 30 29  1  1  0  0  0
 31 32  1  0  0  0  0
 33 40  1  0  0  0  0
 34 39  1  0  0  0  0
 35 38  1  0  0  0  0
 36 35  2  0  0  0  0
 37 38  2  0  0  0  0
 39 37  1  0  0  0  0
 40 39  2  0  0  0  0
 40 36  1  0  0  0  0
 41 46  2  0  0  0  0
 42 41  1  0  0  0  0
 43 46  1  0  0  0  0
 44 38  1  6  0  0  0
 44 42  1  0  0  0  0
 44 48  1  0  0  0  0
 46 45  1  0  0  0  0
 47 43  2  0  0  0  0
 48 47  1  0  0  0  0
 48 49  1  1  0  0  0
M  END
>  <MODEL>
6

>  <REMARK>
 VINA RESULT:      -7.3      2.672      7.076
  Name = 
  12 active torsions:
  status: ('A' for Active; 'I' for Inactive)
    1  A    between atoms: C_2  and  C_8
    2  A    between atoms: N_3  and  C_38
    3  A    between atoms: C_8  and  C_41
    4  A    between atoms: C_9  and  C_38
    5  A    between atoms: C_9  and  C_49
    6  A    between atoms: C_15  and  N_27
    7  A    between atoms: C_18  and  C_33
    8  A    between atoms: N_27  and  C_40
    9  A    between atoms: C_28  and  C_49
   10  A    between atoms: C_36  and  C_47
   11  A    between atoms: C_39  and  C_47
   12  A    between atoms: C_43  and  N_44
                            x       y       z     vdW  Elec       q    Type
                         _______ _______ _______ _____ _____    ______ ____

>  <TORSDO>
F 12

$$$$
=
 OpenBabel10232409173D

 49 53  0  0  1  0  0  0  0  0999 V2000
  187.0540  178.3530  142.6770 C   0  0  0  0  0  0  0  0  0  0  0  0
  186.0160  178.5730  141.7590 C   0  0  0  0  0  3  0  0  0  0  0  0
  184.3770  178.3870  143.5240 C   0  0  0  0  0  3  0  0  0  0  0  0
  185.4010  178.1700  144.4480 C   0  0  0  0  0  3  0  0  0  0  0  0
  184.6850  178.5900  142.1780 C   0  0  0  0  0  0  0  0  0  0  0  0
  186.7450  178.1510  144.0430 C   0  0  0  0  0  0  0  0  0  0  0  0
  186.9280  178.7720  147.1480 C   0  0  0  0  0  1  0  0  0  0  0  0
  187.4320  177.5500  146.3990 C   0  0  2  0  0  3  0  0  0  0  0  0
  191.0290  176.6230  147.4770 C   0  0  0  0  0  1  0  0  0  0  0  0
  188.3060  176.1660  148.3820 C   0  0  0  0  0  1  0  0  0  0  0  0
  189.8560  177.1440  146.7090 C   0  0  0  0  0  0  0  0  0  0  0  0
  188.5940  176.9390  147.1340 C   0  0  0  0  0  0  0  0  0  0  0  0
  190.1060  177.8480  145.4850 N   0  0  0  0  0  0  0  0  0  0  0  0
  187.7780  177.9150  145.0210 N   0  0  0  0  0  0  0  0  0  0  0  0
  189.1480  178.2040  144.6880 C   0  0  0  0  0  3  0  0  0  0  0  0
  183.6000  178.8570  141.1930 C   0  0  0  0  0  2  0  0  0  0  0  0
  184.1020  178.6930  139.7710 C   0  0  2  0  0  3  0  0  0  0  0  0
  184.1040  179.9990  139.0950 N   0  0  0  0  0  2  0  0  0  0  0  0
  183.0190  179.0340  138.8570 C   0  0  1  0  0  3  0  0  0  0  0  0
  183.2290  178.3470  137.5180 C   0  0  0  0  0  2  0  0  0  0  0  0
  181.6930  176.5200  137.6100 O   0  0  0  0  0  0  0  0  0  0  0  0
  183.9470  175.9370  137.7210 N   0  0  0  0  0  2  0  0  0  0  0  0
  182.8950  176.8950  137.6230 C   0  0  0  0  0  0  0  0  0  0  0  0
  183.6930  174.5090  137.8610 C   0  0  0  0  0  2  0  0  0  0  0  0
  184.8410  173.6580  137.3050 C   0  0  2  0  0  0  0  0  0  0  0  0
  185.2940  172.7900  138.2860 F   0  0  0  0  0  0  0  0  0  0  0  0
  185.9760  174.6200  136.9800 C   0  0  0  0  0  1  0  0  0  0  0  0
  184.4960  173.6510  134.9210 O   0  0  0  0  0  1  0  0  0  0  0  0
  185.2940  171.6230  135.8430 C   0  0  0  0  0  1  0  0  0  0  0  0
  184.3990  172.8420  136.0580 C   0  0  1  0  0  0  0  0  0  0  0  0
  182.9390  172.3880  136.1600 C   0  0  0  0  0  2  0  0  0  0  0  0
  182.8290  171.1050  136.7040 O   0  0  0  0  0  1  0  0  0  0  0  0
  188.4190  178.4340  142.2440 N   0  0  0  0  0  2  0  0  0  0  0  0
  190.6720  176.5220  142.1840 C   0  0  0  0  0  1  0  0  0  0  0  0
  188.7990  177.9030  138.5780 C   0  0  0  0  0  3  0  0  0  0  0  0
  188.3380  178.3720  139.8100 C   0  0  0  0  0  3  0  0  0  0  0  0
  190.4420  176.5380  139.7130 C   0  0  0  0  0  3  0  0  0  0  0  0
  189.8550  176.9840  138.5260 C   0  0  0  0  0  0  0  0  0  0  0  0
  189.9770  176.9920  140.9510 C   0  0  0  0  0  0  0  0  0  0  0  0
  188.9070  177.9130  141.0020 C   0  0  0  0  0  0  0  0  0  0  0  0
  192.4410  175.7130  136.0050 C   0  0  0  0  0  3  0  0  0  0  0  0
  191.8930  176.2720  137.2800 C   0  0  0  0  0  2  0  0  0  0  0  0
  191.3490  173.5880  136.3830 N   0  0  0  0  0  0  0  0  0  0  0  0
  190.3730  176.4680  137.2220 C   0  0  1  0  0  3  0  0  0  0  0  0
  192.8410  173.9580  134.4570 N   0  0  0  0  0  1  0  0  0  0  0  0
  192.1800  174.4650  135.6100 C   0  0  0  0  0  0  0  0  0  0  0  0
  190.2130  173.9190  136.9300 C   0  0  0  0  0  3  0  0  0  0  0  0
  189.5580  175.2610  136.7290 C   0  0  2  0  0  3  0  0  0  0  0  0
  189.2130  175.4350  135.3880 O   0  0  0  0  0  1  0  0  0  0  0  0
  1  6  1  0  0  0  0
  2  5  1  0  0  0  0
  2  1  2  0  0  0  0
  3  4  1  0  0  0  0
  5  3  2  0  0  0  0
  6  4  2  0  0  0  0
  6 14  1  0  0  0  0
  8 12  1  0  0  0  0
  8  7  1  1  0  0  0
 11 12  2  0  0  0  0
 11  9  1  0  0  0  0
 12 10  1  0  0  0  0
 13 11  1  0  0  0  0
 14  8  1  0  0  0  0
 15 14  1  0  0  0  0
 15 13  2  0  0  0  0
 16  5  1  0  0  0  0
 17 16  1  1  0  0  0
 18 17  1  0  0  0  0
 19 20  1  6  0  0  0
 19 18  1  0  0  0  0
 19 17  1  0  0  0  0
 20 23  1  0  0  0  0
 21 23  2  0  0  0  0
 22 24  1  0  0  0  0
 23 22  1  0  0  0  0
 25 27  1  6  0  0  0
 25 24  1  0  0  0  0
 25 26  1  0  0  0  0
 28 30  1  0  0  0  0
 30 29  1  6  0  0  0
 30 31  1  0  0  0  0
 30 25  1  0  0  0  0
 31 32  1  0  0  0  0
 33  1  1  0  0  0  0
 35 36  1  0  0  0  0
 36 40  2  0  0  0  0
 37 39  2  0  0  0  0
 38 35  2  0  0  0  0
 38 37  1  0  0  0  0
 39 40  1  0  0  0  0
 39 34  1  0  0  0  0
 40 33  1  0  0  0  0
 41 42  1  0  0  0  0
 43 47  2  0  0  0  0
 44 42  1  0  0  0  0
 44 38  1  1  0  0  0
 45 46  1  0  0  0  0
 46 41  2  0  0  0  0
 46 43  1  0  0  0  0
 48 49  1  6  0  0  0
 48 47  1  0  0  0  0
 48 44  1  0  0  0  0
M  END
>  <MODEL>
7

>  <REMARK>
 VINA RESULT:      -7.2      3.278      7.879
  Name = 
  12 active torsions:
  status: ('A' for Active; 'I' for Inactive)
    1  A    between atoms: C_2  and  C_8
    2  A    between atoms: N_3  and  C_38
    3  A    between atoms: C_8  and  C_41
    4  A    between atoms: C_9  and  C_38
    5  A    between atoms: C_9  and  C_49
    6  A    between atoms: C_15  and  N_27
    7  A    between atoms: C_18  and  C_33
    8  A    between atoms: N_27  and  C_40
    9  A    between atoms: C_28  and  C_49
   10  A    between atoms: C_36  and  C_47
   11  A    between atoms: C_39  and  C_47
   12  A    between atoms: C_43  and  N_44
                            x       y       z     vdW  Elec       q    Type
                         _______ _______ _______ _____ _____    ______ ____

>  <TORSDO>
F 12

$$$$
=
 OpenBabel10232409173D

 49 53  0  0  1  0  0  0  0  0999 V2000
  185.2920  178.2330  138.4350 C   0  0  0  0  0  0  0  0  0  0  0  0
  186.3610  177.6180  137.7660 C   0  0  0  0  0  3  0  0  0  0  0  0
  184.8300  176.5820  136.2120 C   0  0  0  0  0  3  0  0  0  0  0  0
  183.7570  177.1910  136.8670 C   0  0  0  0  0  3  0  0  0  0  0  0
  186.1340  176.7960  136.6610 C   0  0  0  0  0  0  0  0  0  0  0  0
  183.9700  178.0210  137.9790 C   0  0  0  0  0  0  0  0  0  0  0  0
  181.3530  176.7990  139.2900 C   0  0  0  0  0  1  0  0  0  0  0  0
  182.1960  177.9640  139.7780 C   0  0  2  0  0  3  0  0  0  0  0  0
  179.9870  180.9740  140.7890 C   0  0  0  0  0  1  0  0  0  0  0  0
  180.9560  178.5010  141.9650 C   0  0  0  0  0  1  0  0  0  0  0  0
  180.9060  180.0630  140.0390 C   0  0  0  0  0  0  0  0  0  0  0  0
  181.3480  178.9120  140.5820 C   0  0  0  0  0  0  0  0  0  0  0  0
  181.3330  180.4600  138.7270 N   0  0  0  0  0  0  0  0  0  0  0  0
  182.8410  178.6270  138.6380 N   0  0  0  0  0  0  0  0  0  0  0  0
  182.2380  179.8050  138.0710 C   0  0  0  0  0  3  0  0  0  0  0  0
  187.2840  176.1780  135.9450 C   0  0  0  0  0  2  0  0  0  0  0  0
  188.3200  175.6590  136.9240 C   0  0  2  0  0  3  0  0  0  0  0  0
  189.4630  176.5840  136.9700 N   0  0  0  0  0  2  0  0  0  0  0  0
  189.5360  175.3410  136.1850 C   0  0  1  0  0  3  0  0  0  0  0  0
  190.3510  174.3050  136.9420 C   0  0  0  0  0  2  0  0  0  0  0  0
  192.0700  174.9510  135.4150 O   0  0  0  0  0  0  0  0  0  0  0  0
  192.7300  173.4850  137.1020 N   0  0  0  0  0  2  0  0  0  0  0  0
  191.7530  174.2730  136.4270 C   0  0  0  0  0  0  0  0  0  0  0  0
  194.1070  173.3790  136.6350 C   0  0  0  0  0  2  0  0  0  0  0  0
  195.0170  174.4390  137.2690 C   0  0  2  0  0  0  0  0  0  0  0  0
  194.2420  175.4300  137.8500 F   0  0  0  0  0  0  0  0  0  0  0  0
  195.8020  175.0740  136.1290 C   0  0  0  0  0  1  0  0  0  0  0  0
  195.3990  172.6240  138.8070 O   0  0  0  0  0  1  0  0  0  0  0  0
  197.3320  173.5040  137.7660 C   0  0  0  0  0  1  0  0  0  0  0  0
  195.9550  173.8210  138.3440 C   0  0  1  0  0  0  0  0  0  0  0  0
  196.1140  174.7400  139.5600 C   0  0  0  0  0  2  0  0  0  0  0  0
  197.4010  175.2770  139.6430 O   0  0  0  0  0  1  0  0  0  0  0  0
  185.5550  179.1480  139.5080 N   0  0  0  0  0  2  0  0  0  0  0  0
  188.2670  178.3500  140.3690 C   0  0  0  0  0  1  0  0  0  0  0  0
  184.9440  178.3070  143.0840 C   0  0  0  0  0  3  0  0  0  0  0  0
  184.7390  178.7020  141.7590 C   0  0  0  0  0  3  0  0  0  0  0  0
  187.2950  177.9740  142.6210 C   0  0  0  0  0  3  0  0  0  0  0  0
  186.2230  177.9400  143.5180 C   0  0  0  0  0  0  0  0  0  0  0  0
  187.1010  178.3810  141.2980 C   0  0  0  0  0  0  0  0  0  0  0  0
  185.8100  178.7580  140.8630 C   0  0  0  0  0  0  0  0  0  0  0  0
  188.2240  177.3230  146.7230 C   0  0  0  0  0  3  0  0  0  0  0  0
  187.9470  177.7020  145.3030 C   0  0  0  0  0  2  0  0  0  0  0  0
  186.9400  179.1990  147.5500 N   0  0  0  0  0  0  0  0  0  0  0  0
  186.4720  177.5090  144.9280 C   0  0  1  0  0  3  0  0  0  0  0  0
  188.1640  177.6910  149.0680 N   0  0  0  0  0  1  0  0  0  0  0  0
  187.7510  178.0320  147.7510 C   0  0  0  0  0  0  0  0  0  0  0  0
  185.9490  179.2880  146.7090 C   0  0  0  0  0  3  0  0  0  0  0  0
  185.4460  178.1240  145.8950 C   0  0  2  0  0  3  0  0  0  0  0  0
  184.9310  177.1340  146.7340 O   0  0  0  0  0  1  0  0  0  0  0  0
  1 33  1  0  0  0  0
  2  1  2  0  0  0  0
  3  5  2  0  0  0  0
  3  4  1  0  0  0  0
  4  6  2  0  0  0  0
  5  2  1  0  0  0  0
  6  1  1  0  0  0  0
  6 14  1  0  0  0  0
  8  7  1  6  0  0  0
  8 12  1  0  0  0  0
 11 12  2  0  0  0  0
 11  9  1  0  0  0  0
 12 10  1  0  0  0  0
 13 11  1  0  0  0  0
 14  8  1  0  0  0  0
 15 14  1  0  0  0  0
 15 13  2  0  0  0  0
 16  5  1  0  0  0  0
 17 16  1  6  0  0  0
 17 18  1  0  0  0  0
 19 17  1  0  0  0  0
 19 20  1  1  0  0  0
 19 18  1  0  0  0  0
 21 23  2  0  0  0  0
 23 20  1  0  0  0  0
 23 22  1  0  0  0  0
 24 22  1  0  0  0  0
 24 25  1  0  0  0  0
 25 27  1  6  0  0  0
 25 26  1  0  0  0  0
 25 30  1  0  0  0  0
 30 29  1  6  0  0  0
 30 28  1  0  0  0  0
 30 31  1  0  0  0  0
 31 32  1  0  0  0  0
 33 40  1  0  0  0  0
 34 39  1  0  0  0  0
 35 38  1  0  0  0  0
 36 35  2  0  0  0  0
 37 38  2  0  0  0  0
 39 37  1  0  0  0  0
 40 39  2  0  0  0  0
 40 36  1  0  0  0  0
 41 46  2  0  0  0  0
 42 41  1  0  0  0  0
 43 46  1  0  0  0  0
 44 38  1  6  0  0  0
 44 42  1  0  0  0  0
 44 48  1  0  0  0  0
 46 45  1  0  0  0  0
 47 43  2  0  0  0  0
 48 47  1  0  0  0  0
 48 49  1  1  0  0  0
M  END
>  <MODEL>
8

>  <REMARK>
 VINA RESULT:      -7.2      2.795      8.265
  Name = 
  12 active torsions:
  status: ('A' for Active; 'I' for Inactive)
    1  A    between atoms: C_2  and  C_8
    2  A    between atoms: N_3  and  C_38
    3  A    between atoms: C_8  and  C_41
    4  A    between atoms: C_9  and  C_38
    5  A    between atoms: C_9  and  C_49
    6  A    between atoms: C_15  and  N_27
    7  A    between atoms: C_18  and  C_33
    8  A    between atoms: N_27  and  C_40
    9  A    between atoms: C_28  and  C_49
   10  A    between atoms: C_36  and  C_47
   11  A    between atoms: C_39  and  C_47
   12  A    between atoms: C_43  and  N_44
                            x       y       z     vdW  Elec       q    Type
                         _______ _______ _______ _____ _____    ______ ____

>  <TORSDO>
F 12

$$$$
=
 OpenBabel10232409173D

 49 53  0  0  1  0  0  0  0  0999 V2000
  190.4470  175.5950  135.9760 C   0  0  0  0  0  0  0  0  0  0  0  0
  189.0890  175.2500  135.8890 C   0  0  0  0  0  3  0  0  0  0  0  0
  189.6580  173.1850  134.7720 C   0  0  0  0  0  3  0  0  0  0  0  0
  191.0120  173.5150  134.8550 C   0  0  0  0  0  3  0  0  0  0  0  0
  188.6950  174.0520  135.2900 C   0  0  0  0  0  0  0  0  0  0  0  0
  191.4240  174.7160  135.4550 C   0  0  0  0  0  0  0  0  0  0  0  0
  193.6030  174.3270  137.7270 C   0  0  0  0  0  1  0  0  0  0  0  0
  193.7630  174.1500  136.2270 C   0  0  2  0  0  3  0  0  0  0  0  0
  196.9830  175.8650  134.9420 C   0  0  0  0  0  1  0  0  0  0  0  0
  196.2020  173.3420  136.1510 C   0  0  0  0  0  1  0  0  0  0  0  0
  195.5530  175.5640  135.2600 C   0  0  0  0  0  0  0  0  0  0  0  0
  195.1930  174.3970  135.8290 C   0  0  0  0  0  0  0  0  0  0  0  0
  194.5610  176.5430  134.9180 N   0  0  0  0  0  0  0  0  0  0  0  0
  192.8290  175.0320  135.5170 N   0  0  0  0  0  0  0  0  0  0  0  0
  193.2920  176.3030  135.0250 C   0  0  0  0  0  3  0  0  0  0  0  0
  187.2520  173.6880  135.2360 C   0  0  0  0  0  2  0  0  0  0  0  0
  186.6280  173.7260  136.6190 C   0  0  2  0  0  3  0  0  0  0  0  0
  186.7830  172.4140  137.2660 N   0  0  0  0  0  2  0  0  0  0  0  0
  185.5050  172.7970  136.6450 C   0  0  1  0  0  3  0  0  0  0  0  0
  184.5140  173.2050  137.7220 C   0  0  0  0  0  2  0  0  0  0  0  0
  183.5340  174.7280  136.1660 O   0  0  0  0  0  0  0  0  0  0  0  0
  183.5880  175.4570  138.3790 N   0  0  0  0  0  2  0  0  0  0  0  0
  183.8590  174.4970  137.3600 C   0  0  0  0  0  0  0  0  0  0  0  0
  182.9830  176.7510  138.0920 C   0  0  0  0  0  2  0  0  0  0  0  0
  182.7870  177.5940  139.3580 C   0  0  2  0  0  0  0  0  0  0  0  0
  183.0740  176.8270  140.4760 F   0  0  0  0  0  0  0  0  0  0  0  0
  181.3090  177.9570  139.4140 C   0  0  0  0  0  1  0  0  0  0  0  0
  184.7790  178.6420  138.4970 O   0  0  0  0  0  1  0  0  0  0  0  0
  182.9360  180.0840  138.8490 C   0  0  0  0  0  1  0  0  0  0  0  0
  183.6930  178.8580  139.3530 C   0  0  1  0  0  0  0  0  0  0  0  0
  184.2710  179.1520  140.7420 C   0  0  0  0  0  2  0  0  0  0  0  0
  185.6250  179.4920  140.6810 O   0  0  0  0  0  1  0  0  0  0  0  0
  190.8360  176.7830  136.6790 N   0  0  0  0  0  2  0  0  0  0  0  0
  188.7250  178.8010  137.1370 C   0  0  0  0  0  1  0  0  0  0  0  0
  190.6900  176.8230  140.3990 C   0  0  0  0  0  3  0  0  0  0  0  0
  191.0600  176.5110  139.0880 C   0  0  0  0  0  3  0  0  0  0  0  0
  189.0440  178.3870  139.5620 C   0  0  0  0  0  3  0  0  0  0  0  0
  189.6810  177.7640  140.6400 C   0  0  0  0  0  0  0  0  0  0  0  0
  189.3990  178.0700  138.2480 C   0  0  0  0  0  0  0  0  0  0  0  0
  190.4130  177.1150  138.0070 C   0  0  0  0  0  0  0  0  0  0  0  0
  187.6140  177.6150  143.8590 C   0  0  0  0  0  3  0  0  0  0  0  0
  188.0310  177.3160  142.4530 C   0  0  0  0  0  2  0  0  0  0  0  0
  189.5980  176.5550  144.7490 N   0  0  0  0  0  0  0  0  0  0  0  0
  189.2660  178.1210  142.0310 C   0  0  1  0  0  3  0  0  0  0  0  0
  187.8310  177.4480  146.2170 N   0  0  0  0  0  1  0  0  0  0  0  0
  188.3520  177.2500  144.9090 C   0  0  0  0  0  0  0  0  0  0  0  0
  190.5260  176.8660  143.8880 C   0  0  0  0  0  3  0  0  0  0  0  0
  190.4580  178.0830  143.0030 C   0  0  2  0  0  3  0  0  0  0  0  0
  190.4790  179.2450  143.7750 O   0  0  0  0  0  1  0  0  0  0  0  0
  1 33  1  0  0  0  0
  2  1  1  0  0  0  0
  3  4  2  0  0  0  0
  3  5  1  0  0  0  0
  4  6  1  0  0  0  0
  5  2  2  0  0  0  0
  6 14  1  0  0  0  0
  6  1  2  0  0  0  0
  8  7  1  1  0  0  0
  9 11  1  0  0  0  0
 11 12  2  0  0  0  0
 12 10  1  0  0  0  0
 12  8  1  0  0  0  0
 13 15  2  0  0  0  0
 13 11  1  0  0  0  0
 14  8  1  0  0  0  0
 15 14  1  0  0  0  0
 16  5  1  0  0  0  0
 17 16  1  6  0  0  0
 17 19  1  0  0  0  0
 17 18  1  0  0  0  0
 19 18  1  0  0  0  0
 19 20  1  1  0  0  0
 21 23  2  0  0  0  0
 23 20  1  0  0  0  0
 23 22  1  0  0  0  0
 24 22  1  0  0  0  0
 24 25  1  0  0  0  0
 25 27  1  1  0  0  0
 25 26  1  0  0  0  0
 28 30  1  0  0  0  0
 30 29  1  6  0  0  0
 30 25  1  0  0  0  0
 30 31  1  0  0  0  0
 32 31  1  0  0  0  0
 33 40  1  0  0  0  0
 34 39  1  0  0  0  0
 35 38  1  0  0  0  0
 36 35  2  0  0  0  0
 37 38  2  0  0  0  0
 39 37  1  0  0  0  0
 40 39  2  0  0  0  0
 40 36  1  0  0  0  0
 41 46  2  0  0  0  0
 42 41  1  0  0  0  0
 43 46  1  0  0  0  0
 44 38  1  6  0  0  0
 44 42  1  0  0  0  0
 44 48  1  0  0  0  0
 46 45  1  0  0  0  0
 47 43  2  0  0  0  0
 48 49  1  1  0  0  0
 48 47  1  0  0  0  0
M  END
>  <MODEL>
9

>  <REMARK>
 VINA RESULT:      -7.2      3.052      9.165
  Name = 
  12 active torsions:
  status: ('A' for Active; 'I' for Inactive)
    1  A    between atoms: C_2  and  C_8
    2  A    between atoms: N_3  and  C_38
    3  A    between atoms: C_8  and  C_41
    4  A    between atoms: C_9  and  C_38
    5  A    between atoms: C_9  and  C_49
    6  A    between atoms: C_15  and  N_27
    7  A    between atoms: C_18  and  C_33
    8  A    between atoms: N_27  and  C_40
    9  A    between atoms: C_28  and  C_49
   10  A    between atoms: C_36  and  C_47
   11  A    between atoms: C_39  and  C_47
   12  A    between atoms: C_43  and  N_44
                            x       y       z     vdW  Elec       q    Type
                         _______ _______ _______ _____ _____    ______ ____

>  <TORSDO>
F 12

$$$$
