=
 OpenBabel10232410583D

 42 48  0  0  1  0  0  0  0  0999 V2000
  185.9490  178.4560  141.2800 C   0  0  0  0  0  0  0  0  0  0  0  0
  187.8840  177.7660  142.5870 C   0  0  0  0  0  0  0  0  0  0  0  0
  185.1340  178.3960  142.4380 C   0  0  0  0  0  0  0  0  0  0  0  0
  182.9980  179.0660  143.5690 C   0  0  0  0  0  3  0  0  0  0  0  0
  185.4420  178.8490  140.0110 N   0  0  0  0  0  0  0  0  0  0  0  0
  187.3090  178.1410  141.3680 C   0  0  0  0  0  3  0  0  0  0  0  0
  181.4540  178.8790  142.0920 C   0  0  0  0  0  0  0  0  0  0  0  0
  183.6790  178.7060  142.4610 C   0  0  0  0  0  0  0  0  0  0  0  0
  180.3380  178.8600  141.1700 C   0  0  0  0  0  3  0  0  0  0  0  0
  182.3720  178.3620  140.1710 C   0  0  0  0  0  0  0  0  0  0  0  0
  182.6430  178.5720  141.4470 C   0  0  0  0  0  0  0  0  0  0  0  0
  185.7370  178.0390  143.6580 C   0  0  0  0  0  3  0  0  0  0  0  0
  183.3470  178.1400  139.0700 C   0  0  0  0  0  2  0  0  0  0  0  0
  187.0940  177.7250  143.7340 C   0  0  0  0  0  3  0  0  0  0  0  0
  184.3840  179.2600  139.1030 C   0  0  2  0  0  3  0  0  0  0  0  0
  185.6070  179.0150  138.5630 N   0  0  0  0  0  0  0  0  0  0  0  0
  181.5820  179.2040  143.3290 N   0  0  0  0  0  0  0  0  0  0  0  0
  180.9080  178.5400  139.9940 C   0  0  0  0  0  3  0  0  0  0  0  0
  190.1480  178.6460  143.1140 C   0  0  0  0  0  1  0  0  0  0  0  0
  189.3380  177.4340  142.6880 C   0  0  1  0  0  3  0  0  0  0  0  0
  189.5410  176.3420  143.6230 N   0  0  0  0  0  2  0  0  0  0  0  0
  190.6440  176.9000  145.7560 C   0  0  0  0  0  0  0  0  0  0  0  0
  190.7000  176.6390  144.3530 N   0  0  0  0  0  2  0  0  0  0  0  0
  191.7350  177.1560  146.3990 N   0  0  0  0  0  2  0  0  0  0  0  0
  189.3390  176.9020  146.4790 C   0  0  0  0  0  2  0  0  0  0  0  0
  189.4570  177.6030  147.8180 C   0  0  0  0  0  2  0  0  0  0  0  0
  188.1480  178.3050  148.1670 C   0  0  0  0  0  2  0  0  0  0  0  0
  187.0410  177.8950  147.2060 C   0  0  0  0  0  2  0  0  0  0  0  0
  185.8950  178.8510  147.2750 C   0  0  0  0  0  0  0  0  0  0  0  0
  184.6040  178.4430  146.8420 N   0  0  0  0  0  1  0  0  0  0  0  0
  186.0650  180.0130  147.7280 O   0  0  0  0  0  0  0  0  0  0  0  0
  185.8000  177.6740  138.0040 C   0  0  0  0  0  2  0  0  0  0  0  0
  186.7260  177.7430  136.8050 C   0  0  0  0  0  2  0  0  0  0  0  0
  187.6800  178.9180  136.9430 C   0  0  0  0  0  2  0  0  0  0  0  0
  189.2080  177.2420  135.9230 C   0  0  0  0  0  2  0  0  0  0  0  0
  189.7050  177.8830  138.4350 S   0  0  0  0  0  0  0  0  0  0  0  0
  190.4680  176.5630  136.1820 N   0  0  2  0  0  0  0  0  0  0  0  0
  190.4100  175.2930  138.2010 N   0  0  0  0  0  2  0  0  0  0  0  0
  190.2680  175.1680  135.8430 C   0  0  0  0  0  2  0  0  0  0  0  0
  190.7120  176.5950  137.6270 C   0  0  2  0  0  3  0  0  0  0  0  0
  190.5200  174.3680  137.0920 C   0  0  0  0  0  2  0  0  0  0  0  0
  189.1180  178.4410  136.8290 C   0  0  2  0  0  3  0  0  0  0  0  0
  1  6  2  0  0  0  0
  1  3  1  0  0  0  0
  2 20  1  0  0  0  0
  2 14  2  0  0  0  0
  3  8  1  0  0  0  0
  3 12  2  0  0  0  0
  5  1  1  0  0  0  0
  6  2  1  0  0  0  0
  7 17  2  0  0  0  0
  8  4  2  0  0  0  0
  9  7  1  0  0  0  0
 10 11  2  0  0  0  0
 11  7  1  0  0  0  0
 11  8  1  0  0  0  0
 12 14  1  0  0  0  0
 13 10  1  0  0  0  0
 15 13  1  6  0  0  0
 15  5  1  0  0  0  0
 16 15  1  0  0  0  0
 16  5  1  0  0  0  0
 17  4  1  0  0  0  0
 18 10  1  0  0  0  0
 18  9  2  0  0  0  0
 20 19  1  1  0  0  0
 20 21  1  0  0  0  0
 21 23  1  0  0  0  0
 22 24  2  0  0  0  0
 22 25  1  0  0  0  0
 23 22  1  0  0  0  0
 25 26  1  0  0  0  0
 26 27  1  0  0  0  0
 28 29  1  0  0  0  0
 28 27  1  0  0  0  0
 29 31  2  0  0  0  0
 30 29  1  0  0  0  0
 32 16  1  0  0  0  0
 33 34  1  0  0  0  0
 33 32  1  0  0  0  0
 35 37  1  0  0  0  0
 35 42  1  0  0  0  0
 37 39  1  1  0  0  0
 37 40  1  0  0  0  0
 39 41  1  0  0  0  0
 40 38  1  1  0  0  0
 40 36  1  0  0  0  0
 41 38  1  0  0  0  0
 42 34  1  1  0  0  0
 42 36  1  0  0  0  0
M  END
>  <MODEL>
1

>  <REMARK>
 VINA RESULT:      -9.3      0.000      0.000
  Name = 
  12 active torsions:
  status: ('A' for Active; 'I' for Inactive)
    1  A    between atoms: C_1  and  C_10
    2  A    between atoms: C_1  and  C_34
    3  A    between atoms: C_2  and  C_11
    4  A    between atoms: C_2  and  C_16
    5  A    between atoms: C_4  and  C_10
    6  A    between atoms: C_6  and  C_30
    7  A    between atoms: C_8  and  C_40
    8  A    between atoms: C_11  and  C_38
    9  A    between atoms: N_12  and  N_24
   10  A    between atoms: C_16  and  N_39
   11  A    between atoms: N_24  and  C_30
   12  A    between atoms: C_34  and  C_40
                            x       y       z     vdW  Elec       q    Type
                         _______ _______ _______ _____ _____    ______ ____

>  <TORSDO>
F 12

$$$$
=
 OpenBabel10232410583D

 42 48  0  0  1  0  0  0  0  0999 V2000
  186.3750  178.3730  141.4760 C   0  0  0  0  0  0  0  0  0  0  0  0
  188.6020  177.4620  141.8520 C   0  0  0  0  0  0  0  0  0  0  0  0
  186.0790  178.2420  142.8550 C   0  0  0  0  0  0  0  0  0  0  0  0
  184.6240  178.9060  144.7880 C   0  0  0  0  0  3  0  0  0  0  0  0
  185.4460  178.9120  140.5450 N   0  0  0  0  0  0  0  0  0  0  0  0
  187.6280  177.9820  140.9930 C   0  0  0  0  0  3  0  0  0  0  0  0
  182.6140  178.9410  144.0390 C   0  0  0  0  0  0  0  0  0  0  0  0
  184.7820  178.6220  143.4780 C   0  0  0  0  0  0  0  0  0  0  0  0
  181.2280  179.0690  143.6390 C   0  0  0  0  0  3  0  0  0  0  0  0
  182.6560  178.5680  141.8810 C   0  0  0  0  0  0  0  0  0  0  0  0
  183.4230  178.6390  142.9540 C   0  0  0  0  0  0  0  0  0  0  0  0
  187.0800  177.7380  143.7060 C   0  0  0  0  0  3  0  0  0  0  0  0
  183.0970  178.4050  140.4700 C   0  0  0  0  0  2  0  0  0  0  0  0
  188.3260  177.3490  143.2130 C   0  0  0  0  0  3  0  0  0  0  0  0
  184.1560  179.4620  140.1640 C   0  0  2  0  0  3  0  0  0  0  0  0
  185.0430  179.2100  139.1650 N   0  0  0  0  0  0  0  0  0  0  0  0
  183.2440  179.1380  145.1420 N   0  0  0  0  0  0  0  0  0  0  0  0
  181.2610  178.8370  142.3140 C   0  0  0  0  0  3  0  0  0  0  0  0
  190.2040  177.6190  139.9590 C   0  0  0  0  0  1  0  0  0  0  0  0
  189.9450  177.0490  141.3420 C   0  0  1  0  0  3  0  0  0  0  0  0
  190.9840  177.4740  142.2620 N   0  0  0  0  0  2  0  0  0  0  0  0
  191.6610  175.9970  144.1160 C   0  0  0  0  0  0  0  0  0  0  0  0
  191.6200  176.3130  142.7240 N   0  0  0  0  0  2  0  0  0  0  0  0
  192.2420  174.9100  144.5050 N   0  0  0  0  0  2  0  0  0  0  0  0
  191.0590  176.9170  145.1250 C   0  0  0  0  0  2  0  0  0  0  0  0
  191.3860  176.4710  146.5370 C   0  0  0  0  0  2  0  0  0  0  0  0
  190.4340  177.1250  147.5330 C   0  0  0  0  0  2  0  0  0  0  0  0
  188.9920  177.0020  147.0660 C   0  0  0  0  0  2  0  0  0  0  0  0
  188.0820  177.8150  147.9290 C   0  0  0  0  0  0  0  0  0  0  0  0
  186.8360  178.2680  147.4150 N   0  0  0  0  0  1  0  0  0  0  0  0
  188.4070  178.0880  149.1130 O   0  0  0  0  0  0  0  0  0  0  0  0
  184.8860  177.9220  138.4850 C   0  0  0  0  0  2  0  0  0  0  0  0
  185.6560  177.9310  137.1790 C   0  0  0  0  0  2  0  0  0  0  0  0
  187.1500  177.8390  137.4470 C   0  0  0  0  0  2  0  0  0  0  0  0
  188.2640  175.6310  137.1920 C   0  0  0  0  0  2  0  0  0  0  0  0
  189.2800  177.6100  135.7710 S   0  0  0  0  0  0  0  0  0  0  0  0
  189.2410  174.9530  136.3540 N   0  0  2  0  0  0  0  0  0  0  0  0
  191.3700  176.0300  136.4000 N   0  0  0  0  0  2  0  0  0  0  0  0
  190.1120  174.2120  137.2450 C   0  0  0  0  0  2  0  0  0  0  0  0
  190.0830  175.9730  135.7230 C   0  0  2  0  0  3  0  0  0  0  0  0
  191.5080  174.7360  137.0360 C   0  0  0  0  0  2  0  0  0  0  0  0
  187.7980  176.8690  136.4740 C   0  0  2  0  0  3  0  0  0  0  0  0
  1  3  1  0  0  0  0
  2 14  2  0  0  0  0
  3  8  1  0  0  0  0
  3 12  2  0  0  0  0
  4 17  1  0  0  0  0
  5  1  1  0  0  0  0
  6  1  2  0  0  0  0
  6  2  1  0  0  0  0
  7 17  2  0  0  0  0
  8  4  2  0  0  0  0
  9  7  1  0  0  0  0
 10 18  1  0  0  0  0
 10 11  2  0  0  0  0
 11  8  1  0  0  0  0
 11  7  1  0  0  0  0
 13 10  1  0  0  0  0
 14 12  1  0  0  0  0
 15 13  1  6  0  0  0
 15  5  1  0  0  0  0
 16 15  1  0  0  0  0
 16  5  1  0  0  0  0
 18  9  2  0  0  0  0
 20 19  1  6  0  0  0
 20  2  1  0  0  0  0
 20 21  1  0  0  0  0
 21 23  1  0  0  0  0
 22 24  2  0  0  0  0
 22 25  1  0  0  0  0
 23 22  1  0  0  0  0
 25 26  1  0  0  0  0
 26 27  1  0  0  0  0
 28 27  1  0  0  0  0
 28 29  1  0  0  0  0
 29 31  2  0  0  0  0
 30 29  1  0  0  0  0
 32 16  1  0  0  0  0
 33 34  1  0  0  0  0
 33 32  1  0  0  0  0
 36 42  1  0  0  0  0
 37 35  1  1  0  0  0
 37 39  1  0  0  0  0
 38 41  1  0  0  0  0
 40 36  1  1  0  0  0
 40 37  1  0  0  0  0
 40 38  1  0  0  0  0
 41 39  1  0  0  0  0
 42 35  1  0  0  0  0
 42 34  1  1  0  0  0
M  END
>  <MODEL>
2

>  <REMARK>
 VINA RESULT:      -9.1      1.553      1.991
  Name = 
  12 active torsions:
  status: ('A' for Active; 'I' for Inactive)
    1  A    between atoms: C_1  and  C_10
    2  A    between atoms: C_1  and  C_34
    3  A    between atoms: C_2  and  C_11
    4  A    between atoms: C_2  and  C_16
    5  A    between atoms: C_4  and  C_10
    6  A    between atoms: C_6  and  C_30
    7  A    between atoms: C_8  and  C_40
    8  A    between atoms: C_11  and  C_38
    9  A    between atoms: N_12  and  N_24
   10  A    between atoms: C_16  and  N_39
   11  A    between atoms: N_24  and  C_30
   12  A    between atoms: C_34  and  C_40
                            x       y       z     vdW  Elec       q    Type
                         _______ _______ _______ _____ _____    ______ ____

>  <TORSDO>
F 12

$$$$
=
 OpenBabel10232410583D

 42 48  0  0  1  0  0  0  0  0999 V2000
  187.3180  177.5290  143.4090 C   0  0  0  0  0  0  0  0  0  0  0  0
  185.2090  178.6000  142.8290 C   0  0  0  0  0  0  0  0  0  0  0  0
  187.0750  177.7740  144.7830 C   0  0  0  0  0  0  0  0  0  0  0  0
  187.6130  177.2140  147.1680 C   0  0  0  0  0  3  0  0  0  0  0  0
  188.4800  176.8490  142.9500 N   0  0  0  0  0  0  0  0  0  0  0  0
  186.3860  177.9430  142.4520 C   0  0  0  0  0  3  0  0  0  0  0  0
  189.7440  176.9890  147.2640 C   0  0  0  0  0  0  0  0  0  0  0  0
  187.9950  177.3800  145.8850 C   0  0  0  0  0  0  0  0  0  0  0  0
  191.1600  176.7430  147.4440 C   0  0  0  0  0  3  0  0  0  0  0  0
  190.5650  177.1560  145.2390 C   0  0  0  0  0  0  0  0  0  0  0  0
  189.4430  177.2330  145.9320 C   0  0  0  0  0  0  0  0  0  0  0  0
  185.8750  178.4150  145.1420 C   0  0  0  0  0  3  0  0  0  0  0  0
  190.7130  177.2080  143.7610 C   0  0  0  0  0  2  0  0  0  0  0  0
  184.9530  178.8260  144.1790 C   0  0  0  0  0  3  0  0  0  0  0  0
  189.7610  176.1900  143.1380 C   0  0  2  0  0  3  0  0  0  0  0  0
  189.3510  176.3970  141.8590 N   0  0  0  0  0  0  0  0  0  0  0  0
  188.7250  176.9370  148.0450 N   0  0  0  0  0  0  0  0  0  0  0  0
  191.6570  176.8490  146.1980 C   0  0  0  0  0  3  0  0  0  0  0  0
  184.7760  178.9450  140.4060 C   0  0  0  0  0  1  0  0  0  0  0  0
  184.2070  179.0400  141.8110 C   0  0  1  0  0  3  0  0  0  0  0  0
  182.9990  178.2410  141.9170 N   0  0  0  0  0  2  0  0  0  0  0  0
  180.9810  179.0420  140.7500 C   0  0  0  0  0  0  0  0  0  0  0  0
  181.9160  179.1260  141.8260 N   0  0  0  0  0  2  0  0  0  0  0  0
  179.9850  179.8650  140.7070 N   0  0  0  0  0  2  0  0  0  0  0  0
  181.1540  178.0300  139.6670 C   0  0  0  0  0  2  0  0  0  0  0  0
  180.3790  176.7640  139.9720 C   0  0  0  0  0  2  0  0  0  0  0  0
  181.1920  175.5360  139.5730 C   0  0  0  0  0  2  0  0  0  0  0  0
  182.6280  175.9190  139.2460 C   0  0  0  0  0  2  0  0  0  0  0  0
  183.0780  175.2650  137.9800 C   0  0  0  0  0  0  0  0  0  0  0  0
  182.4600  175.6070  136.7470 N   0  0  0  0  0  1  0  0  0  0  0  0
  184.0120  174.4220  138.0000 O   0  0  0  0  0  0  0  0  0  0  0  0
  189.8720  177.6030  141.2100 C   0  0  0  0  0  2  0  0  0  0  0  0
  190.7340  177.2180  140.0230 C   0  0  0  0  0  2  0  0  0  0  0  0
  189.8860  176.5560  138.9490 C   0  0  0  0  0  2  0  0  0  0  0  0
  187.7010  177.5550  138.3090 C   0  0  0  0  0  2  0  0  0  0  0  0
  189.4560  177.2670  136.3590 S   0  0  0  0  0  0  0  0  0  0  0  0
  187.0580  178.2390  137.1980 N   0  0  2  0  0  0  0  0  0  0  0  0
  187.0430  176.9170  135.2110 N   0  0  0  0  0  2  0  0  0  0  0  0
  185.7430  177.6470  137.0480 C   0  0  0  0  0  2  0  0  0  0  0  0
  187.7910  177.9040  135.9730 C   0  0  2  0  0  3  0  0  0  0  0  0
  185.6750  177.0630  135.6630 C   0  0  0  0  0  2  0  0  0  0  0  0
  189.1920  177.6110  138.1050 C   0  0  2  0  0  3  0  0  0  0  0  0
  1  3  1  0  0  0  0
  2 14  2  0  0  0  0
  3 12  2  0  0  0  0
  3  8  1  0  0  0  0
  4 17  1  0  0  0  0
  5 15  1  0  0  0  0
  5  1  1  0  0  0  0
  6  2  1  0  0  0  0
  6  1  2  0  0  0  0
  7  9  1  0  0  0  0
  7 17  2  0  0  0  0
  8 11  1  0  0  0  0
  8  4  2  0  0  0  0
 10 11  2  0  0  0  0
 10 18  1  0  0  0  0
 11  7  1  0  0  0  0
 13 10  1  0  0  0  0
 14 12  1  0  0  0  0
 15 13  1  6  0  0  0
 16  5  1  0  0  0  0
 16 15  1  0  0  0  0
 18  9  2  0  0  0  0
 20 19  1  6  0  0  0
 20 21  1  0  0  0  0
 20  2  1  0  0  0  0
 22 23  1  0  0  0  0
 23 21  1  0  0  0  0
 24 22  2  0  0  0  0
 25 26  1  0  0  0  0
 25 22  1  0  0  0  0
 27 26  1  0  0  0  0
 28 27  1  0  0  0  0
 29 31  2  0  0  0  0
 29 28  1  0  0  0  0
 30 29  1  0  0  0  0
 32 16  1  0  0  0  0
 33 32  1  0  0  0  0
 34 33  1  0  0  0  0
 36 42  1  0  0  0  0
 37 39  1  6  0  0  0
 37 35  1  0  0  0  0
 38 41  1  0  0  0  0
 40 38  1  1  0  0  0
 40 36  1  0  0  0  0
 40 37  1  0  0  0  0
 41 39  1  0  0  0  0
 42 35  1  0  0  0  0
 42 34  1  1  0  0  0
M  END
>  <MODEL>
3

>  <REMARK>
 VINA RESULT:      -9.0      2.642      7.680
  Name = 
  12 active torsions:
  status: ('A' for Active; 'I' for Inactive)
    1  A    between atoms: C_1  and  C_10
    2  A    between atoms: C_1  and  C_34
    3  A    between atoms: C_2  and  C_11
    4  A    between atoms: C_2  and  C_16
    5  A    between atoms: C_4  and  C_10
    6  A    between atoms: C_6  and  C_30
    7  A    between atoms: C_8  and  C_40
    8  A    between atoms: C_11  and  C_38
    9  A    between atoms: N_12  and  N_24
   10  A    between atoms: C_16  and  N_39
   11  A    between atoms: N_24  and  C_30
   12  A    between atoms: C_34  and  C_40
                            x       y       z     vdW  Elec       q    Type
                         _______ _______ _______ _____ _____    ______ ____

>  <TORSDO>
F 12

$$$$
=
 OpenBabel10232410583D

 42 48  0  0  1  0  0  0  0  0999 V2000
  187.1650  177.3300  143.5120 C   0  0  0  0  0  0  0  0  0  0  0  0
  184.9940  178.2900  142.9690 C   0  0  0  0  0  0  0  0  0  0  0  0
  186.9830  177.6670  144.8760 C   0  0  0  0  0  0  0  0  0  0  0  0
  187.6590  177.2990  147.2640 C   0  0  0  0  0  3  0  0  0  0  0  0
  188.3260  176.6560  143.0420 N   0  0  0  0  0  0  0  0  0  0  0  0
  186.1730  177.6450  142.5780 C   0  0  0  0  0  3  0  0  0  0  0  0
  189.7990  177.1490  147.2630 C   0  0  0  0  0  0  0  0  0  0  0  0
  187.9700  177.3830  145.9540 C   0  0  0  0  0  0  0  0  0  0  0  0
  191.2290  176.9610  147.3860 C   0  0  0  0  0  3  0  0  0  0  0  0
  190.5110  177.1940  145.1920 C   0  0  0  0  0  0  0  0  0  0  0  0
  189.4230  177.2860  145.9350 C   0  0  0  0  0  0  0  0  0  0  0  0
  185.7810  178.2940  145.2520 C   0  0  0  0  0  3  0  0  0  0  0  0
  190.5830  177.1430  143.7070 C   0  0  0  0  0  2  0  0  0  0  0  0
  184.7980  178.6050  144.3110 C   0  0  0  0  0  3  0  0  0  0  0  0
  189.6370  176.0530  143.2090 C   0  0  2  0  0  3  0  0  0  0  0  0
  189.1560  176.1540  141.9420 N   0  0  0  0  0  0  0  0  0  0  0  0
  188.8220  177.1220  148.0990 N   0  0  0  0  0  0  0  0  0  0  0  0
  191.6600  176.9920  146.1110 C   0  0  0  0  0  3  0  0  0  0  0  0
  182.7530  179.3140  142.6450 C   0  0  0  0  0  1  0  0  0  0  0  0
  183.9280  178.6230  141.9760 C   0  0  1  0  0  3  0  0  0  0  0  0
  184.4680  179.4620  140.9210 N   0  0  0  0  0  2  0  0  0  0  0  0
  183.4520  178.9430  138.7350 C   0  0  0  0  0  0  0  0  0  0  0  0
  184.4360  178.7050  139.7420 N   0  0  0  0  0  2  0  0  0  0  0  0
  183.4630  178.2360  137.6540 N   0  0  0  0  0  2  0  0  0  0  0  0
  182.3990  179.9830  138.9300 C   0  0  0  0  0  2  0  0  0  0  0  0
  181.2800  179.8250  137.9200 C   0  0  0  0  0  2  0  0  0  0  0  0
  180.5930  181.1660  137.6770 C   0  0  0  0  0  2  0  0  0  0  0  0
  181.5340  182.3210  137.9850 C   0  0  0  0  0  2  0  0  0  0  0  0
  181.2590  183.4850  137.0890 C   0  0  0  0  0  0  0  0  0  0  0  0
  180.6700  183.2730  135.8130 N   0  0  0  0  0  1  0  0  0  0  0  0
  181.5360  184.6540  137.4640 O   0  0  0  0  0  0  0  0  0  0  0  0
  189.6020  177.3250  141.1820 C   0  0  0  0  0  2  0  0  0  0  0  0
  190.7670  176.9470  140.2880 C   0  0  0  0  0  2  0  0  0  0  0  0
  190.3110  176.8550  138.8410 C   0  0  0  0  0  2  0  0  0  0  0  0
  188.0120  176.4040  138.0100 C   0  0  0  0  0  2  0  0  0  0  0  0
  188.9160  178.8560  137.6370 S   0  0  0  0  0  0  0  0  0  0  0  0
  186.8410  177.1020  137.5040 N   0  0  2  0  0  0  0  0  0  0  0  0
  187.3180  178.3500  135.5270 N   0  0  0  0  0  2  0  0  0  0  0  0
  186.3680  176.3490  136.3580 C   0  0  0  0  0  2  0  0  0  0  0  0
  187.2760  178.4000  136.9800 C   0  0  2  0  0  3  0  0  0  0  0  0
  186.4200  177.2720  135.1710 C   0  0  0  0  0  2  0  0  0  0  0  0
  188.9020  177.4030  138.6990 C   0  0  2  0  0  3  0  0  0  0  0  0
  1  3  1  0  0  0  0
  2 14  2  0  0  0  0
  3 12  2  0  0  0  0
  3  8  1  0  0  0  0
  4 17  1  0  0  0  0
  5 15  1  0  0  0  0
  5  1  1  0  0  0  0
  6  2  1  0  0  0  0
  6  1  2  0  0  0  0
  7  9  1  0  0  0  0
  7 17  2  0  0  0  0
  8  4  2  0  0  0  0
 10 11  2  0  0  0  0
 10 18  1  0  0  0  0
 11  8  1  0  0  0  0
 11  7  1  0  0  0  0
 13 10  1  0  0  0  0
 14 12  1  0  0  0  0
 15 13  1  6  0  0  0
 16  5  1  0  0  0  0
 16 15  1  0  0  0  0
 18  9  2  0  0  0  0
 20 19  1  1  0  0  0
 20  2  1  0  0  0  0
 21 20  1  0  0  0  0
 22 25  1  0  0  0  0
 22 23  1  0  0  0  0
 23 21  1  0  0  0  0
 24 22  2  0  0  0  0
 26 25  1  0  0  0  0
 27 26  1  0  0  0  0
 27 28  1  0  0  0  0
 29 31  2  0  0  0  0
 29 28  1  0  0  0  0
 30 29  1  0  0  0  0
 32 16  1  0  0  0  0
 33 32  1  0  0  0  0
 34 33  1  0  0  0  0
 35 42  1  0  0  0  0
 36 42  1  0  0  0  0
 37 39  1  6  0  0  0
 37 35  1  0  0  0  0
 40 38  1  6  0  0  0
 40 37  1  0  0  0  0
 40 36  1  0  0  0  0
 41 38  1  0  0  0  0
 41 39  1  0  0  0  0
 42 34  1  6  0  0  0
M  END
>  <MODEL>
4

>  <REMARK>
 VINA RESULT:      -8.7      2.956      7.910
  Name = 
  12 active torsions:
  status: ('A' for Active; 'I' for Inactive)
    1  A    between atoms: C_1  and  C_10
    2  A    between atoms: C_1  and  C_34
    3  A    between atoms: C_2  and  C_11
    4  A    between atoms: C_2  and  C_16
    5  A    between atoms: C_4  and  C_10
    6  A    between atoms: C_6  and  C_30
    7  A    between atoms: C_8  and  C_40
    8  A    between atoms: C_11  and  C_38
    9  A    between atoms: N_12  and  N_24
   10  A    between atoms: C_16  and  N_39
   11  A    between atoms: N_24  and  C_30
   12  A    between atoms: C_34  and  C_40
                            x       y       z     vdW  Elec       q    Type
                         _______ _______ _______ _____ _____    ______ ____

>  <TORSDO>
F 12

$$$$
=
 OpenBabel10232410583D

 42 48  0  0  1  0  0  0  0  0999 V2000
  186.3930  178.3990  141.4620 C   0  0  0  0  0  0  0  0  0  0  0  0
  188.6170  177.4740  141.8160 C   0  0  0  0  0  0  0  0  0  0  0  0
  186.0870  178.2100  142.8330 C   0  0  0  0  0  0  0  0  0  0  0  0
  184.6170  178.7920  144.7810 C   0  0  0  0  0  3  0  0  0  0  0  0
  185.4700  178.9770  140.5480 N   0  0  0  0  0  0  0  0  0  0  0  0
  187.6500  178.0300  140.9720 C   0  0  0  0  0  3  0  0  0  0  0  0
  182.6130  178.8580  144.0200 C   0  0  0  0  0  0  0  0  0  0  0  0
  184.7850  178.5630  143.4620 C   0  0  0  0  0  0  0  0  0  0  0  0
  181.2300  179.0020  143.6160 C   0  0  0  0  0  3  0  0  0  0  0  0
  182.6710  178.5750  141.8480 C   0  0  0  0  0  0  0  0  0  0  0  0
  183.4300  178.6020  142.9290 C   0  0  0  0  0  0  0  0  0  0  0  0
  187.0820  177.6720  143.6690 C   0  0  0  0  0  3  0  0  0  0  0  0
  183.1230  178.4720  140.4350 C   0  0  0  0  0  2  0  0  0  0  0  0
  188.3320  177.3050  143.1690 C   0  0  0  0  0  3  0  0  0  0  0  0
  184.1820  179.5410  140.1810 C   0  0  2  0  0  3  0  0  0  0  0  0
  185.0770  179.3310  139.1790 N   0  0  0  0  0  0  0  0  0  0  0  0
  183.2350  179.0090  145.1340 N   0  0  0  0  0  0  0  0  0  0  0  0
  181.2730  178.8250  142.2820 C   0  0  0  0  0  3  0  0  0  0  0  0
  190.2090  177.6610  139.9160 C   0  0  0  0  0  1  0  0  0  0  0  0
  189.9650  177.0830  141.2990 C   0  0  1  0  0  3  0  0  0  0  0  0
  191.0020  177.5220  142.2160 N   0  0  0  0  0  2  0  0  0  0  0  0
  191.7300  176.0850  144.0820 C   0  0  0  0  0  0  0  0  0  0  0  0
  191.6460  176.3690  142.6850 N   0  0  0  0  0  2  0  0  0  0  0  0
  192.3180  175.0050  144.4770 N   0  0  0  0  0  2  0  0  0  0  0  0
  191.1660  177.0330  145.0870 C   0  0  0  0  0  2  0  0  0  0  0  0
  191.3940  176.5310  146.5000 C   0  0  0  0  0  2  0  0  0  0  0  0
  190.3790  177.1560  147.4540 C   0  0  0  0  0  2  0  0  0  0  0  0
  188.9580  176.9160  146.9670 C   0  0  0  0  0  2  0  0  0  0  0  0
  187.9840  177.7460  147.7380 C   0  0  0  0  0  0  0  0  0  0  0  0
  188.2310  178.0410  149.1060 N   0  0  0  0  0  1  0  0  0  0  0  0
  186.9510  178.1970  147.1770 O   0  0  0  0  0  0  0  0  0  0  0  0
  184.9260  178.0730  138.4450 C   0  0  0  0  0  2  0  0  0  0  0  0
  185.9200  178.0210  137.3000 C   0  0  0  0  0  2  0  0  0  0  0  0
  185.8970  176.6490  136.6450 C   0  0  0  0  0  2  0  0  0  0  0  0
  185.0080  174.4400  137.3580 C   0  0  0  0  0  2  0  0  0  0  0  0
  183.4570  175.8450  135.7490 S   0  0  0  0  0  0  0  0  0  0  0  0
  183.7800  173.6600  137.3380 N   0  0  2  0  0  0  0  0  0  0  0  0
  182.9990  173.2650  135.1180 N   0  0  0  0  0  2  0  0  0  0  0  0
  184.1480  172.3110  136.9530 C   0  0  0  0  0  2  0  0  0  0  0  0
  182.9360  174.1720  136.2540 C   0  0  2  0  0  3  0  0  0  0  0  0
  183.4060  171.9960  135.6830 C   0  0  0  0  0  2  0  0  0  0  0  0
  184.6630  175.8790  137.0840 C   0  0  2  0  0  3  0  0  0  0  0  0
  1  3  1  0  0  0  0
  2 14  2  0  0  0  0
  3  8  1  0  0  0  0
  3 12  2  0  0  0  0
  4 17  1  0  0  0  0
  5  1  1  0  0  0  0
  6  1  2  0  0  0  0
  6  2  1  0  0  0  0
  7 17  2  0  0  0  0
  8  4  2  0  0  0  0
  9  7  1  0  0  0  0
 10 18  1  0  0  0  0
 10 11  2  0  0  0  0
 11  8  1  0  0  0  0
 11  7  1  0  0  0  0
 13 10  1  0  0  0  0
 14 12  1  0  0  0  0
 15 13  1  6  0  0  0
 15  5  1  0  0  0  0
 16 15  1  0  0  0  0
 16  5  1  0  0  0  0
 18  9  2  0  0  0  0
 20 19  1  6  0  0  0
 20  2  1  0  0  0  0
 20 21  1  0  0  0  0
 21 23  1  0  0  0  0
 22 24  2  0  0  0  0
 22 25  1  0  0  0  0
 23 22  1  0  0  0  0
 25 26  1  0  0  0  0
 26 27  1  0  0  0  0
 28 27  1  0  0  0  0
 28 29  1  0  0  0  0
 29 30  1  0  0  0  0
 31 29  2  0  0  0  0
 32 16  1  0  0  0  0
 33 32  1  0  0  0  0
 34 33  1  0  0  0  0
 36 40  1  0  0  0  0
 36 42  1  0  0  0  0
 37 39  1  6  0  0  0
 37 35  1  0  0  0  0
 38 41  1  0  0  0  0
 40 38  1  6  0  0  0
 40 37  1  0  0  0  0
 41 39  1  0  0  0  0
 42 34  1  6  0  0  0
 42 35  1  0  0  0  0
M  END
>  <MODEL>
5

>  <REMARK>
 VINA RESULT:      -8.6      2.802      3.606
  Name = 
  12 active torsions:
  status: ('A' for Active; 'I' for Inactive)
    1  A    between atoms: C_1  and  C_10
    2  A    between atoms: C_1  and  C_34
    3  A    between atoms: C_2  and  C_11
    4  A    between atoms: C_2  and  C_16
    5  A    between atoms: C_4  and  C_10
    6  A    between atoms: C_6  and  C_30
    7  A    between atoms: C_8  and  C_40
    8  A    between atoms: C_11  and  C_38
    9  A    between atoms: N_12  and  N_24
   10  A    between atoms: C_16  and  N_39
   11  A    between atoms: N_24  and  C_30
   12  A    between atoms: C_34  and  C_40
                            x       y       z     vdW  Elec       q    Type
                         _______ _______ _______ _____ _____    ______ ____

>  <TORSDO>
F 12

$$$$
=
 OpenBabel10232410583D

 42 48  0  0  1  0  0  0  0  0999 V2000
  187.2600  177.3330  143.5490 C   0  0  0  0  0  0  0  0  0  0  0  0
  185.1110  178.2950  142.9270 C   0  0  0  0  0  0  0  0  0  0  0  0
  187.0280  177.6680  144.9050 C   0  0  0  0  0  0  0  0  0  0  0  0
  187.6160  177.2980  147.3150 C   0  0  0  0  0  3  0  0  0  0  0  0
  188.4370  176.6580  143.1210 N   0  0  0  0  0  0  0  0  0  0  0  0
  186.3030  177.6490  142.5790 C   0  0  0  0  0  3  0  0  0  0  0  0
  189.7540  177.1460  147.3940 C   0  0  0  0  0  0  0  0  0  0  0  0
  187.9740  177.3830  146.0180 C   0  0  0  0  0  0  0  0  0  0  0  0
  191.1790  176.9560  147.5680 C   0  0  0  0  0  3  0  0  0  0  0  0
  190.5410  177.1920  145.3500 C   0  0  0  0  0  0  0  0  0  0  0  0
  189.4270  177.2840  146.0530 C   0  0  0  0  0  0  0  0  0  0  0  0
  185.8130  178.2960  145.2370 C   0  0  0  0  0  3  0  0  0  0  0  0
  190.6690  177.1420  143.8690 C   0  0  0  0  0  2  0  0  0  0  0  0
  184.8660  178.6090  144.2620 C   0  0  0  0  0  3  0  0  0  0  0  0
  189.7410  176.0540  143.3350 C   0  0  2  0  0  3  0  0  0  0  0  0
  189.3070  176.1560  142.0510 N   0  0  0  0  0  0  0  0  0  0  0  0
  188.7470  177.1180  148.1930 N   0  0  0  0  0  0  0  0  0  0  0  0
  191.6560  176.9880  146.3100 C   0  0  0  0  0  3  0  0  0  0  0  0
  182.8440  179.2340  142.5340 C   0  0  0  0  0  1  0  0  0  0  0  0
  184.0820  178.6300  141.8960 C   0  0  1  0  0  3  0  0  0  0  0  0
  184.6360  179.5430  140.9120 N   0  0  0  0  0  2  0  0  0  0  0  0
  183.8890  178.6860  138.7240 C   0  0  0  0  0  0  0  0  0  0  0  0
  183.7410  179.5730  139.8340 N   0  0  0  0  0  2  0  0  0  0  0  0
  183.0360  178.7320  137.7550 N   0  0  0  0  0  2  0  0  0  0  0  0
  185.0290  177.7250  138.6640 C   0  0  0  0  0  2  0  0  0  0  0  0
  185.9060  177.9920  137.4570 C   0  0  0  0  0  2  0  0  0  0  0  0
  186.6740  176.7310  137.0700 C   0  0  0  0  0  2  0  0  0  0  0  0
  185.7590  175.7300  136.3810 C   0  0  0  0  0  2  0  0  0  0  0  0
  185.7370  174.4320  137.1220 C   0  0  0  0  0  0  0  0  0  0  0  0
  184.5130  173.9380  137.6500 N   0  0  0  0  0  1  0  0  0  0  0  0
  186.7950  173.7670  137.2680 O   0  0  0  0  0  0  0  0  0  0  0  0
  189.7810  177.3280  141.3100 C   0  0  0  0  0  2  0  0  0  0  0  0
  188.9970  177.4740  140.0190 C   0  0  0  0  0  2  0  0  0  0  0  0
  189.9440  177.5250  138.8310 C   0  0  0  0  0  2  0  0  0  0  0  0
  192.1870  176.5390  138.4080 C   0  0  0  0  0  2  0  0  0  0  0  0
  190.1340  175.2170  137.4040 S   0  0  0  0  0  0  0  0  0  0  0  0
  192.8040  175.3190  137.9110 N   0  0  2  0  0  0  0  0  0  0  0  0
  192.1570  174.8290  135.6670 N   0  0  0  0  0  2  0  0  0  0  0  0
  193.8770  175.7260  137.0230 C   0  0  0  0  0  2  0  0  0  0  0  0
  191.8260  174.6250  137.0690 C   0  0  2  0  0  3  0  0  0  0  0  0
  193.5690  175.1520  135.6660 C   0  0  0  0  0  2  0  0  0  0  0  0
  190.7510  176.2410  138.7490 C   0  0  2  0  0  3  0  0  0  0  0  0
  1  3  1  0  0  0  0
  2 14  2  0  0  0  0
  3 12  2  0  0  0  0
  3  8  1  0  0  0  0
  4 17  1  0  0  0  0
  5 15  1  0  0  0  0
  5  1  1  0  0  0  0
  6  2  1  0  0  0  0
  6  1  2  0  0  0  0
  7  9  1  0  0  0  0
  7 17  2  0  0  0  0
  8 11  1  0  0  0  0
  8  4  2  0  0  0  0
 10 11  2  0  0  0  0
 10 18  1  0  0  0  0
 11  7  1  0  0  0  0
 13 10  1  0  0  0  0
 14 12  1  0  0  0  0
 15 13  1  6  0  0  0
 16  5  1  0  0  0  0
 16 15  1  0  0  0  0
 18  9  2  0  0  0  0
 20 19  1  1  0  0  0
 20  2  1  0  0  0  0
 21 20  1  0  0  0  0
 22 23  1  0  0  0  0
 23 21  1  0  0  0  0
 24 22  2  0  0  0  0
 25 22  1  0  0  0  0
 26 25  1  0  0  0  0
 27 26  1  0  0  0  0
 28 27  1  0  0  0  0
 28 29  1  0  0  0  0
 29 31  2  0  0  0  0
 29 30  1  0  0  0  0
 32 16  1  0  0  0  0
 33 32  1  0  0  0  0
 34 33  1  0  0  0  0
 35 42  1  0  0  0  0
 36 42  1  0  0  0  0
 37 39  1  6  0  0  0
 37 35  1  0  0  0  0
 40 38  1  6  0  0  0
 40 36  1  0  0  0  0
 40 37  1  0  0  0  0
 41 38  1  0  0  0  0
 41 39  1  0  0  0  0
 42 34  1  6  0  0  0
M  END
>  <MODEL>
6

>  <REMARK>
 VINA RESULT:      -8.5      2.724      7.538
  Name = 
  12 active torsions:
  status: ('A' for Active; 'I' for Inactive)
    1  A    between atoms: C_1  and  C_10
    2  A    between atoms: C_1  and  C_34
    3  A    between atoms: C_2  and  C_11
    4  A    between atoms: C_2  and  C_16
    5  A    between atoms: C_4  and  C_10
    6  A    between atoms: C_6  and  C_30
    7  A    between atoms: C_8  and  C_40
    8  A    between atoms: C_11  and  C_38
    9  A    between atoms: N_12  and  N_24
   10  A    between atoms: C_16  and  N_39
   11  A    between atoms: N_24  and  C_30
   12  A    between atoms: C_34  and  C_40
                            x       y       z     vdW  Elec       q    Type
                         _______ _______ _______ _____ _____    ______ ____

>  <TORSDO>
F 12

$$$$
=
 OpenBabel10232410583D

 42 48  0  0  1  0  0  0  0  0999 V2000
  187.9840  178.1300  141.0990 C   0  0  0  0  0  0  0  0  0  0  0  0
  189.4490  177.2770  139.3510 C   0  0  0  0  0  0  0  0  0  0  0  0
  188.8340  177.5830  142.0910 C   0  0  0  0  0  0  0  0  0  0  0  0
  189.5600  177.5650  144.4920 C   0  0  0  0  0  3  0  0  0  0  0  0
  186.8110  178.8670  141.4220 N   0  0  0  0  0  0  0  0  0  0  0  0
  188.3010  177.9710  139.7460 C   0  0  0  0  0  3  0  0  0  0  0  0
  187.7670  177.7050  145.6610 C   0  0  0  0  0  0  0  0  0  0  0  0
  188.5960  177.6880  143.5570 C   0  0  0  0  0  0  0  0  0  0  0  0
  186.6400  177.8660  146.5560 C   0  0  0  0  0  3  0  0  0  0  0  0
  186.0640  177.9870  144.3120 C   0  0  0  0  0  0  0  0  0  0  0  0
  187.3690  177.7820  144.3350 C   0  0  0  0  0  0  0  0  0  0  0  0
  189.9960  176.9080  141.6740 C   0  0  0  0  0  3  0  0  0  0  0  0
  185.2190  178.2720  143.1220 C   0  0  0  0  0  2  0  0  0  0  0  0
  190.3010  176.7530  140.3210 C   0  0  0  0  0  3  0  0  0  0  0  0
  185.8420  179.4300  142.3470 C   0  0  2  0  0  3  0  0  0  0  0  0
  185.5680  179.5330  141.0190 N   0  0  0  0  0  0  0  0  0  0  0  0
  189.0360  177.6040  145.8360 N   0  0  0  0  0  0  0  0  0  0  0  0
  185.5990  178.0360  145.7210 C   0  0  0  0  0  3  0  0  0  0  0  0
  189.3580  178.3160  137.0950 C   0  0  0  0  0  1  0  0  0  0  0  0
  189.7950  177.1090  137.9070 C   0  0  1  0  0  3  0  0  0  0  0  0
  191.2230  176.8930  137.7540 N   0  0  0  0  0  2  0  0  0  0  0  0
  192.4590  175.1010  136.5970 C   0  0  0  0  0  0  0  0  0  0  0  0
  191.3910  176.0470  136.6480 N   0  0  0  0  0  2  0  0  0  0  0  0
  192.5740  174.3270  135.5680 N   0  0  0  0  0  2  0  0  0  0  0  0
  193.4540  175.0130  137.7060 C   0  0  0  0  0  2  0  0  0  0  0  0
  194.4480  173.8950  137.4610 C   0  0  0  0  0  2  0  0  0  0  0  0
  195.3610  173.7240  138.6720 C   0  0  0  0  0  2  0  0  0  0  0  0
  196.8030  174.0560  138.3150 C   0  0  0  0  0  2  0  0  0  0  0  0
  197.3780  175.0380  139.2830 C   0  0  0  0  0  0  0  0  0  0  0  0
  196.6180  175.4490  140.4120 N   0  0  0  0  0  1  0  0  0  0  0  0
  198.5380  175.4940  139.1100 O   0  0  0  0  0  0  0  0  0  0  0  0
  184.6930  178.4960  140.4670 C   0  0  0  0  0  2  0  0  0  0  0  0
  184.6720  178.5900  138.9540 C   0  0  0  0  0  2  0  0  0  0  0  0
  183.4090  177.9460  138.4040 C   0  0  0  0  0  2  0  0  0  0  0  0
  183.6750  175.5870  137.6670 C   0  0  0  0  0  2  0  0  0  0  0  0
  185.4580  177.2960  136.7360 S   0  0  0  0  0  0  0  0  0  0  0  0
  184.4160  174.7840  136.7060 N   0  0  2  0  0  0  0  0  0  0  0  0
  186.7750  174.9610  137.0110 N   0  0  0  0  0  2  0  0  0  0  0  0
  184.8780  173.6060  137.4150 C   0  0  0  0  0  2  0  0  0  0  0  0
  185.6220  175.5260  136.3280 C   0  0  2  0  0  3  0  0  0  0  0  0
  186.3810  173.6080  137.3400 C   0  0  0  0  0  2  0  0  0  0  0  0
  183.7520  177.0290  137.2420 C   0  0  2  0  0  3  0  0  0  0  0  0
  1  5  1  0  0  0  0
  1  3  1  0  0  0  0
  2  6  1  0  0  0  0
  2 14  2  0  0  0  0
  3  8  1  0  0  0  0
  4 17  1  0  0  0  0
  5 15  1  0  0  0  0
  6  1  2  0  0  0  0
  7 17  2  0  0  0  0
  7  9  1  0  0  0  0
  8 11  1  0  0  0  0
  8  4  2  0  0  0  0
 10 11  2  0  0  0  0
 10 18  1  0  0  0  0
 11  7  1  0  0  0  0
 12  3  2  0  0  0  0
 13 10  1  0  0  0  0
 14 12  1  0  0  0  0
 15 13  1  1  0  0  0
 16  5  1  0  0  0  0
 16 15  1  0  0  0  0
 18  9  2  0  0  0  0
 20 19  1  6  0  0  0
 20  2  1  0  0  0  0
 21 20  1  0  0  0  0
 22 23  1  0  0  0  0
 22 25  1  0  0  0  0
 23 21  1  0  0  0  0
 24 22  2  0  0  0  0
 26 25  1  0  0  0  0
 26 27  1  0  0  0  0
 28 27  1  0  0  0  0
 28 29  1  0  0  0  0
 29 30  1  0  0  0  0
 31 29  2  0  0  0  0
 32 16  1  0  0  0  0
 33 32  1  0  0  0  0
 34 33  1  0  0  0  0
 36 42  1  0  0  0  0
 37 39  1  1  0  0  0
 37 35  1  0  0  0  0
 38 41  1  0  0  0  0
 40 37  1  0  0  0  0
 40 36  1  1  0  0  0
 40 38  1  0  0  0  0
 41 39  1  0  0  0  0
 42 35  1  0  0  0  0
 42 34  1  1  0  0  0
M  END
>  <MODEL>
7

>  <REMARK>
 VINA RESULT:      -8.4      3.833      7.544
  Name = 
  12 active torsions:
  status: ('A' for Active; 'I' for Inactive)
    1  A    between atoms: C_1  and  C_10
    2  A    between atoms: C_1  and  C_34
    3  A    between atoms: C_2  and  C_11
    4  A    between atoms: C_2  and  C_16
    5  A    between atoms: C_4  and  C_10
    6  A    between atoms: C_6  and  C_30
    7  A    between atoms: C_8  and  C_40
    8  A    between atoms: C_11  and  C_38
    9  A    between atoms: N_12  and  N_24
   10  A    between atoms: C_16  and  N_39
   11  A    between atoms: N_24  and  C_30
   12  A    between atoms: C_34  and  C_40
                            x       y       z     vdW  Elec       q    Type
                         _______ _______ _______ _____ _____    ______ ____

>  <TORSDO>
F 12

$$$$
=
 OpenBabel10232410583D

 42 48  0  0  1  0  0  0  0  0999 V2000
  188.2180  178.0410  139.4940 C   0  0  0  0  0  0  0  0  0  0  0  0
  189.7950  177.6530  141.3080 C   0  0  0  0  0  0  0  0  0  0  0  0
  187.1760  178.2460  140.4320 C   0  0  0  0  0  0  0  0  0  0  0  0
  184.8880  179.1620  140.8990 C   0  0  0  0  0  3  0  0  0  0  0  0
  188.0110  178.1430  138.0900 N   0  0  0  0  0  0  0  0  0  0  0  0
  189.5100  177.7480  139.9410 C   0  0  0  0  0  3  0  0  0  0  0  0
  183.6820  178.6560  139.1990 C   0  0  0  0  0  0  0  0  0  0  0  0
  185.7670  178.5610  140.0710 C   0  0  0  0  0  0  0  0  0  0  0  0
  182.7860  178.4370  138.0830 C   0  0  0  0  0  3  0  0  0  0  0  0
  184.9550  177.7180  137.6830 C   0  0  0  0  0  0  0  0  0  0  0  0
  184.9620  178.2070  138.9100 C   0  0  0  0  0  0  0  0  0  0  0  0
  187.4890  178.1680  141.8010 C   0  0  0  0  0  3  0  0  0  0  0  0
  186.1270  177.2510  136.8940 C   0  0  0  0  0  2  0  0  0  0  0  0
  188.7810  177.8730  142.2370 C   0  0  0  0  0  3  0  0  0  0  0  0
  187.1920  178.3450  136.9080 C   0  0  2  0  0  3  0  0  0  0  0  0
  188.4870  177.9800  136.7120 N   0  0  0  0  0  0  0  0  0  0  0  0
  183.5640  179.2490  140.3330 N   0  0  0  0  0  0  0  0  0  0  0  0
  183.5730  177.8600  137.1570 C   0  0  0  0  0  3  0  0  0  0  0  0
  192.2110  177.6450  140.7220 C   0  0  0  0  0  1  0  0  0  0  0  0
  191.1760  177.3450  141.7910 C   0  0  1  0  0  3  0  0  0  0  0  0
  191.4670  178.1010  142.9960 N   0  0  0  0  0  2  0  0  0  0  0  0
  191.2030  177.0530  145.2120 C   0  0  0  0  0  0  0  0  0  0  0  0
  191.8870  177.1800  143.9650 N   0  0  0  0  0  2  0  0  0  0  0  0
  191.6090  176.1820  146.0750 N   0  0  0  0  0  2  0  0  0  0  0  0
  190.0390  177.9300  145.5350 C   0  0  0  0  0  2  0  0  0  0  0  0
  189.0400  177.2100  146.4200 C   0  0  0  0  0  2  0  0  0  0  0  0
  187.7600  178.0300  146.5490 C   0  0  0  0  0  2  0  0  0  0  0  0
  186.7240  177.5820  145.5290 C   0  0  0  0  0  2  0  0  0  0  0  0
  185.5530  178.5100  145.5170 C   0  0  0  0  0  0  0  0  0  0  0  0
  184.8490  178.7800  146.7220 N   0  0  0  0  0  1  0  0  0  0  0  0
  185.1950  179.0660  144.4450 O   0  0  0  0  0  0  0  0  0  0  0  0
  188.7210  176.5470  136.5140 C   0  0  0  0  0  2  0  0  0  0  0  0
  189.4400  176.3190  135.1980 C   0  0  0  0  0  2  0  0  0  0  0  0
  190.5940  175.3490  135.3900 C   0  0  0  0  0  2  0  0  0  0  0  0
  192.9990  175.9650  135.5270 C   0  0  0  0  0  2  0  0  0  0  0  0
  191.9200  175.0150  137.7410 S   0  0  0  0  0  0  0  0  0  0  0  0
  194.0570  176.1580  136.5070 N   0  0  2  0  0  0  0  0  0  0  0  0
  194.4840  174.1840  137.7760 N   0  0  0  0  0  2  0  0  0  0  0  0
  195.2420  175.5150  135.9730 C   0  0  0  0  0  2  0  0  0  0  0  0
  193.7010  175.4080  137.7140 C   0  0  2  0  0  3  0  0  0  0  0  0
  195.6470  174.4490  136.9560 C   0  0  0  0  0  2  0  0  0  0  0  0
  191.6760  175.9850  136.2460 C   0  0  2  0  0  3  0  0  0  0  0  0
  1  6  2  0  0  0  0
  1  3  1  0  0  0  0
  2 20  1  0  0  0  0
  2 14  2  0  0  0  0
  3 12  2  0  0  0  0
  5  1  1  0  0  0  0
  6  2  1  0  0  0  0
  7 17  2  0  0  0  0
  8  3  1  0  0  0  0
  8  4  2  0  0  0  0
  9  7  1  0  0  0  0
 10 11  2  0  0  0  0
 11  7  1  0  0  0  0
 11  8  1  0  0  0  0
 12 14  1  0  0  0  0
 13 10  1  0  0  0  0
 15 13  1  1  0  0  0
 15  5  1  0  0  0  0
 16 15  1  0  0  0  0
 16  5  1  0  0  0  0
 17  4  1  0  0  0  0
 18 10  1  0  0  0  0
 18  9  2  0  0  0  0
 20 19  1  6  0  0  0
 20 21  1  0  0  0  0
 21 23  1  0  0  0  0
 22 25  1  0  0  0  0
 22 24  2  0  0  0  0
 23 22  1  0  0  0  0
 25 26  1  0  0  0  0
 26 27  1  0  0  0  0
 28 27  1  0  0  0  0
 29 28  1  0  0  0  0
 29 30  1  0  0  0  0
 31 29  2  0  0  0  0
 32 16  1  0  0  0  0
 33 34  1  0  0  0  0
 33 32  1  0  0  0  0
 35 42  1  0  0  0  0
 37 35  1  6  0  0  0
 37 40  1  0  0  0  0
 39 37  1  0  0  0  0
 39 41  1  0  0  0  0
 40 36  1  6  0  0  0
 40 38  1  0  0  0  0
 41 38  1  0  0  0  0
 42 34  1  6  0  0  0
 42 36  1  0  0  0  0
M  END
>  <MODEL>
8

>  <REMARK>
 VINA RESULT:      -8.1      2.231      3.200
  Name = 
  12 active torsions:
  status: ('A' for Active; 'I' for Inactive)
    1  A    between atoms: C_1  and  C_10
    2  A    between atoms: C_1  and  C_34
    3  A    between atoms: C_2  and  C_11
    4  A    between atoms: C_2  and  C_16
    5  A    between atoms: C_4  and  C_10
    6  A    between atoms: C_6  and  C_30
    7  A    between atoms: C_8  and  C_40
    8  A    between atoms: C_11  and  C_38
    9  A    between atoms: N_12  and  N_24
   10  A    between atoms: C_16  and  N_39
   11  A    between atoms: N_24  and  C_30
   12  A    between atoms: C_34  and  C_40
                            x       y       z     vdW  Elec       q    Type
                         _______ _______ _______ _____ _____    ______ ____

>  <TORSDO>
F 12

$$$$
=
 OpenBabel10232410583D

 42 48  0  0  1  0  0  0  0  0999 V2000
  187.2770  177.6130  143.5540 C   0  0  0  0  0  0  0  0  0  0  0  0
  185.1970  178.7070  142.9170 C   0  0  0  0  0  0  0  0  0  0  0  0
  187.0240  177.9050  144.9170 C   0  0  0  0  0  0  0  0  0  0  0  0
  187.5240  177.4080  147.3240 C   0  0  0  0  0  3  0  0  0  0  0  0
  188.4310  176.8970  143.1290 N   0  0  0  0  0  0  0  0  0  0  0  0
  186.3650  178.0170  142.5740 C   0  0  0  0  0  3  0  0  0  0  0  0
  189.6490  177.1450  147.4520 C   0  0  0  0  0  0  0  0  0  0  0  0
  187.9230  177.5270  146.0410 C   0  0  0  0  0  0  0  0  0  0  0  0
  191.0570  176.8770  147.6560 C   0  0  0  0  0  3  0  0  0  0  0  0
  190.4950  177.2340  145.4330 C   0  0  0  0  0  0  0  0  0  0  0  0
  189.3670  177.3540  146.1100 C   0  0  0  0  0  0  0  0  0  0  0  0
  185.8330  178.5790  145.2420 C   0  0  0  0  0  3  0  0  0  0  0  0
  190.6620  177.2380  143.9560 C   0  0  0  0  0  2  0  0  0  0  0  0
  184.9300  178.9790  144.2560 C   0  0  0  0  0  3  0  0  0  0  0  0
  189.6970  176.2200  143.3520 C   0  0  2  0  0  3  0  0  0  0  0  0
  189.3050  176.3960  142.0630 N   0  0  0  0  0  0  0  0  0  0  0  0
  188.6200  177.1360  148.2220 N   0  0  0  0  0  0  0  0  0  0  0  0
  191.5700  176.9350  146.4140 C   0  0  0  0  0  3  0  0  0  0  0  0
  184.8870  179.2920  140.5210 C   0  0  0  0  0  1  0  0  0  0  0  0
  184.2160  179.1350  141.8730 C   0  0  1  0  0  3  0  0  0  0  0  0
  183.1270  178.1780  141.7850 N   0  0  0  0  0  2  0  0  0  0  0  0
  181.0110  178.9620  142.7760 C   0  0  0  0  0  0  0  0  0  0  0  0
  182.3100  178.3840  142.9040 N   0  0  0  0  0  2  0  0  0  0  0  0
  180.2790  179.1230  143.8290 N   0  0  0  0  0  2  0  0  0  0  0  0
  180.5000  179.4010  141.4440 C   0  0  0  0  0  2  0  0  0  0  0  0
  180.5740  178.2750  140.4320 C   0  0  0  0  0  2  0  0  0  0  0  0
  180.8170  178.8340  139.0330 C   0  0  0  0  0  2  0  0  0  0  0  0
  181.2830  180.2810  139.1020 C   0  0  0  0  0  2  0  0  0  0  0  0
  181.1780  180.9380  137.7640 C   0  0  0  0  0  0  0  0  0  0  0  0
  181.0290  180.1440  136.5940 N   0  0  0  0  0  1  0  0  0  0  0  0
  181.2070  182.1930  137.6690 O   0  0  0  0  0  0  0  0  0  0  0  0
  189.8570  177.5710  141.3840 C   0  0  0  0  0  2  0  0  0  0  0  0
  190.8090  177.1340  140.2870 C   0  0  0  0  0  2  0  0  0  0  0  0
  190.0300  176.6040  139.0940 C   0  0  0  0  0  2  0  0  0  0  0  0
  187.8070  177.5990  138.5960 C   0  0  0  0  0  2  0  0  0  0  0  0
  189.5650  177.6500  136.6270 S   0  0  0  0  0  0  0  0  0  0  0  0
  187.1350  178.4050  137.5890 N   0  0  2  0  0  0  0  0  0  0  0  0
  187.1620  177.3710  135.4380 N   0  0  0  0  0  2  0  0  0  0  0  0
  185.8420  177.7910  137.3570 C   0  0  0  0  0  2  0  0  0  0  0  0
  187.8760  178.2710  136.3310 C   0  0  2  0  0  3  0  0  0  0  0  0
  185.7910  177.4030  135.9030 C   0  0  0  0  0  2  0  0  0  0  0  0
  189.2940  177.7380  138.4030 C   0  0  2  0  0  3  0  0  0  0  0  0
  1  3  1  0  0  0  0
  2 14  2  0  0  0  0
  3 12  2  0  0  0  0
  3  8  1  0  0  0  0
  4 17  1  0  0  0  0
  5 15  1  0  0  0  0
  5  1  1  0  0  0  0
  6  2  1  0  0  0  0
  6  1  2  0  0  0  0
  7  9  1  0  0  0  0
  7 17  2  0  0  0  0
  8 11  1  0  0  0  0
  8  4  2  0  0  0  0
 10 11  2  0  0  0  0
 10 18  1  0  0  0  0
 11  7  1  0  0  0  0
 13 10  1  0  0  0  0
 14 12  1  0  0  0  0
 15 13  1  6  0  0  0
 16  5  1  0  0  0  0
 16 15  1  0  0  0  0
 18  9  2  0  0  0  0
 20 19  1  6  0  0  0
 20  2  1  0  0  0  0
 21 20  1  0  0  0  0
 21 23  1  0  0  0  0
 22 23  1  0  0  0  0
 22 24  2  0  0  0  0
 25 22  1  0  0  0  0
 26 25  1  0  0  0  0
 27 28  1  0  0  0  0
 27 26  1  0  0  0  0
 29 28  1  0  0  0  0
 30 29  1  0  0  0  0
 31 29  2  0  0  0  0
 32 16  1  0  0  0  0
 33 32  1  0  0  0  0
 34 33  1  0  0  0  0
 36 42  1  0  0  0  0
 37 39  1  6  0  0  0
 37 35  1  0  0  0  0
 38 41  1  0  0  0  0
 40 38  1  6  0  0  0
 40 36  1  0  0  0  0
 40 37  1  0  0  0  0
 41 39  1  0  0  0  0
 42 35  1  0  0  0  0
 42 34  1  1  0  0  0
M  END
>  <MODEL>
9

>  <REMARK>
 VINA RESULT:      -8.1      2.628      7.629
  Name = 
  12 active torsions:
  status: ('A' for Active; 'I' for Inactive)
    1  A    between atoms: C_1  and  C_10
    2  A    between atoms: C_1  and  C_34
    3  A    between atoms: C_2  and  C_11
    4  A    between atoms: C_2  and  C_16
    5  A    between atoms: C_4  and  C_10
    6  A    between atoms: C_6  and  C_30
    7  A    between atoms: C_8  and  C_40
    8  A    between atoms: C_11  and  C_38
    9  A    between atoms: N_12  and  N_24
   10  A    between atoms: C_16  and  N_39
   11  A    between atoms: N_24  and  C_30
   12  A    between atoms: C_34  and  C_40
                            x       y       z     vdW  Elec       q    Type
                         _______ _______ _______ _____ _____    ______ ____

>  <TORSDO>
F 12

$$$$
