=
 OpenBabel10232412393D

 37 41  0  0  1  0  0  0  0  0999 V2000
  186.3560  177.6630  144.3330 C   0  0  0  0  0  3  0  0  0  0  0  0
  185.1180  178.2150  142.2650 C   0  0  0  0  0  1  0  0  0  0  0  0
  187.7330  178.3790  137.4920 C   0  0  0  0  0  2  0  0  0  0  0  0
  190.1750  174.4510  136.2270 O   0  0  0  0  0  0  0  0  0  0  0  0
  187.6290  177.9640  142.1980 C   0  0  0  0  0  0  0  0  0  0  0  0
  188.4770  178.1130  138.8150 C   0  0  1  0  0  3  0  0  0  0  0  0
  189.8590  177.3880  146.4290 N   0  0  0  0  0  1  0  0  0  0  0  0
  187.4580  177.4650  144.9880 N   0  0  0  0  0  0  0  0  0  0  0  0
  189.6180  176.0080  138.3330 C   0  0  0  0  0  2  0  0  0  0  0  0
  188.7250  177.5050  144.3190 C   0  0  0  0  0  0  0  0  0  0  0  0
  187.7000  177.5300  139.8280 O   0  0  0  0  0  0  0  0  0  0  0  0
  187.7350  175.5440  136.1350 C   0  0  0  0  0  2  0  0  0  0  0  0
  186.0860  177.8270  135.8720 O   0  0  0  0  0  1  0  0  0  0  0  0
  189.8740  177.4860  145.0080 C   0  0  0  0  0  0  0  0  0  0  0  0
  187.6500  178.5290  140.8050 C   0  0  0  0  0  2  0  0  0  0  0  0
  190.1870  176.7680  140.9840 C   0  0  0  0  0  2  0  0  0  0  0  0
  190.6120  177.6440  139.8040 C   0  0  0  0  0  2  0  0  0  0  0  0
  186.3820  177.9430  142.9270 N   0  0  0  0  0  0  0  0  0  0  0  0
  186.8090  176.0240  137.2500 C   0  0  0  0  0  2  0  0  0  0  0  0
  190.0550  176.8590  135.8080 O   0  0  0  0  0  0  0  0  0  0  0  0
  191.1350  177.6050  144.3270 N   0  0  0  0  0  0  0  0  0  0  0  0
  191.2310  177.6250  143.0300 C   0  0  0  0  0  3  0  0  0  0  0  0
  188.7730  177.6590  142.8510 C   0  0  0  0  0  0  0  0  0  0  0  0
  189.7690  177.4390  138.6170 N   0  0  2  0  0  0  0  0  0  0  0  0
  189.4520  175.7200  136.5800 S   0  0  0  0  0  0  0  0  0  0  0  0
  186.4860  177.5270  137.1760 C   0  0  1  0  0  0  0  0  0  0  0  0
  190.0590  177.5440  142.2080 N   0  0  0  0  0  0  0  0  0  0  0  0
  185.3350  177.8960  138.0970 C   0  0  0  0  0  0  0  0  0  0  0  0
  183.1000  178.6500  139.6430 C   0  0  0  0  0  0  0  0  0  0  0  0
  184.0340  179.6130  139.2320 C   0  0  0  0  0  3  0  0  0  0  0  0
  183.2800  177.3160  139.2690 C   0  0  0  0  0  3  0  0  0  0  0  0
  184.3820  176.9430  138.4980 C   0  0  0  0  0  3  0  0  0  0  0  0
  185.1350  179.2380  138.4600 C   0  0  0  0  0  3  0  0  0  0  0  0
  181.9650  179.0080  140.4340 N   0  0  0  0  0  2  0  0  0  0  0  0
  181.1570  178.0300  141.1440 C   0  0  0  0  0  2  0  0  0  0  0  0
  181.4770  179.1370  143.0240 C   0  0  0  0  0  1  0  0  0  0  0  0
  180.4720  178.6600  142.1820 O   0  0  0  0  0  0  0  0  0  0  0  0
  1  8  2  0  0  0  0
  2 18  1  0  0  0  0
  4 25  2  0  0  0  0
  5 23  2  0  0  0  0
  5 18  1  0  0  0  0
  6  3  1  6  0  0  0
  6 11  1  0  0  0  0
 10  8  1  0  0  0  0
 10 14  2  0  0  0  0
 11 15  1  0  0  0  0
 12 25  1  0  0  0  0
 12 19  1  0  0  0  0
 14  7  1  0  0  0  0
 15  5  1  0  0  0  0
 16 27  1  0  0  0  0
 17 16  1  0  0  0  0
 18  1  1  0  0  0  0
 20 25  2  0  0  0  0
 21 14  1  0  0  0  0
 22 21  2  0  0  0  0
 23 10  1  0  0  0  0
 24  9  1  1  0  0  0
 24  6  1  0  0  0  0
 24 17  1  0  0  0  0
 25  9  1  0  0  0  0
 26 13  1  6  0  0  0
 26 19  1  0  0  0  0
 26  3  1  0  0  0  0
 26 28  1  0  0  0  0
 27 23  1  0  0  0  0
 27 22  1  0  0  0  0
 28 33  2  0  0  0  0
 28 32  1  0  0  0  0
 29 34  1  0  0  0  0
 30 29  2  0  0  0  0
 31 29  1  0  0  0  0
 32 31  2  0  0  0  0
 33 30  1  0  0  0  0
 34 35  1  0  0  0  0
 35 37  1  0  0  0  0
 37 36  1  0  0  0  0
M  END
>  <MODEL>
1

>  <REMARK>
 VINA RESULT:      -7.9      0.000      0.000
  Name = 
  4 active torsions:
  status: ('A' for Active; 'I' for Inactive)
    1  A    between atoms: C_4  and  C_36
    2  A    between atoms: C_5  and  N_15
    3  A    between atoms: N_15  and  C_27
    4  A    between atoms: O_23  and  C_27
                            x       y       z     vdW  Elec       q    Type
                         _______ _______ _______ _____ _____    ______ ____

>  <TORSDO>
F 4

$$$$
=
 OpenBabel10232412393D

 37 41  0  0  1  0  0  0  0  0999 V2000
  186.4110  177.6730  144.2710 C   0  0  0  0  0  3  0  0  0  0  0  0
  185.1430  178.2230  142.2200 C   0  0  0  0  0  1  0  0  0  0  0  0
  187.6890  178.3690  137.4090 C   0  0  0  0  0  2  0  0  0  0  0  0
  190.1030  174.4320  136.1180 O   0  0  0  0  0  0  0  0  0  0  0  0
  187.6530  177.9660  142.1170 C   0  0  0  0  0  0  0  0  0  0  0  0
  188.4520  178.1050  138.7210 C   0  0  1  0  0  3  0  0  0  0  0  0
  189.9430  177.3940  146.3170 N   0  0  0  0  0  1  0  0  0  0  0  0
  187.5220  177.4730  144.9100 N   0  0  0  0  0  0  0  0  0  0  0  0
  189.5800  175.9950  138.2270 C   0  0  0  0  0  2  0  0  0  0  0  0
  188.7790  177.5090  144.2220 C   0  0  0  0  0  0  0  0  0  0  0  0
  187.6880  177.5260  139.7470 O   0  0  0  0  0  0  0  0  0  0  0  0
  187.6640  175.5300  136.0580 C   0  0  0  0  0  2  0  0  0  0  0  0
  186.0170  177.8170  135.8140 O   0  0  0  0  0  1  0  0  0  0  0  0
  189.9370  177.4880  144.8950 C   0  0  0  0  0  0  0  0  0  0  0  0
  187.6550  178.5270  140.7230 C   0  0  0  0  0  2  0  0  0  0  0  0
  190.1900  176.7600  140.8680 C   0  0  0  0  0  2  0  0  0  0  0  0
  190.6000  177.6330  139.6800 C   0  0  0  0  0  2  0  0  0  0  0  0
  186.4170  177.9500  142.8640 N   0  0  0  0  0  0  0  0  0  0  0  0
  186.7560  176.0150  137.1860 C   0  0  0  0  0  2  0  0  0  0  0  0
  189.9830  176.8400  135.6940 O   0  0  0  0  0  0  0  0  0  0  0  0
  191.1890  177.6030  144.1950 N   0  0  0  0  0  0  0  0  0  0  0  0
  191.2660  177.6200  142.8960 C   0  0  0  0  0  3  0  0  0  0  0  0
  188.8050  177.6590  142.7530 C   0  0  0  0  0  0  0  0  0  0  0  0
  189.7400  177.4260  138.5060 N   0  0  2  0  0  0  0  0  0  0  0  0
  189.3890  175.7030  136.4790 S   0  0  0  0  0  0  0  0  0  0  0  0
  186.4360  177.5190  137.1130 C   0  0  1  0  0  0  0  0  0  0  0  0
  190.0820  177.5400  142.0920 N   0  0  0  0  0  0  0  0  0  0  0  0
  185.3000  177.8940  138.0490 C   0  0  0  0  0  0  0  0  0  0  0  0
  183.0870  178.6520  139.6250 C   0  0  0  0  0  0  0  0  0  0  0  0
  184.0010  179.6170  139.1770 C   0  0  0  0  0  3  0  0  0  0  0  0
  183.2750  177.3130  139.2750 C   0  0  0  0  0  3  0  0  0  0  0  0
  184.3660  176.9380  138.4880 C   0  0  0  0  0  3  0  0  0  0  0  0
  185.0910  179.2400  138.3910 C   0  0  0  0  0  3  0  0  0  0  0  0
  181.9640  179.0130  140.4330 N   0  0  0  0  0  2  0  0  0  0  0  0
  180.6840  179.4110  139.8720 C   0  0  0  0  0  2  0  0  0  0  0  0
  180.4390  180.9880  138.3500 C   0  0  0  0  0  1  0  0  0  0  0  0
  180.6560  180.7960  139.7150 O   0  0  0  0  0  0  0  0  0  0  0  0
  1  8  2  0  0  0  0
  2 18  1  0  0  0  0
  4 25  2  0  0  0  0
  5 23  2  0  0  0  0
  5 18  1  0  0  0  0
  6  3  1  6  0  0  0
  6 11  1  0  0  0  0
 10 14  2  0  0  0  0
 10  8  1  0  0  0  0
 11 15  1  0  0  0  0
 12 25  1  0  0  0  0
 12 19  1  0  0  0  0
 14  7  1  0  0  0  0
 15  5  1  0  0  0  0
 16 27  1  0  0  0  0
 17 16  1  0  0  0  0
 18  1  1  0  0  0  0
 20 25  2  0  0  0  0
 21 14  1  0  0  0  0
 22 21  2  0  0  0  0
 23 10  1  0  0  0  0
 24  9  1  1  0  0  0
 24  6  1  0  0  0  0
 24 17  1  0  0  0  0
 25  9  1  0  0  0  0
 26 13  1  6  0  0  0
 26 19  1  0  0  0  0
 26  3  1  0  0  0  0
 26 28  1  0  0  0  0
 27 23  1  0  0  0  0
 27 22  1  0  0  0  0
 28 33  2  0  0  0  0
 28 32  1  0  0  0  0
 29 34  1  0  0  0  0
 30 29  2  0  0  0  0
 31 29  1  0  0  0  0
 32 31  2  0  0  0  0
 33 30  1  0  0  0  0
 35 34  1  0  0  0  0
 36 37  1  0  0  0  0
 37 35  1  0  0  0  0
M  END
>  <MODEL>
2

>  <REMARK>
 VINA RESULT:      -7.7      0.885      1.054
  Name = 
  4 active torsions:
  status: ('A' for Active; 'I' for Inactive)
    1  A    between atoms: C_4  and  C_36
    2  A    between atoms: C_5  and  N_15
    3  A    between atoms: N_15  and  C_27
    4  A    between atoms: O_23  and  C_27
                            x       y       z     vdW  Elec       q    Type
                         _______ _______ _______ _____ _____    ______ ____

>  <TORSDO>
F 4

$$$$
=
 OpenBabel10232412393D

 37 41  0  0  1  0  0  0  0  0999 V2000
  187.1520  177.8000  143.8490 C   0  0  0  0  0  3  0  0  0  0  0  0
  185.5030  178.2890  142.0720 C   0  0  0  0  0  1  0  0  0  0  0  0
  187.0050  178.0950  136.8420 C   0  0  0  0  0  2  0  0  0  0  0  0
  189.0050  174.0130  135.3150 O   0  0  0  0  0  0  0  0  0  0  0  0
  187.9300  177.9370  141.4740 C   0  0  0  0  0  0  0  0  0  0  0  0
  188.0150  177.8720  137.9840 C   0  0  1  0  0  3  0  0  0  0  0  0
  191.0220  177.5010  145.1420 N   0  0  0  0  0  1  0  0  0  0  0  0
  188.3650  177.5940  144.2580 N   0  0  0  0  0  0  0  0  0  0  0  0
  188.9670  175.7010  137.3930 C   0  0  0  0  0  2  0  0  0  0  0  0
  189.4540  177.5490  143.3270 C   0  0  0  0  0  0  0  0  0  0  0  0
  187.4660  177.3740  139.1760 O   0  0  0  0  0  0  0  0  0  0  0  0
  186.6340  175.1930  135.6920 C   0  0  0  0  0  2  0  0  0  0  0  0
  185.0280  177.5220  135.6580 O   0  0  0  0  0  1  0  0  0  0  0  0
  190.7260  177.5230  143.7490 C   0  0  0  0  0  0  0  0  0  0  0  0
  187.6590  178.4250  140.0780 C   0  0  0  0  0  2  0  0  0  0  0  0
  190.1260  176.5790  139.8050 C   0  0  0  0  0  2  0  0  0  0  0  0
  190.3030  177.3740  138.5090 C   0  0  0  0  0  2  0  0  0  0  0  0
  186.8750  178.0040  142.4570 N   0  0  0  0  0  0  0  0  0  0  0  0
  185.9900  175.7680  136.9510 C   0  0  0  0  0  2  0  0  0  0  0  0
  188.8590  176.3980  134.7870 O   0  0  0  0  0  0  0  0  0  0  0  0
  191.8080  177.5560  142.8030 N   0  0  0  0  0  0  0  0  0  0  0  0
  191.6170  177.5040  141.5170 C   0  0  0  0  0  3  0  0  0  0  0  0
  189.1810  177.6230  141.8780 C   0  0  0  0  0  0  0  0  0  0  0  0
  189.2140  177.1380  137.5500 N   0  0  2  0  0  0  0  0  0  0  0  0
  188.4110  175.3260  135.7400 S   0  0  0  0  0  0  0  0  0  0  0  0
  185.6980  177.2760  136.8590 C   0  0  1  0  0  0  0  0  0  0  0  0
  190.2910  177.4240  140.9770 N   0  0  0  0  0  0  0  0  0  0  0  0
  184.7880  177.7390  137.9840 C   0  0  0  0  0  0  0  0  0  0  0  0
  183.2430  178.5350  140.2050 C   0  0  0  0  0  0  0  0  0  0  0  0
  183.2910  177.1870  139.8230 C   0  0  0  0  0  3  0  0  0  0  0  0
  183.9760  179.4810  139.4830 C   0  0  0  0  0  3  0  0  0  0  0  0
  184.7480  179.0860  138.3870 C   0  0  0  0  0  3  0  0  0  0  0  0
  184.0630  176.7940  138.7290 C   0  0  0  0  0  3  0  0  0  0  0  0
  182.4580  178.9630  141.3210 N   0  0  0  0  0  2  0  0  0  0  0  0
  181.1400  178.4240  141.6120 C   0  0  0  0  0  2  0  0  0  0  0  0
  179.9840  178.5430  143.4860 C   0  0  0  0  0  1  0  0  0  0  0  0
  180.4420  179.3190  142.4210 O   0  0  0  0  0  0  0  0  0  0  0  0
  1  8  2  0  0  0  0
  2 18  1  0  0  0  0
  3 26  1  0  0  0  0
  4 25  2  0  0  0  0
  5 23  2  0  0  0  0
  5 18  1  0  0  0  0
  6  3  1  6  0  0  0
  6 11  1  0  0  0  0
 10 14  2  0  0  0  0
 10  8  1  0  0  0  0
 11 15  1  0  0  0  0
 12 25  1  0  0  0  0
 12 19  1  0  0  0  0
 14  7  1  0  0  0  0
 15  5  1  0  0  0  0
 16 27  1  0  0  0  0
 17 16  1  0  0  0  0
 18  1  1  0  0  0  0
 20 25  2  0  0  0  0
 21 14  1  0  0  0  0
 22 21  2  0  0  0  0
 23 10  1  0  0  0  0
 24  9  1  1  0  0  0
 24  6  1  0  0  0  0
 24 17  1  0  0  0  0
 25  9  1  0  0  0  0
 26 13  1  6  0  0  0
 26 19  1  0  0  0  0
 26 28  1  0  0  0  0
 27 22  1  0  0  0  0
 27 23  1  0  0  0  0
 28 32  2  0  0  0  0
 28 33  1  0  0  0  0
 29 34  1  0  0  0  0
 30 29  1  0  0  0  0
 31 29  2  0  0  0  0
 32 31  1  0  0  0  0
 33 30  2  0  0  0  0
 34 35  1  0  0  0  0
 35 37  1  0  0  0  0
 37 36  1  0  0  0  0
M  END
>  <MODEL>
3

>  <REMARK>
 VINA RESULT:      -6.4      1.037      1.359
  Name = 
  4 active torsions:
  status: ('A' for Active; 'I' for Inactive)
    1  A    between atoms: C_4  and  C_36
    2  A    between atoms: C_5  and  N_15
    3  A    between atoms: N_15  and  C_27
    4  A    between atoms: O_23  and  C_27
                            x       y       z     vdW  Elec       q    Type
                         _______ _______ _______ _____ _____    ______ ____

>  <TORSDO>
F 4

$$$$
=
 OpenBabel10232412393D

 37 41  0  0  1  0  0  0  0  0999 V2000
  190.2100  176.9660  141.9800 C   0  0  0  0  0  3  0  0  0  0  0  0
  188.2390  177.9640  143.0920 C   0  0  0  0  0  1  0  0  0  0  0  0
  183.9380  179.5070  140.1300 C   0  0  0  0  0  2  0  0  0  0  0  0
  181.9640  176.1870  137.2890 O   0  0  0  0  0  0  0  0  0  0  0  0
  188.3540  177.8820  140.5710 C   0  0  0  0  0  0  0  0  0  0  0  0
  185.2160  178.9510  139.4740 C   0  0  1  0  0  3  0  0  0  0  0  0
  192.4970  176.3580  138.6430 N   0  0  0  0  0  1  0  0  0  0  0  0
  190.8960  176.6680  140.9210 N   0  0  0  0  0  0  0  0  0  0  0  0
  184.3310  177.1110  138.1330 C   0  0  0  0  0  2  0  0  0  0  0  0
  190.3850  176.9530  139.6130 C   0  0  0  0  0  0  0  0  0  0  0  0
  185.9700  178.0820  140.2790 O   0  0  0  0  0  0  0  0  0  0  0  0
  181.9150  177.1250  139.7930 C   0  0  0  0  0  2  0  0  0  0  0  0
  182.0800  179.3010  141.5940 O   0  0  0  0  0  1  0  0  0  0  0  0
  191.1550  176.8210  138.5240 C   0  0  0  0  0  0  0  0  0  0  0  0
  187.1580  178.7880  140.4850 C   0  0  0  0  0  2  0  0  0  0  0  0
  187.1300  177.1900  137.8370 C   0  0  0  0  0  2  0  0  0  0  0  0
  186.2570  178.3650  137.3920 C   0  0  0  0  0  2  0  0  0  0  0  0
  188.9300  177.6020  141.8660 N   0  0  0  0  0  0  0  0  0  0  0  0
  183.0200  177.2460  140.8400 C   0  0  0  0  0  2  0  0  0  0  0  0
  182.1580  178.6110  137.5670 O   0  0  0  0  0  0  0  0  0  0  0  0
  190.6520  177.1850  137.2270 N   0  0  0  0  0  0  0  0  0  0  0  0
  189.4180  177.5460  137.0310 C   0  0  0  0  0  3  0  0  0  0  0  0
  189.0160  177.4840  139.4620 C   0  0  0  0  0  0  0  0  0  0  0  0
  184.9810  178.4250  138.1200 N   0  0  2  0  0  0  0  0  0  0  0  0
  182.5550  177.2780  138.1360 S   0  0  0  0  0  0  0  0  0  0  0  0
  183.2980  178.6960  141.2750 C   0  0  1  0  0  0  0  0  0  0  0  0
  188.4920  177.6140  138.1230 N   0  0  0  0  0  0  0  0  0  0  0  0
  184.1660  178.7480  142.5210 C   0  0  0  0  0  0  0  0  0  0  0  0
  185.6110  178.8070  144.9420 C   0  0  0  0  0  0  0  0  0  0  0  0
  184.8580  179.9200  144.5410 C   0  0  0  0  0  3  0  0  0  0  0  0
  185.6310  177.6640  144.1390 C   0  0  0  0  0  3  0  0  0  0  0  0
  184.9100  177.6310  142.9430 C   0  0  0  0  0  3  0  0  0  0  0  0
  184.1370  179.8850  143.3450 C   0  0  0  0  0  3  0  0  0  0  0  0
  186.3580  178.8180  146.1610 N   0  0  0  0  0  2  0  0  0  0  0  0
  187.0860  177.6590  146.6510 C   0  0  0  0  0  2  0  0  0  0  0  0
  188.5130  178.0380  148.2880 C   0  0  0  0  0  1  0  0  0  0  0  0
  188.4110  178.0130  146.8970 O   0  0  0  0  0  0  0  0  0  0  0  0
  3 26  1  0  0  0  0
  4 25  2  0  0  0  0
  5 18  1  0  0  0  0
  6  3  1  1  0  0  0
  6 11  1  0  0  0  0
  8  1  2  0  0  0  0
  9 25  1  0  0  0  0
 10  8  1  0  0  0  0
 11 15  1  0  0  0  0
 12 19  1  0  0  0  0
 14  7  1  0  0  0  0
 14 10  2  0  0  0  0
 15  5  1  0  0  0  0
 16 27  1  0  0  0  0
 17 16  1  0  0  0  0
 18  1  1  0  0  0  0
 18  2  1  0  0  0  0
 19 26  1  0  0  0  0
 20 25  2  0  0  0  0
 21 14  1  0  0  0  0
 22 21  2  0  0  0  0
 22 27  1  0  0  0  0
 23 10  1  0  0  0  0
 23  5  2  0  0  0  0
 24 17  1  1  0  0  0
 24  9  1  0  0  0  0
 24  6  1  0  0  0  0
 25 12  1  0  0  0  0
 26 13  1  1  0  0  0
 26 28  1  0  0  0  0
 27 23  1  0  0  0  0
 28 32  2  0  0  0  0
 28 33  1  0  0  0  0
 29 34  1  0  0  0  0
 30 29  1  0  0  0  0
 31 29  2  0  0  0  0
 32 31  1  0  0  0  0
 33 30  2  0  0  0  0
 34 35  1  0  0  0  0
 35 37  1  0  0  0  0
 37 36  1  0  0  0  0
M  END
>  <MODEL>
4

>  <REMARK>
 VINA RESULT:      -5.8      2.688      5.833
  Name = 
  4 active torsions:
  status: ('A' for Active; 'I' for Inactive)
    1  A    between atoms: C_4  and  C_36
    2  A    between atoms: C_5  and  N_15
    3  A    between atoms: N_15  and  C_27
    4  A    between atoms: O_23  and  C_27
                            x       y       z     vdW  Elec       q    Type
                         _______ _______ _______ _____ _____    ______ ____

>  <TORSDO>
F 4

$$$$
=
 OpenBabel10232412393D

 37 41  0  0  1  0  0  0  0  0999 V2000
  189.8400  177.3690  140.4830 C   0  0  0  0  0  3  0  0  0  0  0  0
  187.5040  178.1520  140.7040 C   0  0  0  0  0  1  0  0  0  0  0  0
  183.9870  177.3970  136.6160 C   0  0  0  0  0  2  0  0  0  0  0  0
  183.4350  172.9020  135.0400 O   0  0  0  0  0  0  0  0  0  0  0  0
  188.3170  177.2220  138.5020 C   0  0  0  0  0  0  0  0  0  0  0  0
  185.4690  176.9930  136.4950 C   0  0  1  0  0  3  0  0  0  0  0  0
  193.0210  176.2340  138.1740 N   0  0  0  0  0  1  0  0  0  0  0  0
  190.8290  176.9040  139.7860 N   0  0  0  0  0  0  0  0  0  0  0  0
  185.2960  174.6380  135.8700 C   0  0  0  0  0  2  0  0  0  0  0  0
  190.6560  176.5690  138.4030 C   0  0  0  0  0  0  0  0  0  0  0  0
  186.1040  176.6880  137.7090 O   0  0  0  0  0  0  0  0  0  0  0  0
  182.5500  174.6150  136.8940 C   0  0  0  0  0  2  0  0  0  0  0  0
  181.8590  177.2500  137.6590 O   0  0  0  0  0  1  0  0  0  0  0  0
  191.7050  176.2650  137.6270 C   0  0  0  0  0  0  0  0  0  0  0  0
  187.0590  177.7010  137.8330 C   0  0  0  0  0  2  0  0  0  0  0  0
  188.0180  175.3230  136.1030 C   0  0  0  0  0  2  0  0  0  0  0  0
  187.1210  176.0000  135.0650 C   0  0  0  0  0  2  0  0  0  0  0  0
  188.5540  177.5730  139.8830 N   0  0  0  0  0  0  0  0  0  0  0  0
  183.2920  175.3760  137.9910 C   0  0  0  0  0  2  0  0  0  0  0  0
  183.1470  175.2320  134.3470 O   0  0  0  0  0  0  0  0  0  0  0  0
  191.5240  176.0070  136.2240 N   0  0  0  0  0  0  0  0  0  0  0  0
  190.3490  175.9470  135.6690 C   0  0  0  0  0  3  0  0  0  0  0  0
  189.3130  176.6430  137.7940 C   0  0  0  0  0  0  0  0  0  0  0  0
  185.7020  175.9840  135.4500 N   0  0  2  0  0  0  0  0  0  0  0  0
  183.5850  174.3340  135.4700 S   0  0  0  0  0  0  0  0  0  0  0  0
  183.1990  176.9060  137.8480 C   0  0  1  0  0  0  0  0  0  0  0  0
  189.1620  176.1550  136.4450 N   0  0  0  0  0  0  0  0  0  0  0  0
  183.6730  177.6130  139.1060 C   0  0  0  0  0  0  0  0  0  0  0  0
  184.3790  179.0320  141.4390 C   0  0  0  0  0  0  0  0  0  0  0  0
  184.5290  179.6260  140.1770 C   0  0  0  0  0  3  0  0  0  0  0  0
  183.8650  177.7360  141.5320 C   0  0  0  0  0  3  0  0  0  0  0  0
  183.5090  177.0360  140.3780 C   0  0  0  0  0  3  0  0  0  0  0  0
  184.1710  178.9240  139.0240 C   0  0  0  0  0  3  0  0  0  0  0  0
  184.7390  179.7290  142.6340 N   0  0  0  0  0  2  0  0  0  0  0  0
  185.1160  179.0490  143.8610 C   0  0  0  0  0  2  0  0  0  0  0  0
  184.7230  178.7700  146.0130 C   0  0  0  0  0  1  0  0  0  0  0  0
  184.1860  179.3400  144.8580 O   0  0  0  0  0  0  0  0  0  0  0  0
  3 26  1  0  0  0  0
  4 25  2  0  0  0  0
  5 18  1  0  0  0  0
  6  3  1  1  0  0  0
  6 11  1  0  0  0  0
  8  1  2  0  0  0  0
 10  8  1  0  0  0  0
 11 15  1  0  0  0  0
 12 19  1  0  0  0  0
 14  7  1  0  0  0  0
 14 10  2  0  0  0  0
 15  5  1  0  0  0  0
 16 27  1  0  0  0  0
 17 16  1  0  0  0  0
 18  1  1  0  0  0  0
 18  2  1  0  0  0  0
 20 25  2  0  0  0  0
 21 14  1  0  0  0  0
 22 21  2  0  0  0  0
 22 27  1  0  0  0  0
 23 10  1  0  0  0  0
 23  5  2  0  0  0  0
 24 17  1  1  0  0  0
 24  9  1  0  0  0  0
 24  6  1  0  0  0  0
 25  9  1  0  0  0  0
 25 12  1  0  0  0  0
 26 13  1  6  0  0  0
 26 19  1  0  0  0  0
 26 28  1  0  0  0  0
 27 23  1  0  0  0  0
 28 32  1  0  0  0  0
 29 31  1  0  0  0  0
 29 34  1  0  0  0  0
 30 29  2  0  0  0  0
 32 31  2  0  0  0  0
 33 28  2  0  0  0  0
 33 30  1  0  0  0  0
 34 35  1  0  0  0  0
 35 37  1  0  0  0  0
 37 36  1  0  0  0  0
M  END
>  <MODEL>
5

>  <REMARK>
 VINA RESULT:      -5.8      2.938      5.083
  Name = 
  4 active torsions:
  status: ('A' for Active; 'I' for Inactive)
    1  A    between atoms: C_4  and  C_36
    2  A    between atoms: C_5  and  N_15
    3  A    between atoms: N_15  and  C_27
    4  A    between atoms: O_23  and  C_27
                            x       y       z     vdW  Elec       q    Type
                         _______ _______ _______ _____ _____    ______ ____

>  <TORSDO>
F 4

$$$$
=
 OpenBabel10232412393D

 37 41  0  0  1  0  0  0  0  0999 V2000
  183.4630  176.9840  137.2350 C   0  0  0  0  0  3  0  0  0  0  0  0
  185.9110  177.2100  136.9660 C   0  0  0  0  0  1  0  0  0  0  0  0
  188.9610  178.9000  141.1470 C   0  0  0  0  0  2  0  0  0  0  0  0
  188.5870  176.4250  145.2380 O   0  0  0  0  0  0  0  0  0  0  0  0
  184.8030  177.9880  139.0970 C   0  0  0  0  0  0  0  0  0  0  0  0
  187.4260  178.8160  141.2470 C   0  0  1  0  0  3  0  0  0  0  0  0
  179.9860  177.9080  139.1850 N   0  0  0  0  0  1  0  0  0  0  0  0
  182.3630  177.1730  137.8950 N   0  0  0  0  0  0  0  0  0  0  0  0
  187.1290  177.4020  143.2160 C   0  0  0  0  0  2  0  0  0  0  0  0
  182.3820  177.7840  139.1920 C   0  0  0  0  0  0  0  0  0  0  0  0
  186.8260  177.8690  140.4010 O   0  0  0  0  0  0  0  0  0  0  0  0
  189.8860  176.4590  142.8990 C   0  0  0  0  0  2  0  0  0  0  0  0
  191.0910  177.9110  140.7910 O   0  0  0  0  0  1  0  0  0  0  0  0
  181.2470  178.1520  139.8020 C   0  0  0  0  0  0  0  0  0  0  0  0
  186.0810  178.6570  139.5190 C   0  0  0  0  0  2  0  0  0  0  0  0
  184.5970  178.0440  142.1630 C   0  0  0  0  0  2  0  0  0  0  0  0
  185.5330  179.1350  142.6860 C   0  0  0  0  0  2  0  0  0  0  0  0
  184.7230  177.3970  137.7810 N   0  0  0  0  0  0  0  0  0  0  0  0
  189.3670  176.4110  141.4640 C   0  0  0  0  0  2  0  0  0  0  0  0
  189.2470  178.6170  144.3690 O   0  0  0  0  0  0  0  0  0  0  0  0
  181.2880  178.8340  141.0670 N   0  0  0  0  0  0  0  0  0  0  0  0
  182.3940  179.0270  141.7240 C   0  0  0  0  0  3  0  0  0  0  0  0
  183.6750  178.0970  139.8340 C   0  0  0  0  0  0  0  0  0  0  0  0
  186.9470  178.7370  142.6350 N   0  0  2  0  0  0  0  0  0  0  0  0
  188.7270  177.2570  143.9940 S   0  0  0  0  0  0  0  0  0  0  0  0
  189.7250  177.6610  140.6390 C   0  0  1  0  0  0  0  0  0  0  0  0
  183.6470  178.5720  141.1960 N   0  0  0  0  0  0  0  0  0  0  0  0
  189.4700  177.4430  139.1570 C   0  0  0  0  0  0  0  0  0  0  0  0
  189.1930  177.0770  136.3740 C   0  0  0  0  0  0  0  0  0  0  0  0
  189.2280  178.3690  136.9180 C   0  0  0  0  0  3  0  0  0  0  0  0
  189.3070  175.9720  137.2210 C   0  0  0  0  0  3  0  0  0  0  0  0
  189.4520  176.1520  138.5980 C   0  0  0  0  0  3  0  0  0  0  0  0
  189.3740  178.5480  138.2950 C   0  0  0  0  0  3  0  0  0  0  0  0
  189.0430  176.8680  134.9680 N   0  0  0  0  0  2  0  0  0  0  0  0
  187.9110  176.1640  134.3910 C   0  0  0  0  0  2  0  0  0  0  0  0
  187.0220  174.1910  134.8160 C   0  0  0  0  0  1  0  0  0  0  0  0
  188.1880  174.7980  134.3470 O   0  0  0  0  0  0  0  0  0  0  0  0
  1 18  1  0  0  0  0
  1  8  2  0  0  0  0
  2 18  1  0  0  0  0
  5 15  1  0  0  0  0
  5 23  2  0  0  0  0
  6  3  1  1  0  0  0
  6 24  1  0  0  0  0
  7 14  1  0  0  0  0
  8 10  1  0  0  0  0
  9 25  1  0  0  0  0
 10 14  2  0  0  0  0
 10 23  1  0  0  0  0
 11  6  1  0  0  0  0
 12 25  1  0  0  0  0
 14 21  1  0  0  0  0
 15 11  1  0  0  0  0
 16 17  1  0  0  0  0
 18  5  1  0  0  0  0
 19 12  1  0  0  0  0
 21 22  2  0  0  0  0
 23 27  1  0  0  0  0
 24 17  1  6  0  0  0
 24  9  1  0  0  0  0
 25 20  2  0  0  0  0
 25  4  2  0  0  0  0
 26 13  1  1  0  0  0
 26  3  1  0  0  0  0
 26 19  1  0  0  0  0
 27 22  1  0  0  0  0
 27 16  1  0  0  0  0
 28 26  1  0  0  0  0
 29 30  2  0  0  0  0
 29 31  1  0  0  0  0
 30 33  1  0  0  0  0
 31 32  2  0  0  0  0
 32 28  1  0  0  0  0
 33 28  2  0  0  0  0
 34 29  1  0  0  0  0
 35 34  1  0  0  0  0
 37 35  1  0  0  0  0
 37 36  1  0  0  0  0
M  END
>  <MODEL>
6

>  <REMARK>
 VINA RESULT:      -5.1      2.669      7.268
  Name = 
  4 active torsions:
  status: ('A' for Active; 'I' for Inactive)
    1  A    between atoms: C_4  and  C_36
    2  A    between atoms: C_5  and  N_15
    3  A    between atoms: N_15  and  C_27
    4  A    between atoms: O_23  and  C_27
                            x       y       z     vdW  Elec       q    Type
                         _______ _______ _______ _____ _____    ______ ____

>  <TORSDO>
F 4

$$$$
