=
 OpenBabel10232409313D

 53 58  0  0  1  0  0  0  0  0999 V2000
  184.5440  178.8560  140.1660 C   0  0  0  0  0  3  0  0  0  0  0  0
  181.6880  178.9570  139.9050 C   0  0  0  0  0  2  0  0  0  0  0  0
  182.5110  178.3860  138.7500 C   0  0  1  0  0  3  0  0  0  0  0  0
  183.9120  179.0110  138.8120 C   0  0  2  0  0  3  0  0  0  0  0  0
  182.3150  178.6230  141.2630 C   0  0  0  0  0  2  0  0  0  0  0  0
  183.8260  178.7470  141.2900 C   0  0  0  0  0  0  0  0  0  0  0  0
  183.9870  178.8450  143.7330 C   0  0  0  0  0  3  0  0  0  0  0  0
  184.5540  178.6000  142.5560 C   0  0  0  0  0  3  0  0  0  0  0  0
  184.7260  178.6810  144.9850 C   0  0  0  0  0  0  0  0  0  0  0  0
  186.0570  178.4920  145.0410 N   0  0  0  0  0  0  0  0  0  0  0  0
  184.1900  178.7110  146.1810 O   0  0  0  0  0  0  0  0  0  0  0  0
  186.2550  178.4150  146.3740 C   0  0  0  0  0  0  0  0  0  0  0  0
  185.1140  178.5500  147.0770 N   0  0  0  0  0  0  0  0  0  0  0  0
  187.5730  178.2300  146.9880 C   0  0  0  0  0  0  0  0  0  0  0  0
  187.7100  178.3680  148.2350 O   0  0  0  0  0  0  0  0  0  0  0  0
  188.6980  177.8880  146.1730 N   0  0  0  0  0  2  0  0  0  0  0  0
  190.0080  177.5880  146.7370 C   0  0  0  0  0  2  0  0  0  0  0  0
  190.6990  176.5000  145.9250 C   0  0  2  0  0  3  0  0  0  0  0  0
  191.7440  175.8040  146.7820 C   0  0  0  0  0  1  0  0  0  0  0  0
  191.3790  178.2700  144.5310 O   0  0  0  0  0  0  0  0  0  0  0  0
  191.2520  177.0610  144.6330 C   0  0  0  0  0  0  0  0  0  0  0  0
  190.6600  175.2720  143.1610 O   0  0  0  0  0  1  0  0  0  0  0  0
  191.6550  176.2030  143.4640 C   0  0  1  0  0  3  0  0  0  0  0  0
  191.9590  177.0230  142.2850 C   0  0  0  0  0  0  0  0  0  0  0  0
  192.1970  177.6680  141.3540 N   0  0  0  0  0  0  0  0  0  0  0  0
  182.5530  176.8500  138.7890 C   0  0  0  0  0  2  0  0  0  0  0  0
  180.6470  175.7380  137.7000 N   0  0  0  0  0  2  0  0  0  0  0  0
  180.1230  175.2920  136.4090 C   0  0  0  0  0  2  0  0  0  0  0  0
  182.0240  176.2010  137.5120 C   0  0  2  0  0  3  0  0  0  0  0  0
  182.3800  174.4710  135.7440 C   0  0  1  0  0  3  0  0  0  0  0  0
  180.9140  174.0850  135.9110 C   0  0  0  0  0  2  0  0  0  0  0  0
  182.9210  175.0510  137.0500 C   0  0  0  0  0  2  0  0  0  0  0  0
  183.1510  173.2980  135.3630 N   0  0  0  0  0  2  0  0  0  0  0  0
  184.5610  173.1980  135.5670 C   0  0  0  0  0  0  0  0  0  0  0  0
  185.2040  174.1570  136.0790 O   0  0  0  0  0  0  0  0  0  0  0  0
  184.9860  170.8680  135.7060 O   0  0  0  0  0  0  0  0  0  0  0  0
  185.2570  171.9750  135.1680 C   0  0  0  0  0  3  0  0  0  0  0  0
  184.8450  178.5020  137.7190 C   0  0  0  0  0  2  0  0  0  0  0  0
  188.6470  175.3380  136.4050 C   0  0  0  0  0  3  0  0  0  0  0  0
  186.0690  177.8880  138.3200 C   0  0  0  0  0  3  0  0  0  0  0  0
  187.0120  177.2340  137.6310 C   0  0  0  0  0  0  0  0  0  0  0  0
  188.1920  176.6850  138.3870 C   0  0  1  0  0  3  0  0  0  0  0  0
  187.7750  176.1620  135.6180 N   0  0  0  0  0  0  0  0  0  0  0  0
  188.8040  175.5550  137.6790 N   0  0  0  0  0  0  0  0  0  0  0  0
  186.9930  177.0520  136.1560 C   0  0  0  0  0  0  0  0  0  0  0  0
  189.2160  178.4750  139.9020 C   0  0  1  0  0  3  0  0  0  0  0  0
  189.2390  177.7870  138.5910 C   0  0  2  0  0  3  0  0  0  0  0  0
  188.5710  179.0920  138.7310 N   0  0  0  0  0  2  0  0  0  0  0  0
  188.1410  178.0120  140.8800 C   0  0  2  0  0  3  0  0  0  0  0  0
  188.5520  178.3270  142.2660 C   0  0  0  0  0  2  0  0  0  0  0  0
  188.6910  177.0330  141.7300 O   0  0  0  0  0  0  0  0  0  0  0  0
  186.1540  177.8280  135.3490 O   0  0  0  0  0  0  0  0  0  0  0  0
  185.3050  177.2560  134.3620 C   0  0  0  0  0  1  0  0  0  0  0  0
  1  6  2  0  0  0  0
  2  5  1  0  0  0  0
  3 26  1  1  0  0  0
  3  4  1  0  0  0  0
  3  2  1  0  0  0  0
  4 38  1  6  0  0  0
  4  1  1  0  0  0  0
  5  6  1  0  0  0  0
  6  8  1  0  0  0  0
  7  9  1  0  0  0  0
  8  7  2  0  0  0  0
  9 10  2  0  0  0  0
  9 11  1  0  0  0  0
 10 12  1  0  0  0  0
 11 13  1  0  0  0  0
 12 14  1  0  0  0  0
 12 13  2  0  0  0  0
 14 15  2  0  0  0  0
 16 17  1  0  0  0  0
 16 14  1  0  0  0  0
 18 17  1  0  0  0  0
 18 19  1  1  0  0  0
 20 21  2  0  0  0  0
 21 18  1  0  0  0  0
 23 22  1  6  0  0  0
 23 21  1  0  0  0  0
 24 23  1  0  0  0  0
 25 24  3  0  0  0  0
 28 27  1  0  0  0  0
 29 27  1  0  0  0  0
 29 26  1  1  0  0  0
 30 33  1  1  0  0  0
 30 31  1  0  0  0  0
 30 32  1  0  0  0  0
 31 28  1  0  0  0  0
 32 29  1  0  0  0  0
 33 34  1  0  0  0  0
 34 35  2  0  0  0  0
 37 34  1  0  0  0  0
 37 36  2  0  0  0  0
 38 40  1  0  0  0  0
 39 44  2  0  0  0  0
 41 40  2  0  0  0  0
 42 41  1  6  0  0  0
 42 47  1  0  0  0  0
 43 45  2  0  0  0  0
 43 39  1  0  0  0  0
 44 42  1  0  0  0  0
 45 41  1  0  0  0  0
 46 48  1  6  0  0  0
 46 49  1  0  0  0  0
 47 48  1  6  0  0  0
 47 46  1  0  0  0  0
 49 51  1  0  0  0  0
 49 50  1  1  0  0  0
 51 50  1  0  0  0  0
 52 45  1  0  0  0  0
 53 52  1  0  0  0  0
M  END
>  <MODEL>
1

>  <REMARK>
 VINA RESULT:      -7.6      0.000      0.000
  Name = 
  17 active torsions:
  status: ('A' for Active; 'I' for Inactive)
    1  A    between atoms: C_2  and  C_9
    2  A    between atoms: C_5  and  C_53
    3  A    between atoms: C_7  and  C_47
    4  A    between atoms: C_11  and  C_48
    5  A    between atoms: C_12  and  C_41
    6  A    between atoms: C_13  and  C_19
    7  A    between atoms: C_14  and  C_46
    8  A    between atoms: N_15  and  C_18
    9  A    between atoms: C_16  and  C_40
   10  A    between atoms: C_20  and  C_32
   11  A    between atoms: C_21  and  C_49
   12  A    between atoms: C_21  and  C_51
   13  A    between atoms: O_27  and  C_44
   14  A    between atoms: C_30  and  C_46
   15  A    between atoms: N_31  and  C_51
   16  A    between atoms: C_33  and  C_48
   17  A    between atoms: C_41  and  C_49
                            x       y       z     vdW  Elec       q    Type
                         _______ _______ _______ _____ _____    ______ ____

>  <TORSDO>
F 17

$$$$
=
 OpenBabel10232409313D

 53 58  0  0  1  0  0  0  0  0999 V2000
  186.1520  178.3970  140.0300 C   0  0  0  0  0  3  0  0  0  0  0  0
  187.6640  179.4330  142.2400 C   0  0  0  0  0  2  0  0  0  0  0  0
  186.2060  179.0340  142.4700 C   0  0  1  0  0  3  0  0  0  0  0  0
  185.4640  179.1550  141.1310 C   0  0  2  0  0  3  0  0  0  0  0  0
  188.3440  178.5150  141.2170 C   0  0  0  0  0  2  0  0  0  0  0  0
  187.4700  178.1630  140.0300 C   0  0  0  0  0  0  0  0  0  0  0  0
  189.2920  176.9940  138.8820 C   0  0  0  0  0  3  0  0  0  0  0  0
  188.0300  177.4130  138.8990 C   0  0  0  0  0  3  0  0  0  0  0  0
  189.8290  176.2370  137.7510 C   0  0  0  0  0  0  0  0  0  0  0  0
  190.5300  175.0960  137.8890 N   0  0  0  0  0  0  0  0  0  0  0  0
  189.6820  176.5670  136.4910 O   0  0  0  0  0  0  0  0  0  0  0  0
  190.7790  174.7850  136.5990 C   0  0  0  0  0  0  0  0  0  0  0  0
  190.2610  175.6830  135.7390 N   0  0  0  0  0  0  0  0  0  0  0  0
  191.5140  173.5880  136.1820 C   0  0  0  0  0  0  0  0  0  0  0  0
  190.9750  172.7630  135.3930 O   0  0  0  0  0  0  0  0  0  0  0  0
  192.8410  173.3600  136.6660 N   0  0  0  0  0  2  0  0  0  0  0  0
  193.6590  172.2450  136.2060 C   0  0  0  0  0  2  0  0  0  0  0  0
  195.1390  172.5700  136.3670 C   0  0  2  0  0  3  0  0  0  0  0  0
  195.9780  171.4490  135.7770 C   0  0  0  0  0  1  0  0  0  0  0  0
  195.3050  172.0020  138.6450 O   0  0  0  0  0  0  0  0  0  0  0  0
  195.4680  172.8780  137.8120 C   0  0  0  0  0  0  0  0  0  0  0  0
  196.2710  174.1890  139.6430 O   0  0  0  0  0  1  0  0  0  0  0  0
  195.9900  174.2100  138.2750 C   0  0  1  0  0  3  0  0  0  0  0  0
  197.1850  174.6040  137.5180 C   0  0  0  0  0  0  0  0  0  0  0  0
  198.1250  174.9150  136.9200 N   0  0  0  0  0  0  0  0  0  0  0  0
  186.0920  177.6260  143.0770 C   0  0  0  0  0  2  0  0  0  0  0  0
  185.5700  178.8920  145.1220 N   0  0  0  0  0  2  0  0  0  0  0  0
  185.4250  178.7800  146.5730 C   0  0  0  0  0  2  0  0  0  0  0  0
  186.0980  177.6280  144.6040 C   0  0  2  0  0  3  0  0  0  0  0  0
  187.4390  177.3160  146.6900 C   0  0  1  0  0  3  0  0  0  0  0  0
  186.7940  178.5910  147.2240 C   0  0  0  0  0  2  0  0  0  0  0  0
  187.4960  177.3580  145.1640 C   0  0  0  0  0  2  0  0  0  0  0  0
  188.7820  177.1860  147.2350 N   0  0  0  0  0  2  0  0  0  0  0  0
  189.9330  176.9760  146.4160 C   0  0  0  0  0  0  0  0  0  0  0  0
  189.8170  176.8730  145.1630 O   0  0  0  0  0  0  0  0  0  0  0  0
  192.0430  175.9410  146.7410 O   0  0  0  0  0  0  0  0  0  0  0  0
  191.2490  176.8710  147.0460 C   0  0  0  0  0  3  0  0  0  0  0  0
  183.9950  178.7590  141.2210 C   0  0  0  0  0  2  0  0  0  0  0  0
  180.0580  175.8120  139.8030 C   0  0  0  0  0  3  0  0  0  0  0  0
  183.7290  177.5410  140.3940 C   0  0  0  0  0  3  0  0  0  0  0  0
  182.5130  177.1130  140.0360 C   0  0  0  0  0  0  0  0  0  0  0  0
  182.4180  175.8730  139.1890 C   0  0  1  0  0  3  0  0  0  0  0  0
  180.1180  177.1720  140.2560 N   0  0  0  0  0  0  0  0  0  0  0  0
  181.1200  175.2090  139.3530 N   0  0  0  0  0  0  0  0  0  0  0  0
  181.2460  177.8090  140.3830 C   0  0  0  0  0  0  0  0  0  0  0  0
  183.5120  175.3390  136.9380 C   0  0  1  0  0  3  0  0  0  0  0  0
  182.6220  176.2340  137.7120 C   0  0  2  0  0  3  0  0  0  0  0  0
  184.0270  176.6080  137.4780 N   0  0  0  0  0  2  0  0  0  0  0  0
  184.1290  174.1790  137.7120 C   0  0  2  0  0  3  0  0  0  0  0  0
  184.9840  173.3720  136.8130 C   0  0  0  0  0  2  0  0  0  0  0  0
  183.6790  172.9670  137.1510 O   0  0  0  0  0  0  0  0  0  0  0  0
  181.2570  179.1330  140.8360 O   0  0  0  0  0  0  0  0  0  0  0  0
  180.4600  180.1480  140.2400 C   0  0  0  0  0  1  0  0  0  0  0  0
  1  6  2  0  0  0  0
  1  4  1  0  0  0  0
  2  3  1  0  0  0  0
  3 26  1  6  0  0  0
  4 38  1  1  0  0  0
  4  3  1  0  0  0  0
  5  2  1  0  0  0  0
  6  5  1  0  0  0  0
  7  8  2  0  0  0  0
  8  6  1  0  0  0  0
  9 10  2  0  0  0  0
  9  7  1  0  0  0  0
 11  9  1  0  0  0  0
 12 10  1  0  0  0  0
 13 11  1  0  0  0  0
 13 12  2  0  0  0  0
 14 12  1  0  0  0  0
 14 16  1  0  0  0  0
 15 14  2  0  0  0  0
 17 18  1  0  0  0  0
 17 16  1  0  0  0  0
 18 19  1  1  0  0  0
 18 21  1  0  0  0  0
 21 23  1  0  0  0  0
 21 20  2  0  0  0  0
 23 22  1  1  0  0  0
 24 23  1  0  0  0  0
 25 24  3  0  0  0  0
 27 28  1  0  0  0  0
 28 31  1  0  0  0  0
 29 26  1  6  0  0  0
 29 27  1  0  0  0  0
 29 32  1  0  0  0  0
 30 31  1  0  0  0  0
 30 33  1  1  0  0  0
 32 30  1  0  0  0  0
 34 37  1  0  0  0  0
 34 33  1  0  0  0  0
 35 34  2  0  0  0  0
 36 37  2  0  0  0  0
 39 43  1  0  0  0  0
 40 38  1  0  0  0  0
 41 45  1  0  0  0  0
 41 40  2  0  0  0  0
 42 44  1  6  0  0  0
 42 41  1  0  0  0  0
 43 45  2  0  0  0  0
 44 39  2  0  0  0  0
 45 52  1  0  0  0  0
 46 48  1  1  0  0  0
 46 49  1  0  0  0  0
 46 47  1  0  0  0  0
 47 48  1  1  0  0  0
 47 42  1  0  0  0  0
 49 50  1  6  0  0  0
 50 51  1  0  0  0  0
 51 49  1  0  0  0  0
 53 52  1  0  0  0  0
M  END
>  <MODEL>
2

>  <REMARK>
 VINA RESULT:      -6.7      3.626      9.229
  Name = 
  17 active torsions:
  status: ('A' for Active; 'I' for Inactive)
    1  A    between atoms: C_2  and  C_9
    2  A    between atoms: C_5  and  C_53
    3  A    between atoms: C_7  and  C_47
    4  A    between atoms: C_11  and  C_48
    5  A    between atoms: C_12  and  C_41
    6  A    between atoms: C_13  and  C_19
    7  A    between atoms: C_14  and  C_46
    8  A    between atoms: N_15  and  C_18
    9  A    between atoms: C_16  and  C_40
   10  A    between atoms: C_20  and  C_32
   11  A    between atoms: C_21  and  C_49
   12  A    between atoms: C_21  and  C_51
   13  A    between atoms: O_27  and  C_44
   14  A    between atoms: C_30  and  C_46
   15  A    between atoms: N_31  and  C_51
   16  A    between atoms: C_33  and  C_48
   17  A    between atoms: C_41  and  C_49
                            x       y       z     vdW  Elec       q    Type
                         _______ _______ _______ _____ _____    ______ ____

>  <TORSDO>
F 17

$$$$
=
 OpenBabel10232409313D

 53 58  0  0  1  0  0  0  0  0999 V2000
  186.0710  178.4150  139.8270 C   0  0  0  0  0  3  0  0  0  0  0  0
  187.0460  179.6520  142.2270 C   0  0  0  0  0  2  0  0  0  0  0  0
  185.6060  179.1390  142.1980 C   0  0  1  0  0  3  0  0  0  0  0  0
  185.1280  179.1490  140.7380 C   0  0  2  0  0  3  0  0  0  0  0  0
  187.9780  178.7600  141.3990 C   0  0  0  0  0  2  0  0  0  0  0  0
  187.3780  178.2940  140.0880 C   0  0  0  0  0  0  0  0  0  0  0  0
  189.4330  177.1430  139.4100 C   0  0  0  0  0  3  0  0  0  0  0  0
  188.2010  177.5550  139.1230 C   0  0  0  0  0  3  0  0  0  0  0  0
  190.2330  176.3960  138.4390 C   0  0  0  0  0  0  0  0  0  0  0  0
  191.5200  176.6780  138.1660 N   0  0  0  0  0  0  0  0  0  0  0  0
  189.8020  175.3730  137.7430 O   0  0  0  0  0  0  0  0  0  0  0  0
  191.8060  175.7290  137.2490 C   0  0  0  0  0  0  0  0  0  0  0  0
  190.7570  174.9260  136.9870 N   0  0  0  0  0  0  0  0  0  0  0  0
  193.1240  175.5770  136.6260 C   0  0  0  0  0  0  0  0  0  0  0  0
  193.3270  176.0330  135.4670 O   0  0  0  0  0  0  0  0  0  0  0  0
  194.1770  174.9150  137.3340 N   0  0  0  0  0  2  0  0  0  0  0  0
  195.5340  174.8270  136.8120 C   0  0  0  0  0  2  0  0  0  0  0  0
  196.4430  174.1200  137.8090 C   0  0  2  0  0  3  0  0  0  0  0  0
  195.8750  174.2610  139.2120 C   0  0  0  0  0  1  0  0  0  0  0  0
  198.2680  175.4500  138.4730 O   0  0  0  0  0  0  0  0  0  0  0  0
  197.8680  174.6120  137.6810 C   0  0  0  0  0  0  0  0  0  0  0  0
  199.9350  174.9560  136.5280 O   0  0  0  0  0  1  0  0  0  0  0  0
  198.8220  174.1180  136.6270 C   0  0  1  0  0  3  0  0  0  0  0  0
  199.2470  172.7400  136.9000 C   0  0  0  0  0  0  0  0  0  0  0  0
  199.5800  171.6530  137.1170 N   0  0  0  0  0  0  0  0  0  0  0  0
  185.4850  177.7500  142.8430 C   0  0  0  0  0  2  0  0  0  0  0  0
  185.2080  178.9220  144.9900 N   0  0  0  0  0  2  0  0  0  0  0  0
  185.3770  178.7890  146.4360 C   0  0  0  0  0  2  0  0  0  0  0  0
  185.7990  177.7510  144.3380 C   0  0  2  0  0  3  0  0  0  0  0  0
  187.5660  177.6430  146.1030 C   0  0  1  0  0  3  0  0  0  0  0  0
  186.8620  178.8060  146.7940 C   0  0  0  0  0  2  0  0  0  0  0  0
  187.3060  177.6930  144.5980 C   0  0  0  0  0  2  0  0  0  0  0  0
  188.9950  177.7150  146.3650 N   0  0  0  0  0  2  0  0  0  0  0  0
  189.6620  176.8320  147.2670 C   0  0  0  0  0  0  0  0  0  0  0  0
  189.0130  175.9520  147.9000 O   0  0  0  0  0  0  0  0  0  0  0  0
  191.8150  175.9650  147.7600 O   0  0  0  0  0  0  0  0  0  0  0  0
  191.1060  176.9630  147.4610 C   0  0  0  0  0  3  0  0  0  0  0  0
  183.7030  178.6330  140.5700 C   0  0  0  0  0  2  0  0  0  0  0  0
  180.4120  175.5630  138.1350 C   0  0  0  0  0  3  0  0  0  0  0  0
  183.7010  177.3390  139.8220 C   0  0  0  0  0  3  0  0  0  0  0  0
  182.6740  176.8780  139.0980 C   0  0  0  0  0  0  0  0  0  0  0  0
  182.8370  175.5580  138.3930 C   0  0  1  0  0  3  0  0  0  0  0  0
  180.3590  176.9610  138.4490 N   0  0  0  0  0  0  0  0  0  0  0  0
  181.5410  174.9150  138.1490 N   0  0  0  0  0  0  0  0  0  0  0  0
  181.3930  177.6070  138.9070 C   0  0  0  0  0  0  0  0  0  0  0  0
  184.5790  174.7520  136.7010 C   0  0  1  0  0  3  0  0  0  0  0  0
  183.5620  175.7670  137.0570 C   0  0  2  0  0  3  0  0  0  0  0  0
  184.9900  176.0330  137.2990 N   0  0  0  0  0  2  0  0  0  0  0  0
  184.7910  173.6340  137.7170 C   0  0  2  0  0  3  0  0  0  0  0  0
  185.9520  172.8060  137.3180 C   0  0  0  0  0  2  0  0  0  0  0  0
  184.6300  172.3940  137.0680 O   0  0  0  0  0  0  0  0  0  0  0  0
  181.2930  178.9700  139.2070 O   0  0  0  0  0  0  0  0  0  0  0  0
  181.1540  179.9630  138.1990 C   0  0  0  0  0  1  0  0  0  0  0  0
  1  6  2  0  0  0  0
  1  4  1  0  0  0  0
  3  2  1  0  0  0  0
  3 26  1  6  0  0  0
  4 38  1  1  0  0  0
  4  3  1  0  0  0  0
  5  2  1  0  0  0  0
  6  5  1  0  0  0  0
  8  7  2  0  0  0  0
  8  6  1  0  0  0  0
  9  7  1  0  0  0  0
 10  9  2  0  0  0  0
 11  9  1  0  0  0  0
 12 10  1  0  0  0  0
 13 12  2  0  0  0  0
 13 11  1  0  0  0  0
 14 12  1  0  0  0  0
 14 16  1  0  0  0  0
 15 14  2  0  0  0  0
 17 16  1  0  0  0  0
 17 18  1  0  0  0  0
 18 19  1  1  0  0  0
 21 18  1  0  0  0  0
 21 20  2  0  0  0  0
 23 22  1  1  0  0  0
 23 24  1  0  0  0  0
 23 21  1  0  0  0  0
 24 25  3  0  0  0  0
 27 28  1  0  0  0  0
 28 31  1  0  0  0  0
 29 26  1  6  0  0  0
 29 32  1  0  0  0  0
 29 27  1  0  0  0  0
 30 33  1  6  0  0  0
 30 31  1  0  0  0  0
 32 30  1  0  0  0  0
 33 34  1  0  0  0  0
 34 37  1  0  0  0  0
 34 35  2  0  0  0  0
 37 36  2  0  0  0  0
 39 44  2  0  0  0  0
 39 43  1  0  0  0  0
 40 38  1  0  0  0  0
 41 40  2  0  0  0  0
 42 44  1  6  0  0  0
 42 41  1  0  0  0  0
 43 45  2  0  0  0  0
 45 41  1  0  0  0  0
 45 52  1  0  0  0  0
 46 47  1  0  0  0  0
 46 48  1  1  0  0  0
 46 49  1  0  0  0  0
 47 48  1  1  0  0  0
 47 42  1  0  0  0  0
 49 50  1  6  0  0  0
 51 50  1  0  0  0  0
 51 49  1  0  0  0  0
 53 52  1  0  0  0  0
M  END
>  <MODEL>
3

>  <REMARK>
 VINA RESULT:      -6.6      4.314      9.153
  Name = 
  17 active torsions:
  status: ('A' for Active; 'I' for Inactive)
    1  A    between atoms: C_2  and  C_9
    2  A    between atoms: C_5  and  C_53
    3  A    between atoms: C_7  and  C_47
    4  A    between atoms: C_11  and  C_48
    5  A    between atoms: C_12  and  C_41
    6  A    between atoms: C_13  and  C_19
    7  A    between atoms: C_14  and  C_46
    8  A    between atoms: N_15  and  C_18
    9  A    between atoms: C_16  and  C_40
   10  A    between atoms: C_20  and  C_32
   11  A    between atoms: C_21  and  C_49
   12  A    between atoms: C_21  and  C_51
   13  A    between atoms: O_27  and  C_44
   14  A    between atoms: C_30  and  C_46
   15  A    between atoms: N_31  and  C_51
   16  A    between atoms: C_33  and  C_48
   17  A    between atoms: C_41  and  C_49
                            x       y       z     vdW  Elec       q    Type
                         _______ _______ _______ _____ _____    ______ ____

>  <TORSDO>
F 17

$$$$
=
 OpenBabel10232409313D

 53 58  0  0  1  0  0  0  0  0999 V2000
  186.2650  178.4000  139.4770 C   0  0  0  0  0  3  0  0  0  0  0  0
  186.8510  179.6390  141.9990 C   0  0  0  0  0  2  0  0  0  0  0  0
  185.4260  179.1550  141.7320 C   0  0  1  0  0  3  0  0  0  0  0  0
  185.1990  179.1620  140.2130 C   0  0  2  0  0  3  0  0  0  0  0  0
  187.8890  178.7200  141.3440 C   0  0  0  0  0  2  0  0  0  0  0  0
  187.5070  178.2540  139.9530 C   0  0  0  0  0  0  0  0  0  0  0  0
  189.6790  177.1790  139.5870 C   0  0  0  0  0  3  0  0  0  0  0  0
  188.4640  177.4900  139.1440 C   0  0  0  0  0  3  0  0  0  0  0  0
  190.6140  176.4050  138.7700 C   0  0  0  0  0  0  0  0  0  0  0  0
  191.7470  176.9160  138.2560 N   0  0  0  0  0  0  0  0  0  0  0  0
  190.4670  175.1400  138.4590 O   0  0  0  0  0  0  0  0  0  0  0  0
  192.2530  175.8390  137.6170 C   0  0  0  0  0  0  0  0  0  0  0  0
  191.4720  174.7490  137.7400 N   0  0  0  0  0  0  0  0  0  0  0  0
  193.5260  175.8520  136.8910 C   0  0  0  0  0  0  0  0  0  0  0  0
  194.2170  176.9070  136.8540 O   0  0  0  0  0  0  0  0  0  0  0  0
  193.9830  174.6680  136.2300 N   0  0  0  0  0  2  0  0  0  0  0  0
  195.2860  174.5890  135.5820 C   0  0  0  0  0  2  0  0  0  0  0  0
  196.3620  174.2240  136.5970 C   0  0  2  0  0  3  0  0  0  0  0  0
  197.6700  174.9030  136.2270 C   0  0  0  0  0  1  0  0  0  0  0  0
  196.9320  172.0820  135.8060 O   0  0  0  0  0  0  0  0  0  0  0  0
  196.4790  172.7220  136.7400 C   0  0  0  0  0  0  0  0  0  0  0  0
  195.3540  172.8030  138.8490 O   0  0  0  0  0  1  0  0  0  0  0  0
  196.0670  171.9750  137.9800 C   0  0  1  0  0  3  0  0  0  0  0  0
  195.2720  170.7870  137.6440 C   0  0  0  0  0  0  0  0  0  0  0  0
  194.6430  169.8530  137.3780 N   0  0  0  0  0  0  0  0  0  0  0  0
  185.1690  177.7740  142.3560 C   0  0  0  0  0  2  0  0  0  0  0  0
  184.7200  178.9490  144.4720 N   0  0  0  0  0  2  0  0  0  0  0  0
  184.7390  178.8050  145.9270 C   0  0  0  0  0  2  0  0  0  0  0  0
  185.3320  177.7600  143.8750 C   0  0  2  0  0  3  0  0  0  0  0  0
  186.9090  177.5840  145.8050 C   0  0  1  0  0  3  0  0  0  0  0  0
  186.1800  178.7690  146.4310 C   0  0  0  0  0  2  0  0  0  0  0  0
  186.8030  177.6480  144.2830 C   0  0  0  0  0  2  0  0  0  0  0  0
  188.3070  177.6040  146.2090 N   0  0  0  0  0  2  0  0  0  0  0  0
  188.7250  177.4170  147.5610 C   0  0  0  0  0  0  0  0  0  0  0  0
  187.8730  177.2440  148.4770 O   0  0  0  0  0  0  0  0  0  0  0  0
  190.9450  176.6030  147.3620 O   0  0  0  0  0  0  0  0  0  0  0  0
  190.1530  177.4370  147.8780 C   0  0  0  0  0  3  0  0  0  0  0  0
  183.8120  178.6730  139.8120 C   0  0  0  0  0  2  0  0  0  0  0  0
  181.0580  174.6630  138.2220 C   0  0  0  0  0  3  0  0  0  0  0  0
  183.9160  177.5370  138.8460 C   0  0  0  0  0  3  0  0  0  0  0  0
  182.9030  176.7360  138.4970 C   0  0  0  0  0  0  0  0  0  0  0  0
  183.1730  175.6410  137.4990 C   0  0  1  0  0  3  0  0  0  0  0  0
  180.6760  175.8960  138.8480 N   0  0  0  0  0  0  0  0  0  0  0  0
  182.2170  174.5380  137.6410 N   0  0  0  0  0  0  0  0  0  0  0  0
  181.5120  176.8820  138.9990 C   0  0  0  0  0  0  0  0  0  0  0  0
  184.1540  175.7690  135.1400 C   0  0  1  0  0  3  0  0  0  0  0  0
  183.0920  176.2050  136.0750 C   0  0  2  0  0  3  0  0  0  0  0  0
  184.2520  177.0740  135.8140 N   0  0  0  0  0  2  0  0  0  0  0  0
  185.2060  174.8270  135.7160 C   0  0  2  0  0  3  0  0  0  0  0  0
  186.2330  174.5320  134.6920 C   0  0  0  0  0  2  0  0  0  0  0  0
  185.1950  173.6260  134.9790 O   0  0  0  0  0  0  0  0  0  0  0  0
  181.0960  178.0640  139.6220 O   0  0  0  0  0  0  0  0  0  0  0  0
  180.3640  178.0660  140.8410 C   0  0  0  0  0  1  0  0  0  0  0  0
  1  6  2  0  0  0  0
  1  4  1  0  0  0  0
  3  2  1  0  0  0  0
  3 26  1  6  0  0  0
  4 38  1  1  0  0  0
  4  3  1  0  0  0  0
  5  2  1  0  0  0  0
  6  5  1  0  0  0  0
  8  7  2  0  0  0  0
  8  6  1  0  0  0  0
  9  7  1  0  0  0  0
 10  9  2  0  0  0  0
 11  9  1  0  0  0  0
 12 13  2  0  0  0  0
 12 10  1  0  0  0  0
 13 11  1  0  0  0  0
 14 12  1  0  0  0  0
 15 14  2  0  0  0  0
 16 14  1  0  0  0  0
 17 16  1  0  0  0  0
 17 18  1  0  0  0  0
 18 19  1  6  0  0  0
 18 21  1  0  0  0  0
 20 21  2  0  0  0  0
 21 23  1  0  0  0  0
 23 22  1  1  0  0  0
 24 23  1  0  0  0  0
 25 24  3  0  0  0  0
 27 28  1  0  0  0  0
 28 31  1  0  0  0  0
 29 26  1  6  0  0  0
 29 32  1  0  0  0  0
 29 27  1  0  0  0  0
 30 33  1  6  0  0  0
 30 31  1  0  0  0  0
 32 30  1  0  0  0  0
 33 34  1  0  0  0  0
 34 37  1  0  0  0  0
 34 35  2  0  0  0  0
 36 37  2  0  0  0  0
 39 43  1  0  0  0  0
 40 38  1  0  0  0  0
 41 40  2  0  0  0  0
 41 45  1  0  0  0  0
 42 44  1  6  0  0  0
 42 41  1  0  0  0  0
 43 45  2  0  0  0  0
 44 39  2  0  0  0  0
 45 52  1  0  0  0  0
 46 49  1  0  0  0  0
 46 48  1  1  0  0  0
 46 47  1  0  0  0  0
 47 48  1  1  0  0  0
 47 42  1  0  0  0  0
 49 50  1  6  0  0  0
 50 51  1  0  0  0  0
 51 49  1  0  0  0  0
 52 53  1  0  0  0  0
M  END
>  <MODEL>
4

>  <REMARK>
 VINA RESULT:      -6.5      4.090      9.102
  Name = 
  17 active torsions:
  status: ('A' for Active; 'I' for Inactive)
    1  A    between atoms: C_2  and  C_9
    2  A    between atoms: C_5  and  C_53
    3  A    between atoms: C_7  and  C_47
    4  A    between atoms: C_11  and  C_48
    5  A    between atoms: C_12  and  C_41
    6  A    between atoms: C_13  and  C_19
    7  A    between atoms: C_14  and  C_46
    8  A    between atoms: N_15  and  C_18
    9  A    between atoms: C_16  and  C_40
   10  A    between atoms: C_20  and  C_32
   11  A    between atoms: C_21  and  C_49
   12  A    between atoms: C_21  and  C_51
   13  A    between atoms: O_27  and  C_44
   14  A    between atoms: C_30  and  C_46
   15  A    between atoms: N_31  and  C_51
   16  A    between atoms: C_33  and  C_48
   17  A    between atoms: C_41  and  C_49
                            x       y       z     vdW  Elec       q    Type
                         _______ _______ _______ _____ _____    ______ ____

>  <TORSDO>
F 17

$$$$
=
 OpenBabel10232409313D

 53 58  0  0  1  0  0  0  0  0999 V2000
  183.8570  177.7180  138.8130 C   0  0  0  0  0  3  0  0  0  0  0  0
  181.1100  177.0710  138.2850 C   0  0  0  0  0  2  0  0  0  0  0  0
  182.1870  176.5190  137.3520 C   0  0  1  0  0  3  0  0  0  0  0  0
  183.3940  177.4670  137.4050 C   0  0  2  0  0  3  0  0  0  0  0  0
  181.6070  177.1510  139.7330 C   0  0  0  0  0  2  0  0  0  0  0  0
  183.0350  177.6430  139.8670 C   0  0  0  0  0  0  0  0  0  0  0  0
  182.8520  178.3120  142.2170 C   0  0  0  0  0  3  0  0  0  0  0  0
  183.6010  177.9100  141.1950 C   0  0  0  0  0  3  0  0  0  0  0  0
  183.4320  178.5610  143.5370 C   0  0  0  0  0  0  0  0  0  0  0  0
  184.7530  178.5020  143.7890 N   0  0  0  0  0  0  0  0  0  0  0  0
  182.7470  178.8770  144.6090 O   0  0  0  0  0  0  0  0  0  0  0  0
  184.7820  178.8140  145.1020 C   0  0  0  0  0  0  0  0  0  0  0  0
  183.5560  179.0450  145.6090 N   0  0  0  0  0  0  0  0  0  0  0  0
  186.0180  178.9130  145.8840 C   0  0  0  0  0  0  0  0  0  0  0  0
  186.0150  179.5190  146.9900 O   0  0  0  0  0  0  0  0  0  0  0  0
  187.2230  178.3170  145.3910 N   0  0  0  0  0  2  0  0  0  0  0  0
  188.4550  178.2910  146.1700 C   0  0  0  0  0  2  0  0  0  0  0  0
  188.5320  177.0140  146.9980 C   0  0  2  0  0  3  0  0  0  0  0  0
  188.0160  177.2800  148.4020 C   0  0  0  0  0  1  0  0  0  0  0  0
  190.1570  175.4240  147.6090 O   0  0  0  0  0  0  0  0  0  0  0  0
  189.9310  176.4370  146.9660 C   0  0  0  0  0  0  0  0  0  0  0  0
  192.2790  176.8660  146.8340 O   0  0  0  0  0  1  0  0  0  0  0  0
  191.0590  177.0450  146.1790 C   0  0  1  0  0  3  0  0  0  0  0  0
  191.1240  176.4830  144.8240 C   0  0  0  0  0  0  0  0  0  0  0  0
  191.1740  176.0430  143.7550 N   0  0  0  0  0  0  0  0  0  0  0  0
  182.5630  175.0720  137.7120 C   0  0  0  0  0  2  0  0  0  0  0  0
  180.9640  173.3620  136.9510 N   0  0  0  0  0  2  0  0  0  0  0  0
  180.5670  172.5500  135.8020 C   0  0  0  0  0  2  0  0  0  0  0  0
  182.2050  174.0670  136.6190 C   0  0  2  0  0  3  0  0  0  0  0  0
  182.9570  172.1250  135.2390 C   0  0  1  0  0  3  0  0  0  0  0  0
  181.6130  171.4690  135.5380 C   0  0  0  0  0  2  0  0  0  0  0  0
  183.3410  173.0720  136.3740 C   0  0  0  0  0  2  0  0  0  0  0  0
  183.9750  171.0970  135.0820 N   0  0  0  0  0  2  0  0  0  0  0  0
  185.3600  171.3990  134.9110 C   0  0  0  0  0  0  0  0  0  0  0  0
  185.7540  172.5980  134.8670 O   0  0  0  0  0  0  0  0  0  0  0  0
  186.1190  169.1900  135.3320 O   0  0  0  0  0  0  0  0  0  0  0  0
  186.3200  170.3030  134.7750 C   0  0  0  0  0  3  0  0  0  0  0  0
  184.5550  177.0110  136.5290 C   0  0  0  0  0  2  0  0  0  0  0  0
  189.2130  174.9110  136.2280 C   0  0  0  0  0  3  0  0  0  0  0  0
  185.8130  176.9210  137.3320 C   0  0  0  0  0  3  0  0  0  0  0  0
  186.9790  176.4490  136.8740 C   0  0  0  0  0  0  0  0  0  0  0  0
  188.1580  176.4390  137.8100 C   0  0  1  0  0  3  0  0  0  0  0  0
  188.2560  175.2610  135.2180 N   0  0  0  0  0  0  0  0  0  0  0  0
  189.1410  175.4210  137.4230 N   0  0  0  0  0  0  0  0  0  0  0  0
  187.1980  175.9720  135.4840 C   0  0  0  0  0  0  0  0  0  0  0  0
  189.0930  178.4080  139.1500 C   0  0  1  0  0  3  0  0  0  0  0  0
  188.8290  177.8180  137.8170 C   0  0  2  0  0  3  0  0  0  0  0  0
  187.9070  178.8200  138.3800 N   0  0  0  0  0  2  0  0  0  0  0  0
  188.6480  177.5770  140.3480 C   0  0  2  0  0  3  0  0  0  0  0  0
  188.3560  178.4640  141.4960 C   0  0  0  0  0  2  0  0  0  0  0  0
  189.5710  177.7600  141.3970 O   0  0  0  0  0  0  0  0  0  0  0  0
  186.2880  176.2840  134.4680 O   0  0  0  0  0  0  0  0  0  0  0  0
  185.0300  175.6330  134.3460 C   0  0  0  0  0  1  0  0  0  0  0  0
  1  6  2  0  0  0  0
  2  5  1  0  0  0  0
  3  4  1  0  0  0  0
  3 26  1  1  0  0  0
  3  2  1  0  0  0  0
  4 38  1  6  0  0  0
  4  1  1  0  0  0  0
  5  6  1  0  0  0  0
  6  8  1  0  0  0  0
  7  9  1  0  0  0  0
  8  7  2  0  0  0  0
  9 10  2  0  0  0  0
  9 11  1  0  0  0  0
 10 12  1  0  0  0  0
 11 13  1  0  0  0  0
 12 13  2  0  0  0  0
 12 14  1  0  0  0  0
 14 15  2  0  0  0  0
 16 14  1  0  0  0  0
 16 17  1  0  0  0  0
 17 18  1  0  0  0  0
 18 19  1  1  0  0  0
 21 18  1  0  0  0  0
 21 20  2  0  0  0  0
 23 22  1  1  0  0  0
 23 21  1  0  0  0  0
 24 23  1  0  0  0  0
 25 24  3  0  0  0  0
 28 27  1  0  0  0  0
 29 27  1  0  0  0  0
 29 26  1  1  0  0  0
 30 33  1  1  0  0  0
 30 31  1  0  0  0  0
 30 32  1  0  0  0  0
 31 28  1  0  0  0  0
 32 29  1  0  0  0  0
 34 33  1  0  0  0  0
 35 34  2  0  0  0  0
 37 34  1  0  0  0  0
 37 36  2  0  0  0  0
 38 40  1  0  0  0  0
 39 44  2  0  0  0  0
 41 40  2  0  0  0  0
 42 41  1  6  0  0  0
 42 47  1  0  0  0  0
 43 45  2  0  0  0  0
 43 39  1  0  0  0  0
 44 42  1  0  0  0  0
 45 41  1  0  0  0  0
 46 48  1  6  0  0  0
 46 49  1  0  0  0  0
 47 48  1  6  0  0  0
 47 46  1  0  0  0  0
 49 51  1  0  0  0  0
 49 50  1  1  0  0  0
 51 50  1  0  0  0  0
 52 45  1  0  0  0  0
 53 52  1  0  0  0  0
M  END
>  <MODEL>
5

>  <REMARK>
 VINA RESULT:      -6.4      1.612      2.191
  Name = 
  17 active torsions:
  status: ('A' for Active; 'I' for Inactive)
    1  A    between atoms: C_2  and  C_9
    2  A    between atoms: C_5  and  C_53
    3  A    between atoms: C_7  and  C_47
    4  A    between atoms: C_11  and  C_48
    5  A    between atoms: C_12  and  C_41
    6  A    between atoms: C_13  and  C_19
    7  A    between atoms: C_14  and  C_46
    8  A    between atoms: N_15  and  C_18
    9  A    between atoms: C_16  and  C_40
   10  A    between atoms: C_20  and  C_32
   11  A    between atoms: C_21  and  C_49
   12  A    between atoms: C_21  and  C_51
   13  A    between atoms: O_27  and  C_44
   14  A    between atoms: C_30  and  C_46
   15  A    between atoms: N_31  and  C_51
   16  A    between atoms: C_33  and  C_48
   17  A    between atoms: C_41  and  C_49
                            x       y       z     vdW  Elec       q    Type
                         _______ _______ _______ _____ _____    ______ ____

>  <TORSDO>
F 17

$$$$
=
 OpenBabel10232409313D

 53 58  0  0  1  0  0  0  0  0999 V2000
  185.9550  178.3210  139.2500 C   0  0  0  0  0  3  0  0  0  0  0  0
  187.3810  179.4310  141.4800 C   0  0  0  0  0  2  0  0  0  0  0  0
  185.9010  179.0900  141.6510 C   0  0  1  0  0  3  0  0  0  0  0  0
  185.2350  179.1590  140.2680 C   0  0  2  0  0  3  0  0  0  0  0  0
  188.0830  178.4370  140.5470 C   0  0  0  0  0  2  0  0  0  0  0  0
  187.2620  178.0470  139.3340 C   0  0  0  0  0  0  0  0  0  0  0  0
  188.9860  176.5400  138.4600 C   0  0  0  0  0  3  0  0  0  0  0  0
  187.8560  177.2180  138.2780 C   0  0  0  0  0  3  0  0  0  0  0  0
  189.5560  175.7090  137.3990 C   0  0  0  0  0  0  0  0  0  0  0  0
  190.8630  175.3980  137.3230 N   0  0  0  0  0  0  0  0  0  0  0  0
  188.8700  175.1680  136.4220 O   0  0  0  0  0  0  0  0  0  0  0  0
  190.8830  174.6250  136.2160 C   0  0  0  0  0  0  0  0  0  0  0  0
  189.6640  174.4800  135.6610 N   0  0  0  0  0  0  0  0  0  0  0  0
  192.0970  173.9930  135.6910 C   0  0  0  0  0  0  0  0  0  0  0  0
  192.3680  174.0780  134.4610 O   0  0  0  0  0  0  0  0  0  0  0  0
  192.9740  173.2880  136.5750 N   0  0  0  0  0  2  0  0  0  0  0  0
  194.2460  172.7310  136.1330 C   0  0  0  0  0  2  0  0  0  0  0  0
  195.3970  173.3450  136.9190 C   0  0  2  0  0  3  0  0  0  0  0  0
  194.9220  173.7290  138.3110 C   0  0  0  0  0  1  0  0  0  0  0  0
  195.2850  175.3400  135.6750 O   0  0  0  0  0  0  0  0  0  0  0  0
  196.0200  174.4920  136.1540 C   0  0  0  0  0  0  0  0  0  0  0  0
  197.9800  175.7880  136.5960 O   0  0  0  0  0  1  0  0  0  0  0  0
  197.5040  174.6440  135.9540 C   0  0  1  0  0  3  0  0  0  0  0  0
  198.2270  173.4570  136.4300 C   0  0  0  0  0  0  0  0  0  0  0  0
  198.7960  172.5230  136.8070 N   0  0  0  0  0  0  0  0  0  0  0  0
  185.7080  177.7230  142.3260 C   0  0  0  0  0  2  0  0  0  0  0  0
  185.0430  179.1660  144.2060 N   0  0  0  0  0  2  0  0  0  0  0  0
  184.6780  179.1640  145.6220 C   0  0  0  0  0  2  0  0  0  0  0  0
  185.4920  177.8220  143.8350 C   0  0  2  0  0  3  0  0  0  0  0  0
  186.4730  177.5050  146.1110 C   0  0  1  0  0  3  0  0  0  0  0  0
  185.9070  178.8730  146.4800 C   0  0  0  0  0  2  0  0  0  0  0  0
  186.7540  177.4420  144.6120 C   0  0  0  0  0  2  0  0  0  0  0  0
  187.6980  177.2680  146.8590 N   0  0  0  0  0  2  0  0  0  0  0  0
  188.9930  177.5710  146.3390 C   0  0  0  0  0  0  0  0  0  0  0  0
  189.1210  178.0460  145.1760 O   0  0  0  0  0  0  0  0  0  0  0  0
  190.6810  176.1640  147.2320 O   0  0  0  0  0  0  0  0  0  0  0  0
  190.1730  177.3160  147.1640 C   0  0  0  0  0  3  0  0  0  0  0  0
  183.7510  178.8130  140.3000 C   0  0  0  0  0  2  0  0  0  0  0  0
  180.9870  178.2250  136.0320 C   0  0  0  0  0  3  0  0  0  0  0  0
  182.9980  179.6460  139.3110 C   0  0  0  0  0  3  0  0  0  0  0  0
  182.1750  179.1610  138.3750 C   0  0  0  0  0  0  0  0  0  0  0  0
  181.4820  180.1380  137.4630 C   0  0  1  0  0  3  0  0  0  0  0  0
  181.3030  177.3180  137.0980 N   0  0  0  0  0  0  0  0  0  0  0  0
  181.1090  179.5110  136.1900 N   0  0  0  0  0  0  0  0  0  0  0  0
  181.8640  177.7180  138.2030 C   0  0  0  0  0  0  0  0  0  0  0  0
  180.0280  182.1530  138.0700 C   0  0  1  0  0  3  0  0  0  0  0  0
  180.2250  180.6880  138.1480 C   0  0  2  0  0  3  0  0  0  0  0  0
  180.6080  181.5490  139.2800 N   0  0  0  0  0  2  0  0  0  0  0  0
  181.1100  182.9340  137.3320 C   0  0  2  0  0  3  0  0  0  0  0  0
  180.7870  184.3790  137.3470 C   0  0  0  0  0  2  0  0  0  0  0  0
  180.5300  183.5750  136.2200 O   0  0  0  0  0  0  0  0  0  0  0  0
  182.1600  176.7960  139.2130 O   0  0  0  0  0  0  0  0  0  0  0  0
  181.2760  175.7380  139.5600 C   0  0  0  0  0  1  0  0  0  0  0  0
  1  6  2  0  0  0  0
  1  4  1  0  0  0  0
  2  3  1  0  0  0  0
  3 26  1  6  0  0  0
  4 38  1  1  0  0  0
  4  3  1  0  0  0  0
  5  2  1  0  0  0  0
  6  5  1  0  0  0  0
  8  7  2  0  0  0  0
  8  6  1  0  0  0  0
  9  7  1  0  0  0  0
 10  9  2  0  0  0  0
 11  9  1  0  0  0  0
 12 10  1  0  0  0  0
 13 12  2  0  0  0  0
 13 11  1  0  0  0  0
 14 12  1  0  0  0  0
 14 16  1  0  0  0  0
 15 14  2  0  0  0  0
 17 16  1  0  0  0  0
 17 18  1  0  0  0  0
 18 19  1  1  0  0  0
 20 21  2  0  0  0  0
 21 18  1  0  0  0  0
 23 21  1  0  0  0  0
 23 24  1  0  0  0  0
 23 22  1  1  0  0  0
 24 25  3  0  0  0  0
 27 28  1  0  0  0  0
 28 31  1  0  0  0  0
 29 26  1  6  0  0  0
 29 27  1  0  0  0  0
 29 32  1  0  0  0  0
 30 31  1  0  0  0  0
 30 33  1  1  0  0  0
 32 30  1  0  0  0  0
 34 33  1  0  0  0  0
 34 37  1  0  0  0  0
 35 34  2  0  0  0  0
 37 36  2  0  0  0  0
 39 44  2  0  0  0  0
 39 43  1  0  0  0  0
 40 38  1  0  0  0  0
 41 40  2  0  0  0  0
 42 44  1  6  0  0  0
 42 47  1  0  0  0  0
 42 41  1  0  0  0  0
 43 45  2  0  0  0  0
 45 41  1  0  0  0  0
 45 52  1  0  0  0  0
 46 47  1  0  0  0  0
 46 48  1  1  0  0  0
 47 48  1  1  0  0  0
 49 50  1  1  0  0  0
 49 46  1  0  0  0  0
 51 49  1  0  0  0  0
 51 50  1  0  0  0  0
 52 53  1  0  0  0  0
M  END
>  <MODEL>
6

>  <REMARK>
 VINA RESULT:      -6.0      4.405      9.470
  Name = 
  17 active torsions:
  status: ('A' for Active; 'I' for Inactive)
    1  A    between atoms: C_2  and  C_9
    2  A    between atoms: C_5  and  C_53
    3  A    between atoms: C_7  and  C_47
    4  A    between atoms: C_11  and  C_48
    5  A    between atoms: C_12  and  C_41
    6  A    between atoms: C_13  and  C_19
    7  A    between atoms: C_14  and  C_46
    8  A    between atoms: N_15  and  C_18
    9  A    between atoms: C_16  and  C_40
   10  A    between atoms: C_20  and  C_32
   11  A    between atoms: C_21  and  C_49
   12  A    between atoms: C_21  and  C_51
   13  A    between atoms: O_27  and  C_44
   14  A    between atoms: C_30  and  C_46
   15  A    between atoms: N_31  and  C_51
   16  A    between atoms: C_33  and  C_48
   17  A    between atoms: C_41  and  C_49
                            x       y       z     vdW  Elec       q    Type
                         _______ _______ _______ _____ _____    ______ ____

>  <TORSDO>
F 17

$$$$
=
 OpenBabel10232409313D

 53 58  0  0  1  0  0  0  0  0999 V2000
  186.7690  178.2660  139.9900 C   0  0  0  0  0  3  0  0  0  0  0  0
  188.9830  178.9720  138.3060 C   0  0  0  0  0  2  0  0  0  0  0  0
  189.2580  178.1990  139.5950 C   0  0  1  0  0  3  0  0  0  0  0  0
  188.1270  178.5090  140.5860 C   0  0  2  0  0  3  0  0  0  0  0  0
  187.6500  178.5560  137.6740 C   0  0  0  0  0  2  0  0  0  0  0  0
  186.5310  178.3530  138.6760 C   0  0  0  0  0  0  0  0  0  0  0  0
  184.9100  177.4800  137.0600 C   0  0  0  0  0  3  0  0  0  0  0  0
  185.1630  178.0960  138.2100 C   0  0  0  0  0  3  0  0  0  0  0  0
  183.5380  177.2210  136.6190 C   0  0  0  0  0  0  0  0  0  0  0  0
  183.1420  176.0540  136.0780 N   0  0  0  0  0  0  0  0  0  0  0  0
  182.5490  178.0750  136.7090 O   0  0  0  0  0  0  0  0  0  0  0  0
  181.8320  176.2990  135.8610 C   0  0  0  0  0  0  0  0  0  0  0  0
  181.4640  177.5360  136.2470 N   0  0  0  0  0  0  0  0  0  0  0  0
  180.9080  175.3150  135.2890 C   0  0  0  0  0  0  0  0  0  0  0  0
  179.9820  175.6950  134.5210 O   0  0  0  0  0  0  0  0  0  0  0  0
  181.0620  173.9260  135.6000 N   0  0  0  0  0  2  0  0  0  0  0  0
  180.2430  172.8930  134.9810 C   0  0  0  0  0  2  0  0  0  0  0  0
  180.6440  171.5170  135.4970 C   0  0  2  0  0  3  0  0  0  0  0  0
  180.0660  171.2990  136.8850 C   0  0  0  0  0  1  0  0  0  0  0  0
  182.6950  171.4380  134.3460 O   0  0  0  0  0  0  0  0  0  0  0  0
  182.1450  171.3330  135.4300 C   0  0  0  0  0  0  0  0  0  0  0  0
  183.6560  169.8090  136.4840 O   0  0  0  0  0  1  0  0  0  0  0  0
  182.9960  171.0300  136.6330 C   0  0  1  0  0  3  0  0  0  0  0  0
  183.9660  172.1040  136.8800 C   0  0  0  0  0  0  0  0  0  0  0  0
  184.7280  172.9520  137.0750 N   0  0  0  0  0  0  0  0  0  0  0  0
  189.4090  176.6920  139.3320 C   0  0  0  0  0  2  0  0  0  0  0  0
  189.2340  175.5030  137.1840 N   0  0  0  0  0  2  0  0  0  0  0  0
  189.8300  175.3780  135.8550 C   0  0  0  0  0  2  0  0  0  0  0  0
  190.0820  176.3790  137.9970 C   0  0  2  0  0  3  0  0  0  0  0  0
  192.1180  175.5120  136.8360 C   0  0  1  0  0  3  0  0  0  0  0  0
  191.1890  174.6870  135.9510 C   0  0  0  0  0  2  0  0  0  0  0  0
  191.4660  175.7570  138.1950 C   0  0  0  0  0  2  0  0  0  0  0  0
  193.3790  174.8070  137.0070 N   0  0  0  0  0  2  0  0  0  0  0  0
  194.6430  175.4720  137.0090 C   0  0  0  0  0  0  0  0  0  0  0  0
  194.7100  176.7210  136.8360 O   0  0  0  0  0  0  0  0  0  0  0  0
  195.8340  173.5780  137.8020 O   0  0  0  0  0  0  0  0  0  0  0  0
  195.8630  174.6880  137.2030 C   0  0  0  0  0  3  0  0  0  0  0  0
  188.2730  177.7740  141.9130 C   0  0  0  0  0  2  0  0  0  0  0  0
  186.7090  177.2890  146.7620 C   0  0  0  0  0  3  0  0  0  0  0  0
  187.0180  177.8910  142.7180 C   0  0  0  0  0  3  0  0  0  0  0  0
  186.9670  177.9030  144.0550 C   0  0  0  0  0  0  0  0  0  0  0  0
  185.6200  178.0400  144.7130 C   0  0  1  0  0  3  0  0  0  0  0  0
  188.0020  177.5510  146.1980 N   0  0  0  0  0  0  0  0  0  0  0  0
  185.6240  177.4760  146.0670 N   0  0  0  0  0  0  0  0  0  0  0  0
  188.1610  177.8340  144.9370 C   0  0  0  0  0  0  0  0  0  0  0  0
  183.9630  179.8870  144.0880 C   0  0  1  0  0  3  0  0  0  0  0  0
  185.2200  179.5190  144.7790 C   0  0  2  0  0  3  0  0  0  0  0  0
  185.2610  180.1100  143.4300 N   0  0  0  0  0  2  0  0  0  0  0  0
  183.2320  178.7500  143.3830 C   0  0  2  0  0  3  0  0  0  0  0  0
  182.0350  179.2760  142.6890 C   0  0  0  0  0  2  0  0  0  0  0  0
  181.9410  178.6280  143.9350 O   0  0  0  0  0  0  0  0  0  0  0  0
  189.4420  178.0760  144.4280 O   0  0  0  0  0  0  0  0  0  0  0  0
  190.6160  177.5730  145.0530 C   0  0  0  0  0  1  0  0  0  0  0  0
  1  4  1  0  0  0  0
  2  3  1  0  0  0  0
  3 26  1  6  0  0  0
  3  4  1  0  0  0  0
  4 38  1  1  0  0  0
  5  2  1  0  0  0  0
  5  6  1  0  0  0  0
  6  1  2  0  0  0  0
  7  8  2  0  0  0  0
  8  6  1  0  0  0  0
  9 11  1  0  0  0  0
  9  7  1  0  0  0  0
 10  9  2  0  0  0  0
 12 10  1  0  0  0  0
 12 13  2  0  0  0  0
 13 11  1  0  0  0  0
 14 16  1  0  0  0  0
 14 12  1  0  0  0  0
 15 14  2  0  0  0  0
 17 18  1  0  0  0  0
 17 16  1  0  0  0  0
 18 19  1  1  0  0  0
 20 21  2  0  0  0  0
 21 18  1  0  0  0  0
 21 23  1  0  0  0  0
 23 22  1  6  0  0  0
 23 24  1  0  0  0  0
 24 25  3  0  0  0  0
 27 29  1  0  0  0  0
 28 31  1  0  0  0  0
 28 27  1  0  0  0  0
 29 32  1  0  0  0  0
 29 26  1  1  0  0  0
 30 33  1  1  0  0  0
 30 32  1  0  0  0  0
 31 30  1  0  0  0  0
 33 34  1  0  0  0  0
 34 37  1  0  0  0  0
 35 34  2  0  0  0  0
 37 36  2  0  0  0  0
 38 40  1  0  0  0  0
 40 41  2  0  0  0  0
 41 45  1  0  0  0  0
 42 41  1  1  0  0  0
 42 47  1  0  0  0  0
 42 44  1  0  0  0  0
 43 39  1  0  0  0  0
 44 39  2  0  0  0  0
 45 43  2  0  0  0  0
 46 48  1  6  0  0  0
 46 47  1  0  0  0  0
 47 48  1  6  0  0  0
 49 50  1  6  0  0  0
 49 51  1  0  0  0  0
 49 46  1  0  0  0  0
 50 51  1  0  0  0  0
 52 45  1  0  0  0  0
 52 53  1  0  0  0  0
M  END
>  <MODEL>
7

>  <REMARK>
 VINA RESULT:      -5.9      2.892      9.932
  Name = 
  17 active torsions:
  status: ('A' for Active; 'I' for Inactive)
    1  A    between atoms: C_2  and  C_9
    2  A    between atoms: C_5  and  C_53
    3  A    between atoms: C_7  and  C_47
    4  A    between atoms: C_11  and  C_48
    5  A    between atoms: C_12  and  C_41
    6  A    between atoms: C_13  and  C_19
    7  A    between atoms: C_14  and  C_46
    8  A    between atoms: N_15  and  C_18
    9  A    between atoms: C_16  and  C_40
   10  A    between atoms: C_20  and  C_32
   11  A    between atoms: C_21  and  C_49
   12  A    between atoms: C_21  and  C_51
   13  A    between atoms: O_27  and  C_44
   14  A    between atoms: C_30  and  C_46
   15  A    between atoms: N_31  and  C_51
   16  A    between atoms: C_33  and  C_48
   17  A    between atoms: C_41  and  C_49
                            x       y       z     vdW  Elec       q    Type
                         _______ _______ _______ _____ _____    ______ ____

>  <TORSDO>
F 17

$$$$
=
 OpenBabel10232409313D

 53 58  0  0  1  0  0  0  0  0999 V2000
  187.0060  177.9330  138.1240 C   0  0  0  0  0  3  0  0  0  0  0  0
  184.2740  178.8000  138.2740 C   0  0  0  0  0  2  0  0  0  0  0  0
  184.6730  177.8170  137.1730 C   0  0  1  0  0  3  0  0  0  0  0  0
  186.1670  178.0140  136.8790 C   0  0  2  0  0  3  0  0  0  0  0  0
  185.0640  178.5530  139.5640 C   0  0  0  0  0  2  0  0  0  0  0  0
  186.5300  178.2420  139.3360 C   0  0  0  0  0  0  0  0  0  0  0  0
  188.7200  177.7780  140.3350 C   0  0  0  0  0  3  0  0  0  0  0  0
  187.4440  178.1250  140.4790 C   0  0  0  0  0  3  0  0  0  0  0  0
  189.6180  177.6800  141.4860 C   0  0  0  0  0  0  0  0  0  0  0  0
  189.1870  177.5680  142.7550 N   0  0  0  0  0  0  0  0  0  0  0  0
  190.9270  177.6750  141.4160 O   0  0  0  0  0  0  0  0  0  0  0  0
  190.3580  177.4960  143.4240 C   0  0  0  0  0  0  0  0  0  0  0  0
  191.4270  177.5610  142.6070 N   0  0  0  0  0  0  0  0  0  0  0  0
  190.4520  177.3410  144.8780 C   0  0  0  0  0  0  0  0  0  0  0  0
  191.5460  177.5710  145.4650 O   0  0  0  0  0  0  0  0  0  0  0  0
  189.3030  176.9330  145.6280 N   0  0  0  0  0  2  0  0  0  0  0  0
  189.3060  176.8640  147.0840 C   0  0  0  0  0  2  0  0  0  0  0  0
  188.4300  177.9640  147.6700 C   0  0  2  0  0  3  0  0  0  0  0  0
  188.0210  177.5960  149.0870 C   0  0  0  0  0  1  0  0  0  0  0  0
  187.4010  178.1060  145.5580 O   0  0  0  0  0  0  0  0  0  0  0  0
  187.2580  178.2610  146.7600 C   0  0  0  0  0  0  0  0  0  0  0  0
  186.0380  179.9680  147.9060 O   0  0  0  0  0  1  0  0  0  0  0  0
  185.9210  178.7350  147.2600 C   0  0  1  0  0  3  0  0  0  0  0  0
  184.9470  178.8270  146.1650 C   0  0  0  0  0  0  0  0  0  0  0  0
  184.1780  178.8980  145.3040 N   0  0  0  0  0  0  0  0  0  0  0  0
  184.3390  176.3670  137.5590 C   0  0  0  0  0  2  0  0  0  0  0  0
  182.5030  175.9010  139.1310 N   0  0  0  0  0  2  0  0  0  0  0  0
  181.0470  175.8480  139.2600 C   0  0  0  0  0  2  0  0  0  0  0  0
  182.8410  176.1180  137.7220 C   0  0  2  0  0  3  0  0  0  0  0  0
  180.8600  174.7640  137.0220 C   0  0  1  0  0  3  0  0  0  0  0  0
  180.4970  174.6430  138.4990 C   0  0  0  0  0  2  0  0  0  0  0  0
  182.3690  174.9390  136.8670 C   0  0  0  0  0  2  0  0  0  0  0  0
  180.4210  173.5720  136.3140 N   0  0  0  0  0  2  0  0  0  0  0  0
  181.1240  172.3300  136.3790 C   0  0  0  0  0  0  0  0  0  0  0  0
  182.1880  172.2310  137.0520 O   0  0  0  0  0  0  0  0  0  0  0  0
  181.3830  170.3630  135.0780 O   0  0  0  0  0  0  0  0  0  0  0  0
  180.6040  171.1750  135.6470 C   0  0  0  0  0  3  0  0  0  0  0  0
  186.6980  177.0690  135.8080 C   0  0  0  0  0  2  0  0  0  0  0  0
  188.6870  172.3690  136.1870 C   0  0  0  0  0  3  0  0  0  0  0  0
  187.9530  176.4020  136.2740 C   0  0  0  0  0  3  0  0  0  0  0  0
  188.2660  175.1210  136.0460 C   0  0  0  0  0  0  0  0  0  0  0  0
  189.5780  174.6060  136.5750 C   0  0  1  0  0  3  0  0  0  0  0  0
  187.6500  172.9020  135.3520 N   0  0  0  0  0  0  0  0  0  0  0  0
  189.5430  173.1540  136.7770 N   0  0  0  0  0  0  0  0  0  0  0  0
  187.4210  174.1810  135.2670 C   0  0  0  0  0  0  0  0  0  0  0  0
  192.0310  175.2300  136.1990 C   0  0  1  0  0  3  0  0  0  0  0  0
  190.7070  174.9570  135.5960 C   0  0  2  0  0  3  0  0  0  0  0  0
  191.1480  176.3450  135.8170 N   0  0  0  0  0  2  0  0  0  0  0  0
  192.1030  175.1460  137.7200 C   0  0  2  0  0  3  0  0  0  0  0  0
  192.9040  176.2730  138.2490 C   0  0  0  0  0  2  0  0  0  0  0  0
  193.4490  174.9830  138.1030 O   0  0  0  0  0  0  0  0  0  0  0  0
  186.3930  174.6550  134.4440 O   0  0  0  0  0  0  0  0  0  0  0  0
  185.0690  174.1420  134.5070 C   0  0  0  0  0  1  0  0  0  0  0  0
  1  6  2  0  0  0  0
  2  5  1  0  0  0  0
  3 26  1  1  0  0  0
  3  2  1  0  0  0  0
  4 38  1  6  0  0  0
  4  3  1  0  0  0  0
  4  1  1  0  0  0  0
  6  5  1  0  0  0  0
  6  8  1  0  0  0  0
  7  8  2  0  0  0  0
  7  9  1  0  0  0  0
  9 10  2  0  0  0  0
 10 12  1  0  0  0  0
 11  9  1  0  0  0  0
 11 13  1  0  0  0  0
 12 14  1  0  0  0  0
 13 12  2  0  0  0  0
 14 15  2  0  0  0  0
 14 16  1  0  0  0  0
 16 17  1  0  0  0  0
 17 18  1  0  0  0  0
 18 19  1  1  0  0  0
 20 21  2  0  0  0  0
 21 23  1  0  0  0  0
 21 18  1  0  0  0  0
 23 22  1  6  0  0  0
 24 23  1  0  0  0  0
 25 24  3  0  0  0  0
 27 28  1  0  0  0  0
 29 26  1  1  0  0  0
 29 27  1  0  0  0  0
 30 33  1  6  0  0  0
 30 31  1  0  0  0  0
 31 28  1  0  0  0  0
 32 30  1  0  0  0  0
 32 29  1  0  0  0  0
 33 34  1  0  0  0  0
 34 35  2  0  0  0  0
 36 37  2  0  0  0  0
 37 34  1  0  0  0  0
 38 40  1  0  0  0  0
 39 44  2  0  0  0  0
 41 40  2  0  0  0  0
 42 41  1  6  0  0  0
 42 44  1  0  0  0  0
 43 39  1  0  0  0  0
 45 43  2  0  0  0  0
 45 41  1  0  0  0  0
 46 48  1  1  0  0  0
 46 49  1  0  0  0  0
 47 48  1  1  0  0  0
 47 46  1  0  0  0  0
 47 42  1  0  0  0  0
 49 51  1  0  0  0  0
 49 50  1  1  0  0  0
 51 50  1  0  0  0  0
 52 53  1  0  0  0  0
 52 45  1  0  0  0  0
M  END
>  <MODEL>
8

>  <REMARK>
 VINA RESULT:      -5.8      2.193      4.516
  Name = 
  17 active torsions:
  status: ('A' for Active; 'I' for Inactive)
    1  A    between atoms: C_2  and  C_9
    2  A    between atoms: C_5  and  C_53
    3  A    between atoms: C_7  and  C_47
    4  A    between atoms: C_11  and  C_48
    5  A    between atoms: C_12  and  C_41
    6  A    between atoms: C_13  and  C_19
    7  A    between atoms: C_14  and  C_46
    8  A    between atoms: N_15  and  C_18
    9  A    between atoms: C_16  and  C_40
   10  A    between atoms: C_20  and  C_32
   11  A    between atoms: C_21  and  C_49
   12  A    between atoms: C_21  and  C_51
   13  A    between atoms: O_27  and  C_44
   14  A    between atoms: C_30  and  C_46
   15  A    between atoms: N_31  and  C_51
   16  A    between atoms: C_33  and  C_48
   17  A    between atoms: C_41  and  C_49
                            x       y       z     vdW  Elec       q    Type
                         _______ _______ _______ _____ _____    ______ ____

>  <TORSDO>
F 17

$$$$
=
 OpenBabel10232409313D

 53 58  0  0  1  0  0  0  0  0999 V2000
  187.8930  178.1060  138.2510 C   0  0  0  0  0  3  0  0  0  0  0  0
  185.1140  178.8220  138.2810 C   0  0  0  0  0  2  0  0  0  0  0  0
  185.6520  178.0140  137.0990 C   0  0  1  0  0  3  0  0  0  0  0  0
  187.1510  178.3160  136.9610 C   0  0  2  0  0  3  0  0  0  0  0  0
  185.8140  178.4380  139.5900 C   0  0  0  0  0  2  0  0  0  0  0  0
  187.3080  178.2270  139.4490 C   0  0  0  0  0  0  0  0  0  0  0  0
  189.4240  177.6820  140.5580 C   0  0  0  0  0  3  0  0  0  0  0  0
  188.1350  177.9980  140.6400 C   0  0  0  0  0  3  0  0  0  0  0  0
  190.2350  177.4710  141.7580 C   0  0  0  0  0  0  0  0  0  0  0  0
  189.7760  177.6690  143.0070 N   0  0  0  0  0  0  0  0  0  0  0  0
  191.4790  177.0580  141.7570 O   0  0  0  0  0  0  0  0  0  0  0  0
  190.8600  177.3340  143.7400 C   0  0  0  0  0  0  0  0  0  0  0  0
  191.9060  176.9590  142.9780 N   0  0  0  0  0  0  0  0  0  0  0  0
  190.8850  177.3560  145.2050 C   0  0  0  0  0  0  0  0  0  0  0  0
  191.9820  177.2310  145.8160 O   0  0  0  0  0  0  0  0  0  0  0  0
  189.6670  177.5230  145.9370 N   0  0  0  0  0  2  0  0  0  0  0  0
  189.6410  177.6580  147.3880 C   0  0  0  0  0  2  0  0  0  0  0  0
  188.2520  178.0700  147.8580 C   0  0  2  0  0  3  0  0  0  0  0  0
  187.8580  177.2540  149.0780 C   0  0  0  0  0  1  0  0  0  0  0  0
  187.5470  177.3330  145.7370 O   0  0  0  0  0  0  0  0  0  0  0  0
  187.2530  177.9860  146.7250 C   0  0  0  0  0  0  0  0  0  0  0  0
  185.9770  179.8760  147.4460 O   0  0  0  0  0  1  0  0  0  0  0  0
  185.9100  178.6650  146.7530 C   0  0  1  0  0  3  0  0  0  0  0  0
  185.3990  178.8860  145.3950 C   0  0  0  0  0  0  0  0  0  0  0  0
  184.9960  179.0570  144.3240 N   0  0  0  0  0  0  0  0  0  0  0  0
  185.3700  176.5120  137.2630 C   0  0  0  0  0  2  0  0  0  0  0  0
  183.2350  176.8740  136.0930 N   0  0  0  0  0  2  0  0  0  0  0  0
  181.8650  176.3790  135.9610 C   0  0  0  0  0  2  0  0  0  0  0  0
  183.8830  176.1680  137.2010 C   0  0  2  0  0  3  0  0  0  0  0  0
  181.7090  176.0670  138.4290 C   0  0  1  0  0  3  0  0  0  0  0  0
  181.0600  176.7210  137.2130 C   0  0  0  0  0  2  0  0  0  0  0  0
  183.1770  176.4770  138.5230 C   0  0  0  0  0  2  0  0  0  0  0  0
  181.0000  176.4720  139.6340 N   0  0  0  0  0  2  0  0  0  0  0  0
  180.9110  177.8320  140.0600 C   0  0  0  0  0  0  0  0  0  0  0  0
  181.4780  178.7480  139.4010 O   0  0  0  0  0  0  0  0  0  0  0  0
  179.9850  179.3490  141.6310 O   0  0  0  0  0  0  0  0  0  0  0  0
  180.1660  178.1530  141.2770 C   0  0  0  0  0  3  0  0  0  0  0  0
  187.8150  177.5490  135.8250 C   0  0  0  0  0  2  0  0  0  0  0  0
  189.6240  172.7950  136.3910 C   0  0  0  0  0  3  0  0  0  0  0  0
  189.0470  176.8540  136.3120 C   0  0  0  0  0  3  0  0  0  0  0  0
  189.3090  175.5530  136.1370 C   0  0  0  0  0  0  0  0  0  0  0  0
  190.6030  175.0100  136.6800 C   0  0  1  0  0  3  0  0  0  0  0  0
  188.6030  173.3330  135.5390 N   0  0  0  0  0  0  0  0  0  0  0  0
  190.5130  173.5700  136.9430 N   0  0  0  0  0  0  0  0  0  0  0  0
  188.4230  174.6150  135.4010 C   0  0  0  0  0  0  0  0  0  0  0  0
  193.1110  175.2600  136.2370 C   0  0  1  0  0  3  0  0  0  0  0  0
  191.7380  175.2760  135.6830 C   0  0  2  0  0  3  0  0  0  0  0  0
  192.4150  176.5390  136.0200 N   0  0  0  0  0  2  0  0  0  0  0  0
  193.2230  175.0000  137.7360 C   0  0  2  0  0  3  0  0  0  0  0  0
  194.6470  174.8910  138.1230 C   0  0  0  0  0  2  0  0  0  0  0  0
  193.8440  173.7510  137.9350 O   0  0  0  0  0  0  0  0  0  0  0  0
  187.4090  175.0940  134.5640 O   0  0  0  0  0  0  0  0  0  0  0  0
  186.1290  174.4800  134.4900 C   0  0  0  0  0  1  0  0  0  0  0  0
  1  6  2  0  0  0  0
  2  5  1  0  0  0  0
  3 26  1  1  0  0  0
  3  2  1  0  0  0  0
  4 38  1  6  0  0  0
  4  3  1  0  0  0  0
  4  1  1  0  0  0  0
  6  5  1  0  0  0  0
  6  8  1  0  0  0  0
  7  8  2  0  0  0  0
  7  9  1  0  0  0  0
  9 10  2  0  0  0  0
 10 12  1  0  0  0  0
 11  9  1  0  0  0  0
 11 13  1  0  0  0  0
 12 14  1  0  0  0  0
 13 12  2  0  0  0  0
 14 15  2  0  0  0  0
 14 16  1  0  0  0  0
 16 17  1  0  0  0  0
 17 18  1  0  0  0  0
 18 19  1  1  0  0  0
 20 21  2  0  0  0  0
 21 23  1  0  0  0  0
 21 18  1  0  0  0  0
 23 22  1  6  0  0  0
 24 23  1  0  0  0  0
 25 24  3  0  0  0  0
 27 29  1  0  0  0  0
 28 27  1  0  0  0  0
 28 31  1  0  0  0  0
 29 26  1  1  0  0  0
 29 32  1  0  0  0  0
 30 32  1  0  0  0  0
 30 33  1  1  0  0  0
 31 30  1  0  0  0  0
 33 34  1  0  0  0  0
 34 37  1  0  0  0  0
 35 34  2  0  0  0  0
 37 36  2  0  0  0  0
 38 40  1  0  0  0  0
 39 44  2  0  0  0  0
 41 40  2  0  0  0  0
 42 41  1  6  0  0  0
 42 44  1  0  0  0  0
 43 39  1  0  0  0  0
 45 43  2  0  0  0  0
 45 41  1  0  0  0  0
 46 48  1  1  0  0  0
 46 49  1  0  0  0  0
 47 48  1  1  0  0  0
 47 46  1  0  0  0  0
 47 42  1  0  0  0  0
 49 51  1  0  0  0  0
 49 50  1  1  0  0  0
 51 50  1  0  0  0  0
 52 45  1  0  0  0  0
 53 52  1  0  0  0  0
M  END
>  <MODEL>
9

>  <REMARK>
 VINA RESULT:      -5.8      2.596      5.305
  Name = 
  17 active torsions:
  status: ('A' for Active; 'I' for Inactive)
    1  A    between atoms: C_2  and  C_9
    2  A    between atoms: C_5  and  C_53
    3  A    between atoms: C_7  and  C_47
    4  A    between atoms: C_11  and  C_48
    5  A    between atoms: C_12  and  C_41
    6  A    between atoms: C_13  and  C_19
    7  A    between atoms: C_14  and  C_46
    8  A    between atoms: N_15  and  C_18
    9  A    between atoms: C_16  and  C_40
   10  A    between atoms: C_20  and  C_32
   11  A    between atoms: C_21  and  C_49
   12  A    between atoms: C_21  and  C_51
   13  A    between atoms: O_27  and  C_44
   14  A    between atoms: C_30  and  C_46
   15  A    between atoms: N_31  and  C_51
   16  A    between atoms: C_33  and  C_48
   17  A    between atoms: C_41  and  C_49
                            x       y       z     vdW  Elec       q    Type
                         _______ _______ _______ _____ _____    ______ ____

>  <TORSDO>
F 17

$$$$
