=
 OpenBabel10232409043D

 57 62  0  0  1  0  0  0  0  0999 V2000
  191.0670  176.4890  140.0340 N   0  0  0  0  0  2  0  0  0  0  0  0
  188.9540  176.5380  139.0180 C   0  0  1  0  0  3  0  0  0  0  0  0
  187.9160  177.3590  138.4080 N   0  0  0  0  0  0  0  0  0  0  0  0
  190.0200  176.2890  138.0300 C   0  0  1  0  0  3  0  0  0  0  0  0
  187.4970  177.0420  137.2100 C   0  0  0  0  0  0  0  0  0  0  0  0
  191.1040  175.7520  138.8250 N   0  0  0  0  0  2  0  0  0  0  0  0
  188.2130  176.0390  136.4470 N   0  0  0  0  0  2  0  0  0  0  0  0
  189.4150  175.3710  136.9820 C   0  0  1  0  0  3  0  0  0  0  0  0
  189.7590  177.1650  140.1110 C   0  0  1  0  0  3  0  0  0  0  0  0
  188.9970  178.2320  142.2490 C   0  0  0  0  0  2  0  0  0  0  0  0
  190.4800  176.7650  143.3290 N   0  0  0  0  0  0  0  0  0  0  0  0
  190.0370  178.1290  143.3600 C   0  0  2  0  0  3  0  0  0  0  0  0
  189.1090  176.9220  141.4730 C   0  0  2  0  0  3  0  0  0  0  0  0
  190.0090  176.1100  142.3390 C   0  0  0  0  0  3  0  0  0  0  0  0
  189.4140  178.4430  144.7100 C   0  0  0  0  0  2  0  0  0  0  0  0
  186.8270  178.2670  146.6240 N   0  0  0  0  0  0  0  0  0  0  0  0
  188.8280  176.9130  146.5710 C   0  0  0  0  0  2  0  0  0  0  0  0
  187.0310  177.7490  145.2730 C   0  0  2  0  0  3  0  0  0  0  0  0
  187.9310  177.7700  147.4440 C   0  0  0  0  0  2  0  0  0  0  0  0
  188.4880  177.3090  145.1560 C   0  0  1  0  0  3  0  0  0  0  0  0
  184.4930  178.6050  146.8620 O   0  0  0  0  0  1  0  0  0  0  0  0
  185.5620  177.7520  147.1560 C   0  0  0  0  0  2  0  0  0  0  0  0
  186.5730  178.7690  144.2240 C   0  0  0  0  0  2  0  0  0  0  0  0
  184.1840  179.1920  143.8630 O   0  0  0  0  0  0  0  0  0  0  0  0
  185.2710  178.3830  143.5090 C   0  0  1  0  0  3  0  0  0  0  0  0
  185.3280  178.2650  141.9950 C   0  0  1  0  0  3  0  0  0  0  0  0
  183.8850  178.4260  141.6180 C   0  0  2  0  0  3  0  0  0  0  0  0
  183.2100  178.9400  142.8790 C   0  0  0  0  0  2  0  0  0  0  0  0
  183.3480  177.1840  141.2800 O   0  0  0  0  0  1  0  0  0  0  0  0
  186.1200  179.3840  141.3340 C   0  0  0  0  0  1  0  0  0  0  0  0
  185.0970  177.6240  137.2500 C   0  0  0  0  0  3  0  0  0  0  0  0
  186.1120  177.3800  135.1730 C   0  0  0  0  0  3  0  0  0  0  0  0
  184.2390  177.1130  136.3840 C   0  0  0  0  0  0  0  0  0  0  0  0
  184.8610  176.9560  135.0810 C   0  0  0  0  0  3  0  0  0  0  0  0
  186.4070  177.8530  136.5640 C   0  0  2  0  0  3  0  0  0  0  0  0
  182.4490  176.7930  137.8960 O   0  0  0  0  0  0  0  0  0  0  0  0
  182.8530  176.7480  136.7040 C   0  0  0  0  0  0  0  0  0  0  0  0
  181.9540  176.3510  135.6720 N   0  0  0  0  0  1  0  0  0  0  0  0
  190.4110  175.1180  135.8660 C   0  0  0  0  0  2  0  0  0  0  0  0
  190.2650  173.7010  135.3460 C   0  0  0  0  0  2  0  0  0  0  0  0
  191.3930  172.8470  135.8920 C   0  0  0  0  0  2  0  0  0  0  0  0
  192.2260  172.2620  134.7620 C   0  0  0  0  0  2  0  0  0  0  0  0
  194.4990  171.6520  135.1270 O   0  0  0  0  0  0  0  0  0  0  0  0
  194.1300  173.9340  134.7920 N   0  0  0  0  0  2  0  0  0  0  0  0
  193.6780  172.5850  134.9160 C   0  0  0  0  0  0  0  0  0  0  0  0
  195.5360  174.2850  134.9020 C   0  0  0  0  0  2  0  0  0  0  0  0
  195.7600  175.0750  136.1820 C   0  0  0  0  0  2  0  0  0  0  0  0
  196.4980  174.2700  137.2520 C   0  0  2  0  0  3  0  0  0  0  0  0
  195.6820  174.0360  138.4880 C   0  0  0  0  0  0  0  0  0  0  0  0
  195.2590  175.1000  139.2780 O   0  0  0  0  0  1  0  0  0  0  0  0
  195.3710  172.8610  138.8100 O   0  0  0  0  0  0  0  0  0  0  0  0
  197.9410  174.7490  137.4930 C   0  0  2  0  0  3  0  0  0  0  0  0
  198.9450  174.2120  136.5150 C   0  0  0  0  0  0  0  0  0  0  0  0
  200.0130  174.8440  136.3110 O   0  0  0  0  0  1  0  0  0  0  0  0
  198.7220  173.0090  135.8560 O   0  0  0  0  0  0  0  0  0  0  0  0
  198.3620  174.7090  138.8400 O   0  0  0  0  0  0  0  0  0  0  0  0
  198.4490  175.9570  139.2630 O   0  0  0  0  0  1  0  0  0  0  0  0
  2  3  1  6  0  0  0
  2  9  1  0  0  0  0
  4  6  1  1  0  0  0
  4  2  1  0  0  0  0
  5  3  2  0  0  0  0
  6  1  1  0  0  0  0
  7  8  1  0  0  0  0
  7  5  1  0  0  0  0
  8 39  1  6  0  0  0
  8  4  1  0  0  0  0
  9  1  1  1  0  0  0
  9 13  1  0  0  0  0
 10 12  1  0  0  0  0
 11 12  1  0  0  0  0
 12 15  1  1  0  0  0
 13 10  1  1  0  0  0
 13 14  1  0  0  0  0
 14 11  2  0  0  0  0
 16 22  1  0  0  0  0
 16 19  1  0  0  0  0
 17 19  1  0  0  0  0
 18 23  1  6  0  0  0
 18 16  1  0  0  0  0
 20 15  1  1  0  0  0
 20 18  1  0  0  0  0
 20 17  1  0  0  0  0
 21 22  1  0  0  0  0
 25 24  1  0  0  0  0
 25 23  1  6  0  0  0
 26 30  1  6  0  0  0
 26 25  1  0  0  0  0
 27 29  1  1  0  0  0
 27 26  1  0  0  0  0
 27 28  1  0  0  0  0
 28 24  1  0  0  0  0
 32 35  1  0  0  0  0
 33 37  1  0  0  0  0
 33 31  2  0  0  0  0
 34 32  2  0  0  0  0
 34 33  1  0  0  0  0
 35  5  1  1  0  0  0
 35 31  1  0  0  0  0
 37 36  2  0  0  0  0
 38 37  1  0  0  0  0
 40 39  1  0  0  0  0
 40 41  1  0  0  0  0
 42 45  1  0  0  0  0
 42 41  1  0  0  0  0
 44 46  1  0  0  0  0
 44 45  1  0  0  0  0
 45 43  2  0  0  0  0
 46 47  1  0  0  0  0
 48 47  1  6  0  0  0
 48 52  1  0  0  0  0
 48 49  1  0  0  0  0
 49 51  2  0  0  0  0
 49 50  1  0  0  0  0
 52 53  1  6  0  0  0
 52 56  1  0  0  0  0
 54 53  1  0  0  0  0
 55 53  2  0  0  0  0
 56 57  1  0  0  0  0
M  END
>  <MODEL>
1

>  <REMARK>
 VINA RESULT:      -7.0      0.000      0.000
  Name = 
  20 active torsions:
  status: ('A' for Active; 'I' for Inactive)
    1  A    between atoms: C_2  and  C_10
    2  A    between atoms: C_2  and  C_29
    3  A    between atoms: C_2  and  C_51
    4  A    between atoms: N_3  and  C_31
    5  A    between atoms: N_4  and  C_36
    6  A    between atoms: O_7  and  C_51
    7  A    between atoms: C_8  and  C_51
    8  A    between atoms: C_13  and  C_52
    9  A    between atoms: C_13  and  C_55
   10  A    between atoms: C_14  and  C_38
   11  A    between atoms: C_16  and  C_38
   12  A    between atoms: C_21  and  C_41
   13  A    between atoms: C_24  and  C_39
   14  A    between atoms: C_24  and  C_53
   15  A    between atoms: C_29  and  C_31
   16  A    between atoms: C_33  and  C_40
   17  A    between atoms: C_33  and  C_57
   18  A    between atoms: C_35  and  C_47
   19  A    between atoms: C_39  and  C_52
   20  A    between atoms: C_48  and  C_54
                            x       y       z     vdW  Elec       q    Type
                         _______ _______ _______ _____ _____    ______ ____

>  <TORSDO>
F 20

$$$$
=
 OpenBabel10232409043D

 57 62  0  0  1  0  0  0  0  0999 V2000
  187.4530  178.8580  138.0470 N   0  0  0  0  0  2  0  0  0  0  0  0
  189.1320  177.3110  137.5130 C   0  0  1  0  0  3  0  0  0  0  0  0
  190.4710  177.1050  136.9740 N   0  0  0  0  0  0  0  0  0  0  0  0
  189.2350  177.7530  138.9150 C   0  0  1  0  0  3  0  0  0  0  0  0
  191.3390  176.4480  137.6990 C   0  0  0  0  0  0  0  0  0  0  0  0
  187.9000  178.2150  139.2280 N   0  0  0  0  0  2  0  0  0  0  0  0
  191.0240  176.1380  139.0800 N   0  0  0  0  0  2  0  0  0  0  0  0
  189.7510  176.5570  139.6960 C   0  0  1  0  0  3  0  0  0  0  0  0
  188.3400  178.4440  136.9440 C   0  0  1  0  0  3  0  0  0  0  0  0
  186.4880  176.9400  136.1700 C   0  0  0  0  0  2  0  0  0  0  0  0
  188.0780  175.9790  134.7320 N   0  0  0  0  0  0  0  0  0  0  0  0
  187.0020  175.6180  135.6080 C   0  0  2  0  0  3  0  0  0  0  0  0
  187.5170  177.9830  135.7400 C   0  0  2  0  0  3  0  0  0  0  0  0
  188.3720  177.2210  134.7890 C   0  0  0  0  0  3  0  0  0  0  0  0
  185.9110  174.9070  134.8250 C   0  0  0  0  0  2  0  0  0  0  0  0
  184.1710  172.9040  136.6560 N   0  0  0  0  0  0  0  0  0  0  0  0
  186.5670  173.1480  136.4450 C   0  0  0  0  0  2  0  0  0  0  0  0
  184.5520  172.7970  135.2490 C   0  0  2  0  0  3  0  0  0  0  0  0
  185.4010  173.1300  137.4160 C   0  0  0  0  0  2  0  0  0  0  0  0
  185.9450  173.4010  135.0940 C   0  0  1  0  0  3  0  0  0  0  0  0
  183.7180  170.6370  136.1340 O   0  0  0  0  0  1  0  0  0  0  0  0
  183.5610  171.6450  137.0920 C   0  0  0  0  0  2  0  0  0  0  0  0
  183.4740  173.4080  134.3460 C   0  0  0  0  0  2  0  0  0  0  0  0
  182.3060  175.5640  134.4400 O   0  0  0  0  0  0  0  0  0  0  0  0
  182.4990  174.3360  135.0850 C   0  0  1  0  0  3  0  0  0  0  0  0
  181.1450  173.7530  135.4570 C   0  0  1  0  0  3  0  0  0  0  0  0
  180.3140  174.9900  135.6320 C   0  0  2  0  0  3  0  0  0  0  0  0
  181.1530  176.1080  135.0360 C   0  0  0  0  0  2  0  0  0  0  0  0
  180.1190  175.2330  136.9920 O   0  0  0  0  0  1  0  0  0  0  0  0
  180.5260  172.9180  134.3460 C   0  0  0  0  0  1  0  0  0  0  0  0
  192.6830  175.1780  136.0610 C   0  0  0  0  0  3  0  0  0  0  0  0
  193.5970  175.5230  138.1710 C   0  0  0  0  0  3  0  0  0  0  0  0
  193.4120  174.1340  136.4150 C   0  0  0  0  0  0  0  0  0  0  0  0
  193.9900  174.3370  137.7320 C   0  0  0  0  0  3  0  0  0  0  0  0
  192.7190  176.1950  137.1580 C   0  0  2  0  0  3  0  0  0  0  0  0
  193.8520  173.0470  134.3620 O   0  0  0  0  0  0  0  0  0  0  0  0
  193.6000  172.9340  135.5910 C   0  0  0  0  0  0  0  0  0  0  0  0
  193.5090  171.6360  136.1720 N   0  0  0  0  0  1  0  0  0  0  0  0
  189.9740  176.9340  141.1490 C   0  0  0  0  0  2  0  0  0  0  0  0
  191.3720  177.4930  141.3360 C   0  0  0  0  0  2  0  0  0  0  0  0
  191.8670  177.1480  142.7270 C   0  0  0  0  0  2  0  0  0  0  0  0
  191.5860  178.2850  143.6990 C   0  0  0  0  0  2  0  0  0  0  0  0
  191.2720  177.2970  145.8430 O   0  0  0  0  0  0  0  0  0  0  0  0
  189.3200  178.0620  144.8110 N   0  0  0  0  0  2  0  0  0  0  0  0
  190.7310  177.8400  144.8420 C   0  0  0  0  0  0  0  0  0  0  0  0
  188.4590  177.6760  145.9160 C   0  0  0  0  0  2  0  0  0  0  0  0
  187.0840  177.3120  145.3800 C   0  0  0  0  0  2  0  0  0  0  0  0
  186.1560  178.5220  145.2600 C   0  0  2  0  0  3  0  0  0  0  0  0
  185.4910  178.8900  146.5530 C   0  0  0  0  0  0  0  0  0  0  0  0
  184.3920  178.1750  147.0200 O   0  0  0  0  0  0  0  0  0  0  0  0
  185.9360  179.8540  147.2250 O   0  0  0  0  0  1  0  0  0  0  0  0
  185.2310  178.4660  144.0320 C   0  0  2  0  0  3  0  0  0  0  0  0
  185.9380  178.6120  142.7150 C   0  0  0  0  0  0  0  0  0  0  0  0
  186.7840  177.7490  142.3660 O   0  0  0  0  0  1  0  0  0  0  0  0
  185.6450  179.6710  141.8650 O   0  0  0  0  0  0  0  0  0  0  0  0
  184.0490  179.2300  144.1450 O   0  0  0  0  0  0  0  0  0  0  0  0
  183.1850  178.7500  143.2690 O   0  0  0  0  0  1  0  0  0  0  0  0
  1  6  1  0  0  0  0
  2  3  1  6  0  0  0
  2  4  1  0  0  0  0
  3  5  2  0  0  0  0
  4  6  1  1  0  0  0
  4  8  1  0  0  0  0
  5  7  1  0  0  0  0
  7  8  1  0  0  0  0
  8 39  1  1  0  0  0
  9  2  1  0  0  0  0
  9  1  1  1  0  0  0
 11 14  2  0  0  0  0
 11 12  1  0  0  0  0
 12 15  1  6  0  0  0
 12 10  1  0  0  0  0
 13 14  1  6  0  0  0
 13 10  1  0  0  0  0
 13  9  1  0  0  0  0
 16 22  1  0  0  0  0
 16 19  1  0  0  0  0
 17 19  1  0  0  0  0
 18 23  1  6  0  0  0
 18 16  1  0  0  0  0
 20 15  1  1  0  0  0
 20 18  1  0  0  0  0
 20 17  1  0  0  0  0
 21 22  1  0  0  0  0
 24 28  1  0  0  0  0
 24 25  1  0  0  0  0
 25 23  1  6  0  0  0
 25 26  1  0  0  0  0
 26 30  1  6  0  0  0
 26 27  1  0  0  0  0
 27 29  1  1  0  0  0
 28 27  1  0  0  0  0
 31 33  2  0  0  0  0
 31 35  1  0  0  0  0
 33 34  1  0  0  0  0
 34 32  2  0  0  0  0
 35  5  1  1  0  0  0
 35 32  1  0  0  0  0
 36 37  2  0  0  0  0
 37 38  1  0  0  0  0
 37 33  1  0  0  0  0
 39 40  1  0  0  0  0
 40 41  1  0  0  0  0
 41 42  1  0  0  0  0
 42 45  1  0  0  0  0
 44 45  1  0  0  0  0
 44 46  1  0  0  0  0
 45 43  2  0  0  0  0
 47 46  1  0  0  0  0
 48 47  1  1  0  0  0
 48 49  1  0  0  0  0
 49 50  2  0  0  0  0
 49 51  1  0  0  0  0
 52 53  1  6  0  0  0
 52 56  1  0  0  0  0
 52 48  1  0  0  0  0
 54 53  1  0  0  0  0
 55 53  2  0  0  0  0
 57 56  1  0  0  0  0
M  END
>  <MODEL>
2

>  <REMARK>
 VINA RESULT:      -6.9      2.764     10.476
  Name = 
  20 active torsions:
  status: ('A' for Active; 'I' for Inactive)
    1  A    between atoms: C_2  and  C_10
    2  A    between atoms: C_2  and  C_29
    3  A    between atoms: C_2  and  C_51
    4  A    between atoms: N_3  and  C_31
    5  A    between atoms: N_4  and  C_36
    6  A    between atoms: O_7  and  C_51
    7  A    between atoms: C_8  and  C_51
    8  A    between atoms: C_13  and  C_52
    9  A    between atoms: C_13  and  C_55
   10  A    between atoms: C_14  and  C_38
   11  A    between atoms: C_16  and  C_38
   12  A    between atoms: C_21  and  C_41
   13  A    between atoms: C_24  and  C_39
   14  A    between atoms: C_24  and  C_53
   15  A    between atoms: C_29  and  C_31
   16  A    between atoms: C_33  and  C_40
   17  A    between atoms: C_33  and  C_57
   18  A    between atoms: C_35  and  C_47
   19  A    between atoms: C_39  and  C_52
   20  A    between atoms: C_48  and  C_54
                            x       y       z     vdW  Elec       q    Type
                         _______ _______ _______ _____ _____    ______ ____

>  <TORSDO>
F 20

$$$$
=
 OpenBabel10232409043D

 57 62  0  0  1  0  0  0  0  0999 V2000
  192.0030  176.8040  139.3680 N   0  0  0  0  0  2  0  0  0  0  0  0
  189.7710  176.4630  138.7340 C   0  0  1  0  0  3  0  0  0  0  0  0
  188.5100  177.0800  138.3420 N   0  0  0  0  0  0  0  0  0  0  0  0
  190.6740  176.4210  137.5690 C   0  0  1  0  0  3  0  0  0  0  0  0
  187.9520  176.6960  137.2230 C   0  0  0  0  0  0  0  0  0  0  0  0
  191.9600  176.0910  138.1450 N   0  0  0  0  0  2  0  0  0  0  0  0
  188.6930  175.8460  136.3120 N   0  0  0  0  0  2  0  0  0  0  0  0
  190.0710  175.4120  136.6070 C   0  0  1  0  0  3  0  0  0  0  0  0
  190.6280  177.2240  139.6940 C   0  0  1  0  0  3  0  0  0  0  0  0
  189.5380  178.0070  141.8130 C   0  0  0  0  0  2  0  0  0  0  0  0
  191.6310  177.6790  142.8290 N   0  0  0  0  0  0  0  0  0  0  0  0
  190.5360  178.6050  142.8000 C   0  0  2  0  0  3  0  0  0  0  0  0
  190.2840  176.8580  141.1380 C   0  0  2  0  0  3  0  0  0  0  0  0
  191.5230  176.7520  141.9560 C   0  0  0  0  0  3  0  0  0  0  0  0
  189.9180  178.7220  144.1840 C   0  0  0  0  0  2  0  0  0  0  0  0
  188.8100  177.5530  146.9760 N   0  0  0  0  0  0  0  0  0  0  0  0
  190.3380  176.5860  145.3730 C   0  0  0  0  0  2  0  0  0  0  0  0
  188.1950  177.5560  145.6510 C   0  0  2  0  0  3  0  0  0  0  0  0
  190.1420  176.9650  146.8280 C   0  0  0  0  0  2  0  0  0  0  0  0
  189.3060  177.3880  144.6180 C   0  0  1  0  0  3  0  0  0  0  0  0
  187.5560  177.4460  148.9850 O   0  0  0  0  0  1  0  0  0  0  0  0
  188.0130  176.7190  147.8800 C   0  0  0  0  0  2  0  0  0  0  0  0
  187.3160  178.7980  145.4620 C   0  0  0  0  0  2  0  0  0  0  0  0
  185.0090  178.9260  146.2900 O   0  0  0  0  0  0  0  0  0  0  0  0
  185.8300  178.4790  145.2460 C   0  0  1  0  0  3  0  0  0  0  0  0
  185.2210  178.9080  143.9210 C   0  0  1  0  0  3  0  0  0  0  0  0
  183.7590  178.9540  144.2520 C   0  0  2  0  0  3  0  0  0  0  0  0
  183.7030  178.8780  145.7690 C   0  0  0  0  0  2  0  0  0  0  0  0
  183.1210  177.8380  143.7100 O   0  0  0  0  0  1  0  0  0  0  0  0
  185.6540  180.2990  143.4830 C   0  0  0  0  0  1  0  0  0  0  0  0
  186.2630  178.4350  137.6980 C   0  0  0  0  0  3  0  0  0  0  0  0
  185.4980  176.3430  137.0320 C   0  0  0  0  0  3  0  0  0  0  0  0
  185.1230  178.1560  138.3050 C   0  0  0  0  0  0  0  0  0  0  0  0
  184.6340  176.8510  137.8970 C   0  0  0  0  0  3  0  0  0  0  0  0
  186.6360  177.2930  136.8060 C   0  0  2  0  0  3  0  0  0  0  0  0
  184.3690  180.2760  139.0300 O   0  0  0  0  0  0  0  0  0  0  0  0
  184.4540  179.0420  139.2650 C   0  0  0  0  0  0  0  0  0  0  0  0
  183.8890  178.5150  140.4630 N   0  0  0  0  0  1  0  0  0  0  0  0
  190.8850  175.3530  135.3280 C   0  0  0  0  0  2  0  0  0  0  0  0
  191.1840  173.9110  134.9640 C   0  0  0  0  0  2  0  0  0  0  0  0
  192.0190  173.2800  136.0620 C   0  0  0  0  0  2  0  0  0  0  0  0
  192.8590  172.1360  135.5140 C   0  0  0  0  0  2  0  0  0  0  0  0
  195.0490  171.5380  136.2320 O   0  0  0  0  0  0  0  0  0  0  0  0
  194.8940  173.5990  135.1440 N   0  0  0  0  0  2  0  0  0  0  0  0
  194.3230  172.3980  135.6660 C   0  0  0  0  0  0  0  0  0  0  0  0
  196.3170  173.8760  135.2410 C   0  0  0  0  0  2  0  0  0  0  0  0
  196.5620  174.8650  136.3710 C   0  0  0  0  0  2  0  0  0  0  0  0
  197.7360  174.4640  137.2640 C   0  0  2  0  0  3  0  0  0  0  0  0
  198.4560  173.2390  136.7840 C   0  0  0  0  0  0  0  0  0  0  0  0
  199.4520  173.3280  135.8160 O   0  0  0  0  0  0  0  0  0  0  0  0
  198.1580  172.1180  137.2670 O   0  0  0  0  0  1  0  0  0  0  0  0
  197.4000  174.4880  138.7660 C   0  0  2  0  0  3  0  0  0  0  0  0
  195.9430  174.3120  139.0790 C   0  0  0  0  0  0  0  0  0  0  0  0
  195.4340  173.1630  139.0410 O   0  0  0  0  0  0  0  0  0  0  0  0
  195.1580  175.4000  139.4420 O   0  0  0  0  0  1  0  0  0  0  0  0
  198.0330  175.5160  139.4980 O   0  0  0  0  0  0  0  0  0  0  0  0
  198.3490  175.0220  140.6810 O   0  0  0  0  0  1  0  0  0  0  0  0
  2  3  1  6  0  0  0
  2  9  1  0  0  0  0
  4  6  1  1  0  0  0
  4  2  1  0  0  0  0
  5  3  2  0  0  0  0
  6  1  1  0  0  0  0
  7  8  1  0  0  0  0
  7  5  1  0  0  0  0
  8 39  1  6  0  0  0
  8  4  1  0  0  0  0
  9  1  1  6  0  0  0
  9 13  1  0  0  0  0
 10 12  1  0  0  0  0
 12 11  1  0  0  0  0
 12 15  1  1  0  0  0
 13 10  1  1  0  0  0
 13 14  1  0  0  0  0
 14 11  2  0  0  0  0
 16 22  1  0  0  0  0
 17 19  1  0  0  0  0
 18 23  1  6  0  0  0
 18 16  1  0  0  0  0
 19 16  1  0  0  0  0
 20 15  1  1  0  0  0
 20 17  1  0  0  0  0
 20 18  1  0  0  0  0
 22 21  1  0  0  0  0
 25 23  1  1  0  0  0
 25 24  1  0  0  0  0
 26 30  1  1  0  0  0
 26 27  1  0  0  0  0
 26 25  1  0  0  0  0
 27 29  1  6  0  0  0
 27 28  1  0  0  0  0
 28 24  1  0  0  0  0
 31 33  2  0  0  0  0
 32 34  2  0  0  0  0
 33 37  1  0  0  0  0
 34 33  1  0  0  0  0
 35 32  1  0  0  0  0
 35  5  1  1  0  0  0
 35 31  1  0  0  0  0
 36 37  2  0  0  0  0
 37 38  1  0  0  0  0
 40 39  1  0  0  0  0
 40 41  1  0  0  0  0
 42 45  1  0  0  0  0
 42 41  1  0  0  0  0
 44 46  1  0  0  0  0
 44 45  1  0  0  0  0
 45 43  2  0  0  0  0
 46 47  1  0  0  0  0
 48 47  1  6  0  0  0
 48 52  1  0  0  0  0
 49 48  1  0  0  0  0
 49 51  1  0  0  0  0
 50 49  2  0  0  0  0
 52 53  1  6  0  0  0
 52 56  1  0  0  0  0
 53 55  1  0  0  0  0
 54 53  2  0  0  0  0
 56 57  1  0  0  0  0
M  END
>  <MODEL>
3

>  <REMARK>
 VINA RESULT:      -6.6      1.566      2.412
  Name = 
  20 active torsions:
  status: ('A' for Active; 'I' for Inactive)
    1  A    between atoms: C_2  and  C_10
    2  A    between atoms: C_2  and  C_29
    3  A    between atoms: C_2  and  C_51
    4  A    between atoms: N_3  and  C_31
    5  A    between atoms: N_4  and  C_36
    6  A    between atoms: O_7  and  C_51
    7  A    between atoms: C_8  and  C_51
    8  A    between atoms: C_13  and  C_52
    9  A    between atoms: C_13  and  C_55
   10  A    between atoms: C_14  and  C_38
   11  A    between atoms: C_16  and  C_38
   12  A    between atoms: C_21  and  C_41
   13  A    between atoms: C_24  and  C_39
   14  A    between atoms: C_24  and  C_53
   15  A    between atoms: C_29  and  C_31
   16  A    between atoms: C_33  and  C_40
   17  A    between atoms: C_33  and  C_57
   18  A    between atoms: C_35  and  C_47
   19  A    between atoms: C_39  and  C_52
   20  A    between atoms: C_48  and  C_54
                            x       y       z     vdW  Elec       q    Type
                         _______ _______ _______ _____ _____    ______ ____

>  <TORSDO>
F 20

$$$$
=
 OpenBabel10232409043D

 57 62  0  0  1  0  0  0  0  0999 V2000
  181.5720  177.2560  139.3880 N   0  0  0  0  0  2  0  0  0  0  0  0
  183.7650  176.9760  138.6040 C   0  0  1  0  0  3  0  0  0  0  0  0
  184.7210  177.2510  137.5390 N   0  0  0  0  0  0  0  0  0  0  0  0
  183.6520  178.1610  139.4730 C   0  0  1  0  0  3  0  0  0  0  0  0
  185.8570  177.8170  137.8540 C   0  0  0  0  0  0  0  0  0  0  0  0
  182.4790  177.8870  140.2750 N   0  0  0  0  0  2  0  0  0  0  0  0
  186.0430  178.3450  139.1920 N   0  0  0  0  0  2  0  0  0  0  0  0
  184.9770  178.2720  140.2070 C   0  0  1  0  0  3  0  0  0  0  0  0
  182.3330  176.8130  138.2050 C   0  0  1  0  0  3  0  0  0  0  0  0
  183.0330  174.8020  136.8800 C   0  0  0  0  0  2  0  0  0  0  0  0
  180.8880  174.8780  135.9230 N   0  0  0  0  0  0  0  0  0  0  0  0
  182.2620  174.6640  135.5710 C   0  0  2  0  0  3  0  0  0  0  0  0
  182.0210  175.3510  137.8830 C   0  0  2  0  0  3  0  0  0  0  0  0
  180.7370  175.2480  137.1370 C   0  0  0  0  0  3  0  0  0  0  0  0
  182.4380  173.2720  134.9870 C   0  0  0  0  0  2  0  0  0  0  0  0
  183.6410  170.2820  134.9360 N   0  0  0  0  0  0  0  0  0  0  0  0
  181.8600  171.2290  136.2680 C   0  0  0  0  0  2  0  0  0  0  0  0
  184.1270  171.4770  135.6240 C   0  0  2  0  0  3  0  0  0  0  0  0
  182.2380  170.1120  135.3130 C   0  0  0  0  0  2  0  0  0  0  0  0
  182.9120  172.2910  136.0620 C   0  0  1  0  0  3  0  0  0  0  0  0
  183.6220  168.2560  136.1660 O   0  0  0  0  0  1  0  0  0  0  0  0
  184.4060  169.1170  135.3890 C   0  0  0  0  0  2  0  0  0  0  0  0
  185.1360  172.2340  134.7520 C   0  0  0  0  0  2  0  0  0  0  0  0
  187.4610  171.4600  134.6310 O   0  0  0  0  0  0  0  0  0  0  0  0
  186.5570  172.2660  135.3330 C   0  0  1  0  0  3  0  0  0  0  0  0
  187.1790  173.6350  135.5490 C   0  0  1  0  0  3  0  0  0  0  0  0
  188.6430  173.3080  135.5800 C   0  0  2  0  0  3  0  0  0  0  0  0
  188.7320  171.8830  135.0600 C   0  0  0  0  0  2  0  0  0  0  0  0
  189.1040  173.3500  136.8960 O   0  0  0  0  0  1  0  0  0  0  0  0
  186.9310  174.5970  134.3960 C   0  0  0  0  0  1  0  0  0  0  0  0
  187.9440  177.0400  136.7860 C   0  0  0  0  0  3  0  0  0  0  0  0
  187.6640  179.3310  137.0650 C   0  0  0  0  0  3  0  0  0  0  0  0
  189.1100  177.6130  137.0310 C   0  0  0  0  0  0  0  0  0  0  0  0
  188.9490  179.0450  137.2070 C   0  0  0  0  0  3  0  0  0  0  0  0
  186.8760  178.0880  136.7810 C   0  0  2  0  0  3  0  0  0  0  0  0
  191.0320  176.8890  138.2020 O   0  0  0  0  0  0  0  0  0  0  0  0
  190.3870  176.8930  137.1210 C   0  0  0  0  0  0  0  0  0  0  0  0
  190.9000  176.1870  135.9940 N   0  0  0  0  0  1  0  0  0  0  0  0
  184.9960  179.5180  141.0730 C   0  0  0  0  0  2  0  0  0  0  0  0
  185.1560  179.1380  142.5330 C   0  0  0  0  0  2  0  0  0  0  0  0
  183.8100  179.2330  143.2260 C   0  0  0  0  0  2  0  0  0  0  0  0
  183.8720  178.6190  144.6170 C   0  0  0  0  0  2  0  0  0  0  0  0
  185.4070  179.5350  146.1900 O   0  0  0  0  0  0  0  0  0  0  0  0
  186.3160  177.9600  144.7250 N   0  0  0  0  0  2  0  0  0  0  0  0
  185.2330  178.7480  145.2210 C   0  0  0  0  0  0  0  0  0  0  0  0
  187.6460  178.0310  145.3070 C   0  0  0  0  0  2  0  0  0  0  0  0
  188.3880  176.7320  145.0300 C   0  0  0  0  0  2  0  0  0  0  0  0
  189.8670  176.9520  144.7090 C   0  0  2  0  0  3  0  0  0  0  0  0
  190.7500  176.9010  145.9190 C   0  0  0  0  0  0  0  0  0  0  0  0
  191.9900  176.2720  145.8740 O   0  0  0  0  0  0  0  0  0  0  0  0
  190.3660  177.4400  146.9880 O   0  0  0  0  0  1  0  0  0  0  0  0
  190.1180  178.1320  143.7540 C   0  0  2  0  0  3  0  0  0  0  0  0
  189.6810  177.8910  142.3390 C   0  0  0  0  0  0  0  0  0  0  0  0
  190.3010  177.0560  141.6310 O   0  0  0  0  0  0  0  0  0  0  0  0
  188.5800  178.5550  141.8120 O   0  0  0  0  0  1  0  0  0  0  0  0
  191.3900  178.7320  143.8760 O   0  0  0  0  0  0  0  0  0  0  0  0
  191.2000  179.9990  144.1980 O   0  0  0  0  0  1  0  0  0  0  0  0
  1  6  1  0  0  0  0
  2  3  1  6  0  0  0
  2  4  1  0  0  0  0
  3  5  2  0  0  0  0
  4  8  1  0  0  0  0
  4  6  1  1  0  0  0
  5  7  1  0  0  0  0
  7  8  1  0  0  0  0
  8 39  1  6  0  0  0
  9  2  1  0  0  0  0
  9  1  1  1  0  0  0
 11 14  2  0  0  0  0
 12 15  1  1  0  0  0
 12 11  1  0  0  0  0
 12 10  1  0  0  0  0
 13 10  1  6  0  0  0
 13  9  1  0  0  0  0
 14 13  1  0  0  0  0
 16 19  1  0  0  0  0
 16 22  1  0  0  0  0
 16 18  1  0  0  0  0
 18 23  1  6  0  0  0
 18 20  1  0  0  0  0
 19 17  1  0  0  0  0
 20 15  1  6  0  0  0
 20 17  1  0  0  0  0
 22 21  1  0  0  0  0
 24 28  1  0  0  0  0
 24 25  1  0  0  0  0
 25 23  1  6  0  0  0
 25 26  1  0  0  0  0
 26 30  1  6  0  0  0
 26 27  1  0  0  0  0
 27 29  1  1  0  0  0
 28 27  1  0  0  0  0
 31 33  2  0  0  0  0
 32 34  2  0  0  0  0
 33 37  1  0  0  0  0
 33 34  1  0  0  0  0
 35 31  1  0  0  0  0
 35 32  1  0  0  0  0
 35  5  1  1  0  0  0
 37 36  2  0  0  0  0
 38 37  1  0  0  0  0
 39 40  1  0  0  0  0
 40 41  1  0  0  0  0
 41 42  1  0  0  0  0
 42 45  1  0  0  0  0
 44 45  1  0  0  0  0
 44 46  1  0  0  0  0
 45 43  2  0  0  0  0
 47 46  1  0  0  0  0
 48 47  1  1  0  0  0
 48 49  1  0  0  0  0
 49 51  1  0  0  0  0
 50 49  2  0  0  0  0
 52 53  1  6  0  0  0
 52 56  1  0  0  0  0
 52 48  1  0  0  0  0
 54 53  2  0  0  0  0
 55 53  1  0  0  0  0
 56 57  1  0  0  0  0
M  END
>  <MODEL>
4

>  <REMARK>
 VINA RESULT:      -6.6      4.125     10.390
  Name = 
  20 active torsions:
  status: ('A' for Active; 'I' for Inactive)
    1  A    between atoms: C_2  and  C_10
    2  A    between atoms: C_2  and  C_29
    3  A    between atoms: C_2  and  C_51
    4  A    between atoms: N_3  and  C_31
    5  A    between atoms: N_4  and  C_36
    6  A    between atoms: O_7  and  C_51
    7  A    between atoms: C_8  and  C_51
    8  A    between atoms: C_13  and  C_52
    9  A    between atoms: C_13  and  C_55
   10  A    between atoms: C_14  and  C_38
   11  A    between atoms: C_16  and  C_38
   12  A    between atoms: C_21  and  C_41
   13  A    between atoms: C_24  and  C_39
   14  A    between atoms: C_24  and  C_53
   15  A    between atoms: C_29  and  C_31
   16  A    between atoms: C_33  and  C_40
   17  A    between atoms: C_33  and  C_57
   18  A    between atoms: C_35  and  C_47
   19  A    between atoms: C_39  and  C_52
   20  A    between atoms: C_48  and  C_54
                            x       y       z     vdW  Elec       q    Type
                         _______ _______ _______ _____ _____    ______ ____

>  <TORSDO>
F 20

$$$$
=
 OpenBabel10232409043D

 57 62  0  0  1  0  0  0  0  0999 V2000
  191.1940  175.9390  138.1000 N   0  0  0  0  0  2  0  0  0  0  0  0
  188.9100  176.2320  137.6580 C   0  0  1  0  0  3  0  0  0  0  0  0
  187.9050  176.8560  136.8060 N   0  0  0  0  0  0  0  0  0  0  0  0
  189.4370  175.0300  136.9870 C   0  0  1  0  0  3  0  0  0  0  0  0
  187.0020  176.0920  136.2480 C   0  0  0  0  0  0  0  0  0  0  0  0
  190.6110  174.6920  137.7630 N   0  0  0  0  0  2  0  0  0  0  0  0
  187.1500  174.6510  136.3120 N   0  0  0  0  0  2  0  0  0  0  0  0
  188.3030  174.0200  136.9800 C   0  0  1  0  0  3  0  0  0  0  0  0
  190.1820  176.9870  137.8700 C   0  0  1  0  0  3  0  0  0  0  0  0
  190.8540  177.3200  140.2630 C   0  0  0  0  0  2  0  0  0  0  0  0
  188.5540  177.3560  140.7420 N   0  0  0  0  0  0  0  0  0  0  0  0
  189.7920  176.8330  141.2440 C   0  0  2  0  0  3  0  0  0  0  0  0
  190.0740  177.9040  139.0880 C   0  0  2  0  0  3  0  0  0  0  0  0
  188.6770  177.9210  139.6030 C   0  0  0  0  0  3  0  0  0  0  0  0
  190.0590  177.3760  142.6380 C   0  0  0  0  0  2  0  0  0  0  0  0
  191.3500  176.7420  145.5220 N   0  0  0  0  0  0  0  0  0  0  0  0
  190.9670  175.2920  143.6270 C   0  0  0  0  0  2  0  0  0  0  0  0
  189.9470  176.8230  145.1200 C   0  0  2  0  0  3  0  0  0  0  0  0
  192.0040  175.8060  144.6080 C   0  0  0  0  0  2  0  0  0  0  0  0
  189.8390  176.2910  143.6940 C   0  0  1  0  0  3  0  0  0  0  0  0
  192.7360  176.3030  147.3950 O   0  0  0  0  0  1  0  0  0  0  0  0
  191.4340  176.2180  146.8880 C   0  0  0  0  0  2  0  0  0  0  0  0
  189.4030  178.2420  145.3270 C   0  0  0  0  0  2  0  0  0  0  0  0
  187.1990  177.2060  145.0320 O   0  0  0  0  0  0  0  0  0  0  0  0
  187.8900  178.2940  145.5790 C   0  0  1  0  0  3  0  0  0  0  0  0
  187.4400  178.4940  147.0170 C   0  0  1  0  0  3  0  0  0  0  0  0
  186.0360  177.9660  146.9780 C   0  0  2  0  0  3  0  0  0  0  0  0
  185.9350  177.2310  145.6510 C   0  0  0  0  0  2  0  0  0  0  0  0
  185.1350  179.0320  146.9850 O   0  0  0  0  0  1  0  0  0  0  0  0
  188.2320  177.6630  148.0150 C   0  0  0  0  0  1  0  0  0  0  0  0
  184.7860  177.1820  136.2190 C   0  0  0  0  0  3  0  0  0  0  0  0
  185.2760  175.6920  134.5030 C   0  0  0  0  0  3  0  0  0  0  0  0
  183.6930  176.5350  135.8550 C   0  0  0  0  0  0  0  0  0  0  0  0
  183.9850  175.6010  134.7830 C   0  0  0  0  0  3  0  0  0  0  0  0
  185.9350  176.7090  135.3850 C   0  0  2  0  0  3  0  0  0  0  0  0
  181.4640  175.8740  136.2890 O   0  0  0  0  0  0  0  0  0  0  0  0
  182.3700  176.7310  136.4620 C   0  0  0  0  0  0  0  0  0  0  0  0
  182.1040  177.8840  137.2570 N   0  0  0  0  0  1  0  0  0  0  0  0
  188.7180  172.7670  136.2330 C   0  0  0  0  0  2  0  0  0  0  0  0
  189.0540  173.1040  134.7920 C   0  0  0  0  0  2  0  0  0  0  0  0
  190.3190  172.3700  134.3890 C   0  0  0  0  0  2  0  0  0  0  0  0
  191.5070  173.3210  134.3460 C   0  0  0  0  0  2  0  0  0  0  0  0
  192.5500  171.8470  135.8980 O   0  0  0  0  0  0  0  0  0  0  0  0
  193.4230  174.0130  135.8520 N   0  0  0  0  0  2  0  0  0  0  0  0
  192.5060  173.0090  135.4130 C   0  0  0  0  0  0  0  0  0  0  0  0
  194.4320  173.7400  136.8620 C   0  0  0  0  0  2  0  0  0  0  0  0
  195.8060  174.0850  136.3080 C   0  0  0  0  0  2  0  0  0  0  0  0
  196.9410  173.6890  137.2530 C   0  0  2  0  0  3  0  0  0  0  0  0
  197.9370  174.7870  137.4770 C   0  0  0  0  0  0  0  0  0  0  0  0
  198.0330  175.4260  138.7100 O   0  0  0  0  0  1  0  0  0  0  0  0
  198.6990  175.1320  136.5390 O   0  0  0  0  0  0  0  0  0  0  0  0
  197.5400  172.3050  136.9470 C   0  0  2  0  0  3  0  0  0  0  0  0
  197.6320  171.9780  135.4840 C   0  0  0  0  0  0  0  0  0  0  0  0
  198.6870  172.2430  134.8540 O   0  0  0  0  0  1  0  0  0  0  0  0
  196.5760  171.3570  134.8280 O   0  0  0  0  0  0  0  0  0  0  0  0
  197.0430  171.2540  137.7480 O   0  0  0  0  0  0  0  0  0  0  0  0
  197.8040  170.1970  137.5300 O   0  0  0  0  0  1  0  0  0  0  0  0
  2  3  1  6  0  0  0
  2  9  1  0  0  0  0
  4  2  1  0  0  0  0
  4  6  1  1  0  0  0
  5  7  1  0  0  0  0
  5  3  2  0  0  0  0
  6  1  1  0  0  0  0
  7  8  1  0  0  0  0
  8 39  1  6  0  0  0
  8  4  1  0  0  0  0
  9  1  1  1  0  0  0
  9 13  1  0  0  0  0
 10 12  1  0  0  0  0
 11 12  1  0  0  0  0
 12 15  1  1  0  0  0
 13 14  1  1  0  0  0
 13 10  1  0  0  0  0
 14 11  2  0  0  0  0
 16 22  1  0  0  0  0
 17 20  1  0  0  0  0
 17 19  1  0  0  0  0
 18 23  1  6  0  0  0
 18 16  1  0  0  0  0
 19 16  1  0  0  0  0
 20 15  1  6  0  0  0
 20 18  1  0  0  0  0
 22 21  1  0  0  0  0
 24 25  1  0  0  0  0
 24 28  1  0  0  0  0
 25 23  1  1  0  0  0
 25 26  1  0  0  0  0
 26 30  1  1  0  0  0
 27 29  1  6  0  0  0
 27 26  1  0  0  0  0
 28 27  1  0  0  0  0
 32 34  2  0  0  0  0
 32 35  1  0  0  0  0
 33 31  2  0  0  0  0
 33 37  1  0  0  0  0
 34 33  1  0  0  0  0
 35 31  1  0  0  0  0
 35  5  1  1  0  0  0
 36 37  2  0  0  0  0
 37 38  1  0  0  0  0
 40 39  1  0  0  0  0
 41 40  1  0  0  0  0
 42 41  1  0  0  0  0
 42 45  1  0  0  0  0
 44 46  1  0  0  0  0
 45 44  1  0  0  0  0
 45 43  2  0  0  0  0
 47 46  1  0  0  0  0
 48 47  1  6  0  0  0
 48 49  1  0  0  0  0
 49 50  1  0  0  0  0
 51 49  2  0  0  0  0
 52 53  1  6  0  0  0
 52 48  1  0  0  0  0
 52 56  1  0  0  0  0
 54 53  1  0  0  0  0
 55 53  2  0  0  0  0
 57 56  1  0  0  0  0
M  END
>  <MODEL>
5

>  <REMARK>
 VINA RESULT:      -6.2      2.018      3.385
  Name = 
  20 active torsions:
  status: ('A' for Active; 'I' for Inactive)
    1  A    between atoms: C_2  and  C_10
    2  A    between atoms: C_2  and  C_29
    3  A    between atoms: C_2  and  C_51
    4  A    between atoms: N_3  and  C_31
    5  A    between atoms: N_4  and  C_36
    6  A    between atoms: O_7  and  C_51
    7  A    between atoms: C_8  and  C_51
    8  A    between atoms: C_13  and  C_52
    9  A    between atoms: C_13  and  C_55
   10  A    between atoms: C_14  and  C_38
   11  A    between atoms: C_16  and  C_38
   12  A    between atoms: C_21  and  C_41
   13  A    between atoms: C_24  and  C_39
   14  A    between atoms: C_24  and  C_53
   15  A    between atoms: C_29  and  C_31
   16  A    between atoms: C_33  and  C_40
   17  A    between atoms: C_33  and  C_57
   18  A    between atoms: C_35  and  C_47
   19  A    between atoms: C_39  and  C_52
   20  A    between atoms: C_48  and  C_54
                            x       y       z     vdW  Elec       q    Type
                         _______ _______ _______ _____ _____    ______ ____

>  <TORSDO>
F 20

$$$$
=
 OpenBabel10232409043D

 57 62  0  0  1  0  0  0  0  0999 V2000
  191.2440  176.6610  139.4670 N   0  0  0  0  0  2  0  0  0  0  0  0
  188.9320  176.8780  139.1420 C   0  0  1  0  0  3  0  0  0  0  0  0
  187.8470  177.7050  138.6270 N   0  0  0  0  0  0  0  0  0  0  0  0
  189.5670  176.1580  138.0240 C   0  0  1  0  0  3  0  0  0  0  0  0
  187.0160  177.1760  137.7670 C   0  0  0  0  0  0  0  0  0  0  0  0
  190.7870  175.6380  138.6010 N   0  0  0  0  0  2  0  0  0  0  0  0
  187.3160  175.8780  137.1930 N   0  0  0  0  0  2  0  0  0  0  0  0
  188.5440  175.1420  137.5440 C   0  0  1  0  0  3  0  0  0  0  0  0
  190.1230  177.5910  139.6970 C   0  0  1  0  0  3  0  0  0  0  0  0
  189.4290  176.6120  141.8990 C   0  0  0  0  0  2  0  0  0  0  0  0
  187.8260  178.3270  141.9810 N   0  0  0  0  0  0  0  0  0  0  0  0
  187.9780  176.9260  142.2500 C   0  0  2  0  0  3  0  0  0  0  0  0
  189.9480  177.8610  141.1920 C   0  0  2  0  0  3  0  0  0  0  0  0
  188.8500  178.8410  141.4170 C   0  0  0  0  0  3  0  0  0  0  0  0
  187.7080  176.6460  143.7190 C   0  0  0  0  0  2  0  0  0  0  0  0
  188.0090  177.5710  146.7920 N   0  0  0  0  0  0  0  0  0  0  0  0
  186.1530  177.8080  145.2620 C   0  0  0  0  0  2  0  0  0  0  0  0
  188.4650  178.2250  145.5670 C   0  0  2  0  0  3  0  0  0  0  0  0
  186.5810  177.2950  146.6240 C   0  0  0  0  0  2  0  0  0  0  0  0
  187.4340  177.9470  144.4770 C   0  0  1  0  0  3  0  0  0  0  0  0
  187.8770  177.8620  149.1410 O   0  0  0  0  0  1  0  0  0  0  0  0
  188.1930  178.4810  147.9260 C   0  0  0  0  0  2  0  0  0  0  0  0
  189.9000  177.8020  145.2280 C   0  0  0  0  0  2  0  0  0  0  0  0
  189.8170  176.1230  147.0150 O   0  0  0  0  0  0  0  0  0  0  0  0
  190.6190  177.0750  146.3720 C   0  0  1  0  0  3  0  0  0  0  0  0
  191.9660  176.4490  146.0480 C   0  0  1  0  0  3  0  0  0  0  0  0
  192.1000  175.4240  147.1350 C   0  0  2  0  0  3  0  0  0  0  0  0
  190.7160  175.3340  147.7560 C   0  0  0  0  0  2  0  0  0  0  0  0
  193.0080  175.8760  148.0940 O   0  0  0  0  0  1  0  0  0  0  0  0
  191.9850  175.7260  144.7090 C   0  0  0  0  0  1  0  0  0  0  0  0
  185.0900  178.6020  138.3620 C   0  0  0  0  0  3  0  0  0  0  0  0
  184.8360  177.1380  136.5740 C   0  0  0  0  0  3  0  0  0  0  0  0
  183.8470  178.1530  138.3160 C   0  0  0  0  0  0  0  0  0  0  0  0
  183.6750  177.2380  137.2030 C   0  0  0  0  0  3  0  0  0  0  0  0
  185.8700  177.9950  137.2390 C   0  0  2  0  0  3  0  0  0  0  0  0
  183.0950  178.8350  140.4520 O   0  0  0  0  0  0  0  0  0  0  0  0
  182.7940  178.5260  139.2690 C   0  0  0  0  0  0  0  0  0  0  0  0
  181.4280  178.5500  138.8640 N   0  0  0  0  0  1  0  0  0  0  0  0
  189.0710  174.3980  136.3310 C   0  0  0  0  0  2  0  0  0  0  0  0
  189.2890  175.3620  135.1800 C   0  0  0  0  0  2  0  0  0  0  0  0
  190.6520  175.1060  134.5650 C   0  0  0  0  0  2  0  0  0  0  0  0
  191.6310  176.2090  134.9400 C   0  0  0  0  0  2  0  0  0  0  0  0
  193.7120  176.4690  136.0670 O   0  0  0  0  0  0  0  0  0  0  0  0
  192.9120  174.2770  135.9620 N   0  0  0  0  0  2  0  0  0  0  0  0
  192.8160  175.6730  135.6770 C   0  0  0  0  0  0  0  0  0  0  0  0
  194.0310  173.7210  136.7040 C   0  0  0  0  0  2  0  0  0  0  0  0
  195.2160  173.5370  135.7690 C   0  0  0  0  0  2  0  0  0  0  0  0
  196.5240  173.2710  136.5150 C   0  0  2  0  0  3  0  0  0  0  0  0
  196.3640  172.3410  137.6800 C   0  0  0  0  0  0  0  0  0  0  0  0
  195.4780  172.6330  138.7120 O   0  0  0  0  0  1  0  0  0  0  0  0
  197.0360  171.2800  137.7200 O   0  0  0  0  0  0  0  0  0  0  0  0
  197.3410  174.5450  136.7920 C   0  0  2  0  0  3  0  0  0  0  0  0
  198.1540  174.5000  138.0530 C   0  0  0  0  0  0  0  0  0  0  0  0
  197.7240  175.0660  139.0900 O   0  0  0  0  0  1  0  0  0  0  0  0
  199.3610  173.8120  138.0950 O   0  0  0  0  0  0  0  0  0  0  0  0
  196.6390  175.7550  136.5960 O   0  0  0  0  0  0  0  0  0  0  0  0
  197.4130  176.5490  135.8790 O   0  0  0  0  0  1  0  0  0  0  0  0
  2  3  1  6  0  0  0
  2  9  1  0  0  0  0
  4  6  1  1  0  0  0
  4  2  1  0  0  0  0
  5  3  2  0  0  0  0
  6  1  1  0  0  0  0
  7  8  1  0  0  0  0
  7  5  1  0  0  0  0
  8 39  1  6  0  0  0
  8  4  1  0  0  0  0
  9  1  1  1  0  0  0
  9 13  1  0  0  0  0
 10 12  1  0  0  0  0
 11 12  1  0  0  0  0
 12 15  1  1  0  0  0
 13 14  1  6  0  0  0
 13 10  1  0  0  0  0
 14 11  2  0  0  0  0
 16 22  1  0  0  0  0
 17 19  1  0  0  0  0
 18 23  1  6  0  0  0
 18 16  1  0  0  0  0
 19 16  1  0  0  0  0
 20 15  1  1  0  0  0
 20 17  1  0  0  0  0
 20 18  1  0  0  0  0
 22 21  1  0  0  0  0
 24 28  1  0  0  0  0
 25 23  1  6  0  0  0
 25 24  1  0  0  0  0
 26 30  1  6  0  0  0
 26 25  1  0  0  0  0
 26 27  1  0  0  0  0
 27 28  1  0  0  0  0
 27 29  1  1  0  0  0
 32 34  2  0  0  0  0
 32 35  1  0  0  0  0
 33 31  2  0  0  0  0
 33 37  1  0  0  0  0
 34 33  1  0  0  0  0
 35  5  1  1  0  0  0
 35 31  1  0  0  0  0
 37 36  2  0  0  0  0
 38 37  1  0  0  0  0
 40 39  1  0  0  0  0
 41 42  1  0  0  0  0
 41 40  1  0  0  0  0
 42 45  1  0  0  0  0
 44 46  1  0  0  0  0
 45 44  1  0  0  0  0
 45 43  2  0  0  0  0
 47 46  1  0  0  0  0
 48 47  1  1  0  0  0
 48 52  1  0  0  0  0
 48 49  1  0  0  0  0
 49 51  2  0  0  0  0
 49 50  1  0  0  0  0
 52 56  1  1  0  0  0
 52 53  1  0  0  0  0
 53 55  2  0  0  0  0
 53 54  1  0  0  0  0
 57 56  1  0  0  0  0
M  END
>  <MODEL>
6

>  <REMARK>
 VINA RESULT:      -6.1      2.352      3.860
  Name = 
  20 active torsions:
  status: ('A' for Active; 'I' for Inactive)
    1  A    between atoms: C_2  and  C_10
    2  A    between atoms: C_2  and  C_29
    3  A    between atoms: C_2  and  C_51
    4  A    between atoms: N_3  and  C_31
    5  A    between atoms: N_4  and  C_36
    6  A    between atoms: O_7  and  C_51
    7  A    between atoms: C_8  and  C_51
    8  A    between atoms: C_13  and  C_52
    9  A    between atoms: C_13  and  C_55
   10  A    between atoms: C_14  and  C_38
   11  A    between atoms: C_16  and  C_38
   12  A    between atoms: C_21  and  C_41
   13  A    between atoms: C_24  and  C_39
   14  A    between atoms: C_24  and  C_53
   15  A    between atoms: C_29  and  C_31
   16  A    between atoms: C_33  and  C_40
   17  A    between atoms: C_33  and  C_57
   18  A    between atoms: C_35  and  C_47
   19  A    between atoms: C_39  and  C_52
   20  A    between atoms: C_48  and  C_54
                            x       y       z     vdW  Elec       q    Type
                         _______ _______ _______ _____ _____    ______ ____

>  <TORSDO>
F 20

$$$$
=
 OpenBabel10232409043D

 57 62  0  0  1  0  0  0  0  0999 V2000
  188.2220  178.1930  139.6900 N   0  0  0  0  0  2  0  0  0  0  0  0
  185.9500  178.4140  139.1550 C   0  0  1  0  0  3  0  0  0  0  0  0
  184.7000  177.7310  138.8470 N   0  0  0  0  0  0  0  0  0  0  0  0
  186.1600  178.4080  140.6140 C   0  0  1  0  0  3  0  0  0  0  0  0
  183.6420  178.0180  139.5600 C   0  0  0  0  0  0  0  0  0  0  0  0
  187.5400  178.8200  140.7620 N   0  0  0  0  0  2  0  0  0  0  0  0
  183.7860  178.8290  140.7540 N   0  0  0  0  0  2  0  0  0  0  0  0
  185.1010  179.3290  141.1950 C   0  0  1  0  0  3  0  0  0  0  0  0
  187.2130  177.7490  138.7110 C   0  0  1  0  0  3  0  0  0  0  0  0
  187.7510  176.9920  136.3810 C   0  0  0  0  0  2  0  0  0  0  0  0
  189.8210  178.0630  136.6770 N   0  0  0  0  0  0  0  0  0  0  0  0
  189.2510  176.8620  136.1380 C   0  0  2  0  0  3  0  0  0  0  0  0
  187.5990  178.2010  137.3020 C   0  0  2  0  0  3  0  0  0  0  0  0
  188.9700  178.7820  137.3010 C   0  0  0  0  0  3  0  0  0  0  0  0
  189.5480  176.7680  134.6510 C   0  0  0  0  0  2  0  0  0  0  0  0
  191.3140  174.8140  136.5080 N   0  0  0  0  0  0  0  0  0  0  0  0
  191.9700  176.2340  134.6660 C   0  0  0  0  0  2  0  0  0  0  0  0
  190.4940  174.5070  135.3390 C   0  0  2  0  0  3  0  0  0  0  0  0
  192.2310  175.8860  136.1190 C   0  0  0  0  0  2  0  0  0  0  0  0
  190.5940  175.6860  134.3750 C   0  0  1  0  0  3  0  0  0  0  0  0
  193.2770  173.9750  137.5400 O   0  0  0  0  0  1  0  0  0  0  0  0
  192.0920  173.6290  136.8810 C   0  0  0  0  0  2  0  0  0  0  0  0
  189.0680  174.1300  135.7580 C   0  0  0  0  0  2  0  0  0  0  0  0
  189.5780  171.8430  135.0310 O   0  0  0  0  0  0  0  0  0  0  0  0
  188.5720  172.8100  135.1530 C   0  0  1  0  0  3  0  0  0  0  0  0
  187.3510  172.1750  135.7990 C   0  0  1  0  0  3  0  0  0  0  0  0
  187.4810  170.7440  135.3650 C   0  0  2  0  0  3  0  0  0  0  0  0
  188.8930  170.6330  134.8140 C   0  0  0  0  0  2  0  0  0  0  0  0
  186.5660  170.4790  134.3460 O   0  0  0  0  0  1  0  0  0  0  0  0
  187.3870  172.2150  137.3190 C   0  0  0  0  0  1  0  0  0  0  0  0
  182.5100  175.8730  139.0950 C   0  0  0  0  0  3  0  0  0  0  0  0
  181.8180  177.7390  137.8940 C   0  0  0  0  0  3  0  0  0  0  0  0
  182.1570  175.5190  137.8720 C   0  0  0  0  0  0  0  0  0  0  0  0
  181.7220  176.6760  137.1110 C   0  0  0  0  0  3  0  0  0  0  0  0
  182.3310  177.3500  139.2480 C   0  0  2  0  0  3  0  0  0  0  0  0
  181.1640  173.4470  137.3140 O   0  0  0  0  0  0  0  0  0  0  0  0
  182.2110  174.1450  137.3560 C   0  0  0  0  0  0  0  0  0  0  0  0
  183.4400  173.5950  136.8910 N   0  0  0  0  0  1  0  0  0  0  0  0
  185.1780  179.3290  142.7100 C   0  0  0  0  0  2  0  0  0  0  0  0
  183.8060  179.0710  143.3030 C   0  0  0  0  0  2  0  0  0  0  0  0
  183.9590  178.6240  144.7450 C   0  0  0  0  0  2  0  0  0  0  0  0
  185.1590  179.2960  145.3950 C   0  0  0  0  0  2  0  0  0  0  0  0
  184.9510  177.8280  147.2580 O   0  0  0  0  0  0  0  0  0  0  0  0
  187.1450  178.3740  146.6700 N   0  0  0  0  0  2  0  0  0  0  0  0
  185.7300  178.4660  146.5000 C   0  0  0  0  0  0  0  0  0  0  0  0
  187.7400  177.5510  147.7100 C   0  0  0  0  0  2  0  0  0  0  0  0
  189.2480  177.7470  147.7070 C   0  0  0  0  0  2  0  0  0  0  0  0
  189.9340  177.0440  146.5350 C   0  0  2  0  0  3  0  0  0  0  0  0
  191.3220  176.5750  146.8550 C   0  0  0  0  0  0  0  0  0  0  0  0
  191.9950  177.0450  147.9790 O   0  0  0  0  0  1  0  0  0  0  0  0
  191.8820  175.7410  146.0990 O   0  0  0  0  0  0  0  0  0  0  0  0
  189.7790  177.7890  145.1970 C   0  0  2  0  0  3  0  0  0  0  0  0
  189.0960  176.9960  144.1210 C   0  0  0  0  0  0  0  0  0  0  0  0
  189.7290  176.0900  143.5210 O   0  0  0  0  0  0  0  0  0  0  0  0
  187.7640  177.2310  143.8020 O   0  0  0  0  0  1  0  0  0  0  0  0
  190.9310  178.4820  144.7680 O   0  0  0  0  0  0  0  0  0  0  0  0
  190.9750  178.3960  143.4510 O   0  0  0  0  0  1  0  0  0  0  0  0
  1  6  1  0  0  0  0
  2  3  1  1  0  0  0
  2  4  1  0  0  0  0
  3  5  2  0  0  0  0
  4  6  1  6  0  0  0
  4  8  1  0  0  0  0
  5  7  1  0  0  0  0
  7  8  1  0  0  0  0
  8 39  1  1  0  0  0
  9  2  1  0  0  0  0
  9  1  1  1  0  0  0
 11 14  2  0  0  0  0
 12 15  1  6  0  0  0
 12 10  1  0  0  0  0
 12 11  1  0  0  0  0
 13 10  1  6  0  0  0
 13  9  1  0  0  0  0
 14 13  1  0  0  0  0
 16 22  1  0  0  0  0
 17 19  1  0  0  0  0
 18 23  1  1  0  0  0
 18 16  1  0  0  0  0
 19 16  1  0  0  0  0
 20 15  1  1  0  0  0
 20 17  1  0  0  0  0
 20 18  1  0  0  0  0
 22 21  1  0  0  0  0
 24 25  1  0  0  0  0
 25 23  1  1  0  0  0
 25 26  1  0  0  0  0
 26 30  1  1  0  0  0
 27 29  1  6  0  0  0
 27 26  1  0  0  0  0
 28 24  1  0  0  0  0
 28 27  1  0  0  0  0
 31 35  1  0  0  0  0
 32 35  1  0  0  0  0
 33 31  2  0  0  0  0
 34 33  1  0  0  0  0
 34 32  2  0  0  0  0
 35  5  1  6  0  0  0
 36 37  2  0  0  0  0
 37 33  1  0  0  0  0
 38 37  1  0  0  0  0
 39 40  1  0  0  0  0
 40 41  1  0  0  0  0
 41 42  1  0  0  0  0
 42 45  1  0  0  0  0
 44 46  1  0  0  0  0
 45 44  1  0  0  0  0
 45 43  2  0  0  0  0
 47 46  1  0  0  0  0
 48 49  1  0  0  0  0
 48 47  1  1  0  0  0
 49 50  1  0  0  0  0
 51 49  2  0  0  0  0
 52 53  1  6  0  0  0
 52 48  1  0  0  0  0
 54 53  2  0  0  0  0
 55 53  1  0  0  0  0
 56 52  1  0  0  0  0
 57 56  1  0  0  0  0
M  END
>  <MODEL>
7

>  <REMARK>
 VINA RESULT:      -6.0      3.253      9.861
  Name = 
  20 active torsions:
  status: ('A' for Active; 'I' for Inactive)
    1  A    between atoms: C_2  and  C_10
    2  A    between atoms: C_2  and  C_29
    3  A    between atoms: C_2  and  C_51
    4  A    between atoms: N_3  and  C_31
    5  A    between atoms: N_4  and  C_36
    6  A    between atoms: O_7  and  C_51
    7  A    between atoms: C_8  and  C_51
    8  A    between atoms: C_13  and  C_52
    9  A    between atoms: C_13  and  C_55
   10  A    between atoms: C_14  and  C_38
   11  A    between atoms: C_16  and  C_38
   12  A    between atoms: C_21  and  C_41
   13  A    between atoms: C_24  and  C_39
   14  A    between atoms: C_24  and  C_53
   15  A    between atoms: C_29  and  C_31
   16  A    between atoms: C_33  and  C_40
   17  A    between atoms: C_33  and  C_57
   18  A    between atoms: C_35  and  C_47
   19  A    between atoms: C_39  and  C_52
   20  A    between atoms: C_48  and  C_54
                            x       y       z     vdW  Elec       q    Type
                         _______ _______ _______ _____ _____    ______ ____

>  <TORSDO>
F 20

$$$$
=
 OpenBabel10232409043D

 57 62  0  0  1  0  0  0  0  0999 V2000
  187.1680  178.3820  138.6760 N   0  0  0  0  0  2  0  0  0  0  0  0
  189.1390  177.4720  137.7890 C   0  0  1  0  0  3  0  0  0  0  0  0
  189.9650  176.2820  137.6280 N   0  0  0  0  0  0  0  0  0  0  0  0
  188.0410  177.4390  136.8060 C   0  0  1  0  0  3  0  0  0  0  0  0
  190.3160  175.9280  136.4190 C   0  0  0  0  0  0  0  0  0  0  0  0
  187.1410  178.4760  137.2630 N   0  0  0  0  0  2  0  0  0  0  0  0
  189.7070  176.5860  135.2790 N   0  0  0  0  0  2  0  0  0  0  0  0
  188.6890  177.6400  135.4460 C   0  0  1  0  0  3  0  0  0  0  0  0
  188.3470  177.5810  139.0530 C   0  0  1  0  0  3  0  0  0  0  0  0
  190.0190  177.2920  140.9000 C   0  0  0  0  0  2  0  0  0  0  0  0
  188.3800  178.2000  142.3170 N   0  0  0  0  0  0  0  0  0  0  0  0
  189.3620  177.1560  142.2700 C   0  0  2  0  0  3  0  0  0  0  0  0
  189.1530  178.2930  140.1400 C   0  0  2  0  0  3  0  0  0  0  0  0
  188.2470  178.8100  141.2030 C   0  0  0  0  0  3  0  0  0  0  0  0
  190.3840  177.3540  143.3770 C   0  0  0  0  0  2  0  0  0  0  0  0
  191.5760  176.9850  146.3490 N   0  0  0  0  0  0  0  0  0  0  0  0
  191.3700  175.3970  144.5390 C   0  0  0  0  0  2  0  0  0  0  0  0
  190.1910  176.9520  145.8830 C   0  0  2  0  0  3  0  0  0  0  0  0
  192.3270  176.0360  145.5260 C   0  0  0  0  0  2  0  0  0  0  0  0
  190.1810  176.3250  144.4920 C   0  0  1  0  0  3  0  0  0  0  0  0
  192.2890  175.3270  147.8870 O   0  0  0  0  0  1  0  0  0  0  0  0
  191.6280  176.5540  147.7490 C   0  0  0  0  0  2  0  0  0  0  0  0
  189.5540  178.3430  145.9740 C   0  0  0  0  0  2  0  0  0  0  0  0
  187.4860  177.1710  145.3670 O   0  0  0  0  0  0  0  0  0  0  0  0
  188.0190  178.3240  145.9560 C   0  0  1  0  0  3  0  0  0  0  0  0
  187.3140  178.5740  147.2790 C   0  0  1  0  0  3  0  0  0  0  0  0
  185.9650  177.9670  147.0300 C   0  0  2  0  0  3  0  0  0  0  0  0
  186.1330  177.1580  145.7550 C   0  0  0  0  0  2  0  0  0  0  0  0
  185.0290  178.9790  146.8150 O   0  0  0  0  0  1  0  0  0  0  0  0
  187.9560  177.8430  148.4490 C   0  0  0  0  0  1  0  0  0  0  0  0
  192.3220  174.7190  137.2010 C   0  0  0  0  0  3  0  0  0  0  0  0
  191.9200  174.7710  134.9120 C   0  0  0  0  0  3  0  0  0  0  0  0
  193.4660  174.7610  136.5420 C   0  0  0  0  0  0  0  0  0  0  0  0
  193.2290  174.7940  135.1090 C   0  0  0  0  0  3  0  0  0  0  0  0
  191.1910  174.7210  136.2210 C   0  0  2  0  0  3  0  0  0  0  0  0
  194.9170  175.2020  138.3560 O   0  0  0  0  0  0  0  0  0  0  0  0
  194.7900  174.7820  137.1750 C   0  0  0  0  0  0  0  0  0  0  0  0
  195.9380  174.3210  136.4670 N   0  0  0  0  0  1  0  0  0  0  0  0
  187.6480  177.5380  134.3470 C   0  0  0  0  0  2  0  0  0  0  0  0
  186.8590  176.2510  134.4910 C   0  0  0  0  0  2  0  0  0  0  0  0
  185.3760  176.5640  134.4440 C   0  0  0  0  0  2  0  0  0  0  0  0
  184.5580  175.3950  134.9740 C   0  0  0  0  0  2  0  0  0  0  0  0
  182.7530  176.8100  135.6120 O   0  0  0  0  0  0  0  0  0  0  0  0
  183.3170  175.1640  137.1700 N   0  0  0  0  0  2  0  0  0  0  0  0
  183.4990  175.8450  135.9280 C   0  0  0  0  0  0  0  0  0  0  0  0
  182.2770  175.5480  138.1100 C   0  0  0  0  0  2  0  0  0  0  0  0
  182.8890  176.3810  139.2260 C   0  0  0  0  0  2  0  0  0  0  0  0
  181.9580  177.4910  139.7150 C   0  0  2  0  0  3  0  0  0  0  0  0
  180.7470  177.6730  138.8510 C   0  0  0  0  0  0  0  0  0  0  0  0
  180.4570  178.9060  138.2740 O   0  0  0  0  0  0  0  0  0  0  0  0
  179.9850  176.6950  138.6410 O   0  0  0  0  0  1  0  0  0  0  0  0
  182.6970  178.7850  140.1010 C   0  0  2  0  0  3  0  0  0  0  0  0
  183.5630  179.3540  139.0140 C   0  0  0  0  0  0  0  0  0  0  0  0
  183.8320  178.6540  138.0050 O   0  0  0  0  0  0  0  0  0  0  0  0
  184.0430  180.6550  139.0970 O   0  0  0  0  0  1  0  0  0  0  0  0
  183.3020  178.7630  141.3770 O   0  0  0  0  0  0  0  0  0  0  0  0
  182.3330  178.7810  142.2730 O   0  0  0  0  0  1  0  0  0  0  0  0
  2  3  1  1  0  0  0
  2  9  1  0  0  0  0
  4  6  1  1  0  0  0
  4  2  1  0  0  0  0
  5  3  2  0  0  0  0
  6  1  1  0  0  0  0
  7  8  1  0  0  0  0
  7  5  1  0  0  0  0
  8 39  1  6  0  0  0
  8  4  1  0  0  0  0
  9  1  1  6  0  0  0
  9 13  1  0  0  0  0
 10 12  1  0  0  0  0
 12 11  1  0  0  0  0
 12 15  1  1  0  0  0
 13 10  1  1  0  0  0
 13 14  1  0  0  0  0
 14 11  2  0  0  0  0
 16 22  1  0  0  0  0
 17 19  1  0  0  0  0
 18 23  1  6  0  0  0
 18 16  1  0  0  0  0
 19 16  1  0  0  0  0
 20 15  1  6  0  0  0
 20 17  1  0  0  0  0
 20 18  1  0  0  0  0
 22 21  1  0  0  0  0
 24 28  1  0  0  0  0
 24 25  1  0  0  0  0
 25 23  1  1  0  0  0
 25 26  1  0  0  0  0
 26 30  1  1  0  0  0
 27 29  1  6  0  0  0
 27 26  1  0  0  0  0
 28 27  1  0  0  0  0
 32 34  2  0  0  0  0
 32 35  1  0  0  0  0
 33 37  1  0  0  0  0
 33 31  2  0  0  0  0
 34 33  1  0  0  0  0
 35  5  1  1  0  0  0
 35 31  1  0  0  0  0
 37 36  2  0  0  0  0
 38 37  1  0  0  0  0
 39 40  1  0  0  0  0
 41 40  1  0  0  0  0
 41 42  1  0  0  0  0
 42 45  1  0  0  0  0
 43 45  2  0  0  0  0
 44 46  1  0  0  0  0
 45 44  1  0  0  0  0
 46 47  1  0  0  0  0
 48 47  1  6  0  0  0
 48 52  1  0  0  0  0
 49 48  1  0  0  0  0
 50 49  2  0  0  0  0
 51 49  1  0  0  0  0
 52 53  1  6  0  0  0
 52 56  1  0  0  0  0
 53 55  1  0  0  0  0
 54 53  2  0  0  0  0
 56 57  1  0  0  0  0
M  END
>  <MODEL>
8

>  <REMARK>
 VINA RESULT:      -6.0      2.362      9.200
  Name = 
  20 active torsions:
  status: ('A' for Active; 'I' for Inactive)
    1  A    between atoms: C_2  and  C_10
    2  A    between atoms: C_2  and  C_29
    3  A    between atoms: C_2  and  C_51
    4  A    between atoms: N_3  and  C_31
    5  A    between atoms: N_4  and  C_36
    6  A    between atoms: O_7  and  C_51
    7  A    between atoms: C_8  and  C_51
    8  A    between atoms: C_13  and  C_52
    9  A    between atoms: C_13  and  C_55
   10  A    between atoms: C_14  and  C_38
   11  A    between atoms: C_16  and  C_38
   12  A    between atoms: C_21  and  C_41
   13  A    between atoms: C_24  and  C_39
   14  A    between atoms: C_24  and  C_53
   15  A    between atoms: C_29  and  C_31
   16  A    between atoms: C_33  and  C_40
   17  A    between atoms: C_33  and  C_57
   18  A    between atoms: C_35  and  C_47
   19  A    between atoms: C_39  and  C_52
   20  A    between atoms: C_48  and  C_54
                            x       y       z     vdW  Elec       q    Type
                         _______ _______ _______ _____ _____    ______ ____

>  <TORSDO>
F 20

$$$$
=
 OpenBabel10232409043D

 57 62  0  0  1  0  0  0  0  0999 V2000
  190.7710  176.9000  140.6460 N   0  0  0  0  0  2  0  0  0  0  0  0
  189.4330  177.6970  138.8930 C   0  0  1  0  0  3  0  0  0  0  0  0
  188.6120  177.3570  137.7370 N   0  0  0  0  0  0  0  0  0  0  0  0
  188.6450  177.4980  140.1230 C   0  0  1  0  0  3  0  0  0  0  0  0
  187.3870  177.8120  137.6890 C   0  0  0  0  0  0  0  0  0  0  0  0
  189.6350  177.5600  141.1770 N   0  0  0  0  0  2  0  0  0  0  0  0
  186.8160  178.4450  138.8620 N   0  0  0  0  0  2  0  0  0  0  0  0
  187.5780  178.5790  140.1180 C   0  0  1  0  0  3  0  0  0  0  0  0
  190.5940  176.8020  139.1850 C   0  0  1  0  0  3  0  0  0  0  0  0
  192.0370  176.5200  137.1530 C   0  0  0  0  0  2  0  0  0  0  0  0
  193.7810  176.0280  138.6490 N   0  0  0  0  0  0  0  0  0  0  0  0
  193.2250  175.5950  137.4000 C   0  0  2  0  0  3  0  0  0  0  0  0
  191.8500  177.2870  138.4600 C   0  0  2  0  0  3  0  0  0  0  0  0
  193.0700  176.9160  139.2300 C   0  0  0  0  0  3  0  0  0  0  0  0
  194.2560  175.7390  136.2940 C   0  0  0  0  0  2  0  0  0  0  0  0
  194.1940  172.5270  136.5600 N   0  0  0  0  0  0  0  0  0  0  0  0
  195.5020  173.9510  135.1090 C   0  0  0  0  0  2  0  0  0  0  0  0
  193.3050  173.4250  135.8250 C   0  0  2  0  0  3  0  0  0  0  0  0
  195.5610  172.8400  136.1390 C   0  0  0  0  0  2  0  0  0  0  0  0
  194.1450  174.5840  135.2950 C   0  0  1  0  0  3  0  0  0  0  0  0
  193.5780  171.0130  134.8440 O   0  0  0  0  0  1  0  0  0  0  0  0
  193.8870  171.1390  136.2030 C   0  0  0  0  0  2  0  0  0  0  0  0
  192.1070  173.8320  136.6910 C   0  0  0  0  0  2  0  0  0  0  0  0
  189.8070  173.2350  137.3020 O   0  0  0  0  0  0  0  0  0  0  0  0
  190.8040  173.1080  136.3260 C   0  0  1  0  0  3  0  0  0  0  0  0
  190.2050  173.4180  134.9640 C   0  0  1  0  0  3  0  0  0  0  0  0
  188.7720  173.0170  135.1580 C   0  0  2  0  0  3  0  0  0  0  0  0
  188.6190  172.8390  136.6600 C   0  0  0  0  0  2  0  0  0  0  0  0
  188.5370  171.7970  134.5230 O   0  0  0  0  0  1  0  0  0  0  0  0
  190.2410  174.8980  134.6150 C   0  0  0  0  0  1  0  0  0  0  0  0
  185.1550  177.0770  136.9270 C   0  0  0  0  0  3  0  0  0  0  0  0
  187.0060  176.2880  135.7630 C   0  0  0  0  0  3  0  0  0  0  0  0
  184.9320  175.8460  136.5020 C   0  0  0  0  0  0  0  0  0  0  0  0
  186.0810  175.3400  135.7730 C   0  0  0  0  0  3  0  0  0  0  0  0
  186.5240  177.5030  136.4970 C   0  0  2  0  0  3  0  0  0  0  0  0
  183.5910  174.3670  137.7690 O   0  0  0  0  0  0  0  0  0  0  0  0
  183.6950  175.0940  136.7470 C   0  0  0  0  0  0  0  0  0  0  0  0
  182.6000  175.1880  135.8390 N   0  0  0  0  0  1  0  0  0  0  0  0
  186.6540  178.4120  141.3090 C   0  0  0  0  0  2  0  0  0  0  0  0
  187.4630  178.3050  142.5880 C   0  0  0  0  0  2  0  0  0  0  0  0
  186.7580  177.3680  143.5500 C   0  0  0  0  0  2  0  0  0  0  0  0
  185.8370  178.1410  144.4830 C   0  0  0  0  0  2  0  0  0  0  0  0
  185.8050  178.9490  146.7220 O   0  0  0  0  0  0  0  0  0  0  0  0
  187.6470  177.6200  146.1780 N   0  0  0  0  0  2  0  0  0  0  0  0
  186.4200  178.2760  145.8530 C   0  0  0  0  0  0  0  0  0  0  0  0
  188.2290  177.6990  147.5070 C   0  0  0  0  0  2  0  0  0  0  0  0
  189.7180  177.9850  147.3900 C   0  0  0  0  0  2  0  0  0  0  0  0
  190.4750  176.8860  146.6440 C   0  0  2  0  0  3  0  0  0  0  0  0
  191.5730  176.2670  147.4550 C   0  0  0  0  0  0  0  0  0  0  0  0
  192.3390  177.0340  148.3280 O   0  0  0  0  0  1  0  0  0  0  0  0
  191.8020  175.0350  147.3490 O   0  0  0  0  0  0  0  0  0  0  0  0
  190.8530  177.2710  145.2030 C   0  0  2  0  0  3  0  0  0  0  0  0
  190.9030  176.1170  144.2440 C   0  0  0  0  0  0  0  0  0  0  0  0
  191.9890  175.5130  144.0550 O   0  0  0  0  0  1  0  0  0  0  0  0
  189.7550  175.6900  143.5870 O   0  0  0  0  0  0  0  0  0  0  0  0
  191.9400  178.1660  145.0940 O   0  0  0  0  0  0  0  0  0  0  0  0
  191.6850  178.9760  144.0830 O   0  0  0  0  0  1  0  0  0  0  0  0
  1  6  1  0  0  0  0
  2  3  1  6  0  0  0
  2  9  1  0  0  0  0
  2  4  1  0  0  0  0
  4  6  1  1  0  0  0
  5  3  2  0  0  0  0
  5  7  1  0  0  0  0
  7  8  1  0  0  0  0
  8  4  1  0  0  0  0
  8 39  1  1  0  0  0
  9  1  1  1  0  0  0
 10 12  1  0  0  0  0
 11 14  2  0  0  0  0
 12 15  1  6  0  0  0
 12 11  1  0  0  0  0
 13 10  1  6  0  0  0
 13  9  1  0  0  0  0
 13 14  1  0  0  0  0
 17 20  1  0  0  0  0
 17 19  1  0  0  0  0
 18 16  1  0  0  0  0
 18 23  1  1  0  0  0
 19 16  1  0  0  0  0
 20 18  1  0  0  0  0
 20 15  1  1  0  0  0
 21 22  1  0  0  0  0
 22 16  1  0  0  0  0
 25 23  1  1  0  0  0
 25 24  1  0  0  0  0
 26 30  1  1  0  0  0
 26 27  1  0  0  0  0
 26 25  1  0  0  0  0
 27 29  1  6  0  0  0
 27 28  1  0  0  0  0
 28 24  1  0  0  0  0
 32 34  2  0  0  0  0
 32 35  1  0  0  0  0
 33 37  1  0  0  0  0
 33 31  2  0  0  0  0
 34 33  1  0  0  0  0
 35 31  1  0  0  0  0
 35  5  1  1  0  0  0
 37 36  2  0  0  0  0
 38 37  1  0  0  0  0
 39 40  1  0  0  0  0
 40 41  1  0  0  0  0
 41 42  1  0  0  0  0
 42 45  1  0  0  0  0
 44 46  1  0  0  0  0
 45 44  1  0  0  0  0
 45 43  2  0  0  0  0
 47 46  1  0  0  0  0
 48 47  1  1  0  0  0
 48 49  1  0  0  0  0
 49 50  1  0  0  0  0
 51 49  2  0  0  0  0
 52 53  1  6  0  0  0
 52 48  1  0  0  0  0
 54 53  1  0  0  0  0
 55 53  2  0  0  0  0
 56 52  1  0  0  0  0
 57 56  1  0  0  0  0
M  END
>  <MODEL>
9

>  <REMARK>
 VINA RESULT:      -5.8      3.029      9.461
  Name = 
  20 active torsions:
  status: ('A' for Active; 'I' for Inactive)
    1  A    between atoms: C_2  and  C_10
    2  A    between atoms: C_2  and  C_29
    3  A    between atoms: C_2  and  C_51
    4  A    between atoms: N_3  and  C_31
    5  A    between atoms: N_4  and  C_36
    6  A    between atoms: O_7  and  C_51
    7  A    between atoms: C_8  and  C_51
    8  A    between atoms: C_13  and  C_52
    9  A    between atoms: C_13  and  C_55
   10  A    between atoms: C_14  and  C_38
   11  A    between atoms: C_16  and  C_38
   12  A    between atoms: C_21  and  C_41
   13  A    between atoms: C_24  and  C_39
   14  A    between atoms: C_24  and  C_53
   15  A    between atoms: C_29  and  C_31
   16  A    between atoms: C_33  and  C_40
   17  A    between atoms: C_33  and  C_57
   18  A    between atoms: C_35  and  C_47
   19  A    between atoms: C_39  and  C_52
   20  A    between atoms: C_48  and  C_54
                            x       y       z     vdW  Elec       q    Type
                         _______ _______ _______ _____ _____    ______ ____

>  <TORSDO>
F 20

$$$$
