=
 OpenBabel10232412413D

 37 40  0  0  1  0  0  0  0  0999 V2000
  185.8070  178.8040  138.4690 C   0  0  0  0  0  3  0  0  0  0  0  0
  187.1900  177.4820  144.3910 C   0  0  0  0  0  2  0  0  0  0  0  0
  187.8710  178.0720  139.5120 C   0  0  0  0  0  3  0  0  0  0  0  0
  185.8930  178.4670  140.8610 C   0  0  0  0  0  0  0  0  0  0  0  0
  185.3150  178.5030  142.5640 S   0  0  0  0  0  0  0  0  0  0  0  0
  188.8280  176.7290  141.9640 O   0  0  0  0  0  0  0  0  0  0  0  0
  186.6980  177.3860  142.9560 C   0  0  1  0  0  3  0  0  0  0  0  0
  190.4900  175.6010  143.3230 C   0  0  0  0  0  1  0  0  0  0  0  0
  187.8550  177.7550  142.0420 C   0  0  2  0  0  3  0  0  0  0  0  0
  187.2190  178.0740  140.7450 C   0  0  0  0  0  0  0  0  0  0  0  0
  188.6190  176.9060  144.5050 C   0  0  1  0  0  3  0  0  0  0  0  0
  189.0630  176.1150  143.2320 C   0  0  1  0  0  3  0  0  0  0  0  0
  187.1550  178.4350  138.3670 C   0  0  0  0  0  0  0  0  0  0  0  0
  185.1460  178.8170  139.7120 C   0  0  0  0  0  0  0  0  0  0  0  0
  183.7150  179.2110  139.7560 C   0  0  0  0  0  0  0  0  0  0  0  0
  182.8130  178.5860  140.6280 C   0  0  0  0  0  3  0  0  0  0  0  0
  183.2300  180.1910  138.8770 C   0  0  0  0  0  3  0  0  0  0  0  0
  181.4680  178.9590  140.6220 C   0  0  0  0  0  3  0  0  0  0  0  0
  181.8780  180.5370  138.9000 C   0  0  0  0  0  3  0  0  0  0  0  0
  181.0300  179.9210  139.7670 N   0  0  0  0  0  0  0  0  0  0  0  0
  187.8340  178.4590  137.0420 C   0  0  0  0  0  2  0  0  0  0  0  0
  187.0230  177.6690  136.0280 C   0  0  0  0  0  2  0  0  0  0  0  0
  187.8720  176.5700  135.4070 C   0  0  0  0  0  2  0  0  0  0  0  0
  187.9480  175.3490  136.3120 C   0  0  0  0  0  2  0  0  0  0  0  0
  189.3820  174.8580  136.4210 C   0  0  0  0  0  2  0  0  0  0  0  0
  191.7890  177.2910  140.1330 C   0  0  0  0  0  1  0  0  0  0  0  0
  191.0090  176.1800  139.6140 N   0  0  0  0  0  2  0  0  0  0  0  0
  189.8500  174.9880  137.7930 N   0  0  0  0  0  2  0  0  0  0  0  0
  190.6130  176.1100  138.2440 C   0  0  0  0  0  0  0  0  0  0  0  0
  190.9380  177.0250  137.4390 O   0  0  0  0  0  0  0  0  0  0  0  0
  189.6480  177.9430  144.9980 C   0  0  1  0  0  3  0  0  0  0  0  0
  191.5110  177.0910  146.4750 N   0  0  0  0  0  2  0  0  0  0  0  0
  190.2020  177.6440  146.3580 C   0  0  0  0  0  0  0  0  0  0  0  0
  189.5310  177.9040  147.3930 O   0  0  0  0  0  0  0  0  0  0  0  0
  192.0560  176.8500  147.6900 O   0  0  0  0  0  1  0  0  0  0  0  0
  191.0150  179.5210  143.9410 C   0  0  0  0  0  1  0  0  0  0  0  0
  190.7230  178.1010  144.0300 N   0  0  0  0  0  2  0  0  0  0  0  0
  1 14  1  0  0  0  0
  2 11  1  0  0  0  0
  3 10  2  0  0  0  0
  4  5  1  0  0  0  0
  5  7  1  0  0  0  0
  6  9  1  0  0  0  0
  6 12  1  0  0  0  0
  7  2  1  1  0  0  0
  9 10  1  6  0  0  0
  9  7  1  0  0  0  0
 10  4  1  0  0  0  0
 11 31  1  6  0  0  0
 12  8  1  1  0  0  0
 12 11  1  0  0  0  0
 13  1  2  0  0  0  0
 13  3  1  0  0  0  0
 14 15  1  0  0  0  0
 14  4  2  0  0  0  0
 15 16  1  0  0  0  0
 17 19  1  0  0  0  0
 17 15  2  0  0  0  0
 18 16  2  0  0  0  0
 19 20  2  0  0  0  0
 20 18  1  0  0  0  0
 21 13  1  0  0  0  0
 22 21  1  0  0  0  0
 23 22  1  0  0  0  0
 23 24  1  0  0  0  0
 24 25  1  0  0  0  0
 25 28  1  0  0  0  0
 27 26  1  0  0  0  0
 28 29  1  0  0  0  0
 29 27  1  0  0  0  0
 30 29  2  0  0  0  0
 31 37  1  6  0  0  0
 31 33  1  0  0  0  0
 32 35  1  0  0  0  0
 33 32  1  0  0  0  0
 33 34  2  0  0  0  0
 36 37  1  0  0  0  0
M  END
>  <MODEL>
1

>  <REMARK>
 VINA RESULT:      -7.3      0.000      0.000
  Name = 
  10 active torsions:
  status: ('A' for Active; 'I' for Inactive)
    1  A    between atoms: C_3  and  C_34
    2  A    between atoms: C_5  and  C_9
    3  A    between atoms: C_8  and  C_29
    4  A    between atoms: C_8  and  C_30
    5  A    between atoms: C_9  and  C_24
    6  A    between atoms: C_9  and  N_33
    7  A    between atoms: C_12  and  C_28
    8  A    between atoms: C_12  and  C_37
    9  A    between atoms: N_26  and  C_28
   10  A    between atoms: C_30  and  C_37
                            x       y       z     vdW  Elec       q    Type
                         _______ _______ _______ _____ _____    ______ ____

>  <TORSDO>
F 10

$$$$
=
 OpenBabel10232412413D

 37 40  0  0  1  0  0  0  0  0999 V2000
  185.7580  178.8170  138.5000 C   0  0  0  0  0  3  0  0  0  0  0  0
  187.2070  177.4650  144.4000 C   0  0  0  0  0  2  0  0  0  0  0  0
  187.8380  178.0950  139.5200 C   0  0  0  0  0  3  0  0  0  0  0  0
  185.8690  178.4640  140.8890 C   0  0  0  0  0  0  0  0  0  0  0  0
  185.3070  178.4830  142.5970 S   0  0  0  0  0  0  0  0  0  0  0  0
  188.8280  176.7430  141.9530 O   0  0  0  0  0  0  0  0  0  0  0  0
  186.7020  177.3750  142.9690 C   0  0  1  0  0  3  0  0  0  0  0  0
  190.5120  175.6200  143.2890 C   0  0  0  0  0  1  0  0  0  0  0  0
  187.8480  177.7600  142.0480 C   0  0  2  0  0  3  0  0  0  0  0  0
  187.1980  178.0830  140.7580 C   0  0  0  0  0  0  0  0  0  0  0  0
  188.6410  176.9000  144.4980 C   0  0  1  0  0  3  0  0  0  0  0  0
  189.0810  176.1230  143.2150 C   0  0  1  0  0  3  0  0  0  0  0  0
  187.1090  178.4600  138.3840 C   0  0  0  0  0  0  0  0  0  0  0  0
  185.1080  178.8150  139.7500 C   0  0  0  0  0  0  0  0  0  0  0  0
  183.6740  179.1960  139.8090 C   0  0  0  0  0  0  0  0  0  0  0  0
  182.7970  178.5940  140.7220 C   0  0  0  0  0  3  0  0  0  0  0  0
  183.1610  180.1400  138.9060 C   0  0  0  0  0  3  0  0  0  0  0  0
  181.4490  178.9540  140.7300 C   0  0  0  0  0  3  0  0  0  0  0  0
  181.8070  180.4730  138.9450 C   0  0  0  0  0  3  0  0  0  0  0  0
  180.9830  179.8800  139.8510 N   0  0  0  0  0  0  0  0  0  0  0  0
  187.7750  178.4980  137.0530 C   0  0  0  0  0  2  0  0  0  0  0  0
  189.2840  178.4720  137.2260 C   0  0  0  0  0  2  0  0  0  0  0  0
  189.8460  177.1250  136.7940 C   0  0  0  0  0  2  0  0  0  0  0  0
  191.0110  176.7020  137.6760 C   0  0  0  0  0  2  0  0  0  0  0  0
  192.1960  176.2800  136.8230 C   0  0  0  0  0  2  0  0  0  0  0  0
  196.1000  174.0440  139.1150 C   0  0  0  0  0  1  0  0  0  0  0  0
  195.3330  175.2140  138.7240 N   0  0  0  0  0  2  0  0  0  0  0  0
  193.4150  176.3000  137.6180 N   0  0  0  0  0  2  0  0  0  0  0  0
  194.1270  175.1100  137.9670 C   0  0  0  0  0  0  0  0  0  0  0  0
  193.6910  173.9800  137.6160 O   0  0  0  0  0  0  0  0  0  0  0  0
  189.6660  177.9430  144.9880 C   0  0  1  0  0  3  0  0  0  0  0  0
  191.5320  177.0560  146.4400 N   0  0  0  0  0  2  0  0  0  0  0  0
  190.2350  177.6390  146.3410 C   0  0  0  0  0  0  0  0  0  0  0  0
  189.5870  177.9220  147.3850 O   0  0  0  0  0  0  0  0  0  0  0  0
  192.0900  176.8100  147.6480 O   0  0  0  0  0  1  0  0  0  0  0  0
  191.0550  179.5320  143.9760 C   0  0  0  0  0  1  0  0  0  0  0  0
  190.7310  178.1160  144.0120 N   0  0  0  0  0  2  0  0  0  0  0  0
  1 14  1  0  0  0  0
  2 11  1  0  0  0  0
  3 10  2  0  0  0  0
  4  5  1  0  0  0  0
  5  7  1  0  0  0  0
  6  9  1  0  0  0  0
  6 12  1  0  0  0  0
  7  2  1  1  0  0  0
  9 10  1  6  0  0  0
  9  7  1  0  0  0  0
 10  4  1  0  0  0  0
 11 31  1  6  0  0  0
 12  8  1  1  0  0  0
 12 11  1  0  0  0  0
 13  1  2  0  0  0  0
 13  3  1  0  0  0  0
 14 15  1  0  0  0  0
 14  4  2  0  0  0  0
 15 16  1  0  0  0  0
 16 18  2  0  0  0  0
 17 19  1  0  0  0  0
 17 15  2  0  0  0  0
 19 20  2  0  0  0  0
 20 18  1  0  0  0  0
 21 22  1  0  0  0  0
 21 13  1  0  0  0  0
 23 22  1  0  0  0  0
 23 24  1  0  0  0  0
 25 28  1  0  0  0  0
 25 24  1  0  0  0  0
 27 26  1  0  0  0  0
 28 29  1  0  0  0  0
 29 27  1  0  0  0  0
 30 29  2  0  0  0  0
 31 37  1  6  0  0  0
 31 33  1  0  0  0  0
 32 35  1  0  0  0  0
 33 32  1  0  0  0  0
 33 34  2  0  0  0  0
 36 37  1  0  0  0  0
M  END
>  <MODEL>
2

>  <REMARK>
 VINA RESULT:      -7.3      1.661      1.888
  Name = 
  10 active torsions:
  status: ('A' for Active; 'I' for Inactive)
    1  A    between atoms: C_3  and  C_34
    2  A    between atoms: C_5  and  C_9
    3  A    between atoms: C_8  and  C_29
    4  A    between atoms: C_8  and  C_30
    5  A    between atoms: C_9  and  C_24
    6  A    between atoms: C_9  and  N_33
    7  A    between atoms: C_12  and  C_28
    8  A    between atoms: C_12  and  C_37
    9  A    between atoms: N_26  and  C_28
   10  A    between atoms: C_30  and  C_37
                            x       y       z     vdW  Elec       q    Type
                         _______ _______ _______ _____ _____    ______ ____

>  <TORSDO>
F 10

$$$$
=
 OpenBabel10232412413D

 37 40  0  0  1  0  0  0  0  0999 V2000
  188.1570  178.0590  143.6110 C   0  0  0  0  0  3  0  0  0  0  0  0
  185.4100  178.2100  138.0280 C   0  0  0  0  0  2  0  0  0  0  0  0
  189.0440  177.7510  141.3750 C   0  0  0  0  0  3  0  0  0  0  0  0
  186.6730  178.1460  141.7050 C   0  0  0  0  0  0  0  0  0  0  0  0
  185.1090  178.2350  140.8220 S   0  0  0  0  0  0  0  0  0  0  0  0
  188.3820  178.3640  138.5610 O   0  0  0  0  0  0  0  0  0  0  0  0
  186.0800  178.6150  139.3310 C   0  0  1  0  0  3  0  0  0  0  0  0
  188.8870  178.5610  136.1970 C   0  0  0  0  0  1  0  0  0  0  0  0
  187.3920  177.8540  139.4350 C   0  0  2  0  0  3  0  0  0  0  0  0
  187.7600  177.9380  140.8660 C   0  0  0  0  0  0  0  0  0  0  0  0
  186.4580  178.1040  136.8980 C   0  0  1  0  0  3  0  0  0  0  0  0
  187.8410  178.7200  137.2880 C   0  0  1  0  0  3  0  0  0  0  0  0
  189.2420  177.8190  142.7570 C   0  0  0  0  0  0  0  0  0  0  0  0
  186.8550  178.2390  143.1040 C   0  0  0  0  0  0  0  0  0  0  0  0
  185.7470  178.4980  144.0580 C   0  0  0  0  0  0  0  0  0  0  0  0
  185.8770  178.2110  145.4230 C   0  0  0  0  0  3  0  0  0  0  0  0
  184.5200  178.9920  143.5900 C   0  0  0  0  0  3  0  0  0  0  0  0
  184.8050  178.4380  146.2870 C   0  0  0  0  0  3  0  0  0  0  0  0
  183.4700  179.2060  144.4840 C   0  0  0  0  0  3  0  0  0  0  0  0
  183.6320  178.9290  145.8060 N   0  0  0  0  0  0  0  0  0  0  0  0
  190.6010  177.6040  143.3250 C   0  0  0  0  0  2  0  0  0  0  0  0
  191.0520  176.1760  143.0700 C   0  0  0  0  0  2  0  0  0  0  0  0
  191.6750  175.5820  144.3250 C   0  0  0  0  0  2  0  0  0  0  0  0
  191.9070  176.6480  145.3860 C   0  0  0  0  0  2  0  0  0  0  0  0
  191.8030  176.0430  146.7770 C   0  0  0  0  0  2  0  0  0  0  0  0
  187.7530  178.4680  148.5700 C   0  0  0  0  0  1  0  0  0  0  0  0
  189.1710  178.1520  148.5700 N   0  0  0  0  0  2  0  0  0  0  0  0
  191.1480  176.9790  147.6790 N   0  0  0  0  0  2  0  0  0  0  0  0
  189.7440  177.2440  147.6300 C   0  0  0  0  0  0  0  0  0  0  0  0
  189.0200  176.6860  146.7610 O   0  0  0  0  0  0  0  0  0  0  0  0
  186.5430  176.6910  136.2870 C   0  0  1  0  0  3  0  0  0  0  0  0
  185.5470  174.6950  137.4700 N   0  0  0  0  0  2  0  0  0  0  0  0
  185.3670  175.8210  136.6150 C   0  0  0  0  0  0  0  0  0  0  0  0
  184.2230  176.0970  136.1640 O   0  0  0  0  0  0  0  0  0  0  0  0
  184.4970  173.9160  137.8190 O   0  0  0  0  0  1  0  0  0  0  0  0
  187.4220  175.5480  134.4430 C   0  0  0  0  0  1  0  0  0  0  0  0
  186.7390  176.7650  134.8470 N   0  0  0  0  0  2  0  0  0  0  0  0
  3 13  1  0  0  0  0
  4 14  2  0  0  0  0
  5  4  1  0  0  0  0
  7  2  1  6  0  0  0
  7  9  1  0  0  0  0
  7  5  1  0  0  0  0
  9  6  1  6  0  0  0
  9 10  1  0  0  0  0
 10  3  2  0  0  0  0
 10  4  1  0  0  0  0
 11 31  1  1  0  0  0
 11 12  1  0  0  0  0
 11  2  1  0  0  0  0
 12  8  1  6  0  0  0
 12  6  1  0  0  0  0
 13 21  1  0  0  0  0
 13  1  2  0  0  0  0
 14  1  1  0  0  0  0
 14 15  1  0  0  0  0
 15 16  1  0  0  0  0
 16 18  2  0  0  0  0
 17 15  2  0  0  0  0
 17 19  1  0  0  0  0
 19 20  2  0  0  0  0
 20 18  1  0  0  0  0
 22 21  1  0  0  0  0
 22 23  1  0  0  0  0
 23 24  1  0  0  0  0
 24 25  1  0  0  0  0
 25 28  1  0  0  0  0
 26 27  1  0  0  0  0
 29 28  1  0  0  0  0
 29 27  1  0  0  0  0
 30 29  2  0  0  0  0
 31 37  1  6  0  0  0
 31 33  1  0  0  0  0
 32 35  1  0  0  0  0
 33 32  1  0  0  0  0
 34 33  2  0  0  0  0
 36 37  1  0  0  0  0
M  END
>  <MODEL>
3

>  <REMARK>
 VINA RESULT:      -7.2      2.836      7.874
  Name = 
  10 active torsions:
  status: ('A' for Active; 'I' for Inactive)
    1  A    between atoms: C_3  and  C_34
    2  A    between atoms: C_5  and  C_9
    3  A    between atoms: C_8  and  C_29
    4  A    between atoms: C_8  and  C_30
    5  A    between atoms: C_9  and  C_24
    6  A    between atoms: C_9  and  N_33
    7  A    between atoms: C_12  and  C_28
    8  A    between atoms: C_12  and  C_37
    9  A    between atoms: N_26  and  C_28
   10  A    between atoms: C_30  and  C_37
                            x       y       z     vdW  Elec       q    Type
                         _______ _______ _______ _____ _____    ______ ____

>  <TORSDO>
F 10

$$$$
=
 OpenBabel10232412413D

 37 40  0  0  1  0  0  0  0  0999 V2000
  186.0310  178.7740  138.4440 C   0  0  0  0  0  3  0  0  0  0  0  0
  187.3370  177.3640  144.3640 C   0  0  0  0  0  2  0  0  0  0  0  0
  188.0970  178.0850  139.5150 C   0  0  0  0  0  3  0  0  0  0  0  0
  186.0800  178.3860  140.8300 C   0  0  0  0  0  0  0  0  0  0  0  0
  185.4670  178.3650  142.5210 S   0  0  0  0  0  0  0  0  0  0  0  0
  189.0470  176.7200  141.9560 O   0  0  0  0  0  0  0  0  0  0  0  0
  186.8770  177.2850  142.9180 C   0  0  1  0  0  3  0  0  0  0  0  0
  190.7170  175.6160  143.3250 C   0  0  0  0  0  1  0  0  0  0  0  0
  188.0410  177.7110  142.0360 C   0  0  2  0  0  3  0  0  0  0  0  0
  187.4210  178.0380  140.7330 C   0  0  0  0  0  0  0  0  0  0  0  0
  188.7820  176.8320  144.4960 C   0  0  1  0  0  3  0  0  0  0  0  0
  189.2770  176.0850  143.2150 C   0  0  1  0  0  3  0  0  0  0  0  0
  187.3930  178.4510  138.3630 C   0  0  0  0  0  0  0  0  0  0  0  0
  185.3450  178.7370  139.6730 C   0  0  0  0  0  0  0  0  0  0  0  0
  183.9010  179.0830  139.6960 C   0  0  0  0  0  0  0  0  0  0  0  0
  182.9880  178.3530  140.4680 C   0  0  0  0  0  3  0  0  0  0  0  0
  183.4180  180.1270  138.8930 C   0  0  0  0  0  3  0  0  0  0  0  0
  181.6330  178.6860  140.4430 C   0  0  0  0  0  3  0  0  0  0  0  0
  182.0550  180.4310  138.8940 C   0  0  0  0  0  3  0  0  0  0  0  0
  181.1970  179.7110  139.6640 N   0  0  0  0  0  0  0  0  0  0  0  0
  188.0980  178.5260  137.0530 C   0  0  0  0  0  2  0  0  0  0  0  0
  189.4330  177.8070  137.1390 C   0  0  0  0  0  2  0  0  0  0  0  0
  189.4800  176.6500  136.1520 C   0  0  0  0  0  2  0  0  0  0  0  0
  188.7510  175.4290  136.6930 C   0  0  0  0  0  2  0  0  0  0  0  0
  187.6770  174.9770  135.7180 C   0  0  0  0  0  2  0  0  0  0  0  0
  183.2730  175.3880  138.1530 C   0  0  0  0  0  1  0  0  0  0  0  0
  184.2770  175.8620  137.2140 N   0  0  0  0  0  2  0  0  0  0  0  0
  186.4200  175.6470  136.0150 N   0  0  0  0  0  2  0  0  0  0  0  0
  185.4740  175.1300  136.9540 C   0  0  0  0  0  0  0  0  0  0  0  0
  185.6920  174.0350  137.5410 O   0  0  0  0  0  0  0  0  0  0  0  0
  189.7660  177.8910  145.0320 C   0  0  1  0  0  3  0  0  0  0  0  0
  191.5930  177.0640  146.5670 N   0  0  0  0  0  2  0  0  0  0  0  0
  190.2790  177.5940  146.4080 C   0  0  0  0  0  0  0  0  0  0  0  0
  189.5690  177.8370  147.4220 O   0  0  0  0  0  0  0  0  0  0  0  0
  192.1010  176.8250  147.7980 O   0  0  0  0  0  1  0  0  0  0  0  0
  191.0660  179.5170  143.9620 C   0  0  0  0  0  1  0  0  0  0  0  0
  190.8700  178.0840  144.1040 N   0  0  0  0  0  2  0  0  0  0  0  0
  1 14  1  0  0  0  0
  2 11  1  0  0  0  0
  3 10  2  0  0  0  0
  4  5  1  0  0  0  0
  5  7  1  0  0  0  0
  6  9  1  0  0  0  0
  6 12  1  0  0  0  0
  7  2  1  1  0  0  0
  9 10  1  6  0  0  0
  9  7  1  0  0  0  0
 10  4  1  0  0  0  0
 11 31  1  6  0  0  0
 12  8  1  1  0  0  0
 12 11  1  0  0  0  0
 13  1  2  0  0  0  0
 13  3  1  0  0  0  0
 14 15  1  0  0  0  0
 14  4  2  0  0  0  0
 15 16  1  0  0  0  0
 17 19  1  0  0  0  0
 17 15  2  0  0  0  0
 18 16  2  0  0  0  0
 19 20  2  0  0  0  0
 20 18  1  0  0  0  0
 21 22  1  0  0  0  0
 21 13  1  0  0  0  0
 23 24  1  0  0  0  0
 23 22  1  0  0  0  0
 25 28  1  0  0  0  0
 25 24  1  0  0  0  0
 27 26  1  0  0  0  0
 28 29  1  0  0  0  0
 29 27  1  0  0  0  0
 29 30  2  0  0  0  0
 31 37  1  6  0  0  0
 31 33  1  0  0  0  0
 32 35  1  0  0  0  0
 33 32  1  0  0  0  0
 33 34  2  0  0  0  0
 36 37  1  0  0  0  0
M  END
>  <MODEL>
4

>  <REMARK>
 VINA RESULT:      -7.0      1.770      2.481
  Name = 
  10 active torsions:
  status: ('A' for Active; 'I' for Inactive)
    1  A    between atoms: C_3  and  C_34
    2  A    between atoms: C_5  and  C_9
    3  A    between atoms: C_8  and  C_29
    4  A    between atoms: C_8  and  C_30
    5  A    between atoms: C_9  and  C_24
    6  A    between atoms: C_9  and  N_33
    7  A    between atoms: C_12  and  C_28
    8  A    between atoms: C_12  and  C_37
    9  A    between atoms: N_26  and  C_28
   10  A    between atoms: C_30  and  C_37
                            x       y       z     vdW  Elec       q    Type
                         _______ _______ _______ _____ _____    ______ ____

>  <TORSDO>
F 10

$$$$
=
 OpenBabel10232412413D

 37 40  0  0  1  0  0  0  0  0999 V2000
  186.7010  178.0440  138.8230 C   0  0  0  0  0  3  0  0  0  0  0  0
  191.8010  176.9930  142.2320 C   0  0  0  0  0  2  0  0  0  0  0  0
  187.1870  178.4700  141.1610 C   0  0  0  0  0  3  0  0  0  0  0  0
  188.8410  177.3990  139.7440 C   0  0  0  0  0  0  0  0  0  0  0  0
  190.4680  176.6340  139.7840 S   0  0  0  0  0  0  0  0  0  0  0  0
  189.4920  178.7930  142.9820 O   0  0  0  0  0  0  0  0  0  0  0  0
  190.7870  177.6140  141.2840 C   0  0  1  0  0  3  0  0  0  0  0  0
  190.5420  179.4190  145.0760 C   0  0  0  0  0  1  0  0  0  0  0  0
  189.4700  177.7430  142.0330 C   0  0  2  0  0  3  0  0  0  0  0  0
  188.4540  177.9180  140.9730 C   0  0  0  0  0  0  0  0  0  0  0  0
  191.6490  177.5950  143.6460 C   0  0  1  0  0  3  0  0  0  0  0  0
  190.7380  178.8650  143.6760 C   0  0  1  0  0  3  0  0  0  0  0  0
  186.3090  178.5370  140.0750 C   0  0  0  0  0  0  0  0  0  0  0  0
  187.9750  177.4770  138.6280 C   0  0  0  0  0  0  0  0  0  0  0  0
  188.3360  176.9780  137.2770 C   0  0  0  0  0  0  0  0  0  0  0  0
  188.0510  175.6620  136.8860 C   0  0  0  0  0  3  0  0  0  0  0  0
  189.0210  177.8120  136.3810 C   0  0  0  0  0  3  0  0  0  0  0  0
  188.4320  175.2160  135.6190 C   0  0  0  0  0  3  0  0  0  0  0  0
  189.3850  177.3300  135.1230 C   0  0  0  0  0  3  0  0  0  0  0  0
  189.0840  176.0520  134.7680 N   0  0  0  0  0  0  0  0  0  0  0  0
  184.9450  179.1050  140.2560 C   0  0  0  0  0  2  0  0  0  0  0  0
  184.0770  178.1350  141.0400 C   0  0  0  0  0  2  0  0  0  0  0  0
  183.4140  178.8410  142.2130 C   0  0  0  0  0  2  0  0  0  0  0  0
  184.4460  179.3490  143.2090 C   0  0  0  0  0  2  0  0  0  0  0  0
  184.3440  178.5810  144.5160 C   0  0  0  0  0  2  0  0  0  0  0  0
  187.8340  178.1150  148.1350 C   0  0  0  0  0  1  0  0  0  0  0  0
  187.3770  177.9890  146.7620 N   0  0  0  0  0  2  0  0  0  0  0  0
  185.6740  178.2350  144.9960 N   0  0  0  0  0  2  0  0  0  0  0  0
  186.0630  178.3790  146.3640 C   0  0  0  0  0  0  0  0  0  0  0  0
  185.2550  178.8540  147.2090 O   0  0  0  0  0  0  0  0  0  0  0  0
  191.3000  176.5390  144.7140 C   0  0  1  0  0  3  0  0  0  0  0  0
  192.4460  174.3010  144.9450 N   0  0  0  0  0  2  0  0  0  0  0  0
  191.5100  175.1270  144.2580 C   0  0  0  0  0  0  0  0  0  0  0  0
  190.8450  174.6620  143.2930 O   0  0  0  0  0  0  0  0  0  0  0  0
  192.6270  173.0090  144.5830 O   0  0  0  0  0  1  0  0  0  0  0  0
  191.1030  176.5880  147.0460 C   0  0  0  0  0  1  0  0  0  0  0  0
  192.0310  176.7930  145.9470 N   0  0  0  0  0  2  0  0  0  0  0  0
  1 13  1  0  0  0  0
  2 11  1  0  0  0  0
  4  5  1  0  0  0  0
  4 10  2  0  0  0  0
  5  7  1  0  0  0  0
  6 12  1  0  0  0  0
  7  9  1  0  0  0  0
  7  2  1  1  0  0  0
  9 10  1  6  0  0  0
  9  6  1  0  0  0  0
 10  3  1  0  0  0  0
 11 12  1  0  0  0  0
 11 31  1  1  0  0  0
 12  8  1  1  0  0  0
 13 21  1  0  0  0  0
 13  3  2  0  0  0  0
 14  1  2  0  0  0  0
 14  4  1  0  0  0  0
 15 14  1  0  0  0  0
 16 15  1  0  0  0  0
 17 15  2  0  0  0  0
 18 16  2  0  0  0  0
 19 17  1  0  0  0  0
 20 19  2  0  0  0  0
 20 18  1  0  0  0  0
 21 22  1  0  0  0  0
 22 23  1  0  0  0  0
 23 24  1  0  0  0  0
 24 25  1  0  0  0  0
 25 28  1  0  0  0  0
 27 26  1  0  0  0  0
 28 29  1  0  0  0  0
 29 27  1  0  0  0  0
 29 30  2  0  0  0  0
 31 33  1  6  0  0  0
 31 37  1  0  0  0  0
 33 32  1  0  0  0  0
 34 33  2  0  0  0  0
 35 32  1  0  0  0  0
 37 36  1  0  0  0  0
M  END
>  <MODEL>
5

>  <REMARK>
 VINA RESULT:      -6.8      2.879      6.210
  Name = 
  10 active torsions:
  status: ('A' for Active; 'I' for Inactive)
    1  A    between atoms: C_3  and  C_34
    2  A    between atoms: C_5  and  C_9
    3  A    between atoms: C_8  and  C_29
    4  A    between atoms: C_8  and  C_30
    5  A    between atoms: C_9  and  C_24
    6  A    between atoms: C_9  and  N_33
    7  A    between atoms: C_12  and  C_28
    8  A    between atoms: C_12  and  C_37
    9  A    between atoms: N_26  and  C_28
   10  A    between atoms: C_30  and  C_37
                            x       y       z     vdW  Elec       q    Type
                         _______ _______ _______ _____ _____    ______ ____

>  <TORSDO>
F 10

$$$$
=
 OpenBabel10232412413D

 37 40  0  0  1  0  0  0  0  0999 V2000
  187.5880  178.6860  142.7390 C   0  0  0  0  0  3  0  0  0  0  0  0
  190.0550  175.9210  137.7390 C   0  0  0  0  0  2  0  0  0  0  0  0
  186.6890  178.2710  140.5250 C   0  0  0  0  0  3  0  0  0  0  0  0
  188.9610  177.6110  141.0650 C   0  0  0  0  0  0  0  0  0  0  0  0
  190.4500  176.9110  140.3390 S   0  0  0  0  0  0  0  0  0  0  0  0
  187.1260  176.5210  138.1840 O   0  0  0  0  0  0  0  0  0  0  0  0
  189.3720  176.1720  139.0730 C   0  0  1  0  0  3  0  0  0  0  0  0
  186.5070  175.5300  136.0600 C   0  0  0  0  0  1  0  0  0  0  0  0
  188.2230  177.1390  138.8320 C   0  0  2  0  0  3  0  0  0  0  0  0
  187.8990  177.6760  140.1720 C   0  0  0  0  0  0  0  0  0  0  0  0
  189.0030  175.7730  136.6180 C   0  0  1  0  0  3  0  0  0  0  0  0
  187.5460  175.6140  137.1640 C   0  0  1  0  0  3  0  0  0  0  0  0
  186.5340  178.7740  141.8200 C   0  0  0  0  0  0  0  0  0  0  0  0
  188.8170  178.0950  142.3860 C   0  0  0  0  0  0  0  0  0  0  0  0
  189.8950  178.0250  143.4050 C   0  0  0  0  0  0  0  0  0  0  0  0
  190.8660  179.0290  143.5090 C   0  0  0  0  0  3  0  0  0  0  0  0
  189.9860  176.9120  144.2540 C   0  0  0  0  0  3  0  0  0  0  0  0
  191.8840  178.9170  144.4580 C   0  0  0  0  0  3  0  0  0  0  0  0
  191.0180  176.8350  145.1900 C   0  0  0  0  0  3  0  0  0  0  0  0
  191.9390  177.8320  145.2750 N   0  0  0  0  0  0  0  0  0  0  0  0
  185.2570  179.4300  142.2150 C   0  0  0  0  0  2  0  0  0  0  0  0
  184.2860  178.3950  142.7560 C   0  0  0  0  0  2  0  0  0  0  0  0
  183.5710  178.9290  143.9890 C   0  0  0  0  0  2  0  0  0  0  0  0
  184.5610  179.3950  145.0460 C   0  0  0  0  0  2  0  0  0  0  0  0
  184.5970  178.4150  146.2070 C   0  0  0  0  0  2  0  0  0  0  0  0
  189.2130  178.0370  148.2170 C   0  0  0  0  0  1  0  0  0  0  0  0
  187.8910  178.6340  148.1270 N   0  0  0  0  0  2  0  0  0  0  0  0
  185.6330  178.8020  147.1530 N   0  0  0  0  0  2  0  0  0  0  0  0
  186.9180  178.1770  147.1890 C   0  0  0  0  0  0  0  0  0  0  0  0
  187.1860  177.2260  146.4050 O   0  0  0  0  0  0  0  0  0  0  0  0
  189.1510  176.8360  135.5100 C   0  0  1  0  0  3  0  0  0  0  0  0
  189.3590  178.9150  136.9290 N   0  0  0  0  0  2  0  0  0  0  0  0
  188.6670  178.1960  135.9110 C   0  0  0  0  0  0  0  0  0  0  0  0
  187.6730  178.7160  135.3340 O   0  0  0  0  0  0  0  0  0  0  0  0
  188.9710  180.1620  137.2830 O   0  0  0  0  0  1  0  0  0  0  0  0
  190.8030  175.6540  134.3460 C   0  0  0  0  0  1  0  0  0  0  0  0
  190.5270  176.9000  135.0410 N   0  0  0  0  0  2  0  0  0  0  0  0
  3 13  1  0  0  0  0
  4 14  2  0  0  0  0
  5  4  1  0  0  0  0
  7  2  1  6  0  0  0
  7  5  1  0  0  0  0
  9  6  1  1  0  0  0
  9  7  1  0  0  0  0
  9 10  1  0  0  0  0
 10  3  2  0  0  0  0
 10  4  1  0  0  0  0
 11 31  1  6  0  0  0
 11 12  1  0  0  0  0
 11  2  1  0  0  0  0
 12  8  1  6  0  0  0
 12  6  1  0  0  0  0
 13 21  1  0  0  0  0
 13  1  2  0  0  0  0
 14  1  1  0  0  0  0
 14 15  1  0  0  0  0
 15 16  2  0  0  0  0
 15 17  1  0  0  0  0
 16 18  1  0  0  0  0
 17 19  2  0  0  0  0
 18 20  2  0  0  0  0
 19 20  1  0  0  0  0
 21 22  1  0  0  0  0
 22 23  1  0  0  0  0
 23 24  1  0  0  0  0
 24 25  1  0  0  0  0
 25 28  1  0  0  0  0
 27 26  1  0  0  0  0
 28 29  1  0  0  0  0
 29 27  1  0  0  0  0
 30 29  2  0  0  0  0
 31 37  1  1  0  0  0
 31 33  1  0  0  0  0
 32 35  1  0  0  0  0
 33 32  1  0  0  0  0
 34 33  2  0  0  0  0
 36 37  1  0  0  0  0
M  END
>  <MODEL>
6

>  <REMARK>
 VINA RESULT:      -6.6      2.974      8.495
  Name = 
  10 active torsions:
  status: ('A' for Active; 'I' for Inactive)
    1  A    between atoms: C_3  and  C_34
    2  A    between atoms: C_5  and  C_9
    3  A    between atoms: C_8  and  C_29
    4  A    between atoms: C_8  and  C_30
    5  A    between atoms: C_9  and  C_24
    6  A    between atoms: C_9  and  N_33
    7  A    between atoms: C_12  and  C_28
    8  A    between atoms: C_12  and  C_37
    9  A    between atoms: N_26  and  C_28
   10  A    between atoms: C_30  and  C_37
                            x       y       z     vdW  Elec       q    Type
                         _______ _______ _______ _____ _____    ______ ____

>  <TORSDO>
F 10

$$$$
=
 OpenBabel10232412413D

 37 40  0  0  1  0  0  0  0  0999 V2000
  190.4150  177.2600  142.2670 C   0  0  0  0  0  3  0  0  0  0  0  0
  184.3100  178.4090  142.6560 C   0  0  0  0  0  2  0  0  0  0  0  0
  188.7490  177.6920  140.5580 C   0  0  0  0  0  3  0  0  0  0  0  0
  188.1050  177.5980  142.8960 C   0  0  0  0  0  0  0  0  0  0  0  0
  186.6720  177.6580  143.9810 S   0  0  0  0  0  0  0  0  0  0  0  0
  186.0690  178.8990  140.2470 O   0  0  0  0  0  0  0  0  0  0  0  0
  185.8220  178.5650  142.6510 C   0  0  1  0  0  3  0  0  0  0  0  0
  184.2150  179.7840  138.9600 C   0  0  0  0  0  1  0  0  0  0  0  0
  186.3410  178.0260  141.3280 C   0  0  2  0  0  3  0  0  0  0  0  0
  187.7840  177.7940  141.5590 C   0  0  0  0  0  0  0  0  0  0  0  0
  183.7310  178.7730  141.2710 C   0  0  1  0  0  3  0  0  0  0  0  0
  184.7690  179.4810  140.3410 C   0  0  1  0  0  3  0  0  0  0  0  0
  190.0740  177.4290  140.9180 C   0  0  0  0  0  0  0  0  0  0  0  0
  189.4430  177.3520  143.2820 C   0  0  0  0  0  0  0  0  0  0  0  0
  189.8660  177.1710  144.6940 C   0  0  0  0  0  0  0  0  0  0  0  0
  191.1660  176.7590  145.0190 C   0  0  0  0  0  3  0  0  0  0  0  0
  188.9430  177.3630  145.7330 C   0  0  0  0  0  3  0  0  0  0  0  0
  191.5220  176.5680  146.3550 C   0  0  0  0  0  3  0  0  0  0  0  0
  189.3360  177.1620  147.0570 C   0  0  0  0  0  3  0  0  0  0  0  0
  190.6080  176.7740  147.3400 N   0  0  0  0  0  0  0  0  0  0  0  0
  191.1190  177.2980  139.8650 C   0  0  0  0  0  2  0  0  0  0  0  0
  190.4960  176.7920  138.5750 C   0  0  0  0  0  2  0  0  0  0  0  0
  191.1390  175.4800  138.1520 C   0  0  0  0  0  2  0  0  0  0  0  0
  192.4650  175.7150  137.4430 C   0  0  0  0  0  2  0  0  0  0  0  0
  193.4860  174.6730  137.8680 C   0  0  0  0  0  2  0  0  0  0  0  0
  197.9990  174.6250  140.1310 C   0  0  0  0  0  1  0  0  0  0  0  0
  196.8690  175.3070  139.5240 N   0  0  0  0  0  2  0  0  0  0  0  0
  194.6570  175.3250  138.4350 N   0  0  0  0  0  2  0  0  0  0  0  0
  195.7400  174.5960  139.0170 C   0  0  0  0  0  0  0  0  0  0  0  0
  195.6960  173.3370  139.0860 O   0  0  0  0  0  0  0  0  0  0  0  0
  182.9820  177.6000  140.6070 C   0  0  1  0  0  3  0  0  0  0  0  0
  181.2620  178.6330  139.0720 N   0  0  0  0  0  2  0  0  0  0  0  0
  181.5560  177.9120  140.2660 C   0  0  0  0  0  0  0  0  0  0  0  0
  180.6200  177.5160  141.0130 O   0  0  0  0  0  0  0  0  0  0  0  0
  179.9820  178.8920  138.7160 O   0  0  0  0  0  1  0  0  0  0  0  0
  183.1090  175.8620  139.0440 C   0  0  0  0  0  1  0  0  0  0  0  0
  183.6990  177.1330  139.4300 N   0  0  0  0  0  2  0  0  0  0  0  0
  1 14  1  0  0  0  0
  3 13  1  0  0  0  0
  3 10  2  0  0  0  0
  4 14  2  0  0  0  0
  4  5  1  0  0  0  0
  6 12  1  0  0  0  0
  7  2  1  6  0  0  0
  7  5  1  0  0  0  0
  9  6  1  6  0  0  0
  9 10  1  0  0  0  0
  9  7  1  0  0  0  0
 10  4  1  0  0  0  0
 11 31  1  6  0  0  0
 11  2  1  0  0  0  0
 12  8  1  6  0  0  0
 12 11  1  0  0  0  0
 13  1  2  0  0  0  0
 14 15  1  0  0  0  0
 15 16  2  0  0  0  0
 15 17  1  0  0  0  0
 16 18  1  0  0  0  0
 17 19  2  0  0  0  0
 18 20  2  0  0  0  0
 19 20  1  0  0  0  0
 21 13  1  0  0  0  0
 22 21  1  0  0  0  0
 23 22  1  0  0  0  0
 24 25  1  0  0  0  0
 24 23  1  0  0  0  0
 25 28  1  0  0  0  0
 27 26  1  0  0  0  0
 28 29  1  0  0  0  0
 29 30  2  0  0  0  0
 29 27  1  0  0  0  0
 31 37  1  6  0  0  0
 32 33  1  0  0  0  0
 33 31  1  0  0  0  0
 33 34  2  0  0  0  0
 35 32  1  0  0  0  0
 36 37  1  0  0  0  0
M  END
>  <MODEL>
7

>  <REMARK>
 VINA RESULT:      -6.6      3.382      7.534
  Name = 
  10 active torsions:
  status: ('A' for Active; 'I' for Inactive)
    1  A    between atoms: C_3  and  C_34
    2  A    between atoms: C_5  and  C_9
    3  A    between atoms: C_8  and  C_29
    4  A    between atoms: C_8  and  C_30
    5  A    between atoms: C_9  and  C_24
    6  A    between atoms: C_9  and  N_33
    7  A    between atoms: C_12  and  C_28
    8  A    between atoms: C_12  and  C_37
    9  A    between atoms: N_26  and  C_28
   10  A    between atoms: C_30  and  C_37
                            x       y       z     vdW  Elec       q    Type
                         _______ _______ _______ _____ _____    ______ ____

>  <TORSDO>
F 10

$$$$
=
 OpenBabel10232412413D

 37 40  0  0  1  0  0  0  0  0999 V2000
  183.9430  179.1740  141.1610 C   0  0  0  0  0  3  0  0  0  0  0  0
  187.4330  177.3020  136.3590 C   0  0  0  0  0  2  0  0  0  0  0  0
  186.2360  178.3890  141.0500 C   0  0  0  0  0  3  0  0  0  0  0  0
  184.8780  178.4830  139.0410 C   0  0  0  0  0  0  0  0  0  0  0  0
  184.8950  178.0700  137.2910 S   0  0  0  0  0  0  0  0  0  0  0  0
  188.4380  178.0670  139.1060 O   0  0  0  0  0  0  0  0  0  0  0  0
  186.7110  178.1610  137.3850 C   0  0  1  0  0  3  0  0  0  0  0  0
  190.7440  177.6630  138.4740 C   0  0  0  0  0  1  0  0  0  0  0  0
  187.1200  177.6760  138.7670 C   0  0  2  0  0  3  0  0  0  0  0  0
  186.0850  178.2190  139.6740 C   0  0  0  0  0  0  0  0  0  0  0  0
  188.8890  177.0480  136.8060 C   0  0  1  0  0  3  0  0  0  0  0  0
  189.3320  177.9580  137.9970 C   0  0  1  0  0  3  0  0  0  0  0  0
  185.1570  178.8750  141.7950 C   0  0  0  0  0  0  0  0  0  0  0  0
  183.7820  178.9960  139.7730 C   0  0  0  0  0  0  0  0  0  0  0  0
  182.4740  179.3360  139.1570 C   0  0  0  0  0  0  0  0  0  0  0  0
  181.4180  178.4150  139.1330 C   0  0  0  0  0  3  0  0  0  0  0  0
  182.2940  180.5820  138.5380 C   0  0  0  0  0  3  0  0  0  0  0  0
  180.2120  178.7570  138.5190 C   0  0  0  0  0  3  0  0  0  0  0  0
  181.0730  180.8870  137.9340 C   0  0  0  0  0  3  0  0  0  0  0  0
  180.0630  179.9770  137.9370 N   0  0  0  0  0  0  0  0  0  0  0  0
  185.2880  179.0470  143.2680 C   0  0  0  0  0  2  0  0  0  0  0  0
  183.9460  178.8140  143.9400 C   0  0  0  0  0  2  0  0  0  0  0  0
  184.1050  178.7890  145.4530 C   0  0  0  0  0  2  0  0  0  0  0  0
  185.5450  179.0580  145.8630 C   0  0  0  0  0  2  0  0  0  0  0  0
  186.1700  177.8080  146.4590 C   0  0  0  0  0  2  0  0  0  0  0  0
  190.8050  177.2850  144.5260 C   0  0  0  0  0  1  0  0  0  0  0  0
  189.8820  177.7130  145.5640 N   0  0  0  0  0  2  0  0  0  0  0  0
  187.6180  177.9500  146.5100 N   0  0  0  0  0  2  0  0  0  0  0  0
  188.4730  177.5100  145.4530 C   0  0  0  0  0  0  0  0  0  0  0  0
  187.9890  176.9430  144.4350 O   0  0  0  0  0  0  0  0  0  0  0  0
  189.2050  175.5510  137.0010 C   0  0  1  0  0  3  0  0  0  0  0  0
  188.1400  174.0690  135.2550 N   0  0  0  0  0  2  0  0  0  0  0  0
  188.1000  174.6390  136.5610 C   0  0  0  0  0  0  0  0  0  0  0  0
  187.1560  174.3540  137.3470 O   0  0  0  0  0  0  0  0  0  0  0  0
  187.1790  173.2090  134.8440 O   0  0  0  0  0  1  0  0  0  0  0  0
  191.1920  174.3390  137.2480 C   0  0  0  0  0  1  0  0  0  0  0  0
  190.4530  175.1990  136.3400 N   0  0  0  0  0  2  0  0  0  0  0  0
  1 13  1  0  0  0  0
  2 11  1  0  0  0  0
  3 13  2  0  0  0  0
  4 10  2  0  0  0  0
  4 14  1  0  0  0  0
  5  7  1  0  0  0  0
  5  4  1  0  0  0  0
  7  2  1  6  0  0  0
  7  9  1  0  0  0  0
  9  6  1  1  0  0  0
  9 10  1  0  0  0  0
 10  3  1  0  0  0  0
 11 31  1  1  0  0  0
 11 12  1  0  0  0  0
 12  8  1  1  0  0  0
 12  6  1  0  0  0  0
 13 21  1  0  0  0  0
 14  1  2  0  0  0  0
 15 14  1  0  0  0  0
 16 15  1  0  0  0  0
 17 15  2  0  0  0  0
 18 16  2  0  0  0  0
 19 20  2  0  0  0  0
 19 17  1  0  0  0  0
 20 18  1  0  0  0  0
 21 22  1  0  0  0  0
 22 23  1  0  0  0  0
 23 24  1  0  0  0  0
 24 25  1  0  0  0  0
 25 28  1  0  0  0  0
 26 27  1  0  0  0  0
 29 27  1  0  0  0  0
 29 28  1  0  0  0  0
 30 29  2  0  0  0  0
 31 37  1  6  0  0  0
 32 33  1  0  0  0  0
 33 31  1  0  0  0  0
 33 34  2  0  0  0  0
 35 32  1  0  0  0  0
 37 36  1  0  0  0  0
M  END
>  <MODEL>
8

>  <REMARK>
 VINA RESULT:      -6.6      2.419      7.061
  Name = 
  10 active torsions:
  status: ('A' for Active; 'I' for Inactive)
    1  A    between atoms: C_3  and  C_34
    2  A    between atoms: C_5  and  C_9
    3  A    between atoms: C_8  and  C_29
    4  A    between atoms: C_8  and  C_30
    5  A    between atoms: C_9  and  C_24
    6  A    between atoms: C_9  and  N_33
    7  A    between atoms: C_12  and  C_28
    8  A    between atoms: C_12  and  C_37
    9  A    between atoms: N_26  and  C_28
   10  A    between atoms: C_30  and  C_37
                            x       y       z     vdW  Elec       q    Type
                         _______ _______ _______ _____ _____    ______ ____

>  <TORSDO>
F 10

$$$$
=
 OpenBabel10232412413D

 37 40  0  0  1  0  0  0  0  0999 V2000
  189.4960  177.4020  143.6280 C   0  0  0  0  0  3  0  0  0  0  0  0
  183.5050  178.7340  142.5960 C   0  0  0  0  0  2  0  0  0  0  0  0
  188.2280  177.6130  141.5710 C   0  0  0  0  0  3  0  0  0  0  0  0
  187.1280  177.8820  143.7170 C   0  0  0  0  0  0  0  0  0  0  0  0
  185.5130  178.1350  144.4670 S   0  0  0  0  0  0  0  0  0  0  0  0
  185.7310  178.8210  140.5530 O   0  0  0  0  0  0  0  0  0  0  0  0
  184.9930  178.8540  142.8780 C   0  0  1  0  0  3  0  0  0  0  0  0
  184.2180  179.5460  138.8020 C   0  0  0  0  0  1  0  0  0  0  0  0
  185.7360  178.1120  141.7780 C   0  0  2  0  0  3  0  0  0  0  0  0
  187.0900  177.8840  142.3290 C   0  0  0  0  0  0  0  0  0  0  0  0
  183.2320  178.9010  141.0840 C   0  0  1  0  0  3  0  0  0  0  0  0
  184.4700  179.4400  140.2960 C   0  0  1  0  0  3  0  0  0  0  0  0
  189.4390  177.3770  142.2280 C   0  0  0  0  0  0  0  0  0  0  0  0
  188.3480  177.6660  144.4000 C   0  0  0  0  0  0  0  0  0  0  0  0
  188.4720  177.6870  145.8800 C   0  0  0  0  0  0  0  0  0  0  0  0
  187.3470  177.8310  146.7030 C   0  0  0  0  0  3  0  0  0  0  0  0
  189.7380  177.6130  146.4790 C   0  0  0  0  0  3  0  0  0  0  0  0
  187.5020  177.8770  148.0900 C   0  0  0  0  0  3  0  0  0  0  0  0
  189.8530  177.6630  147.8690 C   0  0  0  0  0  3  0  0  0  0  0  0
  188.7420  177.7910  148.6410 N   0  0  0  0  0  0  0  0  0  0  0  0
  190.6640  177.0670  141.4400 C   0  0  0  0  0  2  0  0  0  0  0  0
  190.2810  176.5720  140.0560 C   0  0  0  0  0  2  0  0  0  0  0  0
  190.6090  177.6220  139.0050 C   0  0  0  0  0  2  0  0  0  0  0  0
  189.3570  178.3470  138.5350 C   0  0  0  0  0  2  0  0  0  0  0  0
  189.1750  178.1750  137.0360 C   0  0  0  0  0  2  0  0  0  0  0  0
  185.5970  174.6170  136.8570 C   0  0  0  0  0  1  0  0  0  0  0  0
  186.9520  175.0960  136.6370 N   0  0  0  0  0  2  0  0  0  0  0  0
  188.6990  176.8320  136.7430 N   0  0  0  0  0  2  0  0  0  0  0  0
  187.3500  176.4220  136.9800 C   0  0  0  0  0  0  0  0  0  0  0  0
  186.5220  177.2240  137.4940 O   0  0  0  0  0  0  0  0  0  0  0  0
  182.5700  177.6600  140.4520 C   0  0  1  0  0  3  0  0  0  0  0  0
  181.1900  178.7690  138.6520 N   0  0  0  0  0  2  0  0  0  0  0  0
  181.2450  177.9440  139.8130 C   0  0  0  0  0  0  0  0  0  0  0  0
  180.1890  177.4350  140.2770 O   0  0  0  0  0  0  0  0  0  0  0  0
  180.0140  179.0090  138.0270 O   0  0  0  0  0  1  0  0  0  0  0  0
  182.8340  175.7930  139.0660 C   0  0  0  0  0  1  0  0  0  0  0  0
  183.4710  177.0230  139.5030 N   0  0  0  0  0  2  0  0  0  0  0  0
  1 14  1  0  0  0  0
  3 13  1  0  0  0  0
  3 10  2  0  0  0  0
  4 14  2  0  0  0  0
  4  5  1  0  0  0  0
  7  2  1  6  0  0  0
  7  5  1  0  0  0  0
  9  6  1  6  0  0  0
  9 10  1  0  0  0  0
  9  7  1  0  0  0  0
 10  4  1  0  0  0  0
 11 31  1  6  0  0  0
 11  2  1  0  0  0  0
 12  8  1  6  0  0  0
 12  6  1  0  0  0  0
 12 11  1  0  0  0  0
 13  1  2  0  0  0  0
 14 15  1  0  0  0  0
 15 17  2  0  0  0  0
 15 16  1  0  0  0  0
 16 18  2  0  0  0  0
 17 19  1  0  0  0  0
 18 20  1  0  0  0  0
 19 20  2  0  0  0  0
 21 13  1  0  0  0  0
 22 21  1  0  0  0  0
 23 22  1  0  0  0  0
 24 23  1  0  0  0  0
 25 24  1  0  0  0  0
 27 26  1  0  0  0  0
 27 29  1  0  0  0  0
 28 29  1  0  0  0  0
 28 25  1  0  0  0  0
 29 30  2  0  0  0  0
 31 37  1  6  0  0  0
 32 33  1  0  0  0  0
 33 34  2  0  0  0  0
 33 31  1  0  0  0  0
 35 32  1  0  0  0  0
 36 37  1  0  0  0  0
M  END
>  <MODEL>
9

>  <REMARK>
 VINA RESULT:      -6.5      3.016      7.515
  Name = 
  10 active torsions:
  status: ('A' for Active; 'I' for Inactive)
    1  A    between atoms: C_3  and  C_34
    2  A    between atoms: C_5  and  C_9
    3  A    between atoms: C_8  and  C_29
    4  A    between atoms: C_8  and  C_30
    5  A    between atoms: C_9  and  C_24
    6  A    between atoms: C_9  and  N_33
    7  A    between atoms: C_12  and  C_28
    8  A    between atoms: C_12  and  C_37
    9  A    between atoms: N_26  and  C_28
   10  A    between atoms: C_30  and  C_37
                            x       y       z     vdW  Elec       q    Type
                         _______ _______ _______ _____ _____    ______ ____

>  <TORSDO>
F 10

$$$$
