=
 OpenBabel10232410123D

 66 71  0  0  1  0  0  0  0  0999 V2000
  189.4670  174.8190  138.4290 C   0  0  0  0  0  1  0  0  0  0  0  0
  193.4030  175.7320  136.3740 C   0  0  1  0  0  3  0  0  0  0  0  0
  190.3180  175.1900  137.2190 C   0  0  2  0  0  3  0  0  0  0  0  0
  193.1130  174.5850  135.3920 C   0  0  2  0  0  3  0  0  0  0  0  0
  194.5390  176.4200  135.9530 O   0  0  0  0  0  1  0  0  0  0  0  0
  192.2440  176.7110  136.4840 C   0  0  0  0  0  2  0  0  0  0  0  0
  191.0150  173.9250  136.6770 C   0  0  2  0  0  3  0  0  0  0  0  0
  191.3090  176.3040  137.6230 C   0  0  1  0  0  3  0  0  0  0  0  0
  191.6400  174.1720  135.3050 C   0  0  0  0  0  2  0  0  0  0  0  0
  194.8370  173.3150  136.7780 N   0  0  0  0  0  2  0  0  0  0  0  0
  193.9810  172.4490  134.7740 O   0  0  0  0  0  0  0  0  0  0  0  0
  193.9950  173.3890  135.6180 C   0  0  0  0  0  0  0  0  0  0  0  0
  195.4730  170.6670  137.3660 S   0  0  0  0  0  0  0  0  0  0  0  0
  195.8020  172.2930  137.0690 C   0  0  0  0  0  0  0  0  0  0  0  0
  197.1830  172.4920  137.0960 C   0  0  0  0  0  0  0  0  0  0  0  0
  197.9060  171.3190  137.3610 C   0  0  0  0  0  3  0  0  0  0  0  0
  197.0850  170.2130  137.5470 C   0  0  0  0  0  0  0  0  0  0  0  0
  197.8800  173.7930  136.7910 C   0  0  2  0  0  3  0  0  0  0  0  0
  197.2660  174.8620  137.4490 O   0  0  0  0  0  1  0  0  0  0  0  0
  199.4530  173.9600  134.7970 C   0  0  0  0  0  1  0  0  0  0  0  0
  198.0220  174.0900  135.2930 C   0  0  0  0  0  3  0  0  0  0  0  0
  197.4660  175.4600  134.9430 C   0  0  0  0  0  1  0  0  0  0  0  0
  197.5770  168.8260  137.7890 C   0  0  0  0  0  2  0  0  0  0  0  0
  197.6470  168.8440  135.4090 O   0  0  0  0  0  1  0  0  0  0  0  0
  198.2060  168.2390  136.5380 C   0  0  1  0  0  3  0  0  0  0  0  0
  199.7000  168.4980  136.5680 C   0  0  0  0  0  2  0  0  0  0  0  0
  200.0760  169.5240  135.5170 C   0  0  0  0  0  1  0  0  0  0  0  0
  190.5430  177.5470  138.0600 C   0  0  0  0  0  2  0  0  0  0  0  0
  189.4010  178.0720  136.7490 S   0  0  0  0  0  0  0  0  0  0  0  0
  188.1470  178.4470  140.3140 C   0  0  2  0  0  3  0  0  0  0  0  0
  187.0860  178.0430  138.2000 C   0  0  0  0  0  2  0  0  0  0  0  0
  187.2820  177.4470  139.5780 C   0  0  0  0  0  2  0  0  0  0  0  0
  188.3070  178.9060  137.9330 C   0  0  1  0  0  3  0  0  0  0  0  0
  189.0330  179.0710  139.2590 C   0  0  0  0  0  2  0  0  0  0  0  0
  189.0000  177.7700  141.3740 C   0  0  0  0  0  2  0  0  0  0  0  0
  189.5390  177.8830  143.8730 C   0  0  1  0  0  3  0  0  0  0  0  0
  189.1540  178.4060  145.2840 C   0  0  1  0  0  3  0  0  0  0  0  0
  186.1340  177.8450  143.8450 C   0  0  0  0  0  2  0  0  0  0  0  0
  187.7400  178.0220  145.7770 C   0  0  2  0  0  3  0  0  0  0  0  0
  187.2100  177.1970  142.9770 C   0  0  2  0  0  3  0  0  0  0  0  0
  186.6820  178.7370  144.9520 C   0  0  0  0  0  2  0  0  0  0  0  0
  187.5140  175.7750  143.4300 C   0  0  0  0  0  1  0  0  0  0  0  0
  188.4590  178.0670  142.7710 C   0  0  2  0  0  3  0  0  0  0  0  0
  187.5190  178.3750  147.2160 C   0  0  0  0  0  0  0  0  0  0  0  0
  186.3960  178.8080  147.5850 O   0  0  0  0  0  0  0  0  0  0  0  0
  188.5470  178.2330  148.1420 O   0  0  0  0  0  1  0  0  0  0  0  0
  190.8400  178.5100  143.4560 C   0  0  0  0  0  0  0  0  0  0  0  0
  190.9820  179.8920  143.4370 O   0  0  0  0  0  1  0  0  0  0  0  0
  191.8080  177.7770  143.1210 O   0  0  0  0  0  0  0  0  0  0  0  0
  190.2360  178.0190  146.3060 C   0  0  0  0  0  2  0  0  0  0  0  0
  190.3710  176.5040  146.4520 C   0  0  0  0  0  2  0  0  0  0  0  0
  191.9750  175.5250  144.9620 O   0  0  0  0  0  1  0  0  0  0  0  0
  191.8090  176.0490  146.2450 C   0  0  0  0  0  3  0  0  0  0  0  0
  192.1590  175.0910  147.1980 O   0  0  0  0  0  1  0  0  0  0  0  0
  190.1290  172.8010  136.6080 O   0  0  0  0  0  0  0  0  0  0  0  0
  183.9410  174.7890  135.2340 C   0  0  0  0  0  2  0  0  0  0  0  0
  187.8710  171.9780  136.5290 C   0  0  0  0  0  3  0  0  0  0  0  0
  184.3520  175.8710  134.3480 N   0  0  0  0  0  2  0  0  0  0  0  0
  186.7700  175.5630  134.3850 C   0  0  0  0  0  2  0  0  0  0  0  0
  184.7500  173.5310  134.9470 C   0  0  0  0  0  2  0  0  0  0  0  0
  186.4950  172.0440  135.9360 C   0  0  0  0  0  2  0  0  0  0  0  0
  188.8160  172.8260  136.1100 C   0  0  0  0  0  0  0  0  0  0  0  0
  185.6050  176.4290  134.8380 C   0  0  0  0  0  2  0  0  0  0  0  0
  188.4560  173.8470  135.0730 C   0  0  0  0  0  2  0  0  0  0  0  0
  186.0030  173.4930  135.8180 C   0  0  1  0  0  3  0  0  0  0  0  0
  187.1280  174.5170  135.4400 C   0  0  2  0  0  3  0  0  0  0  0  0
  2  5  1  6  0  0  0
  2  6  1  0  0  0  0
  3  8  1  0  0  0  0
  3  1  1  1  0  0  0
  4 12  1  1  0  0  0
  4  2  1  0  0  0  0
  6  8  1  0  0  0  0
  7 55  1  6  0  0  0
  7  3  1  0  0  0  0
  8 28  1  6  0  0  0
  9  4  1  0  0  0  0
  9  7  1  0  0  0  0
 10 14  1  0  0  0  0
 11 12  2  0  0  0  0
 12 10  1  0  0  0  0
 13 17  1  0  0  0  0
 14 15  2  0  0  0  0
 14 13  1  0  0  0  0
 15 16  1  0  0  0  0
 16 17  2  0  0  0  0
 17 23  1  0  0  0  0
 18 15  1  0  0  0  0
 18 19  1  1  0  0  0
 20 21  1  0  0  0  0
 21 18  1  0  0  0  0
 22 21  1  0  0  0  0
 25 24  1  6  0  0  0
 25 26  1  0  0  0  0
 25 23  1  0  0  0  0
 27 26  1  0  0  0  0
 29 28  1  0  0  0  0
 30 35  1  1  0  0  0
 31 32  1  0  0  0  0
 32 30  1  0  0  0  0
 33 29  1  6  0  0  0
 33 31  1  0  0  0  0
 33 34  1  0  0  0  0
 34 30  1  0  0  0  0
 36 47  1  6  0  0  0
 36 37  1  0  0  0  0
 37 39  1  0  0  0  0
 37 50  1  1  0  0  0
 38 41  1  0  0  0  0
 39 44  1  1  0  0  0
 40 42  1  1  0  0  0
 40 38  1  0  0  0  0
 41 39  1  0  0  0  0
 43 35  1  6  0  0  0
 43 40  1  0  0  0  0
 43 36  1  0  0  0  0
 44 45  2  0  0  0  0
 44 46  1  0  0  0  0
 48 47  1  0  0  0  0
 49 47  2  0  0  0  0
 50 51  1  0  0  0  0
 52 53  1  0  0  0  0
 53 51  1  0  0  0  0
 53 54  1  0  0  0  0
 58 63  1  0  0  0  0
 58 56  1  0  0  0  0
 59 63  1  0  0  0  0
 60 56  1  0  0  0  0
 61 57  1  0  0  0  0
 62 57  2  0  0  0  0
 62 55  1  0  0  0  0
 64 66  1  0  0  0  0
 64 62  1  0  0  0  0
 65 60  1  6  0  0  0
 65 61  1  0  0  0  0
 66 59  1  6  0  0  0
 66 65  1  0  0  0  0
M  END
>  <MODEL>
1

>  <REMARK>
 VINA RESULT:      -4.5      0.000      0.000
  Name = 
  19 active torsions:
  status: ('A' for Active; 'I' for Inactive)
    1  A    between atoms: C_1  and  C_32
    2  A    between atoms: C_2  and  C_37
    3  A    between atoms: C_2  and  C_47
    4  A    between atoms: C_3  and  C_13
    5  A    between atoms: C_10  and  C_59
    6  A    between atoms: N_12  and  C_36
    7  A    between atoms: C_13  and  C_60
    8  A    between atoms: C_14  and  C_21
    9  A    between atoms: C_18  and  C_54
   10  A    between atoms: C_19  and  C_47
   11  A    between atoms: C_29  and  C_49
   12  A    between atoms: C_31  and  S_57
   13  A    between atoms: C_33  and  O_46
   14  A    between atoms: C_38  and  C_49
   15  A    between atoms: C_42  and  O_46
   16  A    between atoms: C_53  and  C_55
   17  A    between atoms: C_53  and  S_57
   18  A    between atoms: C_59  and  C_61
   19  A    between atoms: C_61  and  C_66
                            x       y       z     vdW  Elec       q    Type
                         _______ _______ _______ _____ _____    ______ ____

>  <TORSDO>
F 19

$$$$
=
 OpenBabel10232410123D

 66 71  0  0  1  0  0  0  0  0999 V2000
  189.2040  177.5050  141.3670 C   0  0  0  0  0  1  0  0  0  0  0  0
  188.1110  176.1880  137.1690 C   0  0  1  0  0  3  0  0  0  0  0  0
  189.0930  177.7110  139.8590 C   0  0  2  0  0  3  0  0  0  0  0  0
  187.1940  177.4180  137.0620 C   0  0  2  0  0  3  0  0  0  0  0  0
  188.1770  175.5570  135.9280 O   0  0  0  0  0  1  0  0  0  0  0  0
  189.5190  176.5480  137.6160 C   0  0  0  0  0  2  0  0  0  0  0  0
  187.6310  178.0380  139.4940 C   0  0  2  0  0  3  0  0  0  0  0  0
  189.6340  176.4570  139.1380 C   0  0  1  0  0  3  0  0  0  0  0  0
  187.5090  178.5410  138.0570 C   0  0  0  0  0  2  0  0  0  0  0  0
  184.8850  177.5760  138.1350 N   0  0  0  0  0  2  0  0  0  0  0  0
  185.2660  176.3050  136.2010 O   0  0  0  0  0  0  0  0  0  0  0  0
  185.7340  177.0610  137.0990 C   0  0  0  0  0  0  0  0  0  0  0  0
  182.9090  175.7210  138.7800 S   0  0  0  0  0  0  0  0  0  0  0  0
  183.5080  177.2390  138.3560 C   0  0  0  0  0  0  0  0  0  0  0  0
  182.4510  178.1480  138.3040 C   0  0  0  0  0  0  0  0  0  0  0  0
  181.2080  177.5710  138.6040 C   0  0  0  0  0  3  0  0  0  0  0  0
  181.3010  176.2120  138.8820 C   0  0  0  0  0  0  0  0  0  0  0  0
  182.5880  179.6260  138.0440 C   0  0  2  0  0  3  0  0  0  0  0  0
  183.2930  180.2570  139.0740 O   0  0  0  0  0  1  0  0  0  0  0  0
  180.8110  180.2540  136.3340 C   0  0  0  0  0  1  0  0  0  0  0  0
  181.2570  180.3430  137.7840 C   0  0  0  0  0  3  0  0  0  0  0  0
  181.3090  181.7930  138.2320 C   0  0  0  0  0  1  0  0  0  0  0  0
  180.1520  175.3510  139.2850 C   0  0  0  0  0  2  0  0  0  0  0  0
  179.9820  173.2800  140.4490 O   0  0  0  0  0  1  0  0  0  0  0  0
  180.5510  173.8860  139.3260 C   0  0  1  0  0  3  0  0  0  0  0  0
  180.0510  173.2020  138.0690 C   0  0  0  0  0  2  0  0  0  0  0  0
  180.9690  173.5120  136.9020 C   0  0  0  0  0  1  0  0  0  0  0  0
  191.1050  176.2540  139.4800 C   0  0  0  0  0  2  0  0  0  0  0  0
  192.1260  176.4440  137.9890 S   0  0  0  0  0  0  0  0  0  0  0  0
  194.0290  173.5590  136.4140 C   0  0  2  0  0  3  0  0  0  0  0  0
  191.7030  174.0770  136.6920 C   0  0  0  0  0  2  0  0  0  0  0  0
  192.7550  173.8060  135.6370 C   0  0  0  0  0  2  0  0  0  0  0  0
  192.4390  174.6600  137.8860 C   0  0  1  0  0  3  0  0  0  0  0  0
  193.9220  174.4210  137.6530 C   0  0  0  0  0  2  0  0  0  0  0  0
  195.2560  173.9560  135.6100 C   0  0  0  0  0  2  0  0  0  0  0  0
  195.7810  171.5400  136.2690 C   0  0  1  0  0  3  0  0  0  0  0  0
  196.7360  170.3200  136.1600 C   0  0  1  0  0  3  0  0  0  0  0  0
  198.8740  172.9530  136.0900 C   0  0  0  0  0  2  0  0  0  0  0  0
  198.2000  170.5770  136.5860 C   0  0  2  0  0  3  0  0  0  0  0  0
  197.4990  173.4590  136.5190 C   0  0  2  0  0  3  0  0  0  0  0  0
  198.8800  171.5100  135.5970 C   0  0  0  0  0  2  0  0  0  0  0  0
  197.3110  173.3590  138.0270 C   0  0  0  0  0  1  0  0  0  0  0  0
  196.3330  172.8780  135.7040 C   0  0  2  0  0  3  0  0  0  0  0  0
  199.0050  169.3160  136.6580 C   0  0  0  0  0  0  0  0  0  0  0  0
  199.4650  168.8100  135.6000 O   0  0  0  0  0  0  0  0  0  0  0  0
  199.2440  168.7010  137.8810 O   0  0  0  0  0  1  0  0  0  0  0  0
  194.4660  171.1920  135.6280 C   0  0  0  0  0  0  0  0  0  0  0  0
  193.3210  171.0460  136.4030 O   0  0  0  0  0  1  0  0  0  0  0  0
  194.4010  171.0300  134.3810 O   0  0  0  0  0  0  0  0  0  0  0  0
  196.1350  169.1100  136.8960 C   0  0  0  0  0  2  0  0  0  0  0  0
  195.9570  169.3770  138.3890 C   0  0  0  0  0  2  0  0  0  0  0  0
  193.6780  168.7930  137.9170 O   0  0  0  0  0  1  0  0  0  0  0  0
  194.6580  168.7790  138.9120 C   0  0  0  0  0  3  0  0  0  0  0  0
  194.2100  169.4860  140.0290 O   0  0  0  0  0  1  0  0  0  0  0  0
  187.0440  178.9910  140.3900 O   0  0  0  0  0  0  0  0  0  0  0  0
  182.1210  179.0280  144.8500 C   0  0  0  0  0  2  0  0  0  0  0  0
  186.6660  178.9180  142.7630 C   0  0  0  0  0  3  0  0  0  0  0  0
  181.1230  178.4840  143.9380 N   0  0  0  0  0  2  0  0  0  0  0  0
  182.4950  178.1460  141.9510 C   0  0  0  0  0  2  0  0  0  0  0  0
  183.4360  178.2710  144.7110 C   0  0  0  0  0  2  0  0  0  0  0  0
  185.7880  178.5370  143.9170 C   0  0  0  0  0  2  0  0  0  0  0  0
  186.2590  178.6800  141.5120 C   0  0  0  0  0  0  0  0  0  0  0  0
  181.3960  178.9780  142.5940 C   0  0  0  0  0  2  0  0  0  0  0  0
  184.9090  178.0640  141.3010 C   0  0  0  0  0  2  0  0  0  0  0  0
  184.3270  178.9370  143.6670 C   0  0  1  0  0  3  0  0  0  0  0  0
  183.8700  178.7720  142.1760 C   0  0  2  0  0  3  0  0  0  0  0  0
  2  5  1  6  0  0  0
  2  6  1  0  0  0  0
  3  1  1  1  0  0  0
  4 12  1  1  0  0  0
  4  2  1  0  0  0  0
  4  9  1  0  0  0  0
  6  8  1  0  0  0  0
  7  3  1  0  0  0  0
  7 55  1  1  0  0  0
  8 28  1  6  0  0  0
  8  3  1  0  0  0  0
  9  7  1  0  0  0  0
 10 14  1  0  0  0  0
 11 12  2  0  0  0  0
 12 10  1  0  0  0  0
 13 17  1  0  0  0  0
 14 13  1  0  0  0  0
 15 14  2  0  0  0  0
 15 16  1  0  0  0  0
 16 17  2  0  0  0  0
 17 23  1  0  0  0  0
 18 15  1  0  0  0  0
 18 19  1  1  0  0  0
 20 21  1  0  0  0  0
 21 18  1  0  0  0  0
 21 22  1  0  0  0  0
 23 25  1  0  0  0  0
 25 24  1  1  0  0  0
 26 25  1  0  0  0  0
 27 26  1  0  0  0  0
 29 28  1  0  0  0  0
 30 35  1  6  0  0  0
 30 34  1  0  0  0  0
 31 33  1  0  0  0  0
 32 30  1  0  0  0  0
 32 31  1  0  0  0  0
 33 29  1  6  0  0  0
 34 33  1  0  0  0  0
 36 47  1  6  0  0  0
 37 36  1  0  0  0  0
 37 39  1  0  0  0  0
 37 50  1  1  0  0  0
 38 40  1  0  0  0  0
 39 44  1  6  0  0  0
 40 42  1  1  0  0  0
 41 38  1  0  0  0  0
 41 39  1  0  0  0  0
 43 35  1  1  0  0  0
 43 36  1  0  0  0  0
 43 40  1  0  0  0  0
 44 46  1  0  0  0  0
 45 44  2  0  0  0  0
 47 48  1  0  0  0  0
 49 47  2  0  0  0  0
 50 51  1  0  0  0  0
 51 53  1  0  0  0  0
 52 53  1  0  0  0  0
 53 54  1  0  0  0  0
 55 62  1  0  0  0  0
 57 61  1  0  0  0  0
 58 56  1  0  0  0  0
 59 66  1  0  0  0  0
 59 63  1  0  0  0  0
 60 56  1  0  0  0  0
 62 57  2  0  0  0  0
 63 58  1  0  0  0  0
 64 62  1  0  0  0  0
 65 61  1  6  0  0  0
 65 60  1  0  0  0  0
 66 64  1  6  0  0  0
 66 65  1  0  0  0  0
M  END
>  <MODEL>
2

>  <REMARK>
 VINA RESULT:      -4.3      3.963     12.437
  Name = 
  19 active torsions:
  status: ('A' for Active; 'I' for Inactive)
    1  A    between atoms: C_1  and  C_32
    2  A    between atoms: C_2  and  C_37
    3  A    between atoms: C_2  and  C_47
    4  A    between atoms: C_3  and  C_13
    5  A    between atoms: C_10  and  C_59
    6  A    between atoms: N_12  and  C_36
    7  A    between atoms: C_13  and  C_60
    8  A    between atoms: C_14  and  C_21
    9  A    between atoms: C_18  and  C_54
   10  A    between atoms: C_19  and  C_47
   11  A    between atoms: C_29  and  C_49
   12  A    between atoms: C_31  and  S_57
   13  A    between atoms: C_33  and  O_46
   14  A    between atoms: C_38  and  C_49
   15  A    between atoms: C_42  and  O_46
   16  A    between atoms: C_53  and  C_55
   17  A    between atoms: C_53  and  S_57
   18  A    between atoms: C_59  and  C_61
   19  A    between atoms: C_61  and  C_66
                            x       y       z     vdW  Elec       q    Type
                         _______ _______ _______ _____ _____    ______ ____

>  <TORSDO>
F 19

$$$$
=
 OpenBabel10232410123D

 66 73  0  0  1  0  0  0  0  0999 V2000
  184.2400  177.1610  137.7590 C   0  0  0  0  0  1  0  0  0  0  0  0
  188.5940  177.3960  139.0000 C   0  0  1  0  0  3  0  0  0  0  0  0
  185.6410  177.7620  137.7070 C   0  0  2  0  0  3  0  0  0  0  0  0
  188.9850  177.2140  137.5250 C   0  0  2  0  0  3  0  0  0  0  0  0
  189.7360  177.6790  139.7460 O   0  0  0  0  0  1  0  0  0  0  0  0
  187.5820  178.5140  139.2000 C   0  0  0  0  0  2  0  0  0  0  0  0
  186.5540  176.8570  136.8530 C   0  0  2  0  0  3  0  0  0  0  0  0
  186.1580  177.9600  139.1490 C   0  0  1  0  0  3  0  0  0  0  0  0
  187.8760  177.5460  136.5210 C   0  0  0  0  0  2  0  0  0  0  0  0
  190.9170  175.7450  136.7390 N   0  0  0  0  0  2  0  0  0  0  0  0
  188.8820  174.8300  137.4610 O   0  0  0  0  0  0  0  0  0  0  0  0
  189.5780  175.8610  137.2430 C   0  0  0  0  0  0  0  0  0  0  0  0
  190.9320  173.3510  135.3130 S   0  0  0  0  0  0  0  0  0  0  0  0
  191.5720  174.5370  136.3270 C   0  0  0  0  0  0  0  0  0  0  0  0
  192.8790  174.1870  136.6700 C   0  0  0  0  0  0  0  0  0  0  0  0
  193.2960  172.9740  136.0980 C   0  0  0  0  0  3  0  0  0  0  0  0
  192.3090  172.3810  135.3200 C   0  0  0  0  0  0  0  0  0  0  0  0
  193.8180  175.0320  137.4910 C   0  0  2  0  0  3  0  0  0  0  0  0
  194.0910  176.2470  136.8560 O   0  0  0  0  0  1  0  0  0  0  0  0
  195.5540  174.6200  139.3060 C   0  0  0  0  0  1  0  0  0  0  0  0
  195.1220  174.3220  137.8800 C   0  0  0  0  0  3  0  0  0  0  0  0
  196.2440  174.6490  136.9100 C   0  0  0  0  0  1  0  0  0  0  0  0
  192.4860  171.1160  134.5500 C   0  0  0  0  0  2  0  0  0  0  0  0
  193.5090  170.2190  136.5040 O   0  0  0  0  0  1  0  0  0  0  0  0
  193.6250  170.2850  135.1130 C   0  0  1  0  0  3  0  0  0  0  0  0
  193.5530  168.8880  134.5280 C   0  0  0  0  0  2  0  0  0  0  0  0
  192.1340  168.3590  134.6060 C   0  0  0  0  0  1  0  0  0  0  0  0
  185.2550  178.9340  139.8960 C   0  0  0  0  0  2  0  0  0  0  0  0
  184.2560  178.0430  141.1250 S   0  0  0  0  0  0  0  0  0  0  0  0
  185.3120  178.7420  144.7050 C   0  0  2  0  0  3  0  0  0  0  0  0
  183.4520  179.4130  143.3480 C   0  0  0  0  0  2  0  0  0  0  0  0
  183.8020  178.6830  144.6280 C   0  0  0  0  0  2  0  0  0  0  0  0
  184.6460  179.2480  142.4240 C   0  0  1  0  0  3  0  0  0  0  0  0
  185.7930  178.7220  143.2710 C   0  0  2  0  0  0  0  0  0  0  0  0
  185.8760  177.5470  145.4580 C   0  0  0  0  0  2  0  0  0  0  0  0
  188.4310  177.6240  145.5800 C   0  0  1  0  0  3  0  0  0  0  0  0
  189.7920  177.0000  145.1660 C   0  0  1  0  0  3  0  0  0  0  0  0
  187.8690  176.4930  142.4170 C   0  0  0  0  0  2  0  0  0  0  0  0
  190.0350  176.8760  143.6430 C   0  0  2  0  0  3  0  0  0  0  0  0
  187.1450  177.4710  143.3390 C   0  0  1  0  0  0  0  0  0  0  0  0
  189.0970  175.8420  143.0420 C   0  0  0  0  0  2  0  0  0  0  0  0
  187.5590  178.9110  143.0650 C   0  0  0  0  0  2  0  0  0  0  0  0
  187.1860  177.0820  144.8240 C   0  0  2  0  0  3  0  0  0  0  0  0
  191.4390  176.4670  143.3200 C   0  0  0  0  0  0  0  0  0  0  0  0
  192.2340  177.3090  142.8230 O   0  0  0  0  0  0  0  0  0  0  0  0
  191.8680  175.1670  143.5590 O   0  0  0  0  0  1  0  0  0  0  0  0
  188.2590  177.4820  147.0660 C   0  0  0  0  0  0  0  0  0  0  0  0
  188.2190  176.2230  147.6530 O   0  0  0  0  0  0  0  0  0  0  0  0
  188.1490  178.5100  147.7840 O   0  0  0  0  0  1  0  0  0  0  0  0
  190.9470  177.7340  145.8670 C   0  0  0  0  0  2  0  0  0  0  0  0
  191.9840  176.7660  146.4320 C   0  0  0  0  0  2  0  0  0  0  0  0
  191.0010  177.4920  148.4960 O   0  0  0  0  0  1  0  0  0  0  0  0
  191.7160  176.4530  147.8970 C   0  0  0  0  0  3  0  0  0  0  0  0
  192.9170  176.2480  148.5800 O   0  0  0  0  0  1  0  0  0  0  0  0
  185.9180  176.4250  135.6440 O   0  0  0  0  0  0  0  0  0  0  0  0
  183.8870  170.1070  135.9350 C   0  0  0  0  0  2  0  0  0  0  0  0
  186.6300  174.2000  135.0750 C   0  0  0  0  0  3  0  0  0  0  0  0
  182.4670  170.4330  135.9510 N   0  0  0  0  0  2  0  0  0  0  0  0
  182.5810  172.8610  135.7580 C   0  0  0  0  0  2  0  0  0  0  0  0
  184.6140  170.9510  134.8970 C   0  0  0  0  0  2  0  0  0  0  0  0
  186.2810  172.7970  134.6770 C   0  0  0  0  0  2  0  0  0  0  0  0
  185.6570  175.0910  135.2920 C   0  0  0  0  0  0  0  0  0  0  0  0
  182.2810  171.6850  136.6750 C   0  0  0  0  0  2  0  0  0  0  0  0
  184.2320  174.6430  135.1620 C   0  0  0  0  0  2  0  0  0  0  0  0
  185.1290  172.2430  135.5260 C   0  0  1  0  0  3  0  0  0  0  0  0
  184.0370  173.3080  135.8870 C   0  0  2  0  0  3  0  0  0  0  0  0
  2  6  1  0  0  0  0
  2  5  1  1  0  0  0
  3  1  1  1  0  0  0
  3  8  1  0  0  0  0
  4 12  1  1  0  0  0
  4  2  1  0  0  0  0
  7 55  1  6  0  0  0
  7  3  1  0  0  0  0
  8  6  1  0  0  0  0
  8 28  1  1  0  0  0
  9  7  1  0  0  0  0
  9  4  1  0  0  0  0
 10 12  1  0  0  0  0
 12 11  2  0  0  0  0
 13 17  1  0  0  0  0
 13 14  1  0  0  0  0
 14 15  2  0  0  0  0
 14 10  1  0  0  0  0
 15 18  1  0  0  0  0
 16 15  1  0  0  0  0
 17 16  2  0  0  0  0
 18 19  1  6  0  0  0
 18 21  1  0  0  0  0
 21 20  1  0  0  0  0
 22 21  1  0  0  0  0
 23 25  1  0  0  0  0
 23 17  1  0  0  0  0
 25 24  1  1  0  0  0
 26 27  1  0  0  0  0
 26 25  1  0  0  0  0
 28 29  1  0  0  0  0
 30 32  1  6  0  0  0
 30 35  1  0  0  0  0
 31 32  1  0  0  0  0
 33 29  1  6  0  0  0
 33 34  1  0  0  0  0
 33 31  1  0  0  0  0
 34 42  1  1  0  0  0
 34 40  1  0  0  0  0
 34 30  1  0  0  0  0
 36 47  1  1  0  0  0
 37 36  1  0  0  0  0
 37 50  1  6  0  0  0
 38 41  1  0  0  0  0
 39 44  1  1  0  0  0
 39 37  1  0  0  0  0
 40 38  1  6  0  0  0
 40 43  1  0  0  0  0
 41 39  1  0  0  0  0
 42 40  1  0  0  0  0
 43 35  1  1  0  0  0
 43 36  1  0  0  0  0
 44 46  1  0  0  0  0
 45 44  2  0  0  0  0
 47 48  2  0  0  0  0
 47 49  1  0  0  0  0
 50 51  1  0  0  0  0
 51 53  1  0  0  0  0
 53 52  1  0  0  0  0
 53 54  1  0  0  0  0
 56 58  1  0  0  0  0
 57 62  2  0  0  0  0
 58 63  1  0  0  0  0
 59 66  1  0  0  0  0
 59 63  1  0  0  0  0
 60 65  1  0  0  0  0
 60 56  1  0  0  0  0
 61 57  1  0  0  0  0
 62 55  1  0  0  0  0
 64 62  1  0  0  0  0
 65 61  1  6  0  0  0
 65 66  1  0  0  0  0
 66 64  1  6  0  0  0
M  END
>  <MODEL>
3

>  <REMARK>
 VINA RESULT:      -3.7      2.674      4.923
  Name = 
  19 active torsions:
  status: ('A' for Active; 'I' for Inactive)
    1  A    between atoms: C_1  and  C_32
    2  A    between atoms: C_2  and  C_37
    3  A    between atoms: C_2  and  C_47
    4  A    between atoms: C_3  and  C_13
    5  A    between atoms: C_10  and  C_59
    6  A    between atoms: N_12  and  C_36
    7  A    between atoms: C_13  and  C_60
    8  A    between atoms: C_14  and  C_21
    9  A    between atoms: C_18  and  C_54
   10  A    between atoms: C_19  and  C_47
   11  A    between atoms: C_29  and  C_49
   12  A    between atoms: C_31  and  S_57
   13  A    between atoms: C_33  and  O_46
   14  A    between atoms: C_38  and  C_49
   15  A    between atoms: C_42  and  O_46
   16  A    between atoms: C_53  and  C_55
   17  A    between atoms: C_53  and  S_57
   18  A    between atoms: C_59  and  C_61
   19  A    between atoms: C_61  and  C_66
                            x       y       z     vdW  Elec       q    Type
                         _______ _______ _______ _____ _____    ______ ____

>  <TORSDO>
F 19

$$$$
=
 OpenBabel10232410123D

 66 71  0  0  1  0  0  0  0  0999 V2000
  185.5090  177.7250  138.9650 C   0  0  0  0  0  1  0  0  0  0  0  0
  190.0120  177.2870  139.2600 C   0  0  1  0  0  3  0  0  0  0  0  0
  186.9430  178.1900  138.7250 C   0  0  2  0  0  3  0  0  0  0  0  0
  190.0840  177.3810  137.7280 C   0  0  2  0  0  3  0  0  0  0  0  0
  191.3040  177.3000  139.7820 O   0  0  0  0  0  1  0  0  0  0  0  0
  189.2180  178.4280  139.8770 C   0  0  0  0  0  2  0  0  0  0  0  0
  187.5440  177.4020  137.5420 C   0  0  2  0  0  3  0  0  0  0  0  0
  187.7490  178.0320  140.0320 C   0  0  1  0  0  3  0  0  0  0  0  0
  188.8570  178.0180  137.0660 C   0  0  0  0  0  2  0  0  0  0  0  0
  191.7670  175.5640  137.1180 N   0  0  0  0  0  2  0  0  0  0  0  0
  189.5090  175.4140  136.5040 O   0  0  0  0  0  0  0  0  0  0  0  0
  190.4240  176.0680  137.0790 C   0  0  0  0  0  0  0  0  0  0  0  0
  191.3230  173.2130  135.6900 S   0  0  0  0  0  0  0  0  0  0  0  0
  192.2570  174.3880  136.4570 C   0  0  0  0  0  0  0  0  0  0  0  0
  193.6070  174.0690  136.3040 C   0  0  0  0  0  0  0  0  0  0  0  0
  193.8180  172.8870  135.5790 C   0  0  0  0  0  3  0  0  0  0  0  0
  192.6320  172.2860  135.1760 C   0  0  0  0  0  0  0  0  0  0  0  0
  194.7600  174.9190  136.7730 C   0  0  2  0  0  3  0  0  0  0  0  0
  195.2430  175.7290  135.7410 O   0  0  0  0  0  1  0  0  0  0  0  0
  195.6850  173.8670  138.8980 C   0  0  0  0  0  1  0  0  0  0  0  0
  195.9040  174.1240  137.4160 C   0  0  0  0  0  3  0  0  0  0  0  0
  197.2450  174.8000  137.1910 C   0  0  0  0  0  1  0  0  0  0  0  0
  192.5490  171.0490  134.3460 C   0  0  0  0  0  2  0  0  0  0  0  0
  191.0400  169.2070  134.3580 O   0  0  0  0  0  1  0  0  0  0  0  0
  191.9740  169.8910  135.1420 C   0  0  1  0  0  3  0  0  0  0  0  0
  193.0980  168.9520  135.5310 C   0  0  0  0  0  2  0  0  0  0  0  0
  194.2640  169.1030  134.5740 C   0  0  0  0  0  1  0  0  0  0  0  0
  187.1460  178.9090  141.1240 C   0  0  0  0  0  2  0  0  0  0  0  0
  185.3810  179.1880  140.7970 S   0  0  0  0  0  0  0  0  0  0  0  0
  186.4130  178.5860  144.4020 C   0  0  2  0  0  3  0  0  0  0  0  0
  185.2780  177.2750  142.7450 C   0  0  0  0  0  2  0  0  0  0  0  0
  186.5080  177.2900  143.6280 C   0  0  0  0  0  2  0  0  0  0  0  0
  184.9190  178.7290  142.4910 C   0  0  1  0  0  3  0  0  0  0  0  0
  185.7220  179.5630  143.4760 C   0  0  0  0  0  2  0  0  0  0  0  0
  187.7890  179.1120  144.7770 C   0  0  0  0  0  2  0  0  0  0  0  0
  189.3870  177.6500  146.1380 C   0  0  1  0  0  3  0  0  0  0  0  0
  190.2480  176.3590  146.2240 C   0  0  1  0  0  3  0  0  0  0  0  0
  190.5180  177.2250  142.9540 C   0  0  0  0  0  2  0  0  0  0  0  0
  191.3060  176.1870  145.1090 C   0  0  2  0  0  3  0  0  0  0  0  0
  189.9020  178.3970  143.7150 C   0  0  2  0  0  3  0  0  0  0  0  0
  190.6280  175.9420  143.7710 C   0  0  0  0  0  2  0  0  0  0  0  0
  190.9720  179.3190  144.2830 C   0  0  0  0  0  1  0  0  0  0  0  0
  188.8240  177.9900  144.7310 C   0  0  2  0  0  3  0  0  0  0  0  0
  192.2330  175.0400  145.3720 C   0  0  0  0  0  0  0  0  0  0  0  0
  192.8980  175.0090  146.4420 O   0  0  0  0  0  1  0  0  0  0  0  0
  192.3650  174.0130  144.4440 O   0  0  0  0  0  0  0  0  0  0  0  0
  188.2800  177.5680  147.1520 C   0  0  0  0  0  0  0  0  0  0  0  0
  188.1380  178.5540  148.1210 O   0  0  0  0  0  1  0  0  0  0  0  0
  187.4760  176.5990  147.1230 O   0  0  0  0  0  0  0  0  0  0  0  0
  190.8710  176.2290  147.6230 C   0  0  0  0  0  2  0  0  0  0  0  0
  191.6670  177.4730  148.0140 C   0  0  0  0  0  2  0  0  0  0  0  0
  193.0480  178.4320  149.7260 O   0  0  0  0  0  1  0  0  0  0  0  0
  192.4990  177.2320  149.2670 C   0  0  0  0  0  3  0  0  0  0  0  0
  193.5180  176.3140  149.0070 O   0  0  0  0  0  1  0  0  0  0  0  0
  186.6340  177.2940  136.4400 O   0  0  0  0  0  0  0  0  0  0  0  0
  181.5710  173.0090  136.8080 C   0  0  0  0  0  2  0  0  0  0  0  0
  186.1690  174.9350  136.3950 C   0  0  0  0  0  3  0  0  0  0  0  0
  180.5720  173.9560  136.3290 N   0  0  0  0  0  2  0  0  0  0  0  0
  181.9870  175.8940  135.8980 C   0  0  0  0  0  2  0  0  0  0  0  0
  182.8370  173.1020  135.9650 C   0  0  0  0  0  2  0  0  0  0  0  0
  185.2280  173.8130  136.0740 C   0  0  0  0  0  2  0  0  0  0  0  0
  185.7910  176.2000  136.1820 C   0  0  0  0  0  0  0  0  0  0  0  0
  180.9240  175.2880  136.8030 C   0  0  0  0  0  2  0  0  0  0  0  0
  184.4120  176.4590  135.6570 C   0  0  0  0  0  2  0  0  0  0  0  0
  183.8060  174.1140  136.5690 C   0  0  1  0  0  3  0  0  0  0  0  0
  183.3920  175.6200  136.4330 C   0  0  2  0  0  3  0  0  0  0  0  0
  2  5  1  1  0  0  0
  2  6  1  0  0  0  0
  3  1  1  1  0  0  0
  3  8  1  0  0  0  0
  4 12  1  6  0  0  0
  4  2  1  0  0  0  0
  6  8  1  0  0  0  0
  7 55  1  6  0  0  0
  7  3  1  0  0  0  0
  8 28  1  1  0  0  0
  9  7  1  0  0  0  0
  9  4  1  0  0  0  0
 11 12  2  0  0  0  0
 12 10  1  0  0  0  0
 13 14  1  0  0  0  0
 14 10  1  0  0  0  0
 15 14  2  0  0  0  0
 15 18  1  0  0  0  0
 16 15  1  0  0  0  0
 17 16  2  0  0  0  0
 17 13  1  0  0  0  0
 18 19  1  6  0  0  0
 18 21  1  0  0  0  0
 21 20  1  0  0  0  0
 22 21  1  0  0  0  0
 23 25  1  0  0  0  0
 23 17  1  0  0  0  0
 25 24  1  6  0  0  0
 25 26  1  0  0  0  0
 27 26  1  0  0  0  0
 29 28  1  0  0  0  0
 30 35  1  6  0  0  0
 31 32  1  0  0  0  0
 32 30  1  0  0  0  0
 33 29  1  6  0  0  0
 33 31  1  0  0  0  0
 33 34  1  0  0  0  0
 34 30  1  0  0  0  0
 36 37  1  0  0  0  0
 36 47  1  1  0  0  0
 37 50  1  1  0  0  0
 38 40  1  0  0  0  0
 38 41  1  0  0  0  0
 39 44  1  1  0  0  0
 39 37  1  0  0  0  0
 40 42  1  1  0  0  0
 40 43  1  0  0  0  0
 41 39  1  0  0  0  0
 43 35  1  1  0  0  0
 43 36  1  0  0  0  0
 44 45  1  0  0  0  0
 46 44  2  0  0  0  0
 47 48  1  0  0  0  0
 49 47  2  0  0  0  0
 50 51  1  0  0  0  0
 51 53  1  0  0  0  0
 53 52  1  0  0  0  0
 54 53  1  0  0  0  0
 58 63  1  0  0  0  0
 58 56  1  0  0  0  0
 59 66  1  0  0  0  0
 59 63  1  0  0  0  0
 60 56  1  0  0  0  0
 61 57  1  0  0  0  0
 61 65  1  0  0  0  0
 62 57  2  0  0  0  0
 62 55  1  0  0  0  0
 64 62  1  0  0  0  0
 65 60  1  6  0  0  0
 66 64  1  6  0  0  0
 66 65  1  0  0  0  0
M  END
>  <MODEL>
4

>  <REMARK>
 VINA RESULT:      -3.2      2.653      4.718
  Name = 
  19 active torsions:
  status: ('A' for Active; 'I' for Inactive)
    1  A    between atoms: C_1  and  C_32
    2  A    between atoms: C_2  and  C_37
    3  A    between atoms: C_2  and  C_47
    4  A    between atoms: C_3  and  C_13
    5  A    between atoms: C_10  and  C_59
    6  A    between atoms: N_12  and  C_36
    7  A    between atoms: C_13  and  C_60
    8  A    between atoms: C_14  and  C_21
    9  A    between atoms: C_18  and  C_54
   10  A    between atoms: C_19  and  C_47
   11  A    between atoms: C_29  and  C_49
   12  A    between atoms: C_31  and  S_57
   13  A    between atoms: C_33  and  O_46
   14  A    between atoms: C_38  and  C_49
   15  A    between atoms: C_42  and  O_46
   16  A    between atoms: C_53  and  C_55
   17  A    between atoms: C_53  and  S_57
   18  A    between atoms: C_59  and  C_61
   19  A    between atoms: C_61  and  C_66
                            x       y       z     vdW  Elec       q    Type
                         _______ _______ _______ _____ _____    ______ ____

>  <TORSDO>
F 19

$$$$
=
 OpenBabel10232410123D

 66 71  0  0  1  0  0  0  0  0999 V2000
  190.2730  175.5990  139.1000 C   0  0  0  0  0  1  0  0  0  0  0  0
  187.4550  178.1110  136.5900 C   0  0  1  0  0  3  0  0  0  0  0  0
  189.7140  176.9250  138.5930 C   0  0  2  0  0  3  0  0  0  0  0  0
  186.9700  178.7900  137.8810 C   0  0  2  0  0  3  0  0  0  0  0  0
  186.8960  178.7620  135.4920 O   0  0  0  0  0  1  0  0  0  0  0  0
  188.9700  178.1280  136.4570 C   0  0  0  0  0  2  0  0  0  0  0  0
  188.3850  177.2290  139.3130 C   0  0  2  0  0  3  0  0  0  0  0  0
  189.5720  176.8570  137.0560 C   0  0  1  0  0  3  0  0  0  0  0  0
  187.9290  178.6660  139.0700 C   0  0  0  0  0  2  0  0  0  0  0  0
  184.6900  179.3110  138.8990 N   0  0  0  0  0  2  0  0  0  0  0  0
  185.1990  177.1950  138.0260 O   0  0  0  0  0  0  0  0  0  0  0  0
  185.5770  178.3760  138.2680 C   0  0  0  0  0  0  0  0  0  0  0  0
  182.9910  177.8490  140.5540 S   0  0  0  0  0  0  0  0  0  0  0  0
  183.3810  179.0310  139.4160 C   0  0  0  0  0  0  0  0  0  0  0  0
  182.2280  179.7440  139.0850 C   0  0  0  0  0  0  0  0  0  0  0  0
  181.0850  179.2960  139.7650 C   0  0  0  0  0  3  0  0  0  0  0  0
  181.3510  178.2310  140.6170 C   0  0  0  0  0  0  0  0  0  0  0  0
  182.1780  180.9370  138.1660 C   0  0  2  0  0  3  0  0  0  0  0  0
  182.4940  182.1150  138.8500 O   0  0  0  0  0  1  0  0  0  0  0  0
  180.8060  180.2820  136.1250 C   0  0  0  0  0  1  0  0  0  0  0  0
  180.8520  181.0910  137.4110 C   0  0  0  0  0  3  0  0  0  0  0  0
  180.5390  182.5500  137.1270 C   0  0  0  0  0  1  0  0  0  0  0  0
  180.3410  177.5860  141.5050 C   0  0  0  0  0  2  0  0  0  0  0  0
  181.2240  177.5800  143.7170 O   0  0  0  0  0  1  0  0  0  0  0  0
  180.3210  178.2370  142.8770 C   0  0  1  0  0  3  0  0  0  0  0  0
  180.7190  179.6930  142.7390 C   0  0  0  0  0  2  0  0  0  0  0  0
  182.1070  179.9140  143.3080 C   0  0  0  0  0  1  0  0  0  0  0  0
  190.9380  176.6450  136.4160 C   0  0  0  0  0  2  0  0  0  0  0  0
  190.7860  175.5690  134.9600 S   0  0  0  0  0  0  0  0  0  0  0  0
  193.6420  173.0760  135.1970 C   0  0  2  0  0  3  0  0  0  0  0  0
  191.2540  172.8800  135.0830 C   0  0  0  0  0  2  0  0  0  0  0  0
  192.5260  172.4860  134.3630 C   0  0  0  0  0  2  0  0  0  0  0  0
  191.5640  174.1720  135.8180 C   0  0  1  0  0  3  0  0  0  0  0  0
  193.0740  174.3440  135.7950 C   0  0  0  0  0  2  0  0  0  0  0  0
  194.8580  173.4040  134.3460 C   0  0  0  0  0  2  0  0  0  0  0  0
  195.7020  173.7170  136.7410 C   0  0  1  0  0  3  0  0  0  0  0  0
  196.9110  173.8690  137.7060 C   0  0  1  0  0  3  0  0  0  0  0  0
  197.9770  175.4720  134.9130 C   0  0  0  0  0  2  0  0  0  0  0  0
  197.8740  175.0360  137.3910 C   0  0  2  0  0  3  0  0  0  0  0  0
  196.4780  175.2180  134.7800 C   0  0  2  0  0  3  0  0  0  0  0  0
  198.6260  174.7650  136.0970 C   0  0  0  0  0  2  0  0  0  0  0  0
  195.6620  176.3480  135.3940 C   0  0  0  0  0  1  0  0  0  0  0  0
  196.0360  173.8160  135.2270 C   0  0  2  0  0  3  0  0  0  0  0  0
  198.8860  175.2510  138.4750 C   0  0  0  0  0  0  0  0  0  0  0  0
  198.5270  175.7560  139.5710 O   0  0  0  0  0  1  0  0  0  0  0  0
  200.2170  174.8990  138.2760 O   0  0  0  0  0  0  0  0  0  0  0  0
  194.9890  172.4300  137.0480 C   0  0  0  0  0  0  0  0  0  0  0  0
  195.3870  171.2420  136.4460 O   0  0  0  0  0  0  0  0  0  0  0  0
  194.0230  172.4280  137.8570 O   0  0  0  0  0  1  0  0  0  0  0  0
  196.4220  173.9130  139.1630 C   0  0  0  0  0  2  0  0  0  0  0  0
  195.0190  174.5040  139.2800 C   0  0  0  0  0  2  0  0  0  0  0  0
  195.5390  176.3700  140.6950 O   0  0  0  0  0  1  0  0  0  0  0  0
  195.0610  176.0190  139.4310 C   0  0  0  0  0  3  0  0  0  0  0  0
  193.7910  176.5640  139.2360 O   0  0  0  0  0  1  0  0  0  0  0  0
  188.4570  176.9780  140.7220 O   0  0  0  0  0  0  0  0  0  0  0  0
  185.3330  178.3940  146.4110 C   0  0  0  0  0  2  0  0  0  0  0  0
  186.4530  178.0170  141.5510 C   0  0  0  0  0  3  0  0  0  0  0  0
  186.5460  178.4070  147.2190 N   0  0  0  0  0  2  0  0  0  0  0  0
  188.2180  177.9920  145.4940 C   0  0  0  0  0  2  0  0  0  0  0  0
  185.5600  179.1360  145.1010 C   0  0  0  0  0  2  0  0  0  0  0  0
  185.7470  178.7710  142.6380 C   0  0  0  0  0  2  0  0  0  0  0  0
  187.7330  177.6640  141.7110 C   0  0  0  0  0  0  0  0  0  0  0  0
  187.4740  177.4160  146.6890 C   0  0  0  0  0  2  0  0  0  0  0  0
  188.4170  178.0070  143.0000 C   0  0  0  0  0  2  0  0  0  0  0  0
  186.0440  178.1730  144.0200 C   0  0  1  0  0  3  0  0  0  0  0  0
  187.5120  177.6480  144.1830 C   0  0  2  0  0  3  0  0  0  0  0  0
  2  5  1  6  0  0  0
  2  4  1  0  0  0  0
  3  1  1  1  0  0  0
  3  7  1  0  0  0  0
  4 12  1  1  0  0  0
  4  9  1  0  0  0  0
  6  2  1  0  0  0  0
  6  8  1  0  0  0  0
  7 55  1  1  0  0  0
  8 28  1  6  0  0  0
  8  3  1  0  0  0  0
  9  7  1  0  0  0  0
 10 14  1  0  0  0  0
 11 12  2  0  0  0  0
 12 10  1  0  0  0  0
 13 17  1  0  0  0  0
 14 13  1  0  0  0  0
 15 14  2  0  0  0  0
 15 16  1  0  0  0  0
 16 17  2  0  0  0  0
 17 23  1  0  0  0  0
 18 19  1  1  0  0  0
 18 15  1  0  0  0  0
 20 21  1  0  0  0  0
 21 18  1  0  0  0  0
 22 21  1  0  0  0  0
 23 25  1  0  0  0  0
 25 24  1  1  0  0  0
 26 25  1  0  0  0  0
 26 27  1  0  0  0  0
 29 28  1  0  0  0  0
 30 35  1  6  0  0  0
 30 34  1  0  0  0  0
 31 33  1  0  0  0  0
 32 31  1  0  0  0  0
 32 30  1  0  0  0  0
 33 29  1  6  0  0  0
 34 33  1  0  0  0  0
 36 47  1  6  0  0  0
 36 37  1  0  0  0  0
 37 50  1  1  0  0  0
 38 41  1  0  0  0  0
 39 37  1  0  0  0  0
 39 44  1  1  0  0  0
 40 38  1  0  0  0  0
 40 43  1  0  0  0  0
 40 42  1  1  0  0  0
 41 39  1  0  0  0  0
 43 35  1  6  0  0  0
 43 36  1  0  0  0  0
 44 45  1  0  0  0  0
 46 44  2  0  0  0  0
 47 49  1  0  0  0  0
 48 47  2  0  0  0  0
 50 51  1  0  0  0  0
 51 53  1  0  0  0  0
 53 52  1  0  0  0  0
 54 53  1  0  0  0  0
 55 62  1  0  0  0  0
 56 58  1  0  0  0  0
 57 62  2  0  0  0  0
 57 61  1  0  0  0  0
 59 63  1  0  0  0  0
 60 56  1  0  0  0  0
 62 64  1  0  0  0  0
 63 58  1  0  0  0  0
 65 61  1  6  0  0  0
 65 66  1  0  0  0  0
 65 60  1  0  0  0  0
 66 64  1  6  0  0  0
 66 59  1  0  0  0  0
M  END
>  <MODEL>
5

>  <REMARK>
 VINA RESULT:      -2.5      4.113     12.438
  Name = 
  19 active torsions:
  status: ('A' for Active; 'I' for Inactive)
    1  A    between atoms: C_1  and  C_32
    2  A    between atoms: C_2  and  C_37
    3  A    between atoms: C_2  and  C_47
    4  A    between atoms: C_3  and  C_13
    5  A    between atoms: C_10  and  C_59
    6  A    between atoms: N_12  and  C_36
    7  A    between atoms: C_13  and  C_60
    8  A    between atoms: C_14  and  C_21
    9  A    between atoms: C_18  and  C_54
   10  A    between atoms: C_19  and  C_47
   11  A    between atoms: C_29  and  C_49
   12  A    between atoms: C_31  and  S_57
   13  A    between atoms: C_33  and  O_46
   14  A    between atoms: C_38  and  C_49
   15  A    between atoms: C_42  and  O_46
   16  A    between atoms: C_53  and  C_55
   17  A    between atoms: C_53  and  S_57
   18  A    between atoms: C_59  and  C_61
   19  A    between atoms: C_61  and  C_66
                            x       y       z     vdW  Elec       q    Type
                         _______ _______ _______ _____ _____    ______ ____

>  <TORSDO>
F 19

$$$$
=
 OpenBabel10232410123D

 66 71  0  0  1  0  0  0  0  0999 V2000
  185.5380  177.8710  139.5100 C   0  0  0  0  0  1  0  0  0  0  0  0
  189.9980  177.3260  140.1150 C   0  0  1  0  0  3  0  0  0  0  0  0
  186.9960  178.2990  139.3650 C   0  0  2  0  0  3  0  0  0  0  0  0
  190.1760  177.4060  138.5900 C   0  0  2  0  0  3  0  0  0  0  0  0
  191.2520  177.3110  140.7230 O   0  0  0  0  0  1  0  0  0  0  0  0
  189.1920  178.4900  140.6690 C   0  0  0  0  0  2  0  0  0  0  0  0
  187.6560  177.4880  138.2310 C   0  0  2  0  0  3  0  0  0  0  0  0
  187.7070  178.1320  140.7260 C   0  0  1  0  0  3  0  0  0  0  0  0
  189.0140  178.0680  137.8420 C   0  0  0  0  0  2  0  0  0  0  0  0
  191.7530  175.9180  137.2460 N   0  0  0  0  0  2  0  0  0  0  0  0
  189.7290  175.1110  138.1120 O   0  0  0  0  0  0  0  0  0  0  0  0
  190.5270  176.0800  137.9740 C   0  0  0  0  0  0  0  0  0  0  0  0
  193.2050  173.5470  137.0770 S   0  0  0  0  0  0  0  0  0  0  0  0
  192.1670  174.7520  136.5190 C   0  0  0  0  0  0  0  0  0  0  0  0
  191.7190  174.4140  135.2410 C   0  0  0  0  0  0  0  0  0  0  0  0
  192.2420  173.1980  134.7750 C   0  0  0  0  0  3  0  0  0  0  0  0
  193.1020  172.5990  135.6880 C   0  0  0  0  0  0  0  0  0  0  0  0
  190.7090  175.1930  134.4400 C   0  0  2  0  0  3  0  0  0  0  0  0
  191.0670  176.5410  134.3490 O   0  0  0  0  0  1  0  0  0  0  0  0
  188.5690  173.8150  134.3960 C   0  0  0  0  0  1  0  0  0  0  0  0
  189.2660  175.0510  134.9420 C   0  0  0  0  0  3  0  0  0  0  0  0
  188.4470  176.2940  134.6410 C   0  0  0  0  0  1  0  0  0  0  0  0
  193.7620  171.2760  135.4860 C   0  0  0  0  0  2  0  0  0  0  0  0
  195.3540  169.7940  136.4550 O   0  0  0  0  0  1  0  0  0  0  0  0
  195.0010  171.1430  136.3550 C   0  0  1  0  0  3  0  0  0  0  0  0
  196.1350  171.9220  135.7190 C   0  0  0  0  0  2  0  0  0  0  0  0
  197.3290  171.9660  136.6540 C   0  0  0  0  0  1  0  0  0  0  0  0
  187.0530  179.0310  141.7680 C   0  0  0  0  0  2  0  0  0  0  0  0
  185.2630  179.1350  141.4690 S   0  0  0  0  0  0  0  0  0  0  0  0
  186.4660  178.4320  145.0030 C   0  0  2  0  0  3  0  0  0  0  0  0
  185.1850  177.1970  143.3930 C   0  0  0  0  0  2  0  0  0  0  0  0
  186.4610  177.1450  144.2060 C   0  0  0  0  0  2  0  0  0  0  0  0
  184.8760  178.6690  143.1800 C   0  0  1  0  0  3  0  0  0  0  0  0
  185.7690  179.4520  144.1300 C   0  0  0  0  0  2  0  0  0  0  0  0
  187.8820  178.8910  145.3070 C   0  0  0  0  0  2  0  0  0  0  0  0
  189.6420  177.4320  146.4570 C   0  0  1  0  0  3  0  0  0  0  0  0
  190.4730  176.1190  146.4570 C   0  0  1  0  0  3  0  0  0  0  0  0
  190.2370  176.8550  143.1540 C   0  0  0  0  0  2  0  0  0  0  0  0
  191.3350  175.8740  145.1970 C   0  0  2  0  0  3  0  0  0  0  0  0
  189.7800  178.0720  143.9530 C   0  0  2  0  0  3  0  0  0  0  0  0
  190.4450  175.6010  143.9950 C   0  0  0  0  0  2  0  0  0  0  0  0
  190.9490  178.9820  144.3050 C   0  0  0  0  0  1  0  0  0  0  0  0
  188.8690  177.7370  145.1440 C   0  0  2  0  0  3  0  0  0  0  0  0
  192.2630  174.7090  145.3570 C   0  0  0  0  0  0  0  0  0  0  0  0
  192.9330  174.5880  146.4160 O   0  0  0  0  0  1  0  0  0  0  0  0
  192.3910  173.7660  144.3430 O   0  0  0  0  0  0  0  0  0  0  0  0
  188.7100  177.4220  147.6360 C   0  0  0  0  0  0  0  0  0  0  0  0
  188.7170  178.4700  148.5490 O   0  0  0  0  0  1  0  0  0  0  0  0
  187.9170  176.4570  147.7980 O   0  0  0  0  0  0  0  0  0  0  0  0
  191.3090  176.0230  147.7440 C   0  0  0  0  0  2  0  0  0  0  0  0
  191.7440  177.3960  148.2510 C   0  0  0  0  0  2  0  0  0  0  0  0
  192.9120  176.1670  149.9480 O   0  0  0  0  0  1  0  0  0  0  0  0
  192.9810  177.3000  149.1340 C   0  0  0  0  0  3  0  0  0  0  0  0
  193.1070  178.4440  149.9240 O   0  0  0  0  0  1  0  0  0  0  0  0
  186.8210  177.3930  137.0700 O   0  0  0  0  0  0  0  0  0  0  0  0
  183.8790  171.8890  134.7940 C   0  0  0  0  0  2  0  0  0  0  0  0
  184.7330  176.6250  136.1580 C   0  0  0  0  0  3  0  0  0  0  0  0
  184.7180  170.9740  135.5580 N   0  0  0  0  0  2  0  0  0  0  0  0
  186.0890  172.5720  136.7870 C   0  0  0  0  0  2  0  0  0  0  0  0
  183.4370  173.0570  135.6660 C   0  0  0  0  0  2  0  0  0  0  0  0
  183.7410  175.5180  135.9630 C   0  0  0  0  0  2  0  0  0  0  0  0
  185.8640  176.3930  136.8330 C   0  0  0  0  0  0  0  0  0  0  0  0
  186.0550  171.5440  135.6670 C   0  0  0  0  0  2  0  0  0  0  0  0
  186.1200  175.0100  137.3500 C   0  0  0  0  0  2  0  0  0  0  0  0
  184.4340  174.2090  135.5590 C   0  0  1  0  0  3  0  0  0  0  0  0
  185.8180  173.9800  136.2570 C   0  0  2  0  0  3  0  0  0  0  0  0
  2  6  1  0  0  0  0
  2  5  1  1  0  0  0
  3  1  1  1  0  0  0
  3  8  1  0  0  0  0
  4 12  1  6  0  0  0
  4  2  1  0  0  0  0
  6  8  1  0  0  0  0
  7 55  1  6  0  0  0
  7  3  1  0  0  0  0
  8 28  1  1  0  0  0
  9  7  1  0  0  0  0
  9  4  1  0  0  0  0
 10 12  1  0  0  0  0
 12 11  2  0  0  0  0
 14 13  1  0  0  0  0
 14 10  1  0  0  0  0
 15 14  2  0  0  0  0
 16 15  1  0  0  0  0
 16 17  2  0  0  0  0
 17 13  1  0  0  0  0
 18 19  1  1  0  0  0
 18 21  1  0  0  0  0
 18 15  1  0  0  0  0
 20 21  1  0  0  0  0
 22 21  1  0  0  0  0
 23 17  1  0  0  0  0
 23 25  1  0  0  0  0
 25 24  1  6  0  0  0
 26 25  1  0  0  0  0
 26 27  1  0  0  0  0
 29 28  1  0  0  0  0
 30 35  1  6  0  0  0
 31 32  1  0  0  0  0
 32 30  1  0  0  0  0
 33 29  1  6  0  0  0
 33 31  1  0  0  0  0
 33 34  1  0  0  0  0
 34 30  1  0  0  0  0
 36 47  1  1  0  0  0
 37 36  1  0  0  0  0
 37 50  1  1  0  0  0
 38 40  1  0  0  0  0
 38 41  1  0  0  0  0
 39 44  1  1  0  0  0
 39 37  1  0  0  0  0
 40 42  1  1  0  0  0
 40 43  1  0  0  0  0
 41 39  1  0  0  0  0
 43 35  1  1  0  0  0
 43 36  1  0  0  0  0
 44 45  1  0  0  0  0
 46 44  2  0  0  0  0
 47 49  2  0  0  0  0
 47 48  1  0  0  0  0
 50 51  1  0  0  0  0
 51 53  1  0  0  0  0
 53 54  1  0  0  0  0
 53 52  1  0  0  0  0
 56 58  1  0  0  0  0
 56 60  1  0  0  0  0
 57 62  2  0  0  0  0
 58 63  1  0  0  0  0
 61 57  1  0  0  0  0
 62 55  1  0  0  0  0
 62 64  1  0  0  0  0
 63 59  1  0  0  0  0
 65 60  1  1  0  0  0
 65 61  1  0  0  0  0
 65 66  1  0  0  0  0
 66 59  1  1  0  0  0
 66 64  1  0  0  0  0
M  END
>  <MODEL>
6

>  <REMARK>
 VINA RESULT:      -2.4      2.330      5.243
  Name = 
  19 active torsions:
  status: ('A' for Active; 'I' for Inactive)
    1  A    between atoms: C_1  and  C_32
    2  A    between atoms: C_2  and  C_37
    3  A    between atoms: C_2  and  C_47
    4  A    between atoms: C_3  and  C_13
    5  A    between atoms: C_10  and  C_59
    6  A    between atoms: N_12  and  C_36
    7  A    between atoms: C_13  and  C_60
    8  A    between atoms: C_14  and  C_21
    9  A    between atoms: C_18  and  C_54
   10  A    between atoms: C_19  and  C_47
   11  A    between atoms: C_29  and  C_49
   12  A    between atoms: C_31  and  S_57
   13  A    between atoms: C_33  and  O_46
   14  A    between atoms: C_38  and  C_49
   15  A    between atoms: C_42  and  O_46
   16  A    between atoms: C_53  and  C_55
   17  A    between atoms: C_53  and  S_57
   18  A    between atoms: C_59  and  C_61
   19  A    between atoms: C_61  and  C_66
                            x       y       z     vdW  Elec       q    Type
                         _______ _______ _______ _____ _____    ______ ____

>  <TORSDO>
F 19

$$$$
=
 OpenBabel10232410123D

 66 71  0  0  1  0  0  0  0  0999 V2000
  186.6450  178.7330  140.0780 C   0  0  0  0  0  1  0  0  0  0  0  0
  187.5350  176.2800  136.3710 C   0  0  1  0  0  3  0  0  0  0  0  0
  187.0700  178.5690  138.6220 C   0  0  2  0  0  3  0  0  0  0  0  0
  186.4820  177.1070  135.6160 C   0  0  2  0  0  3  0  0  0  0  0  0
  188.2010  175.4530  135.4680 O   0  0  0  0  0  1  0  0  0  0  0  0
  188.5540  177.1510  137.0890 C   0  0  0  0  0  2  0  0  0  0  0  0
  185.8200  178.3340  137.7480 C   0  0  2  0  0  3  0  0  0  0  0  0
  188.1030  177.4250  138.5240 C   0  0  1  0  0  3  0  0  0  0  0  0
  186.1440  178.4560  136.2610 C   0  0  0  0  0  2  0  0  0  0  0  0
  184.9500  175.1080  136.0240 N   0  0  0  0  0  2  0  0  0  0  0  0
  184.4340  176.7580  134.4390 O   0  0  0  0  0  0  0  0  0  0  0  0
  185.2320  176.3250  135.3170 C   0  0  0  0  0  0  0  0  0  0  0  0
  182.2200  174.5580  135.9390 S   0  0  0  0  0  0  0  0  0  0  0  0
  183.8610  174.2090  135.7720 C   0  0  0  0  0  0  0  0  0  0  0  0
  184.0030  172.9050  135.2930 C   0  0  0  0  0  0  0  0  0  0  0  0
  182.7770  172.2530  135.0890 C   0  0  0  0  0  3  0  0  0  0  0  0
  181.6860  173.0480  135.4180 C   0  0  0  0  0  0  0  0  0  0  0  0
  185.3110  172.2510  134.9300 C   0  0  2  0  0  3  0  0  0  0  0  0
  185.2720  170.8740  135.1750 O   0  0  0  0  0  1  0  0  0  0  0  0
  187.8440  172.5020  134.9280 C   0  0  0  0  0  1  0  0  0  0  0  0
  186.5360  172.8840  135.6020 C   0  0  0  0  0  3  0  0  0  0  0  0
  186.5900  172.5540  137.0840 C   0  0  0  0  0  1  0  0  0  0  0  0
  180.2610  172.6380  135.2540 C   0  0  0  0  0  2  0  0  0  0  0  0
  180.8290  170.3300  135.3970 O   0  0  0  0  0  1  0  0  0  0  0  0
  179.9890  171.3090  135.9360 C   0  0  1  0  0  3  0  0  0  0  0  0
  180.2580  171.4520  137.4210 C   0  0  0  0  0  2  0  0  0  0  0  0
  181.7330  171.2490  137.7090 C   0  0  0  0  0  1  0  0  0  0  0  0
  189.3420  177.7730  139.3410 C   0  0  0  0  0  2  0  0  0  0  0  0
  190.8390  177.2220  138.4710 S   0  0  0  0  0  0  0  0  0  0  0  0
  191.4420  177.2510  142.2210 C   0  0  2  0  0  3  0  0  0  0  0  0
  192.8490  176.9440  140.3010 C   0  0  0  0  0  2  0  0  0  0  0  0
  192.6470  177.8310  141.5120 C   0  0  0  0  0  2  0  0  0  0  0  0
  191.4800  176.3870  139.9490 C   0  0  1  0  0  3  0  0  0  0  0  0
  190.5660  176.6790  141.1280 C   0  0  0  0  0  2  0  0  0  0  0  0
  190.6820  178.3190  142.9890 C   0  0  0  0  0  2  0  0  0  0  0  0
  188.6460  177.9410  144.4920 C   0  0  1  0  0  3  0  0  0  0  0  0
  188.0140  177.1860  145.6940 C   0  0  1  0  0  3  0  0  0  0  0  0
  191.2500  177.5380  146.6490 C   0  0  0  0  0  2  0  0  0  0  0  0
  188.7710  177.3130  147.0350 C   0  0  2  0  0  3  0  0  0  0  0  0
  191.0050  178.4320  145.4360 C   0  0  2  0  0  3  0  0  0  0  0  0
  190.1030  176.5830  146.9600 C   0  0  0  0  0  2  0  0  0  0  0  0
  190.4950  179.8070  145.8480 C   0  0  0  0  0  1  0  0  0  0  0  0
  190.1810  177.7690  144.3230 C   0  0  2  0  0  3  0  0  0  0  0  0
  187.9980  176.7430  148.1850 C   0  0  0  0  0  0  0  0  0  0  0  0
  187.9570  175.4950  148.3490 O   0  0  0  0  0  0  0  0  0  0  0  0
  187.3240  177.5810  149.0660 O   0  0  0  0  0  1  0  0  0  0  0  0
  187.9220  177.5520  143.2330 C   0  0  0  0  0  0  0  0  0  0  0  0
  187.6440  178.5020  142.2580 O   0  0  0  0  0  0  0  0  0  0  0  0
  187.5640  176.3570  143.0610 O   0  0  0  0  0  1  0  0  0  0  0  0
  186.5320  177.5710  145.8400 C   0  0  0  0  0  2  0  0  0  0  0  0
  186.2980  179.0600  145.5970 C   0  0  0  0  0  2  0  0  0  0  0  0
  183.9740  178.4740  145.4930 O   0  0  0  0  0  1  0  0  0  0  0  0
  184.9460  179.3150  144.9460 C   0  0  0  0  0  3  0  0  0  0  0  0
  185.0230  179.1150  143.5660 O   0  0  0  0  0  1  0  0  0  0  0  0
  184.7460  179.2220  138.0820 O   0  0  0  0  0  0  0  0  0  0  0  0
  179.9950  177.2450  142.2840 C   0  0  0  0  0  2  0  0  0  0  0  0
  182.8880  177.7030  138.2290 C   0  0  0  0  0  3  0  0  0  0  0  0
  179.9820  178.4860  143.0490 N   0  0  0  0  0  2  0  0  0  0  0  0
  181.6310  179.7780  141.8030 C   0  0  0  0  0  2  0  0  0  0  0  0
  180.0490  177.5430  140.7920 C   0  0  0  0  0  2  0  0  0  0  0  0
  181.5430  177.3620  138.8000 C   0  0  0  0  0  2  0  0  0  0  0  0
  183.4980  178.8340  138.5980 C   0  0  0  0  0  0  0  0  0  0  0  0
  181.3350  179.0260  143.0910 C   0  0  0  0  0  2  0  0  0  0  0  0
  182.8270  179.7160  139.6060 C   0  0  0  0  0  2  0  0  0  0  0  0
  181.4960  177.6120  140.3130 C   0  0  1  0  0  3  0  0  0  0  0  0
  182.3070  178.8720  140.7740 C   0  0  2  0  0  3  0  0  0  0  0  0
  2  5  1  6  0  0  0
  2  6  1  0  0  0  0
  3  1  1  1  0  0  0
  4 12  1  1  0  0  0
  4  9  1  0  0  0  0
  4  2  1  0  0  0  0
  6  8  1  0  0  0  0
  7 55  1  1  0  0  0
  7  3  1  0  0  0  0
  8  3  1  0  0  0  0
  8 28  1  1  0  0  0
  9  7  1  0  0  0  0
 11 12  2  0  0  0  0
 12 10  1  0  0  0  0
 14 13  1  0  0  0  0
 14 10  1  0  0  0  0
 15 14  2  0  0  0  0
 16 15  1  0  0  0  0
 16 17  2  0  0  0  0
 17 13  1  0  0  0  0
 18 19  1  1  0  0  0
 18 15  1  0  0  0  0
 18 21  1  0  0  0  0
 20 21  1  0  0  0  0
 21 22  1  0  0  0  0
 23 17  1  0  0  0  0
 23 25  1  0  0  0  0
 25 24  1  6  0  0  0
 25 26  1  0  0  0  0
 26 27  1  0  0  0  0
 29 28  1  0  0  0  0
 30 35  1  6  0  0  0
 31 32  1  0  0  0  0
 32 30  1  0  0  0  0
 33 29  1  6  0  0  0
 33 31  1  0  0  0  0
 33 34  1  0  0  0  0
 34 30  1  0  0  0  0
 36 47  1  6  0  0  0
 36 37  1  0  0  0  0
 37 50  1  1  0  0  0
 37 39  1  0  0  0  0
 38 41  1  0  0  0  0
 39 44  1  1  0  0  0
 40 42  1  1  0  0  0
 40 38  1  0  0  0  0
 41 39  1  0  0  0  0
 43 35  1  6  0  0  0
 43 36  1  0  0  0  0
 43 40  1  0  0  0  0
 44 45  2  0  0  0  0
 44 46  1  0  0  0  0
 48 47  2  0  0  0  0
 49 47  1  0  0  0  0
 51 50  1  0  0  0  0
 53 52  1  0  0  0  0
 53 51  1  0  0  0  0
 54 53  1  0  0  0  0
 55 62  1  0  0  0  0
 56 58  1  0  0  0  0
 57 62  2  0  0  0  0
 57 61  1  0  0  0  0
 58 63  1  0  0  0  0
 59 63  1  0  0  0  0
 60 56  1  0  0  0  0
 62 64  1  0  0  0  0
 65 61  1  6  0  0  0
 65 66  1  0  0  0  0
 65 60  1  0  0  0  0
 66 64  1  6  0  0  0
 66 59  1  0  0  0  0
M  END
>  <MODEL>
7

>  <REMARK>
 VINA RESULT:      -2.3      5.098      9.125
  Name = 
  19 active torsions:
  status: ('A' for Active; 'I' for Inactive)
    1  A    between atoms: C_1  and  C_32
    2  A    between atoms: C_2  and  C_37
    3  A    between atoms: C_2  and  C_47
    4  A    between atoms: C_3  and  C_13
    5  A    between atoms: C_10  and  C_59
    6  A    between atoms: N_12  and  C_36
    7  A    between atoms: C_13  and  C_60
    8  A    between atoms: C_14  and  C_21
    9  A    between atoms: C_18  and  C_54
   10  A    between atoms: C_19  and  C_47
   11  A    between atoms: C_29  and  C_49
   12  A    between atoms: C_31  and  S_57
   13  A    between atoms: C_33  and  O_46
   14  A    between atoms: C_38  and  C_49
   15  A    between atoms: C_42  and  O_46
   16  A    between atoms: C_53  and  C_55
   17  A    between atoms: C_53  and  S_57
   18  A    between atoms: C_59  and  C_61
   19  A    between atoms: C_61  and  C_66
                            x       y       z     vdW  Elec       q    Type
                         _______ _______ _______ _____ _____    ______ ____

>  <TORSDO>
F 19

$$$$
=
 OpenBabel10232410123D

 66 71  0  0  1  0  0  0  0  0999 V2000
  190.1770  175.8300  139.4610 C   0  0  0  0  0  1  0  0  0  0  0  0
  186.6240  176.6720  136.7730 C   0  0  1  0  0  3  0  0  0  0  0  0
  189.3420  176.7190  138.5440 C   0  0  2  0  0  3  0  0  0  0  0  0
  186.2610  177.8530  137.6870 C   0  0  2  0  0  3  0  0  0  0  0  0
  185.7960  176.6870  135.6520 O   0  0  0  0  0  1  0  0  0  0  0  0
  188.0750  176.7130  136.3170 C   0  0  0  0  0  2  0  0  0  0  0  0
  188.1190  177.2500  139.3200 C   0  0  2  0  0  3  0  0  0  0  0  0
  188.9580  175.9190  137.2800 C   0  0  1  0  0  3  0  0  0  0  0  0
  187.4110  178.3680  138.5580 C   0  0  0  0  0  2  0  0  0  0  0  0
  183.8460  178.3760  138.3220 N   0  0  0  0  0  2  0  0  0  0  0  0
  185.0620  176.6710  139.3790 O   0  0  0  0  0  0  0  0  0  0  0  0
  185.0330  177.5920  138.5150 C   0  0  0  0  0  0  0  0  0  0  0  0
  182.4440  177.4780  140.5560 S   0  0  0  0  0  0  0  0  0  0  0  0
  182.6450  178.3120  139.1050 C   0  0  0  0  0  0  0  0  0  0  0  0
  181.4620  178.9870  138.7990 C   0  0  0  0  0  0  0  0  0  0  0  0
  180.4510  178.7930  139.7520 C   0  0  0  0  0  3  0  0  0  0  0  0
  180.8470  177.9600  140.7920 C   0  0  0  0  0  0  0  0  0  0  0  0
  181.2690  179.9140  137.6270 C   0  0  2  0  0  3  0  0  0  0  0  0
  180.9580  181.2090  138.0520 O   0  0  0  0  0  1  0  0  0  0  0  0
  180.6210  178.0900  135.9740 C   0  0  0  0  0  1  0  0  0  0  0  0
  180.2400  179.4210  136.6010 C   0  0  0  0  0  3  0  0  0  0  0  0
  179.9880  180.4600  135.5220 C   0  0  0  0  0  1  0  0  0  0  0  0
  180.0000  177.6190  141.9710 C   0  0  0  0  0  2  0  0  0  0  0  0
  181.1180  178.3300  143.9500 O   0  0  0  0  0  1  0  0  0  0  0  0
  180.1080  178.6820  143.0510 C   0  0  1  0  0  3  0  0  0  0  0  0
  180.4420  180.0110  142.4030 C   0  0  0  0  0  2  0  0  0  0  0  0
  180.1680  181.1490  143.3680 C   0  0  0  0  0  1  0  0  0  0  0  0
  190.2160  175.5090  136.5230 C   0  0  0  0  0  2  0  0  0  0  0  0
  189.8170  174.2290  135.2950 S   0  0  0  0  0  0  0  0  0  0  0  0
  193.5050  174.3750  136.1930 C   0  0  2  0  0  3  0  0  0  0  0  0
  192.2640  173.4600  134.3540 C   0  0  0  0  0  2  0  0  0  0  0  0
  193.3480  174.4630  134.6900 C   0  0  0  0  0  2  0  0  0  0  0  0
  191.3820  173.3580  135.5870 C   0  0  1  0  0  3  0  0  0  0  0  0
  192.1310  174.0340  136.7250 C   0  0  0  0  0  2  0  0  0  0  0  0
  193.9760  175.6950  136.7800 C   0  0  0  0  0  2  0  0  0  0  0  0
  196.4630  175.1590  136.5110 C   0  0  1  0  0  3  0  0  0  0  0  0
  197.8970  175.2140  137.1060 C   0  0  1  0  0  3  0  0  0  0  0  0
  195.9660  174.7360  139.8530 C   0  0  0  0  0  2  0  0  0  0  0  0
  198.0740  174.5440  138.4880 C   0  0  2  0  0  3  0  0  0  0  0  0
  195.1100  174.4890  138.6140 C   0  0  2  0  0  3  0  0  0  0  0  0
  197.3350  175.3360  139.5550 C   0  0  0  0  0  2  0  0  0  0  0  0
  195.2050  173.0420  138.1470 C   0  0  0  0  0  1  0  0  0  0  0  0
  195.3150  175.5200  137.4930 C   0  0  2  0  0  3  0  0  0  0  0  0
  199.5110  174.4480  138.8980 C   0  0  0  0  0  0  0  0  0  0  0  0
  200.0700  175.4370  139.4430 O   0  0  0  0  0  1  0  0  0  0  0  0
  200.2310  173.2790  138.6780 O   0  0  0  0  0  0  0  0  0  0  0  0
  196.4080  176.0240  135.2830 C   0  0  0  0  0  0  0  0  0  0  0  0
  197.4120  176.9520  135.0300 O   0  0  0  0  0  1  0  0  0  0  0  0
  195.4470  175.9080  134.4780 O   0  0  0  0  0  0  0  0  0  0  0  0
  198.9150  174.6810  136.0830 C   0  0  0  0  0  2  0  0  0  0  0  0
  198.3580  173.5110  135.2750 C   0  0  0  0  0  2  0  0  0  0  0  0
  200.0720  171.9120  135.7860 O   0  0  0  0  0  1  0  0  0  0  0  0
  198.7060  172.1740  135.9140 C   0  0  0  0  0  3  0  0  0  0  0  0
  197.9690  171.1450  135.3250 O   0  0  0  0  0  1  0  0  0  0  0  0
  188.4630  177.7050  140.6350 O   0  0  0  0  0  0  0  0  0  0  0  0
  184.1260  178.6340  145.5810 C   0  0  0  0  0  2  0  0  0  0  0  0
  186.4390  178.8950  141.1530 C   0  0  0  0  0  3  0  0  0  0  0  0
  185.0770  178.3210  146.6410 N   0  0  0  0  0  2  0  0  0  0  0  0
  187.0880  177.9400  145.3160 C   0  0  0  0  0  2  0  0  0  0  0  0
  184.7710  179.5370  144.5390 C   0  0  0  0  0  2  0  0  0  0  0  0
  185.5590  179.5610  142.1690 C   0  0  0  0  0  2  0  0  0  0  0  0
  187.5840  178.3230  141.5400 C   0  0  0  0  0  0  0  0  0  0  0  0
  185.9970  177.2980  146.1590 C   0  0  0  0  0  2  0  0  0  0  0  0
  187.9380  178.3360  142.9960 C   0  0  0  0  0  2  0  0  0  0  0  0
  185.4140  178.7020  143.4340 C   0  0  1  0  0  3  0  0  0  0  0  0
  186.7190  177.9330  143.8330 C   0  0  2  0  0  3  0  0  0  0  0  0
  2  5  1  6  0  0  0
  2  4  1  0  0  0  0
  3  7  1  0  0  0  0
  3  1  1  1  0  0  0
  4 12  1  1  0  0  0
  4  9  1  0  0  0  0
  6  2  1  0  0  0  0
  6  8  1  0  0  0  0
  7 55  1  1  0  0  0
  8 28  1  6  0  0  0
  8  3  1  0  0  0  0
  9  7  1  0  0  0  0
 10 12  1  0  0  0  0
 10 14  1  0  0  0  0
 12 11  2  0  0  0  0
 13 17  1  0  0  0  0
 14 13  1  0  0  0  0
 15 14  2  0  0  0  0
 15 16  1  0  0  0  0
 16 17  2  0  0  0  0
 17 23  1  0  0  0  0
 18 19  1  1  0  0  0
 18 15  1  0  0  0  0
 20 21  1  0  0  0  0
 21 18  1  0  0  0  0
 22 21  1  0  0  0  0
 23 25  1  0  0  0  0
 25 24  1  1  0  0  0
 26 25  1  0  0  0  0
 26 27  1  0  0  0  0
 29 28  1  0  0  0  0
 30 34  1  0  0  0  0
 30 35  1  1  0  0  0
 31 32  1  0  0  0  0
 31 33  1  0  0  0  0
 32 30  1  0  0  0  0
 33 29  1  6  0  0  0
 33 34  1  0  0  0  0
 36 47  1  6  0  0  0
 36 37  1  0  0  0  0
 36 43  1  0  0  0  0
 37 50  1  6  0  0  0
 37 39  1  0  0  0  0
 39 44  1  1  0  0  0
 39 41  1  0  0  0  0
 40 42  1  6  0  0  0
 40 38  1  0  0  0  0
 41 38  1  0  0  0  0
 43 35  1  6  0  0  0
 43 40  1  0  0  0  0
 44 45  1  0  0  0  0
 46 44  2  0  0  0  0
 48 47  1  0  0  0  0
 49 47  2  0  0  0  0
 51 53  1  0  0  0  0
 51 50  1  0  0  0  0
 52 53  1  0  0  0  0
 54 53  1  0  0  0  0
 55 62  1  0  0  0  0
 56 58  1  0  0  0  0
 57 62  2  0  0  0  0
 57 61  1  0  0  0  0
 59 63  1  0  0  0  0
 60 56  1  0  0  0  0
 62 64  1  0  0  0  0
 63 58  1  0  0  0  0
 65 61  1  6  0  0  0
 65 66  1  0  0  0  0
 65 60  1  0  0  0  0
 66 64  1  6  0  0  0
 66 59  1  0  0  0  0
M  END
>  <MODEL>
8

>  <REMARK>
 VINA RESULT:      -2.1      4.188     12.735
  Name = 
  19 active torsions:
  status: ('A' for Active; 'I' for Inactive)
    1  A    between atoms: C_1  and  C_32
    2  A    between atoms: C_2  and  C_37
    3  A    between atoms: C_2  and  C_47
    4  A    between atoms: C_3  and  C_13
    5  A    between atoms: C_10  and  C_59
    6  A    between atoms: N_12  and  C_36
    7  A    between atoms: C_13  and  C_60
    8  A    between atoms: C_14  and  C_21
    9  A    between atoms: C_18  and  C_54
   10  A    between atoms: C_19  and  C_47
   11  A    between atoms: C_29  and  C_49
   12  A    between atoms: C_31  and  S_57
   13  A    between atoms: C_33  and  O_46
   14  A    between atoms: C_38  and  C_49
   15  A    between atoms: C_42  and  O_46
   16  A    between atoms: C_53  and  C_55
   17  A    between atoms: C_53  and  S_57
   18  A    between atoms: C_59  and  C_61
   19  A    between atoms: C_61  and  C_66
                            x       y       z     vdW  Elec       q    Type
                         _______ _______ _______ _____ _____    ______ ____

>  <TORSDO>
F 19

$$$$
=
 OpenBabel10232410123D

 66 71  0  0  1  0  0  0  0  0999 V2000
  189.9910  178.4970  137.8570 C   0  0  0  0  0  1  0  0  0  0  0  0
  187.3880  177.9640  141.5300 C   0  0  1  0  0  3  0  0  0  0  0  0
  189.1200  177.6750  138.8030 C   0  0  2  0  0  3  0  0  0  0  0  0
  186.2550  177.4790  140.6110 C   0  0  2  0  0  3  0  0  0  0  0  0
  187.0070  177.7890  142.8590 O   0  0  0  0  0  1  0  0  0  0  0  0
  188.6930  177.2220  141.2880 C   0  0  0  0  0  2  0  0  0  0  0  0
  187.6340  177.9880  138.5310 C   0  0  2  0  0  3  0  0  0  0  0  0
  189.5450  177.9650  140.2590 C   0  0  1  0  0  3  0  0  0  0  0  0
  186.7130  176.9920  139.2320 C   0  0  0  0  0  2  0  0  0  0  0  0
  183.8010  178.0420  140.2030 N   0  0  0  0  0  2  0  0  0  0  0  0
  185.3950  179.7060  140.6380 O   0  0  0  0  0  0  0  0  0  0  0  0
  185.1380  178.4780  140.4860 C   0  0  0  0  0  0  0  0  0  0  0  0
  182.3930  179.8060  138.5690 S   0  0  0  0  0  0  0  0  0  0  0  0
  182.6650  178.8820  139.9520 C   0  0  0  0  0  0  0  0  0  0  0  0
  181.5730  179.0160  140.8120 C   0  0  0  0  0  0  0  0  0  0  0  0
  180.5740  179.8630  140.3100 C   0  0  0  0  0  3  0  0  0  0  0  0
  180.8940  180.3930  139.0660 C   0  0  0  0  0  0  0  0  0  0  0  0
  181.3960  178.2780  142.1140 C   0  0  2  0  0  3  0  0  0  0  0  0
  180.1910  177.5700  142.1340 O   0  0  0  0  0  1  0  0  0  0  0  0
  182.5490  178.6490  144.3530 C   0  0  0  0  0  1  0  0  0  0  0  0
  181.5210  179.1660  143.3590 C   0  0  0  0  0  3  0  0  0  0  0  0
  180.1780  179.3590  144.0410 C   0  0  0  0  0  1  0  0  0  0  0  0
  180.0000  181.2810  138.2680 C   0  0  0  0  0  2  0  0  0  0  0  0
  180.3090  180.5920  136.0100 O   0  0  0  0  0  1  0  0  0  0  0  0
  180.6140  181.6100  136.9190 C   0  0  1  0  0  3  0  0  0  0  0  0
  180.0430  182.9240  136.4230 C   0  0  0  0  0  2  0  0  0  0  0  0
  180.8870  184.0820  136.9180 C   0  0  0  0  0  1  0  0  0  0  0  0
  190.9960  177.5470  140.4700 C   0  0  0  0  0  2  0  0  0  0  0  0
  191.9070  177.6380  138.9010 S   0  0  0  0  0  0  0  0  0  0  0  0
  193.7130  174.6730  137.3600 C   0  0  2  0  0  3  0  0  0  0  0  0
  191.4760  175.0500  138.1400 C   0  0  0  0  0  2  0  0  0  0  0  0
  192.2700  174.6760  136.9060 C   0  0  0  0  0  2  0  0  0  0  0  0
  192.4000  175.8950  139.0000 C   0  0  1  0  0  3  0  0  0  0  0  0
  193.8020  175.7340  138.4350 C   0  0  0  0  0  2  0  0  0  0  0  0
  194.6550  175.0130  136.2170 C   0  0  0  0  0  2  0  0  0  0  0  0
  195.7240  172.7210  136.6020 C   0  0  1  0  0  3  0  0  0  0  0  0
  196.9820  171.8150  136.4930 C   0  0  1  0  0  3  0  0  0  0  0  0
  198.3090  174.8580  137.1940 C   0  0  0  0  0  2  0  0  0  0  0  0
  198.2470  172.3400  137.2100 C   0  0  2  0  0  3  0  0  0  0  0  0
  196.8030  174.9210  137.4350 C   0  0  2  0  0  3  0  0  0  0  0  0
  198.7760  173.5800  136.5070 C   0  0  0  0  0  2  0  0  0  0  0  0
  196.4440  174.4970  138.8530 C   0  0  0  0  0  1  0  0  0  0  0  0
  195.9630  174.2350  136.3480 C   0  0  2  0  0  3  0  0  0  0  0  0
  199.3490  171.3250  137.2430 C   0  0  0  0  0  0  0  0  0  0  0  0
  199.8290  170.9630  138.3500 O   0  0  0  0  0  1  0  0  0  0  0  0
  199.8450  170.7850  136.0620 O   0  0  0  0  0  0  0  0  0  0  0  0
  194.6550  172.1860  135.6900 C   0  0  0  0  0  0  0  0  0  0  0  0
  193.7290  171.2610  136.1560 O   0  0  0  0  0  1  0  0  0  0  0  0
  194.5990  172.5790  134.4950 O   0  0  0  0  0  0  0  0  0  0  0  0
  196.6400  170.3790  136.9250 C   0  0  0  0  0  2  0  0  0  0  0  0
  196.3580  169.4720  135.7290 C   0  0  0  0  0  2  0  0  0  0  0  0
  194.3480  168.1620  135.7490 O   0  0  0  0  0  1  0  0  0  0  0  0
  195.6840  168.1760  136.1580 C   0  0  0  0  0  3  0  0  0  0  0  0
  195.7580  168.0220  137.5430 O   0  0  0  0  0  1  0  0  0  0  0  0
  187.3310  178.0230  137.1300 O   0  0  0  0  0  0  0  0  0  0  0  0
  183.6970  172.6920  135.5450 C   0  0  0  0  0  2  0  0  0  0  0  0
  187.4610  175.9700  135.8850 C   0  0  0  0  0  3  0  0  0  0  0  0
  182.4130  173.3640  135.7070 N   0  0  0  0  0  2  0  0  0  0  0  0
  183.1720  175.6140  136.2610 C   0  0  0  0  0  2  0  0  0  0  0  0
  184.6720  173.5860  134.7910 C   0  0  0  0  0  2  0  0  0  0  0  0
  186.7750  174.8990  135.0890 C   0  0  0  0  0  2  0  0  0  0  0  0
  186.7460  176.9780  136.3970 C   0  0  0  0  0  0  0  0  0  0  0  0
  182.5270  174.3390  136.7840 C   0  0  0  0  0  2  0  0  0  0  0  0
  185.2620  176.9860  136.1840 C   0  0  0  0  0  2  0  0  0  0  0  0
  185.4760  174.4410  135.7670 C   0  0  1  0  0  3  0  0  0  0  0  0
  184.6860  175.5970  136.4720 C   0  0  2  0  0  3  0  0  0  0  0  0
  2  5  1  1  0  0  0
  3  1  1  6  0  0  0
  3  8  1  0  0  0  0
  4 12  1  6  0  0  0
  4  2  1  0  0  0  0
  6  2  1  0  0  0  0
  7 55  1  6  0  0  0
  7  3  1  0  0  0  0
  7  9  1  0  0  0  0
  8 28  1  6  0  0  0
  8  6  1  0  0  0  0
  9  4  1  0  0  0  0
 10 12  1  0  0  0  0
 12 11  2  0  0  0  0
 13 17  1  0  0  0  0
 13 14  1  0  0  0  0
 14 10  1  0  0  0  0
 14 15  2  0  0  0  0
 15 18  1  0  0  0  0
 16 15  1  0  0  0  0
 17 16  2  0  0  0  0
 18 19  1  6  0  0  0
 18 21  1  0  0  0  0
 21 22  1  0  0  0  0
 21 20  1  0  0  0  0
 23 17  1  0  0  0  0
 25 24  1  6  0  0  0
 25 23  1  0  0  0  0
 26 27  1  0  0  0  0
 26 25  1  0  0  0  0
 29 28  1  0  0  0  0
 30 35  1  6  0  0  0
 30 34  1  0  0  0  0
 31 33  1  0  0  0  0
 32 30  1  0  0  0  0
 32 31  1  0  0  0  0
 33 29  1  6  0  0  0
 34 33  1  0  0  0  0
 36 47  1  6  0  0  0
 37 36  1  0  0  0  0
 37 50  1  1  0  0  0
 37 39  1  0  0  0  0
 38 40  1  0  0  0  0
 39 44  1  6  0  0  0
 40 42  1  1  0  0  0
 41 38  1  0  0  0  0
 41 39  1  0  0  0  0
 43 35  1  1  0  0  0
 43 36  1  0  0  0  0
 43 40  1  0  0  0  0
 44 45  1  0  0  0  0
 46 44  2  0  0  0  0
 47 48  1  0  0  0  0
 49 47  2  0  0  0  0
 51 53  1  0  0  0  0
 51 50  1  0  0  0  0
 52 53  1  0  0  0  0
 53 54  1  0  0  0  0
 56 58  1  0  0  0  0
 57 62  2  0  0  0  0
 58 63  1  0  0  0  0
 59 66  1  0  0  0  0
 59 63  1  0  0  0  0
 60 56  1  0  0  0  0
 61 65  1  0  0  0  0
 61 57  1  0  0  0  0
 62 55  1  0  0  0  0
 64 62  1  0  0  0  0
 65 60  1  6  0  0  0
 65 66  1  0  0  0  0
 66 64  1  6  0  0  0
M  END
>  <MODEL>
9

>  <REMARK>
 VINA RESULT:      -1.7      4.086     12.708
  Name = 
  19 active torsions:
  status: ('A' for Active; 'I' for Inactive)
    1  A    between atoms: C_1  and  C_32
    2  A    between atoms: C_2  and  C_37
    3  A    between atoms: C_2  and  C_47
    4  A    between atoms: C_3  and  C_13
    5  A    between atoms: C_10  and  C_59
    6  A    between atoms: N_12  and  C_36
    7  A    between atoms: C_13  and  C_60
    8  A    between atoms: C_14  and  C_21
    9  A    between atoms: C_18  and  C_54
   10  A    between atoms: C_19  and  C_47
   11  A    between atoms: C_29  and  C_49
   12  A    between atoms: C_31  and  S_57
   13  A    between atoms: C_33  and  O_46
   14  A    between atoms: C_38  and  C_49
   15  A    between atoms: C_42  and  O_46
   16  A    between atoms: C_53  and  C_55
   17  A    between atoms: C_53  and  S_57
   18  A    between atoms: C_59  and  C_61
   19  A    between atoms: C_61  and  C_66
                            x       y       z     vdW  Elec       q    Type
                         _______ _______ _______ _____ _____    ______ ____

>  <TORSDO>
F 19

$$$$
