=
 OpenBabel10232411503D

 47 51  0  0  1  0  0  0  0  0999 V2000
  192.7900  176.9880  139.0760 C   0  0  0  0  0  2  0  0  0  0  0  0
  192.6630  175.9380  137.9450 C   0  0  0  0  0  2  0  0  0  0  0  0
  190.3760  177.6920  139.8170 C   0  0  1  0  0  3  0  0  0  0  0  0
  190.4780  176.7940  137.5960 C   0  0  0  0  0  0  0  0  0  0  0  0
  191.4620  176.1460  137.0530 C   0  0  0  0  0  0  0  0  0  0  0  0
  191.6590  176.8620  140.1210 C   0  0  0  0  0  2  0  0  0  0  0  0
  189.7760  177.4890  138.4390 C   0  0  0  0  0  0  0  0  0  0  0  0
  189.8010  176.7690  142.0930 N   0  0  0  0  0  2  0  0  0  0  0  0
  188.1530  177.6450  140.6880 O   0  0  0  0  0  0  0  0  0  0  0  0
  189.3770  177.4070  140.8890 C   0  0  0  0  0  0  0  0  0  0  0  0
  188.8430  176.1960  143.0260 C   0  0  0  0  0  2  0  0  0  0  0  0
  188.3970  177.2240  144.0800 C   0  0  2  0  0  3  0  0  0  0  0  0
  187.9460  177.5610  146.3980 C   0  0  0  0  0  2  0  0  0  0  0  0
  189.7380  177.7370  147.9900 O   0  0  0  0  0  0  0  0  0  0  0  0
  190.1830  177.2380  145.6790 C   0  0  0  0  0  2  0  0  0  0  0  0
  188.7920  176.8270  145.4430 N   0  0  0  0  0  0  0  0  0  0  0  0
  190.5550  176.9670  147.1400 C   0  0  0  0  0  2  0  0  0  0  0  0
  188.4170  177.2780  147.8270 C   0  0  0  0  0  2  0  0  0  0  0  0
  186.4040  178.3790  143.2650 N   0  0  0  0  0  0  0  0  0  0  0  0
  186.9100  177.4410  144.0020 C   0  0  0  0  0  3  0  0  0  0  0  0
  184.9940  178.5980  143.1820 C   0  0  0  0  0  0  0  0  0  0  0  0
  184.2880  177.9730  142.3430 O   0  0  0  0  0  0  0  0  0  0  0  0
  184.3450  179.5740  144.0980 C   0  0  0  0  0  1  0  0  0  0  0  0
  188.6020  178.2990  137.9860 C   0  0  0  0  0  2  0  0  0  0  0  0
  186.2150  177.6940  137.2440 C   0  0  1  0  0  3  0  0  0  0  0  0
  186.9390  178.4140  136.1230 C   0  0  1  0  0  3  0  0  0  0  0  0
  187.7180  177.4860  137.0360 C   0  0  1  0  0  3  0  0  0  0  0  0
  186.6760  177.7580  134.9210 O   0  0  0  0  0  1  0  0  0  0  0  0
  184.6010  178.9190  138.8430 C   0  0  0  0  0  0  0  0  0  0  0  0
  185.9080  178.6510  138.3020 N   0  0  0  0  0  2  0  0  0  0  0  0
  184.4720  179.9250  139.5950 O   0  0  0  0  0  0  0  0  0  0  0  0
  183.1500  176.9640  139.2480 C   0  0  0  0  0  2  0  0  0  0  0  0
  183.4080  178.0760  138.5690 C   0  0  0  0  0  0  0  0  0  0  0  0
  182.3690  178.5540  137.6120 C   0  0  0  0  0  2  0  0  0  0  0  0
  181.0200  178.6660  138.3020 C   0  0  0  0  0  1  0  0  0  0  0  0
  191.2110  175.2610  135.8770 C   0  0  0  0  0  2  0  0  0  0  0  0
  188.4130  173.0060  137.0710 C   0  0  0  0  0  3  0  0  0  0  0  0
  188.8770  174.8600  135.0330 C   0  0  0  0  0  3  0  0  0  0  0  0
  187.6440  174.2100  135.1160 C   0  0  0  0  0  3  0  0  0  0  0  0
  189.6470  173.6550  136.9850 C   0  0  0  0  0  3  0  0  0  0  0  0
  187.3970  173.2810  136.1400 C   0  0  0  0  0  0  0  0  0  0  0  0
  189.8820  174.5850  135.9690 C   0  0  0  0  0  0  0  0  0  0  0  0
  185.6140  171.7430  135.1740 C   0  0  0  0  0  2  0  0  0  0  0  0
  183.9820  171.9590  136.9800 C   0  0  0  0  0  2  0  0  0  0  0  0
  185.2410  172.7120  137.3680 C   0  0  0  0  0  2  0  0  0  0  0  0
  184.3250  171.1600  135.7260 C   0  0  0  0  0  2  0  0  0  0  0  0
  186.1290  172.6080  136.2230 N   0  0  0  0  0  0  0  0  0  0  0  0
  1  6  1  0  0  0  0
  2  1  1  0  0  0  0
  3  6  1  0  0  0  0
  3 10  1  1  0  0  0
  4  7  2  0  0  0  0
  5  4  2  0  0  0  0
  5  2  1  0  0  0  0
  7  3  1  0  0  0  0
  8 11  1  0  0  0  0
  9 10  2  0  0  0  0
 10  8  1  0  0  0  0
 12 11  1  6  0  0  0
 12 16  1  0  0  0  0
 13 18  1  0  0  0  0
 15 17  1  0  0  0  0
 16 15  1  0  0  0  0
 16 13  1  0  0  0  0
 17 14  1  0  0  0  0
 18 14  1  0  0  0  0
 19 20  2  0  0  0  0
 20 12  1  0  0  0  0
 21 19  1  0  0  0  0
 21 23  1  0  0  0  0
 22 21  2  0  0  0  0
 24  7  1  0  0  0  0
 25 30  1  1  0  0  0
 26 28  1  6  0  0  0
 26 27  1  0  0  0  0
 26 25  1  0  0  0  0
 27 25  1  0  0  0  0
 27 24  1  1  0  0  0
 29 31  2  0  0  0  0
 30 29  1  0  0  0  0
 33 29  1  0  0  0  0
 33 32  2  0  0  0  0
 34 35  1  0  0  0  0
 34 33  1  0  0  0  0
 36 42  1  0  0  0  0
 36  5  1  0  0  0  0
 38 39  2  0  0  0  0
 38 42  1  0  0  0  0
 39 41  1  0  0  0  0
 40 37  1  0  0  0  0
 41 47  1  0  0  0  0
 41 37  2  0  0  0  0
 42 40  2  0  0  0  0
 43 46  1  0  0  0  0
 43 47  1  0  0  0  0
 44 45  1  0  0  0  0
 46 44  1  0  0  0  0
 47 45  1  0  0  0  0
M  END
>  <MODEL>
1

>  <REMARK>
 VINA RESULT:      -8.0      0.000      0.000
  Name = 
  14 active torsions:
  status: ('A' for Active; 'I' for Inactive)
    1  A    between atoms: C_1  and  N_5
    2  A    between atoms: C_2  and  C_43
    3  A    between atoms: C_3  and  N_12
    4  A    between atoms: C_3  and  C_18
    5  A    between atoms: C_4  and  N_9
    6  A    between atoms: C_7  and  C_31
    7  A    between atoms: C_18  and  N_26
    8  A    between atoms: C_18  and  C_34
    9  A    between atoms: C_19  and  C_20
   10  A    between atoms: C_22  and  C_43
   11  A    between atoms: C_30  and  C_42
   12  A    between atoms: C_31  and  C_46
   13  A    between atoms: N_41  and  C_45
   14  A    between atoms: C_42  and  C_47
                            x       y       z     vdW  Elec       q    Type
                         _______ _______ _______ _____ _____    ______ ____

>  <TORSDO>
F 14

$$$$
=
 OpenBabel10232411503D

 47 51  0  0  1  0  0  0  0  0999 V2000
  192.0930  176.1400  137.0950 C   0  0  0  0  0  2  0  0  0  0  0  0
  191.6040  174.7110  136.7530 C   0  0  0  0  0  2  0  0  0  0  0  0
  190.4730  177.1570  138.8880 C   0  0  1  0  0  3  0  0  0  0  0  0
  189.4920  175.3930  137.5930 C   0  0  0  0  0  0  0  0  0  0  0  0
  190.1030  174.5490  136.8200 C   0  0  0  0  0  0  0  0  0  0  0  0
  191.8530  176.5030  138.5770 C   0  0  0  0  0  2  0  0  0  0  0  0
  189.2610  176.3990  138.3800 C   0  0  0  0  0  0  0  0  0  0  0  0
  189.1620  177.8250  140.9360 N   0  0  0  0  0  2  0  0  0  0  0  0
  191.4280  177.2760  141.0730 O   0  0  0  0  0  0  0  0  0  0  0  0
  190.3910  177.3840  140.3600 C   0  0  0  0  0  0  0  0  0  0  0  0
  189.1050  178.3520  142.2910 C   0  0  0  0  0  2  0  0  0  0  0  0
  188.0870  177.5850  143.1530 C   0  0  2  0  0  3  0  0  0  0  0  0
  186.3470  177.9890  144.7320 C   0  0  0  0  0  2  0  0  0  0  0  0
  184.0720  178.2850  144.0130 O   0  0  0  0  0  0  0  0  0  0  0  0
  185.8520  178.0370  142.4130 C   0  0  0  0  0  2  0  0  0  0  0  0
  186.8730  178.3780  143.4140 N   0  0  0  0  0  0  0  0  0  0  0  0
  184.5370  178.7410  142.7640 C   0  0  0  0  0  2  0  0  0  0  0  0
  185.0100  178.6940  144.9800 C   0  0  0  0  0  2  0  0  0  0  0  0
  189.9170  177.5230  144.7710 N   0  0  0  0  0  0  0  0  0  0  0  0
  188.7210  177.1460  144.4450 C   0  0  0  0  0  3  0  0  0  0  0  0
  190.5320  177.1140  145.9940 C   0  0  0  0  0  0  0  0  0  0  0  0
  191.7870  177.0290  146.0930 O   0  0  0  0  0  0  0  0  0  0  0  0
  189.6830  176.7850  147.1710 C   0  0  0  0  0  1  0  0  0  0  0  0
  187.8840  176.9680  138.5260 C   0  0  0  0  0  2  0  0  0  0  0  0
  185.8860  177.7160  137.0900 C   0  0  1  0  0  3  0  0  0  0  0  0
  187.1840  177.9910  136.3560 C   0  0  1  0  0  3  0  0  0  0  0  0
  187.0770  176.7650  137.2410 C   0  0  1  0  0  3  0  0  0  0  0  0
  187.0380  177.6080  135.0230 O   0  0  0  0  0  1  0  0  0  0  0  0
  184.5410  178.9810  138.8930 C   0  0  0  0  0  0  0  0  0  0  0  0
  185.7580  178.6580  138.1980 N   0  0  0  0  0  2  0  0  0  0  0  0
  184.5570  179.9710  139.6770 O   0  0  0  0  0  0  0  0  0  0  0  0
  182.3860  178.4870  137.7960 C   0  0  0  0  0  2  0  0  0  0  0  0
  183.2770  178.2130  138.7410 C   0  0  0  0  0  0  0  0  0  0  0  0
  183.0510  176.9920  139.5660 C   0  0  0  0  0  2  0  0  0  0  0  0
  183.1380  175.7430  138.7050 C   0  0  0  0  0  1  0  0  0  0  0  0
  189.4500  173.2530  136.4690 C   0  0  0  0  0  2  0  0  0  0  0  0
  185.7190  173.1330  137.1060 C   0  0  0  0  0  3  0  0  0  0  0  0
  187.4690  173.9510  135.0870 C   0  0  0  0  0  3  0  0  0  0  0  0
  186.0900  174.0800  134.9090 C   0  0  0  0  0  3  0  0  0  0  0  0
  187.0990  173.0020  137.2830 C   0  0  0  0  0  3  0  0  0  0  0  0
  185.2010  173.6770  135.9190 C   0  0  0  0  0  0  0  0  0  0  0  0
  187.9770  173.4130  136.2770 C   0  0  0  0  0  0  0  0  0  0  0  0
  183.1680  174.8890  134.9840 C   0  0  0  0  0  2  0  0  0  0  0  0
  181.4520  173.4400  135.9450 C   0  0  0  0  0  2  0  0  0  0  0  0
  182.8160  172.8560  136.2620 C   0  0  0  0  0  2  0  0  0  0  0  0
  181.6850  174.5660  134.9420 C   0  0  0  0  0  2  0  0  0  0  0  0
  183.7810  173.8050  135.7330 N   0  0  0  0  0  0  0  0  0  0  0  0
  1  6  1  0  0  0  0
  2  5  1  0  0  0  0
  2  1  1  0  0  0  0
  3 10  1  1  0  0  0
  4  7  2  0  0  0  0
  5  4  2  0  0  0  0
  6  3  1  0  0  0  0
  7 24  1  0  0  0  0
  7  3  1  0  0  0  0
  8 11  1  0  0  0  0
 10  8  1  0  0  0  0
 10  9  2  0  0  0  0
 12 11  1  1  0  0  0
 12 16  1  0  0  0  0
 12 20  1  0  0  0  0
 13 18  1  0  0  0  0
 14 18  1  0  0  0  0
 15 17  1  0  0  0  0
 15 16  1  0  0  0  0
 16 13  1  0  0  0  0
 17 14  1  0  0  0  0
 19 21  1  0  0  0  0
 20 19  2  0  0  0  0
 21 22  2  0  0  0  0
 21 23  1  0  0  0  0
 25 27  1  0  0  0  0
 25 30  1  1  0  0  0
 26 28  1  6  0  0  0
 26 25  1  0  0  0  0
 26 27  1  0  0  0  0
 27 24  1  1  0  0  0
 29 31  2  0  0  0  0
 30 29  1  0  0  0  0
 32 33  2  0  0  0  0
 33 29  1  0  0  0  0
 33 34  1  0  0  0  0
 35 34  1  0  0  0  0
 36  5  1  0  0  0  0
 37 40  1  0  0  0  0
 38 42  1  0  0  0  0
 39 38  2  0  0  0  0
 39 41  1  0  0  0  0
 41 37  2  0  0  0  0
 42 36  1  0  0  0  0
 42 40  2  0  0  0  0
 43 47  1  0  0  0  0
 44 45  1  0  0  0  0
 46 43  1  0  0  0  0
 46 44  1  0  0  0  0
 47 41  1  0  0  0  0
 47 45  1  0  0  0  0
M  END
>  <MODEL>
2

>  <REMARK>
 VINA RESULT:      -7.7      1.536      3.325
  Name = 
  14 active torsions:
  status: ('A' for Active; 'I' for Inactive)
    1  A    between atoms: C_1  and  N_5
    2  A    between atoms: C_2  and  C_43
    3  A    between atoms: C_3  and  N_12
    4  A    between atoms: C_3  and  C_18
    5  A    between atoms: C_4  and  N_9
    6  A    between atoms: C_7  and  C_31
    7  A    between atoms: C_18  and  N_26
    8  A    between atoms: C_18  and  C_34
    9  A    between atoms: C_19  and  C_20
   10  A    between atoms: C_22  and  C_43
   11  A    between atoms: C_30  and  C_42
   12  A    between atoms: C_31  and  C_46
   13  A    between atoms: N_41  and  C_45
   14  A    between atoms: C_42  and  C_47
                            x       y       z     vdW  Elec       q    Type
                         _______ _______ _______ _____ _____    ______ ____

>  <TORSDO>
F 14

$$$$
=
 OpenBabel10232411503D

 47 51  0  0  1  0  0  0  0  0999 V2000
  189.5020  175.2190  136.9120 C   0  0  0  0  0  2  0  0  0  0  0  0
  190.9370  175.6420  136.5100 C   0  0  0  0  0  2  0  0  0  0  0  0
  188.6760  176.8190  138.8170 C   0  0  1  0  0  3  0  0  0  0  0  0
  191.0640  176.6900  138.6350 C   0  0  0  0  0  0  0  0  0  0  0  0
  191.7540  176.1900  137.6570 C   0  0  0  0  0  0  0  0  0  0  0  0
  188.6250  176.4260  137.3100 C   0  0  0  0  0  2  0  0  0  0  0  0
  190.0650  177.0290  139.3910 C   0  0  0  0  0  0  0  0  0  0  0  0
  187.0340  178.1530  140.1900 N   0  0  0  0  0  2  0  0  0  0  0  0
  187.7330  178.8880  138.0850 O   0  0  0  0  0  0  0  0  0  0  0  0
  187.8240  178.0290  139.0070 C   0  0  0  0  0  0  0  0  0  0  0  0
  185.9690  179.1390  140.2900 C   0  0  0  0  0  2  0  0  0  0  0  0
  184.8000  178.6220  141.1470 C   0  0  2  0  0  3  0  0  0  0  0  0
  182.5730  177.9550  140.6130 C   0  0  0  0  0  2  0  0  0  0  0  0
  181.4700  178.7980  138.6510 O   0  0  0  0  0  0  0  0  0  0  0  0
  183.6530  179.5910  139.2780 C   0  0  0  0  0  2  0  0  0  0  0  0
  183.4970  179.1010  140.6550 N   0  0  0  0  0  0  0  0  0  0  0  0
  182.2800  179.9500  138.7030 C   0  0  0  0  0  2  0  0  0  0  0  0
  181.2480  178.3850  139.9780 C   0  0  0  0  0  2  0  0  0  0  0  0
  184.5200  178.2890  143.5520 N   0  0  0  0  0  0  0  0  0  0  0  0
  184.9970  179.0110  142.5870 C   0  0  0  0  0  3  0  0  0  0  0  0
  184.6970  178.6470  144.9240 C   0  0  0  0  0  0  0  0  0  0  0  0
  183.7600  179.1730  145.5840 O   0  0  0  0  0  0  0  0  0  0  0  0
  186.0050  178.3940  145.5870 C   0  0  0  0  0  1  0  0  0  0  0  0
  190.2570  177.3120  140.8490 C   0  0  0  0  0  2  0  0  0  0  0  0
  190.2750  176.0930  143.1130 C   0  0  1  0  0  3  0  0  0  0  0  0
  188.9200  176.7320  142.8800 C   0  0  1  0  0  3  0  0  0  0  0  0
  189.6900  176.1720  141.7000 C   0  0  1  0  0  3  0  0  0  0  0  0
  187.9250  175.8280  143.2480 O   0  0  0  0  0  1  0  0  0  0  0  0
  191.4880  177.7580  144.6680 C   0  0  0  0  0  0  0  0  0  0  0  0
  191.2540  177.1400  143.3900 N   0  0  0  0  0  2  0  0  0  0  0  0
  192.2090  178.7940  144.6970 O   0  0  0  0  0  0  0  0  0  0  0  0
  191.6430  176.4790  146.7740 C   0  0  0  0  0  2  0  0  0  0  0  0
  190.9340  177.2400  145.9470 C   0  0  0  0  0  0  0  0  0  0  0  0
  189.5950  177.7000  146.4140 C   0  0  0  0  0  2  0  0  0  0  0  0
  189.0210  176.7270  147.4300 C   0  0  0  0  0  1  0  0  0  0  0  0
  193.1780  176.5960  137.4660 C   0  0  0  0  0  2  0  0  0  0  0  0
  195.4230  173.5720  137.8550 C   0  0  0  0  0  3  0  0  0  0  0  0
  194.3230  175.1070  135.7950 C   0  0  0  0  0  3  0  0  0  0  0  0
  195.1480  174.0230  135.4910 C   0  0  0  0  0  3  0  0  0  0  0  0
  194.5990  174.6590  138.1580 C   0  0  0  0  0  3  0  0  0  0  0  0
  195.7020  173.2400  136.5180 C   0  0  0  0  0  0  0  0  0  0  0  0
  194.0440  175.4270  137.1310 C   0  0  0  0  0  0  0  0  0  0  0  0
  197.0080  171.1630  137.1950 C   0  0  0  0  0  2  0  0  0  0  0  0
  198.0000  170.6750  135.0160 C   0  0  0  0  0  2  0  0  0  0  0  0
  197.0440  171.8440  134.8660 C   0  0  0  0  0  2  0  0  0  0  0  0
  197.7760  170.1100  136.4160 C   0  0  0  0  0  2  0  0  0  0  0  0
  196.5570  172.1270  136.2050 N   0  0  0  0  0  0  0  0  0  0  0  0
  1  6  1  0  0  0  0
  2  1  1  0  0  0  0
  2  5  1  0  0  0  0
  3 10  1  6  0  0  0
  3  7  1  0  0  0  0
  4  7  2  0  0  0  0
  5  4  2  0  0  0  0
  6  3  1  0  0  0  0
  7 24  1  0  0  0  0
  8 11  1  0  0  0  0
  9 10  2  0  0  0  0
 10  8  1  0  0  0  0
 12 11  1  6  0  0  0
 12 20  1  0  0  0  0
 13 16  1  0  0  0  0
 14 17  1  0  0  0  0
 14 18  1  0  0  0  0
 15 16  1  0  0  0  0
 16 12  1  0  0  0  0
 17 15  1  0  0  0  0
 18 13  1  0  0  0  0
 19 21  1  0  0  0  0
 20 19  2  0  0  0  0
 21 22  2  0  0  0  0
 21 23  1  0  0  0  0
 25 30  1  6  0  0  0
 26 25  1  0  0  0  0
 26 28  1  1  0  0  0
 27 24  1  6  0  0  0
 27 26  1  0  0  0  0
 27 25  1  0  0  0  0
 29 31  2  0  0  0  0
 29 33  1  0  0  0  0
 30 29  1  0  0  0  0
 33 34  1  0  0  0  0
 33 32  2  0  0  0  0
 34 35  1  0  0  0  0
 36  5  1  0  0  0  0
 37 40  1  0  0  0  0
 38 42  1  0  0  0  0
 39 38  2  0  0  0  0
 39 41  1  0  0  0  0
 41 37  2  0  0  0  0
 42 36  1  0  0  0  0
 42 40  2  0  0  0  0
 44 46  1  0  0  0  0
 45 44  1  0  0  0  0
 45 47  1  0  0  0  0
 46 43  1  0  0  0  0
 47 41  1  0  0  0  0
 47 43  1  0  0  0  0
M  END
>  <MODEL>
3

>  <REMARK>
 VINA RESULT:      -7.4      3.307      7.703
  Name = 
  14 active torsions:
  status: ('A' for Active; 'I' for Inactive)
    1  A    between atoms: C_1  and  N_5
    2  A    between atoms: C_2  and  C_43
    3  A    between atoms: C_3  and  N_12
    4  A    between atoms: C_3  and  C_18
    5  A    between atoms: C_4  and  N_9
    6  A    between atoms: C_7  and  C_31
    7  A    between atoms: C_18  and  N_26
    8  A    between atoms: C_18  and  C_34
    9  A    between atoms: C_19  and  C_20
   10  A    between atoms: C_22  and  C_43
   11  A    between atoms: C_30  and  C_42
   12  A    between atoms: C_31  and  C_46
   13  A    between atoms: N_41  and  C_45
   14  A    between atoms: C_42  and  C_47
                            x       y       z     vdW  Elec       q    Type
                         _______ _______ _______ _____ _____    ______ ____

>  <TORSDO>
F 14

$$$$
=
 OpenBabel10232411503D

 47 51  0  0  1  0  0  0  0  0999 V2000
  188.7880  178.7930  138.6820 C   0  0  0  0  0  2  0  0  0  0  0  0
  189.2930  178.2610  140.0460 C   0  0  0  0  0  2  0  0  0  0  0  0
  189.1630  176.9260  136.8810 C   0  0  1  0  0  3  0  0  0  0  0  0
  190.5930  176.7190  138.7950 C   0  0  0  0  0  0  0  0  0  0  0  0
  190.4770  177.3290  139.9340 C   0  0  0  0  0  0  0  0  0  0  0  0
  188.1660  177.6780  137.8120 C   0  0  0  0  0  2  0  0  0  0  0  0
  190.3990  176.3670  137.5610 C   0  0  0  0  0  0  0  0  0  0  0  0
  187.5000  175.0300  136.8930 N   0  0  0  0  0  2  0  0  0  0  0  0
  188.6470  175.6240  134.9470 O   0  0  0  0  0  0  0  0  0  0  0  0
  188.4090  175.8550  136.1650 C   0  0  0  0  0  0  0  0  0  0  0  0
  186.9790  173.7950  136.3280 C   0  0  0  0  0  2  0  0  0  0  0  0
  185.6150  174.0150  135.6500 C   0  0  2  0  0  3  0  0  0  0  0  0
  184.1610  174.2270  137.5290 C   0  0  0  0  0  2  0  0  0  0  0  0
  182.1280  175.5000  137.3770 O   0  0  0  0  0  0  0  0  0  0  0  0
  183.6730  175.4170  135.5360 C   0  0  0  0  0  2  0  0  0  0  0  0
  184.7670  174.9560  136.4030 N   0  0  0  0  0  0  0  0  0  0  0  0
  182.7020  176.2760  136.3510 C   0  0  0  0  0  2  0  0  0  0  0  0
  183.1660  175.1370  138.2550 C   0  0  0  0  0  2  0  0  0  0  0  0
  185.5450  171.5750  135.5350 N   0  0  0  0  0  0  0  0  0  0  0  0
  184.9080  172.7010  135.4590 C   0  0  0  0  0  3  0  0  0  0  0  0
  184.8860  170.3200  135.3560 C   0  0  0  0  0  0  0  0  0  0  0  0
  185.4210  169.3970  134.6820 O   0  0  0  0  0  0  0  0  0  0  0  0
  183.5510  170.0940  135.9720 C   0  0  0  0  0  1  0  0  0  0  0  0
  191.4820  175.7100  136.7630 C   0  0  0  0  0  2  0  0  0  0  0  0
  193.9220  175.2040  137.4010 C   0  0  1  0  0  3  0  0  0  0  0  0
  193.8750  175.9430  136.0780 C   0  0  1  0  0  3  0  0  0  0  0  0
  192.8540  176.2720  137.1490 C   0  0  1  0  0  3  0  0  0  0  0  0
  194.8660  176.9230  136.0730 O   0  0  0  0  0  1  0  0  0  0  0  0
  194.2010  172.7360  136.7010 C   0  0  0  0  0  0  0  0  0  0  0  0
  193.4320  173.8430  137.2030 N   0  0  0  0  0  2  0  0  0  0  0  0
  193.5780  171.6840  136.3820 O   0  0  0  0  0  0  0  0  0  0  0  0
  196.2670  173.0250  135.3820 C   0  0  0  0  0  2  0  0  0  0  0  0
  195.6790  172.7630  136.5430 C   0  0  0  0  0  0  0  0  0  0  0  0
  196.5530  172.6490  137.7460 C   0  0  0  0  0  2  0  0  0  0  0  0
  197.3420  173.9310  137.9550 C   0  0  0  0  0  1  0  0  0  0  0  0
  191.1310  176.7620  141.1510 C   0  0  0  0  0  2  0  0  0  0  0  0
  188.4150  176.5810  143.7840 C   0  0  0  0  0  3  0  0  0  0  0  0
  190.7360  178.0500  143.2740 C   0  0  0  0  0  3  0  0  0  0  0  0
  189.9780  178.3190  144.4150 C   0  0  0  0  0  3  0  0  0  0  0  0
  189.1730  176.3140  142.6410 C   0  0  0  0  0  3  0  0  0  0  0  0
  188.8130  177.5830  144.6850 C   0  0  0  0  0  0  0  0  0  0  0  0
  190.3360  177.0440  142.3850 C   0  0  0  0  0  0  0  0  0  0  0  0
  188.5440  177.7420  147.2110 C   0  0  0  0  0  2  0  0  0  0  0  0
  186.1800  178.3600  147.2510 C   0  0  0  0  0  2  0  0  0  0  0  0
  186.6480  178.3120  145.8080 C   0  0  0  0  0  2  0  0  0  0  0  0
  187.4330  178.2450  148.1150 C   0  0  0  0  0  2  0  0  0  0  0  0
  188.0290  177.8640  145.8580 N   0  0  0  0  0  0  0  0  0  0  0  0
  1  2  1  0  0  0  0
  3 10  1  1  0  0  0
  3  7  1  0  0  0  0
  3  6  1  0  0  0  0
  4  5  2  0  0  0  0
  5  2  1  0  0  0  0
  5 36  1  0  0  0  0
  6  1  1  0  0  0  0
  7  4  2  0  0  0  0
  9 10  2  0  0  0  0
 10  8  1  0  0  0  0
 11  8  1  0  0  0  0
 12 20  1  1  0  0  0
 12 11  1  0  0  0  0
 12 16  1  0  0  0  0
 13 18  1  0  0  0  0
 14 18  1  0  0  0  0
 15 17  1  0  0  0  0
 15 16  1  0  0  0  0
 16 13  1  0  0  0  0
 17 14  1  0  0  0  0
 20 19  2  0  0  0  0
 21 19  1  0  0  0  0
 21 23  1  0  0  0  0
 22 21  2  0  0  0  0
 24  7  1  0  0  0  0
 25 30  1  6  0  0  0
 26 28  1  1  0  0  0
 26 27  1  0  0  0  0
 26 25  1  0  0  0  0
 27 24  1  6  0  0  0
 27 25  1  0  0  0  0
 29 30  1  0  0  0  0
 31 29  2  0  0  0  0
 32 33  2  0  0  0  0
 33 29  1  0  0  0  0
 33 34  1  0  0  0  0
 34 35  1  0  0  0  0
 36 42  1  0  0  0  0
 37 41  1  0  0  0  0
 38 39  1  0  0  0  0
 39 41  2  0  0  0  0
 40 37  2  0  0  0  0
 41 47  1  0  0  0  0
 42 40  1  0  0  0  0
 42 38  2  0  0  0  0
 43 46  1  0  0  0  0
 44 46  1  0  0  0  0
 45 47  1  0  0  0  0
 45 44  1  0  0  0  0
 47 43  1  0  0  0  0
M  END
>  <MODEL>
4

>  <REMARK>
 VINA RESULT:      -6.7      3.327      9.834
  Name = 
  14 active torsions:
  status: ('A' for Active; 'I' for Inactive)
    1  A    between atoms: C_1  and  N_5
    2  A    between atoms: C_2  and  C_43
    3  A    between atoms: C_3  and  N_12
    4  A    between atoms: C_3  and  C_18
    5  A    between atoms: C_4  and  N_9
    6  A    between atoms: C_7  and  C_31
    7  A    between atoms: C_18  and  N_26
    8  A    between atoms: C_18  and  C_34
    9  A    between atoms: C_19  and  C_20
   10  A    between atoms: C_22  and  C_43
   11  A    between atoms: C_30  and  C_42
   12  A    between atoms: C_31  and  C_46
   13  A    between atoms: N_41  and  C_45
   14  A    between atoms: C_42  and  C_47
                            x       y       z     vdW  Elec       q    Type
                         _______ _______ _______ _____ _____    ______ ____

>  <TORSDO>
F 14

$$$$
=
 OpenBabel10232411503D

 47 51  0  0  1  0  0  0  0  0999 V2000
  190.2140  174.1970  137.0980 C   0  0  0  0  0  2  0  0  0  0  0  0
  191.6180  174.7020  136.6840 C   0  0  0  0  0  2  0  0  0  0  0  0
  188.9050  176.1980  138.1720 C   0  0  1  0  0  3  0  0  0  0  0  0
  191.2880  176.4530  138.2510 C   0  0  0  0  0  0  0  0  0  0  0  0
  192.1750  175.7680  137.5980 C   0  0  0  0  0  0  0  0  0  0  0  0
  189.1280  175.2830  136.9310 C   0  0  0  0  0  2  0  0  0  0  0  0
  190.1520  176.8540  138.7350 C   0  0  0  0  0  0  0  0  0  0  0  0
  186.4950  176.9350  138.0590 N   0  0  0  0  0  2  0  0  0  0  0  0
  188.2140  178.2750  137.2180 O   0  0  0  0  0  0  0  0  0  0  0  0
  187.8730  177.2160  137.8160 C   0  0  0  0  0  0  0  0  0  0  0  0
  185.4400  177.7390  137.4610 C   0  0  0  0  0  2  0  0  0  0  0  0
  184.1370  176.9360  137.3060 C   0  0  2  0  0  3  0  0  0  0  0  0
  183.4030  178.9140  138.4200 C   0  0  0  0  0  2  0  0  0  0  0  0
  182.2230  178.7860  140.5100 O   0  0  0  0  0  0  0  0  0  0  0  0
  182.8220  176.7920  139.3060 C   0  0  0  0  0  2  0  0  0  0  0  0
  183.0220  177.5400  138.0560 N   0  0  0  0  0  0  0  0  0  0  0  0
  181.7680  177.4990  140.1630 C   0  0  0  0  0  2  0  0  0  0  0  0
  182.3250  179.5270  139.3180 C   0  0  0  0  0  2  0  0  0  0  0  0
  184.1610  174.5260  136.9060 N   0  0  0  0  0  0  0  0  0  0  0  0
  184.3490  175.5090  137.7300 C   0  0  0  0  0  3  0  0  0  0  0  0
  184.3580  173.1650  137.2950 C   0  0  0  0  0  0  0  0  0  0  0  0
  185.3640  172.8230  137.9750 O   0  0  0  0  0  0  0  0  0  0  0  0
  183.3620  172.1350  136.8950 C   0  0  0  0  0  1  0  0  0  0  0  0
  190.0890  177.6760  139.9850 C   0  0  0  0  0  2  0  0  0  0  0  0
  189.1100  177.5100  142.3570 C   0  0  1  0  0  3  0  0  0  0  0  0
  188.2630  178.4390  141.5110 C   0  0  1  0  0  3  0  0  0  0  0  0
  188.9150  177.2330  140.8640 C   0  0  1  0  0  3  0  0  0  0  0  0
  186.9160  178.1610  141.7450 O   0  0  0  0  0  1  0  0  0  0  0  0
  191.0060  178.2320  143.9530 C   0  0  0  0  0  0  0  0  0  0  0  0
  190.3780  178.1670  142.6600 N   0  0  0  0  0  2  0  0  0  0  0  0
  191.9840  179.0190  144.0920 O   0  0  0  0  0  0  0  0  0  0  0  0
  191.3730  176.5500  145.7210 C   0  0  0  0  0  2  0  0  0  0  0  0
  190.5710  177.4230  145.1210 C   0  0  0  0  0  0  0  0  0  0  0  0
  189.2490  177.6910  145.7560 C   0  0  0  0  0  2  0  0  0  0  0  0
  189.3110  177.4240  147.2510 C   0  0  0  0  0  1  0  0  0  0  0  0
  193.5410  176.3320  137.3840 C   0  0  0  0  0  2  0  0  0  0  0  0
  196.3110  174.0570  136.1640 C   0  0  0  0  0  3  0  0  0  0  0  0
  194.7810  174.4350  138.4710 C   0  0  0  0  0  3  0  0  0  0  0  0
  195.7430  173.4240  138.4310 C   0  0  0  0  0  3  0  0  0  0  0  0
  195.3470  175.0670  136.2050 C   0  0  0  0  0  3  0  0  0  0  0  0
  196.5230  173.2280  137.2790 C   0  0  0  0  0  0  0  0  0  0  0  0
  194.5810  175.2610  137.3570 C   0  0  0  0  0  0  0  0  0  0  0  0
  197.1840  170.7720  137.3500 C   0  0  0  0  0  2  0  0  0  0  0  0
  199.6040  171.0800  137.2040 C   0  0  0  0  0  2  0  0  0  0  0  0
  198.9300  172.4330  137.0600 C   0  0  0  0  0  2  0  0  0  0  0  0
  198.4940  170.0350  137.1350 C   0  0  0  0  0  2  0  0  0  0  0  0
  197.5100  172.1840  137.2370 N   0  0  0  0  0  0  0  0  0  0  0  0
  2  1  1  0  0  0  0
  2  5  1  0  0  0  0
  3 10  1  6  0  0  0
  3  7  1  0  0  0  0
  4  7  2  0  0  0  0
  5  4  2  0  0  0  0
  6  1  1  0  0  0  0
  6  3  1  0  0  0  0
  7 24  1  0  0  0  0
  9 10  2  0  0  0  0
 10  8  1  0  0  0  0
 11  8  1  0  0  0  0
 12 11  1  1  0  0  0
 12 20  1  0  0  0  0
 12 16  1  0  0  0  0
 13 18  1  0  0  0  0
 15 17  1  0  0  0  0
 16 13  1  0  0  0  0
 16 15  1  0  0  0  0
 17 14  1  0  0  0  0
 18 14  1  0  0  0  0
 19 21  1  0  0  0  0
 19 20  2  0  0  0  0
 21 22  2  0  0  0  0
 23 21  1  0  0  0  0
 25 30  1  6  0  0  0
 26 28  1  1  0  0  0
 26 25  1  0  0  0  0
 27 24  1  6  0  0  0
 27 26  1  0  0  0  0
 27 25  1  0  0  0  0
 29 31  2  0  0  0  0
 29 33  1  0  0  0  0
 30 29  1  0  0  0  0
 33 32  2  0  0  0  0
 33 34  1  0  0  0  0
 34 35  1  0  0  0  0
 36  5  1  0  0  0  0
 37 40  2  0  0  0  0
 37 41  1  0  0  0  0
 39 38  1  0  0  0  0
 40 42  1  0  0  0  0
 41 39  2  0  0  0  0
 42 36  1  0  0  0  0
 42 38  2  0  0  0  0
 45 44  1  0  0  0  0
 45 47  1  0  0  0  0
 46 44  1  0  0  0  0
 46 43  1  0  0  0  0
 47 41  1  0  0  0  0
 47 43  1  0  0  0  0
M  END
>  <MODEL>
5

>  <REMARK>
 VINA RESULT:      -6.4      3.481      8.253
  Name = 
  14 active torsions:
  status: ('A' for Active; 'I' for Inactive)
    1  A    between atoms: C_1  and  N_5
    2  A    between atoms: C_2  and  C_43
    3  A    between atoms: C_3  and  N_12
    4  A    between atoms: C_3  and  C_18
    5  A    between atoms: C_4  and  N_9
    6  A    between atoms: C_7  and  C_31
    7  A    between atoms: C_18  and  N_26
    8  A    between atoms: C_18  and  C_34
    9  A    between atoms: C_19  and  C_20
   10  A    between atoms: C_22  and  C_43
   11  A    between atoms: C_30  and  C_42
   12  A    between atoms: C_31  and  C_46
   13  A    between atoms: N_41  and  C_45
   14  A    between atoms: C_42  and  C_47
                            x       y       z     vdW  Elec       q    Type
                         _______ _______ _______ _____ _____    ______ ____

>  <TORSDO>
F 14

$$$$
=
 OpenBabel10232411503D

 47 51  0  0  1  0  0  0  0  0999 V2000
  189.0810  178.4390  138.8190 C   0  0  0  0  0  2  0  0  0  0  0  0
  189.6820  177.9920  140.1740 C   0  0  0  0  0  2  0  0  0  0  0  0
  189.9070  176.7800  136.9660 C   0  0  1  0  0  3  0  0  0  0  0  0
  191.3230  176.8470  138.9000 C   0  0  0  0  0  0  0  0  0  0  0  0
  191.0540  177.3700  140.0550 C   0  0  0  0  0  0  0  0  0  0  0  0
  188.7500  177.2420  137.9010 C   0  0  0  0  0  2  0  0  0  0  0  0
  191.2320  176.5030  137.6510 C   0  0  0  0  0  0  0  0  0  0  0  0
  188.8820  174.4760  136.9040 N   0  0  0  0  0  2  0  0  0  0  0  0
  189.6130  175.5310  134.9520 O   0  0  0  0  0  0  0  0  0  0  0  0
  189.4350  175.5890  136.2010 C   0  0  0  0  0  0  0  0  0  0  0  0
  188.6950  173.1870  136.2560 C   0  0  0  0  0  2  0  0  0  0  0  0
  187.3450  173.1160  135.5200 C   0  0  2  0  0  3  0  0  0  0  0  0
  185.5090  172.9350  137.0320 C   0  0  0  0  0  2  0  0  0  0  0  0
  183.4750  174.1590  136.6540 O   0  0  0  0  0  0  0  0  0  0  0  0
  185.3840  174.4620  135.2220 C   0  0  0  0  0  2  0  0  0  0  0  0
  186.2930  173.8770  136.2170 N   0  0  0  0  0  0  0  0  0  0  0  0
  184.2030  175.1270  135.9360 C   0  0  0  0  0  2  0  0  0  0  0  0
  184.3220  173.6660  137.6650 C   0  0  0  0  0  2  0  0  0  0  0  0
  187.7930  170.7200  135.3490 N   0  0  0  0  0  0  0  0  0  0  0  0
  186.9260  171.6830  135.3340 C   0  0  0  0  0  3  0  0  0  0  0  0
  187.4100  169.3550  135.1720 C   0  0  0  0  0  0  0  0  0  0  0  0
  186.2000  169.0350  135.0150 O   0  0  0  0  0  0  0  0  0  0  0  0
  188.4520  168.2920  135.1730 C   0  0  0  0  0  1  0  0  0  0  0  0
  192.4490  176.1500  136.8540 C   0  0  0  0  0  2  0  0  0  0  0  0
  193.7060  173.9950  137.4770 C   0  0  1  0  0  3  0  0  0  0  0  0
  194.6740  175.0120  136.9040 C   0  0  1  0  0  3  0  0  0  0  0  0
  193.5050  175.4890  137.7440 C   0  0  1  0  0  3  0  0  0  0  0  0
  195.8310  175.0220  137.6820 O   0  0  0  0  0  1  0  0  0  0  0  0
  193.0930  172.2810  135.6480 C   0  0  0  0  0  0  0  0  0  0  0  0
  192.8620  173.4840  136.4010 N   0  0  0  0  0  2  0  0  0  0  0  0
  192.3960  172.0930  134.6110 O   0  0  0  0  0  0  0  0  0  0  0  0
  195.3520  171.5600  136.3320 C   0  0  0  0  0  2  0  0  0  0  0  0
  194.0960  171.2520  136.0270 C   0  0  0  0  0  0  0  0  0  0  0  0
  193.6670  169.8380  136.2300 C   0  0  0  0  0  2  0  0  0  0  0  0
  194.2530  168.9430  135.1500 C   0  0  0  0  0  1  0  0  0  0  0  0
  191.8090  176.9300  141.2660 C   0  0  0  0  0  2  0  0  0  0  0  0
  190.4880  178.4560  144.4700 C   0  0  0  0  0  3  0  0  0  0  0  0
  190.0780  176.1670  142.9220 C   0  0  0  0  0  3  0  0  0  0  0  0
  189.3510  176.3510  144.0990 C   0  0  0  0  0  3  0  0  0  0  0  0
  191.2170  178.2700  143.2930 C   0  0  0  0  0  3  0  0  0  0  0  0
  189.5440  177.5010  144.8830 C   0  0  0  0  0  0  0  0  0  0  0  0
  191.0130  177.1280  142.5140 C   0  0  0  0  0  0  0  0  0  0  0  0
  187.4030  178.0900  146.1260 C   0  0  0  0  0  2  0  0  0  0  0  0
  188.2830  177.9090  148.3980 C   0  0  0  0  0  2  0  0  0  0  0  0
  189.3620  177.4790  147.4220 C   0  0  0  0  0  2  0  0  0  0  0  0
  186.9970  178.0480  147.5880 C   0  0  0  0  0  2  0  0  0  0  0  0
  188.7990  177.6880  146.0980 N   0  0  0  0  0  0  0  0  0  0  0  0
  1  2  1  0  0  0  0
  3 10  1  1  0  0  0
  3  7  1  0  0  0  0
  3  6  1  0  0  0  0
  4  5  2  0  0  0  0
  5  2  1  0  0  0  0
  5 36  1  0  0  0  0
  6  1  1  0  0  0  0
  7  4  2  0  0  0  0
  9 10  2  0  0  0  0
 10  8  1  0  0  0  0
 11  8  1  0  0  0  0
 12 20  1  1  0  0  0
 12 16  1  0  0  0  0
 12 11  1  0  0  0  0
 13 18  1  0  0  0  0
 14 18  1  0  0  0  0
 15 17  1  0  0  0  0
 15 16  1  0  0  0  0
 16 13  1  0  0  0  0
 17 14  1  0  0  0  0
 20 19  2  0  0  0  0
 21 23  1  0  0  0  0
 21 19  1  0  0  0  0
 22 21  2  0  0  0  0
 24  7  1  0  0  0  0
 25 30  1  6  0  0  0
 25 27  1  0  0  0  0
 26 25  1  0  0  0  0
 26 28  1  1  0  0  0
 26 27  1  0  0  0  0
 27 24  1  6  0  0  0
 29 33  1  0  0  0  0
 29 30  1  0  0  0  0
 31 29  2  0  0  0  0
 33 34  1  0  0  0  0
 33 32  2  0  0  0  0
 35 34  1  0  0  0  0
 36 42  1  0  0  0  0
 37 41  1  0  0  0  0
 38 39  1  0  0  0  0
 39 41  2  0  0  0  0
 40 37  2  0  0  0  0
 41 47  1  0  0  0  0
 42 38  2  0  0  0  0
 42 40  1  0  0  0  0
 43 46  1  0  0  0  0
 45 44  1  0  0  0  0
 46 44  1  0  0  0  0
 47 43  1  0  0  0  0
 47 45  1  0  0  0  0
M  END
>  <MODEL>
6

>  <REMARK>
 VINA RESULT:      -6.4      3.460      9.998
  Name = 
  14 active torsions:
  status: ('A' for Active; 'I' for Inactive)
    1  A    between atoms: C_1  and  N_5
    2  A    between atoms: C_2  and  C_43
    3  A    between atoms: C_3  and  N_12
    4  A    between atoms: C_3  and  C_18
    5  A    between atoms: C_4  and  N_9
    6  A    between atoms: C_7  and  C_31
    7  A    between atoms: C_18  and  N_26
    8  A    between atoms: C_18  and  C_34
    9  A    between atoms: C_19  and  C_20
   10  A    between atoms: C_22  and  C_43
   11  A    between atoms: C_30  and  C_42
   12  A    between atoms: C_31  and  C_46
   13  A    between atoms: N_41  and  C_45
   14  A    between atoms: C_42  and  C_47
                            x       y       z     vdW  Elec       q    Type
                         _______ _______ _______ _____ _____    ______ ____

>  <TORSDO>
F 14

$$$$
=
 OpenBabel10232411503D

 47 51  0  0  1  0  0  0  0  0999 V2000
  189.6040  174.7550  136.9870 C   0  0  0  0  0  2  0  0  0  0  0  0
  191.0440  175.1730  136.5970 C   0  0  0  0  0  2  0  0  0  0  0  0
  188.4980  176.7380  138.2970 C   0  0  1  0  0  3  0  0  0  0  0  0
  190.8960  176.7670  138.3480 C   0  0  0  0  0  0  0  0  0  0  0  0
  191.7080  176.0800  137.6070 C   0  0  0  0  0  0  0  0  0  0  0  0
  188.6210  175.9450  136.9600 C   0  0  0  0  0  2  0  0  0  0  0  0
  189.8080  177.2140  138.8980 C   0  0  0  0  0  0  0  0  0  0  0  0
  186.2390  177.8130  138.6090 N   0  0  0  0  0  2  0  0  0  0  0  0
  187.9070  178.8430  137.3380 O   0  0  0  0  0  0  0  0  0  0  0  0
  187.5610  177.8770  138.0740 C   0  0  0  0  0  0  0  0  0  0  0  0
  185.1990  178.7330  138.1720 C   0  0  0  0  0  2  0  0  0  0  0  0
  183.8410  178.3940  138.8110 C   0  0  2  0  0  3  0  0  0  0  0  0
  182.9870  176.1720  138.6640 C   0  0  0  0  0  2  0  0  0  0  0  0
  183.0360  174.9660  136.5860 O   0  0  0  0  0  0  0  0  0  0  0  0
  183.7480  177.2610  136.7000 C   0  0  0  0  0  2  0  0  0  0  0  0
  183.0510  177.4720  137.9760 N   0  0  0  0  0  0  0  0  0  0  0  0
  183.0150  176.1890  135.8880 C   0  0  0  0  0  2  0  0  0  0  0  0
  182.2890  175.1470  137.7650 C   0  0  0  0  0  2  0  0  0  0  0  0
  181.8230  179.7700  138.7360 N   0  0  0  0  0  0  0  0  0  0  0  0
  183.0650  179.6530  139.0870 C   0  0  0  0  0  3  0  0  0  0  0  0
  181.0730  180.9600  138.9920 C   0  0  0  0  0  0  0  0  0  0  0  0
  180.2750  181.0270  139.9660 O   0  0  0  0  0  0  0  0  0  0  0  0
  181.2360  182.1380  138.0980 C   0  0  0  0  0  1  0  0  0  0  0  0
  189.8360  177.8980  140.2290 C   0  0  0  0  0  2  0  0  0  0  0  0
  188.9390  177.6560  142.6270 C   0  0  1  0  0  3  0  0  0  0  0  0
  187.9880  178.4990  141.8010 C   0  0  1  0  0  3  0  0  0  0  0  0
  188.7310  177.3550  141.1400 C   0  0  1  0  0  3  0  0  0  0  0  0
  186.6800  178.1000  142.0710 O   0  0  0  0  0  1  0  0  0  0  0  0
  191.1300  178.1340  143.9040 C   0  0  0  0  0  0  0  0  0  0  0  0
  190.1490  178.4280  142.8940 N   0  0  0  0  0  2  0  0  0  0  0  0
  192.0000  179.0150  144.1530 O   0  0  0  0  0  0  0  0  0  0  0  0
  191.6210  175.7250  144.1210 C   0  0  0  0  0  2  0  0  0  0  0  0
  191.1760  176.8540  144.6600 C   0  0  0  0  0  0  0  0  0  0  0  0
  190.8650  176.8450  146.1180 C   0  0  0  0  0  2  0  0  0  0  0  0
  191.9780  176.1630  146.8970 C   0  0  0  0  0  1  0  0  0  0  0  0
  193.1170  176.5390  137.4230 C   0  0  0  0  0  2  0  0  0  0  0  0
  195.5090  173.9380  136.0610 C   0  0  0  0  0  3  0  0  0  0  0  0
  194.3790  174.6570  138.5130 C   0  0  0  0  0  3  0  0  0  0  0  0
  195.2540  173.5720  138.4410 C   0  0  0  0  0  3  0  0  0  0  0  0
  194.6320  175.0230  136.1340 C   0  0  0  0  0  3  0  0  0  0  0  0
  195.8330  173.2040  137.2150 C   0  0  0  0  0  0  0  0  0  0  0  0
  194.0670  175.3870  137.3590 C   0  0  0  0  0  0  0  0  0  0  0  0
  196.4230  170.7760  137.6980 C   0  0  0  0  0  2  0  0  0  0  0  0
  198.6780  170.7930  136.7560 C   0  0  0  0  0  2  0  0  0  0  0  0
  198.0260  172.1380  136.4870 C   0  0  0  0  0  2  0  0  0  0  0  0
  197.5780  169.8800  137.2900 C   0  0  0  0  0  2  0  0  0  0  0  0
  196.7300  172.0830  137.1410 N   0  0  0  0  0  0  0  0  0  0  0  0
  2  1  1  0  0  0  0
  2  5  1  0  0  0  0
  3 10  1  6  0  0  0
  3  7  1  0  0  0  0
  4  7  2  0  0  0  0
  5  4  2  0  0  0  0
  6  1  1  0  0  0  0
  6  3  1  0  0  0  0
  7 24  1  0  0  0  0
  9 10  2  0  0  0  0
 10  8  1  0  0  0  0
 11  8  1  0  0  0  0
 12 11  1  6  0  0  0
 12 20  1  0  0  0  0
 14 18  1  0  0  0  0
 15 16  1  0  0  0  0
 16 13  1  0  0  0  0
 16 12  1  0  0  0  0
 17 14  1  0  0  0  0
 17 15  1  0  0  0  0
 18 13  1  0  0  0  0
 19 21  1  0  0  0  0
 19 20  2  0  0  0  0
 21 22  2  0  0  0  0
 23 21  1  0  0  0  0
 25 30  1  6  0  0  0
 26 28  1  1  0  0  0
 26 25  1  0  0  0  0
 27 24  1  6  0  0  0
 27 26  1  0  0  0  0
 27 25  1  0  0  0  0
 29 31  2  0  0  0  0
 29 33  1  0  0  0  0
 30 29  1  0  0  0  0
 32 33  2  0  0  0  0
 33 34  1  0  0  0  0
 34 35  1  0  0  0  0
 36  5  1  0  0  0  0
 37 40  2  0  0  0  0
 37 41  1  0  0  0  0
 39 38  1  0  0  0  0
 40 42  1  0  0  0  0
 41 39  2  0  0  0  0
 42 36  1  0  0  0  0
 42 38  2  0  0  0  0
 44 46  1  0  0  0  0
 45 44  1  0  0  0  0
 45 47  1  0  0  0  0
 46 43  1  0  0  0  0
 47 41  1  0  0  0  0
 47 43  1  0  0  0  0
M  END
>  <MODEL>
7

>  <REMARK>
 VINA RESULT:      -6.4      3.435      8.224
  Name = 
  14 active torsions:
  status: ('A' for Active; 'I' for Inactive)
    1  A    between atoms: C_1  and  N_5
    2  A    between atoms: C_2  and  C_43
    3  A    between atoms: C_3  and  N_12
    4  A    between atoms: C_3  and  C_18
    5  A    between atoms: C_4  and  N_9
    6  A    between atoms: C_7  and  C_31
    7  A    between atoms: C_18  and  N_26
    8  A    between atoms: C_18  and  C_34
    9  A    between atoms: C_19  and  C_20
   10  A    between atoms: C_22  and  C_43
   11  A    between atoms: C_30  and  C_42
   12  A    between atoms: C_31  and  C_46
   13  A    between atoms: N_41  and  C_45
   14  A    between atoms: C_42  and  C_47
                            x       y       z     vdW  Elec       q    Type
                         _______ _______ _______ _____ _____    ______ ____

>  <TORSDO>
F 14

$$$$
=
 OpenBabel10232411503D

 47 51  0  0  1  0  0  0  0  0999 V2000
  188.6360  179.1580  138.9720 C   0  0  0  0  0  2  0  0  0  0  0  0
  189.1240  178.3300  140.1860 C   0  0  0  0  0  2  0  0  0  0  0  0
  188.8870  177.6850  136.8180 C   0  0  1  0  0  3  0  0  0  0  0  0
  190.3220  177.0120  138.6180 C   0  0  0  0  0  0  0  0  0  0  0  0
  190.2520  177.3790  139.8600 C   0  0  0  0  0  0  0  0  0  0  0  0
  187.9440  178.2820  137.9050 C   0  0  0  0  0  2  0  0  0  0  0  0
  190.0960  176.9330  137.3420 C   0  0  0  0  0  0  0  0  0  0  0  0
  187.2210  175.8230  136.4750 N   0  0  0  0  0  2  0  0  0  0  0  0
  188.1950  176.9280  134.6620 O   0  0  0  0  0  0  0  0  0  0  0  0
  188.0670  176.8270  135.9150 C   0  0  0  0  0  0  0  0  0  0  0  0
  186.6450  174.7700  135.6530 C   0  0  0  0  0  2  0  0  0  0  0  0
  185.1110  174.8670  135.6040 C   0  0  2  0  0  3  0  0  0  0  0  0
  183.6180  174.8930  137.4640 C   0  0  0  0  0  2  0  0  0  0  0  0
  182.2090  176.7940  137.8890 O   0  0  0  0  0  0  0  0  0  0  0  0
  183.8290  176.8290  136.1110 C   0  0  0  0  0  2  0  0  0  0  0  0
  184.5740  175.7040  136.6920 N   0  0  0  0  0  0  0  0  0  0  0  0
  183.1400  177.6190  137.2280 C   0  0  0  0  0  2  0  0  0  0  0  0
  182.9370  175.7680  138.5210 C   0  0  0  0  0  2  0  0  0  0  0  0
  185.2290  172.4340  135.7920 N   0  0  0  0  0  0  0  0  0  0  0  0
  184.4980  173.4940  135.6410 C   0  0  0  0  0  3  0  0  0  0  0  0
  184.6620  171.1230  135.8280 C   0  0  0  0  0  0  0  0  0  0  0  0
  183.7190  170.8460  136.6190 O   0  0  0  0  0  0  0  0  0  0  0  0
  185.1870  170.0680  134.9200 C   0  0  0  0  0  1  0  0  0  0  0  0
  191.1330  176.3980  136.4040 C   0  0  0  0  0  2  0  0  0  0  0  0
  191.8060  173.9510  136.8230 C   0  0  1  0  0  3  0  0  0  0  0  0
  190.4040  174.1990  137.3440 C   0  0  1  0  0  3  0  0  0  0  0  0
  190.8710  174.9210  136.0950 C   0  0  1  0  0  3  0  0  0  0  0  0
  189.5900  173.1280  136.9770 O   0  0  0  0  0  1  0  0  0  0  0  0
  194.1140  174.9780  137.3520 C   0  0  0  0  0  0  0  0  0  0  0  0
  192.7630  174.6230  137.6970 N   0  0  0  0  0  2  0  0  0  0  0  0
  194.8790  175.3530  138.2840 O   0  0  0  0  0  0  0  0  0  0  0  0
  195.1470  173.8250  135.4300 C   0  0  0  0  0  2  0  0  0  0  0  0
  194.6490  174.9340  135.9660 C   0  0  0  0  0  0  0  0  0  0  0  0
  194.4920  176.1180  135.0730 C   0  0  0  0  0  2  0  0  0  0  0  0
  195.7550  176.9620  135.0790 C   0  0  0  0  0  1  0  0  0  0  0  0
  190.8850  176.5400  140.9210 C   0  0  0  0  0  2  0  0  0  0  0  0
  190.5000  177.9230  144.4260 C   0  0  0  0  0  3  0  0  0  0  0  0
  189.0890  176.2790  142.6610 C   0  0  0  0  0  3  0  0  0  0  0  0
  188.5710  176.5460  143.9300 C   0  0  0  0  0  3  0  0  0  0  0  0
  191.0180  177.6540  143.1570 C   0  0  0  0  0  3  0  0  0  0  0  0
  189.2690  177.3750  144.8240 C   0  0  0  0  0  0  0  0  0  0  0  0
  190.3140  176.8350  142.2700 C   0  0  0  0  0  0  0  0  0  0  0  0
  189.5380  177.5920  147.3450 C   0  0  0  0  0  2  0  0  0  0  0  0
  187.2040  178.0740  147.8840 C   0  0  0  0  0  2  0  0  0  0  0  0
  187.3530  178.0110  146.3750 C   0  0  0  0  0  2  0  0  0  0  0  0
  188.6170  178.0570  148.4590 C   0  0  0  0  0  2  0  0  0  0  0  0
  188.7390  177.6450  146.1330 N   0  0  0  0  0  0  0  0  0  0  0  0
  1  2  1  0  0  0  0
  3 10  1  1  0  0  0
  3  7  1  0  0  0  0
  3  6  1  0  0  0  0
  4  5  2  0  0  0  0
  5  2  1  0  0  0  0
  5 36  1  0  0  0  0
  6  1  1  0  0  0  0
  7  4  2  0  0  0  0
  9 10  2  0  0  0  0
 10  8  1  0  0  0  0
 11  8  1  0  0  0  0
 12 20  1  1  0  0  0
 12 11  1  0  0  0  0
 12 16  1  0  0  0  0
 13 18  1  0  0  0  0
 14 18  1  0  0  0  0
 15 16  1  0  0  0  0
 15 17  1  0  0  0  0
 16 13  1  0  0  0  0
 17 14  1  0  0  0  0
 19 21  1  0  0  0  0
 20 19  2  0  0  0  0
 21 22  2  0  0  0  0
 23 21  1  0  0  0  0
 24  7  1  0  0  0  0
 25 26  1  0  0  0  0
 25 30  1  1  0  0  0
 26 28  1  6  0  0  0
 27 24  1  1  0  0  0
 27 25  1  0  0  0  0
 27 26  1  0  0  0  0
 29 30  1  0  0  0  0
 29 31  2  0  0  0  0
 32 33  2  0  0  0  0
 33 29  1  0  0  0  0
 34 35  1  0  0  0  0
 34 33  1  0  0  0  0
 36 42  1  0  0  0  0
 37 41  1  0  0  0  0
 38 39  1  0  0  0  0
 39 41  2  0  0  0  0
 40 37  2  0  0  0  0
 41 47  1  0  0  0  0
 42 38  2  0  0  0  0
 42 40  1  0  0  0  0
 43 46  1  0  0  0  0
 44 46  1  0  0  0  0
 45 44  1  0  0  0  0
 47 45  1  0  0  0  0
 47 43  1  0  0  0  0
M  END
>  <MODEL>
8

>  <REMARK>
 VINA RESULT:      -6.3      2.793      9.333
  Name = 
  14 active torsions:
  status: ('A' for Active; 'I' for Inactive)
    1  A    between atoms: C_1  and  N_5
    2  A    between atoms: C_2  and  C_43
    3  A    between atoms: C_3  and  N_12
    4  A    between atoms: C_3  and  C_18
    5  A    between atoms: C_4  and  N_9
    6  A    between atoms: C_7  and  C_31
    7  A    between atoms: C_18  and  N_26
    8  A    between atoms: C_18  and  C_34
    9  A    between atoms: C_19  and  C_20
   10  A    between atoms: C_22  and  C_43
   11  A    between atoms: C_30  and  C_42
   12  A    between atoms: C_31  and  C_46
   13  A    between atoms: N_41  and  C_45
   14  A    between atoms: C_42  and  C_47
                            x       y       z     vdW  Elec       q    Type
                         _______ _______ _______ _____ _____    ______ ____

>  <TORSDO>
F 14

$$$$
=
 OpenBabel10232411503D

 47 51  0  0  1  0  0  0  0  0999 V2000
  188.1470  175.4270  134.9880 C   0  0  0  0  0  2  0  0  0  0  0  0
  189.6380  175.7370  134.7050 C   0  0  0  0  0  2  0  0  0  0  0  0
  187.4520  176.6690  137.1890 C   0  0  1  0  0  3  0  0  0  0  0  0
  189.8100  176.2710  137.0110 C   0  0  0  0  0  0  0  0  0  0  0  0
  190.4700  175.9100  135.9550 C   0  0  0  0  0  0  0  0  0  0  0  0
  187.4120  176.6230  135.6320 C   0  0  0  0  0  2  0  0  0  0  0  0
  188.8320  176.5660  137.8120 C   0  0  0  0  0  0  0  0  0  0  0  0
  185.4990  177.8050  138.3100 N   0  0  0  0  0  2  0  0  0  0  0  0
  187.2190  179.0420  137.3260 O   0  0  0  0  0  0  0  0  0  0  0  0
  186.7510  177.9090  137.6330 C   0  0  0  0  0  0  0  0  0  0  0  0
  184.6340  178.9610  138.4880 C   0  0  0  0  0  2  0  0  0  0  0  0
  183.4450  178.6400  139.4100 C   0  0  2  0  0  3  0  0  0  0  0  0
  182.5220  180.7540  138.8020 C   0  0  0  0  0  2  0  0  0  0  0  0
  180.3460  181.4190  139.5760 O   0  0  0  0  0  0  0  0  0  0  0  0
  181.2110  179.2250  140.0550 C   0  0  0  0  0  2  0  0  0  0  0  0
  182.2120  179.3260  138.9840 N   0  0  0  0  0  0  0  0  0  0  0  0
  179.9820  180.0620  139.6860 C   0  0  0  0  0  2  0  0  0  0  0  0
  181.2360  181.5240  138.4900 C   0  0  0  0  0  2  0  0  0  0  0  0
  184.0600  178.0700  141.7050 N   0  0  0  0  0  0  0  0  0  0  0  0
  183.7780  178.9880  140.8350 C   0  0  0  0  0  3  0  0  0  0  0  0
  184.3780  178.3850  143.0620 C   0  0  0  0  0  0  0  0  0  0  0  0
  183.4690  178.5230  143.9260 O   0  0  0  0  0  0  0  0  0  0  0  0
  185.8000  178.5530  143.4650 C   0  0  0  0  0  1  0  0  0  0  0  0
  189.0000  176.4970  139.2980 C   0  0  0  0  0  2  0  0  0  0  0  0
  189.8560  177.9180  141.2630 C   0  0  1  0  0  3  0  0  0  0  0  0
  190.9420  176.9660  140.8000 C   0  0  1  0  0  3  0  0  0  0  0  0
  189.9900  177.5610  139.7800 C   0  0  1  0  0  3  0  0  0  0  0  0
  192.1540  177.6540  140.7500 O   0  0  0  0  0  1  0  0  0  0  0  0
  188.8790  176.6680  143.2980 C   0  0  0  0  0  0  0  0  0  0  0  0
  188.8160  177.1550  141.9460 N   0  0  0  0  0  2  0  0  0  0  0  0
  187.9970  175.8420  143.6670 O   0  0  0  0  0  0  0  0  0  0  0  0
  191.2050  176.8160  144.1080 C   0  0  0  0  0  2  0  0  0  0  0  0
  189.9160  177.0860  144.2770 C   0  0  0  0  0  0  0  0  0  0  0  0
  189.5440  177.9740  145.4160 C   0  0  0  0  0  2  0  0  0  0  0  0
  189.5010  177.1860  146.7140 C   0  0  0  0  0  1  0  0  0  0  0  0
  191.9400  176.1590  135.8740 C   0  0  0  0  0  2  0  0  0  0  0  0
  194.2700  173.6000  137.4110 C   0  0  0  0  0  3  0  0  0  0  0  0
  192.6810  173.8750  135.1300 C   0  0  0  0  0  3  0  0  0  0  0  0
  193.4300  172.7120  135.3210 C   0  0  0  0  0  3  0  0  0  0  0  0
  193.5220  174.7640  137.2180 C   0  0  0  0  0  3  0  0  0  0  0  0
  194.2280  172.5600  136.4670 C   0  0  0  0  0  0  0  0  0  0  0  0
  192.7240  174.9040  136.0800 C   0  0  0  0  0  0  0  0  0  0  0  0
  194.4240  170.0890  137.0450 C   0  0  0  0  0  2  0  0  0  0  0  0
  196.8570  169.9120  136.9090 C   0  0  0  0  0  2  0  0  0  0  0  0
  196.4450  171.3080  136.4790 C   0  0  0  0  0  2  0  0  0  0  0  0
  195.5720  169.0970  137.0180 C   0  0  0  0  0  2  0  0  0  0  0  0
  195.0040  171.3650  136.6610 N   0  0  0  0  0  0  0  0  0  0  0  0
  1  6  1  0  0  0  0
  2  1  1  0  0  0  0
  2  5  1  0  0  0  0
  3 10  1  6  0  0  0
  3  7  1  0  0  0  0
  4  7  2  0  0  0  0
  5  4  2  0  0  0  0
  6  3  1  0  0  0  0
  7 24  1  0  0  0  0
  8 11  1  0  0  0  0
  9 10  2  0  0  0  0
 10  8  1  0  0  0  0
 12 11  1  6  0  0  0
 12 20  1  0  0  0  0
 13 16  1  0  0  0  0
 14 17  1  0  0  0  0
 16 12  1  0  0  0  0
 16 15  1  0  0  0  0
 17 15  1  0  0  0  0
 18 13  1  0  0  0  0
 18 14  1  0  0  0  0
 19 21  1  0  0  0  0
 20 19  2  0  0  0  0
 21 23  1  0  0  0  0
 21 22  2  0  0  0  0
 25 30  1  1  0  0  0
 26 28  1  6  0  0  0
 26 25  1  0  0  0  0
 27 24  1  1  0  0  0
 27 26  1  0  0  0  0
 27 25  1  0  0  0  0
 29 31  2  0  0  0  0
 29 33  1  0  0  0  0
 30 29  1  0  0  0  0
 32 33  2  0  0  0  0
 33 34  1  0  0  0  0
 34 35  1  0  0  0  0
 36  5  1  0  0  0  0
 36 42  1  0  0  0  0
 38 39  2  0  0  0  0
 38 42  1  0  0  0  0
 39 41  1  0  0  0  0
 40 37  1  0  0  0  0
 41 47  1  0  0  0  0
 41 37  2  0  0  0  0
 42 40  2  0  0  0  0
 44 46  1  0  0  0  0
 45 47  1  0  0  0  0
 45 44  1  0  0  0  0
 46 43  1  0  0  0  0
 47 43  1  0  0  0  0
M  END
>  <MODEL>
9

>  <REMARK>
 VINA RESULT:      -6.2      3.088      7.394
  Name = 
  14 active torsions:
  status: ('A' for Active; 'I' for Inactive)
    1  A    between atoms: C_1  and  N_5
    2  A    between atoms: C_2  and  C_43
    3  A    between atoms: C_3  and  N_12
    4  A    between atoms: C_3  and  C_18
    5  A    between atoms: C_4  and  N_9
    6  A    between atoms: C_7  and  C_31
    7  A    between atoms: C_18  and  N_26
    8  A    between atoms: C_18  and  C_34
    9  A    between atoms: C_19  and  C_20
   10  A    between atoms: C_22  and  C_43
   11  A    between atoms: C_30  and  C_42
   12  A    between atoms: C_31  and  C_46
   13  A    between atoms: N_41  and  C_45
   14  A    between atoms: C_42  and  C_47
                            x       y       z     vdW  Elec       q    Type
                         _______ _______ _______ _____ _____    ______ ____

>  <TORSDO>
F 14

$$$$
