=
 OpenBabel10232412463D

 39 43  0  0  1  0  0  0  0  0999 V2000
  188.6000  177.6950  145.4870 C   0  0  0  0  0  0  0  0  0  0  0  0
  184.2060  178.7290  140.6300 C   0  0  0  0  0  2  0  0  0  0  0  0
  186.4170  178.1170  144.8570 C   0  0  0  0  0  0  0  0  0  0  0  0
  183.9220  178.5920  144.3320 C   0  0  0  0  0  3  0  0  0  0  0  0
  187.6970  177.9120  144.3530 C   0  0  2  0  0  3  0  0  0  0  0  0
  190.5980  177.2760  146.7500 C   0  0  0  0  0  3  0  0  0  0  0  0
  189.8530  177.3520  147.9440 C   0  0  0  0  0  3  0  0  0  0  0  0
  187.8650  177.7700  146.6600 C   0  0  0  0  0  0  0  0  0  0  0  0
  184.3400  178.6340  141.9530 C   0  0  0  0  0  0  0  0  0  0  0  0
  187.7350  177.6760  149.0810 O   0  0  0  0  0  1  0  0  0  0  0  0
  188.4720  177.6010  147.9060 C   0  0  0  0  0  0  0  0  0  0  0  0
  186.4700  178.0360  146.3140 C   0  0  0  0  0  0  0  0  0  0  0  0
  186.8670  178.1730  142.0930 C   0  0  0  0  0  3  0  0  0  0  0  0
  185.3530  178.3510  143.9930 C   0  0  0  0  0  0  0  0  0  0  0  0
  187.9530  177.9320  142.9690 C   0  0  0  0  0  0  0  0  0  0  0  0
  183.2380  178.7850  142.9630 C   0  0  0  0  0  3  0  0  0  0  0  0
  189.9730  177.4490  145.5030 C   0  0  0  0  0  3  0  0  0  0  0  0
  185.5850  178.3770  142.6370 C   0  0  0  0  0  0  0  0  0  0  0  0
  185.5060  178.1710  147.1130 O   0  0  0  0  0  0  0  0  0  0  0  0
  182.8950  178.9890  139.9600 C   0  0  0  0  0  2  0  0  0  0  0  0
  184.1200  180.7030  138.8500 O   0  0  0  0  0  0  0  0  0  0  0  0
  183.0130  180.1140  138.9890 C   0  0  0  0  0  0  0  0  0  0  0  0
  181.2620  181.7370  138.4010 C   0  0  0  0  0  1  0  0  0  0  0  0
  181.9060  180.4850  138.2270 O   0  0  0  0  0  0  0  0  0  0  0  0
  189.2790  177.7230  142.4740 N   0  0  0  0  0  2  0  0  0  0  0  0
  189.7170  176.4820  141.8460 C   0  0  2  0  0  3  0  0  0  0  0  0
  190.3740  175.5940  142.8930 C   0  0  0  0  0  1  0  0  0  0  0  0
  190.7030  176.7890  140.7210 C   0  0  2  0  0  3  0  0  0  0  0  0
  191.7290  177.6100  141.1970 O   0  0  0  0  0  1  0  0  0  0  0  0
  189.9950  177.4930  139.5750 C   0  0  0  0  0  2  0  0  0  0  0  0
  189.3850  176.5320  138.7220 O   0  0  0  0  0  0  0  0  0  0  0  0
  186.3150  176.0190  136.6880 C   0  0  0  0  0  0  0  0  0  0  0  0
  185.6730  177.2440  136.8890 C   0  0  0  0  0  3  0  0  0  0  0  0
  187.5510  175.7720  137.2930 C   0  0  0  0  0  3  0  0  0  0  0  0
  187.5010  177.9720  138.2990 C   0  0  0  0  0  3  0  0  0  0  0  0
  188.1520  176.7500  138.1030 C   0  0  0  0  0  0  0  0  0  0  0  0
  186.2650  178.2210  137.6940 C   0  0  0  0  0  3  0  0  0  0  0  0
  185.2160  174.2060  135.1950 N   0  0  0  0  0  0  0  0  0  0  0  0
  185.7060  175.0160  135.8610 C   0  0  0  0  0  0  0  0  0  0  0  0
  1 17  2  0  0  0  0
  1  8  1  0  0  0  0
  2  9  1  0  0  0  0
  3 12  1  0  0  0  0
  5 15  1  6  0  0  0
  5  3  1  0  0  0  0
  5  1  1  0  0  0  0
  6  7  2  0  0  0  0
  8 11  2  0  0  0  0
  9 18  2  0  0  0  0
  9 16  1  0  0  0  0
 11  7  1  0  0  0  0
 11 10  1  0  0  0  0
 12  8  1  0  0  0  0
 12 19  2  0  0  0  0
 13 18  1  0  0  0  0
 13 15  2  0  0  0  0
 14  4  1  0  0  0  0
 14  3  2  0  0  0  0
 16  4  2  0  0  0  0
 17  6  1  0  0  0  0
 18 14  1  0  0  0  0
 20  2  1  0  0  0  0
 21 22  2  0  0  0  0
 22 20  1  0  0  0  0
 24 23  1  0  0  0  0
 24 22  1  0  0  0  0
 25 15  1  0  0  0  0
 26 25  1  0  0  0  0
 26 27  1  1  0  0  0
 28 29  1  1  0  0  0
 28 26  1  0  0  0  0
 30 28  1  0  0  0  0
 31 30  1  0  0  0  0
 32 33  2  0  0  0  0
 32 34  1  0  0  0  0
 33 37  1  0  0  0  0
 34 36  2  0  0  0  0
 36 35  1  0  0  0  0
 36 31  1  0  0  0  0
 37 35  2  0  0  0  0
 38 39  3  0  0  0  0
 39 32  1  0  0  0  0
M  END
>  <MODEL>
1

>  <REMARK>
 VINA RESULT:      -9.8      0.000      0.000
  Name = 
  10 active torsions:
  status: ('A' for Active; 'I' for Inactive)
    1  A    between atoms: C_1  and  C_8
    2  A    between atoms: C_6  and  C_26
    3  A    between atoms: C_6  and  C_30
    4  A    between atoms: C_9  and  C_12
    5  A    between atoms: C_12  and  C_33
    6  A    between atoms: O_14  and  C_20
    7  A    between atoms: O_14  and  C_30
    8  A    between atoms: C_26  and  N_34
    9  A    between atoms: C_31  and  N_34
   10  A    between atoms: C_33  and  O_37
                            x       y       z     vdW  Elec       q    Type
                         _______ _______ _______ _____ _____    ______ ____

>  <TORSDO>
F 10

$$$$
=
 OpenBabel10232412463D

 39 43  0  0  1  0  0  0  0  0999 V2000
  188.1850  177.5400  145.4030 C   0  0  0  0  0  0  0  0  0  0  0  0
  183.1190  178.5910  141.2570 C   0  0  0  0  0  2  0  0  0  0  0  0
  186.0000  178.2220  145.0910 C   0  0  0  0  0  0  0  0  0  0  0  0
  183.5380  179.0210  144.9240 C   0  0  0  0  0  3  0  0  0  0  0  0
  187.1190  177.7410  144.4190 C   0  0  2  0  0  3  0  0  0  0  0  0
  190.3150  176.9800  146.3620 C   0  0  0  0  0  3  0  0  0  0  0  0
  189.8310  177.3430  147.6350 C   0  0  0  0  0  3  0  0  0  0  0  0
  187.7080  177.8980  146.6550 C   0  0  0  0  0  0  0  0  0  0  0  0
  183.4910  178.6610  142.5360 C   0  0  0  0  0  0  0  0  0  0  0  0
  188.0360  178.1660  149.0440 O   0  0  0  0  0  1  0  0  0  0  0  0
  188.5150  177.8080  147.7900 C   0  0  0  0  0  0  0  0  0  0  0  0
  186.3220  178.3380  146.5100 C   0  0  0  0  0  0  0  0  0  0  0  0
  185.9120  177.8150  142.3210 C   0  0  0  0  0  3  0  0  0  0  0  0
  184.8310  178.5040  144.3930 C   0  0  0  0  0  0  0  0  0  0  0  0
  187.1030  177.5250  143.0280 C   0  0  0  0  0  0  0  0  0  0  0  0
  182.6360  179.1310  143.6770 C   0  0  0  0  0  3  0  0  0  0  0  0
  189.4900  177.0760  145.2280 C   0  0  0  0  0  3  0  0  0  0  0  0
  184.7980  178.3010  143.0320 C   0  0  0  0  0  0  0  0  0  0  0  0
  185.5570  178.7390  147.4270 O   0  0  0  0  0  0  0  0  0  0  0  0
  181.7510  178.9650  140.7850 C   0  0  0  0  0  2  0  0  0  0  0  0
  182.5660  179.1560  138.5560 O   0  0  0  0  0  0  0  0  0  0  0  0
  181.8180  179.6320  139.4530 C   0  0  0  0  0  0  0  0  0  0  0  0
  181.4720  181.8060  138.3580 C   0  0  0  0  0  1  0  0  0  0  0  0
  181.0330  180.7570  139.2070 O   0  0  0  0  0  0  0  0  0  0  0  0
  188.2680  177.0340  142.3580 N   0  0  0  0  0  2  0  0  0  0  0  0
  189.1980  177.8880  141.6290 C   0  0  2  0  0  3  0  0  0  0  0  0
  188.5170  178.4120  140.3720 C   0  0  0  0  0  1  0  0  0  0  0  0
  190.4500  177.0970  141.2600 C   0  0  2  0  0  3  0  0  0  0  0  0
  191.5610  177.6270  141.9220 O   0  0  0  0  0  1  0  0  0  0  0  0
  190.6920  177.1570  139.7600 C   0  0  0  0  0  2  0  0  0  0  0  0
  190.6250  175.8480  139.2080 O   0  0  0  0  0  0  0  0  0  0  0  0
  193.1040  175.8130  136.4380 C   0  0  0  0  0  0  0  0  0  0  0  0
  192.6640  174.6980  135.7200 C   0  0  0  0  0  3  0  0  0  0  0  0
  192.4330  176.2050  137.6000 C   0  0  0  0  0  3  0  0  0  0  0  0
  190.8830  174.3670  137.3270 C   0  0  0  0  0  3  0  0  0  0  0  0
  191.3160  175.4820  138.0510 C   0  0  0  0  0  0  0  0  0  0  0  0
  191.5540  173.9750  136.1640 C   0  0  0  0  0  3  0  0  0  0  0  0
  195.1650  177.1550  135.6160 N   0  0  0  0  0  0  0  0  0  0  0  0
  194.2450  176.5570  135.9830 C   0  0  0  0  0  0  0  0  0  0  0  0
  1  8  1  0  0  0  0
  2  9  1  0  0  0  0
  3 12  1  0  0  0  0
  5 15  1  1  0  0  0
  5  3  1  0  0  0  0
  5  1  1  0  0  0  0
  6  7  2  0  0  0  0
  7 11  1  0  0  0  0
  8 11  2  0  0  0  0
  9 18  2  0  0  0  0
  9 16  1  0  0  0  0
 11 10  1  0  0  0  0
 12  8  1  0  0  0  0
 12 19  2  0  0  0  0
 13 15  2  0  0  0  0
 13 18  1  0  0  0  0
 14  4  1  0  0  0  0
 14  3  2  0  0  0  0
 16  4  2  0  0  0  0
 17  1  2  0  0  0  0
 17  6  1  0  0  0  0
 18 14  1  0  0  0  0
 20  2  1  0  0  0  0
 21 22  2  0  0  0  0
 22 20  1  0  0  0  0
 23 24  1  0  0  0  0
 24 22  1  0  0  0  0
 25 15  1  0  0  0  0
 26 27  1  6  0  0  0
 26 25  1  0  0  0  0
 28 26  1  0  0  0  0
 28 29  1  1  0  0  0
 30 28  1  0  0  0  0
 31 30  1  0  0  0  0
 32 34  1  0  0  0  0
 33 37  1  0  0  0  0
 33 32  2  0  0  0  0
 34 36  2  0  0  0  0
 35 36  1  0  0  0  0
 36 31  1  0  0  0  0
 37 35  2  0  0  0  0
 38 39  3  0  0  0  0
 39 32  1  0  0  0  0
M  END
>  <MODEL>
2

>  <REMARK>
 VINA RESULT:      -9.7      2.518      3.366
  Name = 
  10 active torsions:
  status: ('A' for Active; 'I' for Inactive)
    1  A    between atoms: C_1  and  C_8
    2  A    between atoms: C_6  and  C_26
    3  A    between atoms: C_6  and  C_30
    4  A    between atoms: C_9  and  C_12
    5  A    between atoms: C_12  and  C_33
    6  A    between atoms: O_14  and  C_20
    7  A    between atoms: O_14  and  C_30
    8  A    between atoms: C_26  and  N_34
    9  A    between atoms: C_31  and  N_34
   10  A    between atoms: C_33  and  O_37
                            x       y       z     vdW  Elec       q    Type
                         _______ _______ _______ _____ _____    ______ ____

>  <TORSDO>
F 10

$$$$
=
 OpenBabel10232412463D

 39 43  0  0  1  0  0  0  0  0999 V2000
  189.4940  177.0170  144.8100 C   0  0  0  0  0  0  0  0  0  0  0  0
  183.3720  178.6990  142.8970 C   0  0  0  0  0  2  0  0  0  0  0  0
  187.3950  177.7990  145.3760 C   0  0  0  0  0  0  0  0  0  0  0  0
  185.0980  178.6910  146.1870 C   0  0  0  0  0  3  0  0  0  0  0  0
  188.1640  177.3640  144.3020 C   0  0  0  0  0  0  0  0  0  0  0  0
  191.7790  176.2830  144.8760 C   0  0  0  0  0  3  0  0  0  0  0  0
  191.8080  176.5120  146.2660 C   0  0  0  0  0  3  0  0  0  0  0  0
  189.5200  177.2440  146.1780 C   0  0  0  0  0  0  0  0  0  0  0  0
  184.1790  178.6090  143.9550 C   0  0  0  0  0  0  0  0  0  0  0  0
  190.6950  177.2250  148.3000 O   0  0  0  0  0  1  0  0  0  0  0  0
  190.6700  176.9980  146.9300 C   0  0  0  0  0  0  0  0  0  0  0  0
  188.2080  177.7420  146.5870 C   0  0  0  0  0  0  0  0  0  0  0  0
  186.2980  177.7170  142.8000 C   0  0  0  0  0  3  0  0  0  0  0  0
  186.0770  178.1970  145.1780 C   0  0  0  0  0  0  0  0  0  0  0  0
  187.6390  177.3090  142.9970 C   0  0  0  0  0  0  0  0  0  0  0  0
  183.8220  178.9720  145.3680 C   0  0  0  0  0  2  0  0  0  0  0  0
  190.6140  176.5350  144.1320 C   0  0  0  0  0  3  0  0  0  0  0  0
  185.5480  178.1530  143.9090 C   0  0  0  0  0  0  0  0  0  0  0  0
  187.8510  178.0590  147.7520 O   0  0  0  0  0  0  0  0  0  0  0  0
  181.9560  179.1690  142.9910 C   0  0  0  0  0  2  0  0  0  0  0  0
  179.9910  178.2590  141.9990 O   0  0  0  0  0  0  0  0  0  0  0  0
  181.1640  178.6880  141.8230 C   0  0  0  0  0  0  0  0  0  0  0  0
  181.6140  177.6580  139.6350 C   0  0  0  0  0  1  0  0  0  0  0  0
  181.7200  178.7420  140.5450 O   0  0  0  0  0  0  0  0  0  0  0  0
  188.4510  176.8620  141.9070 N   0  0  0  0  0  2  0  0  0  0  0  0
  189.2870  177.7500  141.1080 C   0  0  2  0  0  3  0  0  0  0  0  0
  188.4730  178.2880  139.9400 C   0  0  0  0  0  1  0  0  0  0  0  0
  190.5090  176.9910  140.5960 C   0  0  2  0  0  3  0  0  0  0  0  0
  191.6770  177.6610  140.9690 O   0  0  0  0  0  1  0  0  0  0  0  0
  190.4640  176.8780  139.0800 C   0  0  0  0  0  2  0  0  0  0  0  0
  190.7150  175.5330  138.6900 O   0  0  0  0  0  0  0  0  0  0  0  0
  193.4540  175.7090  136.1820 C   0  0  0  0  0  0  0  0  0  0  0  0
  193.2860  174.4800  135.5390 C   0  0  0  0  0  3  0  0  0  0  0  0
  192.6050  176.0700  137.2320 C   0  0  0  0  0  3  0  0  0  0  0  0
  191.4190  173.9730  136.9950 C   0  0  0  0  0  3  0  0  0  0  0  0
  191.5800  175.2020  137.6440 C   0  0  0  0  0  0  0  0  0  0  0  0
  192.2680  173.6120  135.9450 C   0  0  0  0  0  3  0  0  0  0  0  0
  195.3420  177.3190  135.4290 N   0  0  0  0  0  0  0  0  0  0  0  0
  194.5000  176.6010  135.7660 C   0  0  0  0  0  0  0  0  0  0  0  0
  1  8  1  0  0  0  0
  2 20  1  0  0  0  0
  2  9  1  0  0  0  0
  3 12  1  0  0  0  0
  5  1  1  0  0  0  0
  5  3  2  0  0  0  0
  6  7  2  0  0  0  0
  7 11  1  0  0  0  0
  8 12  1  0  0  0  0
  8 11  2  0  0  0  0
  9 16  1  0  0  0  0
 11 10  1  0  0  0  0
 12 19  2  0  0  0  0
 13 15  2  0  0  0  0
 13 18  1  0  0  0  0
 14  3  1  0  0  0  0
 14  4  2  0  0  0  0
 15  5  1  0  0  0  0
 16  4  1  0  0  0  0
 17  1  2  0  0  0  0
 17  6  1  0  0  0  0
 18  9  2  0  0  0  0
 18 14  1  0  0  0  0
 22 21  2  0  0  0  0
 22 20  1  0  0  0  0
 23 24  1  0  0  0  0
 24 22  1  0  0  0  0
 25 15  1  0  0  0  0
 26 27  1  6  0  0  0
 26 25  1  0  0  0  0
 28 29  1  6  0  0  0
 28 26  1  0  0  0  0
 30 28  1  0  0  0  0
 31 30  1  0  0  0  0
 32 34  1  0  0  0  0
 33 37  1  0  0  0  0
 33 32  2  0  0  0  0
 34 36  2  0  0  0  0
 35 36  1  0  0  0  0
 36 31  1  0  0  0  0
 37 35  2  0  0  0  0
 38 39  3  0  0  0  0
 39 32  1  0  0  0  0
M  END
>  <MODEL>
3

>  <REMARK>
 VINA RESULT:      -9.7      2.958      4.016
  Name = 
  10 active torsions:
  status: ('A' for Active; 'I' for Inactive)
    1  A    between atoms: C_1  and  C_8
    2  A    between atoms: C_6  and  C_26
    3  A    between atoms: C_6  and  C_30
    4  A    between atoms: C_9  and  C_12
    5  A    between atoms: C_12  and  C_33
    6  A    between atoms: O_14  and  C_20
    7  A    between atoms: O_14  and  C_30
    8  A    between atoms: C_26  and  N_34
    9  A    between atoms: C_31  and  N_34
   10  A    between atoms: C_33  and  O_37
                            x       y       z     vdW  Elec       q    Type
                         _______ _______ _______ _____ _____    ______ ____

>  <TORSDO>
F 10

$$$$
=
 OpenBabel10232412463D

 39 43  0  0  1  0  0  0  0  0999 V2000
  185.1280  178.1860  142.9270 C   0  0  0  0  0  0  0  0  0  0  0  0
  190.4850  177.1070  146.6820 C   0  0  0  0  0  2  0  0  0  0  0  0
  186.0910  178.1530  145.0260 C   0  0  0  0  0  0  0  0  0  0  0  0
  187.0080  178.1680  147.4530 C   0  0  0  0  0  3  0  0  0  0  0  0
  186.3580  177.9290  143.6790 C   0  0  0  0  0  0  0  0  0  0  0  0
  183.5910  178.4080  141.0950 C   0  0  0  0  0  3  0  0  0  0  0  0
  182.5780  178.7890  141.9980 C   0  0  0  0  0  3  0  0  0  0  0  0
  184.1330  178.5620  143.8170 C   0  0  0  0  0  0  0  0  0  0  0  0
  189.2030  177.4750  146.7210 C   0  0  0  0  0  0  0  0  0  0  0  0
  181.8480  179.2450  144.2660 O   0  0  0  0  0  1  0  0  0  0  0  0
  182.8450  178.8690  143.3750 C   0  0  0  0  0  0  0  0  0  0  0  0
  184.6950  178.5570  145.1650 C   0  0  0  0  0  0  0  0  0  0  0  0
  188.6480  177.3500  144.2120 C   0  0  0  0  0  3  0  0  0  0  0  0
  187.0920  177.9800  145.9770 C   0  0  0  0  0  0  0  0  0  0  0  0
  187.6330  177.5270  143.2410 C   0  0  0  0  0  0  0  0  0  0  0  0
  188.4250  177.8260  147.9570 C   0  0  0  0  0  2  0  0  0  0  0  0
  184.8830  178.1010  141.5560 C   0  0  0  0  0  3  0  0  0  0  0  0
  188.3440  177.5850  145.5660 C   0  0  0  0  0  0  0  0  0  0  0  0
  184.0950  178.8420  146.2350 O   0  0  0  0  0  0  0  0  0  0  0  0
  191.3430  177.0140  147.9030 C   0  0  0  0  0  2  0  0  0  0  0  0
  192.3430  175.2050  146.7190 O   0  0  0  0  0  0  0  0  0  0  0  0
  192.3480  175.9230  147.7560 C   0  0  0  0  0  0  0  0  0  0  0  0
  193.5570  176.7050  149.7500 C   0  0  0  0  0  1  0  0  0  0  0  0
  193.2990  175.7250  148.7560 O   0  0  0  0  0  0  0  0  0  0  0  0
  187.8830  177.2980  141.8500 N   0  0  0  0  0  2  0  0  0  0  0  0
  188.9350  177.9730  141.1000 C   0  0  2  0  0  3  0  0  0  0  0  0
  188.4020  178.3610  139.7280 C   0  0  0  0  0  1  0  0  0  0  0  0
  190.1430  177.0520  140.9560 C   0  0  2  0  0  3  0  0  0  0  0  0
  191.1780  177.4880  141.7870 O   0  0  0  0  0  1  0  0  0  0  0  0
  190.6340  177.0430  139.5170 C   0  0  0  0  0  2  0  0  0  0  0  0
  190.8060  175.7020  139.0740 O   0  0  0  0  0  0  0  0  0  0  0  0
  193.2300  175.7630  136.2560 C   0  0  0  0  0  0  0  0  0  0  0  0
  192.7650  174.6820  135.5010 C   0  0  0  0  0  3  0  0  0  0  0  0
  192.5850  176.1110  137.4470 C   0  0  0  0  0  3  0  0  0  0  0  0
  191.0130  174.2990  137.1270 C   0  0  0  0  0  3  0  0  0  0  0  0
  191.4710  175.3790  137.8890 C   0  0  0  0  0  0  0  0  0  0  0  0
  191.6570  173.9510  135.9360 C   0  0  0  0  0  3  0  0  0  0  0  0
  195.2860  177.1200  135.4490 N   0  0  0  0  0  0  0  0  0  0  0  0
  194.3690  176.5150  135.8100 C   0  0  0  0  0  0  0  0  0  0  0  0
  1  5  1  0  0  0  0
  1  8  1  0  0  0  0
  2  9  1  0  0  0  0
  2 20  1  0  0  0  0
  3 12  1  0  0  0  0
  3 14  1  0  0  0  0
  4 16  1  0  0  0  0
  5  3  2  0  0  0  0
  6 17  1  0  0  0  0
  6  7  2  0  0  0  0
  7 11  1  0  0  0  0
  8 12  1  0  0  0  0
  9 16  1  0  0  0  0
 11  8  2  0  0  0  0
 11 10  1  0  0  0  0
 12 19  2  0  0  0  0
 13 18  1  0  0  0  0
 14  4  2  0  0  0  0
 15  5  1  0  0  0  0
 15 13  2  0  0  0  0
 17  1  2  0  0  0  0
 18 14  1  0  0  0  0
 18  9  2  0  0  0  0
 21 22  2  0  0  0  0
 22 20  1  0  0  0  0
 22 24  1  0  0  0  0
 24 23  1  0  0  0  0
 25 15  1  0  0  0  0
 26 27  1  6  0  0  0
 26 25  1  0  0  0  0
 28 26  1  0  0  0  0
 28 29  1  1  0  0  0
 30 28  1  0  0  0  0
 31 30  1  0  0  0  0
 32 34  1  0  0  0  0
 33 37  1  0  0  0  0
 33 32  2  0  0  0  0
 34 36  2  0  0  0  0
 35 36  1  0  0  0  0
 36 31  1  0  0  0  0
 37 35  2  0  0  0  0
 38 39  3  0  0  0  0
 39 32  1  0  0  0  0
M  END
>  <MODEL>
4

>  <REMARK>
 VINA RESULT:      -9.7      3.119      7.342
  Name = 
  10 active torsions:
  status: ('A' for Active; 'I' for Inactive)
    1  A    between atoms: C_1  and  C_8
    2  A    between atoms: C_6  and  C_26
    3  A    between atoms: C_6  and  C_30
    4  A    between atoms: C_9  and  C_12
    5  A    between atoms: C_12  and  C_33
    6  A    between atoms: O_14  and  C_20
    7  A    between atoms: O_14  and  C_30
    8  A    between atoms: C_26  and  N_34
    9  A    between atoms: C_31  and  N_34
   10  A    between atoms: C_33  and  O_37
                            x       y       z     vdW  Elec       q    Type
                         _______ _______ _______ _____ _____    ______ ____

>  <TORSDO>
F 10

$$$$
=
 OpenBabel10232412463D

 39 43  0  0  1  0  0  0  0  0999 V2000
  188.9200  177.3590  145.3390 C   0  0  0  0  0  0  0  0  0  0  0  0
  183.3320  178.4220  141.9320 C   0  0  0  0  0  2  0  0  0  0  0  0
  186.7060  178.0180  145.3360 C   0  0  0  0  0  0  0  0  0  0  0  0
  184.2360  178.7880  145.5180 C   0  0  0  0  0  3  0  0  0  0  0  0
  187.7290  177.5650  144.5100 C   0  0  0  0  0  0  0  0  0  0  0  0
  191.1650  176.8080  145.9910 C   0  0  0  0  0  3  0  0  0  0  0  0
  190.8530  177.1410  147.3240 C   0  0  0  0  0  3  0  0  0  0  0  0
  188.6120  177.6870  146.6500 C   0  0  0  0  0  0  0  0  0  0  0  0
  183.8720  178.4730  143.1510 C   0  0  0  0  0  0  0  0  0  0  0  0
  189.2560  177.9140  148.9780 O   0  0  0  0  0  1  0  0  0  0  0  0
  189.5650  177.5860  147.6650 C   0  0  0  0  0  0  0  0  0  0  0  0
  187.2140  178.1120  146.7020 C   0  0  0  0  0  0  0  0  0  0  0  0
  186.2510  177.6630  142.5960 C   0  0  0  0  0  3  0  0  0  0  0  0
  185.4510  178.2980  144.8080 C   0  0  1  0  0  3  0  0  0  0  0  0
  187.5290  177.3750  143.1310 C   0  0  0  0  0  0  0  0  0  0  0  0
  183.1740  178.9100  144.4060 C   0  0  0  0  0  3  0  0  0  0  0  0
  190.1940  176.9150  144.9800 C   0  0  0  0  0  3  0  0  0  0  0  0
  185.2380  178.1210  143.4600 C   0  0  0  0  0  0  0  0  0  0  0  0
  186.5760  178.4860  147.7210 O   0  0  0  0  0  0  0  0  0  0  0  0
  181.9090  178.7880  141.6570 C   0  0  0  0  0  2  0  0  0  0  0  0
  180.1260  178.0310  140.2720 O   0  0  0  0  0  0  0  0  0  0  0  0
  181.3470  177.9360  140.5700 C   0  0  0  0  0  0  0  0  0  0  0  0
  181.6870  175.9050  139.2250 C   0  0  0  0  0  1  0  0  0  0  0  0
  182.1850  177.0620  139.8790 O   0  0  0  0  0  0  0  0  0  0  0  0
  188.5980  176.9110  142.3000 N   0  0  0  0  0  2  0  0  0  0  0  0
  189.5130  177.8010  141.5940 C   0  0  2  0  0  3  0  0  0  0  0  0
  188.7570  179.0430  141.1440 C   0  0  0  0  0  1  0  0  0  0  0  0
  190.1100  177.0810  140.3880 C   0  0  2  0  0  3  0  0  0  0  0  0
  191.5050  177.1300  140.4470 O   0  0  0  0  0  1  0  0  0  0  0  0
  189.6450  177.7360  139.0970 C   0  0  0  0  0  2  0  0  0  0  0  0
  188.9240  176.7940  138.3110 O   0  0  0  0  0  0  0  0  0  0  0  0
  185.4790  178.1790  138.1320 C   0  0  0  0  0  0  0  0  0  0  0  0
  184.8800  177.2530  137.2740 C   0  0  0  0  0  3  0  0  0  0  0  0
  186.8240  178.0360  138.4840 C   0  0  0  0  0  3  0  0  0  0  0  0
  186.9710  176.0420  137.1210 C   0  0  0  0  0  3  0  0  0  0  0  0
  187.5790  176.9640  137.9790 C   0  0  0  0  0  0  0  0  0  0  0  0
  185.6250  176.1840  136.7690 C   0  0  0  0  0  3  0  0  0  0  0  0
  184.0970  180.1630  139.0690 N   0  0  0  0  0  0  0  0  0  0  0  0
  184.7140  179.2780  138.6520 C   0  0  0  0  0  0  0  0  0  0  0  0
  1  8  1  0  0  0  0
  2  9  1  0  0  0  0
  3 12  1  0  0  0  0
  5  3  2  0  0  0  0
  5  1  1  0  0  0  0
  6  7  2  0  0  0  0
  7 11  1  0  0  0  0
  8 12  1  0  0  0  0
  8 11  2  0  0  0  0
  9 18  2  0  0  0  0
  9 16  1  0  0  0  0
 11 10  1  0  0  0  0
 12 19  2  0  0  0  0
 13 15  2  0  0  0  0
 13 18  1  0  0  0  0
 14  3  1  0  0  0  0
 14  4  1  6  0  0  0
 15  5  1  0  0  0  0
 16  4  2  0  0  0  0
 17  1  2  0  0  0  0
 17  6  1  0  0  0  0
 18 14  1  0  0  0  0
 20  2  1  0  0  0  0
 21 22  2  0  0  0  0
 22 20  1  0  0  0  0
 23 24  1  0  0  0  0
 24 22  1  0  0  0  0
 25 15  1  0  0  0  0
 26 27  1  6  0  0  0
 26 25  1  0  0  0  0
 28 29  1  1  0  0  0
 28 26  1  0  0  0  0
 30 28  1  0  0  0  0
 31 30  1  0  0  0  0
 32 34  1  0  0  0  0
 32 39  1  0  0  0  0
 33 32  2  0  0  0  0
 35 36  1  0  0  0  0
 36 31  1  0  0  0  0
 36 34  2  0  0  0  0
 37 35  2  0  0  0  0
 37 33  1  0  0  0  0
 39 38  3  0  0  0  0
M  END
>  <MODEL>
5

>  <REMARK>
 VINA RESULT:      -9.6      1.906      2.468
  Name = 
  10 active torsions:
  status: ('A' for Active; 'I' for Inactive)
    1  A    between atoms: C_1  and  C_8
    2  A    between atoms: C_6  and  C_26
    3  A    between atoms: C_6  and  C_30
    4  A    between atoms: C_9  and  C_12
    5  A    between atoms: C_12  and  C_33
    6  A    between atoms: O_14  and  C_20
    7  A    between atoms: O_14  and  C_30
    8  A    between atoms: C_26  and  N_34
    9  A    between atoms: C_31  and  N_34
   10  A    between atoms: C_33  and  O_37
                            x       y       z     vdW  Elec       q    Type
                         _______ _______ _______ _____ _____    ______ ____

>  <TORSDO>
F 10

$$$$
=
 OpenBabel10232412463D

 39 43  0  0  1  0  0  0  0  0999 V2000
  188.1390  177.5280  145.3810 C   0  0  0  0  0  0  0  0  0  0  0  0
  183.0580  178.7120  141.2890 C   0  0  0  0  0  2  0  0  0  0  0  0
  185.9610  178.2440  145.0960 C   0  0  0  0  0  0  0  0  0  0  0  0
  183.5090  179.0790  144.9590 C   0  0  0  0  0  3  0  0  0  0  0  0
  187.0680  177.7580  144.4080 C   0  0  0  0  0  0  0  0  0  0  0  0
  190.2670  176.9230  146.3150 C   0  0  0  0  0  3  0  0  0  0  0  0
  189.7970  177.2730  147.5970 C   0  0  0  0  0  3  0  0  0  0  0  0
  187.6750  177.8720  146.6420 C   0  0  0  0  0  0  0  0  0  0  0  0
  183.4400  178.7570  142.5660 C   0  0  0  0  0  0  0  0  0  0  0  0
  188.0240  178.0990  149.0320 O   0  0  0  0  0  1  0  0  0  0  0  0
  188.4890  177.7540  147.7700 C   0  0  0  0  0  0  0  0  0  0  0  0
  186.2940  178.3340  146.5140 C   0  0  0  0  0  0  0  0  0  0  0  0
  185.8470  177.8820  142.3210 C   0  0  0  0  0  3  0  0  0  0  0  0
  184.7910  178.5530  144.4100 C   0  0  2  0  0  3  0  0  0  0  0  0
  187.0400  177.5640  143.0140 C   0  0  0  0  0  0  0  0  0  0  0  0
  182.6000  179.2210  143.7210 C   0  0  0  0  0  3  0  0  0  0  0  0
  189.4350  177.0490  145.1890 C   0  0  0  0  0  3  0  0  0  0  0  0
  184.7460  178.3720  143.0480 C   0  0  0  0  0  0  0  0  0  0  0  0
  185.5420  178.7310  147.4420 O   0  0  0  0  0  0  0  0  0  0  0  0
  181.6920  179.1130  140.8340 C   0  0  0  0  0  2  0  0  0  0  0  0
  180.0080  177.6600  141.6830 O   0  0  0  0  0  0  0  0  0  0  0  0
  180.7990  177.9230  140.7370 C   0  0  0  0  0  0  0  0  0  0  0  0
  181.3950  175.8280  139.5960 C   0  0  0  0  0  1  0  0  0  0  0  0
  180.8310  177.1300  139.5910 O   0  0  0  0  0  0  0  0  0  0  0  0
  188.1930  177.0670  142.3280 N   0  0  0  0  0  2  0  0  0  0  0  0
  189.1680  177.9260  141.6680 C   0  0  2  0  0  3  0  0  0  0  0  0
  188.5950  178.4110  140.3430 C   0  0  0  0  0  1  0  0  0  0  0  0
  190.4640  177.1540  141.4310 C   0  0  2  0  0  3  0  0  0  0  0  0
  191.4780  177.6650  142.2460 O   0  0  0  0  0  1  0  0  0  0  0  0
  190.8910  177.2690  139.9770 C   0  0  0  0  0  2  0  0  0  0  0  0
  190.8570  175.9870  139.3610 O   0  0  0  0  0  0  0  0  0  0  0  0
  188.7060  175.9950  136.3290 C   0  0  0  0  0  0  0  0  0  0  0  0
  189.5570  175.3690  135.4150 C   0  0  0  0  0  3  0  0  0  0  0  0
  189.1280  176.2060  137.6450 C   0  0  0  0  0  3  0  0  0  0  0  0
  191.2520  175.1650  137.1320 C   0  0  0  0  0  3  0  0  0  0  0  0
  190.4060  175.7910  138.0540 C   0  0  0  0  0  0  0  0  0  0  0  0
  190.8300  174.9540  135.8160 C   0  0  0  0  0  3  0  0  0  0  0  0
  186.3450  176.7670  135.5870 N   0  0  0  0  0  0  0  0  0  0  0  0
  187.3980  176.4220  135.9180 C   0  0  0  0  0  0  0  0  0  0  0  0
  1  8  1  0  0  0  0
  2  9  1  0  0  0  0
  3 12  1  0  0  0  0
  5  3  2  0  0  0  0
  5  1  1  0  0  0  0
  6  7  2  0  0  0  0
  7 11  1  0  0  0  0
  8 11  2  0  0  0  0
  9 18  2  0  0  0  0
  9 16  1  0  0  0  0
 11 10  1  0  0  0  0
 12  8  1  0  0  0  0
 12 19  2  0  0  0  0
 13 15  2  0  0  0  0
 13 18  1  0  0  0  0
 14  4  1  1  0  0  0
 14  3  1  0  0  0  0
 15  5  1  0  0  0  0
 16  4  2  0  0  0  0
 17  1  2  0  0  0  0
 17  6  1  0  0  0  0
 18 14  1  0  0  0  0
 20  2  1  0  0  0  0
 22 20  1  0  0  0  0
 22 21  2  0  0  0  0
 24 23  1  0  0  0  0
 24 22  1  0  0  0  0
 25 15  1  0  0  0  0
 26 27  1  6  0  0  0
 26 25  1  0  0  0  0
 28 26  1  0  0  0  0
 28 29  1  1  0  0  0
 30 28  1  0  0  0  0
 31 30  1  0  0  0  0
 32 34  1  0  0  0  0
 33 37  1  0  0  0  0
 33 32  2  0  0  0  0
 34 36  2  0  0  0  0
 35 36  1  0  0  0  0
 36 31  1  0  0  0  0
 37 35  2  0  0  0  0
 38 39  3  0  0  0  0
 39 32  1  0  0  0  0
M  END
>  <MODEL>
6

>  <REMARK>
 VINA RESULT:      -9.5      1.858      2.508
  Name = 
  10 active torsions:
  status: ('A' for Active; 'I' for Inactive)
    1  A    between atoms: C_1  and  C_8
    2  A    between atoms: C_6  and  C_26
    3  A    between atoms: C_6  and  C_30
    4  A    between atoms: C_9  and  C_12
    5  A    between atoms: C_12  and  C_33
    6  A    between atoms: O_14  and  C_20
    7  A    between atoms: O_14  and  C_30
    8  A    between atoms: C_26  and  N_34
    9  A    between atoms: C_31  and  N_34
   10  A    between atoms: C_33  and  O_37
                            x       y       z     vdW  Elec       q    Type
                         _______ _______ _______ _____ _____    ______ ____

>  <TORSDO>
F 10

$$$$
=
 OpenBabel10232412463D

 39 43  0  0  1  0  0  0  0  0999 V2000
  185.1860  178.1660  142.9510 C   0  0  0  0  0  0  0  0  0  0  0  0
  190.5680  177.0180  146.6490 C   0  0  0  0  0  2  0  0  0  0  0  0
  186.1650  178.0990  145.0420 C   0  0  0  0  0  0  0  0  0  0  0  0
  187.1000  178.0750  147.4620 C   0  0  0  0  0  3  0  0  0  0  0  0
  186.4210  177.8940  143.6900 C   0  0  0  0  0  0  0  0  0  0  0  0
  183.6360  178.4190  141.1340 C   0  0  0  0  0  3  0  0  0  0  0  0
  182.6310  178.7900  142.0500 C   0  0  0  0  0  3  0  0  0  0  0  0
  184.1990  178.5310  143.8530 C   0  0  0  0  0  0  0  0  0  0  0  0
  189.2870  177.3880  146.7040 C   0  0  0  0  0  0  0  0  0  0  0  0
  181.9200  179.2140  144.3300 O   0  0  0  0  0  1  0  0  0  0  0  0
  182.9080  178.8480  143.4250 C   0  0  0  0  0  0  0  0  0  0  0  0
  184.7710  178.5040  145.1980 C   0  0  0  0  0  0  0  0  0  0  0  0
  188.7140  177.3020  144.1970 C   0  0  0  0  0  3  0  0  0  0  0  0
  187.1720  177.9100  145.9830 C   0  0  0  0  0  0  0  0  0  0  0  0
  187.6920  177.4960  143.2360 C   0  0  0  0  0  0  0  0  0  0  0  0
  188.5190  177.7220  147.9500 C   0  0  0  0  0  2  0  0  0  0  0  0
  184.9310  178.1020  141.5810 C   0  0  0  0  0  3  0  0  0  0  0  0
  188.4200  177.5180  145.5570 C   0  0  0  0  0  0  0  0  0  0  0  0
  184.1800  178.7750  146.2760 O   0  0  0  0  0  0  0  0  0  0  0  0
  191.4340  176.9030  147.8620 C   0  0  0  0  0  2  0  0  0  0  0  0
  192.3570  175.0470  146.6900 O   0  0  0  0  0  0  0  0  0  0  0  0
  192.4200  175.7960  147.7020 C   0  0  0  0  0  0  0  0  0  0  0  0
  193.6050  176.5370  149.7260 C   0  0  0  0  0  1  0  0  0  0  0  0
  193.4160  175.6180  148.6620 O   0  0  0  0  0  0  0  0  0  0  0  0
  187.9310  177.2870  141.8410 N   0  0  0  0  0  2  0  0  0  0  0  0
  189.0170  177.9250  141.1060 C   0  0  2  0  0  3  0  0  0  0  0  0
  188.4890  178.4310  139.7710 C   0  0  0  0  0  1  0  0  0  0  0  0
  190.1490  176.9260  140.8810 C   0  0  2  0  0  3  0  0  0  0  0  0
  191.1990  177.1890  141.7640 O   0  0  0  0  0  1  0  0  0  0  0  0
  190.6640  177.0210  139.4540 C   0  0  0  0  0  2  0  0  0  0  0  0
  190.7040  175.7260  138.8680 O   0  0  0  0  0  0  0  0  0  0  0  0
  188.6960  176.0480  135.7560 C   0  0  0  0  0  0  0  0  0  0  0  0
  188.9160  174.7930  135.1830 C   0  0  0  0  0  3  0  0  0  0  0  0
  189.2860  176.3700  136.9820 C   0  0  0  0  0  3  0  0  0  0  0  0
  190.3150  174.1800  137.0620 C   0  0  0  0  0  3  0  0  0  0  0  0
  190.1000  175.4350  137.6430 C   0  0  0  0  0  0  0  0  0  0  0  0
  189.7250  173.8580  135.8360 C   0  0  0  0  0  3  0  0  0  0  0  0
  187.1950  177.7820  134.5460 N   0  0  0  0  0  0  0  0  0  0  0  0
  187.8650  177.0080  135.0860 C   0  0  0  0  0  0  0  0  0  0  0  0
  1  5  1  0  0  0  0
  1  8  1  0  0  0  0
  2  9  1  0  0  0  0
  2 20  1  0  0  0  0
  3 12  1  0  0  0  0
  3 14  1  0  0  0  0
  4 16  1  0  0  0  0
  5  3  2  0  0  0  0
  6 17  1  0  0  0  0
  6  7  2  0  0  0  0
  7 11  1  0  0  0  0
  8 12  1  0  0  0  0
  9 16  1  0  0  0  0
 11  8  2  0  0  0  0
 11 10  1  0  0  0  0
 12 19  2  0  0  0  0
 13 18  1  0  0  0  0
 14  4  2  0  0  0  0
 15  5  1  0  0  0  0
 15 13  2  0  0  0  0
 17  1  2  0  0  0  0
 18 14  1  0  0  0  0
 18  9  2  0  0  0  0
 21 22  2  0  0  0  0
 22 20  1  0  0  0  0
 22 24  1  0  0  0  0
 24 23  1  0  0  0  0
 25 15  1  0  0  0  0
 26 27  1  6  0  0  0
 26 25  1  0  0  0  0
 28 26  1  0  0  0  0
 28 29  1  1  0  0  0
 30 28  1  0  0  0  0
 31 30  1  0  0  0  0
 32 34  1  0  0  0  0
 33 32  2  0  0  0  0
 33 37  1  0  0  0  0
 34 36  2  0  0  0  0
 35 36  1  0  0  0  0
 36 31  1  0  0  0  0
 37 35  2  0  0  0  0
 38 39  3  0  0  0  0
 39 32  1  0  0  0  0
M  END
>  <MODEL>
7

>  <REMARK>
 VINA RESULT:      -9.4      2.379      6.824
  Name = 
  10 active torsions:
  status: ('A' for Active; 'I' for Inactive)
    1  A    between atoms: C_1  and  C_8
    2  A    between atoms: C_6  and  C_26
    3  A    between atoms: C_6  and  C_30
    4  A    between atoms: C_9  and  C_12
    5  A    between atoms: C_12  and  C_33
    6  A    between atoms: O_14  and  C_20
    7  A    between atoms: O_14  and  C_30
    8  A    between atoms: C_26  and  N_34
    9  A    between atoms: C_31  and  N_34
   10  A    between atoms: C_33  and  O_37
                            x       y       z     vdW  Elec       q    Type
                         _______ _______ _______ _____ _____    ______ ____

>  <TORSDO>
F 10

$$$$
=
 OpenBabel10232412463D

 39 43  0  0  1  0  0  0  0  0999 V2000
  188.1920  177.4950  145.4560 C   0  0  0  0  0  0  0  0  0  0  0  0
  183.1400  178.5920  141.3050 C   0  0  0  0  0  2  0  0  0  0  0  0
  186.0190  178.2110  145.1400 C   0  0  0  0  0  0  0  0  0  0  0  0
  183.5700  179.0500  144.9670 C   0  0  0  0  0  3  0  0  0  0  0  0
  187.1280  177.7050  144.4710 C   0  0  2  0  0  3  0  0  0  0  0  0
  190.3120  176.9080  146.4180 C   0  0  0  0  0  3  0  0  0  0  0  0
  189.8360  177.2910  147.6880 C   0  0  0  0  0  3  0  0  0  0  0  0
  187.7220  177.8730  146.7050 C   0  0  0  0  0  0  0  0  0  0  0  0
  183.5150  178.6680  142.5830 C   0  0  0  0  0  0  0  0  0  0  0  0
  188.0570  178.1580  149.0910 O   0  0  0  0  0  1  0  0  0  0  0  0
  188.5280  177.7800  147.8410 C   0  0  0  0  0  0  0  0  0  0  0  0
  186.3430  178.3350  146.5570 C   0  0  0  0  0  0  0  0  0  0  0  0
  185.9200  177.7800  142.3740 C   0  0  0  0  0  3  0  0  0  0  0  0
  184.8530  178.5060  144.4400 C   0  0  0  0  0  0  0  0  0  0  0  0
  187.1070  177.4760  143.0830 C   0  0  0  0  0  0  0  0  0  0  0  0
  182.6690  179.1630  143.7210 C   0  0  0  0  0  3  0  0  0  0  0  0
  189.4880  177.0080  145.2840 C   0  0  0  0  0  3  0  0  0  0  0  0
  184.8160  178.2910  143.0820 C   0  0  0  0  0  0  0  0  0  0  0  0
  185.5870  178.7580  147.4710 O   0  0  0  0  0  0  0  0  0  0  0  0
  181.7780  178.9860  140.8310 C   0  0  0  0  0  2  0  0  0  0  0  0
  182.2900  178.8100  138.5130 O   0  0  0  0  0  0  0  0  0  0  0  0
  181.8400  179.5300  139.4440 C   0  0  0  0  0  0  0  0  0  0  0  0
  181.0740  181.2620  137.8750 C   0  0  0  0  0  1  0  0  0  0  0  0
  181.3750  180.8190  139.1890 O   0  0  0  0  0  0  0  0  0  0  0  0
  188.2630  176.9590  142.4160 N   0  0  0  0  0  2  0  0  0  0  0  0
  189.2220  177.7940  141.7020 C   0  0  2  0  0  3  0  0  0  0  0  0
  188.5420  178.4150  140.4900 C   0  0  0  0  0  1  0  0  0  0  0  0
  190.4180  176.9530  141.2630 C   0  0  2  0  0  3  0  0  0  0  0  0
  191.6070  177.5710  141.6610 O   0  0  0  0  0  1  0  0  0  0  0  0
  190.4250  176.7900  139.7520 C   0  0  0  0  0  2  0  0  0  0  0  0
  191.7590  176.8660  139.2650 O   0  0  0  0  0  0  0  0  0  0  0  0
  191.8900  174.4420  136.4490 C   0  0  0  0  0  0  0  0  0  0  0  0
  193.1020  174.8090  135.8580 C   0  0  0  0  0  3  0  0  0  0  0  0
  191.4340  175.1200  137.5830 C   0  0  0  0  0  3  0  0  0  0  0  0
  193.3990  176.5310  137.5340 C   0  0  0  0  0  3  0  0  0  0  0  0
  192.1880  176.1700  138.1330 C   0  0  0  0  0  0  0  0  0  0  0  0
  193.8570  175.8530  136.3990 C   0  0  0  0  0  3  0  0  0  0  0  0
  190.4890  172.5050  135.4450 N   0  0  0  0  0  0  0  0  0  0  0  0
  191.1140  173.3700  135.8930 C   0  0  0  0  0  0  0  0  0  0  0  0
  1  8  1  0  0  0  0
  2  9  1  0  0  0  0
  3 12  1  0  0  0  0
  5 15  1  1  0  0  0
  5  3  1  0  0  0  0
  5  1  1  0  0  0  0
  6  7  2  0  0  0  0
  7 11  1  0  0  0  0
  8 11  2  0  0  0  0
  9 18  2  0  0  0  0
  9 16  1  0  0  0  0
 11 10  1  0  0  0  0
 12  8  1  0  0  0  0
 12 19  2  0  0  0  0
 13 18  1  0  0  0  0
 13 15  2  0  0  0  0
 14  4  1  0  0  0  0
 14  3  2  0  0  0  0
 16  4  2  0  0  0  0
 17  1  2  0  0  0  0
 17  6  1  0  0  0  0
 18 14  1  0  0  0  0
 20  2  1  0  0  0  0
 21 22  2  0  0  0  0
 22 20  1  0  0  0  0
 23 24  1  0  0  0  0
 24 22  1  0  0  0  0
 25 15  1  0  0  0  0
 26 27  1  6  0  0  0
 26 25  1  0  0  0  0
 28 29  1  6  0  0  0
 28 26  1  0  0  0  0
 30 28  1  0  0  0  0
 31 30  1  0  0  0  0
 32 34  1  0  0  0  0
 33 37  1  0  0  0  0
 33 32  2  0  0  0  0
 34 36  2  0  0  0  0
 35 36  1  0  0  0  0
 36 31  1  0  0  0  0
 37 35  2  0  0  0  0
 38 39  3  0  0  0  0
 39 32  1  0  0  0  0
M  END
>  <MODEL>
8

>  <REMARK>
 VINA RESULT:      -9.2      2.257      2.972
  Name = 
  10 active torsions:
  status: ('A' for Active; 'I' for Inactive)
    1  A    between atoms: C_1  and  C_8
    2  A    between atoms: C_6  and  C_26
    3  A    between atoms: C_6  and  C_30
    4  A    between atoms: C_9  and  C_12
    5  A    between atoms: C_12  and  C_33
    6  A    between atoms: O_14  and  C_20
    7  A    between atoms: O_14  and  C_30
    8  A    between atoms: C_26  and  N_34
    9  A    between atoms: C_31  and  N_34
   10  A    between atoms: C_33  and  O_37
                            x       y       z     vdW  Elec       q    Type
                         _______ _______ _______ _____ _____    ______ ____

>  <TORSDO>
F 10

$$$$
=
 OpenBabel10232412463D

 39 43  0  0  1  0  0  0  0  0999 V2000
  187.4570  178.2020  140.3700 C   0  0  0  0  0  0  0  0  0  0  0  0
  192.7210  176.0960  136.9330 C   0  0  0  0  0  2  0  0  0  0  0  0
  188.3840  177.6340  138.3320 C   0  0  0  0  0  0  0  0  0  0  0  0
  189.2600  177.0380  135.9640 C   0  0  0  0  0  3  0  0  0  0  0  0
  188.6660  177.7300  139.6910 C   0  0  1  0  0  3  0  0  0  0  0  0
  185.9590  178.9090  142.1090 C   0  0  0  0  0  3  0  0  0  0  0  0
  184.9430  179.0960  141.1500 C   0  0  0  0  0  3  0  0  0  0  0  0
  186.4590  178.3860  139.4260 C   0  0  0  0  0  0  0  0  0  0  0  0
  191.4460  176.4720  136.8200 C   0  0  0  0  0  0  0  0  0  0  0  0
  184.1890  179.0180  138.8460 O   0  0  0  0  0  1  0  0  0  0  0  0
  185.1890  178.8340  139.7930 C   0  0  0  0  0  0  0  0  0  0  0  0
  186.9980  178.0380  138.1130 C   0  0  0  0  0  0  0  0  0  0  0  0
  190.9300  176.9690  139.2920 C   0  0  0  0  0  3  0  0  0  0  0  0
  189.3630  177.2070  137.4410 C   0  0  0  0  0  0  0  0  0  0  0  0
  189.9350  177.4010  140.2010 C   0  0  0  0  0  0  0  0  0  0  0  0
  190.6600  176.5480  135.5430 C   0  0  0  0  0  3  0  0  0  0  0  0
  187.2330  178.4570  141.7240 C   0  0  0  0  0  3  0  0  0  0  0  0
  190.6100  176.8830  137.9230 C   0  0  0  0  0  0  0  0  0  0  0  0
  186.3890  178.0790  137.0110 O   0  0  0  0  0  0  0  0  0  0  0  0
  193.5500  175.6680  135.7650 C   0  0  0  0  0  2  0  0  0  0  0  0
  195.9060  175.6440  136.1140 O   0  0  0  0  0  0  0  0  0  0  0  0
  194.8890  176.3230  135.8030 C   0  0  0  0  0  0  0  0  0  0  0  0
  196.1060  178.1660  134.7210 C   0  0  0  0  0  1  0  0  0  0  0  0
  195.0060  177.6710  135.4690 O   0  0  0  0  0  0  0  0  0  0  0  0
  190.2040  177.5120  141.6030 N   0  0  0  0  0  2  0  0  0  0  0  0
  190.5210  176.3720  142.4540 C   0  0  2  0  0  3  0  0  0  0  0  0
  189.2300  175.7890  143.0120 C   0  0  0  0  0  1  0  0  0  0  0  0
  191.4360  176.8130  143.5940 C   0  0  2  0  0  3  0  0  0  0  0  0
  191.8240  175.7040  144.3500 O   0  0  0  0  0  1  0  0  0  0  0  0
  190.7180  177.8030  144.4970 C   0  0  0  0  0  2  0  0  0  0  0  0
  190.3330  177.1620  145.7070 O   0  0  0  0  0  0  0  0  0  0  0  0
  186.8930  178.2490  146.6040 C   0  0  0  0  0  0  0  0  0  0  0  0
  187.0160  178.3510  147.9920 C   0  0  0  0  0  3  0  0  0  0  0  0
  187.9910  177.8540  145.8340 C   0  0  0  0  0  3  0  0  0  0  0  0
  189.3330  177.6640  147.8390 C   0  0  0  0  0  3  0  0  0  0  0  0
  189.2190  177.5590  146.4490 C   0  0  0  0  0  0  0  0  0  0  0  0
  188.2350  178.0590  148.6100 C   0  0  0  0  0  3  0  0  0  0  0  0
  184.6320  178.7920  145.4580 N   0  0  0  0  0  0  0  0  0  0  0  0
  185.6410  178.5490  145.9690 C   0  0  0  0  0  0  0  0  0  0  0  0
  1 17  1  0  0  0  0
  4 14  1  0  0  0  0
  5  3  1  6  0  0  0
  5 15  1  0  0  0  0
  5  1  1  0  0  0  0
  7  6  1  0  0  0  0
  8 11  1  0  0  0  0
  8  1  2  0  0  0  0
  9  2  1  0  0  0  0
  9 18  2  0  0  0  0
 10 11  1  0  0  0  0
 11  7  2  0  0  0  0
 12  3  1  0  0  0  0
 12  8  1  0  0  0  0
 13 15  2  0  0  0  0
 14 18  1  0  0  0  0
 14  3  2  0  0  0  0
 15 25  1  0  0  0  0
 16  4  2  0  0  0  0
 16  9  1  0  0  0  0
 17  6  2  0  0  0  0
 18 13  1  0  0  0  0
 19 12  2  0  0  0  0
 20 22  1  0  0  0  0
 20  2  1  0  0  0  0
 22 21  2  0  0  0  0
 23 24  1  0  0  0  0
 24 22  1  0  0  0  0
 25 26  1  0  0  0  0
 26 27  1  1  0  0  0
 26 28  1  0  0  0  0
 28 29  1  1  0  0  0
 28 30  1  0  0  0  0
 30 31  1  0  0  0  0
 31 36  1  0  0  0  0
 32 33  1  0  0  0  0
 33 37  2  0  0  0  0
 34 36  1  0  0  0  0
 34 32  2  0  0  0  0
 35 37  1  0  0  0  0
 36 35  2  0  0  0  0
 38 39  3  0  0  0  0
 39 32  1  0  0  0  0
M  END
>  <MODEL>
9

>  <REMARK>
 VINA RESULT:      -9.0      3.138      8.847
  Name = 
  10 active torsions:
  status: ('A' for Active; 'I' for Inactive)
    1  A    between atoms: C_1  and  C_8
    2  A    between atoms: C_6  and  C_26
    3  A    between atoms: C_6  and  C_30
    4  A    between atoms: C_9  and  C_12
    5  A    between atoms: C_12  and  C_33
    6  A    between atoms: O_14  and  C_20
    7  A    between atoms: O_14  and  C_30
    8  A    between atoms: C_26  and  N_34
    9  A    between atoms: C_31  and  N_34
   10  A    between atoms: C_33  and  O_37
                            x       y       z     vdW  Elec       q    Type
                         _______ _______ _______ _____ _____    ______ ____

>  <TORSDO>
F 10

$$$$
