=
 OpenBabel10232411543D

 31 34  0  0  1  0  0  0  0  0999 V2000
  185.0360  178.9240  139.5980 C   0  0  0  0  0  0  0  0  0  0  0  0
  187.2100  177.9070  142.4390 C   0  0  0  0  0  0  0  0  0  0  0  0
  182.6400  179.3730  139.0900 C   0  0  0  0  0  0  0  0  0  0  0  0
  185.3680  178.8940  138.2940 N   0  0  0  0  0  0  0  0  0  0  0  0
  182.6210  180.0470  138.0270 O   0  0  0  0  0  0  0  0  0  0  0  0
  183.7180  179.4460  140.1170 C   0  0  1  0  0  3  0  0  0  0  0  0
  188.2670  177.4230  143.0370 C   0  0  0  0  0  0  0  0  0  0  0  0
  181.9760  177.9960  140.7330 C   0  0  0  0  0  3  0  0  0  0  0  0
  183.1350  178.5050  141.1330 C   0  0  2  0  0  3  0  0  0  0  0  0
  186.6290  178.4210  138.2300 C   0  0  0  0  0  3  0  0  0  0  0  0
  186.1540  178.3940  141.8460 C   0  0  0  0  0  0  0  0  0  0  0  0
  185.0460  178.9250  142.7010 C   0  0  0  0  0  2  0  0  0  0  0  0
  181.5950  178.4870  139.4540 N   0  0  0  0  0  0  0  0  0  0  0  0
  183.7460  178.1670  142.4580 C   0  0  0  0  0  2  0  0  0  0  0  0
  186.1000  178.4920  140.3690 C   0  0  1  0  0  3  0  0  0  0  0  0
  187.1190  178.1560  139.4970 C   0  0  0  0  0  3  0  0  0  0  0  0
  190.0410  177.2840  141.4350 N   0  0  0  0  0  0  0  0  0  0  0  0
  189.6170  177.7850  142.5620 C   0  0  0  0  0  0  0  0  0  0  0  0
  191.2790  177.5460  140.8960 O   0  0  0  0  0  1  0  0  0  0  0  0
  190.3880  178.6600  143.3490 O   0  0  0  0  0  0  0  0  0  0  0  0
  191.5590  178.3020  144.0680 C   0  0  0  0  0  2  0  0  0  0  0  0
  191.6740  176.6190  145.8740 C   0  0  0  0  0  1  0  0  0  0  0  0
  191.5220  176.8210  144.3820 C   0  0  0  0  0  2  0  0  0  0  0  0
  188.0800  176.5660  144.2500 C   0  0  0  0  0  2  0  0  0  0  0  0
  186.4850  178.8090  147.5420 C   0  0  0  0  0  3  0  0  0  0  0  0
  185.6470  178.4130  146.4950 C   0  0  0  0  0  0  0  0  0  0  0  0
  184.2980  178.7380  146.5260 O   0  0  0  0  0  1  0  0  0  0  0  0
  187.5270  177.3610  145.3860 C   0  0  0  0  0  0  0  0  0  0  0  0
  188.3640  177.7550  146.4360 C   0  0  0  0  0  3  0  0  0  0  0  0
  187.8440  178.4800  147.5130 C   0  0  0  0  0  3  0  0  0  0  0  0
  186.1670  177.6870  145.4190 C   0  0  0  0  0  3  0  0  0  0  0  0
  1  6  1  0  0  0  0
  1 15  1  0  0  0  0
  2  7  2  0  0  0  0
  3 13  1  0  0  0  0
  4  1  2  0  0  0  0
  5  3  2  0  0  0  0
  6  3  1  6  0  0  0
  6  9  1  0  0  0  0
  7 24  1  0  0  0  0
  9  8  1  1  0  0  0
  9 14  1  0  0  0  0
 10  4  1  0  0  0  0
 10 16  2  0  0  0  0
 11  2  2  0  0  0  0
 11 12  1  0  0  0  0
 13  8  2  0  0  0  0
 14 12  1  0  0  0  0
 15 16  1  6  0  0  0
 15 11  1  0  0  0  0
 17 18  2  0  0  0  0
 18  7  1  0  0  0  0
 18 20  1  0  0  0  0
 19 17  1  0  0  0  0
 20 21  1  0  0  0  0
 21 23  1  0  0  0  0
 23 22  1  0  0  0  0
 24 28  1  0  0  0  0
 26 27  1  0  0  0  0
 26 25  2  0  0  0  0
 28 31  2  0  0  0  0
 28 29  1  0  0  0  0
 29 30  2  0  0  0  0
 30 25  1  0  0  0  0
 31 26  1  0  0  0  0
M  END
>  <MODEL>
1

>  <REMARK>
 VINA RESULT:      -8.8      0.000      0.000
  Name = 
  6 active torsions:
  status: ('A' for Active; 'I' for Inactive)
    1  A    between atoms: C_5  and  O_22
    2  A    between atoms: C_5  and  C_28
    3  A    between atoms: C_13  and  C_14
    4  A    between atoms: C_13  and  C_25
    5  A    between atoms: C_14  and  C_15
    6  A    between atoms: O_22  and  C_25
                            x       y       z     vdW  Elec       q    Type
                         _______ _______ _______ _____ _____    ______ ____

>  <TORSDO>
F 6

$$$$
=
 OpenBabel10232411543D

 31 34  0  0  1  0  0  0  0  0999 V2000
  189.8580  177.7720  145.0360 C   0  0  0  0  0  0  0  0  0  0  0  0
  187.5820  177.9750  142.1010 C   0  0  0  0  0  0  0  0  0  0  0  0
  189.7910  177.2880  147.4770 C   0  0  0  0  0  0  0  0  0  0  0  0
  191.1050  178.2740  145.1100 N   0  0  0  0  0  2  0  0  0  0  0  0
  190.9720  177.0150  147.8190 O   0  0  0  0  0  0  0  0  0  0  0  0
  189.2060  176.9780  146.1410 C   0  0  1  0  0  3  0  0  0  0  0  0
  187.1780  178.3290  140.9090 C   0  0  0  0  0  0  0  0  0  0  0  0
  187.6520  177.9550  147.6070 C   0  0  0  0  0  3  0  0  0  0  0  0
  187.8030  177.4570  146.3850 C   0  0  0  0  0  0  0  0  0  0  0  0
  191.3520  178.8620  143.9220 C   0  0  0  0  0  3  0  0  0  0  0  0
  187.9840  177.6160  143.2910 C   0  0  0  0  0  0  0  0  0  0  0  0
  187.0940  176.7210  144.0960 C   0  0  0  0  0  2  0  0  0  0  0  0
  188.8580  177.8910  148.3570 N   0  0  0  0  0  2  0  0  0  0  0  0
  186.6750  177.3850  145.4020 C   0  0  0  0  0  2  0  0  0  0  0  0
  189.3200  178.0190  143.7850 C   0  0  0  0  0  0  0  0  0  0  0  0
  190.2680  178.7290  143.0720 C   0  0  0  0  0  3  0  0  0  0  0  0
  187.6560  178.5460  138.5740 N   0  0  0  0  0  0  0  0  0  0  0  0
  188.1110  178.2840  139.7670 C   0  0  0  0  0  0  0  0  0  0  0  0
  188.4290  178.5310  137.4360 O   0  0  0  0  0  1  0  0  0  0  0  0
  189.4570  177.9600  140.0190 O   0  0  0  0  0  0  0  0  0  0  0  0
  190.0490  176.6860  139.8070 C   0  0  0  0  0  2  0  0  0  0  0  0
  192.3440  177.4590  140.3010 C   0  0  0  0  0  1  0  0  0  0  0  0
  191.4400  176.8680  139.2400 C   0  0  0  0  0  2  0  0  0  0  0  0
  185.7400  178.7020  140.7170 C   0  0  0  0  0  2  0  0  0  0  0  0
  183.9300  179.6670  144.4860 C   0  0  0  0  0  3  0  0  0  0  0  0
  183.2960  178.7770  143.6140 C   0  0  0  0  0  0  0  0  0  0  0  0
  182.0860  178.1990  143.9720 O   0  0  0  0  0  1  0  0  0  0  0  0
  185.1010  179.0500  142.0200 C   0  0  0  0  0  0  0  0  0  0  0  0
  185.7360  179.9390  142.8960 C   0  0  0  0  0  3  0  0  0  0  0  0
  185.1510  180.2480  144.1280 C   0  0  0  0  0  3  0  0  0  0  0  0
  183.8820  178.4660  142.3830 C   0  0  0  0  0  3  0  0  0  0  0  0
  1  4  1  0  0  0  0
  2 11  2  0  0  0  0
  3  5  2  0  0  0  0
  3 13  1  0  0  0  0
  6  1  1  6  0  0  0
  6  9  1  0  0  0  0
  6  3  1  0  0  0  0
  7  2  2  0  0  0  0
  8 13  1  0  0  0  0
  9  8  2  0  0  0  0
 10  4  1  0  0  0  0
 11 15  1  0  0  0  0
 11 12  1  0  0  0  0
 12 14  1  0  0  0  0
 14  9  1  0  0  0  0
 15  1  2  0  0  0  0
 16 15  1  0  0  0  0
 16 10  2  0  0  0  0
 17 18  2  0  0  0  0
 18 20  1  0  0  0  0
 18  7  1  0  0  0  0
 19 17  1  0  0  0  0
 21 20  1  0  0  0  0
 23 21  1  0  0  0  0
 23 22  1  0  0  0  0
 24  7  1  0  0  0  0
 24 28  1  0  0  0  0
 26 27  1  0  0  0  0
 26 25  2  0  0  0  0
 28 31  2  0  0  0  0
 28 29  1  0  0  0  0
 29 30  2  0  0  0  0
 30 25  1  0  0  0  0
 31 26  1  0  0  0  0
M  END
>  <MODEL>
2

>  <REMARK>
 VINA RESULT:      -8.8      2.529      6.217
  Name = 
  6 active torsions:
  status: ('A' for Active; 'I' for Inactive)
    1  A    between atoms: C_5  and  O_22
    2  A    between atoms: C_5  and  C_28
    3  A    between atoms: C_13  and  C_14
    4  A    between atoms: C_13  and  C_25
    5  A    between atoms: C_14  and  C_15
    6  A    between atoms: O_22  and  C_25
                            x       y       z     vdW  Elec       q    Type
                         _______ _______ _______ _____ _____    ______ ____

>  <TORSDO>
F 6

$$$$
=
 OpenBabel10232411543D

 31 34  0  0  1  0  0  0  0  0999 V2000
  189.6350  177.5300  138.2310 C   0  0  0  0  0  0  0  0  0  0  0  0
  188.4840  177.3160  141.7620 C   0  0  0  0  0  0  0  0  0  0  0  0
  188.7120  177.7960  135.9340 C   0  0  0  0  0  0  0  0  0  0  0  0
  190.8460  177.1700  137.7670 N   0  0  0  0  0  0  0  0  0  0  0  0
  189.6700  178.1720  135.2070 O   0  0  0  0  0  0  0  0  0  0  0  0
  188.5570  178.1480  137.3740 C   0  0  1  0  0  3  0  0  0  0  0  0
  188.5410  177.0190  143.0340 C   0  0  0  0  0  0  0  0  0  0  0  0
  186.7590  176.8790  136.5520 C   0  0  0  0  0  3  0  0  0  0  0  0
  187.2300  177.4930  137.6310 C   0  0  2  0  0  3  0  0  0  0  0  0
  191.5430  176.7150  138.8290 C   0  0  0  0  0  3  0  0  0  0  0  0
  188.4250  177.6170  140.4930 C   0  0  0  0  0  0  0  0  0  0  0  0
  187.2100  178.3330  139.9930 C   0  0  0  0  0  2  0  0  0  0  0  0
  187.6360  177.0180  135.4410 N   0  0  0  0  0  0  0  0  0  0  0  0
  186.4840  177.5180  138.9300 C   0  0  0  0  0  2  0  0  0  0  0  0
  189.5710  177.3290  139.5990 C   0  0  1  0  0  3  0  0  0  0  0  0
  190.7860  176.7940  139.9850 C   0  0  0  0  0  3  0  0  0  0  0  0
  190.7500  177.9210  143.2220 N   0  0  0  0  0  0  0  0  0  0  0  0
  189.7800  177.2670  143.7970 C   0  0  0  0  0  0  0  0  0  0  0  0
  191.9500  178.2080  143.8320 O   0  0  0  0  0  1  0  0  0  0  0  0
  189.8570  176.7860  145.1170 O   0  0  0  0  0  0  0  0  0  0  0  0
  189.8490  177.5910  146.2870 C   0  0  0  0  0  2  0  0  0  0  0  0
  188.5860  177.8450  148.3950 C   0  0  0  0  0  1  0  0  0  0  0  0
  189.1420  176.8490  147.4010 C   0  0  0  0  0  2  0  0  0  0  0  0
  187.3090  176.5010  143.7090 C   0  0  0  0  0  2  0  0  0  0  0  0
  184.7500  179.7580  144.8320 C   0  0  0  0  0  3  0  0  0  0  0  0
  185.5660  179.1480  145.7890 C   0  0  0  0  0  0  0  0  0  0  0  0
  185.5540  179.6020  147.1010 O   0  0  0  0  0  1  0  0  0  0  0  0
  186.4060  177.6220  144.1050 C   0  0  0  0  0  0  0  0  0  0  0  0
  185.5920  178.2360  143.1460 C   0  0  0  0  0  3  0  0  0  0  0  0
  184.7630  179.3020  143.5100 C   0  0  0  0  0  3  0  0  0  0  0  0
  186.3960  178.0830  145.4260 C   0  0  0  0  0  3  0  0  0  0  0  0
  1 15  1  0  0  0  0
  2  7  2  0  0  0  0
  4  1  2  0  0  0  0
  4 10  1  0  0  0  0
  5  3  2  0  0  0  0
  6  3  1  6  0  0  0
  6  9  1  0  0  0  0
  6  1  1  0  0  0  0
  7 24  1  0  0  0  0
  7 18  1  0  0  0  0
  9  8  1  6  0  0  0
  9 14  1  0  0  0  0
 10 16  2  0  0  0  0
 11  2  2  0  0  0  0
 12 11  1  0  0  0  0
 13  3  1  0  0  0  0
 13  8  2  0  0  0  0
 14 12  1  0  0  0  0
 15 16  1  6  0  0  0
 15 11  1  0  0  0  0
 17 18  2  0  0  0  0
 17 19  1  0  0  0  0
 18 20  1  0  0  0  0
 20 21  1  0  0  0  0
 21 23  1  0  0  0  0
 23 22  1  0  0  0  0
 24 28  1  0  0  0  0
 25 26  1  0  0  0  0
 26 27  1  0  0  0  0
 28 31  1  0  0  0  0
 29 30  1  0  0  0  0
 29 28  2  0  0  0  0
 30 25  2  0  0  0  0
 31 26  2  0  0  0  0
M  END
>  <MODEL>
3

>  <REMARK>
 VINA RESULT:      -8.6      2.848      4.229
  Name = 
  6 active torsions:
  status: ('A' for Active; 'I' for Inactive)
    1  A    between atoms: C_5  and  O_22
    2  A    between atoms: C_5  and  C_28
    3  A    between atoms: C_13  and  C_14
    4  A    between atoms: C_13  and  C_25
    5  A    between atoms: C_14  and  C_15
    6  A    between atoms: O_22  and  C_25
                            x       y       z     vdW  Elec       q    Type
                         _______ _______ _______ _____ _____    ______ ____

>  <TORSDO>
F 6

$$$$
=
 OpenBabel10232411543D

 31 34  0  0  1  0  0  0  0  0999 V2000
  189.8950  177.6700  145.0340 C   0  0  0  0  0  0  0  0  0  0  0  0
  187.6340  177.9030  142.0900 C   0  0  0  0  0  0  0  0  0  0  0  0
  189.8050  177.2280  147.4830 C   0  0  0  0  0  0  0  0  0  0  0  0
  191.1590  178.1290  145.1040 N   0  0  0  0  0  2  0  0  0  0  0  0
  190.9760  176.9210  147.8330 O   0  0  0  0  0  0  0  0  0  0  0  0
  189.2140  176.9160  146.1510 C   0  0  1  0  0  3  0  0  0  0  0  0
  187.2450  178.2510  140.8920 C   0  0  0  0  0  0  0  0  0  0  0  0
  187.6910  177.9710  147.5960 C   0  0  0  0  0  3  0  0  0  0  0  0
  187.8270  177.4480  146.3830 C   0  0  0  0  0  0  0  0  0  0  0  0
  191.4280  178.6890  143.9070 C   0  0  0  0  0  3  0  0  0  0  0  0
  188.0200  177.5500  143.2870 C   0  0  0  0  0  0  0  0  0  0  0  0
  187.0990  176.7000  144.1040 C   0  0  0  0  0  2  0  0  0  0  0  0
  188.8920  177.8780  148.3500 N   0  0  0  0  0  2  0  0  0  0  0  0
  186.7000  177.3990  145.3980 C   0  0  0  0  0  2  0  0  0  0  0  0
  189.3690  177.9140  143.7780 C   0  0  0  0  0  0  0  0  0  0  0  0
  190.3430  178.5800  143.0560 C   0  0  0  0  0  3  0  0  0  0  0  0
  189.2890  177.4880  139.9070 N   0  0  0  0  0  0  0  0  0  0  0  0
  188.1790  178.1550  139.7530 C   0  0  0  0  0  0  0  0  0  0  0  0
  190.2350  177.3330  138.9210 O   0  0  0  0  0  1  0  0  0  0  0  0
  187.8280  178.7880  138.5480 O   0  0  0  0  0  0  0  0  0  0  0  0
  187.6490  178.1370  137.2980 C   0  0  0  0  0  2  0  0  0  0  0  0
  185.2940  177.3940  137.2030 C   0  0  0  0  0  1  0  0  0  0  0  0
  186.7170  176.9580  137.4770 C   0  0  0  0  0  2  0  0  0  0  0  0
  185.8220  178.6700  140.6900 C   0  0  0  0  0  2  0  0  0  0  0  0
  184.0070  179.6580  144.4510 C   0  0  0  0  0  3  0  0  0  0  0  0
  183.3700  178.7690  143.5800 C   0  0  0  0  0  0  0  0  0  0  0  0
  182.1560  178.1990  143.9360 O   0  0  0  0  0  1  0  0  0  0  0  0
  185.1810  179.0270  141.9900 C   0  0  0  0  0  0  0  0  0  0  0  0
  185.8190  179.9140  142.8650 C   0  0  0  0  0  3  0  0  0  0  0  0
  185.2310  180.2310  144.0940 C   0  0  0  0  0  3  0  0  0  0  0  0
  183.9580  178.4510  142.3510 C   0  0  0  0  0  3  0  0  0  0  0  0
  1  4  1  0  0  0  0
  2 11  2  0  0  0  0
  3  5  2  0  0  0  0
  3 13  1  0  0  0  0
  6  1  1  6  0  0  0
  6  9  1  0  0  0  0
  6  3  1  0  0  0  0
  7  2  2  0  0  0  0
  8 13  1  0  0  0  0
  9  8  2  0  0  0  0
 10  4  1  0  0  0  0
 11 15  1  0  0  0  0
 11 12  1  0  0  0  0
 12 14  1  0  0  0  0
 14  9  1  0  0  0  0
 15  1  2  0  0  0  0
 16 15  1  0  0  0  0
 16 10  2  0  0  0  0
 18 17  2  0  0  0  0
 18  7  1  0  0  0  0
 19 17  1  0  0  0  0
 20 18  1  0  0  0  0
 21 23  1  0  0  0  0
 21 20  1  0  0  0  0
 22 23  1  0  0  0  0
 24  7  1  0  0  0  0
 24 28  1  0  0  0  0
 26 27  1  0  0  0  0
 26 25  2  0  0  0  0
 28 31  2  0  0  0  0
 28 29  1  0  0  0  0
 29 30  2  0  0  0  0
 30 25  1  0  0  0  0
 31 26  1  0  0  0  0
M  END
>  <MODEL>
4

>  <REMARK>
 VINA RESULT:      -8.6      2.565      6.617
  Name = 
  6 active torsions:
  status: ('A' for Active; 'I' for Inactive)
    1  A    between atoms: C_5  and  O_22
    2  A    between atoms: C_5  and  C_28
    3  A    between atoms: C_13  and  C_14
    4  A    between atoms: C_13  and  C_25
    5  A    between atoms: C_14  and  C_15
    6  A    between atoms: O_22  and  C_25
                            x       y       z     vdW  Elec       q    Type
                         _______ _______ _______ _____ _____    ______ ____

>  <TORSDO>
F 6

$$$$
=
 OpenBabel10232411543D

 31 34  0  0  1  0  0  0  0  0999 V2000
  189.1940  177.2380  145.2880 C   0  0  0  0  0  0  0  0  0  0  0  0
  189.1780  177.5540  141.5820 C   0  0  0  0  0  0  0  0  0  0  0  0
  187.6370  177.3900  147.2260 C   0  0  0  0  0  0  0  0  0  0  0  0
  190.2800  177.2640  146.0830 N   0  0  0  0  0  2  0  0  0  0  0  0
  188.2030  176.8010  148.1850 O   0  0  0  0  0  0  0  0  0  0  0  0
  187.7900  177.0090  145.7930 C   0  0  1  0  0  3  0  0  0  0  0  0
  189.6680  177.7430  140.3850 C   0  0  0  0  0  0  0  0  0  0  0  0
  186.2880  178.7880  146.1030 C   0  0  0  0  0  3  0  0  0  0  0  0
  186.8370  178.0000  145.1870 C   0  0  0  0  0  0  0  0  0  0  0  0
  191.3440  177.4330  145.2720 C   0  0  0  0  0  3  0  0  0  0  0  0
  188.6860  177.3620  142.7760 C   0  0  0  0  0  0  0  0  0  0  0  0
  187.2260  177.0570  142.8970 C   0  0  0  0  0  2  0  0  0  0  0  0
  186.7430  178.4730  147.4130 N   0  0  0  0  0  2  0  0  0  0  0  0
  186.5050  178.1100  143.7300 C   0  0  0  0  0  2  0  0  0  0  0  0
  189.5720  177.3640  143.9630 C   0  0  0  0  0  0  0  0  0  0  0  0
  190.9470  177.5030  143.9480 C   0  0  0  0  0  3  0  0  0  0  0  0
  192.0600  177.7000  140.3000 N   0  0  0  0  0  0  0  0  0  0  0  0
  190.9410  177.1040  139.9970 C   0  0  0  0  0  0  0  0  0  0  0  0
  193.3040  177.2020  139.9870 O   0  0  0  0  0  1  0  0  0  0  0  0
  190.8880  175.8740  139.3160 O   0  0  0  0  0  0  0  0  0  0  0  0
  191.5250  175.5930  138.0770 C   0  0  0  0  0  2  0  0  0  0  0  0
  191.2460  174.3470  135.9610 C   0  0  0  0  0  1  0  0  0  0  0  0
  190.8400  174.4150  137.4180 C   0  0  0  0  0  2  0  0  0  0  0  0
  188.8780  178.5490  139.4020 C   0  0  0  0  0  2  0  0  0  0  0  0
  188.1310  176.3520  135.7930 C   0  0  0  0  0  3  0  0  0  0  0  0
  187.5380  175.9480  136.9920 C   0  0  0  0  0  0  0  0  0  0  0  0
  186.7000  174.8410  137.0130 O   0  0  0  0  0  1  0  0  0  0  0  0
  188.6310  177.7730  138.1510 C   0  0  0  0  0  0  0  0  0  0  0  0
  189.2220  178.1790  136.9480 C   0  0  0  0  0  3  0  0  0  0  0  0
  188.9730  177.4680  135.7700 C   0  0  0  0  0  3  0  0  0  0  0  0
  187.7850  176.6590  138.1700 C   0  0  0  0  0  3  0  0  0  0  0  0
  1  6  1  0  0  0  0
  1  4  1  0  0  0  0
  2 11  2  0  0  0  0
  3 13  1  0  0  0  0
  3  5  2  0  0  0  0
  6  9  1  6  0  0  0
  6  3  1  0  0  0  0
  7  2  2  0  0  0  0
  8 13  1  0  0  0  0
  9  8  2  0  0  0  0
 10  4  1  0  0  0  0
 11 12  1  0  0  0  0
 11 15  1  0  0  0  0
 12 14  1  0  0  0  0
 14  9  1  0  0  0  0
 15  1  2  0  0  0  0
 16 15  1  0  0  0  0
 16 10  2  0  0  0  0
 18 17  2  0  0  0  0
 18  7  1  0  0  0  0
 19 17  1  0  0  0  0
 20 18  1  0  0  0  0
 21 20  1  0  0  0  0
 22 23  1  0  0  0  0
 23 21  1  0  0  0  0
 24  7  1  0  0  0  0
 25 26  1  0  0  0  0
 26 27  1  0  0  0  0
 26 31  2  0  0  0  0
 28 31  1  0  0  0  0
 28 24  1  0  0  0  0
 29 28  2  0  0  0  0
 30 25  2  0  0  0  0
 30 29  1  0  0  0  0
M  END
>  <MODEL>
5

>  <REMARK>
 VINA RESULT:      -8.5      3.621      7.512
  Name = 
  6 active torsions:
  status: ('A' for Active; 'I' for Inactive)
    1  A    between atoms: C_5  and  O_22
    2  A    between atoms: C_5  and  C_28
    3  A    between atoms: C_13  and  C_14
    4  A    between atoms: C_13  and  C_25
    5  A    between atoms: C_14  and  C_15
    6  A    between atoms: O_22  and  C_25
                            x       y       z     vdW  Elec       q    Type
                         _______ _______ _______ _____ _____    ______ ____

>  <TORSDO>
F 6

$$$$
=
 OpenBabel10232411543D

 31 34  0  0  1  0  0  0  0  0999 V2000
  186.8030  178.2620  139.7300 C   0  0  0  0  0  0  0  0  0  0  0  0
  188.6810  177.9140  142.9220 C   0  0  0  0  0  0  0  0  0  0  0  0
  187.1880  178.2120  137.2710 C   0  0  0  0  0  0  0  0  0  0  0  0
  185.5720  178.7880  139.5860 N   0  0  0  0  0  0  0  0  0  0  0  0
  186.0630  178.0210  136.7380 O   0  0  0  0  0  0  0  0  0  0  0  0
  187.5980  177.6640  138.5950 C   0  0  1  0  0  3  0  0  0  0  0  0
  188.9250  178.0480  144.1990 C   0  0  0  0  0  0  0  0  0  0  0  0
  189.3210  178.8600  137.5360 C   0  0  0  0  0  3  0  0  0  0  0  0
  189.0170  178.1570  138.6210 C   0  0  2  0  0  3  0  0  0  0  0  0
  185.1700  179.1630  140.8170 C   0  0  0  0  0  3  0  0  0  0  0  0
  188.4380  177.7750  141.6460 C   0  0  0  0  0  0  0  0  0  0  0  0
  189.4310  177.0220  140.8170 C   0  0  0  0  0  2  0  0  0  0  0  0
  188.2220  178.9460  136.6370 N   0  0  0  0  0  0  0  0  0  0  0  0
  190.0100  177.8980  139.7130 C   0  0  0  0  0  2  0  0  0  0  0  0
  187.1740  178.2780  141.0630 C   0  0  1  0  0  3  0  0  0  0  0  0
  186.1360  178.8670  141.7620 C   0  0  0  0  0  3  0  0  0  0  0  0
  188.1160  177.9930  146.4510 N   0  0  0  0  0  0  0  0  0  0  0  0
  187.8530  177.8180  145.1870 C   0  0  0  0  0  0  0  0  0  0  0  0
  187.1990  177.8060  147.4600 O   0  0  0  0  0  1  0  0  0  0  0  0
  186.5890  177.4190  144.7160 O   0  0  0  0  0  0  0  0  0  0  0  0
  185.3450  177.7650  145.3080 C   0  0  0  0  0  2  0  0  0  0  0  0
  183.4270  179.1580  144.6090 C   0  0  0  0  0  1  0  0  0  0  0  0
  184.9240  179.1370  144.8250 C   0  0  0  0  0  2  0  0  0  0  0  0
  190.3230  178.3610  144.6360 C   0  0  0  0  0  2  0  0  0  0  0  0
  192.3560  174.7660  145.8020 C   0  0  0  0  0  3  0  0  0  0  0  0
  192.0720  175.7490  146.7550 C   0  0  0  0  0  0  0  0  0  0  0  0
  192.4400  175.5570  148.0800 O   0  0  0  0  0  1  0  0  0  0  0  0
  191.0460  177.1190  145.0400 C   0  0  0  0  0  0  0  0  0  0  0  0
  191.3270  176.1320  144.0870 C   0  0  0  0  0  3  0  0  0  0  0  0
  191.9830  174.9570  144.4680 C   0  0  0  0  0  3  0  0  0  0  0  0
  191.4150  176.9230  146.3750 C   0  0  0  0  0  3  0  0  0  0  0  0
  1 15  1  0  0  0  0
  2  7  2  0  0  0  0
  4  1  2  0  0  0  0
  4 10  1  0  0  0  0
  5  3  2  0  0  0  0
  6  3  1  6  0  0  0
  6  9  1  0  0  0  0
  6  1  1  0  0  0  0
  7 24  1  0  0  0  0
  7 18  1  0  0  0  0
  9  8  1  6  0  0  0
  9 14  1  0  0  0  0
 10 16  2  0  0  0  0
 11  2  2  0  0  0  0
 12 11  1  0  0  0  0
 13  3  1  0  0  0  0
 13  8  2  0  0  0  0
 14 12  1  0  0  0  0
 15 11  1  0  0  0  0
 15 16  1  6  0  0  0
 17 19  1  0  0  0  0
 18 17  2  0  0  0  0
 20 18  1  0  0  0  0
 20 21  1  0  0  0  0
 22 23  1  0  0  0  0
 23 21  1  0  0  0  0
 24 28  1  0  0  0  0
 25 26  1  0  0  0  0
 26 27  1  0  0  0  0
 28 31  1  0  0  0  0
 29 30  1  0  0  0  0
 29 28  2  0  0  0  0
 30 25  2  0  0  0  0
 31 26  2  0  0  0  0
M  END
>  <MODEL>
6

>  <REMARK>
 VINA RESULT:      -8.5      2.493      5.380
  Name = 
  6 active torsions:
  status: ('A' for Active; 'I' for Inactive)
    1  A    between atoms: C_5  and  O_22
    2  A    between atoms: C_5  and  C_28
    3  A    between atoms: C_13  and  C_14
    4  A    between atoms: C_13  and  C_25
    5  A    between atoms: C_14  and  C_15
    6  A    between atoms: O_22  and  C_25
                            x       y       z     vdW  Elec       q    Type
                         _______ _______ _______ _____ _____    ______ ____

>  <TORSDO>
F 6

$$$$
=
 OpenBabel10232411543D

 31 34  0  0  1  0  0  0  0  0999 V2000
  190.2480  176.8370  144.8230 C   0  0  0  0  0  0  0  0  0  0  0  0
  187.6250  178.1270  142.5220 C   0  0  0  0  0  0  0  0  0  0  0  0
  190.6600  176.5010  147.2550 C   0  0  0  0  0  0  0  0  0  0  0  0
  191.5420  176.6270  144.5150 N   0  0  0  0  0  2  0  0  0  0  0  0
  191.5990  175.6670  147.3460 O   0  0  0  0  0  0  0  0  0  0  0  0
  189.6420  176.5110  146.1660 C   0  0  1  0  0  3  0  0  0  0  0  0
  187.1220  178.6160  141.4190 C   0  0  0  0  0  0  0  0  0  0  0  0
  189.2600  178.1760  147.7800 C   0  0  0  0  0  3  0  0  0  0  0  0
  188.7900  177.6480  146.6560 C   0  0  0  0  0  0  0  0  0  0  0  0
  191.6900  176.9830  143.2220 C   0  0  0  0  0  3  0  0  0  0  0  0
  188.1240  177.6340  143.6240 C   0  0  0  0  0  0  0  0  0  0  0  0
  187.1870  177.3390  144.7530 C   0  0  0  0  0  2  0  0  0  0  0  0
  190.4390  177.5150  148.2210 N   0  0  0  0  0  2  0  0  0  0  0  0
  187.5420  178.1480  145.9940 C   0  0  0  0  0  2  0  0  0  0  0  0
  189.5650  177.3020  143.7130 C   0  0  0  0  0  0  0  0  0  0  0  0
  190.4870  177.4100  142.6890 C   0  0  0  0  0  3  0  0  0  0  0  0
  186.8110  178.3390  139.0620 N   0  0  0  0  0  0  0  0  0  0  0  0
  187.5390  178.0760  140.1110 C   0  0  0  0  0  0  0  0  0  0  0  0
  187.0980  177.8880  137.7950 O   0  0  0  0  0  1  0  0  0  0  0  0
  188.7110  177.3000  140.0540 O   0  0  0  0  0  0  0  0  0  0  0  0
  189.9520  177.7240  139.5090 C   0  0  0  0  0  2  0  0  0  0  0  0
  190.4010  176.7300  137.2910 C   0  0  0  0  0  1  0  0  0  0  0  0
  190.6020  176.5660  138.7820 C   0  0  0  0  0  2  0  0  0  0  0  0
  186.0640  179.6710  141.5170 C   0  0  0  0  0  2  0  0  0  0  0  0
  182.7180  178.3470  143.8540 C   0  0  0  0  0  3  0  0  0  0  0  0
  183.7940  178.9880  144.4750 C   0  0  0  0  0  0  0  0  0  0  0  0
  183.7750  179.2050  145.8460 O   0  0  0  0  0  1  0  0  0  0  0  0
  184.9090  179.1950  142.3340 C   0  0  0  0  0  0  0  0  0  0  0  0
  183.8290  178.5560  141.7130 C   0  0  0  0  0  3  0  0  0  0  0  0
  182.7350  178.1310  142.4720 C   0  0  0  0  0  3  0  0  0  0  0  0
  184.8870  179.4150  143.7150 C   0  0  0  0  0  3  0  0  0  0  0  0
  2 11  2  0  0  0  0
  3  5  2  0  0  0  0
  3 13  1  0  0  0  0
  4  1  1  0  0  0  0
  6  1  1  6  0  0  0
  6  9  1  0  0  0  0
  6  3  1  0  0  0  0
  7 24  1  0  0  0  0
  7  2  2  0  0  0  0
  8 13  1  0  0  0  0
  9  8  2  0  0  0  0
 10  4  1  0  0  0  0
 11 15  1  0  0  0  0
 11 12  1  0  0  0  0
 12 14  1  0  0  0  0
 14  9  1  0  0  0  0
 15  1  2  0  0  0  0
 16 10  2  0  0  0  0
 16 15  1  0  0  0  0
 17 18  2  0  0  0  0
 18  7  1  0  0  0  0
 19 17  1  0  0  0  0
 20 18  1  0  0  0  0
 21 20  1  0  0  0  0
 22 23  1  0  0  0  0
 23 21  1  0  0  0  0
 24 28  1  0  0  0  0
 25 26  1  0  0  0  0
 26 27  1  0  0  0  0
 28 31  1  0  0  0  0
 29 28  2  0  0  0  0
 29 30  1  0  0  0  0
 30 25  2  0  0  0  0
 31 26  2  0  0  0  0
M  END
>  <MODEL>
7

>  <REMARK>
 VINA RESULT:      -8.5      2.494      6.724
  Name = 
  6 active torsions:
  status: ('A' for Active; 'I' for Inactive)
    1  A    between atoms: C_5  and  O_22
    2  A    between atoms: C_5  and  C_28
    3  A    between atoms: C_13  and  C_14
    4  A    between atoms: C_13  and  C_25
    5  A    between atoms: C_14  and  C_15
    6  A    between atoms: O_22  and  C_25
                            x       y       z     vdW  Elec       q    Type
                         _______ _______ _______ _____ _____    ______ ____

>  <TORSDO>
F 6

$$$$
=
 OpenBabel10232411543D

 31 34  0  0  1  0  0  0  0  0999 V2000
  189.8730  177.4010  144.9720 C   0  0  0  0  0  0  0  0  0  0  0  0
  187.6240  178.1110  142.0950 C   0  0  0  0  0  0  0  0  0  0  0  0
  189.7760  177.0750  147.4380 C   0  0  0  0  0  0  0  0  0  0  0  0
  191.2130  177.5240  144.9810 N   0  0  0  0  0  2  0  0  0  0  0  0
  190.8430  176.4890  147.7620 O   0  0  0  0  0  0  0  0  0  0  0  0
  189.0690  176.8830  146.1400 C   0  0  1  0  0  3  0  0  0  0  0  0
  187.2870  178.5090  140.8960 C   0  0  0  0  0  0  0  0  0  0  0  0
  187.9270  178.3380  147.5880 C   0  0  0  0  0  3  0  0  0  0  0  0
  187.8750  177.7580  146.3940 C   0  0  0  0  0  0  0  0  0  0  0  0
  191.5660  177.9580  143.7540 C   0  0  0  0  0  3  0  0  0  0  0  0
  187.9580  177.7090  143.2920 C   0  0  0  0  0  0  0  0  0  0  0  0
  186.8850  177.1500  144.1730 C   0  0  0  0  0  2  0  0  0  0  0  0
  189.0950  177.9640  148.3070 N   0  0  0  0  0  2  0  0  0  0  0  0
  186.7320  177.9680  145.4490 C   0  0  0  0  0  2  0  0  0  0  0  0
  189.3740  177.7320  143.7240 C   0  0  0  0  0  0  0  0  0  0  0  0
  190.4540  178.1030  142.9440 C   0  0  0  0  0  3  0  0  0  0  0  0
  188.1280  178.9300  138.6950 N   0  0  0  0  0  0  0  0  0  0  0  0
  188.1170  178.1410  139.7330 C   0  0  0  0  0  0  0  0  0  0  0  0
  188.8590  178.6890  137.5550 O   0  0  0  0  0  1  0  0  0  0  0  0
  188.8640  176.9510  139.7980 O   0  0  0  0  0  0  0  0  0  0  0  0
  190.2800  176.8640  139.7190 C   0  0  0  0  0  2  0  0  0  0  0  0
  191.6980  176.5370  137.7220 C   0  0  0  0  0  1  0  0  0  0  0  0
  190.6620  175.8960  138.6200 C   0  0  0  0  0  2  0  0  0  0  0  0
  186.0100  179.2720  140.7230 C   0  0  0  0  0  2  0  0  0  0  0  0
  183.0060  176.7640  138.9640 C   0  0  0  0  0  3  0  0  0  0  0  0
  183.9540  177.3930  138.1520 C   0  0  0  0  0  0  0  0  0  0  0  0
  183.9280  177.1990  136.7780 O   0  0  0  0  0  1  0  0  0  0  0  0
  184.9550  178.4140  140.1080 C   0  0  0  0  0  0  0  0  0  0  0  0
  184.0070  177.7800  140.9210 C   0  0  0  0  0  3  0  0  0  0  0  0
  183.0330  176.9570  140.3490 C   0  0  0  0  0  3  0  0  0  0  0  0
  184.9290  178.2160  138.7240 C   0  0  0  0  0  3  0  0  0  0  0  0
  1  4  1  0  0  0  0
  2 11  2  0  0  0  0
  3  5  2  0  0  0  0
  3 13  1  0  0  0  0
  6  1  1  6  0  0  0
  6  9  1  0  0  0  0
  6  3  1  0  0  0  0
  7  2  2  0  0  0  0
  8 13  1  0  0  0  0
  9  8  2  0  0  0  0
 10  4  1  0  0  0  0
 11 15  1  0  0  0  0
 11 12  1  0  0  0  0
 12 14  1  0  0  0  0
 14  9  1  0  0  0  0
 15  1  2  0  0  0  0
 16 15  1  0  0  0  0
 16 10  2  0  0  0  0
 17 18  2  0  0  0  0
 18 20  1  0  0  0  0
 18  7  1  0  0  0  0
 19 17  1  0  0  0  0
 21 20  1  0  0  0  0
 22 23  1  0  0  0  0
 23 21  1  0  0  0  0
 24  7  1  0  0  0  0
 25 30  1  0  0  0  0
 26 31  1  0  0  0  0
 26 25  2  0  0  0  0
 27 26  1  0  0  0  0
 28 24  1  0  0  0  0
 28 29  1  0  0  0  0
 30 29  2  0  0  0  0
 31 28  2  0  0  0  0
M  END
>  <MODEL>
8

>  <REMARK>
 VINA RESULT:      -8.1      2.667      7.170
  Name = 
  6 active torsions:
  status: ('A' for Active; 'I' for Inactive)
    1  A    between atoms: C_5  and  O_22
    2  A    between atoms: C_5  and  C_28
    3  A    between atoms: C_13  and  C_14
    4  A    between atoms: C_13  and  C_25
    5  A    between atoms: C_14  and  C_15
    6  A    between atoms: O_22  and  C_25
                            x       y       z     vdW  Elec       q    Type
                         _______ _______ _______ _____ _____    ______ ____

>  <TORSDO>
F 6

$$$$
=
 OpenBabel10232411543D

 31 34  0  0  1  0  0  0  0  0999 V2000
  184.4670  178.8980  144.0740 C   0  0  0  0  0  0  0  0  0  0  0  0
  184.8000  178.4950  140.3910 C   0  0  0  0  0  0  0  0  0  0  0  0
  185.7960  178.5900  146.1570 C   0  0  0  0  0  0  0  0  0  0  0  0
  183.3160  179.0320  144.7570 N   0  0  0  0  0  2  0  0  0  0  0  0
  185.2220  179.2700  147.0490 O   0  0  0  0  0  0  0  0  0  0  0  0
  185.8340  178.9550  144.7120 C   0  0  1  0  0  3  0  0  0  0  0  0
  184.4070  178.3430  139.1530 C   0  0  0  0  0  0  0  0  0  0  0  0
  187.0520  177.0030  145.1890 C   0  0  0  0  0  3  0  0  0  0  0  0
  186.7020  177.8340  144.2140 C   0  0  0  0  0  0  0  0  0  0  0  0
  182.3220  178.9840  143.8470 C   0  0  0  0  0  3  0  0  0  0  0  0
  185.1960  178.6500  141.6260 C   0  0  0  0  0  0  0  0  0  0  0  0
  186.6650  178.7650  141.8870 C   0  0  0  0  0  2  0  0  0  0  0  0
  186.5170  177.4050  146.4430 N   0  0  0  0  0  2  0  0  0  0  0  0
  187.1560  177.6470  142.7980 C   0  0  0  0  0  2  0  0  0  0  0  0
  184.2060  178.7910  142.7190 C   0  0  0  0  0  0  0  0  0  0  0  0
  182.8330  178.8320  142.5690 C   0  0  0  0  0  3  0  0  0  0  0  0
  183.2140  180.4050  138.9160 N   0  0  0  0  0  0  0  0  0  0  0  0
  183.2740  179.1330  138.6340 C   0  0  0  0  0  0  0  0  0  0  0  0
  182.2060  181.2390  138.4920 O   0  0  0  0  0  1  0  0  0  0  0  0
  182.3050  178.4760  137.8540 O   0  0  0  0  0  0  0  0  0  0  0  0
  181.0070  178.1060  138.2950 C   0  0  0  0  0  2  0  0  0  0  0  0
  181.5500  176.0010  139.4720 C   0  0  0  0  0  1  0  0  0  0  0  0
  181.1100  177.4380  139.6500 C   0  0  0  0  0  2  0  0  0  0  0  0
  185.1760  177.4180  138.2620 C   0  0  0  0  0  2  0  0  0  0  0  0
  189.0790  178.9610  137.3680 C   0  0  0  0  0  3  0  0  0  0  0  0
  188.8670  178.2350  138.5440 C   0  0  0  0  0  0  0  0  0  0  0  0
  189.9210  178.0060  139.4170 O   0  0  0  0  0  1  0  0  0  0  0  0
  186.5300  177.9690  137.9610 C   0  0  0  0  0  0  0  0  0  0  0  0
  186.7440  178.6930  136.7820 C   0  0  0  0  0  3  0  0  0  0  0  0
  188.0180  179.1900  136.4860 C   0  0  0  0  0  3  0  0  0  0  0  0
  187.5940  177.7370  138.8390 C   0  0  0  0  0  3  0  0  0  0  0  0
  1  4  1  0  0  0  0
  2 11  2  0  0  0  0
  3 13  1  0  0  0  0
  3  5  2  0  0  0  0
  6  1  1  6  0  0  0
  6  3  1  0  0  0  0
  7  2  2  0  0  0  0
  8 13  1  0  0  0  0
  9  6  1  0  0  0  0
  9  8  2  0  0  0  0
 10  4  1  0  0  0  0
 11 12  1  0  0  0  0
 11 15  1  0  0  0  0
 12 14  1  0  0  0  0
 14  9  1  0  0  0  0
 15  1  2  0  0  0  0
 16 15  1  0  0  0  0
 16 10  2  0  0  0  0
 18 17  2  0  0  0  0
 18  7  1  0  0  0  0
 19 17  1  0  0  0  0
 20 21  1  0  0  0  0
 20 18  1  0  0  0  0
 21 23  1  0  0  0  0
 22 23  1  0  0  0  0
 24  7  1  0  0  0  0
 25 26  1  0  0  0  0
 26 31  2  0  0  0  0
 26 27  1  0  0  0  0
 28 24  1  0  0  0  0
 28 31  1  0  0  0  0
 29 28  2  0  0  0  0
 30 29  1  0  0  0  0
 30 25  2  0  0  0  0
M  END
>  <MODEL>
9

>  <REMARK>
 VINA RESULT:      -8.1      2.382      7.829
  Name = 
  6 active torsions:
  status: ('A' for Active; 'I' for Inactive)
    1  A    between atoms: C_5  and  O_22
    2  A    between atoms: C_5  and  C_28
    3  A    between atoms: C_13  and  C_14
    4  A    between atoms: C_13  and  C_25
    5  A    between atoms: C_14  and  C_15
    6  A    between atoms: O_22  and  C_25
                            x       y       z     vdW  Elec       q    Type
                         _______ _______ _______ _____ _____    ______ ____

>  <TORSDO>
F 6

$$$$
