=
 OpenBabel10232408053D

 62 68  0  0  1  0  0  0  0  0999 V2000
  190.7060  177.2150  140.5090 C   0  0  2  0  0  3  0  0  0  0  0  0
  188.7680  176.2090  137.7190 C   0  0  1  0  0  3  0  0  0  0  0  0
  189.8530  176.3040  139.8600 O   0  0  0  0  0  0  0  0  0  0  0  0
  190.6570  175.2580  136.5380 N   0  0  0  0  0  0  0  0  0  0  0  0
  192.1870  176.8300  140.3470 C   0  0  0  0  0  2  0  0  0  0  0  0
  189.3030  175.7990  136.3600 C   0  0  0  0  0  2  0  0  0  0  0  0
  192.6430  177.1770  139.0060 N   0  0  0  0  0  2  0  0  0  0  0  0
  190.0090  176.5430  138.4880 C   0  0  1  0  0  3  0  0  0  0  0  0
  191.0250  175.5750  137.9270 C   0  0  2  0  0  3  0  0  0  0  0  0
  192.5000  176.0220  138.1150 C   0  0  1  0  0  3  0  0  0  0  0  0
  189.6530  177.6070  144.6220 N   0  0  0  0  0  0  0  0  0  0  0  0
  190.3210  177.3390  141.9500 C   0  0  0  0  0  0  0  0  0  0  0  0
  188.6890  177.2510  143.7300 C   0  0  0  0  0  0  0  0  0  0  0  0
  189.0020  177.1240  142.3760 C   0  0  0  0  0  3  0  0  0  0  0  0
  191.2920  177.7070  142.8840 C   0  0  0  0  0  3  0  0  0  0  0  0
  190.9360  177.8380  144.2280 C   0  0  0  0  0  3  0  0  0  0  0  0
  187.3020  176.9790  144.1990 C   0  0  0  0  0  2  0  0  0  0  0  0
  186.7470  178.1560  144.8530 N   0  0  0  0  0  2  0  0  0  0  0  0
  184.7560  178.4430  146.1920 C   0  0  0  0  0  2  0  0  0  0  0  0
  185.9480  178.8550  147.0300 C   0  0  0  0  0  2  0  0  0  0  0  0
  186.0710  177.7030  146.0550 C   0  0  0  0  0  3  0  0  0  0  0  0
  187.8470  177.3870  137.6160 C   0  0  0  0  0  0  0  0  0  0  0  0
  186.9990  177.5980  138.4700 O   0  0  0  0  0  0  0  0  0  0  0  0
  187.9650  178.3110  136.4510 C   0  0  0  0  0  1  0  0  0  0  0  0
  193.2220  176.3040  136.8040 C   0  0  0  0  0  2  0  0  0  0  0  0
  194.3860  175.3420  136.6550 C   0  0  0  0  0  2  0  0  0  0  0  0
  194.5610  174.5330  137.9240 C   0  0  0  0  0  2  0  0  0  0  0  0
  195.9810  173.9940  137.9690 C   0  0  2  0  0  3  0  0  0  0  0  0
  196.8820  175.0510  137.8100 O   0  0  0  0  0  0  0  0  0  0  0  0
  198.0290  174.6610  138.5030 C   0  0  0  0  0  2  0  0  0  0  0  0
  199.9620  173.7800  137.9040 C   0  0  0  0  0  1  0  0  0  0  0  0
  199.1530  174.9000  137.7130 O   0  0  0  0  0  0  0  0  0  0  0  0
  196.1820  173.0370  136.9350 O   0  0  0  0  0  0  0  0  0  0  0  0
  194.7620  169.7260  137.8610 C   0  0  0  0  0  3  0  0  0  0  0  0
  193.3880  169.9460  134.3470 C   0  0  0  0  0  1  0  0  0  0  0  0
  194.0990  170.2950  135.6020 C   0  0  0  0  0  0  0  0  0  0  0  0
  195.4560  170.9340  137.9580 C   0  0  0  0  0  3  0  0  0  0  0  0
  194.7890  171.5050  135.7000 C   0  0  0  0  0  3  0  0  0  0  0  0
  194.0880  169.4050  136.6810 C   0  0  0  0  0  3  0  0  0  0  0  0
  195.4780  171.8300  136.8740 C   0  0  0  0  0  0  0  0  0  0  0  0
  190.5660  173.8000  136.3270 C   0  0  2  0  0  3  0  0  0  0  0  0
  192.1250  173.9270  134.4190 C   0  0  0  0  0  2  0  0  0  0  0  0
  191.6860  173.2500  135.4760 C   0  0  0  0  0  3  0  0  0  0  0  0
  189.1960  173.4500  135.7150 C   0  0  1  0  0  3  0  0  0  0  0  0
  189.5690  171.4360  134.8440 C   0  0  0  0  0  1  0  0  0  0  0  0
  189.3230  172.7680  134.4960 O   0  0  0  0  0  0  0  0  0  0  0  0
  188.3030  172.6820  136.6850 C   0  0  0  0  0  2  0  0  0  0  0  0
  187.2320  171.8620  135.9770 C   0  0  0  0  0  2  0  0  0  0  0  0
  183.8390  172.8910  137.0930 C   0  0  0  0  0  2  0  0  0  0  0  0
  185.9940  172.6160  135.9240 N   0  0  0  0  0  0  0  0  0  0  0  0
  185.9850  173.8920  135.2760 C   0  0  0  0  0  3  0  0  0  0  0  0
  184.8140  175.0820  137.1950 C   0  0  2  0  0  3  0  0  0  0  0  0
  185.4510  176.2330  134.9770 C   0  0  0  0  0  2  0  0  0  0  0  0
  183.7300  177.2580  136.4720 C   0  0  0  0  0  2  0  0  0  0  0  0
  184.7570  171.9490  136.3230 C   0  0  0  0  0  2  0  0  0  0  0  0
  183.5380  175.9570  137.2530 C   0  0  2  0  0  3  0  0  0  0  0  0
  184.1140  176.9650  135.0250 C   0  0  0  0  0  2  0  0  0  0  0  0
  185.3770  174.9760  135.7790 C   0  0  0  0  0  0  0  0  0  0  0  0
  184.6380  173.8060  137.9000 N   0  0  0  0  0  2  0  0  0  0  0  0
  183.3050  177.7820  138.9700 C   0  0  0  0  0  1  0  0  0  0  0  0
  181.7860  175.9360  138.9310 O   0  0  0  0  0  1  0  0  0  0  0  0
  183.1120  176.3080  138.6840 C   0  0  1  0  0  3  0  0  0  0  0  0
  1 12  1  1  0  0  0
  2 22  1  6  0  0  0
  2  8  1  0  0  0  0
  3  1  1  0  0  0  0
  5  1  1  0  0  0  0
  6  4  1  0  0  0  0
  6  2  1  0  0  0  0
  7  5  1  0  0  0  0
  8  3  1  1  0  0  0
  9  4  1  6  0  0  0
  9 10  1  0  0  0  0
  9  8  1  0  0  0  0
 10 25  1  6  0  0  0
 10  7  1  0  0  0  0
 12 14  2  0  0  0  0
 12 15  1  0  0  0  0
 13 17  1  0  0  0  0
 13 11  2  0  0  0  0
 14 13  1  0  0  0  0
 15 16  2  0  0  0  0
 16 11  1  0  0  0  0
 17 18  1  0  0  0  0
 18 21  1  0  0  0  0
 19 20  1  0  0  0  0
 21 19  1  0  0  0  0
 21 20  1  0  0  0  0
 22 23  2  0  0  0  0
 24 22  1  0  0  0  0
 26 25  1  0  0  0  0
 26 27  1  0  0  0  0
 28 27  1  6  0  0  0
 29 28  1  0  0  0  0
 29 30  1  0  0  0  0
 32 31  1  0  0  0  0
 32 30  1  0  0  0  0
 33 28  1  0  0  0  0
 34 37  1  0  0  0  0
 35 36  1  0  0  0  0
 36 38  2  0  0  0  0
 36 39  1  0  0  0  0
 38 40  1  0  0  0  0
 39 34  2  0  0  0  0
 40 33  1  0  0  0  0
 40 37  2  0  0  0  0
 41 43  1  6  0  0  0
 41  4  1  0  0  0  0
 42 43  2  0  0  0  0
 44 41  1  0  0  0  0
 44 47  1  1  0  0  0
 46 45  1  0  0  0  0
 46 44  1  0  0  0  0
 48 47  1  0  0  0  0
 49 59  1  0  0  0  0
 50 48  1  0  0  0  0
 50 55  1  0  0  0  0
 51 58  2  0  0  0  0
 51 50  1  0  0  0  0
 52 58  1  6  0  0  0
 52 56  1  0  0  0  0
 52 59  1  0  0  0  0
 53 57  1  0  0  0  0
 53 58  1  0  0  0  0
 54 56  1  0  0  0  0
 55 49  1  0  0  0  0
 56 62  1  1  0  0  0
 57 54  1  0  0  0  0
 62 61  1  0  0  0  0
 62 60  1  6  0  0  0
M  END
>  <MODEL>
1

>  <REMARK>
 VINA RESULT:      -6.4      0.000      0.000
  Name = 
  22 active torsions:
  status: ('A' for Active; 'I' for Inactive)
    1  A    between atoms: O_1  and  C_17
    2  A    between atoms: O_1  and  C_61
    3  A    between atoms: C_4  and  C_5
    4  A    between atoms: N_8  and  C_18
    5  A    between atoms: C_9  and  C_30
    6  A    between atoms: C_10  and  C_11
    7  A    between atoms: C_16  and  C_59
    8  A    between atoms: C_16  and  C_62
    9  A    between atoms: C_17  and  O_36
   10  A    between atoms: C_17  and  C_62
   11  A    between atoms: C_18  and  C_54
   12  A    between atoms: N_19  and  C_57
   13  A    between atoms: N_21  and  C_30
   14  A    between atoms: N_21  and  C_39
   15  A    between atoms: C_35  and  O_36
   16  A    between atoms: C_35  and  O_42
   17  A    between atoms: C_41  and  C_54
   18  A    between atoms: C_41  and  O_56
   19  A    between atoms: C_41  and  C_57
   20  A    between atoms: C_43  and  C_51
   21  A    between atoms: C_55  and  C_59
   22  A    between atoms: C_57  and  C_60
                            x       y       z     vdW  Elec       q    Type
                         _______ _______ _______ _____ _____    ______ ____

>  <TORSDO>
F 22

$$$$
=
 OpenBabel10232408053D

 62 68  0  0  1  0  0  0  0  0999 V2000
  190.0730  177.4360  140.6170 C   0  0  2  0  0  3  0  0  0  0  0  0
  187.9910  176.8780  137.8050 C   0  0  1  0  0  3  0  0  0  0  0  0
  189.0720  176.7130  139.9450 O   0  0  0  0  0  0  0  0  0  0  0  0
  189.6810  175.6380  136.5910 N   0  0  0  0  0  0  0  0  0  0  0  0
  191.4610  176.7960  140.4390 C   0  0  0  0  0  2  0  0  0  0  0  0
  188.4470  176.4190  136.4330 C   0  0  0  0  0  2  0  0  0  0  0  0
  191.9750  177.0960  139.1070 N   0  0  0  0  0  2  0  0  0  0  0  0
  189.2710  176.9600  138.5800 C   0  0  1  0  0  3  0  0  0  0  0  0
  190.0970  175.8430  137.9870 C   0  0  2  0  0  3  0  0  0  0  0  0
  191.6280  176.0120  138.1830 C   0  0  1  0  0  3  0  0  0  0  0  0
  189.0970  177.8940  144.7430 N   0  0  0  0  0  0  0  0  0  0  0  0
  189.7140  177.5840  142.0630 C   0  0  0  0  0  0  0  0  0  0  0  0
  188.0990  177.6150  143.8610 C   0  0  0  0  0  0  0  0  0  0  0  0
  188.3880  177.4680  142.5030 C   0  0  0  0  0  3  0  0  0  0  0  0
  190.7210  177.8740  142.9870 C   0  0  0  0  0  3  0  0  0  0  0  0
  190.3900  178.0280  144.3360 C   0  0  0  0  0  3  0  0  0  0  0  0
  186.7010  177.4470  144.3440 C   0  0  0  0  0  2  0  0  0  0  0  0
  186.0620  178.7460  144.5100 N   0  0  0  0  0  2  0  0  0  0  0  0
  183.9170  178.3770  143.4600 C   0  0  0  0  0  2  0  0  0  0  0  0
  183.8360  179.6640  144.2540 C   0  0  0  0  0  2  0  0  0  0  0  0
  184.6560  178.5030  144.7770 C   0  0  0  0  0  3  0  0  0  0  0  0
  187.2980  178.2050  137.7410 C   0  0  0  0  0  0  0  0  0  0  0  0
  186.7160  178.6580  138.7160 O   0  0  0  0  0  0  0  0  0  0  0  0
  187.3130  178.9800  136.4670 C   0  0  0  0  0  1  0  0  0  0  0  0
  192.3920  176.1980  136.8780 C   0  0  0  0  0  2  0  0  0  0  0  0
  193.8620  175.9040  137.1100 C   0  0  0  0  0  2  0  0  0  0  0  0
  194.0300  174.5280  137.7220 C   0  0  0  0  0  2  0  0  0  0  0  0
  195.4410  174.0380  137.4440 C   0  0  2  0  0  3  0  0  0  0  0  0
  196.2680  175.1340  137.1850 O   0  0  0  0  0  0  0  0  0  0  0  0
  197.5690  174.6630  137.3720 C   0  0  0  0  0  2  0  0  0  0  0  0
  197.9500  175.1150  139.4980 C   0  0  0  0  0  1  0  0  0  0  0  0
  198.2650  175.5350  138.2060 O   0  0  0  0  0  0  0  0  0  0  0  0
  195.4500  173.1590  136.3240 O   0  0  0  0  0  0  0  0  0  0  0  0
  193.5580  170.0550  135.5360 C   0  0  0  0  0  3  0  0  0  0  0  0
  195.3200  168.8430  138.6530 C   0  0  0  0  0  1  0  0  0  0  0  0
  194.8870  169.7150  137.5320 C   0  0  0  0  0  0  0  0  0  0  0  0
  194.0480  171.3580  135.4360 C   0  0  0  0  0  3  0  0  0  0  0  0
  195.3810  171.0180  137.4300 C   0  0  0  0  0  3  0  0  0  0  0  0
  193.9740  169.2350  136.5870 C   0  0  0  0  0  3  0  0  0  0  0  0
  194.9600  171.8510  136.3870 C   0  0  0  0  0  0  0  0  0  0  0  0
  189.3300  174.2280  136.3370 C   0  0  2  0  0  3  0  0  0  0  0  0
  191.3470  172.8370  136.6270 C   0  0  0  0  0  2  0  0  0  0  0  0
  190.4820  173.4140  135.7970 C   0  0  0  0  0  3  0  0  0  0  0  0
  188.1210  174.1590  135.3830 C   0  0  1  0  0  3  0  0  0  0  0  0
  187.6670  172.0630  134.7860 C   0  0  0  0  0  1  0  0  0  0  0  0
  188.3160  173.2240  134.3540 O   0  0  0  0  0  0  0  0  0  0  0  0
  186.8110  173.9010  136.1190 C   0  0  0  0  0  2  0  0  0  0  0  0
  185.6060  173.8770  135.1870 C   0  0  0  0  0  2  0  0  0  0  0  0
  183.5410  174.9200  138.0970 C   0  0  0  0  0  2  0  0  0  0  0  0
  184.4600  174.4670  135.8530 N   0  0  0  0  0  0  0  0  0  0  0  0
  183.6940  175.4610  135.1660 C   0  0  0  0  0  3  0  0  0  0  0  0
  183.7070  177.1020  137.1100 C   0  0  2  0  0  3  0  0  0  0  0  0
  182.4660  177.5280  134.8890 C   0  0  0  0  0  2  0  0  0  0  0  0
  181.8590  178.8300  136.9350 C   0  0  0  0  0  2  0  0  0  0  0  0
  183.9920  173.8620  137.0970 C   0  0  0  0  0  2  0  0  0  0  0  0
  182.5680  177.8380  137.8580 C   0  0  2  0  0  3  0  0  0  0  0  0
  181.3170  178.1210  135.6970 C   0  0  0  0  0  2  0  0  0  0  0  0
  183.2630  176.5940  135.7390 C   0  0  0  0  0  0  0  0  0  0  0  0
  184.3740  176.1100  137.9630 N   0  0  0  0  0  2  0  0  0  0  0  0
  183.2480  180.0650  138.8100 C   0  0  0  0  0  1  0  0  0  0  0  0
  182.1790  178.4230  140.1790 O   0  0  0  0  0  1  0  0  0  0  0  0
  183.0530  178.5920  139.1010 C   0  0  1  0  0  3  0  0  0  0  0  0
  1 12  1  1  0  0  0
  2 22  1  6  0  0  0
  2  8  1  0  0  0  0
  3  1  1  0  0  0  0
  5  1  1  0  0  0  0
  6  4  1  0  0  0  0
  6  2  1  0  0  0  0
  7  5  1  0  0  0  0
  8  3  1  1  0  0  0
  9  4  1  6  0  0  0
  9 10  1  0  0  0  0
  9  8  1  0  0  0  0
 10 25  1  6  0  0  0
 10  7  1  0  0  0  0
 12 14  2  0  0  0  0
 12 15  1  0  0  0  0
 13 17  1  0  0  0  0
 13 11  2  0  0  0  0
 14 13  1  0  0  0  0
 15 16  2  0  0  0  0
 16 11  1  0  0  0  0
 17 18  1  0  0  0  0
 18 21  1  0  0  0  0
 19 20  1  0  0  0  0
 19 21  1  0  0  0  0
 20 21  1  0  0  0  0
 22 23  2  0  0  0  0
 24 22  1  0  0  0  0
 25 26  1  0  0  0  0
 26 27  1  0  0  0  0
 28 27  1  6  0  0  0
 29 30  1  0  0  0  0
 29 28  1  0  0  0  0
 30 32  1  0  0  0  0
 32 31  1  0  0  0  0
 33 40  1  0  0  0  0
 33 28  1  0  0  0  0
 34 39  1  0  0  0  0
 36 35  1  0  0  0  0
 37 34  2  0  0  0  0
 37 40  1  0  0  0  0
 38 36  1  0  0  0  0
 39 36  2  0  0  0  0
 40 38  2  0  0  0  0
 41 43  1  6  0  0  0
 41  4  1  0  0  0  0
 43 42  2  0  0  0  0
 44 47  1  1  0  0  0
 44 41  1  0  0  0  0
 46 45  1  0  0  0  0
 46 44  1  0  0  0  0
 48 50  1  0  0  0  0
 48 47  1  0  0  0  0
 50 55  1  0  0  0  0
 51 58  2  0  0  0  0
 51 50  1  0  0  0  0
 52 58  1  6  0  0  0
 52 56  1  0  0  0  0
 52 59  1  0  0  0  0
 53 57  1  0  0  0  0
 53 58  1  0  0  0  0
 54 56  1  0  0  0  0
 55 49  1  0  0  0  0
 56 62  1  1  0  0  0
 57 54  1  0  0  0  0
 59 49  1  0  0  0  0
 62 60  1  6  0  0  0
 62 61  1  0  0  0  0
M  END
>  <MODEL>
2

>  <REMARK>
 VINA RESULT:      -6.1      1.272      1.897
  Name = 
  22 active torsions:
  status: ('A' for Active; 'I' for Inactive)
    1  A    between atoms: O_1  and  C_17
    2  A    between atoms: O_1  and  C_61
    3  A    between atoms: C_4  and  C_5
    4  A    between atoms: N_8  and  C_18
    5  A    between atoms: C_9  and  C_30
    6  A    between atoms: C_10  and  C_11
    7  A    between atoms: C_16  and  C_59
    8  A    between atoms: C_16  and  C_62
    9  A    between atoms: C_17  and  O_36
   10  A    between atoms: C_17  and  C_62
   11  A    between atoms: C_18  and  C_54
   12  A    between atoms: N_19  and  C_57
   13  A    between atoms: N_21  and  C_30
   14  A    between atoms: N_21  and  C_39
   15  A    between atoms: C_35  and  O_36
   16  A    between atoms: C_35  and  O_42
   17  A    between atoms: C_41  and  C_54
   18  A    between atoms: C_41  and  O_56
   19  A    between atoms: C_41  and  C_57
   20  A    between atoms: C_43  and  C_51
   21  A    between atoms: C_55  and  C_59
   22  A    between atoms: C_57  and  C_60
                            x       y       z     vdW  Elec       q    Type
                         _______ _______ _______ _____ _____    ______ ____

>  <TORSDO>
F 22

$$$$
=
 OpenBabel10232408053D

 62 68  0  0  1  0  0  0  0  0999 V2000
  190.8240  177.3660  140.6590 C   0  0  2  0  0  3  0  0  0  0  0  0
  188.5400  176.7640  138.0180 C   0  0  1  0  0  3  0  0  0  0  0  0
  189.8000  176.6120  140.0580 O   0  0  0  0  0  0  0  0  0  0  0  0
  190.1710  175.6130  136.6460 N   0  0  0  0  0  0  0  0  0  0  0  0
  192.2170  176.7870  140.3560 C   0  0  0  0  0  2  0  0  0  0  0  0
  188.8980  176.3450  136.6050 C   0  0  0  0  0  2  0  0  0  0  0  0
  192.6060  177.1260  138.9910 N   0  0  0  0  0  2  0  0  0  0  0  0
  189.8750  176.8870  138.6860 C   0  0  1  0  0  3  0  0  0  0  0  0
  190.6930  175.8140  138.0070 C   0  0  2  0  0  3  0  0  0  0  0  0
  192.2270  176.0430  138.0800 C   0  0  1  0  0  3  0  0  0  0  0  0
  190.1820  177.7140  144.8600 N   0  0  0  0  0  0  0  0  0  0  0  0
  190.5810  177.4780  142.1310 C   0  0  0  0  0  0  0  0  0  0  0  0
  189.1020  177.6140  144.0380 C   0  0  0  0  0  0  0  0  0  0  0  0
  189.2810  177.5080  142.6580 C   0  0  0  0  0  3  0  0  0  0  0  0
  191.6730  177.5840  142.9950 C   0  0  0  0  0  3  0  0  0  0  0  0
  191.4520  177.7040  144.3690 C   0  0  0  0  0  3  0  0  0  0  0  0
  187.7270  177.6010  144.6110 C   0  0  0  0  0  2  0  0  0  0  0  0
  186.8130  178.3430  143.7540 N   0  0  0  0  0  2  0  0  0  0  0  0
  184.4930  178.4910  143.0940 C   0  0  0  0  0  2  0  0  0  0  0  0
  184.6490  179.2000  144.4230 C   0  0  0  0  0  2  0  0  0  0  0  0
  185.4640  177.9580  144.1280 C   0  0  0  0  0  3  0  0  0  0  0  0
  187.7910  178.0620  138.0350 C   0  0  0  0  0  0  0  0  0  0  0  0
  187.6020  178.6650  139.0810 O   0  0  0  0  0  0  0  0  0  0  0  0
  187.2650  178.6220  136.7570 C   0  0  0  0  0  1  0  0  0  0  0  0
  192.8720  176.2800  136.7200 C   0  0  0  0  0  2  0  0  0  0  0  0
  193.8110  175.1310  136.4020 C   0  0  0  0  0  2  0  0  0  0  0  0
  194.8310  174.9680  137.5110 C   0  0  0  0  0  2  0  0  0  0  0  0
  195.6800  173.7420  137.2190 C   0  0  2  0  0  3  0  0  0  0  0  0
  196.9630  174.1480  136.8430 O   0  0  0  0  0  0  0  0  0  0  0  0
  197.5800  174.5570  138.0270 C   0  0  0  0  0  2  0  0  0  0  0  0
  199.5210  174.7710  139.0540 C   0  0  0  0  0  1  0  0  0  0  0  0
  198.8530  173.9970  138.1050 O   0  0  0  0  0  0  0  0  0  0  0  0
  195.0970  172.9720  136.1730 O   0  0  0  0  0  0  0  0  0  0  0  0
  194.6490  169.4160  135.1800 C   0  0  0  0  0  3  0  0  0  0  0  0
  194.8780  168.9140  138.9200 C   0  0  0  0  0  1  0  0  0  0  0  0
  194.8590  169.5700  137.5890 C   0  0  0  0  0  0  0  0  0  0  0  0
  194.7940  170.8010  135.0820 C   0  0  0  0  0  3  0  0  0  0  0  0
  195.0090  170.9560  137.4900 C   0  0  0  0  0  3  0  0  0  0  0  0
  194.6760  168.8010  136.4340 C   0  0  0  0  0  3  0  0  0  0  0  0
  194.9710  171.5810  136.2390 C   0  0  0  0  0  0  0  0  0  0  0  0
  189.8570  174.1930  136.3970 C   0  0  2  0  0  3  0  0  0  0  0  0
  191.2760  172.4140  135.4460 C   0  0  0  0  0  2  0  0  0  0  0  0
  190.6750  173.5880  135.2800 C   0  0  0  0  0  3  0  0  0  0  0  0
  188.3500  174.0390  136.1120 C   0  0  1  0  0  3  0  0  0  0  0  0
  187.1490  174.7010  134.3580 C   0  0  0  0  0  1  0  0  0  0  0  0
  188.0960  173.7540  134.7610 O   0  0  0  0  0  0  0  0  0  0  0  0
  187.6860  173.0130  137.0250 C   0  0  0  0  0  2  0  0  0  0  0  0
  186.7880  172.0430  136.2670 C   0  0  0  0  0  2  0  0  0  0  0  0
  183.8590  173.9410  137.5450 C   0  0  0  0  0  2  0  0  0  0  0  0
  185.4090  172.2310  136.6760 N   0  0  0  0  0  0  0  0  0  0  0  0
  184.4030  171.3630  136.1450 C   0  0  0  0  0  3  0  0  0  0  0  0
  182.8350  173.2540  135.4850 C   0  0  2  0  0  3  0  0  0  0  0  0
  182.2660  170.7560  135.1870 C   0  0  0  0  0  2  0  0  0  0  0  0
  180.4450  172.4690  135.1700 C   0  0  0  0  0  2  0  0  0  0  0  0
  185.1310  173.1380  137.7870 C   0  0  0  0  0  2  0  0  0  0  0  0
  181.3450  173.5290  135.8040 C   0  0  2  0  0  3  0  0  0  0  0  0
  180.8440  171.0730  135.6390 C   0  0  0  0  0  2  0  0  0  0  0  0
  183.2110  171.7890  135.7040 C   0  0  0  0  0  0  0  0  0  0  0  0
  183.7240  174.2340  136.1220 N   0  0  0  0  0  2  0  0  0  0  0  0
  180.7530  175.8740  136.4970 C   0  0  0  0  0  1  0  0  0  0  0  0
  181.7210  175.4380  134.3550 O   0  0  0  0  0  1  0  0  0  0  0  0
  180.8740  174.9110  135.3350 C   0  0  1  0  0  3  0  0  0  0  0  0
  1 12  1  1  0  0  0
  2 22  1  6  0  0  0
  2  8  1  0  0  0  0
  3  1  1  0  0  0  0
  5  1  1  0  0  0  0
  6  4  1  0  0  0  0
  6  2  1  0  0  0  0
  7  5  1  0  0  0  0
  8  3  1  1  0  0  0
  9  4  1  6  0  0  0
  9 10  1  0  0  0  0
  9  8  1  0  0  0  0
 10 25  1  6  0  0  0
 10  7  1  0  0  0  0
 12 14  2  0  0  0  0
 12 15  1  0  0  0  0
 13 17  1  0  0  0  0
 13 11  2  0  0  0  0
 14 13  1  0  0  0  0
 15 16  2  0  0  0  0
 16 11  1  0  0  0  0
 18 21  1  0  0  0  0
 18 17  1  0  0  0  0
 19 21  1  0  0  0  0
 19 20  1  0  0  0  0
 21 20  1  0  0  0  0
 22 23  2  0  0  0  0
 24 22  1  0  0  0  0
 26 25  1  0  0  0  0
 26 27  1  0  0  0  0
 28 27  1  6  0  0  0
 29 28  1  0  0  0  0
 29 30  1  0  0  0  0
 30 32  1  0  0  0  0
 32 31  1  0  0  0  0
 33 40  1  0  0  0  0
 33 28  1  0  0  0  0
 34 39  1  0  0  0  0
 36 35  1  0  0  0  0
 37 34  2  0  0  0  0
 37 40  1  0  0  0  0
 38 36  1  0  0  0  0
 39 36  2  0  0  0  0
 40 38  2  0  0  0  0
 41 43  1  6  0  0  0
 41  4  1  0  0  0  0
 43 42  2  0  0  0  0
 44 41  1  0  0  0  0
 44 47  1  1  0  0  0
 45 46  1  0  0  0  0
 46 44  1  0  0  0  0
 48 50  1  0  0  0  0
 48 47  1  0  0  0  0
 49 55  1  0  0  0  0
 50 55  1  0  0  0  0
 51 50  1  0  0  0  0
 52 58  1  1  0  0  0
 52 56  1  0  0  0  0
 52 59  1  0  0  0  0
 53 57  1  0  0  0  0
 53 58  1  0  0  0  0
 54 57  1  0  0  0  0
 54 56  1  0  0  0  0
 56 62  1  6  0  0  0
 58 51  2  0  0  0  0
 59 49  1  0  0  0  0
 61 62  1  0  0  0  0
 62 60  1  1  0  0  0
M  END
>  <MODEL>
3

>  <REMARK>
 VINA RESULT:      -6.0      1.584      2.386
  Name = 
  22 active torsions:
  status: ('A' for Active; 'I' for Inactive)
    1  A    between atoms: O_1  and  C_17
    2  A    between atoms: O_1  and  C_61
    3  A    between atoms: C_4  and  C_5
    4  A    between atoms: N_8  and  C_18
    5  A    between atoms: C_9  and  C_30
    6  A    between atoms: C_10  and  C_11
    7  A    between atoms: C_16  and  C_59
    8  A    between atoms: C_16  and  C_62
    9  A    between atoms: C_17  and  O_36
   10  A    between atoms: C_17  and  C_62
   11  A    between atoms: C_18  and  C_54
   12  A    between atoms: N_19  and  C_57
   13  A    between atoms: N_21  and  C_30
   14  A    between atoms: N_21  and  C_39
   15  A    between atoms: C_35  and  O_36
   16  A    between atoms: C_35  and  O_42
   17  A    between atoms: C_41  and  C_54
   18  A    between atoms: C_41  and  O_56
   19  A    between atoms: C_41  and  C_57
   20  A    between atoms: C_43  and  C_51
   21  A    between atoms: C_55  and  C_59
   22  A    between atoms: C_57  and  C_60
                            x       y       z     vdW  Elec       q    Type
                         _______ _______ _______ _____ _____    ______ ____

>  <TORSDO>
F 22

$$$$
=
 OpenBabel10232408053D

 62 68  0  0  1  0  0  0  0  0999 V2000
  184.7840  178.8520  143.0830 C   0  0  2  0  0  3  0  0  0  0  0  0
  181.5450  177.8810  142.0260 C   0  0  1  0  0  3  0  0  0  0  0  0
  183.7990  177.8750  142.8600 O   0  0  0  0  0  0  0  0  0  0  0  0
  182.1590  177.7760  139.6850 N   0  0  0  0  0  0  0  0  0  0  0  0
  185.7650  178.9600  141.9020 C   0  0  0  0  0  2  0  0  0  0  0  0
  181.0210  177.9180  140.6030 C   0  0  0  0  0  2  0  0  0  0  0  0
  185.1340  179.6790  140.8010 N   0  0  0  0  0  2  0  0  0  0  0  0
  182.9400  178.4100  141.8900 C   0  0  1  0  0  3  0  0  0  0  0  0
  183.3580  177.9120  140.5260 C   0  0  2  0  0  3  0  0  0  0  0  0
  184.5090  178.7280  139.8770 C   0  0  1  0  0  3  0  0  0  0  0  0
  186.7640  178.0550  146.7740 N   0  0  0  0  0  0  0  0  0  0  0  0
  185.4970  178.5760  144.3700 C   0  0  0  0  0  0  0  0  0  0  0  0
  187.4280  177.8170  145.6100 C   0  0  0  0  0  0  0  0  0  0  0  0
  186.8010  178.0610  144.3870 C   0  0  0  0  0  3  0  0  0  0  0  0
  184.8360  178.8090  145.5770 C   0  0  0  0  0  3  0  0  0  0  0  0
  185.4910  178.5390  146.7810 C   0  0  0  0  0  3  0  0  0  0  0  0
  188.8290  177.3140  145.6390 C   0  0  0  0  0  2  0  0  0  0  0  0
  189.7600  178.3870  145.3180 N   0  0  0  0  0  2  0  0  0  0  0  0
  191.5700  177.3570  144.0920 C   0  0  0  0  0  2  0  0  0  0  0  0
  191.5940  178.8430  143.8030 C   0  0  0  0  0  2  0  0  0  0  0  0
  190.2700  178.1280  143.9840 C   0  0  0  0  0  3  0  0  0  0  0  0
  180.7180  178.7330  142.9400 C   0  0  0  0  0  0  0  0  0  0  0  0
  180.4800  179.9000  142.6670 O   0  0  0  0  0  0  0  0  0  0  0  0
  180.1830  178.1480  144.2040 C   0  0  0  0  0  1  0  0  0  0  0  0
  184.0940  179.4580  138.6060 C   0  0  0  0  0  2  0  0  0  0  0  0
  184.6420  178.7180  137.4000 C   0  0  0  0  0  2  0  0  0  0  0  0
  186.1050  179.0600  137.1970 C   0  0  0  0  0  2  0  0  0  0  0  0
  186.9540  177.9700  137.8270 C   0  0  2  0  0  3  0  0  0  0  0  0
  187.7080  178.5160  138.8700 O   0  0  0  0  0  0  0  0  0  0  0  0
  188.4980  177.4650  139.3400 C   0  0  0  0  0  2  0  0  0  0  0  0
  190.3330  176.9830  140.4680 C   0  0  0  0  0  1  0  0  0  0  0  0
  189.7820  177.9340  139.6100 O   0  0  0  0  0  0  0  0  0  0  0  0
  187.8270  177.3980  136.8580 O   0  0  0  0  0  0  0  0  0  0  0  0
  187.1560  173.7520  136.5430 C   0  0  0  0  0  3  0  0  0  0  0  0
  190.9330  173.6080  136.6270 C   0  0  0  0  0  1  0  0  0  0  0  0
  189.5470  174.1380  136.6230 C   0  0  0  0  0  0  0  0  0  0  0  0
  186.9350  175.1270  136.6430 C   0  0  0  0  0  3  0  0  0  0  0  0
  189.3250  175.5140  136.7180 C   0  0  0  0  0  3  0  0  0  0  0  0
  188.4630  173.2580  136.5390 C   0  0  0  0  0  3  0  0  0  0  0  0
  188.0190  176.0180  136.7360 C   0  0  0  0  0  0  0  0  0  0  0  0
  182.0670  176.4260  139.0960 C   0  0  2  0  0  3  0  0  0  0  0  0
  183.5380  174.6480  138.2240 C   0  0  0  0  0  2  0  0  0  0  0  0
  183.3760  175.9330  138.5270 C   0  0  0  0  0  3  0  0  0  0  0  0
  180.9630  176.4040  138.0210 C   0  0  1  0  0  3  0  0  0  0  0  0
  180.3320  178.3010  137.0430 C   0  0  0  0  0  1  0  0  0  0  0  0
  181.2580  177.2570  136.9470 O   0  0  0  0  0  0  0  0  0  0  0  0
  180.6520  174.9920  137.5320 C   0  0  0  0  0  2  0  0  0  0  0  0
  180.0480  174.9720  136.1340 C   0  0  0  0  0  2  0  0  0  0  0  0
  182.8600  173.2420  134.4260 C   0  0  0  0  0  2  0  0  0  0  0  0
  180.6760  173.9300  135.3450 N   0  0  0  0  0  0  0  0  0  0  0  0
  180.0710  172.6340  135.2980 C   0  0  0  0  0  3  0  0  0  0  0  0
  182.2280  171.3880  135.8140 C   0  0  2  0  0  3  0  0  0  0  0  0
  179.9820  170.2160  135.3270 C   0  0  0  0  0  2  0  0  0  0  0  0
  182.1280  168.9480  135.1300 C   0  0  0  0  0  2  0  0  0  0  0  0
  181.7650  174.3010  134.4430 C   0  0  0  0  0  2  0  0  0  0  0  0
  182.9590  170.2300  135.0900 C   0  0  2  0  0  3  0  0  0  0  0  0
  180.7510  169.1800  134.5140 C   0  0  0  0  0  2  0  0  0  0  0  0
  180.7600  171.4890  135.4040 C   0  0  0  0  0  0  0  0  0  0  0  0
  182.9870  172.6440  135.7500 N   0  0  0  0  0  2  0  0  0  0  0  0
  184.9610  168.7070  135.0360 C   0  0  0  0  0  1  0  0  0  0  0  0
  185.2020  171.0280  135.5580 O   0  0  0  0  0  1  0  0  0  0  0  0
  184.3430  169.9310  135.6790 C   0  0  1  0  0  3  0  0  0  0  0  0
  1 12  1  1  0  0  0
  2 22  1  1  0  0  0
  3  1  1  0  0  0  0
  4  6  1  0  0  0  0
  5  1  1  0  0  0  0
  6  2  1  0  0  0  0
  7  5  1  0  0  0  0
  8  2  1  0  0  0  0
  8  3  1  1  0  0  0
  9  4  1  6  0  0  0
  9  8  1  0  0  0  0
 10 25  1  6  0  0  0
 10  9  1  0  0  0  0
 10  7  1  0  0  0  0
 11 16  1  0  0  0  0
 12 14  2  0  0  0  0
 12 15  1  0  0  0  0
 13 17  1  0  0  0  0
 13 11  2  0  0  0  0
 14 13  1  0  0  0  0
 15 16  2  0  0  0  0
 18 17  1  0  0  0  0
 20 21  1  0  0  0  0
 20 19  1  0  0  0  0
 21 19  1  0  0  0  0
 21 18  1  0  0  0  0
 22 24  1  0  0  0  0
 23 22  2  0  0  0  0
 26 25  1  0  0  0  0
 27 26  1  0  0  0  0
 28 27  1  6  0  0  0
 28 29  1  0  0  0  0
 29 30  1  0  0  0  0
 30 32  1  0  0  0  0
 32 31  1  0  0  0  0
 33 28  1  0  0  0  0
 34 37  1  0  0  0  0
 36 35  1  0  0  0  0
 36 38  2  0  0  0  0
 37 40  2  0  0  0  0
 38 40  1  0  0  0  0
 39 34  2  0  0  0  0
 39 36  1  0  0  0  0
 40 33  1  0  0  0  0
 41 43  1  6  0  0  0
 41  4  1  0  0  0  0
 42 43  2  0  0  0  0
 44 47  1  6  0  0  0
 44 41  1  0  0  0  0
 46 45  1  0  0  0  0
 46 44  1  0  0  0  0
 48 47  1  0  0  0  0
 49 55  1  0  0  0  0
 49 59  1  0  0  0  0
 50 48  1  0  0  0  0
 51 50  1  0  0  0  0
 51 58  2  0  0  0  0
 52 58  1  6  0  0  0
 53 58  1  0  0  0  0
 55 50  1  0  0  0  0
 56 54  1  0  0  0  0
 56 62  1  1  0  0  0
 56 52  1  0  0  0  0
 57 54  1  0  0  0  0
 57 53  1  0  0  0  0
 59 52  1  0  0  0  0
 61 62  1  0  0  0  0
 62 60  1  6  0  0  0
M  END
>  <MODEL>
4

>  <REMARK>
 VINA RESULT:      -5.8      3.811      7.830
  Name = 
  22 active torsions:
  status: ('A' for Active; 'I' for Inactive)
    1  A    between atoms: O_1  and  C_17
    2  A    between atoms: O_1  and  C_61
    3  A    between atoms: C_4  and  C_5
    4  A    between atoms: N_8  and  C_18
    5  A    between atoms: C_9  and  C_30
    6  A    between atoms: C_10  and  C_11
    7  A    between atoms: C_16  and  C_59
    8  A    between atoms: C_16  and  C_62
    9  A    between atoms: C_17  and  O_36
   10  A    between atoms: C_17  and  C_62
   11  A    between atoms: C_18  and  C_54
   12  A    between atoms: N_19  and  C_57
   13  A    between atoms: N_21  and  C_30
   14  A    between atoms: N_21  and  C_39
   15  A    between atoms: C_35  and  O_36
   16  A    between atoms: C_35  and  O_42
   17  A    between atoms: C_41  and  C_54
   18  A    between atoms: C_41  and  O_56
   19  A    between atoms: C_41  and  C_57
   20  A    between atoms: C_43  and  C_51
   21  A    between atoms: C_55  and  C_59
   22  A    between atoms: C_57  and  C_60
                            x       y       z     vdW  Elec       q    Type
                         _______ _______ _______ _____ _____    ______ ____

>  <TORSDO>
F 22

$$$$
=
 OpenBabel10232408053D

 62 68  0  0  1  0  0  0  0  0999 V2000
  185.0140  178.8500  142.8960 C   0  0  2  0  0  3  0  0  0  0  0  0
  181.7920  178.0160  141.6810 C   0  0  1  0  0  3  0  0  0  0  0  0
  183.9730  177.9280  142.6850 O   0  0  0  0  0  0  0  0  0  0  0  0
  182.5600  177.6470  139.4130 N   0  0  0  0  0  0  0  0  0  0  0  0
  186.0810  178.7750  141.7910 C   0  0  0  0  0  2  0  0  0  0  0  0
  181.3740  177.9560  140.2240 C   0  0  0  0  0  2  0  0  0  0  0  0
  185.5880  179.4300  140.5840 N   0  0  0  0  0  2  0  0  0  0  0  0
  183.2300  178.4290  141.6070 C   0  0  1  0  0  3  0  0  0  0  0  0
  183.7040  177.7760  140.3300 C   0  0  2  0  0  3  0  0  0  0  0  0
  184.9580  178.4430  139.7030 C   0  0  1  0  0  3  0  0  0  0  0  0
  186.6580  178.2640  146.7870 N   0  0  0  0  0  0  0  0  0  0  0  0
  185.6100  178.6460  144.2540 C   0  0  0  0  0  0  0  0  0  0  0  0
  187.4010  177.9130  145.7020 C   0  0  0  0  0  0  0  0  0  0  0  0
  186.8850  178.0850  144.4160 C   0  0  0  0  0  3  0  0  0  0  0  0
  184.8650  178.9960  145.3830 C   0  0  0  0  0  3  0  0  0  0  0  0
  185.4110  178.7950  146.6530 C   0  0  0  0  0  3  0  0  0  0  0  0
  188.7720  177.3610  145.8830 C   0  0  0  0  0  2  0  0  0  0  0  0
  189.3750  177.8890  147.0980 N   0  0  0  0  0  2  0  0  0  0  0  0
  191.1370  176.9650  145.7280 C   0  0  0  0  0  2  0  0  0  0  0  0
  191.3070  176.4280  147.1340 C   0  0  0  0  0  2  0  0  0  0  0  0
  190.8150  177.8450  146.9180 C   0  0  0  0  0  3  0  0  0  0  0  0
  180.9710  179.0070  142.4490 C   0  0  0  0  0  0  0  0  0  0  0  0
  180.4470  179.9580  141.8860 O   0  0  0  0  0  0  0  0  0  0  0  0
  180.7960  178.8340  143.9190 C   0  0  0  0  0  1  0  0  0  0  0  0
  184.6930  179.0770  138.3430 C   0  0  0  0  0  2  0  0  0  0  0  0
  185.4820  178.3340  137.2800 C   0  0  0  0  0  2  0  0  0  0  0  0
  186.7920  179.0460  137.0090 C   0  0  0  0  0  2  0  0  0  0  0  0
  187.9330  178.0620  137.2040 C   0  0  2  0  0  3  0  0  0  0  0  0
  187.4690  176.9530  137.9170 O   0  0  0  0  0  0  0  0  0  0  0  0
  187.8100  175.8470  137.1370 C   0  0  0  0  0  2  0  0  0  0  0  0
  188.3300  175.0790  135.1340 C   0  0  0  0  0  1  0  0  0  0  0  0
  188.0140  176.2520  135.8190 O   0  0  0  0  0  0  0  0  0  0  0  0
  189.0010  178.6750  137.9170 O   0  0  0  0  0  0  0  0  0  0  0  0
  189.4740  177.1730  141.2870 C   0  0  0  0  0  3  0  0  0  0  0  0
  193.0710  177.0620  140.1300 C   0  0  0  0  0  1  0  0  0  0  0  0
  191.6040  177.2890  140.1400 C   0  0  0  0  0  0  0  0  0  0  0  0
  188.8480  177.7390  140.1750 C   0  0  0  0  0  3  0  0  0  0  0  0
  190.9770  177.8520  139.0250 C   0  0  0  0  0  3  0  0  0  0  0  0
  190.8530  176.9530  141.2710 C   0  0  0  0  0  3  0  0  0  0  0  0
  189.5970  178.0870  139.0370 C   0  0  0  0  0  0  0  0  0  0  0  0
  182.4050  176.2570  138.9420 C   0  0  2  0  0  3  0  0  0  0  0  0
  183.7150  174.4240  137.9380 C   0  0  0  0  0  2  0  0  0  0  0  0
  183.7060  175.6250  138.5080 C   0  0  0  0  0  3  0  0  0  0  0  0
  181.3700  176.2100  137.8010 C   0  0  1  0  0  3  0  0  0  0  0  0
  181.0080  177.9320  136.4380 C   0  0  0  0  0  1  0  0  0  0  0  0
  181.8440  176.8290  136.6340 O   0  0  0  0  0  0  0  0  0  0  0  0
  180.8830  174.7930  137.5130 C   0  0  0  0  0  2  0  0  0  0  0  0
  180.1080  174.6910  136.2050 C   0  0  0  0  0  2  0  0  0  0  0  0
  182.8470  173.0010  134.3460 C   0  0  0  0  0  2  0  0  0  0  0  0
  180.7020  173.6710  135.3630 N   0  0  0  0  0  0  0  0  0  0  0  0
  180.0880  172.3790  135.2980 C   0  0  0  0  0  3  0  0  0  0  0  0
  182.2550  171.1080  135.6980 C   0  0  2  0  0  3  0  0  0  0  0  0
  179.9870  169.9620  135.2570 C   0  0  0  0  0  2  0  0  0  0  0  0
  182.1170  168.6910  134.9440 C   0  0  0  0  0  2  0  0  0  0  0  0
  181.7590  174.0640  134.4350 C   0  0  0  0  0  2  0  0  0  0  0  0
  182.9530  169.9700  134.9140 C   0  0  2  0  0  3  0  0  0  0  0  0
  180.7200  168.9480  134.3850 C   0  0  0  0  0  2  0  0  0  0  0  0
  180.7730  171.2280  135.3440 C   0  0  0  0  0  0  0  0  0  0  0  0
  183.0180  172.3620  135.6460 N   0  0  0  0  0  2  0  0  0  0  0  0
  184.4990  168.1710  135.7550 C   0  0  0  0  0  1  0  0  0  0  0  0
  185.3500  170.0500  134.5470 O   0  0  0  0  0  1  0  0  0  0  0  0
  184.3560  169.6460  135.4440 C   0  0  1  0  0  3  0  0  0  0  0  0
  1 12  1  1  0  0  0
  2 22  1  1  0  0  0
  3  1  1  0  0  0  0
  4  6  1  0  0  0  0
  5  1  1  0  0  0  0
  6  2  1  0  0  0  0
  7  5  1  0  0  0  0
  8  2  1  0  0  0  0
  8  3  1  1  0  0  0
  9  4  1  6  0  0  0
  9  8  1  0  0  0  0
 10 25  1  6  0  0  0
 10  9  1  0  0  0  0
 10  7  1  0  0  0  0
 12 14  2  0  0  0  0
 12 15  1  0  0  0  0
 13 17  1  0  0  0  0
 13 11  2  0  0  0  0
 14 13  1  0  0  0  0
 15 16  2  0  0  0  0
 16 11  1  0  0  0  0
 17 18  1  0  0  0  0
 19 21  1  0  0  0  0
 19 20  1  0  0  0  0
 21 18  1  0  0  0  0
 21 20  1  0  0  0  0
 22 24  1  0  0  0  0
 23 22  2  0  0  0  0
 26 25  1  0  0  0  0
 27 26  1  0  0  0  0
 28 27  1  1  0  0  0
 28 29  1  0  0  0  0
 28 33  1  0  0  0  0
 30 29  1  0  0  0  0
 31 32  1  0  0  0  0
 32 30  1  0  0  0  0
 33 40  1  0  0  0  0
 35 36  1  0  0  0  0
 36 39  2  0  0  0  0
 37 34  2  0  0  0  0
 38 40  2  0  0  0  0
 38 36  1  0  0  0  0
 39 34  1  0  0  0  0
 40 37  1  0  0  0  0
 41 43  1  6  0  0  0
 41  4  1  0  0  0  0
 42 43  2  0  0  0  0
 44 47  1  6  0  0  0
 44 41  1  0  0  0  0
 45 46  1  0  0  0  0
 46 44  1  0  0  0  0
 48 47  1  0  0  0  0
 49 55  1  0  0  0  0
 49 59  1  0  0  0  0
 50 48  1  0  0  0  0
 51 58  2  0  0  0  0
 51 50  1  0  0  0  0
 52 58  1  6  0  0  0
 53 58  1  0  0  0  0
 55 50  1  0  0  0  0
 56 54  1  0  0  0  0
 56 62  1  1  0  0  0
 56 52  1  0  0  0  0
 57 54  1  0  0  0  0
 57 53  1  0  0  0  0
 59 52  1  0  0  0  0
 61 62  1  0  0  0  0
 62 60  1  6  0  0  0
M  END
>  <MODEL>
5

>  <REMARK>
 VINA RESULT:      -5.7      4.334      7.899
  Name = 
  22 active torsions:
  status: ('A' for Active; 'I' for Inactive)
    1  A    between atoms: O_1  and  C_17
    2  A    between atoms: O_1  and  C_61
    3  A    between atoms: C_4  and  C_5
    4  A    between atoms: N_8  and  C_18
    5  A    between atoms: C_9  and  C_30
    6  A    between atoms: C_10  and  C_11
    7  A    between atoms: C_16  and  C_59
    8  A    between atoms: C_16  and  C_62
    9  A    between atoms: C_17  and  O_36
   10  A    between atoms: C_17  and  C_62
   11  A    between atoms: C_18  and  C_54
   12  A    between atoms: N_19  and  C_57
   13  A    between atoms: N_21  and  C_30
   14  A    between atoms: N_21  and  C_39
   15  A    between atoms: C_35  and  O_36
   16  A    between atoms: C_35  and  O_42
   17  A    between atoms: C_41  and  C_54
   18  A    between atoms: C_41  and  O_56
   19  A    between atoms: C_41  and  C_57
   20  A    between atoms: C_43  and  C_51
   21  A    between atoms: C_55  and  C_59
   22  A    between atoms: C_57  and  C_60
                            x       y       z     vdW  Elec       q    Type
                         _______ _______ _______ _____ _____    ______ ____

>  <TORSDO>
F 22

$$$$
=
 OpenBabel10232408053D

 62 68  0  0  1  0  0  0  0  0999 V2000
  185.9000  178.2900  138.7610 C   0  0  2  0  0  3  0  0  0  0  0  0
  187.0650  177.1050  135.6320 C   0  0  1  0  0  3  0  0  0  0  0  0
  185.9630  177.3070  137.7580 O   0  0  0  0  0  0  0  0  0  0  0  0
  189.1670  176.3040  136.5300 N   0  0  0  0  0  0  0  0  0  0  0  0
  186.9140  178.0280  139.8870 C   0  0  0  0  0  2  0  0  0  0  0  0
  188.4950  176.7300  135.2950 C   0  0  0  0  0  2  0  0  0  0  0  0
  188.2530  178.4010  139.4430 N   0  0  0  0  0  2  0  0  0  0  0  0
  187.1550  177.5470  137.0610 C   0  0  1  0  0  3  0  0  0  0  0  0
  188.2450  176.6620  137.6190 C   0  0  2  0  0  3  0  0  0  0  0  0
  188.9380  177.2310  138.8860 C   0  0  1  0  0  3  0  0  0  0  0  0
  181.9410  178.5870  140.3180 N   0  0  0  0  0  0  0  0  0  0  0  0
  184.5030  178.3930  139.2880 C   0  0  0  0  0  0  0  0  0  0  0  0
  182.1850  179.0410  139.0590 C   0  0  0  0  0  0  0  0  0  0  0  0
  183.4740  178.9650  138.5260 C   0  0  0  0  0  3  0  0  0  0  0  0
  184.2280  177.9370  140.5790 C   0  0  0  0  0  3  0  0  0  0  0  0
  182.9290  178.0440  141.0830 C   0  0  0  0  0  3  0  0  0  0  0  0
  181.0760  179.6040  138.2400 C   0  0  0  0  0  2  0  0  0  0  0  0
  180.2450  178.5330  137.7070 N   0  0  0  0  0  2  0  0  0  0  0  0
  181.3110  178.7470  135.5490 C   0  0  0  0  0  2  0  0  0  0  0  0
  180.7440  180.0990  135.9280 C   0  0  0  0  0  2  0  0  0  0  0  0
  180.0030  178.8340  136.3080 C   0  0  0  0  0  3  0  0  0  0  0  0
  186.5590  178.2020  134.7450 C   0  0  0  0  0  0  0  0  0  0  0  0
  187.3070  179.0840  134.3480 O   0  0  0  0  0  0  0  0  0  0  0  0
  185.1220  178.2210  134.3470 C   0  0  0  0  0  1  0  0  0  0  0  0
  190.4110  177.5610  138.6780 C   0  0  0  0  0  2  0  0  0  0  0  0
  191.1230  177.5500  140.0180 C   0  0  0  0  0  2  0  0  0  0  0  0
  190.4420  176.5810  140.9640 C   0  0  0  0  0  2  0  0  0  0  0  0
  190.3370  177.2270  142.3350 C   0  0  2  0  0  3  0  0  0  0  0  0
  191.6040  177.2700  142.9230 O   0  0  0  0  0  0  0  0  0  0  0  0
  191.4960  176.5020  144.0840 C   0  0  0  0  0  2  0  0  0  0  0  0
  191.6440  176.4370  146.2850 C   0  0  0  0  0  1  0  0  0  0  0  0
  191.7210  177.3070  145.1980 O   0  0  0  0  0  0  0  0  0  0  0  0
  189.4510  176.4850  143.1670 O   0  0  0  0  0  0  0  0  0  0  0  0
  186.0740  177.9900  143.5730 C   0  0  0  0  0  3  0  0  0  0  0  0
  187.1600  178.1010  147.1920 C   0  0  0  0  0  1  0  0  0  0  0  0
  187.1700  177.8520  145.7290 C   0  0  0  0  0  0  0  0  0  0  0  0
  187.1920  177.4100  142.9710 C   0  0  0  0  0  3  0  0  0  0  0  0
  188.2870  177.2670  145.1270 C   0  0  0  0  0  3  0  0  0  0  0  0
  186.0650  178.2160  144.9510 C   0  0  0  0  0  3  0  0  0  0  0  0
  188.3090  177.0480  143.7450 C   0  0  0  0  0  0  0  0  0  0  0  0
  189.3460  174.8430  136.4360 C   0  0  2  0  0  3  0  0  0  0  0  0
  188.1060  172.9280  137.3740 C   0  0  0  0  0  2  0  0  0  0  0  0
  188.7170  174.0900  137.5850 C   0  0  0  0  0  3  0  0  0  0  0  0
  190.8480  174.5110  136.3270 C   0  0  1  0  0  3  0  0  0  0  0  0
  191.4180  172.5850  135.3670 C   0  0  0  0  0  1  0  0  0  0  0  0
  191.1700  173.9330  135.0890 O   0  0  0  0  0  0  0  0  0  0  0  0
  191.7350  175.7170  136.6190 C   0  0  0  0  0  2  0  0  0  0  0  0
  192.9780  175.7600  135.7400 C   0  0  0  0  0  2  0  0  0  0  0  0
  194.7330  173.2840  137.8870 C   0  0  0  0  0  2  0  0  0  0  0  0
  194.1050  175.1940  136.4570 N   0  0  0  0  0  0  0  0  0  0  0  0
  195.4320  175.5100  136.0260 C   0  0  0  0  0  3  0  0  0  0  0  0
  196.2190  173.0910  136.0120 C   0  0  2  0  0  3  0  0  0  0  0  0
  197.7480  175.0940  135.4630 C   0  0  0  0  0  2  0  0  0  0  0  0
  198.7460  172.8910  136.0970 C   0  0  0  0  0  2  0  0  0  0  0  0
  193.8510  174.5170  137.7270 C   0  0  0  0  0  2  0  0  0  0  0  0
  197.4260  172.3860  136.6790 C   0  0  2  0  0  3  0  0  0  0  0  0
  198.8580  174.4050  136.2510 C   0  0  0  0  0  2  0  0  0  0  0  0
  196.4140  174.6040  135.9190 C   0  0  0  0  0  0  0  0  0  0  0  0
  194.9400  172.6550  136.5880 N   0  0  0  0  0  2  0  0  0  0  0  0
  198.3500  170.1920  137.4960 C   0  0  0  0  0  1  0  0  0  0  0  0
  196.0920  170.3600  136.7280 O   0  0  0  0  0  1  0  0  0  0  0  0
  197.3840  170.8590  136.5380 C   0  0  1  0  0  3  0  0  0  0  0  0
  1 12  1  1  0  0  0
  1  5  1  0  0  0  0
  2 22  1  6  0  0  0
  2  8  1  0  0  0  0
  3  1  1  0  0  0  0
  6  2  1  0  0  0  0
  6  4  1  0  0  0  0
  7  5  1  0  0  0  0
  8  9  1  0  0  0  0
  8  3  1  1  0  0  0
  9  4  1  6  0  0  0
  9 10  1  0  0  0  0
 10 25  1  6  0  0  0
 10  7  1  0  0  0  0
 11 16  1  0  0  0  0
 12 15  1  0  0  0  0
 13 11  2  0  0  0  0
 14 13  1  0  0  0  0
 14 12  2  0  0  0  0
 15 16  2  0  0  0  0
 17 13  1  0  0  0  0
 18 17  1  0  0  0  0
 19 20  1  0  0  0  0
 19 21  1  0  0  0  0
 20 21  1  0  0  0  0
 21 18  1  0  0  0  0
 23 22  2  0  0  0  0
 24 22  1  0  0  0  0
 25 26  1  0  0  0  0
 26 27  1  0  0  0  0
 28 27  1  6  0  0  0
 28 29  1  0  0  0  0
 28 33  1  0  0  0  0
 29 30  1  0  0  0  0
 30 32  1  0  0  0  0
 32 31  1  0  0  0  0
 33 40  1  0  0  0  0
 34 39  1  0  0  0  0
 36 35  1  0  0  0  0
 37 34  2  0  0  0  0
 37 40  1  0  0  0  0
 38 36  1  0  0  0  0
 39 36  2  0  0  0  0
 40 38  2  0  0  0  0
 41  4  1  0  0  0  0
 41 43  1  1  0  0  0
 42 43  2  0  0  0  0
 44 41  1  0  0  0  0
 44 47  1  6  0  0  0
 46 45  1  0  0  0  0
 46 44  1  0  0  0  0
 48 50  1  0  0  0  0
 48 47  1  0  0  0  0
 50 55  1  0  0  0  0
 51 50  1  0  0  0  0
 52 58  1  1  0  0  0
 52 59  1  0  0  0  0
 52 56  1  0  0  0  0
 53 58  1  0  0  0  0
 53 57  1  0  0  0  0
 54 57  1  0  0  0  0
 54 56  1  0  0  0  0
 55 49  1  0  0  0  0
 56 62  1  6  0  0  0
 58 51  2  0  0  0  0
 59 49  1  0  0  0  0
 62 61  1  0  0  0  0
 62 60  1  1  0  0  0
M  END
>  <MODEL>
6

>  <REMARK>
 VINA RESULT:      -5.0      2.669      9.436
  Name = 
  22 active torsions:
  status: ('A' for Active; 'I' for Inactive)
    1  A    between atoms: O_1  and  C_17
    2  A    between atoms: O_1  and  C_61
    3  A    between atoms: C_4  and  C_5
    4  A    between atoms: N_8  and  C_18
    5  A    between atoms: C_9  and  C_30
    6  A    between atoms: C_10  and  C_11
    7  A    between atoms: C_16  and  C_59
    8  A    between atoms: C_16  and  C_62
    9  A    between atoms: C_17  and  O_36
   10  A    between atoms: C_17  and  C_62
   11  A    between atoms: C_18  and  C_54
   12  A    between atoms: N_19  and  C_57
   13  A    between atoms: N_21  and  C_30
   14  A    between atoms: N_21  and  C_39
   15  A    between atoms: C_35  and  O_36
   16  A    between atoms: C_35  and  O_42
   17  A    between atoms: C_41  and  C_54
   18  A    between atoms: C_41  and  O_56
   19  A    between atoms: C_41  and  C_57
   20  A    between atoms: C_43  and  C_51
   21  A    between atoms: C_55  and  C_59
   22  A    between atoms: C_57  and  C_60
                            x       y       z     vdW  Elec       q    Type
                         _______ _______ _______ _____ _____    ______ ____

>  <TORSDO>
F 22

$$$$
=
 OpenBabel10232408053D

 62 68  0  0  1  0  0  0  0  0999 V2000
  189.7940  177.4500  141.3880 C   0  0  2  0  0  3  0  0  0  0  0  0
  188.2830  177.1050  138.2020 C   0  0  1  0  0  3  0  0  0  0  0  0
  188.9660  176.7660  140.4810 O   0  0  0  0  0  0  0  0  0  0  0  0
  190.2190  176.0370  137.2140 N   0  0  0  0  0  0  0  0  0  0  0  0
  191.2200  176.8700  141.4120 C   0  0  0  0  0  2  0  0  0  0  0  0
  188.9990  176.7940  136.9020 C   0  0  0  0  0  2  0  0  0  0  0  0
  191.9520  177.3110  140.2300 N   0  0  0  0  0  2  0  0  0  0  0  0
  189.3960  177.1490  139.2040 C   0  0  1  0  0  3  0  0  0  0  0  0
  190.3660  176.1190  138.6760 C   0  0  2  0  0  3  0  0  0  0  0  0
  191.8270  176.3120  139.1650 C   0  0  1  0  0  3  0  0  0  0  0  0
  188.0760  177.4670  145.2910 N   0  0  0  0  0  0  0  0  0  0  0  0
  189.1740  177.4480  142.7500 C   0  0  0  0  0  0  0  0  0  0  0  0
  187.2520  177.5590  144.2120 C   0  0  0  0  0  0  0  0  0  0  0  0
  187.7870  177.5640  142.9220 C   0  0  0  0  0  3  0  0  0  0  0  0
  190.0000  177.3580  143.8730 C   0  0  0  0  0  3  0  0  0  0  0  0
  189.4270  177.3710  145.1480 C   0  0  0  0  0  3  0  0  0  0  0  0
  185.7770  177.6350  144.4030 C   0  0  0  0  0  2  0  0  0  0  0  0
  185.4220  178.8500  145.1230 N   0  0  0  0  0  2  0  0  0  0  0  0
  183.0870  178.9040  144.5020 C   0  0  0  0  0  2  0  0  0  0  0  0
  183.8970  178.6240  143.2540 C   0  0  0  0  0  2  0  0  0  0  0  0
  184.4420  179.5560  144.3170 C   0  0  0  0  0  3  0  0  0  0  0  0
  187.5520  178.4120  138.1300 C   0  0  0  0  0  0  0  0  0  0  0  0
  187.8020  179.2220  137.2490 O   0  0  0  0  0  0  0  0  0  0  0  0
  186.5120  178.7290  139.1500 C   0  0  0  0  0  1  0  0  0  0  0  0
  192.8050  176.6440  138.0450 C   0  0  0  0  0  2  0  0  0  0  0  0
  194.1080  175.9040  138.2790 C   0  0  0  0  0  2  0  0  0  0  0  0
  193.9780  174.4620  137.8310 C   0  0  0  0  0  2  0  0  0  0  0  0
  195.0390  174.1770  136.7820 C   0  0  2  0  0  3  0  0  0  0  0  0
  195.5540  172.8930  136.9840 O   0  0  0  0  0  0  0  0  0  0  0  0
  195.0540  172.1280  135.9280 C   0  0  0  0  0  2  0  0  0  0  0  0
  195.4200  170.7320  137.5970 C   0  0  0  0  0  1  0  0  0  0  0  0
  194.7370  170.8520  136.3880 O   0  0  0  0  0  0  0  0  0  0  0  0
  196.0920  175.1310  136.8690 O   0  0  0  0  0  0  0  0  0  0  0  0
  199.4560  173.8730  135.9000 C   0  0  0  0  0  3  0  0  0  0  0  0
  200.1890  174.6580  139.5240 C   0  0  0  0  0  1  0  0  0  0  0  0
  199.4690  174.5260  138.2330 C   0  0  0  0  0  0  0  0  0  0  0  0
  198.1140  174.2500  135.8060 C   0  0  0  0  0  3  0  0  0  0  0  0
  198.1290  174.9070  138.1380 C   0  0  0  0  0  3  0  0  0  0  0  0
  200.1310  174.0060  137.1150 C   0  0  0  0  0  3  0  0  0  0  0  0
  197.4400  174.7660  136.9270 C   0  0  0  0  0  0  0  0  0  0  0  0
  189.9850  174.6490  136.7750 C   0  0  2  0  0  3  0  0  0  0  0  0
  191.3300  172.7500  135.9560 C   0  0  0  0  0  2  0  0  0  0  0  0
  191.2410  173.8090  136.7540 C   0  0  0  0  0  3  0  0  0  0  0  0
  189.3090  174.6500  135.3900 C   0  0  1  0  0  3  0  0  0  0  0  0
  190.8070  175.9550  134.3850 C   0  0  0  0  0  1  0  0  0  0  0  0
  190.2470  174.6740  134.3460 O   0  0  0  0  0  0  0  0  0  0  0  0
  188.3250  173.4970  135.2190 C   0  0  0  0  0  2  0  0  0  0  0  0
  187.4230  173.3080  136.4330 C   0  0  0  0  0  2  0  0  0  0  0  0
  183.7250  172.9640  136.2880 C   0  0  0  0  0  2  0  0  0  0  0  0
  186.0690  173.7090  136.1030 N   0  0  0  0  0  0  0  0  0  0  0  0
  185.7780  175.1000  135.9360 C   0  0  0  0  0  3  0  0  0  0  0  0
  183.7380  175.0620  137.4550 C   0  0  2  0  0  3  0  0  0  0  0  0
  184.5270  177.1580  136.1760 C   0  0  0  0  0  2  0  0  0  0  0  0
  182.1900  177.0290  137.0530 C   0  0  0  0  0  2  0  0  0  0  0  0
  185.1100  172.6740  135.7230 C   0  0  0  0  0  2  0  0  0  0  0  0
  182.2730  175.5140  137.2410 C   0  0  2  0  0  3  0  0  0  0  0  0
  183.0640  177.4750  135.8850 C   0  0  0  0  0  2  0  0  0  0  0  0
  184.6920  175.6990  136.4460 C   0  0  0  0  0  0  0  0  0  0  0  0
  183.8490  173.6040  137.5930 N   0  0  0  0  0  2  0  0  0  0  0  0
  181.7560  175.7880  139.6880 C   0  0  0  0  0  1  0  0  0  0  0  0
  180.0080  175.4040  138.1030 O   0  0  0  0  0  1  0  0  0  0  0  0
  181.3450  175.1160  138.3950 C   0  0  1  0  0  3  0  0  0  0  0  0
  1  5  1  0  0  0  0
  1 12  1  1  0  0  0
  2 22  1  6  0  0  0
  2  8  1  0  0  0  0
  3  1  1  0  0  0  0
  6  4  1  0  0  0  0
  6  2  1  0  0  0  0
  7  5  1  0  0  0  0
  8  3  1  1  0  0  0
  9  4  1  6  0  0  0
  9 10  1  0  0  0  0
  9  8  1  0  0  0  0
 10 25  1  6  0  0  0
 10  7  1  0  0  0  0
 12 14  2  0  0  0  0
 12 15  1  0  0  0  0
 13 17  1  0  0  0  0
 13 11  2  0  0  0  0
 14 13  1  0  0  0  0
 15 16  2  0  0  0  0
 16 11  1  0  0  0  0
 17 18  1  0  0  0  0
 20 21  1  0  0  0  0
 20 19  1  0  0  0  0
 21 19  1  0  0  0  0
 21 18  1  0  0  0  0
 22 24  1  0  0  0  0
 23 22  2  0  0  0  0
 25 26  1  0  0  0  0
 27 26  1  0  0  0  0
 28 33  1  0  0  0  0
 28 29  1  0  0  0  0
 28 27  1  1  0  0  0
 30 32  1  0  0  0  0
 30 29  1  0  0  0  0
 32 31  1  0  0  0  0
 33 40  1  0  0  0  0
 34 39  1  0  0  0  0
 36 35  1  0  0  0  0
 37 34  2  0  0  0  0
 37 40  1  0  0  0  0
 38 36  1  0  0  0  0
 39 36  2  0  0  0  0
 40 38  2  0  0  0  0
 41 43  1  6  0  0  0
 41  4  1  0  0  0  0
 42 43  2  0  0  0  0
 44 47  1  6  0  0  0
 44 41  1  0  0  0  0
 46 45  1  0  0  0  0
 46 44  1  0  0  0  0
 47 48  1  0  0  0  0
 49 59  1  0  0  0  0
 50 48  1  0  0  0  0
 51 50  1  0  0  0  0
 51 58  2  0  0  0  0
 52 58  1  6  0  0  0
 52 59  1  0  0  0  0
 53 58  1  0  0  0  0
 54 56  1  0  0  0  0
 55 50  1  0  0  0  0
 55 49  1  0  0  0  0
 56 52  1  0  0  0  0
 56 62  1  1  0  0  0
 57 53  1  0  0  0  0
 57 54  1  0  0  0  0
 61 62  1  0  0  0  0
 62 60  1  1  0  0  0
M  END
>  <MODEL>
7

>  <REMARK>
 VINA RESULT:      -5.0      1.478      3.064
  Name = 
  22 active torsions:
  status: ('A' for Active; 'I' for Inactive)
    1  A    between atoms: O_1  and  C_17
    2  A    between atoms: O_1  and  C_61
    3  A    between atoms: C_4  and  C_5
    4  A    between atoms: N_8  and  C_18
    5  A    between atoms: C_9  and  C_30
    6  A    between atoms: C_10  and  C_11
    7  A    between atoms: C_16  and  C_59
    8  A    between atoms: C_16  and  C_62
    9  A    between atoms: C_17  and  O_36
   10  A    between atoms: C_17  and  C_62
   11  A    between atoms: C_18  and  C_54
   12  A    between atoms: N_19  and  C_57
   13  A    between atoms: N_21  and  C_30
   14  A    between atoms: N_21  and  C_39
   15  A    between atoms: C_35  and  O_36
   16  A    between atoms: C_35  and  O_42
   17  A    between atoms: C_41  and  C_54
   18  A    between atoms: C_41  and  O_56
   19  A    between atoms: C_41  and  C_57
   20  A    between atoms: C_43  and  C_51
   21  A    between atoms: C_55  and  C_59
   22  A    between atoms: C_57  and  C_60
                            x       y       z     vdW  Elec       q    Type
                         _______ _______ _______ _____ _____    ______ ____

>  <TORSDO>
F 22

$$$$
=
 OpenBabel10232408053D

 62 68  0  0  1  0  0  0  0  0999 V2000
  189.5510  177.7660  141.3320 C   0  0  2  0  0  3  0  0  0  0  0  0
  187.9580  177.1400  138.2300 C   0  0  1  0  0  3  0  0  0  0  0  0
  188.7140  176.9960  140.5060 O   0  0  0  0  0  0  0  0  0  0  0  0
  189.8920  176.0430  137.2690 N   0  0  0  0  0  0  0  0  0  0  0  0
  190.9900  177.2230  141.3580 C   0  0  0  0  0  2  0  0  0  0  0  0
  188.6450  176.7450  136.9370 C   0  0  0  0  0  2  0  0  0  0  0  0
  191.6770  177.5870  140.1230 N   0  0  0  0  0  2  0  0  0  0  0  0
  189.0980  177.2880  139.1910 C   0  0  1  0  0  3  0  0  0  0  0  0
  190.0780  176.2410  138.7150 C   0  0  2  0  0  3  0  0  0  0  0  0
  191.5470  176.5050  139.1430 C   0  0  1  0  0  3  0  0  0  0  0  0
  187.8460  178.0000  145.2330 N   0  0  0  0  0  0  0  0  0  0  0  0
  188.9700  177.8570  142.7080 C   0  0  0  0  0  0  0  0  0  0  0  0
  189.1970  177.8870  145.1140 C   0  0  0  0  0  0  0  0  0  0  0  0
  189.7820  177.8000  143.8500 C   0  0  0  0  0  3  0  0  0  0  0  0
  187.5860  177.9690  142.8560 C   0  0  0  0  0  3  0  0  0  0  0  0
  187.0360  178.0380  144.1390 C   0  0  0  0  0  3  0  0  0  0  0  0
  190.0550  177.8750  146.3310 C   0  0  0  0  0  2  0  0  0  0  0  0
  190.3400  176.5060  146.7380 N   0  0  0  0  0  2  0  0  0  0  0  0
  192.1020  174.8650  146.5430 C   0  0  0  0  0  2  0  0  0  0  0  0
  192.2260  175.5260  147.9000 C   0  0  0  0  0  2  0  0  0  0  0  0
  191.7810  176.3370  146.7000 C   0  0  0  0  0  3  0  0  0  0  0  0
  187.1930  178.4200  138.0790 C   0  0  0  0  0  0  0  0  0  0  0  0
  187.4070  179.1720  137.1390 O   0  0  0  0  0  0  0  0  0  0  0  0
  186.1620  178.7840  139.0930 C   0  0  0  0  0  1  0  0  0  0  0  0
  192.4840  176.7710  137.9710 C   0  0  0  0  0  2  0  0  0  0  0  0
  193.7870  176.0250  138.1900 C   0  0  0  0  0  2  0  0  0  0  0  0
  193.5810  174.5390  137.9730 C   0  0  0  0  0  2  0  0  0  0  0  0
  194.5740  174.0540  136.9310 C   0  0  2  0  0  3  0  0  0  0  0  0
  195.1040  172.8250  137.3350 O   0  0  0  0  0  0  0  0  0  0  0  0
  195.1770  172.0580  136.1710 C   0  0  0  0  0  2  0  0  0  0  0  0
  195.1470  169.8570  136.3310 C   0  0  0  0  0  1  0  0  0  0  0  0
  194.3110  170.9710  136.2740 O   0  0  0  0  0  0  0  0  0  0  0  0
  195.6280  174.9980  136.7720 O   0  0  0  0  0  0  0  0  0  0  0  0
  198.8250  174.1030  138.4500 C   0  0  0  0  0  3  0  0  0  0  0  0
  200.1070  174.2990  134.8990 C   0  0  0  0  0  1  0  0  0  0  0  0
  199.1900  174.3270  136.0650 C   0  0  0  0  0  0  0  0  0  0  0  0
  197.4740  174.4050  138.2680 C   0  0  0  0  0  3  0  0  0  0  0  0
  197.8370  174.6240  135.8820 C   0  0  0  0  0  3  0  0  0  0  0  0
  199.6840  174.0700  137.3480 C   0  0  0  0  0  3  0  0  0  0  0  0
  196.9720  174.6720  136.9820 C   0  0  0  0  0  0  0  0  0  0  0  0
  189.6790  174.6190  136.9450 C   0  0  2  0  0  3  0  0  0  0  0  0
  190.9490  172.5620  136.4530 C   0  0  0  0  0  2  0  0  0  0  0  0
  190.9650  173.8300  136.8520 C   0  0  0  0  0  3  0  0  0  0  0  0
  188.8720  174.4990  135.6380 C   0  0  1  0  0  3  0  0  0  0  0  0
  190.5700  175.2850  134.4320 C   0  0  0  0  0  1  0  0  0  0  0  0
  189.6910  174.2010  134.5390 O   0  0  0  0  0  0  0  0  0  0  0  0
  187.7220  173.5030  135.7520 C   0  0  0  0  0  2  0  0  0  0  0  0
  186.9360  173.6570  137.0490 C   0  0  0  0  0  2  0  0  0  0  0  0
  183.3160  174.0960  137.7700 C   0  0  0  0  0  2  0  0  0  0  0  0
  185.5600  174.0020  136.7490 N   0  0  0  0  0  0  0  0  0  0  0  0
  185.2910  174.9310  135.6940 C   0  0  0  0  0  3  0  0  0  0  0  0
  183.7140  176.3620  137.0860 C   0  0  2  0  0  3  0  0  0  0  0  0
  184.2270  176.8080  134.5980 C   0  0  0  0  0  2  0  0  0  0  0  0
  182.1930  177.8030  135.6570 C   0  0  0  0  0  2  0  0  0  0  0  0
  184.4950  173.2170  137.3700 C   0  0  0  0  0  2  0  0  0  0  0  0
  182.2620  176.8450  136.8460 C   0  0  2  0  0  3  0  0  0  0  0  0
  182.7520  177.1420  134.4000 C   0  0  0  0  0  2  0  0  0  0  0  0
  184.3980  175.9270  135.7910 C   0  0  0  0  0  0  0  0  0  0  0  0
  183.8000  175.4040  138.1960 N   0  0  0  0  0  2  0  0  0  0  0  0
  182.6960  178.3160  138.8400 C   0  0  0  0  0  1  0  0  0  0  0  0
  180.5940  178.3830  137.7050 O   0  0  0  0  0  1  0  0  0  0  0  0
  181.6500  177.5410  138.0680 C   0  0  1  0  0  3  0  0  0  0  0  0
  1  5  1  0  0  0  0
  1 12  1  1  0  0  0
  2 22  1  6  0  0  0
  2  8  1  0  0  0  0
  3  1  1  0  0  0  0
  6  4  1  0  0  0  0
  6  2  1  0  0  0  0
  7  5  1  0  0  0  0
  8  3  1  1  0  0  0
  9  4  1  6  0  0  0
  9 10  1  0  0  0  0
  9  8  1  0  0  0  0
 10 25  1  6  0  0  0
 10  7  1  0  0  0  0
 12 15  2  0  0  0  0
 12 14  1  0  0  0  0
 13 11  1  0  0  0  0
 13 17  1  0  0  0  0
 14 13  2  0  0  0  0
 15 16  1  0  0  0  0
 16 11  2  0  0  0  0
 17 18  1  0  0  0  0
 19 21  1  0  0  0  0
 19 20  1  0  0  0  0
 21 18  1  0  0  0  0
 21 20  1  0  0  0  0
 22 24  1  0  0  0  0
 23 22  2  0  0  0  0
 25 26  1  0  0  0  0
 27 26  1  0  0  0  0
 28 29  1  0  0  0  0
 28 27  1  1  0  0  0
 30 32  1  0  0  0  0
 30 29  1  0  0  0  0
 32 31  1  0  0  0  0
 33 28  1  0  0  0  0
 33 40  1  0  0  0  0
 35 36  1  0  0  0  0
 36 39  1  0  0  0  0
 37 34  1  0  0  0  0
 38 36  2  0  0  0  0
 38 40  1  0  0  0  0
 39 34  2  0  0  0  0
 40 37  2  0  0  0  0
 41 43  1  6  0  0  0
 41  4  1  0  0  0  0
 42 43  2  0  0  0  0
 44 47  1  1  0  0  0
 44 41  1  0  0  0  0
 45 46  1  0  0  0  0
 46 44  1  0  0  0  0
 47 48  1  0  0  0  0
 49 59  1  0  0  0  0
 50 48  1  0  0  0  0
 50 55  1  0  0  0  0
 51 58  2  0  0  0  0
 51 50  1  0  0  0  0
 52 58  1  6  0  0  0
 52 59  1  0  0  0  0
 53 58  1  0  0  0  0
 54 56  1  0  0  0  0
 55 49  1  0  0  0  0
 56 52  1  0  0  0  0
 56 62  1  1  0  0  0
 57 53  1  0  0  0  0
 57 54  1  0  0  0  0
 61 62  1  0  0  0  0
 62 60  1  6  0  0  0
M  END
>  <MODEL>
8

>  <REMARK>
 VINA RESULT:      -4.5      1.726      3.381
  Name = 
  22 active torsions:
  status: ('A' for Active; 'I' for Inactive)
    1  A    between atoms: O_1  and  C_17
    2  A    between atoms: O_1  and  C_61
    3  A    between atoms: C_4  and  C_5
    4  A    between atoms: N_8  and  C_18
    5  A    between atoms: C_9  and  C_30
    6  A    between atoms: C_10  and  C_11
    7  A    between atoms: C_16  and  C_59
    8  A    between atoms: C_16  and  C_62
    9  A    between atoms: C_17  and  O_36
   10  A    between atoms: C_17  and  C_62
   11  A    between atoms: C_18  and  C_54
   12  A    between atoms: N_19  and  C_57
   13  A    between atoms: N_21  and  C_30
   14  A    between atoms: N_21  and  C_39
   15  A    between atoms: C_35  and  O_36
   16  A    between atoms: C_35  and  O_42
   17  A    between atoms: C_41  and  C_54
   18  A    between atoms: C_41  and  O_56
   19  A    between atoms: C_41  and  C_57
   20  A    between atoms: C_43  and  C_51
   21  A    between atoms: C_55  and  C_59
   22  A    between atoms: C_57  and  C_60
                            x       y       z     vdW  Elec       q    Type
                         _______ _______ _______ _____ _____    ______ ____

>  <TORSDO>
F 22

$$$$
=
 OpenBabel10232408053D

 62 68  0  0  1  0  0  0  0  0999 V2000
  187.7760  178.1560  141.7450 C   0  0  2  0  0  3  0  0  0  0  0  0
  185.1520  178.2510  139.3660 C   0  0  1  0  0  3  0  0  0  0  0  0
  186.6340  177.6000  141.1420 O   0  0  0  0  0  0  0  0  0  0  0  0
  186.5160  177.3500  137.5780 N   0  0  0  0  0  0  0  0  0  0  0  0
  189.0750  177.5910  141.1440 C   0  0  0  0  0  2  0  0  0  0  0  0
  185.3060  178.1330  137.8610 C   0  0  0  0  0  2  0  0  0  0  0  0
  189.3220  178.2000  139.8420 N   0  0  0  0  0  2  0  0  0  0  0  0
  186.5640  178.1630  139.8600 C   0  0  1  0  0  3  0  0  0  0  0  0
  187.2110  177.2260  138.8690 C   0  0  2  0  0  3  0  0  0  0  0  0
  188.7560  177.3600  138.7830 C   0  0  1  0  0  3  0  0  0  0  0  0
  187.5660  177.5630  145.9620 N   0  0  0  0  0  0  0  0  0  0  0  0
  187.7210  177.9560  143.2270 C   0  0  0  0  0  0  0  0  0  0  0  0
  188.7890  177.6060  145.3670 C   0  0  0  0  0  0  0  0  0  0  0  0
  188.8880  177.7900  143.9870 C   0  0  0  0  0  3  0  0  0  0  0  0
  186.4770  177.9060  143.8610 C   0  0  0  0  0  3  0  0  0  0  0  0
  186.4190  177.7050  145.2420 C   0  0  0  0  0  3  0  0  0  0  0  0
  190.0240  177.4740  146.1880 C   0  0  0  0  0  2  0  0  0  0  0  0
  190.6080  176.1520  146.0180 N   0  0  0  0  0  2  0  0  0  0  0  0
  192.2720  175.0570  147.3860 C   0  0  0  0  0  2  0  0  0  0  0  0
  192.0140  176.4300  147.9700 C   0  0  0  0  0  2  0  0  0  0  0  0
  191.9860  176.2290  146.4690 C   0  0  0  0  0  3  0  0  0  0  0  0
  184.5110  179.5490  139.7530 C   0  0  0  0  0  0  0  0  0  0  0  0
  184.1320  180.3410  138.9020 O   0  0  0  0  0  0  0  0  0  0  0  0
  184.3380  179.8800  141.1970 C   0  0  0  0  0  1  0  0  0  0  0  0
  189.2480  177.8550  137.4290 C   0  0  0  0  0  2  0  0  0  0  0  0
  190.6210  177.2710  137.1480 C   0  0  0  0  0  2  0  0  0  0  0  0
  190.4920  176.0140  136.3110 C   0  0  0  0  0  2  0  0  0  0  0  0
  191.7900  175.7970  135.5520 C   0  0  2  0  0  3  0  0  0  0  0  0
  192.0090  174.4260  135.3950 O   0  0  0  0  0  0  0  0  0  0  0  0
  190.7680  173.8960  135.0370 C   0  0  0  0  0  2  0  0  0  0  0  0
  189.6270  172.1230  134.3850 C   0  0  0  0  0  1  0  0  0  0  0  0
  190.9170  172.5540  134.6920 O   0  0  0  0  0  0  0  0  0  0  0  0
  192.8820  176.3760  136.2590 O   0  0  0  0  0  0  0  0  0  0  0  0
  196.4000  175.4150  135.5270 C   0  0  0  0  0  3  0  0  0  0  0  0
  195.8320  173.1720  138.5170 C   0  0  0  0  0  1  0  0  0  0  0  0
  195.6010  174.1800  137.4530 C   0  0  0  0  0  0  0  0  0  0  0  0
  195.1640  176.0570  135.4310 C   0  0  0  0  0  3  0  0  0  0  0  0
  194.3660  174.8270  137.3590 C   0  0  0  0  0  3  0  0  0  0  0  0
  196.6160  174.4720  136.5360 C   0  0  0  0  0  3  0  0  0  0  0  0
  194.1360  175.7630  136.3440 C   0  0  0  0  0  0  0  0  0  0  0  0
  186.0680  176.0350  137.0810 C   0  0  2  0  0  3  0  0  0  0  0  0
  186.9580  173.7390  136.9350 C   0  0  0  0  0  2  0  0  0  0  0  0
  187.1970  175.0460  136.9080 C   0  0  0  0  0  3  0  0  0  0  0  0
  185.2970  176.2160  135.7590 C   0  0  1  0  0  3  0  0  0  0  0  0
  186.7080  177.1990  134.3460 C   0  0  0  0  0  1  0  0  0  0  0  0
  186.1060  175.9710  134.6390 O   0  0  0  0  0  0  0  0  0  0  0  0
  184.0210  175.3810  135.7090 C   0  0  0  0  0  2  0  0  0  0  0  0
  183.5170  174.9920  137.0930 C   0  0  0  0  0  2  0  0  0  0  0  0
  180.4830  175.8490  139.0630 C   0  0  0  0  0  2  0  0  0  0  0  0
  182.2700  175.6790  137.3710 N   0  0  0  0  0  0  0  0  0  0  0  0
  182.0250  176.9480  136.7570 C   0  0  0  0  0  3  0  0  0  0  0  0
  181.3340  178.0890  138.9230 C   0  0  2  0  0  3  0  0  0  0  0  0
  181.3080  179.2550  136.6230 C   0  0  0  0  0  2  0  0  0  0  0  0
  179.9860  180.1990  138.5230 C   0  0  0  0  0  2  0  0  0  0  0  0
  181.2170  174.9510  138.0740 C   0  0  0  0  0  2  0  0  0  0  0  0
  180.0730  178.8960  139.3170 C   0  0  2  0  0  3  0  0  0  0  0  0
  179.9940  179.9160  137.0230 C   0  0  0  0  0  2  0  0  0  0  0  0
  181.5130  178.0020  137.4080 C   0  0  0  0  0  0  0  0  0  0  0  0
  181.4160  176.8100  139.6410 N   0  0  0  0  0  2  0  0  0  0  0  0
  181.0820  178.4840  141.5850 C   0  0  0  0  0  1  0  0  0  0  0  0
  180.1360  180.6090  141.0340 O   0  0  0  0  0  1  0  0  0  0  0  0
  180.0170  179.2330  140.8120 C   0  0  1  0  0  3  0  0  0  0  0  0
  1 12  1  1  0  0  0
  2 22  1  6  0  0  0
  2  8  1  0  0  0  0
  3  1  1  0  0  0  0
  4  6  1  0  0  0  0
  5  1  1  0  0  0  0
  6  2  1  0  0  0  0
  7  5  1  0  0  0  0
  8  3  1  1  0  0  0
  9  4  1  6  0  0  0
  9  8  1  0  0  0  0
 10 25  1  6  0  0  0
 10  9  1  0  0  0  0
 10  7  1  0  0  0  0
 12 15  2  0  0  0  0
 12 14  1  0  0  0  0
 13 11  1  0  0  0  0
 13 17  1  0  0  0  0
 14 13  2  0  0  0  0
 15 16  1  0  0  0  0
 16 11  2  0  0  0  0
 18 17  1  0  0  0  0
 18 21  1  0  0  0  0
 19 20  1  0  0  0  0
 21 19  1  0  0  0  0
 21 20  1  0  0  0  0
 22 24  1  0  0  0  0
 23 22  2  0  0  0  0
 26 25  1  0  0  0  0
 27 26  1  0  0  0  0
 28 33  1  0  0  0  0
 28 27  1  1  0  0  0
 29 28  1  0  0  0  0
 30 29  1  0  0  0  0
 31 32  1  0  0  0  0
 32 30  1  0  0  0  0
 33 40  1  0  0  0  0
 34 39  1  0  0  0  0
 36 35  1  0  0  0  0
 37 34  2  0  0  0  0
 37 40  1  0  0  0  0
 38 36  1  0  0  0  0
 39 36  2  0  0  0  0
 40 38  2  0  0  0  0
 41 43  1  6  0  0  0
 41  4  1  0  0  0  0
 43 42  2  0  0  0  0
 44 47  1  1  0  0  0
 44 41  1  0  0  0  0
 45 46  1  0  0  0  0
 46 44  1  0  0  0  0
 47 48  1  0  0  0  0
 48 50  1  0  0  0  0
 49 59  1  0  0  0  0
 50 55  1  0  0  0  0
 51 50  1  0  0  0  0
 51 58  2  0  0  0  0
 52 58  1  6  0  0  0
 52 56  1  0  0  0  0
 52 59  1  0  0  0  0
 53 57  1  0  0  0  0
 53 58  1  0  0  0  0
 54 56  1  0  0  0  0
 55 49  1  0  0  0  0
 56 62  1  1  0  0  0
 57 54  1  0  0  0  0
 62 61  1  0  0  0  0
 62 60  1  1  0  0  0
M  END
>  <MODEL>
9

>  <REMARK>
 VINA RESULT:      -4.5      2.660      5.169
  Name = 
  22 active torsions:
  status: ('A' for Active; 'I' for Inactive)
    1  A    between atoms: O_1  and  C_17
    2  A    between atoms: O_1  and  C_61
    3  A    between atoms: C_4  and  C_5
    4  A    between atoms: N_8  and  C_18
    5  A    between atoms: C_9  and  C_30
    6  A    between atoms: C_10  and  C_11
    7  A    between atoms: C_16  and  C_59
    8  A    between atoms: C_16  and  C_62
    9  A    between atoms: C_17  and  O_36
   10  A    between atoms: C_17  and  C_62
   11  A    between atoms: C_18  and  C_54
   12  A    between atoms: N_19  and  C_57
   13  A    between atoms: N_21  and  C_30
   14  A    between atoms: N_21  and  C_39
   15  A    between atoms: C_35  and  O_36
   16  A    between atoms: C_35  and  O_42
   17  A    between atoms: C_41  and  C_54
   18  A    between atoms: C_41  and  O_56
   19  A    between atoms: C_41  and  C_57
   20  A    between atoms: C_43  and  C_51
   21  A    between atoms: C_55  and  C_59
   22  A    between atoms: C_57  and  C_60
                            x       y       z     vdW  Elec       q    Type
                         _______ _______ _______ _____ _____    ______ ____

>  <TORSDO>
F 22

$$$$
