=
 OpenBabel10232411423D

 27 28  0  0  1  0  0  0  0  0999 V2000
  186.2880  177.7670  142.2150 N   0  0  0  0  0  2  0  0  0  0  0  0
  182.7930  179.0020  142.8110 C   0  0  0  0  0  0  0  0  0  0  0  0
  182.8020  179.1310  144.2020 C   0  0  0  0  0  3  0  0  0  0  0  0
  181.6610  179.3390  142.1420 F   0  0  0  0  0  0  0  0  0  0  0  0
  185.0940  178.3880  144.2690 C   0  0  0  0  0  3  0  0  0  0  0  0
  185.1110  178.2570  142.8720 C   0  0  0  0  0  0  0  0  0  0  0  0
  183.9470  178.5680  142.1240 C   0  0  0  0  0  0  0  0  0  0  0  0
  183.9480  178.8250  144.9300 C   0  0  0  0  0  3  0  0  0  0  0  0
  183.3530  177.4170  140.0980 N   0  0  0  0  0  2  0  0  0  0  0  0
  183.9250  178.4420  140.6440 C   0  0  0  0  0  0  0  0  0  0  0  0
  184.1230  180.2600  139.0310 N   0  0  0  0  0  0  0  0  0  0  0  0
  184.6310  179.4110  139.8420 N   0  0  0  0  0  0  0  0  0  0  0  0
  182.7490  180.4220  138.7900 C   0  0  0  0  0  0  0  0  0  0  0  0
  181.5680  180.5680  138.5880 C   0  0  0  0  0  3  0  0  0  0  0  0
  187.6440  177.9890  142.7050 C   0  0  2  0  0  3  0  0  0  0  0  0
  189.8400  177.9520  141.7500 O   0  0  0  0  0  0  0  0  0  0  0  0
  188.9910  178.6780  139.1390 C   0  0  0  0  0  1  0  0  0  0  0  0
  188.6060  178.1370  141.5680 C   0  0  0  0  0  0  0  0  0  0  0  0
  188.1110  178.5120  140.2830 N   0  0  0  0  0  2  0  0  0  0  0  0
  188.0610  176.8730  143.6110 C   0  0  0  0  0  0  0  0  0  0  0  0
  187.9810  175.6780  143.2150 O   0  0  0  0  0  0  0  0  0  0  0  0
  188.9830  178.1710  148.7060 C   0  0  0  0  0  1  0  0  0  0  0  0
  187.6780  177.7000  146.2680 S   0  0  0  0  0  0  0  0  0  0  0  0
  190.1450  177.3750  146.6430 N   0  0  0  0  0  0  0  0  0  0  0  0
  188.5840  177.1640  144.9530 C   0  0  0  0  0  0  0  0  0  0  0  0
  189.9140  177.0430  145.3440 C   0  0  0  0  0  3  0  0  0  0  0  0
  189.0180  177.7550  147.2790 C   0  0  0  0  0  0  0  0  0  0  0  0
  1 15  1  0  0  0  0
  1  6  1  0  0  0  0
  2  3  1  0  0  0  0
  3  8  2  0  0  0  0
  4  2  1  0  0  0  0
  5  8  1  0  0  0  0
  6  5  2  0  0  0  0
  7  2  2  0  0  0  0
  7  6  1  0  0  0  0
  9 10  2  0  0  0  0
 10  7  1  0  0  0  0
 11 12  2  0  0  0  0
 12 10  1  0  0  0  0
 13 11  1  0  0  0  0
 14 13  3  0  0  0  0
 15 18  1  6  0  0  0
 15 20  1  0  0  0  0
 17 19  1  0  0  0  0
 18 16  2  0  0  0  0
 19 18  1  0  0  0  0
 20 25  1  0  0  0  0
 21 20  2  0  0  0  0
 23 27  1  0  0  0  0
 24 27  2  0  0  0  0
 25 26  2  0  0  0  0
 25 23  1  0  0  0  0
 26 24  1  0  0  0  0
 27 22  1  0  0  0  0
M  END
>  <MODEL>
1

>  <REMARK>
 VINA RESULT:      -8.0      0.000      0.000
  Name = 
  8 active torsions:
  status: ('A' for Active; 'I' for Inactive)
    1  A    between atoms: C_2  and  N_6
    2  A    between atoms: C_2  and  C_8
    3  A    between atoms: C_2  and  C_22
    4  A    between atoms: N_6  and  C_19
    5  A    between atoms: C_8  and  C_13
    6  A    between atoms: C_10  and  N_16
    7  A    between atoms: C_20  and  C_27
    8  A    between atoms: N_24  and  C_27
                            x       y       z     vdW  Elec       q    Type
                         _______ _______ _______ _____ _____    ______ ____

>  <TORSDO>
F 8

$$$$
=
 OpenBabel10232411423D

 27 28  0  0  1  0  0  0  0  0999 V2000
  189.1550  178.2340  141.3640 N   0  0  0  0  0  2  0  0  0  0  0  0
  188.3330  177.5030  144.9540 C   0  0  0  0  0  0  0  0  0  0  0  0
  186.9370  177.4950  144.8990 C   0  0  0  0  0  3  0  0  0  0  0  0
  188.9310  177.2550  146.1470 F   0  0  0  0  0  0  0  0  0  0  0  0
  187.0150  177.9470  142.5320 C   0  0  0  0  0  3  0  0  0  0  0  0
  188.4180  177.9540  142.5620 C   0  0  0  0  0  0  0  0  0  0  0  0
  189.0950  177.7280  143.7870 C   0  0  0  0  0  0  0  0  0  0  0  0
  186.2790  177.7160  143.6930 C   0  0  0  0  0  3  0  0  0  0  0  0
  191.2100  178.8430  144.0390 N   0  0  0  0  0  2  0  0  0  0  0  0
  190.5790  177.7270  143.8590 C   0  0  0  0  0  0  0  0  0  0  0  0
  191.8660  175.7580  144.4990 N   0  0  0  0  0  0  0  0  0  0  0  0
  191.2970  176.4990  143.6250 N   0  0  0  0  0  0  0  0  0  0  0  0
  191.8700  176.0020  145.8830 C   0  0  0  0  0  0  0  0  0  0  0  0
  191.8820  176.2140  147.0700 C   0  0  0  0  0  3  0  0  0  0  0  0
  189.1520  177.3710  140.1880 C   0  0  2  0  0  3  0  0  0  0  0  0
  190.6910  175.7920  139.2540 O   0  0  0  0  0  0  0  0  0  0  0  0
  193.0210  177.1770  140.1030 C   0  0  0  0  0  1  0  0  0  0  0  0
  190.5300  176.8690  139.8900 C   0  0  0  0  0  0  0  0  0  0  0  0
  191.6570  177.6120  140.3530 N   0  0  0  0  0  2  0  0  0  0  0  0
  188.5860  178.0990  139.0090 C   0  0  0  0  0  0  0  0  0  0  0  0
  189.0330  179.2360  138.6980 O   0  0  0  0  0  0  0  0  0  0  0  0
  184.1710  176.6690  136.3730 C   0  0  0  0  0  1  0  0  0  0  0  0
  185.9690  178.0910  137.9880 S   0  0  0  0  0  0  0  0  0  0  0  0
  186.5190  175.9370  136.8090 N   0  0  0  0  0  0  0  0  0  0  0  0
  187.5260  177.4830  138.1980 C   0  0  0  0  0  0  0  0  0  0  0  0
  187.6460  176.2990  137.4790 C   0  0  0  0  0  3  0  0  0  0  0  0
  185.5140  176.8200  136.9900 C   0  0  0  0  0  0  0  0  0  0  0  0
  1  6  1  0  0  0  0
  2  4  1  0  0  0  0
  3  2  1  0  0  0  0
  5  6  2  0  0  0  0
  5  8  1  0  0  0  0
  6  7  1  0  0  0  0
  7 10  1  0  0  0  0
  7  2  2  0  0  0  0
  8  3  2  0  0  0  0
 10  9  2  0  0  0  0
 11 13  1  0  0  0  0
 12 10  1  0  0  0  0
 12 11  2  0  0  0  0
 13 14  3  0  0  0  0
 15 20  1  6  0  0  0
 15  1  1  0  0  0  0
 16 18  2  0  0  0  0
 17 19  1  0  0  0  0
 18 15  1  0  0  0  0
 18 19  1  0  0  0  0
 21 20  2  0  0  0  0
 22 27  1  0  0  0  0
 23 25  1  0  0  0  0
 24 27  2  0  0  0  0
 24 26  1  0  0  0  0
 25 20  1  0  0  0  0
 26 25  2  0  0  0  0
 27 23  1  0  0  0  0
M  END
>  <MODEL>
2

>  <REMARK>
 VINA RESULT:      -7.8      3.934      7.630
  Name = 
  8 active torsions:
  status: ('A' for Active; 'I' for Inactive)
    1  A    between atoms: C_2  and  N_6
    2  A    between atoms: C_2  and  C_8
    3  A    between atoms: C_2  and  C_22
    4  A    between atoms: N_6  and  C_19
    5  A    between atoms: C_8  and  C_13
    6  A    between atoms: C_10  and  N_16
    7  A    between atoms: C_20  and  C_27
    8  A    between atoms: N_24  and  C_27
                            x       y       z     vdW  Elec       q    Type
                         _______ _______ _______ _____ _____    ______ ____

>  <TORSDO>
F 8

$$$$
=
 OpenBabel10232411423D

 27 28  0  0  1  0  0  0  0  0999 V2000
  188.9230  178.1950  141.0320 N   0  0  0  0  0  2  0  0  0  0  0  0
  187.9510  177.1830  144.5150 C   0  0  0  0  0  0  0  0  0  0  0  0
  186.5990  177.5350  144.5150 C   0  0  0  0  0  3  0  0  0  0  0  0
  188.4690  176.6220  145.6370 F   0  0  0  0  0  0  0  0  0  0  0  0
  186.7840  178.2910  142.2330 C   0  0  0  0  0  3  0  0  0  0  0  0
  188.1420  177.9400  142.2080 C   0  0  0  0  0  0  0  0  0  0  0  0
  188.7420  177.3750  143.3620 C   0  0  0  0  0  0  0  0  0  0  0  0
  186.0160  178.0870  143.3780 C   0  0  0  0  0  3  0  0  0  0  0  0
  190.5160  175.7780  143.0720 N   0  0  0  0  0  2  0  0  0  0  0  0
  190.1770  176.9900  143.3740 C   0  0  0  0  0  0  0  0  0  0  0  0
  191.7900  177.9420  144.9350 N   0  0  0  0  0  0  0  0  0  0  0  0
  191.1610  177.9450  143.8210 N   0  0  0  0  0  0  0  0  0  0  0  0
  191.6500  176.9680  145.9370 C   0  0  0  0  0  0  0  0  0  0  0  0
  191.5260  176.1360  146.8030 C   0  0  0  0  0  3  0  0  0  0  0  0
  188.8560  177.3850  139.8200 C   0  0  2  0  0  3  0  0  0  0  0  0
  191.2420  177.3180  140.0140 O   0  0  0  0  0  0  0  0  0  0  0  0
  191.5980  175.2980  138.0490 C   0  0  0  0  0  1  0  0  0  0  0  0
  190.2090  176.8590  139.4550 C   0  0  0  0  0  0  0  0  0  0  0  0
  190.3150  175.8480  138.4540 N   0  0  0  0  0  2  0  0  0  0  0  0
  188.2730  178.1790  138.6940 C   0  0  0  0  0  0  0  0  0  0  0  0
  188.8960  179.1780  138.2400 O   0  0  0  0  0  0  0  0  0  0  0  0
  184.1810  176.1370  135.9420 C   0  0  0  0  0  1  0  0  0  0  0  0
  186.7780  176.6610  136.8640 S   0  0  0  0  0  0  0  0  0  0  0  0
  184.7030  177.7680  137.7610 N   0  0  0  0  0  0  0  0  0  0  0  0
  186.9880  177.7870  138.0990 C   0  0  0  0  0  0  0  0  0  0  0  0
  185.7430  178.2900  138.4650 C   0  0  0  0  0  3  0  0  0  0  0  0
  185.1100  176.8610  136.8480 C   0  0  0  0  0  0  0  0  0  0  0  0
  1  6  1  0  0  0  0
  2  3  1  0  0  0  0
  2  4  1  0  0  0  0
  5  8  1  0  0  0  0
  6  5  2  0  0  0  0
  6  7  1  0  0  0  0
  7 10  1  0  0  0  0
  7  2  2  0  0  0  0
  8  3  2  0  0  0  0
  9 10  2  0  0  0  0
 10 12  1  0  0  0  0
 11 13  1  0  0  0  0
 12 11  2  0  0  0  0
 13 14  3  0  0  0  0
 15 20  1  6  0  0  0
 15  1  1  0  0  0  0
 17 19  1  0  0  0  0
 18 15  1  0  0  0  0
 18 16  2  0  0  0  0
 19 18  1  0  0  0  0
 21 20  2  0  0  0  0
 22 27  1  0  0  0  0
 23 25  1  0  0  0  0
 24 26  1  0  0  0  0
 25 26  2  0  0  0  0
 25 20  1  0  0  0  0
 27 23  1  0  0  0  0
 27 24  2  0  0  0  0
M  END
>  <MODEL>
3

>  <REMARK>
 VINA RESULT:      -7.5      3.538      7.520
  Name = 
  8 active torsions:
  status: ('A' for Active; 'I' for Inactive)
    1  A    between atoms: C_2  and  N_6
    2  A    between atoms: C_2  and  C_8
    3  A    between atoms: C_2  and  C_22
    4  A    between atoms: N_6  and  C_19
    5  A    between atoms: C_8  and  C_13
    6  A    between atoms: C_10  and  N_16
    7  A    between atoms: C_20  and  C_27
    8  A    between atoms: N_24  and  C_27
                            x       y       z     vdW  Elec       q    Type
                         _______ _______ _______ _____ _____    ______ ____

>  <TORSDO>
F 8

$$$$
=
 OpenBabel10232411423D

 27 28  0  0  1  0  0  0  0  0999 V2000
  188.3660  178.4980  140.7860 N   0  0  0  0  0  2  0  0  0  0  0  0
  186.3770  177.7680  143.8870 C   0  0  0  0  0  0  0  0  0  0  0  0
  185.1430  178.3180  143.5340 C   0  0  0  0  0  3  0  0  0  0  0  0
  186.4930  177.1750  145.1020 F   0  0  0  0  0  0  0  0  0  0  0  0
  186.0290  178.9570  141.3840 C   0  0  0  0  0  3  0  0  0  0  0  0
  187.2760  178.4050  141.7150 C   0  0  0  0  0  0  0  0  0  0  0  0
  187.4610  177.7980  142.9830 C   0  0  0  0  0  0  0  0  0  0  0  0
  184.9680  178.9110  142.2860 C   0  0  0  0  0  3  0  0  0  0  0  0
  188.9290  175.9200  143.3000 N   0  0  0  0  0  2  0  0  0  0  0  0
  188.7660  177.2030  143.3690 C   0  0  0  0  0  0  0  0  0  0  0  0
  190.1090  178.1970  145.1450 N   0  0  0  0  0  0  0  0  0  0  0  0
  189.7970  178.0520  143.9120 N   0  0  0  0  0  0  0  0  0  0  0  0
  189.5040  177.5170  146.2150 C   0  0  0  0  0  0  0  0  0  0  0  0
  188.9840  176.9400  147.1380 C   0  0  0  0  0  3  0  0  0  0  0  0
  188.5950  177.5480  139.7040 C   0  0  2  0  0  3  0  0  0  0  0  0
  190.3170  175.9980  139.0970 O   0  0  0  0  0  0  0  0  0  0  0  0
  192.3750  177.3350  140.5270 C   0  0  0  0  0  1  0  0  0  0  0  0
  190.0060  177.0500  139.7200 C   0  0  0  0  0  0  0  0  0  0  0  0
  190.9890  177.7670  140.4650 N   0  0  0  0  0  2  0  0  0  0  0  0
  188.2670  178.1730  138.3840 C   0  0  0  0  0  0  0  0  0  0  0  0
  188.9180  179.1770  137.9840 O   0  0  0  0  0  0  0  0  0  0  0  0
  183.7750  176.6520  135.9340 C   0  0  0  0  0  1  0  0  0  0  0  0
  185.5540  177.8910  137.7140 S   0  0  0  0  0  0  0  0  0  0  0  0
  186.2550  176.3600  135.8440 N   0  0  0  0  0  0  0  0  0  0  0  0
  187.2050  177.6070  137.5400 C   0  0  0  0  0  0  0  0  0  0  0  0
  187.4020  176.7460  136.4650 C   0  0  0  0  0  3  0  0  0  0  0  0
  185.1590  176.9050  136.4130 C   0  0  0  0  0  0  0  0  0  0  0  0
  1  6  1  0  0  0  0
  2  4  1  0  0  0  0
  3  2  1  0  0  0  0
  5  6  2  0  0  0  0
  5  8  1  0  0  0  0
  6  7  1  0  0  0  0
  7 10  1  0  0  0  0
  7  2  2  0  0  0  0
  8  3  2  0  0  0  0
  9 10  2  0  0  0  0
 10 12  1  0  0  0  0
 11 13  1  0  0  0  0
 12 11  2  0  0  0  0
 13 14  3  0  0  0  0
 15 20  1  6  0  0  0
 15 18  1  0  0  0  0
 15  1  1  0  0  0  0
 16 18  2  0  0  0  0
 18 19  1  0  0  0  0
 19 17  1  0  0  0  0
 21 20  2  0  0  0  0
 22 27  1  0  0  0  0
 24 27  2  0  0  0  0
 24 26  1  0  0  0  0
 25 23  1  0  0  0  0
 25 20  1  0  0  0  0
 26 25  2  0  0  0  0
 27 23  1  0  0  0  0
M  END
>  <MODEL>
4

>  <REMARK>
 VINA RESULT:      -7.4      3.363      7.077
  Name = 
  8 active torsions:
  status: ('A' for Active; 'I' for Inactive)
    1  A    between atoms: C_2  and  N_6
    2  A    between atoms: C_2  and  C_8
    3  A    between atoms: C_2  and  C_22
    4  A    between atoms: N_6  and  C_19
    5  A    between atoms: C_8  and  C_13
    6  A    between atoms: C_10  and  N_16
    7  A    between atoms: C_20  and  C_27
    8  A    between atoms: N_24  and  C_27
                            x       y       z     vdW  Elec       q    Type
                         _______ _______ _______ _____ _____    ______ ____

>  <TORSDO>
F 8

$$$$
=
 OpenBabel10232411423D

 27 28  0  0  1  0  0  0  0  0999 V2000
  186.1990  179.0300  141.3640 N   0  0  0  0  0  2  0  0  0  0  0  0
  186.1740  177.8490  144.9280 C   0  0  0  0  0  0  0  0  0  0  0  0
  184.9860  178.4290  145.3800 C   0  0  0  0  0  3  0  0  0  0  0  0
  186.8920  177.0940  145.7970 F   0  0  0  0  0  0  0  0  0  0  0  0
  184.6010  179.3730  143.1950 C   0  0  0  0  0  3  0  0  0  0  0  0
  185.7870  178.7950  142.7170 C   0  0  0  0  0  0  0  0  0  0  0  0
  186.5910  178.0180  143.5900 C   0  0  0  0  0  0  0  0  0  0  0  0
  184.2010  179.1890  144.5170 C   0  0  0  0  0  3  0  0  0  0  0  0
  187.9200  176.1030  143.0040 N   0  0  0  0  0  2  0  0  0  0  0  0
  187.8520  177.3900  143.1210 C   0  0  0  0  0  0  0  0  0  0  0  0
  189.9700  178.4390  143.7220 N   0  0  0  0  0  0  0  0  0  0  0  0
  189.0140  178.2160  142.9010 N   0  0  0  0  0  0  0  0  0  0  0  0
  190.0750  177.8820  145.0070 C   0  0  0  0  0  0  0  0  0  0  0  0
  190.1570  177.4010  146.1110 C   0  0  0  0  0  3  0  0  0  0  0  0
  185.6210  178.3520  140.2080 C   0  0  2  0  0  3  0  0  0  0  0  0
  186.2930  177.7380  137.9930 O   0  0  0  0  0  0  0  0  0  0  0  0
  189.0180  178.4550  138.3480 C   0  0  0  0  0  1  0  0  0  0  0  0
  186.6320  178.2050  139.1150 C   0  0  0  0  0  0  0  0  0  0  0  0
  187.9870  178.5790  139.3640 N   0  0  0  0  0  2  0  0  0  0  0  0
  184.4150  179.0920  139.7200 C   0  0  0  0  0  0  0  0  0  0  0  0
  184.5430  180.2400  139.2140 O   0  0  0  0  0  0  0  0  0  0  0  0
  180.0960  175.9650  139.9650 C   0  0  0  0  0  1  0  0  0  0  0  0
  182.7600  176.8230  139.7850 S   0  0  0  0  0  0  0  0  0  0  0  0
  180.7820  178.3670  139.9810 N   0  0  0  0  0  0  0  0  0  0  0  0
  183.0830  178.4760  139.8070 C   0  0  0  0  0  0  0  0  0  0  0  0
  181.8810  179.1670  139.9200 C   0  0  0  0  0  3  0  0  0  0  0  0
  181.1030  177.0570  139.9200 C   0  0  0  0  0  0  0  0  0  0  0  0
  1  6  1  0  0  0  0
  2  3  1  0  0  0  0
  2  4  1  0  0  0  0
  5  8  1  0  0  0  0
  6  5  2  0  0  0  0
  6  7  1  0  0  0  0
  7  2  2  0  0  0  0
  8  3  2  0  0  0  0
  9 10  2  0  0  0  0
 10  7  1  0  0  0  0
 11 13  1  0  0  0  0
 12 10  1  0  0  0  0
 12 11  2  0  0  0  0
 13 14  3  0  0  0  0
 15 18  1  6  0  0  0
 15  1  1  0  0  0  0
 16 18  2  0  0  0  0
 17 19  1  0  0  0  0
 18 19  1  0  0  0  0
 20 25  1  0  0  0  0
 20 15  1  0  0  0  0
 21 20  2  0  0  0  0
 23 25  1  0  0  0  0
 23 27  1  0  0  0  0
 25 26  2  0  0  0  0
 26 24  1  0  0  0  0
 27 22  1  0  0  0  0
 27 24  2  0  0  0  0
M  END
>  <MODEL>
5

>  <REMARK>
 VINA RESULT:      -7.2      3.169      6.756
  Name = 
  8 active torsions:
  status: ('A' for Active; 'I' for Inactive)
    1  A    between atoms: C_2  and  N_6
    2  A    between atoms: C_2  and  C_8
    3  A    between atoms: C_2  and  C_22
    4  A    between atoms: N_6  and  C_19
    5  A    between atoms: C_8  and  C_13
    6  A    between atoms: C_10  and  N_16
    7  A    between atoms: C_20  and  C_27
    8  A    between atoms: N_24  and  C_27
                            x       y       z     vdW  Elec       q    Type
                         _______ _______ _______ _____ _____    ______ ____

>  <TORSDO>
F 8

$$$$
=
 OpenBabel10232411423D

 27 28  0  0  1  0  0  0  0  0999 V2000
  187.5190  177.3440  141.7420 N   0  0  0  0  0  2  0  0  0  0  0  0
  185.0110  178.6160  144.2300 C   0  0  0  0  0  0  0  0  0  0  0  0
  185.7190  178.4370  145.4200 C   0  0  0  0  0  3  0  0  0  0  0  0
  183.7670  179.1550  144.2970 F   0  0  0  0  0  0  0  0  0  0  0  0
  187.5990  177.5680  144.1850 C   0  0  0  0  0  3  0  0  0  0  0  0
  186.9090  177.7450  142.9760 C   0  0  0  0  0  0  0  0  0  0  0  0
  185.5950  178.2780  142.9900 C   0  0  0  0  0  0  0  0  0  0  0  0
  187.0090  177.9140  145.3990 C   0  0  0  0  0  3  0  0  0  0  0  0
  183.8690  177.6700  141.4300 N   0  0  0  0  0  2  0  0  0  0  0  0
  184.8330  178.4800  141.7310 C   0  0  0  0  0  0  0  0  0  0  0  0
  185.0380  179.5550  139.5520 N   0  0  0  0  0  0  0  0  0  0  0  0
  185.2450  179.5140  140.8140 N   0  0  0  0  0  0  0  0  0  0  0  0
  184.3300  178.5870  138.8190 C   0  0  0  0  0  0  0  0  0  0  0  0
  183.7290  177.7510  138.1900 C   0  0  0  0  0  3  0  0  0  0  0  0
  188.6840  178.0010  141.1600 C   0  0  2  0  0  3  0  0  0  0  0  0
  188.9820  179.2500  139.1380 O   0  0  0  0  0  0  0  0  0  0  0  0
  187.5030  177.4520  137.5120 C   0  0  0  0  0  1  0  0  0  0  0  0
  188.4920  178.2290  139.6930 C   0  0  0  0  0  0  0  0  0  0  0  0
  187.7320  177.2870  138.9370 N   0  0  0  0  0  2  0  0  0  0  0  0
  189.9200  177.1960  141.4160 C   0  0  0  0  0  0  0  0  0  0  0  0
  190.4440  176.5340  140.4790 O   0  0  0  0  0  0  0  0  0  0  0  0
  191.9810  176.1620  146.2290 C   0  0  0  0  0  1  0  0  0  0  0  0
  190.7690  175.8340  143.7210 S   0  0  0  0  0  0  0  0  0  0  0  0
  191.5500  178.0430  144.6430 N   0  0  0  0  0  0  0  0  0  0  0  0
  190.5370  177.1900  142.7490 C   0  0  0  0  0  0  0  0  0  0  0  0
  191.0260  178.3090  143.4160 C   0  0  0  0  0  3  0  0  0  0  0  0
  191.4820  176.7300  144.9500 C   0  0  0  0  0  0  0  0  0  0  0  0
  1  6  1  0  0  0  0
  2  4  1  0  0  0  0
  2  3  1  0  0  0  0
  5  8  1  0  0  0  0
  6  7  1  0  0  0  0
  6  5  2  0  0  0  0
  7  2  2  0  0  0  0
  8  3  2  0  0  0  0
  9 10  2  0  0  0  0
 10  7  1  0  0  0  0
 11 12  2  0  0  0  0
 12 10  1  0  0  0  0
 13 11  1  0  0  0  0
 14 13  3  0  0  0  0
 15 18  1  6  0  0  0
 15 20  1  0  0  0  0
 15  1  1  0  0  0  0
 16 18  2  0  0  0  0
 17 19  1  0  0  0  0
 19 18  1  0  0  0  0
 20 25  1  0  0  0  0
 21 20  2  0  0  0  0
 23 27  1  0  0  0  0
 24 27  2  0  0  0  0
 25 26  2  0  0  0  0
 25 23  1  0  0  0  0
 26 24  1  0  0  0  0
 27 22  1  0  0  0  0
M  END
>  <MODEL>
6

>  <REMARK>
 VINA RESULT:      -7.1      2.155      2.724
  Name = 
  8 active torsions:
  status: ('A' for Active; 'I' for Inactive)
    1  A    between atoms: C_2  and  N_6
    2  A    between atoms: C_2  and  C_8
    3  A    between atoms: C_2  and  C_22
    4  A    between atoms: N_6  and  C_19
    5  A    between atoms: C_8  and  C_13
    6  A    between atoms: C_10  and  N_16
    7  A    between atoms: C_20  and  C_27
    8  A    between atoms: N_24  and  C_27
                            x       y       z     vdW  Elec       q    Type
                         _______ _______ _______ _____ _____    ______ ____

>  <TORSDO>
F 8

$$$$
=
 OpenBabel10232411423D

 27 28  0  0  1  0  0  0  0  0999 V2000
  187.8840  177.5510  142.4840 N   0  0  0  0  0  2  0  0  0  0  0  0
  188.5500  177.8880  146.1640 C   0  0  0  0  0  0  0  0  0  0  0  0
  187.2520  177.7830  146.6680 C   0  0  0  0  0  3  0  0  0  0  0  0
  189.5710  178.0440  147.0440 F   0  0  0  0  0  0  0  0  0  0  0  0
  186.3920  177.5060  144.4330 C   0  0  0  0  0  3  0  0  0  0  0  0
  187.6880  177.6030  143.9040 C   0  0  0  0  0  0  0  0  0  0  0  0
  188.7900  177.7950  144.7760 C   0  0  0  0  0  0  0  0  0  0  0  0
  186.1750  177.5930  145.8070 C   0  0  0  0  0  3  0  0  0  0  0  0
  190.7200  179.0680  144.1150 N   0  0  0  0  0  2  0  0  0  0  0  0
  190.1760  177.9010  144.2530 C   0  0  0  0  0  0  0  0  0  0  0  0
  191.5680  175.9170  144.5230 N   0  0  0  0  0  0  0  0  0  0  0  0
  190.8580  176.7100  143.8120 N   0  0  0  0  0  0  0  0  0  0  0  0
  191.7950  176.0560  145.9020 C   0  0  0  0  0  0  0  0  0  0  0  0
  191.9840  176.1810  147.0870 C   0  0  0  0  0  3  0  0  0  0  0  0
  187.4980  178.6210  141.5700 C   0  0  2  0  0  3  0  0  0  0  0  0
  185.7030  180.0580  142.2370 O   0  0  0  0  0  0  0  0  0  0  0  0
  183.6420  178.2770  141.4330 C   0  0  0  0  0  1  0  0  0  0  0  0
  186.0490  178.9590  141.7250 C   0  0  0  0  0  0  0  0  0  0  0  0
  185.0650  178.0140  141.3060 N   0  0  0  0  0  2  0  0  0  0  0  0
  187.8060  178.2350  140.1570 C   0  0  0  0  0  0  0  0  0  0  0  0
  186.9420  178.4100  139.2550 O   0  0  0  0  0  0  0  0  0  0  0  0
  192.1300  175.9650  138.0030 C   0  0  0  0  0  1  0  0  0  0  0  0
  189.5230  176.9400  138.3500 S   0  0  0  0  0  0  0  0  0  0  0  0
  191.3360  177.0850  140.0900 N   0  0  0  0  0  0  0  0  0  0  0  0
  189.1200  177.6750  139.8110 C   0  0  0  0  0  0  0  0  0  0  0  0
  190.2360  177.6650  140.6420 C   0  0  0  0  0  3  0  0  0  0  0  0
  191.1020  176.6400  138.8380 C   0  0  0  0  0  0  0  0  0  0  0  0
  1  6  1  0  0  0  0
  2  3  1  0  0  0  0
  2  4  1  0  0  0  0
  5  8  1  0  0  0  0
  6  5  2  0  0  0  0
  6  7  1  0  0  0  0
  7  2  2  0  0  0  0
  8  3  2  0  0  0  0
  9 10  2  0  0  0  0
 10  7  1  0  0  0  0
 11 13  1  0  0  0  0
 12 10  1  0  0  0  0
 12 11  2  0  0  0  0
 13 14  3  0  0  0  0
 15 20  1  6  0  0  0
 15 18  1  0  0  0  0
 15  1  1  0  0  0  0
 18 16  2  0  0  0  0
 19 17  1  0  0  0  0
 19 18  1  0  0  0  0
 21 20  2  0  0  0  0
 22 27  1  0  0  0  0
 23 27  1  0  0  0  0
 23 25  1  0  0  0  0
 24 26  1  0  0  0  0
 25 20  1  0  0  0  0
 25 26  2  0  0  0  0
 27 24  2  0  0  0  0
M  END
>  <MODEL>
7

>  <REMARK>
 VINA RESULT:      -7.0      3.355      7.036
  Name = 
  8 active torsions:
  status: ('A' for Active; 'I' for Inactive)
    1  A    between atoms: C_2  and  N_6
    2  A    between atoms: C_2  and  C_8
    3  A    between atoms: C_2  and  C_22
    4  A    between atoms: N_6  and  C_19
    5  A    between atoms: C_8  and  C_13
    6  A    between atoms: C_10  and  N_16
    7  A    between atoms: C_20  and  C_27
    8  A    between atoms: N_24  and  C_27
                            x       y       z     vdW  Elec       q    Type
                         _______ _______ _______ _____ _____    ______ ____

>  <TORSDO>
F 8

$$$$
=
 OpenBabel10232411423D

 27 28  0  0  1  0  0  0  0  0999 V2000
  189.6340  176.8290  140.4810 N   0  0  0  0  0  2  0  0  0  0  0  0
  189.6800  177.2250  136.7470 C   0  0  0  0  0  0  0  0  0  0  0  0
  188.5620  178.0420  136.5640 C   0  0  0  0  0  3  0  0  0  0  0  0
  190.3970  176.8620  135.6530 F   0  0  0  0  0  0  0  0  0  0  0  0
  188.1770  178.0710  138.9440 C   0  0  0  0  0  3  0  0  0  0  0  0
  189.2990  177.2550  139.1530 C   0  0  0  0  0  0  0  0  0  0  0  0
  190.0690  176.8220  138.0430 C   0  0  0  0  0  0  0  0  0  0  0  0
  187.8120  178.4650  137.6580 C   0  0  0  0  0  3  0  0  0  0  0  0
  191.1460  174.6740  138.1190 N   0  0  0  0  0  2  0  0  0  0  0  0
  191.2640  175.9590  138.2240 C   0  0  0  0  0  0  0  0  0  0  0  0
  193.5600  176.7090  137.8900 N   0  0  0  0  0  0  0  0  0  0  0  0
  192.5160  176.5580  138.6150 N   0  0  0  0  0  0  0  0  0  0  0  0
  193.6660  176.3320  136.5410 C   0  0  0  0  0  0  0  0  0  0  0  0
  193.7660  176.0080  135.3830 C   0  0  0  0  0  3  0  0  0  0  0  0
  189.3600  177.6140  141.6800 C   0  0  2  0  0  3  0  0  0  0  0  0
  191.7100  177.3750  142.0720 O   0  0  0  0  0  0  0  0  0  0  0  0
  191.7660  179.0980  144.3280 C   0  0  0  0  0  1  0  0  0  0  0  0
  190.6230  177.9060  142.4270 C   0  0  0  0  0  0  0  0  0  0  0  0
  190.5780  178.7770  143.5570 N   0  0  0  0  0  2  0  0  0  0  0  0
  188.3780  176.9010  142.5560 C   0  0  0  0  0  0  0  0  0  0  0  0
  188.6020  175.7140  142.9170 O   0  0  0  0  0  0  0  0  0  0  0  0
  184.1850  178.9610  145.1380 C   0  0  0  0  0  1  0  0  0  0  0  0
  186.5360  177.5370  144.5800 S   0  0  0  0  0  0  0  0  0  0  0  0
  185.2710  178.9080  142.8890 N   0  0  0  0  0  0  0  0  0  0  0  0
  187.1620  177.5880  143.0170 C   0  0  0  0  0  0  0  0  0  0  0  0
  186.3390  178.3850  142.2280 C   0  0  0  0  0  3  0  0  0  0  0  0
  185.2430  178.5340  144.1860 C   0  0  0  0  0  0  0  0  0  0  0  0
  2  7  1  0  0  0  0
  3  2  2  0  0  0  0
  3  8  1  0  0  0  0
  4  2  1  0  0  0  0
  5  6  1  0  0  0  0
  6  1  1  0  0  0  0
  7 10  1  0  0  0  0
  7  6  2  0  0  0  0
  8  5  2  0  0  0  0
  9 10  2  0  0  0  0
 10 12  1  0  0  0  0
 11 12  2  0  0  0  0
 13 11  1  0  0  0  0
 14 13  3  0  0  0  0
 15  1  1  6  0  0  0
 15 18  1  0  0  0  0
 15 20  1  0  0  0  0
 16 18  2  0  0  0  0
 18 19  1  0  0  0  0
 19 17  1  0  0  0  0
 20 21  2  0  0  0  0
 20 25  1  0  0  0  0
 24 27  2  0  0  0  0
 25 23  1  0  0  0  0
 26 24  1  0  0  0  0
 26 25  2  0  0  0  0
 27 23  1  0  0  0  0
 27 22  1  0  0  0  0
M  END
>  <MODEL>
8

>  <REMARK>
 VINA RESULT:      -6.9      3.771      7.072
  Name = 
  8 active torsions:
  status: ('A' for Active; 'I' for Inactive)
    1  A    between atoms: C_2  and  N_6
    2  A    between atoms: C_2  and  C_8
    3  A    between atoms: C_2  and  C_22
    4  A    between atoms: N_6  and  C_19
    5  A    between atoms: C_8  and  C_13
    6  A    between atoms: C_10  and  N_16
    7  A    between atoms: C_20  and  C_27
    8  A    between atoms: N_24  and  C_27
                            x       y       z     vdW  Elec       q    Type
                         _______ _______ _______ _____ _____    ______ ____

>  <TORSDO>
F 8

$$$$
=
 OpenBabel10232411423D

 27 28  0  0  1  0  0  0  0  0999 V2000
  186.9920  178.8330  141.1870 N   0  0  0  0  0  2  0  0  0  0  0  0
  183.4320  178.5130  142.3350 C   0  0  0  0  0  0  0  0  0  0  0  0
  183.6110  178.4950  143.7200 C   0  0  0  0  0  3  0  0  0  0  0  0
  182.1660  178.4390  141.8500 F   0  0  0  0  0  0  0  0  0  0  0  0
  185.9940  178.7200  143.4270 C   0  0  0  0  0  3  0  0  0  0  0  0
  185.8370  178.7470  142.0330 C   0  0  0  0  0  0  0  0  0  0  0  0
  184.5400  178.6440  141.4700 C   0  0  0  0  0  0  0  0  0  0  0  0
  184.8880  178.5980  144.2660 C   0  0  0  0  0  3  0  0  0  0  0  0
  184.1160  177.5610  139.3650 N   0  0  0  0  0  2  0  0  0  0  0  0
  184.3330  178.6690  139.9990 C   0  0  0  0  0  0  0  0  0  0  0  0
  183.5450  180.6670  138.8440 N   0  0  0  0  0  0  0  0  0  0  0  0
  184.4810  179.9140  139.2860 N   0  0  0  0  0  0  0  0  0  0  0  0
  182.1710  180.4210  139.0010 C   0  0  0  0  0  0  0  0  0  0  0  0
  180.9920  180.2020  139.1350 C   0  0  0  0  0  3  0  0  0  0  0  0
  187.8710  177.7060  140.8940 C   0  0  2  0  0  3  0  0  0  0  0  0
  188.6790  176.2800  142.6390 O   0  0  0  0  0  0  0  0  0  0  0  0
  190.5460  178.1620  143.6590 C   0  0  0  0  0  1  0  0  0  0  0  0
  188.7540  177.3990  142.0620 C   0  0  0  0  0  0  0  0  0  0  0  0
  189.6650  178.3940  142.5270 N   0  0  0  0  0  2  0  0  0  0  0  0
  188.6870  177.9860  139.6700 C   0  0  0  0  0  0  0  0  0  0  0  0
  188.7970  179.1680  139.2450 O   0  0  0  0  0  0  0  0  0  0  0  0
  190.3290  173.9400  136.6000 C   0  0  0  0  0  1  0  0  0  0  0  0
  188.7460  175.9690  137.7160 S   0  0  0  0  0  0  0  0  0  0  0  0
  191.0830  175.4150  138.4700 N   0  0  0  0  0  0  0  0  0  0  0  0
  189.3790  176.8910  138.9750 C   0  0  0  0  0  0  0  0  0  0  0  0
  190.6680  176.4470  139.2540 C   0  0  0  0  0  3  0  0  0  0  0  0
  190.1400  175.0430  137.5790 C   0  0  0  0  0  0  0  0  0  0  0  0
  1  6  1  0  0  0  0
  2  3  1  0  0  0  0
  3  8  2  0  0  0  0
  4  2  1  0  0  0  0
  5  8  1  0  0  0  0
  6  5  2  0  0  0  0
  7  6  1  0  0  0  0
  7  2  2  0  0  0  0
  9 10  2  0  0  0  0
 10  7  1  0  0  0  0
 11 13  1  0  0  0  0
 11 12  2  0  0  0  0
 12 10  1  0  0  0  0
 13 14  3  0  0  0  0
 15 20  1  6  0  0  0
 15  1  1  0  0  0  0
 15 18  1  0  0  0  0
 18 19  1  0  0  0  0
 18 16  2  0  0  0  0
 19 17  1  0  0  0  0
 21 20  2  0  0  0  0
 22 27  1  0  0  0  0
 23 25  1  0  0  0  0
 24 26  1  0  0  0  0
 25 26  2  0  0  0  0
 25 20  1  0  0  0  0
 27 23  1  0  0  0  0
 27 24  2  0  0  0  0
M  END
>  <MODEL>
9

>  <REMARK>
 VINA RESULT:      -6.4      2.687      4.687
  Name = 
  8 active torsions:
  status: ('A' for Active; 'I' for Inactive)
    1  A    between atoms: C_2  and  N_6
    2  A    between atoms: C_2  and  C_8
    3  A    between atoms: C_2  and  C_22
    4  A    between atoms: N_6  and  C_19
    5  A    between atoms: C_8  and  C_13
    6  A    between atoms: C_10  and  N_16
    7  A    between atoms: C_20  and  C_27
    8  A    between atoms: N_24  and  C_27
                            x       y       z     vdW  Elec       q    Type
                         _______ _______ _______ _____ _____    ______ ____

>  <TORSDO>
F 8

$$$$
