=
 OpenBabel10222422053D

 31 37  0  0  1  0  0  0  0  0999 V2000
  189.1900  177.3750  138.4310 C   0  0  0  0  0  2  0  0  0  0  0  0
  186.6460  178.4110  140.9360 C   0  0  0  0  0  0  0  0  0  0  0  0
  186.8270  178.2180  142.2810 C   0  0  0  0  0  0  0  0  0  0  0  0
  186.5280  178.0720  145.0310 C   0  0  0  0  0  0  0  0  0  0  0  0
  185.2060  178.3580  146.9690 C   0  0  0  0  0  3  0  0  0  0  0  0
  187.1240  178.6320  138.5430 N   0  0  1  0  0  0  0  0  0  0  0  0
  185.4490  178.5230  144.2340 C   0  0  0  0  0  0  0  0  0  0  0  0
  185.6270  178.5860  142.8540 C   0  0  0  0  0  0  0  0  0  0  0  0
  187.9910  177.8750  137.6170 C   0  0  2  0  0  3  0  0  0  0  0  0
  184.7580  178.9680  141.9360 O   0  0  0  0  0  0  0  0  0  0  0  0
  185.6700  178.4260  138.3290 C   0  0  0  0  0  2  0  0  0  0  0  0
  185.3640  178.8520  140.7680 C   0  0  0  0  0  0  0  0  0  0  0  0
  187.9130  177.7710  143.0300 C   0  0  0  0  0  3  0  0  0  0  0  0
  184.2570  178.8820  144.8620 C   0  0  0  0  0  3  0  0  0  0  0  0
  188.7300  177.4170  139.8720 C   0  0  0  0  0  2  0  0  0  0  0  0
  187.5020  178.1790  139.8220 N   0  0  0  0  0  0  0  0  0  0  0  0
  184.8150  179.1450  139.4030 C   0  0  2  0  0  3  0  0  0  0  0  0
  184.1610  178.7920  146.2140 N   0  0  0  0  0  0  0  0  0  0  0  0
  187.7500  177.7000  144.4280 C   0  0  0  0  0  3  0  0  0  0  0  0
  186.3800  178.0010  146.3780 N   0  0  0  0  0  0  0  0  0  0  0  0
  181.6560  177.0880  139.3070 N   0  0  0  0  0  0  0  0  0  0  0  0
  183.3780  178.7430  139.2910 C   0  0  0  0  0  0  0  0  0  0  0  0
  182.9720  177.4090  139.4090 C   0  0  0  0  0  3  0  0  0  0  0  0
  182.4000  179.7130  139.0750 C   0  0  0  0  0  3  0  0  0  0  0  0
  180.7200  178.0500  139.0940 C   0  0  0  0  0  3  0  0  0  0  0  0
  181.0940  179.3520  138.9790 N   0  0  0  0  0  0  0  0  0  0  0  0
  187.9240  174.7530  135.6770 C   0  0  0  0  0  2  0  0  0  0  0  0
  187.3050  176.7180  136.8570 C   0  0  1  0  0  3  0  0  0  0  0  0
  187.2330  177.0060  135.4860 O   0  0  0  0  0  0  0  0  0  0  0  0
  187.1510  175.7580  134.8550 C   0  0  0  0  0  2  0  0  0  0  0  0
  188.0040  175.3810  137.0350 C   0  0  0  0  0  2  0  0  0  0  0  0
  1 15  1  0  0  0  0
  2  3  1  0  0  0  0
  3  8  2  0  0  0  0
  3 13  1  0  0  0  0
  4 20  1  0  0  0  0
  6 11  1  6  0  0  0
  6 16  1  0  0  0  0
  7 14  1  0  0  0  0
  7  4  2  0  0  0  0
  8  7  1  0  0  0  0
  9  1  1  1  0  0  0
  9  6  1  0  0  0  0
 10  8  1  0  0  0  0
 11 17  1  0  0  0  0
 12  2  2  0  0  0  0
 12 10  1  0  0  0  0
 13 19  2  0  0  0  0
 14 18  2  0  0  0  0
 16 15  1  0  0  0  0
 16  2  1  0  0  0  0
 17 22  1  1  0  0  0
 17 12  1  0  0  0  0
 18  5  1  0  0  0  0
 19  4  1  0  0  0  0
 20  5  2  0  0  0  0
 21 23  1  0  0  0  0
 22 23  2  0  0  0  0
 24 22  1  0  0  0  0
 25 21  2  0  0  0  0
 26 24  2  0  0  0  0
 26 25  1  0  0  0  0
 27 31  1  0  0  0  0
 28 31  1  6  0  0  0
 28  9  1  0  0  0  0
 29 28  1  0  0  0  0
 30 29  1  0  0  0  0
 30 27  1  0  0  0  0
M  END
>  <MODEL>
1

>  <REMARK>
 VINA RESULT:      -9.0      0.000      0.000
  Name = 
  2 active torsions:
  status: ('A' for Active; 'I' for Inactive)
    1  A    between atoms: C_8  and  C_14
    2  A    between atoms: C_9  and  C_26
                            x       y       z     vdW  Elec       q    Type
                         _______ _______ _______ _____ _____    ______ ____

>  <TORSDO>
F 2

$$$$
=
 OpenBabel10222422053D

 31 37  0  0  1  0  0  0  0  0999 V2000
  189.4420  177.0140  137.9390 C   0  0  0  0  0  2  0  0  0  0  0  0
  188.9660  177.7530  141.5520 C   0  0  0  0  0  0  0  0  0  0  0  0
  189.8020  177.2510  142.5140 C   0  0  0  0  0  0  0  0  0  0  0  0
  191.0240  176.5400  144.8960 C   0  0  0  0  0  0  0  0  0  0  0  0
  191.0670  176.5390  147.2590 C   0  0  0  0  0  3  0  0  0  0  0  0
  188.0990  178.4380  139.3640 N   0  0  1  0  0  0  0  0  0  0  0  0
  189.8120  177.2720  144.9240 C   0  0  0  0  0  0  0  0  0  0  0  0
  189.2200  177.6150  143.7100 C   0  0  0  0  0  0  0  0  0  0  0  0
  188.1350  177.8110  138.0270 C   0  0  2  0  0  3  0  0  0  0  0  0
  188.0990  178.2840  143.5110 O   0  0  0  0  0  0  0  0  0  0  0  0
  186.7590  178.4470  140.0030 C   0  0  0  0  0  2  0  0  0  0  0  0
  187.9300  178.3600  142.2040 C   0  0  0  0  0  0  0  0  0  0  0  0
  190.9930  176.5320  142.4450 C   0  0  0  0  0  3  0  0  0  0  0  0
  189.2650  177.6150  146.1590 C   0  0  0  0  0  3  0  0  0  0  0  0
  189.8610  176.7900  139.3760 C   0  0  0  0  0  2  0  0  0  0  0  0
  189.0030  177.6760  140.1300 N   0  0  0  0  0  0  0  0  0  0  0  0
  186.8060  179.0040  141.4470 C   0  0  2  0  0  3  0  0  0  0  0  0
  189.9030  177.2430  147.3000 N   0  0  0  0  0  0  0  0  0  0  0  0
  191.6060  176.1750  143.6620 C   0  0  0  0  0  3  0  0  0  0  0  0
  191.6210  176.1930  146.0650 N   0  0  0  0  0  0  0  0  0  0  0  0
  184.1930  178.4270  144.1040 N   0  0  0  0  0  0  0  0  0  0  0  0
  185.4920  178.7990  142.1360 C   0  0  0  0  0  0  0  0  0  0  0  0
  185.4050  178.6030  143.5180 C   0  0  0  0  0  3  0  0  0  0  0  0
  184.3110  178.8110  141.3960 C   0  0  0  0  0  3  0  0  0  0  0  0
  183.0530  178.4410  143.3630 C   0  0  0  0  0  3  0  0  0  0  0  0
  183.1170  178.6320  142.0190 N   0  0  0  0  0  0  0  0  0  0  0  0
  186.2850  175.3570  136.0100 C   0  0  0  0  0  2  0  0  0  0  0  0
  186.9150  176.9320  137.6700 C   0  0  1  0  0  3  0  0  0  0  0  0
  186.0870  177.5940  136.7510 O   0  0  0  0  0  0  0  0  0  0  0  0
  185.3920  176.5730  136.0870 C   0  0  0  0  0  2  0  0  0  0  0  0
  187.2940  175.5790  137.0940 C   0  0  0  0  0  2  0  0  0  0  0  0
  1 15  1  0  0  0  0
  2 12  2  0  0  0  0
  2  3  1  0  0  0  0
  3  8  1  0  0  0  0
  4  7  1  0  0  0  0
  4 20  1  0  0  0  0
  5 18  1  0  0  0  0
  6 11  1  1  0  0  0
  6 16  1  0  0  0  0
  7 14  1  0  0  0  0
  8  7  2  0  0  0  0
  9  1  1  1  0  0  0
  9  6  1  0  0  0  0
 10  8  1  0  0  0  0
 11 17  1  0  0  0  0
 12 10  1  0  0  0  0
 13  3  2  0  0  0  0
 13 19  1  0  0  0  0
 14 18  2  0  0  0  0
 15 16  1  0  0  0  0
 16  2  1  0  0  0  0
 17 22  1  1  0  0  0
 17 12  1  0  0  0  0
 19  4  2  0  0  0  0
 20  5  2  0  0  0  0
 22 23  2  0  0  0  0
 23 21  1  0  0  0  0
 24 26  2  0  0  0  0
 24 22  1  0  0  0  0
 25 21  2  0  0  0  0
 26 25  1  0  0  0  0
 27 30  1  0  0  0  0
 27 31  1  0  0  0  0
 28 31  1  6  0  0  0
 28  9  1  0  0  0  0
 29 28  1  0  0  0  0
 30 29  1  0  0  0  0
M  END
>  <MODEL>
2

>  <REMARK>
 VINA RESULT:      -8.6      2.415      3.626
  Name = 
  2 active torsions:
  status: ('A' for Active; 'I' for Inactive)
    1  A    between atoms: C_8  and  C_14
    2  A    between atoms: C_9  and  C_26
                            x       y       z     vdW  Elec       q    Type
                         _______ _______ _______ _____ _____    ______ ____

>  <TORSDO>
F 2

$$$$
=
 OpenBabel10222422053D

 31 37  0  0  1  0  0  0  0  0999 V2000
  190.2140  177.1380  138.9940 C   0  0  0  0  0  2  0  0  0  0  0  0
  188.2740  177.9920  142.0480 C   0  0  0  0  0  0  0  0  0  0  0  0
  188.6960  177.6370  143.3020 C   0  0  0  0  0  0  0  0  0  0  0  0
  188.9220  177.1880  146.0260 C   0  0  0  0  0  0  0  0  0  0  0  0
  188.0200  177.3070  148.2070 C   0  0  0  0  0  3  0  0  0  0  0  0
  188.2960  178.4650  139.6440 N   0  0  1  0  0  0  0  0  0  0  0  0
  187.7430  177.7760  145.5110 C   0  0  0  0  0  0  0  0  0  0  0  0
  187.6560  177.9900  144.1370 C   0  0  0  0  0  0  0  0  0  0  0  0
  188.9170  177.7830  138.4900 C   0  0  2  0  0  3  0  0  0  0  0  0
  186.6550  178.5140  143.4550 O   0  0  0  0  0  0  0  0  0  0  0  0
  186.8180  178.3520  139.7030 C   0  0  0  0  0  2  0  0  0  0  0  0
  187.0160  178.5070  142.1850 C   0  0  0  0  0  0  0  0  0  0  0  0
  189.8730  177.0570  143.7700 C   0  0  0  0  0  3  0  0  0  0  0  0
  186.7210  178.1140  146.3960 C   0  0  0  0  0  3  0  0  0  0  0  0
  190.0420  177.0340  140.4940 C   0  0  0  0  0  2  0  0  0  0  0  0
  188.8820  177.8510  140.7680 N   0  0  0  0  0  0  0  0  0  0  0  0
  186.2360  178.9800  140.9930 C   0  0  2  0  0  3  0  0  0  0  0  0
  186.8800  177.8730  147.7250 N   0  0  0  0  0  0  0  0  0  0  0  0
  189.9780  176.8330  145.1570 C   0  0  0  0  0  3  0  0  0  0  0  0
  189.0310  176.9690  147.3610 N   0  0  0  0  0  0  0  0  0  0  0  0
  182.7280  178.7010  142.3490 N   0  0  0  0  0  0  0  0  0  0  0  0
  184.7800  178.6590  141.1280 C   0  0  0  0  0  0  0  0  0  0  0  0
  184.0490  179.0050  142.2700 C   0  0  0  0  0  3  0  0  0  0  0  0
  184.1140  178.0070  140.0920 C   0  0  0  0  0  3  0  0  0  0  0  0
  182.0990  178.0620  141.3270 C   0  0  0  0  0  3  0  0  0  0  0  0
  182.7910  177.7190  140.2080 N   0  0  0  0  0  0  0  0  0  0  0  0
  188.2200  175.1180  136.0550 C   0  0  0  0  0  2  0  0  0  0  0  0
  188.0210  176.7530  137.7650 C   0  0  1  0  0  3  0  0  0  0  0  0
  187.4950  177.3050  136.5870 O   0  0  0  0  0  0  0  0  0  0  0  0
  187.2120  176.2060  135.7650 C   0  0  0  0  0  2  0  0  0  0  0  0
  188.7450  175.4640  137.4150 C   0  0  0  0  0  2  0  0  0  0  0  0
  1 15  1  0  0  0  0
  2 12  2  0  0  0  0
  2  3  1  0  0  0  0
  3 13  2  0  0  0  0
  3  8  1  0  0  0  0
  4 20  1  0  0  0  0
  6 11  1  1  0  0  0
  6 16  1  0  0  0  0
  7  4  1  0  0  0  0
  7 14  1  0  0  0  0
  8  7  2  0  0  0  0
  9  1  1  1  0  0  0
  9  6  1  0  0  0  0
 10  8  1  0  0  0  0
 11 17  1  0  0  0  0
 12 10  1  0  0  0  0
 13 19  1  0  0  0  0
 14 18  2  0  0  0  0
 15 16  1  0  0  0  0
 16  2  1  0  0  0  0
 17 22  1  1  0  0  0
 17 12  1  0  0  0  0
 18  5  1  0  0  0  0
 19  4  2  0  0  0  0
 20  5  2  0  0  0  0
 22 23  2  0  0  0  0
 23 21  1  0  0  0  0
 24 26  2  0  0  0  0
 24 22  1  0  0  0  0
 25 21  2  0  0  0  0
 26 25  1  0  0  0  0
 27 31  1  0  0  0  0
 28 31  1  6  0  0  0
 28  9  1  0  0  0  0
 29 28  1  0  0  0  0
 30 27  1  0  0  0  0
 30 29  1  0  0  0  0
M  END
>  <MODEL>
3

>  <REMARK>
 VINA RESULT:      -8.2      1.688      2.312
  Name = 
  2 active torsions:
  status: ('A' for Active; 'I' for Inactive)
    1  A    between atoms: C_8  and  C_14
    2  A    between atoms: C_9  and  C_26
                            x       y       z     vdW  Elec       q    Type
                         _______ _______ _______ _____ _____    ______ ____

>  <TORSDO>
F 2

$$$$
=
 OpenBabel10222422053D

 31 37  0  0  1  0  0  0  0  0999 V2000
  192.0110  176.4460  138.6980 C   0  0  0  0  0  2  0  0  0  0  0  0
  188.9720  177.6590  140.4630 C   0  0  0  0  0  0  0  0  0  0  0  0
  188.8400  177.5760  141.8240 C   0  0  0  0  0  0  0  0  0  0  0  0
  187.9180  177.6490  144.4360 C   0  0  0  0  0  0  0  0  0  0  0  0
  186.1910  178.0780  145.9910 C   0  0  0  0  0  3  0  0  0  0  0  0
  189.9860  177.6900  138.2330 N   0  0  1  0  0  0  0  0  0  0  0  0
  187.0540  178.0250  143.3800 C   0  0  0  0  0  0  0  0  0  0  0  0
  187.5440  177.9780  142.0760 C   0  0  0  0  0  0  0  0  0  0  0  0
  191.0350  176.8690  137.5930 C   0  0  2  0  0  3  0  0  0  0  0  0
  186.9120  178.2780  140.9570 O   0  0  0  0  0  0  0  0  0  0  0  0
  188.6180  177.4550  137.7090 C   0  0  0  0  0  2  0  0  0  0  0  0
  187.7670  178.0740  139.9720 C   0  0  0  0  0  0  0  0  0  0  0  0
  189.7200  177.2000  142.8350 C   0  0  0  0  0  3  0  0  0  0  0  0
  185.7550  178.4230  143.6880 C   0  0  0  0  0  3  0  0  0  0  0  0
  191.2340  176.6000  139.9870 C   0  0  0  0  0  2  0  0  0  0  0  0
  190.0580  177.3450  139.5960 N   0  0  0  0  0  0  0  0  0  0  0  0
  187.5480  178.2510  138.4980 C   0  0  2  0  0  3  0  0  0  0  0  0
  185.3500  178.4420  144.9850 N   0  0  0  0  0  0  0  0  0  0  0  0
  189.2420  177.2400  144.1600 C   0  0  0  0  0  3  0  0  0  0  0  0
  187.4650  177.6860  145.7150 N   0  0  0  0  0  0  0  0  0  0  0  0
  183.8060  178.1610  138.0430 N   0  0  0  0  0  0  0  0  0  0  0  0
  186.1700  177.8290  138.0930 C   0  0  0  0  0  0  0  0  0  0  0  0
  185.0370  178.5760  138.4350 C   0  0  0  0  0  3  0  0  0  0  0  0
  185.9910  176.6660  137.3450 C   0  0  0  0  0  3  0  0  0  0  0  0
  183.6540  177.0230  137.3150 C   0  0  0  0  0  3  0  0  0  0  0  0
  184.7420  176.2830  136.9720 N   0  0  0  0  0  0  0  0  0  0  0  0
  191.4110  173.6650  135.8290 C   0  0  0  0  0  2  0  0  0  0  0  0
  190.5290  175.6490  136.7920 C   0  0  1  0  0  3  0  0  0  0  0  0
  190.6720  175.8730  135.4150 O   0  0  0  0  0  0  0  0  0  0  0  0
  190.7440  174.5960  134.8430 C   0  0  0  0  0  2  0  0  0  0  0  0
  191.2420  174.3550  137.1490 C   0  0  0  0  0  2  0  0  0  0  0  0
  1 15  1  0  0  0  0
  2  3  1  0  0  0  0
  3  8  2  0  0  0  0
  3 13  1  0  0  0  0
  4 20  1  0  0  0  0
  6 11  1  6  0  0  0
  6 16  1  0  0  0  0
  7 14  1  0  0  0  0
  7  4  2  0  0  0  0
  8  7  1  0  0  0  0
  9  6  1  0  0  0  0
  9  1  1  1  0  0  0
 10  8  1  0  0  0  0
 11 17  1  0  0  0  0
 12  2  2  0  0  0  0
 12 10  1  0  0  0  0
 13 19  2  0  0  0  0
 14 18  2  0  0  0  0
 16 15  1  0  0  0  0
 16  2  1  0  0  0  0
 17 22  1  6  0  0  0
 17 12  1  0  0  0  0
 18  5  1  0  0  0  0
 19  4  1  0  0  0  0
 20  5  2  0  0  0  0
 21 23  1  0  0  0  0
 22 23  2  0  0  0  0
 24 22  1  0  0  0  0
 25 21  2  0  0  0  0
 26 25  1  0  0  0  0
 26 24  2  0  0  0  0
 27 31  1  0  0  0  0
 28 31  1  1  0  0  0
 28  9  1  0  0  0  0
 29 28  1  0  0  0  0
 30 29  1  0  0  0  0
 30 27  1  0  0  0  0
M  END
>  <MODEL>
4

>  <REMARK>
 VINA RESULT:      -7.7      2.160      2.927
  Name = 
  2 active torsions:
  status: ('A' for Active; 'I' for Inactive)
    1  A    between atoms: C_8  and  C_14
    2  A    between atoms: C_9  and  C_26
                            x       y       z     vdW  Elec       q    Type
                         _______ _______ _______ _____ _____    ______ ____

>  <TORSDO>
F 2

$$$$
=
 OpenBabel10222422053D

 31 37  0  0  1  0  0  0  0  0999 V2000
  183.1580  178.3660  138.0850 C   0  0  0  0  0  2  0  0  0  0  0  0
  186.4690  178.4170  139.7750 C   0  0  0  0  0  0  0  0  0  0  0  0
  187.6120  177.9900  139.1500 C   0  0  0  0  0  0  0  0  0  0  0  0
  190.2050  177.2410  138.5290 C   0  0  0  0  0  0  0  0  0  0  0  0
  192.4520  176.8950  139.1760 C   0  0  0  0  0  3  0  0  0  0  0  0
  184.1720  179.1970  140.1210 N   0  0  1  0  0  0  0  0  0  0  0  0
  189.8940  177.6500  139.8470 C   0  0  0  0  0  0  0  0  0  0  0  0
  188.5810  178.0210  140.1320 C   0  0  0  0  0  0  0  0  0  0  0  0
  182.8770  178.8060  139.5270 C   0  0  2  0  0  3  0  0  0  0  0  0
  188.0800  178.4250  141.2840 O   0  0  0  0  0  0  0  0  0  0  0  0
  184.3470  178.7910  141.5370 C   0  0  0  0  0  2  0  0  0  0  0  0
  186.7960  178.6550  141.0800 C   0  0  0  0  0  0  0  0  0  0  0  0
  187.8790  177.5950  137.8420 C   0  0  0  0  0  3  0  0  0  0  0  0
  190.9090  177.6630  140.8020 C   0  0  0  0  0  3  0  0  0  0  0  0
  184.6340  178.0350  138.0570 C   0  0  0  0  0  2  0  0  0  0  0  0
  185.1330  178.5670  139.3050 N   0  0  0  0  0  0  0  0  0  0  0  0
  185.7650  179.1180  142.0670 C   0  0  2  0  0  3  0  0  0  0  0  0
  192.1660  177.2860  140.4470 N   0  0  0  0  0  0  0  0  0  0  0  0
  189.2010  177.2160  137.5360 C   0  0  0  0  0  3  0  0  0  0  0  0
  191.4770  176.8740  138.2260 N   0  0  0  0  0  0  0  0  0  0  0  0
  187.0980  176.9730  144.8670 N   0  0  0  0  0  0  0  0  0  0  0  0
  185.9810  178.5050  143.4150 C   0  0  0  0  0  0  0  0  0  0  0  0
  186.9290  177.4980  143.6260 C   0  0  0  0  0  3  0  0  0  0  0  0
  185.2320  178.9450  144.5060 C   0  0  0  0  0  3  0  0  0  0  0  0
  186.3560  177.4150  145.9160 C   0  0  0  0  0  3  0  0  0  0  0  0
  185.4300  178.3940  145.7320 N   0  0  0  0  0  0  0  0  0  0  0  0
  180.7040  175.8560  139.8290 C   0  0  0  0  0  2  0  0  0  0  0  0
  182.0890  177.7250  140.3020 C   0  0  1  0  0  3  0  0  0  0  0  0
  180.7580  178.1270  140.4850 O   0  0  0  0  0  0  0  0  0  0  0  0
  180.0370  176.9360  140.6490 C   0  0  0  0  0  2  0  0  0  0  0  0
  182.0960  176.3680  139.6190 C   0  0  0  0  0  2  0  0  0  0  0  0
  2 12  2  0  0  0  0
  3  2  1  0  0  0  0
  3  8  1  0  0  0  0
  4  7  1  0  0  0  0
  5 18  1  0  0  0  0
  6 11  1  1  0  0  0
  7  8  2  0  0  0  0
  7 14  1  0  0  0  0
  8 10  1  0  0  0  0
  9  1  1  6  0  0  0
  9  6  1  0  0  0  0
  9 28  1  0  0  0  0
 11 17  1  0  0  0  0
 12 10  1  0  0  0  0
 12 17  1  0  0  0  0
 13  3  2  0  0  0  0
 15  1  1  0  0  0  0
 15 16  1  0  0  0  0
 16  2  1  0  0  0  0
 16  6  1  0  0  0  0
 17 22  1  1  0  0  0
 18 14  2  0  0  0  0
 19 13  1  0  0  0  0
 19  4  2  0  0  0  0
 20  4  1  0  0  0  0
 20  5  2  0  0  0  0
 21 25  1  0  0  0  0
 22 23  1  0  0  0  0
 22 24  2  0  0  0  0
 23 21  2  0  0  0  0
 24 26  1  0  0  0  0
 26 25  2  0  0  0  0
 27 30  1  0  0  0  0
 28 31  1  6  0  0  0
 28 29  1  0  0  0  0
 29 30  1  0  0  0  0
 31 27  1  0  0  0  0
M  END
>  <MODEL>
5

>  <REMARK>
 VINA RESULT:      -7.5      2.133      6.524
  Name = 
  2 active torsions:
  status: ('A' for Active; 'I' for Inactive)
    1  A    between atoms: C_8  and  C_14
    2  A    between atoms: C_9  and  C_26
                            x       y       z     vdW  Elec       q    Type
                         _______ _______ _______ _____ _____    ______ ____

>  <TORSDO>
F 2

$$$$
=
 OpenBabel10222422053D

 31 37  0  0  1  0  0  0  0  0999 V2000
  183.8900  178.7420  138.7740 C   0  0  0  0  0  2  0  0  0  0  0  0
  187.4670  177.7510  138.9820 C   0  0  0  0  0  0  0  0  0  0  0  0
  188.0600  176.9600  138.0330 C   0  0  0  0  0  0  0  0  0  0  0  0
  189.8080  175.3920  136.5630 C   0  0  0  0  0  0  0  0  0  0  0  0
  191.9130  174.3480  136.3130 C   0  0  0  0  0  3  0  0  0  0  0  0
  185.8650  179.2440  140.0810 N   0  0  1  0  0  0  0  0  0  0  0  0
  190.2190  175.9110  137.8140 C   0  0  0  0  0  0  0  0  0  0  0  0
  189.3190  176.6960  138.5320 C   0  0  0  0  0  0  0  0  0  0  0  0
  184.3890  179.2830  140.1190 C   0  0  2  0  0  3  0  0  0  0  0  0
  189.4950  177.2680  139.7090 O   0  0  0  0  0  0  0  0  0  0  0  0
  186.5030  178.8360  141.3580 C   0  0  0  0  0  2  0  0  0  0  0  0
  188.3710  177.8990  139.9960 C   0  0  0  0  0  0  0  0  0  0  0  0
  187.6190  176.4690  136.8070 C   0  0  0  0  0  3  0  0  0  0  0  0
  191.5010  175.6140  138.2730 C   0  0  0  0  0  3  0  0  0  0  0  0
  185.0510  177.9470  138.2170 C   0  0  0  0  0  2  0  0  0  0  0  0
  186.1630  178.3170  139.0640 N   0  0  0  0  0  0  0  0  0  0  0  0
  188.0390  178.6960  141.2230 C   0  0  2  0  0  3  0  0  0  0  0  0
  192.3210  174.8400  137.5140 N   0  0  0  0  0  0  0  0  0  0  0  0
  188.5150  175.6730  136.0670 C   0  0  0  0  0  3  0  0  0  0  0  0
  190.6650  174.6240  135.8440 N   0  0  0  0  0  0  0  0  0  0  0  0
  190.3760  177.8600  144.0620 N   0  0  0  0  0  0  0  0  0  0  0  0
  188.6240  178.0770  142.4540 C   0  0  0  0  0  0  0  0  0  0  0  0
  189.8860  178.4420  142.9370 C   0  0  0  0  0  3  0  0  0  0  0  0
  187.9010  177.1150  143.1580 C   0  0  0  0  0  3  0  0  0  0  0  0
  189.6550  176.9230  144.7320 C   0  0  0  0  0  3  0  0  0  0  0  0
  188.4270  176.5550  144.2790 N   0  0  0  0  0  0  0  0  0  0  0  0
  181.7320  178.6340  142.5760 C   0  0  0  0  0  2  0  0  0  0  0  0
  183.7340  178.5360  141.3040 C   0  0  1  0  0  3  0  0  0  0  0  0
  184.0320  179.1810  142.5140 O   0  0  0  0  0  0  0  0  0  0  0  0
  182.9950  178.8170  143.3840 C   0  0  0  0  0  2  0  0  0  0  0  0
  182.2250  178.4130  141.1780 C   0  0  0  0  0  2  0  0  0  0  0  0
  2 16  1  0  0  0  0
  2 12  2  0  0  0  0
  3  8  1  0  0  0  0
  3  2  1  0  0  0  0
  4  7  1  0  0  0  0
  5 18  1  0  0  0  0
  6  9  1  0  0  0  0
  6 11  1  1  0  0  0
  7 14  1  0  0  0  0
  7  8  2  0  0  0  0
  8 10  1  0  0  0  0
  9  1  1  6  0  0  0
  9 28  1  0  0  0  0
 10 12  1  0  0  0  0
 12 17  1  0  0  0  0
 13  3  2  0  0  0  0
 15  1  1  0  0  0  0
 15 16  1  0  0  0  0
 16  6  1  0  0  0  0
 17 11  1  0  0  0  0
 17 22  1  1  0  0  0
 18 14  2  0  0  0  0
 19  4  2  0  0  0  0
 19 13  1  0  0  0  0
 20  5  2  0  0  0  0
 20  4  1  0  0  0  0
 21 25  1  0  0  0  0
 22 23  1  0  0  0  0
 22 24  2  0  0  0  0
 23 21  2  0  0  0  0
 24 26  1  0  0  0  0
 26 25  2  0  0  0  0
 27 30  1  0  0  0  0
 28 31  1  6  0  0  0
 28 29  1  0  0  0  0
 29 30  1  0  0  0  0
 31 27  1  0  0  0  0
M  END
>  <MODEL>
6

>  <REMARK>
 VINA RESULT:      -7.4      2.614      7.771
  Name = 
  2 active torsions:
  status: ('A' for Active; 'I' for Inactive)
    1  A    between atoms: C_8  and  C_14
    2  A    between atoms: C_9  and  C_26
                            x       y       z     vdW  Elec       q    Type
                         _______ _______ _______ _____ _____    ______ ____

>  <TORSDO>
F 2

$$$$
=
 OpenBabel10222422053D

 31 37  0  0  1  0  0  0  0  0999 V2000
  180.1040  179.6690  139.8990 C   0  0  0  0  0  2  0  0  0  0  0  0
  183.2830  178.5420  141.4630 C   0  0  0  0  0  0  0  0  0  0  0  0
  183.5310  178.6990  142.8010 C   0  0  0  0  0  0  0  0  0  0  0  0
  184.6720  178.7640  145.3250 C   0  0  0  0  0  0  0  0  0  0  0  0
  186.5250  178.4130  146.7490 C   0  0  0  0  0  3  0  0  0  0  0  0
  182.0830  178.3930  139.3320 N   0  0  1  0  0  0  0  0  0  0  0  0
  185.4430  178.3270  144.2210 C   0  0  0  0  0  0  0  0  0  0  0  0
  184.8440  178.3050  142.9640 C   0  0  0  0  0  0  0  0  0  0  0  0
  180.9830  179.1820  138.7400 C   0  0  2  0  0  3  0  0  0  0  0  0
  185.3790  177.9420  141.8130 O   0  0  0  0  0  0  0  0  0  0  0  0
  183.4020  178.5930  138.6820 C   0  0  0  0  0  2  0  0  0  0  0  0
  184.4420  178.0950  140.8940 C   0  0  0  0  0  0  0  0  0  0  0  0
  182.7400  179.1330  143.8620 C   0  0  0  0  0  3  0  0  0  0  0  0
  186.7640  177.9410  144.4390 C   0  0  0  0  0  3  0  0  0  0  0  0
  180.9890  179.5830  141.1230 C   0  0  0  0  0  2  0  0  0  0  0  0
  182.1270  178.8130  140.6760 N   0  0  0  0  0  0  0  0  0  0  0  0
  184.5350  177.8370  139.4190 C   0  0  2  0  0  3  0  0  0  0  0  0
  187.2780  177.9920  145.6960 N   0  0  0  0  0  0  0  0  0  0  0  0
  183.3290  179.1630  145.1410 C   0  0  0  0  0  3  0  0  0  0  0  0
  185.2320  178.7960  146.5610 N   0  0  0  0  0  0  0  0  0  0  0  0
  188.1820  178.7640  139.1730 N   0  0  0  0  0  0  0  0  0  0  0  0
  185.8740  178.2300  138.8760 C   0  0  0  0  0  0  0  0  0  0  0  0
  186.9840  178.4130  139.7080 C   0  0  0  0  0  3  0  0  0  0  0  0
  186.0400  178.4140  137.5040 C   0  0  0  0  0  3  0  0  0  0  0  0
  188.3210  178.9400  137.8330 C   0  0  0  0  0  3  0  0  0  0  0  0
  187.2550  178.7650  137.0080 N   0  0  0  0  0  0  0  0  0  0  0  0
  180.7340  182.5760  137.3490 C   0  0  0  0  0  2  0  0  0  0  0  0
  181.4190  180.3550  137.8330 C   0  0  1  0  0  3  0  0  0  0  0  0
  180.7120  180.3260  136.6210 O   0  0  0  0  0  0  0  0  0  0  0  0
  180.7320  181.6480  136.1560 C   0  0  0  0  0  2  0  0  0  0  0  0
  181.2250  181.7180  138.4750 C   0  0  0  0  0  2  0  0  0  0  0  0
  1 15  1  0  0  0  0
  2  3  1  0  0  0  0
  3  8  2  0  0  0  0
  3 13  1  0  0  0  0
  4 20  1  0  0  0  0
  6 11  1  6  0  0  0
  6 16  1  0  0  0  0
  7 14  1  0  0  0  0
  7  4  2  0  0  0  0
  8  7  1  0  0  0  0
  9  6  1  0  0  0  0
  9  1  1  1  0  0  0
 10  8  1  0  0  0  0
 11 17  1  0  0  0  0
 12  2  2  0  0  0  0
 12 10  1  0  0  0  0
 13 19  2  0  0  0  0
 14 18  2  0  0  0  0
 16 15  1  0  0  0  0
 16  2  1  0  0  0  0
 17 22  1  6  0  0  0
 17 12  1  0  0  0  0
 18  5  1  0  0  0  0
 19  4  1  0  0  0  0
 20  5  2  0  0  0  0
 21 23  1  0  0  0  0
 22 23  2  0  0  0  0
 24 22  1  0  0  0  0
 25 21  2  0  0  0  0
 26 24  2  0  0  0  0
 26 25  1  0  0  0  0
 27 31  1  0  0  0  0
 28 31  1  1  0  0  0
 28  9  1  0  0  0  0
 29 28  1  0  0  0  0
 30 29  1  0  0  0  0
 30 27  1  0  0  0  0
M  END
>  <MODEL>
7

>  <REMARK>
 VINA RESULT:      -7.4      2.136      5.534
  Name = 
  2 active torsions:
  status: ('A' for Active; 'I' for Inactive)
    1  A    between atoms: C_8  and  C_14
    2  A    between atoms: C_9  and  C_26
                            x       y       z     vdW  Elec       q    Type
                         _______ _______ _______ _____ _____    ______ ____

>  <TORSDO>
F 2

$$$$
=
 OpenBabel10222422053D

 31 37  0  0  1  0  0  0  0  0999 V2000
  184.8040  178.5090  138.6080 C   0  0  0  0  0  2  0  0  0  0  0  0
  188.1730  176.9740  138.2660 C   0  0  0  0  0  0  0  0  0  0  0  0
  188.4490  176.0290  137.3120 C   0  0  0  0  0  0  0  0  0  0  0  0
  189.6320  174.0950  135.7200 C   0  0  0  0  0  0  0  0  0  0  0  0
  191.4760  172.7110  135.2020 C   0  0  0  0  0  3  0  0  0  0  0  0
  187.0480  178.7830  139.4760 N   0  0  1  0  0  0  0  0  0  0  0  0
  190.3500  174.6340  136.8150 C   0  0  0  0  0  0  0  0  0  0  0  0
  189.7300  175.6040  137.5980 C   0  0  0  0  0  0  0  0  0  0  0  0
  185.6290  179.0610  139.7770 C   0  0  2  0  0  3  0  0  0  0  0  0
  190.2130  176.2270  138.6580 O   0  0  0  0  0  0  0  0  0  0  0  0
  187.8580  178.3740  140.6510 C   0  0  0  0  0  2  0  0  0  0  0  0
  189.2690  177.0500  139.0770 C   0  0  0  0  0  0  0  0  0  0  0  0
  187.7110  175.5250  136.2440 C   0  0  0  0  0  3  0  0  0  0  0  0
  191.6410  174.1700  137.0620 C   0  0  0  0  0  3  0  0  0  0  0  0
  185.7080  177.4980  137.9350 C   0  0  0  0  0  2  0  0  0  0  0  0
  187.0050  177.7460  138.5230 N   0  0  0  0  0  0  0  0  0  0  0  0
  189.3020  177.9790  140.2550 C   0  0  2  0  0  3  0  0  0  0  0  0
  192.1770  173.2190  136.2510 N   0  0  0  0  0  0  0  0  0  0  0  0
  188.3210  174.5420  135.4410 C   0  0  0  0  0  3  0  0  0  0  0  0
  190.2130  173.1480  134.9410 N   0  0  0  0  0  0  0  0  0  0  0  0
  191.9820  177.0680  142.7460 N   0  0  0  0  0  0  0  0  0  0  0  0
  190.0210  177.3680  141.4170 C   0  0  0  0  0  0  0  0  0  0  0  0
  191.3690  177.6380  141.6770 C   0  0  0  0  0  3  0  0  0  0  0  0
  189.3410  176.5120  142.2810 C   0  0  0  0  0  3  0  0  0  0  0  0
  191.3000  176.2340  143.5750 C   0  0  0  0  0  3  0  0  0  0  0  0
  189.9900  175.9600  143.3400 N   0  0  0  0  0  0  0  0  0  0  0  0
  183.1080  178.5080  142.3950 C   0  0  0  0  0  2  0  0  0  0  0  0
  185.1180  178.5210  141.1320 C   0  0  1  0  0  3  0  0  0  0  0  0
  185.2370  179.5020  142.1270 O   0  0  0  0  0  0  0  0  0  0  0  0
  184.2790  179.1600  143.0920 C   0  0  0  0  0  2  0  0  0  0  0  0
  183.6750  178.0480  141.0870 C   0  0  0  0  0  2  0  0  0  0  0  0
  2 16  1  0  0  0  0
  2 12  2  0  0  0  0
  3  8  1  0  0  0  0
  3  2  1  0  0  0  0
  4  7  1  0  0  0  0
  5 18  1  0  0  0  0
  6  9  1  0  0  0  0
  6 11  1  1  0  0  0
  7 14  1  0  0  0  0
  7  8  2  0  0  0  0
  8 10  1  0  0  0  0
  9  1  1  6  0  0  0
  9 28  1  0  0  0  0
 10 12  1  0  0  0  0
 12 17  1  0  0  0  0
 13  3  2  0  0  0  0
 15 16  1  0  0  0  0
 15  1  1  0  0  0  0
 16  6  1  0  0  0  0
 17 11  1  0  0  0  0
 17 22  1  1  0  0  0
 18 14  2  0  0  0  0
 19  4  2  0  0  0  0
 19 13  1  0  0  0  0
 20  5  2  0  0  0  0
 20  4  1  0  0  0  0
 21 25  1  0  0  0  0
 22 23  1  0  0  0  0
 22 24  2  0  0  0  0
 23 21  2  0  0  0  0
 24 26  1  0  0  0  0
 26 25  2  0  0  0  0
 27 30  1  0  0  0  0
 28 31  1  6  0  0  0
 28 29  1  0  0  0  0
 29 30  1  0  0  0  0
 31 27  1  0  0  0  0
M  END
>  <MODEL>
8

>  <REMARK>
 VINA RESULT:      -7.4      3.032      8.343
  Name = 
  2 active torsions:
  status: ('A' for Active; 'I' for Inactive)
    1  A    between atoms: C_8  and  C_14
    2  A    between atoms: C_9  and  C_26
                            x       y       z     vdW  Elec       q    Type
                         _______ _______ _______ _____ _____    ______ ____

>  <TORSDO>
F 2

$$$$
=
 OpenBabel10222422053D

 31 37  0  0  1  0  0  0  0  0999 V2000
  188.3550  177.8690  146.7790 C   0  0  0  0  0  2  0  0  0  0  0  0
  186.7820  178.4670  143.4650 C   0  0  0  0  0  0  0  0  0  0  0  0
  185.4220  178.4930  143.2980 C   0  0  0  0  0  0  0  0  0  0  0  0
  182.8490  178.6020  142.2770 C   0  0  0  0  0  0  0  0  0  0  0  0
  181.3780  178.7470  140.4330 C   0  0  0  0  0  3  0  0  0  0  0  0
  188.9860  178.5210  144.5340 N   0  0  1  0  0  0  0  0  0  0  0  0
  183.9540  178.6440  141.3930 C   0  0  0  0  0  0  0  0  0  0  0  0
  185.2360  178.5870  141.9340 C   0  0  0  0  0  0  0  0  0  0  0  0
  189.5150  177.9240  145.7770 C   0  0  2  0  0  3  0  0  0  0  0  0
  186.3920  178.6060  141.2960 O   0  0  0  0  0  0  0  0  0  0  0  0
  189.5020  177.9040  143.2880 C   0  0  0  0  0  2  0  0  0  0  0  0
  187.3350  178.5200  142.2170 C   0  0  0  0  0  0  0  0  0  0  0  0
  184.3620  178.4500  144.2000 C   0  0  0  0  0  3  0  0  0  0  0  0
  183.7120  178.7380  140.0240 C   0  0  0  0  0  3  0  0  0  0  0  0
  187.1030  177.9560  145.9340 C   0  0  0  0  0  2  0  0  0  0  0  0
  187.5910  178.3440  144.6300 N   0  0  0  0  0  0  0  0  0  0  0  0
  188.8230  178.4870  142.0240 C   0  0  2  0  0  3  0  0  0  0  0  0
  182.4310  178.7880  139.5720 N   0  0  0  0  0  0  0  0  0  0  0  0
  183.0580  178.5060  143.6710 C   0  0  0  0  0  3  0  0  0  0  0  0
  181.5890  178.6550  141.7750 N   0  0  0  0  0  0  0  0  0  0  0  0
  188.8870  177.0960  138.5200 N   0  0  0  0  0  0  0  0  0  0  0  0
  189.2010  177.7000  140.8080 C   0  0  0  0  0  0  0  0  0  0  0  0
  188.5060  177.8250  139.6000 C   0  0  0  0  0  3  0  0  0  0  0  0
  190.2810  176.8190  140.8600 C   0  0  0  0  0  3  0  0  0  0  0  0
  189.9420  176.2420  138.5920 C   0  0  0  0  0  3  0  0  0  0  0  0
  190.6310  176.1070  139.7570 N   0  0  0  0  0  0  0  0  0  0  0  0
  192.1090  175.3980  146.4150 C   0  0  0  0  0  2  0  0  0  0  0  0
  190.1870  176.5410  145.6180 C   0  0  1  0  0  3  0  0  0  0  0  0
  191.1540  176.5810  144.6030 O   0  0  0  0  0  0  0  0  0  0  0  0
  192.0490  175.5470  144.9120 C   0  0  0  0  0  2  0  0  0  0  0  0
  190.8420  176.0390  146.8930 C   0  0  0  0  0  2  0  0  0  0  0  0
  2 16  1  0  0  0  0
  3  2  1  0  0  0  0
  3 13  1  0  0  0  0
  4 19  1  0  0  0  0
  5 20  2  0  0  0  0
  6 11  1  6  0  0  0
  6 16  1  0  0  0  0
  6  9  1  0  0  0  0
  7  8  1  0  0  0  0
  7  4  2  0  0  0  0
  8  3  2  0  0  0  0
  9  1  1  1  0  0  0
 10  8  1  0  0  0  0
 10 12  1  0  0  0  0
 12  2  2  0  0  0  0
 14  7  1  0  0  0  0
 15  1  1  0  0  0  0
 16 15  1  0  0  0  0
 17 22  1  6  0  0  0
 17 12  1  0  0  0  0
 17 11  1  0  0  0  0
 18 14  2  0  0  0  0
 18  5  1  0  0  0  0
 19 13  2  0  0  0  0
 20  4  1  0  0  0  0
 21 25  2  0  0  0  0
 21 23  1  0  0  0  0
 22 24  1  0  0  0  0
 23 22  2  0  0  0  0
 25 26  1  0  0  0  0
 26 24  2  0  0  0  0
 27 31  1  0  0  0  0
 28  9  1  0  0  0  0
 28 31  1  1  0  0  0
 29 30  1  0  0  0  0
 29 28  1  0  0  0  0
 30 27  1  0  0  0  0
M  END
>  <MODEL>
9

>  <REMARK>
 VINA RESULT:      -7.2      2.696      6.956
  Name = 
  2 active torsions:
  status: ('A' for Active; 'I' for Inactive)
    1  A    between atoms: C_8  and  C_14
    2  A    between atoms: C_9  and  C_26
                            x       y       z     vdW  Elec       q    Type
                         _______ _______ _______ _____ _____    ______ ____

>  <TORSDO>
F 2

$$$$
