=
 OpenBabel10232411073D

 39 43  0  0  1  0  0  0  0  0999 V2000
  190.9470  177.3140  145.4610 C   0  0  0  0  0  0  0  0  0  0  0  0
  190.5510  178.1280  143.1800 C   0  0  0  0  0  3  0  0  0  0  0  0
  186.8580  178.3740  142.5810 C   0  0  0  0  0  0  0  0  0  0  0  0
  182.7270  178.6820  143.3520 O   0  0  0  0  0  1  0  0  0  0  0  0
  184.5550  179.2570  141.9300 C   0  0  0  0  0  2  0  0  0  0  0  0
  188.6430  177.4500  144.6300 C   0  0  0  0  0  0  0  0  0  0  0  0
  186.8150  177.5900  146.3020 C   0  0  0  0  0  1  0  0  0  0  0  0
  188.2580  178.2080  142.2770 N   0  0  0  0  0  0  0  0  0  0  0  0
  184.9490  178.3460  144.1990 C   0  0  1  0  0  3  0  0  0  0  0  0
  185.9080  178.7460  141.4570 C   0  0  0  0  0  2  0  0  0  0  0  0
  184.0210  178.3110  142.9870 C   0  0  1  0  0  3  0  0  0  0  0  0
  186.3990  178.1040  143.8270 C   0  0  0  0  0  0  0  0  0  0  0  0
  189.6440  177.0640  145.6700 C   0  0  0  0  0  0  0  0  0  0  0  0
  184.8360  179.5720  144.8620 O   0  0  0  0  0  1  0  0  0  0  0  0
  189.2500  176.4410  146.8510 O   0  0  0  0  0  1  0  0  0  0  0  0
  191.3840  177.9820  144.2130 C   0  0  0  0  0  3  0  0  0  0  0  0
  187.3400  177.6830  144.9010 C   0  0  0  0  0  0  0  0  0  0  0  0
  189.1670  177.5300  143.2110 C   0  0  1  0  0  3  0  0  0  0  0  0
  191.9060  176.9720  146.4700 N   0  0  0  0  0  2  0  0  0  0  0  0
  192.2700  175.6010  146.7960 C   0  0  0  0  0  2  0  0  0  0  0  0
  192.7390  176.7510  148.6730 O   0  0  0  0  0  1  0  0  0  0  0  0
  192.9810  175.5690  148.0620 N   0  0  0  0  0  2  0  0  0  0  0  0
  188.7360  178.4680  140.9180 C   0  0  0  0  0  2  0  0  0  0  0  0
  190.4250  176.9810  139.7980 C   0  0  0  0  0  2  0  0  0  0  0  0
  188.9610  177.1570  140.1650 C   0  0  2  0  0  3  0  0  0  0  0  0
  188.6030  177.1590  138.6730 C   0  0  1  0  0  0  0  0  0  0  0  0
  190.0640  176.9630  138.3210 C   0  0  0  0  0  2  0  0  0  0  0  0
  187.8580  176.0310  138.3770 F   0  0  0  0  0  0  0  0  0  0  0  0
  185.6390  177.6630  137.6940 C   0  0  0  0  0  0  0  0  0  0  0  0
  188.8170  179.2980  137.5800 O   0  0  0  0  0  0  0  0  0  0  0  0
  186.6280  178.6600  137.9660 N   0  0  0  0  0  2  0  0  0  0  0  0
  188.0390  178.4270  138.0540 C   0  0  0  0  0  0  0  0  0  0  0  0
  185.9710  176.5380  137.2290 O   0  0  0  0  0  0  0  0  0  0  0  0
  184.1990  177.9930  137.9060 C   0  0  0  0  0  3  0  0  0  0  0  0
  184.0540  179.3900  138.5100 C   0  0  0  0  0  2  0  0  0  0  0  0
  182.5800  179.7210  138.7210 C   0  0  0  0  0  2  0  0  0  0  0  0
  182.0650  177.2880  139.0130 C   0  0  0  0  0  2  0  0  0  0  0  0
  183.5370  176.9470  138.8030 C   0  0  0  0  0  2  0  0  0  0  0  0
  181.9290  178.6790  139.6280 C   0  0  0  0  0  2  0  0  0  0  0  0
  1 13  2  0  0  0  0
  1 19  1  0  0  0  0
  2 16  2  0  0  0  0
  3 12  2  0  0  0  0
  5 11  1  0  0  0  0
  6 17  2  0  0  0  0
  6 13  1  0  0  0  0
  8  3  1  0  0  0  0
  8 18  1  0  0  0  0
  9 14  1  6  0  0  0
 10  5  1  0  0  0  0
 10  3  1  0  0  0  0
 11  4  1  1  0  0  0
 11  9  1  0  0  0  0
 12  9  1  0  0  0  0
 12 17  1  0  0  0  0
 13 15  1  0  0  0  0
 16  1  1  0  0  0  0
 17  7  1  0  0  0  0
 18  2  1  1  0  0  0
 18  6  1  0  0  0  0
 19 20  1  0  0  0  0
 20 22  1  0  0  0  0
 22 21  1  0  0  0  0
 23  8  1  0  0  0  0
 24 25  1  0  0  0  0
 25 23  1  6  0  0  0
 26 28  1  6  0  0  0
 26 25  1  0  0  0  0
 27 26  1  0  0  0  0
 27 24  1  0  0  0  0
 29 34  1  0  0  0  0
 29 31  1  0  0  0  0
 30 32  2  0  0  0  0
 31 32  1  0  0  0  0
 32 26  1  0  0  0  0
 33 29  2  0  0  0  0
 34 35  1  0  0  0  0
 34 38  1  0  0  0  0
 35 36  1  0  0  0  0
 36 39  1  0  0  0  0
 37 39  1  0  0  0  0
 38 37  1  0  0  0  0
M  END
>  <MODEL>
1

>  <REMARK>
 VINA RESULT:     -10.3      0.000      0.000
  Name = 
  7 active torsions:
  status: ('A' for Active; 'I' for Inactive)
    1  A    between atoms: C_1  and  C_5
    2  A    between atoms: C_2  and  N_9
    3  A    between atoms: N_9  and  C_39
    4  A    between atoms: C_12  and  C_30
    5  A    between atoms: C_16  and  C_27
    6  A    between atoms: N_20  and  C_39
    7  A    between atoms: N_23  and  C_30
                            x       y       z     vdW  Elec       q    Type
                         _______ _______ _______ _____ _____    ______ ____

>  <TORSDO>
F 7

$$$$
=
 OpenBabel10232411073D

 39 43  0  0  1  0  0  0  0  0999 V2000
  189.9770  177.3990  139.5390 C   0  0  0  0  0  0  0  0  0  0  0  0
  187.6310  178.0150  139.1630 C   0  0  0  0  0  3  0  0  0  0  0  0
  186.1160  175.6480  136.6800 C   0  0  0  0  0  0  0  0  0  0  0  0
  185.5270  172.1900  134.3460 O   0  0  0  0  0  1  0  0  0  0  0  0
  184.5350  173.9960  135.5500 C   0  0  0  0  0  2  0  0  0  0  0  0
  188.6840  176.1830  137.8440 C   0  0  0  0  0  0  0  0  0  0  0  0
  189.4610  173.9160  137.2020 C   0  0  0  0  0  1  0  0  0  0  0  0
  186.3170  176.8720  137.4170 N   0  0  0  0  0  0  0  0  0  0  0  0
  186.9270  173.4300  135.8540 C   0  0  1  0  0  3  0  0  0  0  0  0
  184.7910  175.4360  135.9700 C   0  0  0  0  0  2  0  0  0  0  0  0
  185.7730  173.4660  134.8540 C   0  0  1  0  0  3  0  0  0  0  0  0
  187.1310  174.7600  136.5530 C   0  0  0  0  0  0  0  0  0  0  0  0
  189.9640  176.4840  138.5550 C   0  0  0  0  0  0  0  0  0  0  0  0
  186.7130  172.4300  136.8080 O   0  0  0  0  0  1  0  0  0  0  0  0
  191.1470  175.8370  138.2100 O   0  0  0  0  0  1  0  0  0  0  0  0
  188.7250  178.0930  139.9230 C   0  0  0  0  0  3  0  0  0  0  0  0
  188.4420  175.0160  137.2090 C   0  0  0  0  0  0  0  0  0  0  0  0
  187.6590  177.2980  137.8370 C   0  0  1  0  0  3  0  0  0  0  0  0
  191.1960  177.6680  140.2420 N   0  0  0  0  0  2  0  0  0  0  0  0
  191.3080  177.6350  141.6920 C   0  0  0  0  0  2  0  0  0  0  0  0
  191.3440  176.1440  143.3790 O   0  0  0  0  0  1  0  0  0  0  0  0
  190.7280  176.4050  142.2030 N   0  0  0  0  0  2  0  0  0  0  0  0
  185.2240  177.8390  137.5190 C   0  0  0  0  0  2  0  0  0  0  0  0
  182.7260  177.6120  137.6700 C   0  0  0  0  0  2  0  0  0  0  0  0
  184.0560  177.2540  138.3120 C   0  0  2  0  0  3  0  0  0  0  0  0
  183.6380  178.0190  139.5730 C   0  0  1  0  0  0  0  0  0  0  0  0
  182.3060  178.3530  138.9310 C   0  0  0  0  0  2  0  0  0  0  0  0
  183.4820  177.1290  140.6210 F   0  0  0  0  0  0  0  0  0  0  0  0
  184.5470  178.8890  142.4740 C   0  0  0  0  0  0  0  0  0  0  0  0
  184.4660  180.2470  139.1670 O   0  0  0  0  0  0  0  0  0  0  0  0
  185.0530  179.3940  141.2340 N   0  0  0  0  0  2  0  0  0  0  0  0
  184.4050  179.2720  139.9620 C   0  0  0  0  0  0  0  0  0  0  0  0
  183.3390  178.5380  142.5800 O   0  0  0  0  0  0  0  0  0  0  0  0
  185.4490  178.8450  143.6610 C   0  0  0  0  0  3  0  0  0  0  0  0
  186.4150  177.6640  143.5550 C   0  0  0  0  0  2  0  0  0  0  0  0
  187.3360  177.6260  144.7710 C   0  0  0  0  0  2  0  0  0  0  0  0
  185.5620  178.7170  146.1600 C   0  0  0  0  0  2  0  0  0  0  0  0
  184.6330  178.7590  144.9500 C   0  0  0  0  0  2  0  0  0  0  0  0
  186.5130  177.5280  146.0530 C   0  0  0  0  0  2  0  0  0  0  0  0
  1 16  1  0  0  0  0
  1 19  1  0  0  0  0
  2 16  2  0  0  0  0
  3  8  1  0  0  0  0
  5 10  1  0  0  0  0
  6 13  1  0  0  0  0
  7 17  1  0  0  0  0
  8 23  1  0  0  0  0
  8 18  1  0  0  0  0
  9 12  1  0  0  0  0
  9 14  1  1  0  0  0
 10  3  1  0  0  0  0
 11  4  1  1  0  0  0
 11  5  1  0  0  0  0
 11  9  1  0  0  0  0
 12  3  2  0  0  0  0
 12 17  1  0  0  0  0
 13  1  2  0  0  0  0
 15 13  1  0  0  0  0
 17  6  2  0  0  0  0
 18  6  1  0  0  0  0
 18  2  1  1  0  0  0
 19 20  1  0  0  0  0
 20 22  1  0  0  0  0
 22 21  1  0  0  0  0
 24 25  1  0  0  0  0
 24 27  1  0  0  0  0
 25 23  1  6  0  0  0
 25 26  1  0  0  0  0
 26 32  1  0  0  0  0
 26 28  1  1  0  0  0
 27 26  1  0  0  0  0
 29 33  2  0  0  0  0
 29 34  1  0  0  0  0
 30 32  2  0  0  0  0
 31 29  1  0  0  0  0
 32 31  1  0  0  0  0
 34 38  1  0  0  0  0
 35 34  1  0  0  0  0
 35 36  1  0  0  0  0
 36 39  1  0  0  0  0
 38 37  1  0  0  0  0
 39 37  1  0  0  0  0
M  END
>  <MODEL>
2

>  <REMARK>
 VINA RESULT:      -8.5      2.767      7.068
  Name = 
  7 active torsions:
  status: ('A' for Active; 'I' for Inactive)
    1  A    between atoms: C_1  and  C_5
    2  A    between atoms: C_2  and  N_9
    3  A    between atoms: N_9  and  C_39
    4  A    between atoms: C_12  and  C_30
    5  A    between atoms: C_16  and  C_27
    6  A    between atoms: N_20  and  C_39
    7  A    between atoms: N_23  and  C_30
                            x       y       z     vdW  Elec       q    Type
                         _______ _______ _______ _____ _____    ______ ____

>  <TORSDO>
F 7

$$$$
=
 OpenBabel10232411073D

 39 43  0  0  1  0  0  0  0  0999 V2000
  183.8090  178.4500  143.5370 C   0  0  0  0  0  0  0  0  0  0  0  0
  185.4940  178.3660  141.7560 C   0  0  0  0  0  3  0  0  0  0  0  0
  188.9020  178.0830  143.2950 C   0  0  0  0  0  0  0  0  0  0  0  0
  191.9240  177.2860  146.1200 O   0  0  0  0  0  1  0  0  0  0  0  0
  191.2720  177.3020  143.8250 C   0  0  0  0  0  2  0  0  0  0  0  0
  186.1850  178.4340  144.1480 C   0  0  0  0  0  0  0  0  0  0  0  0
  186.7890  177.6620  146.4270 C   0  0  0  0  0  1  0  0  0  0  0  0
  187.8940  178.4250  142.3210 N   0  0  0  0  0  0  0  0  0  0  0  0
  189.5820  177.4830  145.6260 C   0  0  1  0  0  3  0  0  0  0  0  0
  190.3520  178.0210  142.8490 C   0  0  0  0  0  2  0  0  0  0  0  0
  191.0110  177.8350  145.2200 C   0  0  1  0  0  3  0  0  0  0  0  0
  188.5600  177.9210  144.5950 C   0  0  0  0  0  0  0  0  0  0  0  0
  184.7370  178.5390  144.5040 C   0  0  0  0  0  0  0  0  0  0  0  0
  189.4640  176.1070  145.8440 O   0  0  0  0  0  1  0  0  0  0  0  0
  184.3330  178.7360  145.8220 O   0  0  0  0  0  1  0  0  0  0  0  0
  184.2200  178.2350  142.1300 C   0  0  0  0  0  3  0  0  0  0  0  0
  187.1400  178.0450  145.0210 C   0  0  0  0  0  0  0  0  0  0  0  0
  186.5440  178.8340  142.7320 C   0  0  1  0  0  3  0  0  0  0  0  0
  182.4190  178.5220  143.8800 N   0  0  0  0  0  2  0  0  0  0  0  0
  181.4480  179.3020  143.1280 C   0  0  0  0  0  2  0  0  0  0  0  0
  179.9920  177.8820  144.0940 O   0  0  0  0  0  1  0  0  0  0  0  0
  180.2390  178.5230  142.9280 N   0  0  0  0  0  2  0  0  0  0  0  0
  188.2810  178.6330  140.9260 C   0  0  0  0  0  2  0  0  0  0  0  0
  190.1230  177.1700  140.0390 C   0  0  0  0  0  2  0  0  0  0  0  0
  188.6240  177.3020  140.2560 C   0  0  2  0  0  3  0  0  0  0  0  0
  188.4130  177.2290  138.7390 C   0  0  1  0  0  0  0  0  0  0  0  0
  189.9070  177.0770  138.5350 C   0  0  0  0  0  2  0  0  0  0  0  0
  187.7400  176.0610  138.4240 F   0  0  0  0  0  0  0  0  0  0  0  0
  185.4540  177.6910  137.7230 C   0  0  0  0  0  0  0  0  0  0  0  0
  188.6560  179.2620  137.4640 O   0  0  0  0  0  0  0  0  0  0  0  0
  186.4590  178.6930  137.9060 N   0  0  0  0  0  2  0  0  0  0  0  0
  187.8670  178.4470  138.0120 C   0  0  0  0  0  0  0  0  0  0  0  0
  185.7680  176.5250  137.3560 O   0  0  0  0  0  0  0  0  0  0  0  0
  184.0200  178.0600  137.9060 C   0  0  0  0  0  3  0  0  0  0  0  0
  183.9010  179.3860  138.6580 C   0  0  0  0  0  2  0  0  0  0  0  0
  182.4320  179.7580  138.8400 C   0  0  0  0  0  2  0  0  0  0  0  0
  181.8070  177.3330  138.8300 C   0  0  0  0  0  2  0  0  0  0  0  0
  183.2740  176.9510  138.6470 C   0  0  0  0  0  2  0  0  0  0  0  0
  181.6970  178.6510  139.5920 C   0  0  0  0  0  2  0  0  0  0  0  0
  1 19  1  0  0  0  0
  1 13  2  0  0  0  0
  2 16  2  0  0  0  0
  3 12  2  0  0  0  0
  5 11  1  0  0  0  0
  6 13  1  0  0  0  0
  6 17  2  0  0  0  0
  8 18  1  0  0  0  0
  8  3  1  0  0  0  0
  9 14  1  6  0  0  0
 10  3  1  0  0  0  0
 10  5  1  0  0  0  0
 11  9  1  0  0  0  0
 11  4  1  1  0  0  0
 12 17  1  0  0  0  0
 12  9  1  0  0  0  0
 13 15  1  0  0  0  0
 16  1  1  0  0  0  0
 17  7  1  0  0  0  0
 18  2  1  6  0  0  0
 18  6  1  0  0  0  0
 20 19  1  0  0  0  0
 22 20  1  0  0  0  0
 22 21  1  0  0  0  0
 23  8  1  0  0  0  0
 24 25  1  0  0  0  0
 25 23  1  6  0  0  0
 26 28  1  6  0  0  0
 26 25  1  0  0  0  0
 27 26  1  0  0  0  0
 27 24  1  0  0  0  0
 29 34  1  0  0  0  0
 29 31  1  0  0  0  0
 30 32  2  0  0  0  0
 31 32  1  0  0  0  0
 32 26  1  0  0  0  0
 33 29  2  0  0  0  0
 34 38  1  0  0  0  0
 34 35  1  0  0  0  0
 35 36  1  0  0  0  0
 36 39  1  0  0  0  0
 37 39  1  0  0  0  0
 38 37  1  0  0  0  0
M  END
>  <MODEL>
3

>  <REMARK>
 VINA RESULT:      -8.5      1.874      5.389
  Name = 
  7 active torsions:
  status: ('A' for Active; 'I' for Inactive)
    1  A    between atoms: C_1  and  C_5
    2  A    between atoms: C_2  and  N_9
    3  A    between atoms: N_9  and  C_39
    4  A    between atoms: C_12  and  C_30
    5  A    between atoms: C_16  and  C_27
    6  A    between atoms: N_20  and  C_39
    7  A    between atoms: N_23  and  C_30
                            x       y       z     vdW  Elec       q    Type
                         _______ _______ _______ _____ _____    ______ ____

>  <TORSDO>
F 7

$$$$
=
 OpenBabel10232411073D

 39 43  0  0  1  0  0  0  0  0999 V2000
  190.7450  177.0480  145.9240 C   0  0  0  0  0  0  0  0  0  0  0  0
  190.2780  177.0560  143.5150 C   0  0  0  0  0  3  0  0  0  0  0  0
  186.6400  177.7800  142.9670 C   0  0  0  0  0  0  0  0  0  0  0  0
  182.7140  179.1330  143.6800 O   0  0  0  0  0  1  0  0  0  0  0  0
  184.4690  178.8000  142.0980 C   0  0  0  0  0  2  0  0  0  0  0  0
  188.4290  177.3200  145.1630 C   0  0  0  0  0  0  0  0  0  0  0  0
  186.8190  178.3960  146.7140 C   0  0  0  0  0  1  0  0  0  0  0  0
  187.9560  177.2500  142.7070 N   0  0  0  0  0  0  0  0  0  0  0  0
  184.9170  178.6990  144.5310 C   0  0  1  0  0  3  0  0  0  0  0  0
  185.6640  177.9030  141.8100 C   0  0  0  0  0  2  0  0  0  0  0  0
  183.8850  178.4130  143.4430 C   0  0  1  0  0  3  0  0  0  0  0  0
  186.2630  178.0650  144.2360 C   0  0  0  0  0  0  0  0  0  0  0  0
  189.4440  177.1450  146.2450 C   0  0  0  0  0  0  0  0  0  0  0  0
  185.0770  180.0770  144.7010 O   0  0  0  0  0  1  0  0  0  0  0  0
  189.0650  177.0710  147.5820 O   0  0  0  0  0  1  0  0  0  0  0  0
  191.1680  177.1300  144.5060 C   0  0  0  0  0  3  0  0  0  0  0  0
  187.2160  177.8810  145.3640 C   0  0  0  0  0  0  0  0  0  0  0  0
  188.8220  176.7880  143.8000 C   0  0  1  0  0  3  0  0  0  0  0  0
  191.7240  176.9090  146.9610 N   0  0  0  0  0  2  0  0  0  0  0  0
  192.1460  175.6230  147.4970 C   0  0  0  0  0  2  0  0  0  0  0  0
  193.1470  176.8090  149.1280 O   0  0  0  0  0  1  0  0  0  0  0  0
  193.3660  175.7880  148.2680 N   0  0  0  0  0  2  0  0  0  0  0  0
  188.3390  176.9120  141.3360 C   0  0  0  0  0  2  0  0  0  0  0  0
  188.7240  179.1200  140.1960 C   0  0  0  0  0  2  0  0  0  0  0  0
  189.3840  177.8960  140.8080 C   0  0  2  0  0  3  0  0  0  0  0  0
  190.0030  177.5650  139.4450 C   0  0  1  0  0  0  0  0  0  0  0  0
  189.3560  178.8000  138.8500 C   0  0  0  0  0  2  0  0  0  0  0  0
  191.3780  177.7030  139.5190 F   0  0  0  0  0  0  0  0  0  0  0  0
  191.8290  175.5490  137.8330 C   0  0  0  0  0  0  0  0  0  0  0  0
  188.3520  176.1180  138.4470 O   0  0  0  0  0  0  0  0  0  0  0  0
  190.5110  175.2960  138.3270 N   0  0  0  0  0  2  0  0  0  0  0  0
  189.5680  176.2990  138.7270 C   0  0  0  0  0  0  0  0  0  0  0  0
  192.1590  176.7030  137.4430 O   0  0  0  0  0  0  0  0  0  0  0  0
  192.7910  174.4150  137.7200 C   0  0  0  0  0  3  0  0  0  0  0  0
  194.2300  174.9210  137.8180 C   0  0  0  0  0  2  0  0  0  0  0  0
  195.2080  173.7560  137.7050 C   0  0  0  0  0  2  0  0  0  0  0  0
  193.5600  172.4970  136.3020 C   0  0  0  0  0  2  0  0  0  0  0  0
  192.5750  173.6570  136.4100 C   0  0  0  0  0  2  0  0  0  0  0  0
  194.9940  173.0130  136.3880 C   0  0  0  0  0  2  0  0  0  0  0  0
  1 13  2  0  0  0  0
  1 19  1  0  0  0  0
  2 16  2  0  0  0  0
  3 12  2  0  0  0  0
  5 11  1  0  0  0  0
  6 17  2  0  0  0  0
  6 13  1  0  0  0  0
  8  3  1  0  0  0  0
  8 18  1  0  0  0  0
  9 14  1  6  0  0  0
 10  5  1  0  0  0  0
 10  3  1  0  0  0  0
 11  4  1  1  0  0  0
 11  9  1  0  0  0  0
 12  9  1  0  0  0  0
 12 17  1  0  0  0  0
 13 15  1  0  0  0  0
 16  1  1  0  0  0  0
 17  7  1  0  0  0  0
 18  2  1  6  0  0  0
 18  6  1  0  0  0  0
 19 20  1  0  0  0  0
 20 22  1  0  0  0  0
 22 21  1  0  0  0  0
 23  8  1  0  0  0  0
 24 25  1  0  0  0  0
 25 23  1  6  0  0  0
 26 28  1  1  0  0  0
 26 25  1  0  0  0  0
 27 26  1  0  0  0  0
 27 24  1  0  0  0  0
 29 31  1  0  0  0  0
 30 32  2  0  0  0  0
 31 32  1  0  0  0  0
 32 26  1  0  0  0  0
 33 29  2  0  0  0  0
 34 35  1  0  0  0  0
 34 29  1  0  0  0  0
 36 35  1  0  0  0  0
 37 39  1  0  0  0  0
 37 38  1  0  0  0  0
 38 34  1  0  0  0  0
 39 36  1  0  0  0  0
M  END
>  <MODEL>
4

>  <REMARK>
 VINA RESULT:      -8.2      2.617      5.198
  Name = 
  7 active torsions:
  status: ('A' for Active; 'I' for Inactive)
    1  A    between atoms: C_1  and  C_5
    2  A    between atoms: C_2  and  N_9
    3  A    between atoms: N_9  and  C_39
    4  A    between atoms: C_12  and  C_30
    5  A    between atoms: C_16  and  C_27
    6  A    between atoms: N_20  and  C_39
    7  A    between atoms: N_23  and  C_30
                            x       y       z     vdW  Elec       q    Type
                         _______ _______ _______ _____ _____    ______ ____

>  <TORSDO>
F 7

$$$$
=
 OpenBabel10232411073D

 39 43  0  0  1  0  0  0  0  0999 V2000
  184.8640  173.1190  135.0720 C   0  0  0  0  0  0  0  0  0  0  0  0
  184.3050  175.3970  135.7930 C   0  0  0  0  0  3  0  0  0  0  0  0
  187.1640  176.8010  137.7720 C   0  0  0  0  0  0  0  0  0  0  0  0
  191.0660  177.3430  139.2640 O   0  0  0  0  0  1  0  0  0  0  0  0
  189.0040  178.3530  138.6170 C   0  0  0  0  0  2  0  0  0  0  0  0
  186.4220  174.3180  136.5410 C   0  0  0  0  0  0  0  0  0  0  0  0
  188.7930  173.5880  136.5550 C   0  0  0  0  0  1  0  0  0  0  0  0
  185.8040  176.6100  137.3300 N   0  0  0  0  0  0  0  0  0  0  0  0
  189.5330  176.0210  137.9730 C   0  0  1  0  0  3  0  0  0  0  0  0
  187.5110  178.0710  138.5290 C   0  0  0  0  0  2  0  0  0  0  0  0
  189.7120  177.0850  139.0530 C   0  0  1  0  0  3  0  0  0  0  0  0
  188.0780  175.8180  137.5940 C   0  0  0  0  0  0  0  0  0  0  0  0
  185.9880  173.0890  135.8080 C   0  0  1  0  0  3  0  0  0  0  0  0
  190.2700  176.3560  136.8330 O   0  0  0  0  0  1  0  0  0  0  0  0
  186.7240  171.9100  135.8830 O   0  0  0  0  0  1  0  0  0  0  0  0
  184.0710  174.3670  134.9780 C   0  0  0  0  0  3  0  0  0  0  0  0
  187.7020  174.5560  136.9010 C   0  0  0  0  0  0  0  0  0  0  0  0
  185.3190  175.2900  136.9040 C   0  0  0  0  0  0  0  0  0  0  0  0
  184.4610  171.9510  134.3460 N   0  0  0  0  0  2  0  0  0  0  0  0
  183.2160  171.2410  134.5970 C   0  0  0  0  0  2  0  0  0  0  0  0
  183.7090  169.8610  136.3060 O   0  0  0  0  0  1  0  0  0  0  0  0
  183.0580  171.0130  136.0230 N   0  0  0  0  0  2  0  0  0  0  0  0
  184.8170  177.6650  137.5600 C   0  0  0  0  0  2  0  0  0  0  0  0
  182.3380  177.6200  137.9770 C   0  0  0  0  0  2  0  0  0  0  0  0
  183.7000  177.1700  138.4790 C   0  0  2  0  0  3  0  0  0  0  0  0
  183.4740  177.9690  139.7680 C   0  0  1  0  0  0  0  0  0  0  0  0
  182.1090  178.3960  139.2660 C   0  0  0  0  0  2  0  0  0  0  0  0
  183.3670  177.0970  140.8370 F   0  0  0  0  0  0  0  0  0  0  0  0
  184.5220  178.9410  142.5880 C   0  0  0  0  0  0  0  0  0  0  0  0
  184.5040  180.0740  139.1960 O   0  0  0  0  0  0  0  0  0  0  0  0
  185.0490  179.3090  141.3100 N   0  0  0  0  0  2  0  0  0  0  0  0
  184.3660  179.1650  140.0580 C   0  0  0  0  0  0  0  0  0  0  0  0
  183.2890  178.7170  142.7360 O   0  0  0  0  0  0  0  0  0  0  0  0
  185.4400  178.8890  143.7630 C   0  0  0  0  0  3  0  0  0  0  0  0
  186.3880  177.6940  143.6490 C   0  0  0  0  0  2  0  0  0  0  0  0
  187.3250  177.6490  144.8520 C   0  0  0  0  0  2  0  0  0  0  0  0
  185.5860  178.7710  146.2610 C   0  0  0  0  0  2  0  0  0  0  0  0
  184.6410  178.8210  145.0640 C   0  0  0  0  0  2  0  0  0  0  0  0
  186.5190  177.5680  146.1470 C   0  0  0  0  0  2  0  0  0  0  0  0
  1 13  1  0  0  0  0
  2 18  2  0  0  0  0
  3 10  1  0  0  0  0
  5 11  1  0  0  0  0
  6 17  2  0  0  0  0
  6 18  1  0  0  0  0
  7 17  1  0  0  0  0
  8 23  1  0  0  0  0
  8  3  1  0  0  0  0
  9 14  1  6  0  0  0
  9 11  1  0  0  0  0
 10  5  1  0  0  0  0
 11  4  1  6  0  0  0
 12  3  2  0  0  0  0
 12  9  1  0  0  0  0
 13 15  1  1  0  0  0
 13  6  1  0  0  0  0
 16  1  2  0  0  0  0
 16  2  1  0  0  0  0
 17 12  1  0  0  0  0
 18  8  1  0  0  0  0
 19 20  1  0  0  0  0
 19  1  1  0  0  0  0
 20 22  1  0  0  0  0
 22 21  1  0  0  0  0
 24 25  1  0  0  0  0
 24 27  1  0  0  0  0
 25 23  1  6  0  0  0
 25 26  1  0  0  0  0
 26 32  1  0  0  0  0
 26 28  1  1  0  0  0
 27 26  1  0  0  0  0
 29 33  2  0  0  0  0
 29 34  1  0  0  0  0
 30 32  2  0  0  0  0
 31 29  1  0  0  0  0
 32 31  1  0  0  0  0
 34 38  1  0  0  0  0
 35 34  1  0  0  0  0
 35 36  1  0  0  0  0
 36 39  1  0  0  0  0
 38 37  1  0  0  0  0
 39 37  1  0  0  0  0
M  END
>  <MODEL>
5

>  <REMARK>
 VINA RESULT:      -8.0      3.759      9.030
  Name = 
  7 active torsions:
  status: ('A' for Active; 'I' for Inactive)
    1  A    between atoms: C_1  and  C_5
    2  A    between atoms: C_2  and  N_9
    3  A    between atoms: N_9  and  C_39
    4  A    between atoms: C_12  and  C_30
    5  A    between atoms: C_16  and  C_27
    6  A    between atoms: N_20  and  C_39
    7  A    between atoms: N_23  and  C_30
                            x       y       z     vdW  Elec       q    Type
                         _______ _______ _______ _____ _____    ______ ____

>  <TORSDO>
F 7

$$$$
=
 OpenBabel10232411073D

 39 43  0  0  1  0  0  0  0  0999 V2000
  189.9500  177.7620  144.8280 C   0  0  0  0  0  0  0  0  0  0  0  0
  189.7980  178.4320  142.4720 C   0  0  0  0  0  3  0  0  0  0  0  0
  186.1960  178.4660  141.4290 C   0  0  0  0  0  0  0  0  0  0  0  0
  181.9940  178.6150  141.6870 O   0  0  0  0  0  1  0  0  0  0  0  0
  183.9540  179.2010  140.4600 C   0  0  0  0  0  2  0  0  0  0  0  0
  187.7580  177.7410  143.7240 C   0  0  0  0  0  0  0  0  0  0  0  0
  185.7390  177.8820  145.1580 C   0  0  0  0  0  1  0  0  0  0  0  0
  187.6290  178.3520  141.3010 N   0  0  0  0  0  0  0  0  0  0  0  0
  184.1100  178.4330  142.8090 C   0  0  1  0  0  3  0  0  0  0  0  0
  185.3740  178.7310  140.1800 C   0  0  0  0  0  2  0  0  0  0  0  0
  183.3370  178.2880  141.5000 C   0  0  1  0  0  3  0  0  0  0  0  0
  185.6030  178.2420  142.6250 C   0  0  0  0  0  0  0  0  0  0  0  0
  188.6420  177.4610  144.8960 C   0  0  0  0  0  0  0  0  0  0  0  0
  183.8670  179.6860  143.3810 O   0  0  0  0  0  1  0  0  0  0  0  0
  188.1350  176.8830  146.0570 O   0  0  0  0  0  1  0  0  0  0  0  0
  190.5060  178.3820  143.6020 C   0  0  0  0  0  3  0  0  0  0  0  0
  186.4240  177.9250  143.8250 C   0  0  0  0  0  0  0  0  0  0  0  0
  188.4460  177.7700  142.3750 C   0  0  1  0  0  3  0  0  0  0  0  0
  190.7930  177.5210  145.9600 N   0  0  0  0  0  2  0  0  0  0  0  0
  191.7230  176.4040  146.0440 C   0  0  0  0  0  2  0  0  0  0  0  0
  192.2210  174.5390  144.8850 O   0  0  0  0  0  1  0  0  0  0  0  0
  191.9520  175.8540  144.7190 N   0  0  0  0  0  2  0  0  0  0  0  0
  188.2550  178.5620  139.9960 C   0  0  0  0  0  2  0  0  0  0  0  0
  190.0180  177.2450  138.7800 C   0  0  0  0  0  2  0  0  0  0  0  0
  188.6070  177.2240  139.3440 C   0  0  2  0  0  3  0  0  0  0  0  0
  188.0610  176.9920  137.9300 C   0  0  1  0  0  0  0  0  0  0  0  0
  189.4740  176.9930  137.3820 C   0  0  0  0  0  2  0  0  0  0  0  0
  187.4940  175.7310  137.8580 F   0  0  0  0  0  0  0  0  0  0  0  0
  185.7570  176.5930  135.8020 C   0  0  0  0  0  0  0  0  0  0  0  0
  187.5740  179.2730  137.3190 O   0  0  0  0  0  0  0  0  0  0  0  0
  185.9830  177.7550  136.6060 N   0  0  0  0  0  2  0  0  0  0  0  0
  187.2050  178.0690  137.2850 C   0  0  0  0  0  0  0  0  0  0  0  0
  186.7260  175.8920  135.3990 O   0  0  0  0  0  0  0  0  0  0  0  0
  184.3630  176.2580  135.3870 C   0  0  0  0  0  3  0  0  0  0  0  0
  183.4040  177.3850  135.7730 C   0  0  0  0  0  2  0  0  0  0  0  0
  181.9820  177.0360  135.3450 C   0  0  0  0  0  2  0  0  0  0  0  0
  182.4970  174.5980  135.5860 C   0  0  0  0  0  2  0  0  0  0  0  0
  183.9220  174.9360  136.0150 C   0  0  0  0  0  2  0  0  0  0  0  0
  181.5450  175.7210  135.9860 C   0  0  0  0  0  2  0  0  0  0  0  0
  1 13  2  0  0  0  0
  1 19  1  0  0  0  0
  2 16  2  0  0  0  0
  3 12  2  0  0  0  0
  5 11  1  0  0  0  0
  6 17  2  0  0  0  0
  6 13  1  0  0  0  0
  8  3  1  0  0  0  0
  8 18  1  0  0  0  0
  9 14  1  6  0  0  0
 10  5  1  0  0  0  0
 10  3  1  0  0  0  0
 11  4  1  1  0  0  0
 11  9  1  0  0  0  0
 12  9  1  0  0  0  0
 12 17  1  0  0  0  0
 13 15  1  0  0  0  0
 16  1  1  0  0  0  0
 17  7  1  0  0  0  0
 18  2  1  1  0  0  0
 18  6  1  0  0  0  0
 19 20  1  0  0  0  0
 22 21  1  0  0  0  0
 22 20  1  0  0  0  0
 23  8  1  0  0  0  0
 24 25  1  0  0  0  0
 25 23  1  6  0  0  0
 26 28  1  6  0  0  0
 26 25  1  0  0  0  0
 27 26  1  0  0  0  0
 27 24  1  0  0  0  0
 29 31  1  0  0  0  0
 31 32  1  0  0  0  0
 32 30  2  0  0  0  0
 32 26  1  0  0  0  0
 33 29  2  0  0  0  0
 34 35  1  0  0  0  0
 34 29  1  0  0  0  0
 34 38  1  0  0  0  0
 36 35  1  0  0  0  0
 36 39  1  0  0  0  0
 37 39  1  0  0  0  0
 37 38  1  0  0  0  0
M  END
>  <MODEL>
6

>  <REMARK>
 VINA RESULT:      -7.9      1.871      2.187
  Name = 
  7 active torsions:
  status: ('A' for Active; 'I' for Inactive)
    1  A    between atoms: C_1  and  C_5
    2  A    between atoms: C_2  and  N_9
    3  A    between atoms: N_9  and  C_39
    4  A    between atoms: C_12  and  C_30
    5  A    between atoms: C_16  and  C_27
    6  A    between atoms: N_20  and  C_39
    7  A    between atoms: N_23  and  C_30
                            x       y       z     vdW  Elec       q    Type
                         _______ _______ _______ _____ _____    ______ ____

>  <TORSDO>
F 7

$$$$
=
 OpenBabel10232411073D

 39 43  0  0  1  0  0  0  0  0999 V2000
  189.6980  178.2070  142.0820 C   0  0  0  0  0  0  0  0  0  0  0  0
  187.7500  178.4550  140.6110 C   0  0  0  0  0  3  0  0  0  0  0  0
  188.5130  176.9090  137.2810 C   0  0  0  0  0  0  0  0  0  0  0  0
  190.3460  174.4910  134.3570 O   0  0  0  0  0  1  0  0  0  0  0  0
  188.3410  175.5100  135.1540 C   0  0  0  0  0  2  0  0  0  0  0  0
  189.8680  177.4660  139.7490 C   0  0  0  0  0  0  0  0  0  0  0  0
  191.6010  175.7810  139.1910 C   0  0  0  0  0  1  0  0  0  0  0  0
  187.8990  177.7950  138.2390 N   0  0  0  0  0  0  0  0  0  0  0  0
  190.3420  175.3420  136.6030 C   0  0  1  0  0  3  0  0  0  0  0  0
  187.8430  176.7200  135.9320 C   0  0  0  0  0  2  0  0  0  0  0  0
  189.8570  175.5170  135.1660 C   0  0  1  0  0  3  0  0  0  0  0  0
  189.7110  176.3410  137.5550 C   0  0  0  0  0  0  0  0  0  0  0  0
  190.4690  177.7270  141.0910 C   0  0  0  0  0  0  0  0  0  0  0  0
  190.0810  174.0430  137.0500 O   0  0  0  0  0  1  0  0  0  0  0  0
  191.8200  177.4900  141.3320 O   0  0  0  0  0  1  0  0  0  0  0  0
  188.2580  178.4600  141.8450 C   0  0  0  0  0  3  0  0  0  0  0  0
  190.3800  176.5860  138.8610 C   0  0  0  0  0  0  0  0  0  0  0  0
  188.6430  178.2890  139.4070 C   0  0  1  0  0  3  0  0  0  0  0  0
  190.2660  178.4300  143.3780 N   0  0  0  0  0  2  0  0  0  0  0  0
  190.1330  177.4930  144.4830 C   0  0  0  0  0  2  0  0  0  0  0  0
  191.6420  175.8480  144.1870 O   0  0  0  0  0  1  0  0  0  0  0  0
  191.4420  176.9980  144.8710 N   0  0  0  0  0  2  0  0  0  0  0  0
  186.6220  178.4310  137.9170 C   0  0  0  0  0  2  0  0  0  0  0  0
  184.5650  177.4280  136.8780 C   0  0  0  0  0  2  0  0  0  0  0  0
  185.4670  177.4470  138.1000 C   0  0  2  0  0  3  0  0  0  0  0  0
  184.2850  177.9340  138.9470 C   0  0  1  0  0  0  0  0  0  0  0  0
  183.3890  177.8920  137.7250 C   0  0  0  0  0  2  0  0  0  0  0  0
  183.9370  176.9530  139.8600 F   0  0  0  0  0  0  0  0  0  0  0  0
  184.2110  178.6870  142.0170 C   0  0  0  0  0  0  0  0  0  0  0  0
  184.0960  180.3360  138.8460 O   0  0  0  0  0  0  0  0  0  0  0  0
  184.6420  179.5280  140.9430 N   0  0  0  0  0  2  0  0  0  0  0  0
  184.3400  179.3250  139.5570 C   0  0  0  0  0  0  0  0  0  0  0  0
  183.2850  177.8470  141.8440 O   0  0  0  0  0  0  0  0  0  0  0  0
  184.8250  178.8610  143.3660 C   0  0  0  0  0  3  0  0  0  0  0  0
  185.7990  177.7210  143.6610 C   0  0  0  0  0  2  0  0  0  0  0  0
  186.4250  177.9060  145.0400 C   0  0  0  0  0  2  0  0  0  0  0  0
  184.3760  179.1170  145.8170 C   0  0  0  0  0  2  0  0  0  0  0  0
  183.7410  178.9360  144.4410 C   0  0  0  0  0  2  0  0  0  0  0  0
  185.3370  177.9670  146.1100 C   0  0  0  0  0  2  0  0  0  0  0  0
  1 19  1  0  0  0  0
  2 16  2  0  0  0  0
  3 12  2  0  0  0  0
  3  8  1  0  0  0  0
  5 11  1  0  0  0  0
  5 10  1  0  0  0  0
  6 13  1  0  0  0  0
  8 18  1  0  0  0  0
  9 14  1  1  0  0  0
  9 12  1  0  0  0  0
 10  3  1  0  0  0  0
 11  4  1  6  0  0  0
 11  9  1  0  0  0  0
 12 17  1  0  0  0  0
 13 15  1  0  0  0  0
 13  1  2  0  0  0  0
 16  1  1  0  0  0  0
 17  7  1  0  0  0  0
 17  6  2  0  0  0  0
 18  6  1  0  0  0  0
 18  2  1  1  0  0  0
 19 20  1  0  0  0  0
 20 22  1  0  0  0  0
 21 22  1  0  0  0  0
 23  8  1  0  0  0  0
 24 27  1  0  0  0  0
 24 25  1  0  0  0  0
 25 23  1  6  0  0  0
 25 26  1  0  0  0  0
 26 32  1  0  0  0  0
 26 28  1  1  0  0  0
 27 26  1  0  0  0  0
 29 34  1  0  0  0  0
 30 32  2  0  0  0  0
 31 29  1  0  0  0  0
 32 31  1  0  0  0  0
 33 29  2  0  0  0  0
 34 35  1  0  0  0  0
 34 38  1  0  0  0  0
 35 36  1  0  0  0  0
 36 39  1  0  0  0  0
 37 39  1  0  0  0  0
 38 37  1  0  0  0  0
M  END
>  <MODEL>
7

>  <REMARK>
 VINA RESULT:      -7.9      2.455      6.311
  Name = 
  7 active torsions:
  status: ('A' for Active; 'I' for Inactive)
    1  A    between atoms: C_1  and  C_5
    2  A    between atoms: C_2  and  N_9
    3  A    between atoms: N_9  and  C_39
    4  A    between atoms: C_12  and  C_30
    5  A    between atoms: C_16  and  C_27
    6  A    between atoms: N_20  and  C_39
    7  A    between atoms: N_23  and  C_30
                            x       y       z     vdW  Elec       q    Type
                         _______ _______ _______ _____ _____    ______ ____

>  <TORSDO>
F 7

$$$$
=
 OpenBabel10232411073D

 39 43  0  0  1  0  0  0  0  0999 V2000
  186.6880  178.2270  137.8810 C   0  0  0  0  0  0  0  0  0  0  0  0
  188.5020  177.6760  139.4390 C   0  0  0  0  0  3  0  0  0  0  0  0
  191.1710  175.7840  137.6060 C   0  0  0  0  0  0  0  0  0  0  0  0
  193.5180  174.3080  134.4340 O   0  0  0  0  0  1  0  0  0  0  0  0
  193.4380  175.0400  136.7030 C   0  0  0  0  0  2  0  0  0  0  0  0
  188.5510  176.8380  137.0940 C   0  0  0  0  0  0  0  0  0  0  0  0
  188.9830  176.7560  134.6520 C   0  0  0  0  0  1  0  0  0  0  0  0
  190.3550  176.2200  138.7140 N   0  0  0  0  0  0  0  0  0  0  0  0
  191.5670  175.5120  135.1510 C   0  0  1  0  0  3  0  0  0  0  0  0
  192.5030  175.1180  137.9010 C   0  0  0  0  0  2  0  0  0  0  0  0
  192.6600  174.5100  135.5150 C   0  0  1  0  0  3  0  0  0  0  0  0
  190.7020  175.8850  136.3390 C   0  0  0  0  0  0  0  0  0  0  0  0
  187.2180  177.4840  136.8950 C   0  0  1  0  0  3  0  0  0  0  0  0
  192.1300  176.6680  134.6020 O   0  0  0  0  0  1  0  0  0  0  0  0
  186.5100  177.3200  135.7080 O   0  0  0  0  0  1  0  0  0  0  0  0
  187.4310  178.4160  139.1500 C   0  0  0  0  0  3  0  0  0  0  0  0
  189.3670  176.4880  136.0760 C   0  0  0  0  0  0  0  0  0  0  0  0
  188.9360  176.5530  138.5300 C   0  0  0  0  0  0  0  0  0  0  0  0
  185.4240  178.8710  137.6820 N   0  0  0  0  0  2  0  0  0  0  0  0
  184.3050  178.7420  138.6050 C   0  0  0  0  0  2  0  0  0  0  0  0
  184.4040  179.5210  140.7150 O   0  0  0  0  0  1  0  0  0  0  0  0
  184.2150  179.9280  139.4380 N   0  0  0  0  0  2  0  0  0  0  0  0
  190.8580  176.0730  140.0800 C   0  0  0  0  0  2  0  0  0  0  0  0
  192.3550  177.6440  141.3470 C   0  0  0  0  0  2  0  0  0  0  0  0
  190.9680  177.4350  140.7650 C   0  0  2  0  0  3  0  0  0  0  0  0
  190.3760  177.5370  142.1760 C   0  0  1  0  0  0  0  0  0  0  0  0
  191.7630  177.7660  142.7430 C   0  0  0  0  0  2  0  0  0  0  0  0
  189.6000  178.6800  142.2670 F   0  0  0  0  0  0  0  0  0  0  0  0
  188.0850  177.4830  144.3540 C   0  0  0  0  0  0  0  0  0  0  0  0
  190.2630  175.1840  142.6930 O   0  0  0  0  0  0  0  0  0  0  0  0
  188.4710  176.4050  143.4960 N   0  0  0  0  0  2  0  0  0  0  0  0
  189.7120  176.3140  142.7860 C   0  0  0  0  0  0  0  0  0  0  0  0
  188.9410  178.3110  144.7730 O   0  0  0  0  0  0  0  0  0  0  0  0
  186.6650  177.5800  144.8030 C   0  0  0  0  0  3  0  0  0  0  0  0
  185.8230  178.3160  143.7610 C   0  0  0  0  0  2  0  0  0  0  0  0
  184.3730  178.4090  144.2260 C   0  0  0  0  0  2  0  0  0  0  0  0
  185.1260  178.3730  146.6140 C   0  0  0  0  0  2  0  0  0  0  0  0
  186.5790  178.2800  146.1590 C   0  0  0  0  0  2  0  0  0  0  0  0
  184.2950  179.1210  145.5750 C   0  0  0  0  0  2  0  0  0  0  0  0
  1 16  2  0  0  0  0
  3 10  1  0  0  0  0
  3  8  1  0  0  0  0
  5 10  1  0  0  0  0
  6 18  1  0  0  0  0
  7 17  1  0  0  0  0
  8 23  1  0  0  0  0
  9 14  1  1  0  0  0
  9 11  1  0  0  0  0
  9 12  1  0  0  0  0
 11  4  1  6  0  0  0
 11  5  1  0  0  0  0
 12  3  2  0  0  0  0
 13 15  1  1  0  0  0
 13  6  1  0  0  0  0
 13  1  1  0  0  0  0
 16  2  1  0  0  0  0
 17 12  1  0  0  0  0
 17  6  2  0  0  0  0
 18  8  1  0  0  0  0
 18  2  2  0  0  0  0
 19  1  1  0  0  0  0
 19 20  1  0  0  0  0
 20 22  1  0  0  0  0
 22 21  1  0  0  0  0
 24 27  1  0  0  0  0
 25 23  1  1  0  0  0
 25 24  1  0  0  0  0
 25 26  1  0  0  0  0
 26 28  1  1  0  0  0
 26 27  1  0  0  0  0
 26 32  1  0  0  0  0
 29 33  2  0  0  0  0
 29 34  1  0  0  0  0
 30 32  2  0  0  0  0
 31 29  1  0  0  0  0
 32 31  1  0  0  0  0
 34 38  1  0  0  0  0
 35 36  1  0  0  0  0
 35 34  1  0  0  0  0
 36 39  1  0  0  0  0
 38 37  1  0  0  0  0
 39 37  1  0  0  0  0
M  END
>  <MODEL>
8

>  <REMARK>
 VINA RESULT:      -7.7      2.825      8.548
  Name = 
  7 active torsions:
  status: ('A' for Active; 'I' for Inactive)
    1  A    between atoms: C_1  and  C_5
    2  A    between atoms: C_2  and  N_9
    3  A    between atoms: N_9  and  C_39
    4  A    between atoms: C_12  and  C_30
    5  A    between atoms: C_16  and  C_27
    6  A    between atoms: N_20  and  C_39
    7  A    between atoms: N_23  and  C_30
                            x       y       z     vdW  Elec       q    Type
                         _______ _______ _______ _____ _____    ______ ____

>  <TORSDO>
F 7

$$$$
=
 OpenBabel10232411073D

 39 43  0  0  1  0  0  0  0  0999 V2000
  188.5880  176.7320  137.0140 C   0  0  0  0  0  0  0  0  0  0  0  0
  186.4600  177.6710  137.7950 C   0  0  0  0  0  3  0  0  0  0  0  0
  183.6800  175.3020  136.9440 C   0  0  0  0  0  0  0  0  0  0  0  0
  181.6770  171.7330  135.9440 O   0  0  0  0  0  1  0  0  0  0  0  0
  181.6220  173.8060  137.1240 C   0  0  0  0  0  2  0  0  0  0  0  0
  186.5030  175.5490  136.4910 C   0  0  0  0  0  0  0  0  0  0  0  0
  186.6440  173.1260  135.9780 C   0  0  0  0  0  1  0  0  0  0  0  0
  184.3340  176.5570  137.2270 N   0  0  0  0  0  0  0  0  0  0  0  0
  183.7540  172.9000  136.2500 C   0  0  1  0  0  3  0  0  0  0  0  0
  182.1690  175.2250  137.0730 C   0  0  0  0  0  2  0  0  0  0  0  0
  182.2510  173.0030  136.0030 C   0  0  1  0  0  3  0  0  0  0  0  0
  184.3990  174.2530  136.4800 C   0  0  0  0  0  0  0  0  0  0  0  0
  187.9820  175.7200  136.3700 C   0  0  1  0  0  3  0  0  0  0  0  0
  184.0110  172.0690  137.3450 O   0  0  0  0  0  1  0  0  0  0  0  0
  188.7450  174.8540  135.5910 O   0  0  0  0  0  1  0  0  0  0  0  0
  187.7920  177.6610  137.8510 C   0  0  0  0  0  3  0  0  0  0  0  0
  185.8720  174.3690  136.3040 C   0  0  0  0  0  0  0  0  0  0  0  0
  185.7190  176.8060  136.8060 C   0  0  0  0  0  0  0  0  0  0  0  0
  190.0100  176.8810  136.9220 N   0  0  0  0  0  2  0  0  0  0  0  0
  190.8890  176.9070  138.0810 C   0  0  0  0  0  2  0  0  0  0  0  0
  191.2000  174.6770  138.0850 O   0  0  0  0  0  1  0  0  0  0  0  0
  190.7250  175.6860  138.8510 N   0  0  0  0  0  2  0  0  0  0  0  0
  183.5410  177.6930  137.6950 C   0  0  0  0  0  2  0  0  0  0  0  0
  181.5650  178.0980  139.1950 C   0  0  0  0  0  2  0  0  0  0  0  0
  182.8980  177.3850  139.0470 C   0  0  2  0  0  3  0  0  0  0  0  0
  183.4340  178.1690  140.2510 C   0  0  1  0  0  0  0  0  0  0  0  0
  182.0940  178.8590  140.4010 C   0  0  0  0  0  2  0  0  0  0  0  0
  183.6720  177.2960  141.2990 F   0  0  0  0  0  0  0  0  0  0  0  0
  185.9200  178.6890  142.1340 C   0  0  0  0  0  0  0  0  0  0  0  0
  184.4180  180.1140  139.2190 O   0  0  0  0  0  0  0  0  0  0  0  0
  185.7930  179.0790  140.7630 N   0  0  0  0  0  2  0  0  0  0  0  0
  184.5610  179.1660  140.0370 C   0  0  0  0  0  0  0  0  0  0  0  0
  184.9120  178.6620  142.8920 O   0  0  0  0  0  0  0  0  0  0  0  0
  187.2750  178.3770  142.6760 C   0  0  0  0  0  3  0  0  0  0  0  0
  188.2430  178.0470  141.5390 C   0  0  0  0  0  2  0  0  0  0  0  0
  189.6260  177.7320  142.1000 C   0  0  0  0  0  2  0  0  0  0  0  0
  188.5870  176.9070  144.2240 C   0  0  0  0  0  2  0  0  0  0  0  0
  187.2000  177.2190  143.6720 C   0  0  0  0  0  2  0  0  0  0  0  0
  189.5440  176.5670  143.0840 C   0  0  0  0  0  2  0  0  0  0  0  0
  1 16  2  0  0  0  0
  2 16  1  0  0  0  0
  3 10  1  0  0  0  0
  3  8  1  0  0  0  0
  6 18  1  0  0  0  0
  7 17  1  0  0  0  0
  8 23  1  0  0  0  0
  9 12  1  0  0  0  0
  9 14  1  1  0  0  0
 10  5  1  0  0  0  0
 11  4  1  1  0  0  0
 11  9  1  0  0  0  0
 11  5  1  0  0  0  0
 12  3  2  0  0  0  0
 13 15  1  6  0  0  0
 13  6  1  0  0  0  0
 13  1  1  0  0  0  0
 17 12  1  0  0  0  0
 17  6  2  0  0  0  0
 18  8  1  0  0  0  0
 18  2  2  0  0  0  0
 19  1  1  0  0  0  0
 19 20  1  0  0  0  0
 20 22  1  0  0  0  0
 21 22  1  0  0  0  0
 24 27  1  0  0  0  0
 25 23  1  6  0  0  0
 25 24  1  0  0  0  0
 25 26  1  0  0  0  0
 26 27  1  0  0  0  0
 26 28  1  1  0  0  0
 29 34  1  0  0  0  0
 29 33  2  0  0  0  0
 30 32  2  0  0  0  0
 31 29  1  0  0  0  0
 32 26  1  0  0  0  0
 32 31  1  0  0  0  0
 34 38  1  0  0  0  0
 35 36  1  0  0  0  0
 35 34  1  0  0  0  0
 36 39  1  0  0  0  0
 38 37  1  0  0  0  0
 39 37  1  0  0  0  0
M  END
>  <MODEL>
9

>  <REMARK>
 VINA RESULT:      -7.6      3.455      7.987
  Name = 
  7 active torsions:
  status: ('A' for Active; 'I' for Inactive)
    1  A    between atoms: C_1  and  C_5
    2  A    between atoms: C_2  and  N_9
    3  A    between atoms: N_9  and  C_39
    4  A    between atoms: C_12  and  C_30
    5  A    between atoms: C_16  and  C_27
    6  A    between atoms: N_20  and  C_39
    7  A    between atoms: N_23  and  C_30
                            x       y       z     vdW  Elec       q    Type
                         _______ _______ _______ _____ _____    ______ ____

>  <TORSDO>
F 7

$$$$
