=
 OpenBabel10232408023D

 46 51  0  0  1  0  0  0  0  0999 V2000
  181.6940  177.2780  136.4790 C   0  0  0  0  0  0  0  0  0  0  0  0
  180.9440  180.6270  137.1860 C   0  0  0  0  0  0  0  0  0  0  0  0
  180.0900  181.7340  136.9070 N   0  0  0  0  0  1  0  0  0  0  0  0
  183.5640  178.3720  138.7040 C   0  0  0  0  0  0  0  0  0  0  0  0
  180.8410  177.0420  135.4050 O   0  0  0  0  0  1  0  0  0  0  0  0
  182.3620  176.0880  137.0290 C   0  0  0  0  0  3  0  0  0  0  0  0
  184.2090  177.2320  138.1150 N   0  0  0  0  0  0  0  0  0  0  0  0
  183.4750  176.0600  137.7520 C   0  0  0  0  0  3  0  0  0  0  0  0
  180.9100  179.4750  136.4860 N   0  0  0  0  0  0  0  0  0  0  0  0
  181.7610  178.5280  136.9780 C   0  0  0  0  0  0  0  0  0  0  0  0
  182.5260  178.9730  138.0890 C   0  0  0  0  0  0  0  0  0  0  0  0
  182.0030  180.5400  138.4710 S   0  0  0  0  0  0  0  0  0  0  0  0
  187.1820  178.7390  136.9110 C   0  0  0  0  0  2  0  0  0  0  0  0
  185.6110  177.3320  137.7110 C   0  0  1  0  0  3  0  0  0  0  0  0
  187.9370  177.6150  136.2560 C   0  0  0  0  0  0  0  0  0  0  0  0
  188.8820  177.8590  135.5270 O   0  0  0  0  0  0  0  0  0  0  0  0
  186.0830  176.0770  136.9610 C   0  0  0  0  0  2  0  0  0  0  0  0
  185.8000  178.4690  136.9050 O   0  0  0  0  0  0  0  0  0  0  0  0
  187.5600  176.1910  136.5730 C   0  0  2  0  0  3  0  0  0  0  0  0
  188.4220  175.6420  137.7000 C   0  0  0  0  0  2  0  0  0  0  0  0
  189.5340  174.7800  137.1160 C   0  0  0  0  0  2  0  0  0  0  0  0
  190.8300  176.2760  138.5280 C   0  0  0  0  0  1  0  0  0  0  0  0
  191.5380  176.1210  136.2250 C   0  0  0  0  0  1  0  0  0  0  0  0
  190.9620  175.3010  137.3750 C   0  0  0  0  0  0  0  0  0  0  0  0
  191.8520  174.2850  137.8130 O   0  0  0  0  0  0  0  0  0  0  0  0
  193.7470  174.3520  135.7550 O   0  0  0  0  0  0  0  0  0  0  0  0
  194.3410  173.6070  138.1850 O   0  0  0  0  0  1  0  0  0  0  0  0
  193.9720  176.1500  137.8490 O   0  0  0  0  0  1  0  0  0  0  0  0
  193.4960  174.5880  137.4180 P   0  0  0  0  0  0  0  0  0  0  0  0
  183.6950  179.1490  142.3140 O   0  0  0  0  0  1  0  0  0  0  0  0
  184.0990  178.9960  139.9800 C   0  0  1  0  0  3  0  0  0  0  0  0
  183.7230  178.2510  141.2450 C   0  0  1  0  0  3  0  0  0  0  0  0
  185.1210  178.1010  140.6470 C   0  0  2  0  0  3  0  0  0  0  0  0
  186.1820  178.9700  141.3050 C   0  0  0  0  0  2  0  0  0  0  0  0
  187.0460  178.1590  142.2090 C   0  0  0  0  0  0  0  0  0  0  0  0
  188.9820  176.7720  142.5550 C   0  0  0  0  0  3  0  0  0  0  0  0
  188.1880  177.5380  141.7040 C   0  0  0  0  0  3  0  0  0  0  0  0
  187.4590  177.2450  144.3610 C   0  0  0  0  0  0  0  0  0  0  0  0
  186.7090  177.9930  143.5120 N   0  0  0  0  0  0  0  0  0  0  0  0
  188.6260  176.6290  143.8930 C   0  0  0  0  0  3  0  0  0  0  0  0
  187.0630  177.1700  145.8020 C   0  0  2  0  0  3  0  0  0  0  0  0
  186.4270  178.6240  147.5640 C   0  0  0  0  0  2  0  0  0  0  0  0
  186.0850  178.2640  146.1460 C   0  0  0  0  0  2  0  0  0  0  0  0
  188.1480  177.7790  148.9640 O   0  0  0  0  0  1  0  0  0  0  0  0
  188.2190  177.2770  146.6900 N   0  0  0  0  0  2  0  0  0  0  0  0
  187.8940  178.2820  147.6910 C   0  0  1  0  0  3  0  0  0  0  0  0
  1 10  2  0  0  0  0
  1  6  1  0  0  0  0
  2 12  1  0  0  0  0
  3  2  1  0  0  0  0
  5  1  1  0  0  0  0
  6  8  2  0  0  0  0
  7  4  1  0  0  0  0
  8  7  1  0  0  0  0
  9 10  1  0  0  0  0
  9  2  2  0  0  0  0
 10 11  1  0  0  0  0
 11 12  1  0  0  0  0
 11  4  2  0  0  0  0
 14 17  1  6  0  0  0
 14  7  1  0  0  0  0
 15 19  1  0  0  0  0
 15 13  1  0  0  0  0
 16 15  2  0  0  0  0
 18 13  1  0  0  0  0
 18 14  1  0  0  0  0
 19 17  1  0  0  0  0
 19 20  1  1  0  0  0
 21 24  1  0  0  0  0
 21 20  1  0  0  0  0
 23 24  1  0  0  0  0
 24 25  1  0  0  0  0
 24 22  1  0  0  0  0
 26 29  2  0  0  0  0
 29 25  1  0  0  0  0
 29 28  1  0  0  0  0
 29 27  1  0  0  0  0
 31  4  1  6  0  0  0
 31 33  1  0  0  0  0
 31 32  1  0  0  0  0
 32 30  1  1  0  0  0
 33 32  1  0  0  0  0
 33 34  1  1  0  0  0
 34 35  1  0  0  0  0
 35 39  1  0  0  0  0
 36 40  2  0  0  0  0
 37 35  2  0  0  0  0
 37 36  1  0  0  0  0
 39 38  2  0  0  0  0
 40 38  1  0  0  0  0
 41 38  1  6  0  0  0
 41 43  1  0  0  0  0
 41 45  1  0  0  0  0
 42 46  1  0  0  0  0
 43 42  1  0  0  0  0
 45 46  1  0  0  0  0
 46 44  1  1  0  0  0
M  END
>  <MODEL>
1

>  <REMARK>
 VINA RESULT:      -7.5      0.000      0.000
  Name = 
  10 active torsions:
  status: ('A' for Active; 'I' for Inactive)
    1  A    between atoms: C_6  and  C_15
    2  A    between atoms: C_6  and  C_44
    3  A    between atoms: C_8  and  C_17
    4  A    between atoms: C_10  and  N_31
    5  A    between atoms: C_12  and  C_32
    6  A    between atoms: C_13  and  C_14
    7  A    between atoms: C_15  and  C_46
    8  A    between atoms: C_17  and  C_23
    9  A    between atoms: P_35  and  O_43
   10  A    between atoms: O_43  and  C_44
                            x       y       z     vdW  Elec       q    Type
                         _______ _______ _______ _____ _____    ______ ____

>  <TORSDO>
F 10

$$$$
=
 OpenBabel10232408023D

 46 51  0  0  1  0  0  0  0  0999 V2000
  192.4740  175.1830  135.6040 C   0  0  0  0  0  0  0  0  0  0  0  0
  193.5560  176.0980  138.8090 C   0  0  0  0  0  0  0  0  0  0  0  0
  194.6320  176.0880  139.7440 N   0  0  0  0  0  1  0  0  0  0  0  0
  190.2600  176.7700  137.0940 C   0  0  0  0  0  0  0  0  0  0  0  0
  193.5470  174.4030  135.1810 O   0  0  0  0  0  1  0  0  0  0  0  0
  191.4800  175.5060  134.5690 C   0  0  0  0  0  3  0  0  0  0  0  0
  189.6250  176.0120  136.0530 N   0  0  0  0  0  0  0  0  0  0  0  0
  190.2190  175.8720  134.7590 C   0  0  0  0  0  3  0  0  0  0  0  0
  193.5900  175.4320  137.6370 N   0  0  0  0  0  0  0  0  0  0  0  0
  192.4830  175.6480  136.8690 C   0  0  0  0  0  0  0  0  0  0  0  0
  191.5190  176.4900  137.4850 C   0  0  0  0  0  0  0  0  0  0  0  0
  192.1720  177.0180  138.9570 S   0  0  0  0  0  0  0  0  0  0  0  0
  187.7070  173.1270  136.7980 C   0  0  0  0  0  2  0  0  0  0  0  0
  188.4390  175.2160  136.3680 C   0  0  1  0  0  3  0  0  0  0  0  0
  186.3350  173.4360  136.2610 C   0  0  0  0  0  0  0  0  0  0  0  0
  185.5140  172.5440  136.1380 O   0  0  0  0  0  0  0  0  0  0  0  0
  187.2050  175.6920  135.5870 C   0  0  0  0  0  2  0  0  0  0  0  0
  188.6830  173.8580  136.0950 O   0  0  0  0  0  0  0  0  0  0  0  0
  185.9690  174.8650  135.9550 C   0  0  2  0  0  3  0  0  0  0  0  0
  185.2640  175.5080  137.1390 C   0  0  0  0  0  2  0  0  0  0  0  0
  184.0440  176.2780  136.6480 C   0  0  0  0  0  2  0  0  0  0  0  0
  183.1040  176.5340  138.8760 C   0  0  0  0  0  1  0  0  0  0  0  0
  182.2080  177.9980  137.1770 C   0  0  0  0  0  1  0  0  0  0  0  0
  183.4950  177.3210  137.6410 C   0  0  0  0  0  0  0  0  0  0  0  0
  184.4760  178.2580  138.0610 O   0  0  0  0  0  0  0  0  0  0  0  0
  182.6090  178.5750  140.1220 O   0  0  0  0  0  1  0  0  0  0  0  0
  183.5940  180.5970  138.7980 O   0  0  0  0  0  0  0  0  0  0  0  0
  185.1980  179.4830  140.5000 O   0  0  0  0  0  1  0  0  0  0  0  0
  183.9690  179.2540  139.3650 P   0  0  0  0  0  0  0  0  0  0  0  0
  187.3700  178.8840  138.0110 O   0  0  0  0  0  1  0  0  0  0  0  0
  189.4950  177.8390  137.8550 C   0  0  1  0  0  3  0  0  0  0  0  0
  187.9930  177.6420  137.8700 C   0  0  1  0  0  3  0  0  0  0  0  0
  188.8320  177.2690  139.0910 C   0  0  2  0  0  3  0  0  0  0  0  0
  188.8480  178.3230  140.1880 C   0  0  0  0  0  2  0  0  0  0  0  0
  188.7840  177.6870  141.5340 C   0  0  0  0  0  0  0  0  0  0  0  0
  189.8010  176.3630  143.2680 C   0  0  0  0  0  3  0  0  0  0  0  0
  189.8750  176.9630  142.0120 C   0  0  0  0  0  3  0  0  0  0  0  0
  187.5530  177.1980  143.5050 C   0  0  0  0  0  0  0  0  0  0  0  0
  187.6560  177.7800  142.2830 N   0  0  0  0  0  0  0  0  0  0  0  0
  188.6390  176.4850  144.0260 C   0  0  0  0  0  3  0  0  0  0  0  0
  186.3050  177.4070  144.3030 C   0  0  2  0  0  3  0  0  0  0  0  0
  184.8310  179.1680  144.8970 C   0  0  0  0  0  2  0  0  0  0  0  0
  185.4660  178.5080  143.7050 C   0  0  0  0  0  2  0  0  0  0  0  0
  185.1100  178.7030  147.2080 O   0  0  0  0  0  1  0  0  0  0  0  0
  186.5980  177.7430  145.6950 N   0  0  0  0  0  2  0  0  0  0  0  0
  185.8080  178.9200  146.0230 C   0  0  1  0  0  3  0  0  0  0  0  0
  1 10  2  0  0  0  0
  2 12  1  0  0  0  0
  2  3  1  0  0  0  0
  4 11  2  0  0  0  0
  5  1  1  0  0  0  0
  6  8  2  0  0  0  0
  6  1  1  0  0  0  0
  7 14  1  0  0  0  0
  7  4  1  0  0  0  0
  8  7  1  0  0  0  0
  9  2  2  0  0  0  0
 10 11  1  0  0  0  0
 10  9  1  0  0  0  0
 11 12  1  0  0  0  0
 14 17  1  6  0  0  0
 15 13  1  0  0  0  0
 16 15  2  0  0  0  0
 17 19  1  0  0  0  0
 18 14  1  0  0  0  0
 18 13  1  0  0  0  0
 19 15  1  0  0  0  0
 19 20  1  1  0  0  0
 21 20  1  0  0  0  0
 21 24  1  0  0  0  0
 23 24  1  0  0  0  0
 24 25  1  0  0  0  0
 24 22  1  0  0  0  0
 25 29  1  0  0  0  0
 27 29  2  0  0  0  0
 29 26  1  0  0  0  0
 29 28  1  0  0  0  0
 31  4  1  6  0  0  0
 31 32  1  0  0  0  0
 31 33  1  0  0  0  0
 32 30  1  1  0  0  0
 32 33  1  0  0  0  0
 33 34  1  1  0  0  0
 34 35  1  0  0  0  0
 35 37  2  0  0  0  0
 35 39  1  0  0  0  0
 36 40  2  0  0  0  0
 37 36  1  0  0  0  0
 38 40  1  0  0  0  0
 39 38  2  0  0  0  0
 41 38  1  6  0  0  0
 41 45  1  0  0  0  0
 42 46  1  0  0  0  0
 43 41  1  0  0  0  0
 43 42  1  0  0  0  0
 45 46  1  0  0  0  0
 46 44  1  1  0  0  0
M  END
>  <MODEL>
2

>  <REMARK>
 VINA RESULT:      -7.4      3.694      7.578
  Name = 
  10 active torsions:
  status: ('A' for Active; 'I' for Inactive)
    1  A    between atoms: C_6  and  C_15
    2  A    between atoms: C_6  and  C_44
    3  A    between atoms: C_8  and  C_17
    4  A    between atoms: C_10  and  N_31
    5  A    between atoms: C_12  and  C_32
    6  A    between atoms: C_13  and  C_14
    7  A    between atoms: C_15  and  C_46
    8  A    between atoms: C_17  and  C_23
    9  A    between atoms: P_35  and  O_43
   10  A    between atoms: O_43  and  C_44
                            x       y       z     vdW  Elec       q    Type
                         _______ _______ _______ _____ _____    ______ ____

>  <TORSDO>
F 10

$$$$
=
 OpenBabel10232408023D

 46 51  0  0  1  0  0  0  0  0999 V2000
  188.0110  174.2970  135.5800 C   0  0  0  0  0  0  0  0  0  0  0  0
  186.8960  177.5800  135.0760 C   0  0  0  0  0  0  0  0  0  0  0  0
  186.0070  178.4320  134.3580 N   0  0  0  0  0  1  0  0  0  0  0  0
  189.4360  176.2470  137.5310 C   0  0  0  0  0  0  0  0  0  0  0  0
  187.3480  173.6360  134.5490 O   0  0  0  0  0  1  0  0  0  0  0  0
  188.6840  173.4280  136.5580 C   0  0  0  0  0  3  0  0  0  0  0  0
  190.2510  175.0700  137.4210 N   0  0  0  0  0  0  0  0  0  0  0  0
  189.6760  173.7620  137.3740 C   0  0  0  0  0  3  0  0  0  0  0  0
  187.0600  176.2730  134.7870 N   0  0  0  0  0  0  0  0  0  0  0  0
  187.9020  175.6380  135.6520 C   0  0  0  0  0  0  0  0  0  0  0  0
  188.4550  176.4960  136.6410 C   0  0  0  0  0  0  0  0  0  0  0  0
  187.7560  178.0260  136.4330 S   0  0  0  0  0  0  0  0  0  0  0  0
  193.4550  176.5860  137.4360 C   0  0  0  0  0  2  0  0  0  0  0  0
  191.6850  175.2140  137.1700 C   0  0  1  0  0  3  0  0  0  0  0  0
  194.1410  176.0310  136.2170 C   0  0  0  0  0  0  0  0  0  0  0  0
  195.1640  176.5490  135.8060 O   0  0  0  0  0  0  0  0  0  0  0  0
  192.0840  174.6560  135.7950 C   0  0  0  0  0  2  0  0  0  0  0  0
  192.0580  176.5670  137.2620 O   0  0  0  0  0  0  0  0  0  0  0  0
  193.5930  174.7880  135.5650 C   0  0  2  0  0  3  0  0  0  0  0  0
  194.2960  173.5470  136.0920 C   0  0  0  0  0  2  0  0  0  0  0  0
  195.5540  173.2890  135.2730 C   0  0  0  0  0  2  0  0  0  0  0  0
  196.6540  171.1320  135.4950 C   0  0  0  0  0  1  0  0  0  0  0  0
  196.4300  172.4160  137.5280 C   0  0  0  0  0  1  0  0  0  0  0  0
  196.6780  172.5500  136.0280 C   0  0  0  0  0  0  0  0  0  0  0  0
  197.9700  173.0620  135.7380 O   0  0  0  0  0  0  0  0  0  0  0  0
  198.0320  175.8140  135.2270 O   0  0  0  0  0  0  0  0  0  0  0  0
  199.6980  174.6530  136.8690 O   0  0  0  0  0  1  0  0  0  0  0  0
  197.2730  174.9280  137.7400 O   0  0  0  0  0  1  0  0  0  0  0  0
  198.2650  174.6160  136.4090 P   0  0  0  0  0  0  0  0  0  0  0  0
  188.6610  178.8350  140.0540 O   0  0  0  0  0  1  0  0  0  0  0  0
  189.7230  177.2970  138.5900 C   0  0  1  0  0  3  0  0  0  0  0  0
  188.5860  177.5290  139.5650 C   0  0  1  0  0  3  0  0  0  0  0  0
  189.7910  176.6830  139.9730 C   0  0  2  0  0  3  0  0  0  0  0  0
  190.8340  177.4300  140.7910 C   0  0  0  0  0  2  0  0  0  0  0  0
  190.5620  177.2880  142.2500 C   0  0  0  0  0  0  0  0  0  0  0  0
  191.3590  177.0940  144.5120 C   0  0  0  0  0  3  0  0  0  0  0  0
  191.6240  177.2380  143.1510 C   0  0  0  0  0  3  0  0  0  0  0  0
  189.0020  177.0220  144.0200 C   0  0  0  0  0  0  0  0  0  0  0  0
  189.2880  177.1730  142.7010 N   0  0  0  0  0  0  0  0  0  0  0  0
  190.0430  176.9940  144.9550 C   0  0  0  0  0  3  0  0  0  0  0  0
  187.5690  176.9760  144.4490 C   0  0  2  0  0  3  0  0  0  0  0  0
  185.6030  178.2910  144.2740 C   0  0  0  0  0  2  0  0  0  0  0  0
  186.6860  177.6670  143.4400 C   0  0  0  0  0  2  0  0  0  0  0  0
  185.3320  178.3070  146.6320 O   0  0  0  0  0  1  0  0  0  0  0  0
  187.3710  177.6030  145.7540 N   0  0  0  0  0  2  0  0  0  0  0  0
  186.2570  178.5280  145.6160 C   0  0  1  0  0  3  0  0  0  0  0  0
  1 10  2  0  0  0  0
  1  6  1  0  0  0  0
  2 12  1  0  0  0  0
  3  2  1  0  0  0  0
  5  1  1  0  0  0  0
  6  8  2  0  0  0  0
  7  4  1  0  0  0  0
  8  7  1  0  0  0  0
  9  2  2  0  0  0  0
  9 10  1  0  0  0  0
 10 11  1  0  0  0  0
 11  4  2  0  0  0  0
 12 11  1  0  0  0  0
 14 17  1  6  0  0  0
 14 18  1  0  0  0  0
 14  7  1  0  0  0  0
 15 13  1  0  0  0  0
 16 15  2  0  0  0  0
 18 13  1  0  0  0  0
 19 17  1  0  0  0  0
 19 20  1  1  0  0  0
 19 15  1  0  0  0  0
 21 24  1  0  0  0  0
 21 20  1  0  0  0  0
 22 24  1  0  0  0  0
 24 23  1  0  0  0  0
 25 24  1  0  0  0  0
 25 29  1  0  0  0  0
 26 29  2  0  0  0  0
 29 27  1  0  0  0  0
 29 28  1  0  0  0  0
 31  4  1  6  0  0  0
 31 32  1  0  0  0  0
 31 33  1  0  0  0  0
 32 33  1  0  0  0  0
 32 30  1  1  0  0  0
 33 34  1  1  0  0  0
 34 35  1  0  0  0  0
 35 39  2  0  0  0  0
 35 37  1  0  0  0  0
 36 40  1  0  0  0  0
 37 36  2  0  0  0  0
 38 40  2  0  0  0  0
 39 38  1  0  0  0  0
 41 38  1  6  0  0  0
 41 45  1  0  0  0  0
 42 46  1  0  0  0  0
 43 42  1  0  0  0  0
 43 41  1  0  0  0  0
 46 45  1  0  0  0  0
 46 44  1  1  0  0  0
M  END
>  <MODEL>
3

>  <REMARK>
 VINA RESULT:      -7.4      3.733      5.628
  Name = 
  10 active torsions:
  status: ('A' for Active; 'I' for Inactive)
    1  A    between atoms: C_6  and  C_15
    2  A    between atoms: C_6  and  C_44
    3  A    between atoms: C_8  and  C_17
    4  A    between atoms: C_10  and  N_31
    5  A    between atoms: C_12  and  C_32
    6  A    between atoms: C_13  and  C_14
    7  A    between atoms: C_15  and  C_46
    8  A    between atoms: C_17  and  C_23
    9  A    between atoms: P_35  and  O_43
   10  A    between atoms: O_43  and  C_44
                            x       y       z     vdW  Elec       q    Type
                         _______ _______ _______ _____ _____    ______ ____

>  <TORSDO>
F 10

$$$$
=
 OpenBabel10232408023D

 46 51  0  0  1  0  0  0  0  0999 V2000
  190.0550  175.6040  136.8320 C   0  0  0  0  0  0  0  0  0  0  0  0
  190.3410  176.9830  140.0390 C   0  0  0  0  0  0  0  0  0  0  0  0
  191.1900  177.1980  141.1650 N   0  0  0  0  0  1  0  0  0  0  0  0
  187.4410  177.0820  137.6240 C   0  0  0  0  0  0  0  0  0  0  0  0
  191.2580  174.9100  136.7390 O   0  0  0  0  0  1  0  0  0  0  0  0
  189.2800  175.6950  135.5840 C   0  0  0  0  0  3  0  0  0  0  0  0
  187.1140  176.1470  136.5850 N   0  0  0  0  0  0  0  0  0  0  0  0
  187.9790  175.9340  135.4670 C   0  0  0  0  0  3  0  0  0  0  0  0
  190.6840  176.2000  138.9960 N   0  0  0  0  0  0  0  0  0  0  0  0
  189.7520  176.2030  138.0000 C   0  0  0  0  0  0  0  0  0  0  0  0
  188.6080  176.9910  138.2930 C   0  0  0  0  0  0  0  0  0  0  0  0
  188.8820  177.7490  139.7850 S   0  0  0  0  0  0  0  0  0  0  0  0
  185.2790  173.3180  137.6790 C   0  0  0  0  0  2  0  0  0  0  0  0
  185.9630  175.2600  136.7580 C   0  0  1  0  0  3  0  0  0  0  0  0
  184.2140  173.1300  136.6320 C   0  0  0  0  0  0  0  0  0  0  0  0
  183.5790  172.0920  136.5890 O   0  0  0  0  0  0  0  0  0  0  0  0
  185.1090  175.1750  135.4840 C   0  0  0  0  0  2  0  0  0  0  0  0
  186.3960  173.9730  137.1280 O   0  0  0  0  0  0  0  0  0  0  0  0
  183.8940  174.2660  135.6960 C   0  0  2  0  0  3  0  0  0  0  0  0
  182.7310  175.0910  136.2250 C   0  0  0  0  0  2  0  0  0  0  0  0
  182.3270  174.5770  137.6010 C   0  0  0  0  0  2  0  0  0  0  0  0
  180.4120  173.0970  137.8230 C   0  0  0  0  0  1  0  0  0  0  0  0
  179.9830  175.2270  136.7690 C   0  0  0  0  0  1  0  0  0  0  0  0
  180.8080  174.5580  137.8650 C   0  0  0  0  0  0  0  0  0  0  0  0
  180.4650  175.0260  139.1610 O   0  0  0  0  0  0  0  0  0  0  0  0
  182.5620  176.5880  140.1600 O   0  0  0  0  0  1  0  0  0  0  0  0
  180.0540  177.2370  140.4780 O   0  0  0  0  0  1  0  0  0  0  0  0
  181.0080  177.5840  138.0940 O   0  0  0  0  0  0  0  0  0  0  0  0
  181.0040  176.6250  139.4850 P   0  0  0  0  0  0  0  0  0  0  0  0
  184.1610  178.7640  137.8760 O   0  0  0  0  0  1  0  0  0  0  0  0
  186.4400  178.1330  138.0700 C   0  0  1  0  0  3  0  0  0  0  0  0
  184.9990  177.6640  138.0670 C   0  0  1  0  0  3  0  0  0  0  0  0
  185.7810  177.7490  139.3780 C   0  0  2  0  0  3  0  0  0  0  0  0
  185.5180  179.0120  140.1850 C   0  0  0  0  0  2  0  0  0  0  0  0
  185.3880  178.6950  141.6350 C   0  0  0  0  0  0  0  0  0  0  0  0
  184.0850  178.6730  143.6580 C   0  0  0  0  0  3  0  0  0  0  0  0
  184.1920  178.9620  142.2990 C   0  0  0  0  0  3  0  0  0  0  0  0
  186.3670  177.8990  143.6470 C   0  0  0  0  0  0  0  0  0  0  0  0
  186.4400  178.1810  142.3210 N   0  0  0  0  0  0  0  0  0  0  0  0
  185.1720  178.1300  144.3380 C   0  0  0  0  0  3  0  0  0  0  0  0
  187.5430  177.2640  144.3180 C   0  0  2  0  0  3  0  0  0  0  0  0
  189.0690  177.7250  146.0750 C   0  0  0  0  0  2  0  0  0  0  0  0
  187.5980  177.6450  145.7750 C   0  0  0  0  0  2  0  0  0  0  0  0
  190.9230  177.4260  144.6240 O   0  0  0  0  0  1  0  0  0  0  0  0
  188.8040  177.6470  143.6850 N   0  0  0  0  0  2  0  0  0  0  0  0
  189.7000  178.0770  144.7470 C   0  0  1  0  0  3  0  0  0  0  0  0
  1 10  2  0  0  0  0
  2  3  1  0  0  0  0
  4 11  2  0  0  0  0
  5  1  1  0  0  0  0
  6  1  1  0  0  0  0
  7 14  1  0  0  0  0
  7  4  1  0  0  0  0
  8  6  2  0  0  0  0
  8  7  1  0  0  0  0
  9  2  2  0  0  0  0
 10 11  1  0  0  0  0
 10  9  1  0  0  0  0
 11 12  1  0  0  0  0
 12  2  1  0  0  0  0
 14 17  1  6  0  0  0
 14 18  1  0  0  0  0
 15 13  1  0  0  0  0
 16 15  2  0  0  0  0
 17 19  1  0  0  0  0
 18 13  1  0  0  0  0
 19 20  1  1  0  0  0
 19 15  1  0  0  0  0
 20 21  1  0  0  0  0
 21 24  1  0  0  0  0
 22 24  1  0  0  0  0
 23 24  1  0  0  0  0
 24 25  1  0  0  0  0
 25 29  1  0  0  0  0
 28 29  2  0  0  0  0
 29 26  1  0  0  0  0
 29 27  1  0  0  0  0
 31  4  1  6  0  0  0
 31 33  1  0  0  0  0
 32 30  1  1  0  0  0
 32 31  1  0  0  0  0
 32 33  1  0  0  0  0
 33 34  1  1  0  0  0
 34 35  1  0  0  0  0
 35 37  2  0  0  0  0
 35 39  1  0  0  0  0
 36 40  2  0  0  0  0
 37 36  1  0  0  0  0
 38 40  1  0  0  0  0
 39 38  2  0  0  0  0
 41 38  1  6  0  0  0
 41 43  1  0  0  0  0
 43 42  1  0  0  0  0
 45 41  1  0  0  0  0
 45 46  1  0  0  0  0
 46 44  1  6  0  0  0
 46 42  1  0  0  0  0
M  END
>  <MODEL>
4

>  <REMARK>
 VINA RESULT:      -7.3      3.569      7.350
  Name = 
  10 active torsions:
  status: ('A' for Active; 'I' for Inactive)
    1  A    between atoms: C_6  and  C_15
    2  A    between atoms: C_6  and  C_44
    3  A    between atoms: C_8  and  C_17
    4  A    between atoms: C_10  and  N_31
    5  A    between atoms: C_12  and  C_32
    6  A    between atoms: C_13  and  C_14
    7  A    between atoms: C_15  and  C_46
    8  A    between atoms: C_17  and  C_23
    9  A    between atoms: P_35  and  O_43
   10  A    between atoms: O_43  and  C_44
                            x       y       z     vdW  Elec       q    Type
                         _______ _______ _______ _____ _____    ______ ____

>  <TORSDO>
F 10

$$$$
=
 OpenBabel10232408023D

 46 51  0  0  1  0  0  0  0  0999 V2000
  191.0090  176.9210  142.4890 C   0  0  0  0  0  0  0  0  0  0  0  0
  187.5650  177.4180  142.8960 C   0  0  0  0  0  0  0  0  0  0  0  0
  186.4610  177.3840  143.7980 N   0  0  0  0  0  1  0  0  0  0  0  0
  189.7360  177.9590  139.8540 C   0  0  0  0  0  0  0  0  0  0  0  0
  191.3380  176.3580  143.7190 O   0  0  0  0  0  1  0  0  0  0  0  0
  192.1510  177.2880  141.6370 C   0  0  0  0  0  3  0  0  0  0  0  0
  190.9720  177.3130  139.5140 N   0  0  0  0  0  0  0  0  0  0  0  0
  192.1420  177.4620  140.3210 C   0  0  0  0  0  3  0  0  0  0  0  0
  188.7940  176.9640  143.2150 N   0  0  0  0  0  0  0  0  0  0  0  0
  189.7110  177.1680  142.2260 C   0  0  0  0  0  0  0  0  0  0  0  0
  189.1670  177.7730  141.0620 C   0  0  0  0  0  0  0  0  0  0  0  0
  187.5400  178.1260  141.3860 S   0  0  0  0  0  0  0  0  0  0  0  0
  189.7670  174.7810  137.3460 C   0  0  0  0  0  2  0  0  0  0  0  0
  190.9920  176.3380  138.4240 C   0  0  1  0  0  3  0  0  0  0  0  0
  190.9950  174.0030  136.9540 C   0  0  0  0  0  0  0  0  0  0  0  0
  190.8810  172.9170  136.4160 O   0  0  0  0  0  0  0  0  0  0  0  0
  192.3440  175.6130  138.3300 C   0  0  0  0  0  2  0  0  0  0  0  0
  189.9580  175.3990  138.5960 O   0  0  0  0  0  0  0  0  0  0  0  0
  192.3540  174.6190  137.1640 C   0  0  2  0  0  3  0  0  0  0  0  0
  192.8290  175.3230  135.9020 C   0  0  0  0  0  2  0  0  0  0  0  0
  194.1260  174.6850  135.4210 C   0  0  0  0  0  2  0  0  0  0  0  0
  195.0830  176.9190  135.4710 C   0  0  0  0  0  1  0  0  0  0  0  0
  196.6010  175.1340  134.8900 C   0  0  0  0  0  1  0  0  0  0  0  0
  195.4040  175.4700  135.7750 C   0  0  0  0  0  0  0  0  0  0  0  0
  195.7230  175.4150  137.1580 O   0  0  0  0  0  0  0  0  0  0  0  0
  195.6240  172.6620  136.6640 O   0  0  0  0  0  0  0  0  0  0  0  0
  195.7150  173.6520  139.0780 O   0  0  0  0  0  1  0  0  0  0  0  0
  197.9310  173.7540  137.7390 O   0  0  0  0  0  1  0  0  0  0  0  0
  196.2470  173.8670  137.6860 P   0  0  0  0  0  0  0  0  0  0  0  0
  189.0740  179.5390  136.5790 O   0  0  0  0  0  1  0  0  0  0  0  0
  188.9810  178.7870  138.8280 C   0  0  1  0  0  3  0  0  0  0  0  0
  189.2790  178.4190  137.3880 C   0  0  1  0  0  3  0  0  0  0  0  0
  187.9910  177.9400  138.0570 C   0  0  2  0  0  3  0  0  0  0  0  0
  186.7670  178.7850  137.7370 C   0  0  0  0  0  2  0  0  0  0  0  0
  185.5210  177.9730  137.8430 C   0  0  0  0  0  0  0  0  0  0  0  0
  183.9270  176.4580  136.8650 C   0  0  0  0  0  3  0  0  0  0  0  0
  185.1000  177.2050  136.7590 C   0  0  0  0  0  3  0  0  0  0  0  0
  183.6270  177.2960  139.1040 C   0  0  0  0  0  0  0  0  0  0  0  0
  184.7770  178.0050  138.9770 N   0  0  0  0  0  0  0  0  0  0  0  0
  183.1880  176.4930  138.0440 C   0  0  0  0  0  3  0  0  0  0  0  0
  182.9000  177.3240  140.4110 C   0  0  2  0  0  3  0  0  0  0  0  0
  181.5170  178.7890  141.6630 C   0  0  0  0  0  2  0  0  0  0  0  0
  181.6440  178.1510  140.3080 C   0  0  0  0  0  2  0  0  0  0  0  0
  182.9630  178.6490  143.5400 O   0  0  0  0  0  1  0  0  0  0  0  0
  183.7310  177.8640  141.4850 N   0  0  0  0  0  2  0  0  0  0  0  0
  182.9390  178.8770  142.1670 C   0  0  1  0  0  3  0  0  0  0  0  0
  1  5  1  0  0  0  0
  2  9  2  0  0  0  0
  2  3  1  0  0  0  0
  4 11  2  0  0  0  0
  6  1  1  0  0  0  0
  7  4  1  0  0  0  0
  7  8  1  0  0  0  0
  8  6  2  0  0  0  0
 10  1  2  0  0  0  0
 10  9  1  0  0  0  0
 11 12  1  0  0  0  0
 11 10  1  0  0  0  0
 12  2  1  0  0  0  0
 13 18  1  0  0  0  0
 14 17  1  1  0  0  0
 14 18  1  0  0  0  0
 14  7  1  0  0  0  0
 15 19  1  0  0  0  0
 15 13  1  0  0  0  0
 16 15  2  0  0  0  0
 19 20  1  6  0  0  0
 19 17  1  0  0  0  0
 21 24  1  0  0  0  0
 21 20  1  0  0  0  0
 22 24  1  0  0  0  0
 23 24  1  0  0  0  0
 24 25  1  0  0  0  0
 25 29  1  0  0  0  0
 26 29  2  0  0  0  0
 29 28  1  0  0  0  0
 29 27  1  0  0  0  0
 31  4  1  1  0  0  0
 32 30  1  6  0  0  0
 32 33  1  0  0  0  0
 32 31  1  0  0  0  0
 33 34  1  6  0  0  0
 33 31  1  0  0  0  0
 34 35  1  0  0  0  0
 35 39  1  0  0  0  0
 36 40  2  0  0  0  0
 37 36  1  0  0  0  0
 37 35  2  0  0  0  0
 39 38  2  0  0  0  0
 40 38  1  0  0  0  0
 41 38  1  6  0  0  0
 41 45  1  0  0  0  0
 42 46  1  0  0  0  0
 43 41  1  0  0  0  0
 43 42  1  0  0  0  0
 45 46  1  0  0  0  0
 46 44  1  1  0  0  0
M  END
>  <MODEL>
5

>  <REMARK>
 VINA RESULT:      -7.1      3.071      6.914
  Name = 
  10 active torsions:
  status: ('A' for Active; 'I' for Inactive)
    1  A    between atoms: C_6  and  C_15
    2  A    between atoms: C_6  and  C_44
    3  A    between atoms: C_8  and  C_17
    4  A    between atoms: C_10  and  N_31
    5  A    between atoms: C_12  and  C_32
    6  A    between atoms: C_13  and  C_14
    7  A    between atoms: C_15  and  C_46
    8  A    between atoms: C_17  and  C_23
    9  A    between atoms: P_35  and  O_43
   10  A    between atoms: O_43  and  C_44
                            x       y       z     vdW  Elec       q    Type
                         _______ _______ _______ _____ _____    ______ ____

>  <TORSDO>
F 10

$$$$
=
 OpenBabel10232408023D

 46 51  0  0  1  0  0  0  0  0999 V2000
  191.2790  176.8380  142.6170 C   0  0  0  0  0  0  0  0  0  0  0  0
  187.8260  177.0570  143.1700 C   0  0  0  0  0  0  0  0  0  0  0  0
  186.7630  176.8960  144.1060 N   0  0  0  0  0  1  0  0  0  0  0  0
  189.8330  177.9130  140.0880 C   0  0  0  0  0  0  0  0  0  0  0  0
  191.6940  176.2390  143.8030 O   0  0  0  0  0  1  0  0  0  0  0  0
  192.3570  177.3310  141.7470 C   0  0  0  0  0  3  0  0  0  0  0  0
  191.0980  177.3780  139.6710 N   0  0  0  0  0  0  0  0  0  0  0  0
  192.2850  177.5710  140.4430 C   0  0  0  0  0  3  0  0  0  0  0  0
  189.0950  176.6800  143.4210 N   0  0  0  0  0  0  0  0  0  0  0  0
  189.9560  177.0010  142.4130 C   0  0  0  0  0  0  0  0  0  0  0  0
  189.3260  177.6230  141.3030 C   0  0  0  0  0  0  0  0  0  0  0  0
  187.6920  177.8370  141.7020 S   0  0  0  0  0  0  0  0  0  0  0  0
  190.0180  174.8420  137.4420 C   0  0  0  0  0  2  0  0  0  0  0  0
  191.1470  176.4630  138.5300 C   0  0  1  0  0  3  0  0  0  0  0  0
  191.2890  174.2160  136.9370 C   0  0  0  0  0  0  0  0  0  0  0  0
  191.2510  173.1500  136.3470 O   0  0  0  0  0  0  0  0  0  0  0  0
  192.5550  175.8870  138.3170 C   0  0  0  0  0  2  0  0  0  0  0  0
  190.2250  175.4160  138.7100 O   0  0  0  0  0  0  0  0  0  0  0  0
  192.5910  174.9570  137.1000 C   0  0  2  0  0  3  0  0  0  0  0  0
  192.9110  175.7670  135.8530 C   0  0  0  0  0  2  0  0  0  0  0  0
  194.0800  175.1260  135.1160 C   0  0  0  0  0  2  0  0  0  0  0  0
  195.2270  177.2700  135.0950 C   0  0  0  0  0  1  0  0  0  0  0  0
  196.5320  175.3680  134.3800 C   0  0  0  0  0  1  0  0  0  0  0  0
  195.4470  175.7960  135.3650 C   0  0  0  0  0  0  0  0  0  0  0  0
  195.8750  175.6980  136.7150 O   0  0  0  0  0  0  0  0  0  0  0  0
  195.7200  173.7650  138.7330 O   0  0  0  0  0  1  0  0  0  0  0  0
  197.8300  174.0500  137.2230 O   0  0  0  0  0  1  0  0  0  0  0  0
  195.7790  172.9460  136.0880 O   0  0  0  0  0  0  0  0  0  0  0  0
  196.3260  174.1080  137.1840 P   0  0  0  0  0  0  0  0  0  0  0  0
  188.9850  179.7070  136.9710 O   0  0  0  0  0  1  0  0  0  0  0  0
  188.9810  178.7330  139.1350 C   0  0  1  0  0  3  0  0  0  0  0  0
  189.3290  178.5490  137.6710 C   0  0  1  0  0  3  0  0  0  0  0  0
  188.1110  177.8460  138.2690 C   0  0  2  0  0  3  0  0  0  0  0  0
  186.7890  178.5550  138.0130 C   0  0  0  0  0  2  0  0  0  0  0  0
  185.7100  177.5700  137.7170 C   0  0  0  0  0  0  0  0  0  0  0  0
  183.4160  176.8670  137.9070 C   0  0  0  0  0  3  0  0  0  0  0  0
  184.4160  177.8000  138.1800 C   0  0  0  0  0  3  0  0  0  0  0  0
  185.0370  175.5060  136.7560 C   0  0  0  0  0  0  0  0  0  0  0  0
  185.9890  176.4350  137.0280 N   0  0  0  0  0  0  0  0  0  0  0  0
  183.7210  175.7170  137.1840 C   0  0  0  0  0  3  0  0  0  0  0  0
  185.4040  174.3150  135.9270 C   0  0  2  0  0  3  0  0  0  0  0  0
  185.9350  172.0220  136.2200 C   0  0  0  0  0  2  0  0  0  0  0  0
  184.8870  173.0460  136.5560 C   0  0  0  0  0  2  0  0  0  0  0  0
  187.9890  172.2870  135.0620 O   0  0  0  0  0  1  0  0  0  0  0  0
  186.8510  174.1970  135.7540 N   0  0  0  0  0  2  0  0  0  0  0  0
  187.2070  172.8250  136.0790 C   0  0  1  0  0  3  0  0  0  0  0  0
  1  5  1  0  0  0  0
  2  9  2  0  0  0  0
  2  3  1  0  0  0  0
  4 11  2  0  0  0  0
  6  1  1  0  0  0  0
  7  4  1  0  0  0  0
  7  8  1  0  0  0  0
  8  6  2  0  0  0  0
 10  1  2  0  0  0  0
 10  9  1  0  0  0  0
 11 12  1  0  0  0  0
 11 10  1  0  0  0  0
 12  2  1  0  0  0  0
 13 18  1  0  0  0  0
 14 17  1  1  0  0  0
 14 18  1  0  0  0  0
 14  7  1  0  0  0  0
 15 19  1  0  0  0  0
 15 13  1  0  0  0  0
 16 15  2  0  0  0  0
 19 20  1  6  0  0  0
 19 17  1  0  0  0  0
 21 24  1  0  0  0  0
 21 20  1  0  0  0  0
 22 24  1  0  0  0  0
 23 24  1  0  0  0  0
 24 25  1  0  0  0  0
 25 29  1  0  0  0  0
 28 29  2  0  0  0  0
 29 27  1  0  0  0  0
 29 26  1  0  0  0  0
 31  4  1  1  0  0  0
 32 30  1  6  0  0  0
 32 33  1  0  0  0  0
 32 31  1  0  0  0  0
 33 34  1  6  0  0  0
 33 31  1  0  0  0  0
 35 34  1  0  0  0  0
 35 37  1  0  0  0  0
 36 37  2  0  0  0  0
 38 39  1  0  0  0  0
 38 40  2  0  0  0  0
 39 35  2  0  0  0  0
 40 36  1  0  0  0  0
 41 43  1  0  0  0  0
 41 38  1  1  0  0  0
 42 43  1  0  0  0  0
 45 41  1  0  0  0  0
 45 46  1  0  0  0  0
 46 44  1  6  0  0  0
 46 42  1  0  0  0  0
M  END
>  <MODEL>
6

>  <REMARK>
 VINA RESULT:      -7.1      3.445      7.992
  Name = 
  10 active torsions:
  status: ('A' for Active; 'I' for Inactive)
    1  A    between atoms: C_6  and  C_15
    2  A    between atoms: C_6  and  C_44
    3  A    between atoms: C_8  and  C_17
    4  A    between atoms: C_10  and  N_31
    5  A    between atoms: C_12  and  C_32
    6  A    between atoms: C_13  and  C_14
    7  A    between atoms: C_15  and  C_46
    8  A    between atoms: C_17  and  C_23
    9  A    between atoms: P_35  and  O_43
   10  A    between atoms: O_43  and  C_44
                            x       y       z     vdW  Elec       q    Type
                         _______ _______ _______ _____ _____    ______ ____

>  <TORSDO>
F 10

$$$$
=
 OpenBabel10232408023D

 46 51  0  0  1  0  0  0  0  0999 V2000
  187.1150  177.7380  137.2720 C   0  0  0  0  0  0  0  0  0  0  0  0
  186.7770  174.3040  136.6620 C   0  0  0  0  0  0  0  0  0  0  0  0
  185.9330  173.2650  136.1700 N   0  0  0  0  0  1  0  0  0  0  0  0
  189.7360  176.2360  137.9910 C   0  0  0  0  0  0  0  0  0  0  0  0
  185.8220  178.1780  137.0020 O   0  0  0  0  0  1  0  0  0  0  0  0
  188.1160  178.7980  137.4650 C   0  0  0  0  0  3  0  0  0  0  0  0
  189.7400  177.4830  138.7020 N   0  0  0  0  0  0  0  0  0  0  0  0
  189.2780  178.6930  138.0980 C   0  0  0  0  0  3  0  0  0  0  0  0
  186.3610  175.5750  136.8300 N   0  0  0  0  0  0  0  0  0  0  0  0
  187.3580  176.4120  137.2380 C   0  0  0  0  0  0  0  0  0  0  0  0
  188.6030  175.7590  137.4370 C   0  0  0  0  0  0  0  0  0  0  0  0
  188.4060  174.1390  136.9760 S   0  0  0  0  0  0  0  0  0  0  0  0
  191.7290  177.6370  141.6330 C   0  0  0  0  0  2  0  0  0  0  0  0
  190.0510  177.4900  140.1320 C   0  0  1  0  0  3  0  0  0  0  0  0
  190.9660  176.8320  142.6500 C   0  0  0  0  0  0  0  0  0  0  0  0
  191.5090  176.4860  143.6840 O   0  0  0  0  0  0  0  0  0  0  0  0
  189.1890  176.4850  140.9110 C   0  0  0  0  0  2  0  0  0  0  0  0
  191.4140  177.2040  140.3310 O   0  0  0  0  0  0  0  0  0  0  0  0
  189.5090  176.5300  142.4080 C   0  0  2  0  0  3  0  0  0  0  0  0
  188.6240  177.5650  143.0840 C   0  0  0  0  0  2  0  0  0  0  0  0
  187.6630  176.8680  144.0390 C   0  0  0  0  0  2  0  0  0  0  0  0
  188.5410  177.9530  146.0290 C   0  0  0  0  0  1  0  0  0  0  0  0
  186.3530  176.9540  146.2500 C   0  0  0  0  0  1  0  0  0  0  0  0
  187.2540  177.7010  145.2700 C   0  0  0  0  0  0  0  0  0  0  0  0
  186.7370  178.9780  144.9280 O   0  0  0  0  0  0  0  0  0  0  0  0
  184.5560  177.7660  143.6590 O   0  0  0  0  0  0  0  0  0  0  0  0
  184.6600  180.3320  144.1230 O   0  0  0  0  0  1  0  0  0  0  0  0
  184.2150  178.8360  146.1910 O   0  0  0  0  0  1  0  0  0  0  0  0
  185.0320  179.0020  144.7210 P   0  0  0  0  0  0  0  0  0  0  0  0
  191.9450  173.5360  136.7720 O   0  0  0  0  0  1  0  0  0  0  0  0
  190.9820  175.3690  137.9310 C   0  0  1  0  0  3  0  0  0  0  0  0
  191.2240  174.7170  136.5840 C   0  0  1  0  0  3  0  0  0  0  0  0
  192.0190  175.9560  136.9970 C   0  0  2  0  0  3  0  0  0  0  0  0
  193.4040  175.6580  137.5500 C   0  0  0  0  0  2  0  0  0  0  0  0
  194.4440  175.8370  136.4980 C   0  0  0  0  0  0  0  0  0  0  0  0
  195.1130  176.6800  134.3460 C   0  0  0  0  0  3  0  0  0  0  0  0
  194.1360  176.5290  135.3280 C   0  0  0  0  0  3  0  0  0  0  0  0
  196.6470  175.4230  135.7140 C   0  0  0  0  0  0  0  0  0  0  0  0
  195.6800  175.2990  136.6590 N   0  0  0  0  0  0  0  0  0  0  0  0
  196.3790  176.1340  134.5390 C   0  0  0  0  0  3  0  0  0  0  0  0
  198.0070  174.8670  135.9950 C   0  0  2  0  0  3  0  0  0  0  0  0
  198.9940  172.8810  136.8350 C   0  0  0  0  0  2  0  0  0  0  0  0
  198.0260  173.3730  135.7950 C   0  0  0  0  0  2  0  0  0  0  0  0
  200.1780  174.0980  138.4930 O   0  0  0  0  0  1  0  0  0  0  0  0
  198.4480  175.1650  137.3560 N   0  0  0  0  0  2  0  0  0  0  0  0
  198.9160  173.9150  137.9340 C   0  0  1  0  0  3  0  0  0  0  0  0
  1  6  1  0  0  0  0
  2  9  2  0  0  0  0
  2 12  1  0  0  0  0
  3  2  1  0  0  0  0
  4  7  1  0  0  0  0
  5  1  1  0  0  0  0
  6  8  2  0  0  0  0
  8  7  1  0  0  0  0
  9 10  1  0  0  0  0
 10  1  2  0  0  0  0
 10 11  1  0  0  0  0
 11  4  2  0  0  0  0
 12 11  1  0  0  0  0
 13 15  1  0  0  0  0
 14  7  1  6  0  0  0
 14 18  1  0  0  0  0
 14 17  1  0  0  0  0
 15 16  2  0  0  0  0
 17 19  1  0  0  0  0
 18 13  1  0  0  0  0
 19 15  1  0  0  0  0
 19 20  1  1  0  0  0
 20 21  1  0  0  0  0
 21 24  1  0  0  0  0
 24 22  1  0  0  0  0
 24 23  1  0  0  0  0
 25 24  1  0  0  0  0
 26 29  2  0  0  0  0
 27 29  1  0  0  0  0
 29 25  1  0  0  0  0
 29 28  1  0  0  0  0
 31  4  1  6  0  0  0
 32 30  1  1  0  0  0
 32 33  1  0  0  0  0
 32 31  1  0  0  0  0
 33 34  1  1  0  0  0
 33 31  1  0  0  0  0
 35 39  1  0  0  0  0
 35 34  1  0  0  0  0
 36 40  2  0  0  0  0
 36 37  1  0  0  0  0
 37 35  2  0  0  0  0
 38 39  2  0  0  0  0
 40 38  1  0  0  0  0
 41 38  1  1  0  0  0
 41 45  1  0  0  0  0
 42 46  1  0  0  0  0
 43 41  1  0  0  0  0
 43 42  1  0  0  0  0
 45 46  1  0  0  0  0
 46 44  1  6  0  0  0
M  END
>  <MODEL>
7

>  <REMARK>
 VINA RESULT:      -7.0      4.883     10.077
  Name = 
  10 active torsions:
  status: ('A' for Active; 'I' for Inactive)
    1  A    between atoms: C_6  and  C_15
    2  A    between atoms: C_6  and  C_44
    3  A    between atoms: C_8  and  C_17
    4  A    between atoms: C_10  and  N_31
    5  A    between atoms: C_12  and  C_32
    6  A    between atoms: C_13  and  C_14
    7  A    between atoms: C_15  and  C_46
    8  A    between atoms: C_17  and  C_23
    9  A    between atoms: P_35  and  O_43
   10  A    between atoms: O_43  and  C_44
                            x       y       z     vdW  Elec       q    Type
                         _______ _______ _______ _____ _____    ______ ____

>  <TORSDO>
F 10

$$$$
=
 OpenBabel10232408023D

 46 51  0  0  1  0  0  0  0  0999 V2000
  187.0850  177.4810  136.9400 C   0  0  0  0  0  0  0  0  0  0  0  0
  186.5820  174.0170  136.7960 C   0  0  0  0  0  0  0  0  0  0  0  0
  185.6650  172.9640  136.5060 N   0  0  0  0  0  1  0  0  0  0  0  0
  189.7050  175.9650  137.6360 C   0  0  0  0  0  0  0  0  0  0  0  0
  185.7900  177.9410  136.7180 O   0  0  0  0  0  1  0  0  0  0  0  0
  188.1350  178.5120  136.9200 C   0  0  0  0  0  3  0  0  0  0  0  0
  189.8100  177.2880  138.1820 N   0  0  0  0  0  0  0  0  0  0  0  0
  189.3410  178.4340  137.4680 C   0  0  0  0  0  3  0  0  0  0  0  0
  186.2240  175.3160  136.8350 N   0  0  0  0  0  0  0  0  0  0  0  0
  187.2800  176.1520  137.0550 C   0  0  0  0  0  0  0  0  0  0  0  0
  188.5140  175.4740  137.2370 C   0  0  0  0  0  0  0  0  0  0  0  0
  188.2250  173.8200  137.0010 S   0  0  0  0  0  0  0  0  0  0  0  0
  192.0410  177.6620  140.9120 C   0  0  0  0  0  2  0  0  0  0  0  0
  190.2390  177.4570  139.5710 C   0  0  1  0  0  3  0  0  0  0  0  0
  191.3090  177.0620  142.0830 C   0  0  0  0  0  0  0  0  0  0  0  0
  191.9100  176.8110  143.1120 O   0  0  0  0  0  0  0  0  0  0  0  0
  189.3740  176.6370  140.5410 C   0  0  0  0  0  2  0  0  0  0  0  0
  191.5890  177.0890  139.7080 O   0  0  0  0  0  0  0  0  0  0  0  0
  189.8200  176.8520  141.9910 C   0  0  2  0  0  3  0  0  0  0  0  0
  189.0700  178.0360  142.5810 C   0  0  0  0  0  2  0  0  0  0  0  0
  189.4810  178.2250  144.0360 C   0  0  0  0  0  2  0  0  0  0  0  0
  187.4880  176.8470  144.2470 C   0  0  0  0  0  1  0  0  0  0  0  0
  187.9000  178.3920  146.0570 C   0  0  0  0  0  1  0  0  0  0  0  0
  188.6030  177.4760  145.0590 C   0  0  0  0  0  0  0  0  0  0  0  0
  189.2840  176.4050  145.6950 O   0  0  0  0  0  0  0  0  0  0  0  0
  191.5990  177.9370  146.0520 O   0  0  0  0  0  0  0  0  0  0  0  0
  191.1970  175.6880  147.3140 O   0  0  0  0  0  1  0  0  0  0  0  0
  189.8020  177.7070  148.1470 O   0  0  0  0  0  1  0  0  0  0  0  0
  190.4800  176.9150  146.8180 P   0  0  0  0  0  0  0  0  0  0  0  0
  191.9040  173.3070  136.3130 O   0  0  0  0  0  1  0  0  0  0  0  0
  190.9110  175.0430  137.5890 C   0  0  1  0  0  3  0  0  0  0  0  0
  191.2580  174.5400  136.2030 C   0  0  1  0  0  3  0  0  0  0  0  0
  192.0610  175.6760  136.8350 C   0  0  2  0  0  3  0  0  0  0  0  0
  193.3690  175.2390  137.4760 C   0  0  0  0  0  2  0  0  0  0  0  0
  194.5300  175.6260  136.6260 C   0  0  0  0  0  0  0  0  0  0  0  0
  195.4440  176.8720  134.7810 C   0  0  0  0  0  3  0  0  0  0  0  0
  194.3530  176.5260  135.5770 C   0  0  0  0  0  3  0  0  0  0  0  0
  196.8290  175.3900  136.0810 C   0  0  0  0  0  0  0  0  0  0  0  0
  195.7520  175.0780  136.8460 N   0  0  0  0  0  0  0  0  0  0  0  0
  196.6920  176.3110  135.0350 C   0  0  0  0  0  3  0  0  0  0  0  0
  198.1600  174.8030  136.4310 C   0  0  2  0  0  3  0  0  0  0  0  0
  199.8200  173.4160  135.4570 C   0  0  0  0  0  2  0  0  0  0  0  0
  199.0240  174.6650  135.2020 C   0  0  0  0  0  2  0  0  0  0  0  0
  199.7250  171.9120  137.2910 O   0  0  0  0  0  1  0  0  0  0  0  0
  198.0280  173.4910  137.0610 N   0  0  0  0  0  2  0  0  0  0  0  0
  198.9370  172.5920  136.3670 C   0  0  1  0  0  3  0  0  0  0  0  0
  1 10  2  0  0  0  0
  2  9  2  0  0  0  0
  2 12  1  0  0  0  0
  3  2  1  0  0  0  0
  4  7  1  0  0  0  0
  5  1  1  0  0  0  0
  6  1  1  0  0  0  0
  6  8  2  0  0  0  0
  8  7  1  0  0  0  0
  9 10  1  0  0  0  0
 10 11  1  0  0  0  0
 11  4  2  0  0  0  0
 12 11  1  0  0  0  0
 13 15  1  0  0  0  0
 14  7  1  6  0  0  0
 14 18  1  0  0  0  0
 14 17  1  0  0  0  0
 15 16  2  0  0  0  0
 17 19  1  0  0  0  0
 18 13  1  0  0  0  0
 19 15  1  0  0  0  0
 19 20  1  6  0  0  0
 20 21  1  0  0  0  0
 21 24  1  0  0  0  0
 22 24  1  0  0  0  0
 24 25  1  0  0  0  0
 24 23  1  0  0  0  0
 25 29  1  0  0  0  0
 26 29  2  0  0  0  0
 29 27  1  0  0  0  0
 29 28  1  0  0  0  0
 31  4  1  6  0  0  0
 32 30  1  1  0  0  0
 32 33  1  0  0  0  0
 32 31  1  0  0  0  0
 33 34  1  1  0  0  0
 33 31  1  0  0  0  0
 35 39  1  0  0  0  0
 35 34  1  0  0  0  0
 36 40  2  0  0  0  0
 36 37  1  0  0  0  0
 37 35  2  0  0  0  0
 38 39  2  0  0  0  0
 40 38  1  0  0  0  0
 41 38  1  6  0  0  0
 41 45  1  0  0  0  0
 42 46  1  0  0  0  0
 43 42  1  0  0  0  0
 43 41  1  0  0  0  0
 46 45  1  0  0  0  0
 46 44  1  1  0  0  0
M  END
>  <MODEL>
8

>  <REMARK>
 VINA RESULT:      -6.8      4.899      9.952
  Name = 
  10 active torsions:
  status: ('A' for Active; 'I' for Inactive)
    1  A    between atoms: C_6  and  C_15
    2  A    between atoms: C_6  and  C_44
    3  A    between atoms: C_8  and  C_17
    4  A    between atoms: C_10  and  N_31
    5  A    between atoms: C_12  and  C_32
    6  A    between atoms: C_13  and  C_14
    7  A    between atoms: C_15  and  C_46
    8  A    between atoms: C_17  and  C_23
    9  A    between atoms: P_35  and  O_43
   10  A    between atoms: O_43  and  C_44
                            x       y       z     vdW  Elec       q    Type
                         _______ _______ _______ _____ _____    ______ ____

>  <TORSDO>
F 10

$$$$
=
 OpenBabel10232408023D

 46 51  0  0  1  0  0  0  0  0999 V2000
  190.7730  176.6370  138.9830 C   0  0  0  0  0  0  0  0  0  0  0  0
  190.1290  176.5660  142.4260 C   0  0  0  0  0  0  0  0  0  0  0  0
  190.6030  176.1750  143.7120 N   0  0  0  0  0  1  0  0  0  0  0  0
  188.1070  178.0930  139.6270 C   0  0  0  0  0  0  0  0  0  0  0  0
  191.9170  175.8470  138.9160 O   0  0  0  0  0  1  0  0  0  0  0  0
  190.4180  177.3420  137.7410 C   0  0  0  0  0  3  0  0  0  0  0  0
  188.0710  177.7140  138.2430 N   0  0  0  0  0  0  0  0  0  0  0  0
  189.2260  177.8200  137.4070 C   0  0  0  0  0  3  0  0  0  0  0  0
  190.7390  176.2150  141.2760 N   0  0  0  0  0  0  0  0  0  0  0  0
  190.1540  176.7660  140.1740 C   0  0  0  0  0  0  0  0  0  0  0  0
  189.0100  177.5530  140.4690 C   0  0  0  0  0  0  0  0  0  0  0  0
  188.8500  177.6020  142.1570 S   0  0  0  0  0  0  0  0  0  0  0  0
  186.0720  175.0410  137.0490 C   0  0  0  0  0  2  0  0  0  0  0  0
  186.8860  177.0360  137.7170 C   0  0  1  0  0  3  0  0  0  0  0  0
  185.0970  175.6910  136.1050 C   0  0  0  0  0  0  0  0  0  0  0  0
  184.4400  175.0060  135.3420 O   0  0  0  0  0  0  0  0  0  0  0  0
  186.1430  177.8980  136.6850 C   0  0  0  0  0  2  0  0  0  0  0  0
  187.2500  175.8070  137.1390 O   0  0  0  0  0  0  0  0  0  0  0  0
  184.8900  177.1820  136.1710 C   0  0  2  0  0  3  0  0  0  0  0  0
  183.7080  177.5250  137.0650 C   0  0  0  0  0  2  0  0  0  0  0  0
  182.4400  176.9050  136.4920 C   0  0  0  0  0  2  0  0  0  0  0  0
  180.5930  178.4740  136.6810 C   0  0  0  0  0  1  0  0  0  0  0  0
  181.4050  177.5440  138.7570 C   0  0  0  0  0  1  0  0  0  0  0  0
  181.1550  177.2050  137.2890 C   0  0  0  0  0  0  0  0  0  0  0  0
  180.1570  176.2090  137.1270 O   0  0  0  0  0  0  0  0  0  0  0  0
  180.0060  173.4410  136.7410 O   0  0  0  0  0  0  0  0  0  0  0  0
  179.9940  174.5300  139.1140 O   0  0  0  0  0  1  0  0  0  0  0  0
  182.2820  174.5160  137.8980 O   0  0  0  0  0  1  0  0  0  0  0  0
  180.6070  174.6710  137.7460 P   0  0  0  0  0  0  0  0  0  0  0  0
  184.7500  179.5590  140.1200 O   0  0  0  0  0  1  0  0  0  0  0  0
  187.0630  179.0330  140.2040 C   0  0  1  0  0  3  0  0  0  0  0  0
  185.6480  178.4910  140.1740 C   0  0  1  0  0  3  0  0  0  0  0  0
  186.4540  178.4720  141.4720 C   0  0  2  0  0  3  0  0  0  0  0  0
  186.1450  179.6210  142.4190 C   0  0  0  0  0  2  0  0  0  0  0  0
  185.6360  179.1090  143.7230 C   0  0  0  0  0  0  0  0  0  0  0  0
  183.8190  178.7580  145.2620 C   0  0  0  0  0  3  0  0  0  0  0  0
  184.2830  179.2290  144.0350 C   0  0  0  0  0  3  0  0  0  0  0  0
  186.0670  178.1000  145.8290 C   0  0  0  0  0  0  0  0  0  0  0  0
  186.4900  178.5590  144.6230 N   0  0  0  0  0  0  0  0  0  0  0  0
  184.7110  178.1810  146.1640 C   0  0  0  0  0  3  0  0  0  0  0  0
  187.0550  177.4380  146.7380 C   0  0  2  0  0  3  0  0  0  0  0  0
  188.7540  178.0390  148.2800 C   0  0  0  0  0  2  0  0  0  0  0  0
  187.3050  178.2830  147.9610 C   0  0  0  0  0  2  0  0  0  0  0  0
  190.3540  176.7230  147.1220 O   0  0  0  0  0  1  0  0  0  0  0  0
  188.3300  177.1910  146.0690 N   0  0  0  0  0  2  0  0  0  0  0  0
  189.3750  177.6960  146.9460 C   0  0  1  0  0  3  0  0  0  0  0  0
  1 10  2  0  0  0  0
  2  3  1  0  0  0  0
  4 11  2  0  0  0  0
  5  1  1  0  0  0  0
  6  1  1  0  0  0  0
  7  4  1  0  0  0  0
  8  6  2  0  0  0  0
  8  7  1  0  0  0  0
  9  2  2  0  0  0  0
 10 11  1  0  0  0  0
 10  9  1  0  0  0  0
 11 12  1  0  0  0  0
 12  2  1  0  0  0  0
 13 18  1  0  0  0  0
 14 17  1  6  0  0  0
 14  7  1  0  0  0  0
 15 19  1  0  0  0  0
 15 13  1  0  0  0  0
 16 15  2  0  0  0  0
 18 14  1  0  0  0  0
 19 17  1  0  0  0  0
 19 20  1  1  0  0  0
 21 20  1  0  0  0  0
 21 24  1  0  0  0  0
 22 24  1  0  0  0  0
 24 23  1  0  0  0  0
 25 24  1  0  0  0  0
 25 29  1  0  0  0  0
 26 29  2  0  0  0  0
 29 28  1  0  0  0  0
 29 27  1  0  0  0  0
 31  4  1  6  0  0  0
 31 33  1  0  0  0  0
 32 30  1  1  0  0  0
 32 31  1  0  0  0  0
 32 33  1  0  0  0  0
 33 34  1  1  0  0  0
 34 35  1  0  0  0  0
 35 37  2  0  0  0  0
 35 39  1  0  0  0  0
 36 40  2  0  0  0  0
 37 36  1  0  0  0  0
 38 40  1  0  0  0  0
 39 38  2  0  0  0  0
 41 38  1  6  0  0  0
 41 43  1  0  0  0  0
 43 42  1  0  0  0  0
 45 41  1  0  0  0  0
 45 46  1  0  0  0  0
 46 44  1  1  0  0  0
 46 42  1  0  0  0  0
M  END
>  <MODEL>
9

>  <REMARK>
 VINA RESULT:      -6.8      3.429      7.352
  Name = 
  10 active torsions:
  status: ('A' for Active; 'I' for Inactive)
    1  A    between atoms: C_6  and  C_15
    2  A    between atoms: C_6  and  C_44
    3  A    between atoms: C_8  and  C_17
    4  A    between atoms: C_10  and  N_31
    5  A    between atoms: C_12  and  C_32
    6  A    between atoms: C_13  and  C_14
    7  A    between atoms: C_15  and  C_46
    8  A    between atoms: C_17  and  C_23
    9  A    between atoms: P_35  and  O_43
   10  A    between atoms: O_43  and  C_44
                            x       y       z     vdW  Elec       q    Type
                         _______ _______ _______ _____ _____    ______ ____

>  <TORSDO>
F 10

$$$$
