=
 OpenBabel10222421553D

 40 49  0  0  1  0  0  0  0  0999 V2000
  188.6460  177.9380  148.5890 O   0  0  0  0  0  1  0  0  0  0  0  0
  186.4100  178.1470  143.0120 C   0  0  0  0  0  0  0  0  0  0  0  0
  188.5910  176.5590  144.6260 N   0  0  0  0  0  0  0  0  0  0  0  0
  186.4450  178.4180  146.6930 N   0  0  0  0  0  0  0  0  0  0  0  0
  187.4970  177.1480  145.1380 C   0  0  0  0  0  0  0  0  0  0  0  0
  188.6970  176.2860  143.3450 N   0  0  0  0  0  0  0  0  0  0  0  0
  185.1660  178.4570  142.3640 C   0  0  0  0  0  3  0  0  0  0  0  0
  187.4500  178.3100  142.1190 C   0  0  0  0  0  0  0  0  0  0  0  0
  187.4760  177.5770  146.4980 C   0  0  0  0  0  0  0  0  0  0  0  0
  188.6330  177.4640  147.2810 C   0  0  0  0  0  0  0  0  0  0  0  0
  186.1610  178.9780  140.0630 C   0  0  0  0  0  3  0  0  0  0  0  0
  185.0300  178.8400  140.9520 C   0  0  0  0  0  0  0  0  0  0  0  0
  189.1770  177.1150  140.7340 C   0  0  1  0  0  3  0  0  0  0  0  0
  186.5180  177.8630  144.4740 C   0  0  0  0  0  0  0  0  0  0  0  0
  190.2600  176.6040  141.5900 N   0  0  0  0  0  2  0  0  0  0  0  0
  191.0400  176.3180  144.2290 S   0  0  0  0  0  0  0  0  0  0  0  0
  189.9590  176.1930  142.9200 C   0  0  0  0  0  0  0  0  0  0  0  0
  188.5920  178.4490  141.2820 C   0  0  1  0  0  3  0  0  0  0  0  0
  187.3190  178.7060  140.7230 C   0  0  0  0  0  0  0  0  0  0  0  0
  189.8090  176.9400  146.6760 C   0  0  0  0  0  0  0  0  0  0  0  0
  185.8590  178.5860  145.4740 C   0  0  0  0  0  3  0  0  0  0  0  0
  189.7550  176.5440  145.3160 C   0  0  0  0  0  0  0  0  0  0  0  0
  181.5790  179.0970  140.2450 C   0  0  0  0  0  0  0  0  0  0  0  0
  182.6030  178.6640  141.0060 N   0  0  0  0  0  0  0  0  0  0  0  0
  183.4780  179.7880  139.3350 N   0  0  0  0  0  0  0  0  0  0  0  0
  182.1410  179.8170  139.1780 C   0  0  0  0  0  0  0  0  0  0  0  0
  183.7160  179.0980  140.4370 N   0  0  0  0  0  0  0  0  0  0  0  0
  180.1650  178.6830  140.5740 C   0  0  0  0  0  3  0  0  0  0  0  0
  179.9870  177.1820  140.5770 C   0  0  0  0  0  2  0  0  0  0  0  0
  180.0350  177.9470  141.8890 C   0  0  0  0  0  2  0  0  0  0  0  0
  181.2250  181.9810  138.1510 C   0  0  0  0  0  1  0  0  0  0  0  0
  181.5100  180.5230  138.0430 C   0  0  0  0  0  0  0  0  0  0  0  0
  181.1450  179.9150  137.0060 O   0  0  0  0  0  0  0  0  0  0  0  0
  192.0600  176.9110  147.9730 N   0  0  0  0  0  0  0  0  0  0  0  0
  191.0580  176.9240  147.3960 C   0  0  0  0  0  0  0  0  0  0  0  0
  189.7280  177.3090  139.3300 C   0  0  0  0  0  2  0  0  0  0  0  0
  189.3760  176.8470  136.9230 C   0  0  1  0  0  3  0  0  0  0  0  0
  188.3580  177.3620  135.9230 C   0  0  0  0  0  2  0  0  0  0  0  0
  188.4340  177.9510  137.3170 C   0  0  1  0  0  3  0  0  0  0  0  0
  188.7300  176.8280  138.2940 C   0  0  2  0  0  3  0  0  0  0  0  0
  2 14  1  0  0  0  0
  3  5  1  0  0  0  0
  3 22  1  0  0  0  0
  5  9  1  0  0  0  0
  6  3  1  0  0  0  0
  7  2  1  0  0  0  0
  8  2  2  0  0  0  0
  9  4  1  0  0  0  0
  9 10  2  0  0  0  0
 10  1  1  0  0  0  0
 11 19  2  0  0  0  0
 11 12  1  0  0  0  0
 12  7  2  0  0  0  0
 13 36  1  6  0  0  0
 13 18  1  0  0  0  0
 13 15  1  0  0  0  0
 14  5  2  0  0  0  0
 14 21  1  0  0  0  0
 15 17  1  0  0  0  0
 16 22  1  0  0  0  0
 17  6  2  0  0  0  0
 17 16  1  0  0  0  0
 18 19  1  6  0  0  0
 18  8  1  0  0  0  0
 19  8  1  0  0  0  0
 20 10  1  0  0  0  0
 20 35  1  0  0  0  0
 21  4  2  0  0  0  0
 22 20  2  0  0  0  0
 23 28  1  0  0  0  0
 23 24  2  0  0  0  0
 25 27  1  0  0  0  0
 26 25  2  0  0  0  0
 26 23  1  0  0  0  0
 27 12  1  0  0  0  0
 27 24  1  0  0  0  0
 28 29  1  0  0  0  0
 28 30  1  0  0  0  0
 29 30  1  0  0  0  0
 32 31  1  0  0  0  0
 32 26  1  0  0  0  0
 33 32  2  0  0  0  0
 35 34  3  0  0  0  0
 37 38  1  6  0  0  0
 37 39  1  0  0  0  0
 37 40  1  0  0  0  0
 39 38  1  6  0  0  0
 39 40  1  0  0  0  0
 40 36  1  1  0  0  0
M  END
>  <MODEL>
1

>  <REMARK>
 VINA RESULT:     -10.1      0.000      0.000
  Name = 
  6 active torsions:
  status: ('A' for Active; 'I' for Inactive)
    1  A    between atoms: C_5  and  C_15
    2  A    between atoms: C_17  and  C_22
    3  A    between atoms: C_17  and  C_27
    4  A    between atoms: C_19  and  C_28
    5  A    between atoms: C_24  and  N_38
    6  A    between atoms: C_26  and  C_37
                            x       y       z     vdW  Elec       q    Type
                         _______ _______ _______ _____ _____    ______ ____

>  <TORSDO>
F 6

$$$$
=
 OpenBabel10222421553D

 40 49  0  0  1  0  0  0  0  0999 V2000
  188.7180  177.8300  148.8100 O   0  0  0  0  0  1  0  0  0  0  0  0
  186.7050  177.9620  143.1460 C   0  0  0  0  0  0  0  0  0  0  0  0
  188.9420  176.5290  144.8270 N   0  0  0  0  0  0  0  0  0  0  0  0
  186.5650  178.1630  146.8290 N   0  0  0  0  0  0  0  0  0  0  0  0
  187.7830  177.0150  145.3010 C   0  0  0  0  0  0  0  0  0  0  0  0
  189.1230  176.2910  143.5470 N   0  0  0  0  0  0  0  0  0  0  0  0
  185.4670  178.1800  142.4510 C   0  0  0  0  0  3  0  0  0  0  0  0
  187.7630  178.2280  142.3020 C   0  0  0  0  0  0  0  0  0  0  0  0
  187.6700  177.4140  146.6650 C   0  0  0  0  0  0  0  0  0  0  0  0
  188.7990  177.3820  147.4950 C   0  0  0  0  0  0  0  0  0  0  0  0
  186.5090  178.8270  140.2030 C   0  0  0  0  0  3  0  0  0  0  0  0
  185.3580  178.5790  141.0410 C   0  0  0  0  0  0  0  0  0  0  0  0
  189.6400  177.2080  140.9730 C   0  0  1  0  0  3  0  0  0  0  0  0
  186.7760  177.6590  144.6070 C   0  0  0  0  0  0  0  0  0  0  0  0
  190.7260  176.7720  141.8660 N   0  0  0  0  0  2  0  0  0  0  0  0
  191.4180  176.5000  144.5310 S   0  0  0  0  0  0  0  0  0  0  0  0
  190.4060  176.3120  143.1760 C   0  0  0  0  0  0  0  0  0  0  0  0
  188.9230  178.4780  141.5170 C   0  0  1  0  0  3  0  0  0  0  0  0
  187.6580  178.6390  140.9080 C   0  0  0  0  0  0  0  0  0  0  0  0
  190.0380  176.9700  146.9330 C   0  0  0  0  0  0  0  0  0  0  0  0
  186.0170  178.3060  145.5890 C   0  0  0  0  0  3  0  0  0  0  0  0
  190.0740  176.5970  145.5660 C   0  0  0  0  0  0  0  0  0  0  0  0
  182.4390  179.4900  139.2740 C   0  0  0  0  0  0  0  0  0  0  0  0
  183.7470  179.6430  139.5580 N   0  0  0  0  0  0  0  0  0  0  0  0
  183.0040  178.0010  140.8150 N   0  0  0  0  0  0  0  0  0  0  0  0
  181.9670  178.4390  140.0770 C   0  0  0  0  0  0  0  0  0  0  0  0
  184.0490  178.7370  140.4740 N   0  0  0  0  0  0  0  0  0  0  0  0
  181.7560  180.4470  138.3250 C   0  0  0  0  0  3  0  0  0  0  0  0
  180.8370  181.4120  139.0390 C   0  0  0  0  0  2  0  0  0  0  0  0
  182.1770  181.8880  138.5040 C   0  0  0  0  0  2  0  0  0  0  0  0
  179.9820  177.7070  141.5260 C   0  0  0  0  0  1  0  0  0  0  0  0
  180.6250  177.8290  140.1880 C   0  0  0  0  0  0  0  0  0  0  0  0
  180.0320  177.3490  139.1900 O   0  0  0  0  0  0  0  0  0  0  0  0
  192.2280  177.1020  148.3250 N   0  0  0  0  0  0  0  0  0  0  0  0
  191.2530  177.0430  147.7050 C   0  0  0  0  0  0  0  0  0  0  0  0
  190.2310  177.4750  139.5970 C   0  0  0  0  0  2  0  0  0  0  0  0
  190.5830  176.5380  137.3320 C   0  0  1  0  0  3  0  0  0  0  0  0
  189.7120  175.6790  136.4360 C   0  0  0  0  0  2  0  0  0  0  0  0
  189.1630  176.2450  137.7300 C   0  0  1  0  0  3  0  0  0  0  0  0
  190.2630  176.2010  138.7750 C   0  0  2  0  0  3  0  0  0  0  0  0
  2 14  1  0  0  0  0
  3  5  1  0  0  0  0
  3 22  1  0  0  0  0
  5  9  1  0  0  0  0
  6  3  1  0  0  0  0
  7  2  1  0  0  0  0
  8  2  2  0  0  0  0
  9  4  1  0  0  0  0
  9 10  2  0  0  0  0
 10  1  1  0  0  0  0
 11 19  2  0  0  0  0
 11 12  1  0  0  0  0
 12  7  2  0  0  0  0
 13 36  1  6  0  0  0
 13 18  1  0  0  0  0
 13 15  1  0  0  0  0
 14  5  2  0  0  0  0
 14 21  1  0  0  0  0
 15 17  1  0  0  0  0
 16 22  1  0  0  0  0
 17  6  2  0  0  0  0
 17 16  1  0  0  0  0
 18 19  1  6  0  0  0
 18  8  1  0  0  0  0
 19  8  1  0  0  0  0
 20 10  1  0  0  0  0
 20 35  1  0  0  0  0
 21  4  2  0  0  0  0
 22 20  2  0  0  0  0
 23 24  2  0  0  0  0
 23 26  1  0  0  0  0
 24 27  1  0  0  0  0
 26 32  1  0  0  0  0
 26 25  2  0  0  0  0
 27 25  1  0  0  0  0
 27 12  1  0  0  0  0
 28 30  1  0  0  0  0
 28 29  1  0  0  0  0
 28 23  1  0  0  0  0
 30 29  1  0  0  0  0
 32 31  1  0  0  0  0
 33 32  2  0  0  0  0
 35 34  3  0  0  0  0
 37 38  1  6  0  0  0
 37 39  1  0  0  0  0
 37 40  1  0  0  0  0
 39 38  1  6  0  0  0
 39 40  1  0  0  0  0
 40 36  1  1  0  0  0
M  END
>  <MODEL>
2

>  <REMARK>
 VINA RESULT:      -9.6      0.904      1.950
  Name = 
  6 active torsions:
  status: ('A' for Active; 'I' for Inactive)
    1  A    between atoms: C_5  and  C_15
    2  A    between atoms: C_17  and  C_22
    3  A    between atoms: C_17  and  C_27
    4  A    between atoms: C_19  and  C_28
    5  A    between atoms: C_24  and  N_38
    6  A    between atoms: C_26  and  C_37
                            x       y       z     vdW  Elec       q    Type
                         _______ _______ _______ _____ _____    ______ ____

>  <TORSDO>
F 6

$$$$
=
 OpenBabel10222421553D

 40 49  0  0  1  0  0  0  0  0999 V2000
  187.5200  177.2890  145.2120 O   0  0  0  0  0  1  0  0  0  0  0  0
  190.0360  176.8720  139.7670 C   0  0  0  0  0  0  0  0  0  0  0  0
  187.7950  178.5350  141.2140 N   0  0  0  0  0  0  0  0  0  0  0  0
  189.8090  176.7230  143.4480 N   0  0  0  0  0  0  0  0  0  0  0  0
  188.8530  177.9520  141.8010 C   0  0  0  0  0  0  0  0  0  0  0  0
  187.7570  178.7660  139.9210 N   0  0  0  0  0  0  0  0  0  0  0  0
  191.3070  176.5280  139.1950 C   0  0  0  0  0  3  0  0  0  0  0  0
  189.0410  176.6900  138.8280 C   0  0  0  0  0  0  0  0  0  0  0  0
  188.7990  177.5680  143.1730 C   0  0  0  0  0  0  0  0  0  0  0  0
  187.6050  177.7190  143.8920 C   0  0  0  0  0  0  0  0  0  0  0  0
  190.4250  175.9410  136.8640 C   0  0  0  0  0  3  0  0  0  0  0  0
  191.5110  176.0960  137.8050 C   0  0  0  0  0  0  0  0  0  0  0  0
  187.4020  177.8560  137.3170 C   0  0  1  0  0  3  0  0  0  0  0  0
  189.8560  177.2050  141.2120 C   0  0  0  0  0  0  0  0  0  0  0  0
  186.2820  178.4070  138.1000 N   0  0  0  0  0  2  0  0  0  0  0  0
  185.3710  178.7880  140.6840 S   0  0  0  0  0  0  0  0  0  0  0  0
  186.5190  178.8580  139.4290 C   0  0  0  0  0  0  0  0  0  0  0  0
  187.9410  176.5350  137.9380 C   0  0  1  0  0  3  0  0  0  0  0  0
  189.2380  176.2470  137.4540 C   0  0  0  0  0  0  0  0  0  0  0  0
  186.4680  178.2340  143.2100 C   0  0  0  0  0  0  0  0  0  0  0  0
  190.4550  176.5080  142.2670 C   0  0  0  0  0  3  0  0  0  0  0  0
  186.5960  178.5850  141.8430 C   0  0  0  0  0  0  0  0  0  0  0  0
  194.6140  175.7600  136.1530 C   0  0  0  0  0  0  0  0  0  0  0  0
  193.3500  176.2210  136.2150 N   0  0  0  0  0  0  0  0  0  0  0  0
  193.7120  175.0900  138.0630 N   0  0  0  0  0  0  0  0  0  0  0  0
  194.8440  175.0390  137.3360 C   0  0  0  0  0  0  0  0  0  0  0  0
  192.8460  175.8080  137.3670 N   0  0  0  0  0  0  0  0  0  0  0  0
  195.4380  175.9800  134.9070 C   0  0  0  0  0  3  0  0  0  0  0  0
  195.7100  177.4430  134.6440 C   0  0  0  0  0  2  0  0  0  0  0  0
  196.8140  176.5470  135.1780 C   0  0  0  0  0  2  0  0  0  0  0  0
  196.0490  172.8330  137.8410 C   0  0  0  0  0  1  0  0  0  0  0  0
  196.0430  174.3220  137.8200 C   0  0  0  0  0  0  0  0  0  0  0  0
  197.0410  174.9340  138.2750 O   0  0  0  0  0  0  0  0  0  0  0  0
  184.1550  178.3300  144.3880 N   0  0  0  0  0  0  0  0  0  0  0  0
  185.1840  178.2880  143.8640 C   0  0  0  0  0  0  0  0  0  0  0  0
  186.9200  177.6220  135.8940 C   0  0  0  0  0  2  0  0  0  0  0  0
  185.5740  175.6350  135.2850 C   0  0  1  0  0  3  0  0  0  0  0  0
  184.3550  175.4600  134.4010 C   0  0  0  0  0  2  0  0  0  0  0  0
  185.0760  176.7910  134.4640 C   0  0  1  0  0  3  0  0  0  0  0  0
  185.5280  177.0220  135.8940 C   0  0  2  0  0  3  0  0  0  0  0  0
  2 14  1  0  0  0  0
  3  5  1  0  0  0  0
  3 22  1  0  0  0  0
  5  9  1  0  0  0  0
  6  3  1  0  0  0  0
  7  2  1  0  0  0  0
  8  2  2  0  0  0  0
  9  4  1  0  0  0  0
  9 10  2  0  0  0  0
 10  1  1  0  0  0  0
 11 19  2  0  0  0  0
 11 12  1  0  0  0  0
 12  7  2  0  0  0  0
 13 36  1  6  0  0  0
 13 18  1  0  0  0  0
 13 15  1  0  0  0  0
 14  5  2  0  0  0  0
 14 21  1  0  0  0  0
 15 17  1  0  0  0  0
 16 22  1  0  0  0  0
 17  6  2  0  0  0  0
 17 16  1  0  0  0  0
 18 19  1  6  0  0  0
 18  8  1  0  0  0  0
 19  8  1  0  0  0  0
 20 35  1  0  0  0  0
 20 10  1  0  0  0  0
 21  4  2  0  0  0  0
 22 20  2  0  0  0  0
 23 24  2  0  0  0  0
 23 26  1  0  0  0  0
 24 27  1  0  0  0  0
 26 32  1  0  0  0  0
 26 25  2  0  0  0  0
 27 12  1  0  0  0  0
 27 25  1  0  0  0  0
 28 30  1  0  0  0  0
 28 23  1  0  0  0  0
 29 28  1  0  0  0  0
 29 30  1  0  0  0  0
 32 31  1  0  0  0  0
 32 33  2  0  0  0  0
 35 34  3  0  0  0  0
 37 38  1  1  0  0  0
 37 40  1  0  0  0  0
 39 38  1  1  0  0  0
 39 37  1  0  0  0  0
 39 40  1  0  0  0  0
 40 36  1  6  0  0  0
M  END
>  <MODEL>
3

>  <REMARK>
 VINA RESULT:      -8.0      4.443      9.050
  Name = 
  6 active torsions:
  status: ('A' for Active; 'I' for Inactive)
    1  A    between atoms: C_5  and  C_15
    2  A    between atoms: C_17  and  C_22
    3  A    between atoms: C_17  and  C_27
    4  A    between atoms: C_19  and  C_28
    5  A    between atoms: C_24  and  N_38
    6  A    between atoms: C_26  and  C_37
                            x       y       z     vdW  Elec       q    Type
                         _______ _______ _______ _____ _____    ______ ____

>  <TORSDO>
F 6

$$$$
=
 OpenBabel10222421553D

 40 49  0  0  1  0  0  0  0  0999 V2000
  193.9340  177.2920  139.8020 O   0  0  0  0  0  1  0  0  0  0  0  0
  187.9530  177.7590  140.1950 C   0  0  0  0  0  0  0  0  0  0  0  0
  190.0950  176.1850  138.5180 N   0  0  0  0  0  0  0  0  0  0  0  0
  191.4650  177.7810  141.3300 N   0  0  0  0  0  0  0  0  0  0  0  0
  190.2630  176.6780  139.7560 C   0  0  0  0  0  0  0  0  0  0  0  0
  188.9010  176.0070  137.9970 N   0  0  0  0  0  0  0  0  0  0  0  0
  186.9610  178.0440  141.1940 C   0  0  0  0  0  3  0  0  0  0  0  0
  187.4430  178.0390  138.9430 C   0  0  0  0  0  0  0  0  0  0  0  0
  191.5650  177.0110  140.2310 C   0  0  0  0  0  0  0  0  0  0  0  0
  192.6680  176.9080  139.3710 C   0  0  0  0  0  0  0  0  0  0  0  0
  185.1190  178.7750  139.5720 C   0  0  0  0  0  3  0  0  0  0  0  0
  185.5980  178.5160  140.9110 C   0  0  0  0  0  0  0  0  0  0  0  0
  186.6180  177.0360  136.7890 C   0  0  1  0  0  3  0  0  0  0  0  0
  189.3590  177.3830  140.5280 C   0  0  0  0  0  0  0  0  0  0  0  0
  187.7470  176.5280  135.9920 N   0  0  0  0  0  2  0  0  0  0  0  0
  190.4810  176.1050  136.0550 S   0  0  0  0  0  0  0  0  0  0  0  0
  188.8930  176.0110  136.6620 C   0  0  0  0  0  0  0  0  0  0  0  0
  187.0170  178.2960  137.6110 C   0  0  1  0  0  3  0  0  0  0  0  0
  186.0970  178.5210  138.6600 C   0  0  0  0  0  0  0  0  0  0  0  0
  192.4400  176.4910  138.0300 C   0  0  0  0  0  0  0  0  0  0  0  0
  190.1320  177.9990  141.5180 C   0  0  0  0  0  3  0  0  0  0  0  0
  191.1160  176.1870  137.6280 C   0  0  0  0  0  0  0  0  0  0  0  0
  184.0010  179.0660  144.0120 C   0  0  0  0  0  0  0  0  0  0  0  0
  185.1070  178.8790  143.2670 N   0  0  0  0  0  0  0  0  0  0  0  0
  183.3920  178.8110  141.8960 N   0  0  0  0  0  0  0  0  0  0  0  0
  182.9050  179.0240  143.1330 C   0  0  0  0  0  0  0  0  0  0  0  0
  184.7080  178.7370  142.0130 N   0  0  0  0  0  0  0  0  0  0  0  0
  184.1100  179.1650  145.5150 C   0  0  0  0  0  3  0  0  0  0  0  0
  184.8450  177.9920  146.1210 C   0  0  0  0  0  2  0  0  0  0  0  0
  185.5260  179.3460  146.0130 C   0  0  0  0  0  2  0  0  0  0  0  0
  180.7170  178.0970  144.0960 C   0  0  0  0  0  1  0  0  0  0  0  0
  181.4560  179.1730  143.3800 C   0  0  0  0  0  0  0  0  0  0  0  0
  180.8090  180.1590  142.9460 O   0  0  0  0  0  0  0  0  0  0  0  0
  194.3790  176.4960  136.3010 N   0  0  0  0  0  0  0  0  0  0  0  0
  193.5160  176.4940  137.0710 C   0  0  0  0  0  0  0  0  0  0  0  0
  185.4710  177.3550  135.8420 C   0  0  0  0  0  2  0  0  0  0  0  0
  183.1230  176.8610  135.2310 C   0  0  1  0  0  3  0  0  0  0  0  0
  181.8340  176.8810  136.0300 C   0  0  0  0  0  2  0  0  0  0  0  0
  183.1250  177.3930  136.6370 C   0  0  1  0  0  3  0  0  0  0  0  0
  184.2600  176.5020  136.1670 C   0  0  2  0  0  3  0  0  0  0  0  0
  2 14  1  0  0  0  0
  2  7  1  0  0  0  0
  3  5  1  0  0  0  0
  4 21  2  0  0  0  0
  5  9  1  0  0  0  0
  5 14  2  0  0  0  0
  6  3  1  0  0  0  0
  8  2  2  0  0  0  0
  9  4  1  0  0  0  0
 10  1  1  0  0  0  0
 10  9  2  0  0  0  0
 11 12  1  0  0  0  0
 12  7  2  0  0  0  0
 12 27  1  0  0  0  0
 13 36  1  6  0  0  0
 13 18  1  0  0  0  0
 14 21  1  0  0  0  0
 15 17  1  0  0  0  0
 15 13  1  0  0  0  0
 16 17  1  0  0  0  0
 16 22  1  0  0  0  0
 17  6  2  0  0  0  0
 18 19  1  1  0  0  0
 18  8  1  0  0  0  0
 19  8  1  0  0  0  0
 19 11  2  0  0  0  0
 20 10  1  0  0  0  0
 22 20  2  0  0  0  0
 22  3  1  0  0  0  0
 23 28  1  0  0  0  0
 24 23  2  0  0  0  0
 25 27  1  0  0  0  0
 25 26  2  0  0  0  0
 26 32  1  0  0  0  0
 26 23  1  0  0  0  0
 27 24  1  0  0  0  0
 28 30  1  0  0  0  0
 28 29  1  0  0  0  0
 30 29  1  0  0  0  0
 32 31  1  0  0  0  0
 33 32  2  0  0  0  0
 34 35  3  0  0  0  0
 35 20  1  0  0  0  0
 37 38  1  1  0  0  0
 37 40  1  0  0  0  0
 37 39  1  0  0  0  0
 39 38  1  1  0  0  0
 40 36  1  6  0  0  0
 40 39  1  0  0  0  0
M  END
>  <MODEL>
4

>  <REMARK>
 VINA RESULT:      -8.0      3.673      6.248
  Name = 
  6 active torsions:
  status: ('A' for Active; 'I' for Inactive)
    1  A    between atoms: C_5  and  C_15
    2  A    between atoms: C_17  and  C_22
    3  A    between atoms: C_17  and  C_27
    4  A    between atoms: C_19  and  C_28
    5  A    between atoms: C_24  and  N_38
    6  A    between atoms: C_26  and  C_37
                            x       y       z     vdW  Elec       q    Type
                         _______ _______ _______ _____ _____    ______ ____

>  <TORSDO>
F 6

$$$$
=
 OpenBabel10222421553D

 40 49  0  0  1  0  0  0  0  0999 V2000
  187.8120  177.3080  145.5450 O   0  0  0  0  0  1  0  0  0  0  0  0
  190.0230  176.9220  139.9670 C   0  0  0  0  0  0  0  0  0  0  0  0
  187.8470  178.5580  141.5390 N   0  0  0  0  0  0  0  0  0  0  0  0
  190.0050  176.7710  143.6550 N   0  0  0  0  0  0  0  0  0  0  0  0
  188.9430  177.9880  142.0650 C   0  0  0  0  0  0  0  0  0  0  0  0
  187.7340  178.7880  140.2500 N   0  0  0  0  0  0  0  0  0  0  0  0
  191.2640  176.5930  139.3240 C   0  0  0  0  0  3  0  0  0  0  0  0
  188.9790  176.7280  139.0850 C   0  0  0  0  0  0  0  0  0  0  0  0
  188.9720  177.6030  143.4370 C   0  0  0  0  0  0  0  0  0  0  0  0
  187.8180  177.7390  144.2220 C   0  0  0  0  0  0  0  0  0  0  0  0
  190.2600  175.9960  137.0460 C   0  0  0  0  0  3  0  0  0  0  0  0
  191.3940  176.1640  137.9240 C   0  0  0  0  0  0  0  0  0  0  0  0
  187.2430  177.8740  137.6690 C   0  0  1  0  0  3  0  0  0  0  0  0
  189.9200  177.2530  141.4190 C   0  0  0  0  0  0  0  0  0  0  0  0
  186.1630  178.4110  138.5140 N   0  0  0  0  0  2  0  0  0  0  0  0
  185.3950  178.7820  141.1460 S   0  0  0  0  0  0  0  0  0  0  0  0
  186.4690  178.8660  139.8290 C   0  0  0  0  0  0  0  0  0  0  0  0
  187.8330  176.5600  138.2590 C   0  0  1  0  0  3  0  0  0  0  0  0
  189.1040  176.2870  137.7010 C   0  0  0  0  0  0  0  0  0  0  0  0
  186.6380  178.2410  143.6060 C   0  0  0  0  0  0  0  0  0  0  0  0
  190.5860  176.5640  142.4390 C   0  0  0  0  0  3  0  0  0  0  0  0
  186.6850  178.5930  142.2340 C   0  0  0  0  0  0  0  0  0  0  0  0
  194.5830  174.9120  137.0660 C   0  0  0  0  0  0  0  0  0  0  0  0
  193.4180  174.8240  137.7360 N   0  0  0  0  0  0  0  0  0  0  0  0
  193.3480  176.6840  136.5700 N   0  0  0  0  0  0  0  0  0  0  0  0
  194.5360  176.1010  136.3200 C   0  0  0  0  0  0  0  0  0  0  0  0
  192.7060  175.8920  137.4120 N   0  0  0  0  0  0  0  0  0  0  0  0
  195.6660  173.8850  137.2970 C   0  0  0  0  0  3  0  0  0  0  0  0
  196.1200  173.8360  138.7380 C   0  0  0  0  0  2  0  0  0  0  0  0
  195.2370  172.7330  138.1780 C   0  0  0  0  0  2  0  0  0  0  0  0
  196.2230  175.8520  134.4050 C   0  0  0  0  0  1  0  0  0  0  0  0
  195.5190  176.7090  135.3990 C   0  0  0  0  0  0  0  0  0  0  0  0
  195.8290  177.9250  135.4700 O   0  0  0  0  0  0  0  0  0  0  0  0
  184.3940  178.3100  144.9120 N   0  0  0  0  0  0  0  0  0  0  0  0
  185.3930  178.2790  144.3310 C   0  0  0  0  0  0  0  0  0  0  0  0
  186.6860  177.6340  136.2750 C   0  0  0  0  0  2  0  0  0  0  0  0
  186.2980  175.3370  135.4360 C   0  0  1  0  0  3  0  0  0  0  0  0
  185.1680  174.7210  134.6330 C   0  0  0  0  0  2  0  0  0  0  0  0
  185.2170  176.2160  134.8710 C   0  0  1  0  0  3  0  0  0  0  0  0
  185.7270  176.4600  136.2800 C   0  0  2  0  0  3  0  0  0  0  0  0
  2 14  1  0  0  0  0
  3  5  1  0  0  0  0
  3 22  1  0  0  0  0
  5  9  1  0  0  0  0
  6  3  1  0  0  0  0
  7  2  1  0  0  0  0
  8  2  2  0  0  0  0
  9  4  1  0  0  0  0
  9 10  2  0  0  0  0
 10  1  1  0  0  0  0
 11 19  2  0  0  0  0
 11 12  1  0  0  0  0
 12  7  2  0  0  0  0
 13 36  1  6  0  0  0
 13 18  1  0  0  0  0
 13 15  1  0  0  0  0
 14  5  2  0  0  0  0
 14 21  1  0  0  0  0
 15 17  1  0  0  0  0
 16 22  1  0  0  0  0
 17  6  2  0  0  0  0
 17 16  1  0  0  0  0
 18 19  1  6  0  0  0
 18  8  1  0  0  0  0
 19  8  1  0  0  0  0
 20 10  1  0  0  0  0
 20 35  1  0  0  0  0
 21  4  2  0  0  0  0
 22 20  2  0  0  0  0
 23 28  1  0  0  0  0
 23 24  2  0  0  0  0
 25 27  1  0  0  0  0
 26 25  2  0  0  0  0
 26 23  1  0  0  0  0
 27 24  1  0  0  0  0
 27 12  1  0  0  0  0
 28 30  1  0  0  0  0
 28 29  1  0  0  0  0
 30 29  1  0  0  0  0
 31 32  1  0  0  0  0
 32 33  2  0  0  0  0
 32 26  1  0  0  0  0
 35 34  3  0  0  0  0
 37 38  1  1  0  0  0
 37 40  1  0  0  0  0
 39 38  1  1  0  0  0
 39 37  1  0  0  0  0
 39 40  1  0  0  0  0
 40 36  1  6  0  0  0
M  END
>  <MODEL>
5

>  <REMARK>
 VINA RESULT:      -7.7      4.444      8.654
  Name = 
  6 active torsions:
  status: ('A' for Active; 'I' for Inactive)
    1  A    between atoms: C_5  and  C_15
    2  A    between atoms: C_17  and  C_22
    3  A    between atoms: C_17  and  C_27
    4  A    between atoms: C_19  and  C_28
    5  A    between atoms: C_24  and  N_38
    6  A    between atoms: C_26  and  C_37
                            x       y       z     vdW  Elec       q    Type
                         _______ _______ _______ _____ _____    ______ ____

>  <TORSDO>
F 6

$$$$
=
 OpenBabel10222421553D

 40 49  0  0  1  0  0  0  0  0999 V2000
  194.0410  176.8280  137.8840 O   0  0  0  0  0  1  0  0  0  0  0  0
  188.3030  177.4920  139.5510 C   0  0  0  0  0  0  0  0  0  0  0  0
  189.9740  175.9090  137.4100 N   0  0  0  0  0  0  0  0  0  0  0  0
  191.9730  177.3440  139.9150 N   0  0  0  0  0  0  0  0  0  0  0  0
  190.4200  176.3470  138.5990 C   0  0  0  0  0  0  0  0  0  0  0  0
  188.6910  175.7930  137.1490 N   0  0  0  0  0  0  0  0  0  0  0  0
  187.5570  177.7730  140.7460 C   0  0  0  0  0  3  0  0  0  0  0  0
  187.5530  177.8380  138.4440 C   0  0  0  0  0  0  0  0  0  0  0  0
  191.8060  176.6150  138.7970 C   0  0  0  0  0  0  0  0  0  0  0  0
  192.6970  176.5070  137.7200 C   0  0  0  0  0  0  0  0  0  0  0  0
  185.4480  178.6310  139.5730 C   0  0  0  0  0  3  0  0  0  0  0  0
  186.1860  178.3030  140.7710 C   0  0  0  0  0  0  0  0  0  0  0  0
  186.2510  176.9500  136.4840 C   0  0  1  0  0  3  0  0  0  0  0  0
  189.7300  177.0530  139.5660 C   0  0  0  0  0  0  0  0  0  0  0  0
  187.1640  176.4320  135.4510 N   0  0  0  0  0  2  0  0  0  0  0  0
  189.8290  175.9100  134.9210 S   0  0  0  0  0  0  0  0  0  0  0  0
  188.4020  175.8500  135.8470 C   0  0  0  0  0  0  0  0  0  0  0  0
  186.8680  178.1620  137.2410 C   0  0  1  0  0  3  0  0  0  0  0  0
  186.2000  178.3780  138.4680 C   0  0  0  0  0  0  0  0  0  0  0  0
  192.1750  176.1500  136.4460 C   0  0  0  0  0  0  0  0  0  0  0  0
  190.7200  177.6030  140.3880 C   0  0  0  0  0  3  0  0  0  0  0  0
  190.7840  175.9090  136.3250 C   0  0  0  0  0  0  0  0  0  0  0  0
  184.0720  178.9890  143.5160 C   0  0  0  0  0  0  0  0  0  0  0  0
  184.3020  178.9000  142.1920 N   0  0  0  0  0  0  0  0  0  0  0  0
  186.1710  178.3500  143.2050 N   0  0  0  0  0  0  0  0  0  0  0  0
  185.2680  178.6350  144.1620 C   0  0  0  0  0  0  0  0  0  0  0  0
  185.5580  178.5130  142.0440 N   0  0  0  0  0  0  0  0  0  0  0  0
  182.7460  179.5060  144.0200 C   0  0  0  0  0  3  0  0  0  0  0  0
  181.6040  179.1790  143.0850 C   0  0  0  0  0  2  0  0  0  0  0  0
  181.7660  178.4140  144.3880 C   0  0  0  0  0  2  0  0  0  0  0  0
  186.7710  177.7220  146.0280 C   0  0  0  0  0  1  0  0  0  0  0  0
  185.6070  178.5460  145.5970 C   0  0  0  0  0  0  0  0  0  0  0  0
  184.9020  179.0950  146.4800 O   0  0  0  0  0  0  0  0  0  0  0  0
  193.7050  176.1530  134.3460 N   0  0  0  0  0  0  0  0  0  0  0  0
  193.0240  176.1520  135.2810 C   0  0  0  0  0  0  0  0  0  0  0  0
  184.9450  177.3450  135.8120 C   0  0  0  0  0  2  0  0  0  0  0  0
  182.4910  177.0190  135.7640 C   0  0  1  0  0  3  0  0  0  0  0  0
  181.4390  177.0250  136.8570 C   0  0  0  0  0  2  0  0  0  0  0  0
  182.8700  177.4180  137.1630 C   0  0  1  0  0  3  0  0  0  0  0  0
  183.7940  176.5230  136.3590 C   0  0  2  0  0  3  0  0  0  0  0  0
  2 14  1  0  0  0  0
  2  7  1  0  0  0  0
  3  5  1  0  0  0  0
  4 21  2  0  0  0  0
  5  9  1  0  0  0  0
  5 14  2  0  0  0  0
  6  3  1  0  0  0  0
  7 12  2  0  0  0  0
  8 19  1  0  0  0  0
  8  2  2  0  0  0  0
  9  4  1  0  0  0  0
 10  1  1  0  0  0  0
 10  9  2  0  0  0  0
 11 12  1  0  0  0  0
 12 27  1  0  0  0  0
 13 36  1  6  0  0  0
 13 18  1  0  0  0  0
 14 21  1  0  0  0  0
 15 17  1  0  0  0  0
 15 13  1  0  0  0  0
 16 17  1  0  0  0  0
 16 22  1  0  0  0  0
 17  6  2  0  0  0  0
 18  8  1  1  0  0  0
 18 19  1  0  0  0  0
 19 11  2  0  0  0  0
 20 10  1  0  0  0  0
 22 20  2  0  0  0  0
 22  3  1  0  0  0  0
 23 28  1  0  0  0  0
 23 26  1  0  0  0  0
 24 23  2  0  0  0  0
 25 26  2  0  0  0  0
 26 32  1  0  0  0  0
 27 24  1  0  0  0  0
 27 25  1  0  0  0  0
 28 30  1  0  0  0  0
 29 28  1  0  0  0  0
 29 30  1  0  0  0  0
 32 31  1  0  0  0  0
 32 33  2  0  0  0  0
 34 35  3  0  0  0  0
 35 20  1  0  0  0  0
 37 40  1  0  0  0  0
 37 38  1  1  0  0  0
 37 39  1  0  0  0  0
 39 38  1  1  0  0  0
 40 36  1  6  0  0  0
 40 39  1  0  0  0  0
M  END
>  <MODEL>
6

>  <REMARK>
 VINA RESULT:      -7.6      3.873      7.196
  Name = 
  6 active torsions:
  status: ('A' for Active; 'I' for Inactive)
    1  A    between atoms: C_5  and  C_15
    2  A    between atoms: C_17  and  C_22
    3  A    between atoms: C_17  and  C_27
    4  A    between atoms: C_19  and  C_28
    5  A    between atoms: C_24  and  N_38
    6  A    between atoms: C_26  and  C_37
                            x       y       z     vdW  Elec       q    Type
                         _______ _______ _______ _____ _____    ______ ____

>  <TORSDO>
F 6

$$$$
=
 OpenBabel10222421553D

 40 49  0  0  1  0  0  0  0  0999 V2000
  194.8750  176.6860  137.8660 O   0  0  0  0  0  1  0  0  0  0  0  0
  189.4710  177.2840  140.4330 C   0  0  0  0  0  0  0  0  0  0  0  0
  190.7350  176.0020  137.8550 N   0  0  0  0  0  0  0  0  0  0  0  0
  193.1410  176.9470  140.2310 N   0  0  0  0  0  0  0  0  0  0  0  0
  191.3660  176.2290  139.0190 C   0  0  0  0  0  0  0  0  0  0  0  0
  189.4230  175.9760  137.7700 N   0  0  0  0  0  0  0  0  0  0  0  0
  188.9150  177.3980  141.7520 C   0  0  0  0  0  3  0  0  0  0  0  0
  188.5970  177.8280  139.5130 C   0  0  0  0  0  0  0  0  0  0  0  0
  192.7790  176.4120  139.0520 C   0  0  0  0  0  0  0  0  0  0  0  0
  193.5050  176.4440  137.8530 C   0  0  0  0  0  0  0  0  0  0  0  0
  186.7180  178.5070  141.0440 C   0  0  0  0  0  3  0  0  0  0  0  0
  187.5950  177.9660  142.0580 C   0  0  0  0  0  0  0  0  0  0  0  0
  186.9860  177.3110  137.6510 C   0  0  1  0  0  3  0  0  0  0  0  0
  190.8580  176.7970  140.1730 C   0  0  0  0  0  0  0  0  0  0  0  0
  187.7160  176.9320  136.4300 N   0  0  0  0  0  2  0  0  0  0  0  0
  190.2470  176.4050  135.4430 S   0  0  0  0  0  0  0  0  0  0  0  0
  188.9610  176.2500  136.5470 C   0  0  0  0  0  0  0  0  0  0  0  0
  187.7720  178.3640  138.4860 C   0  0  1  0  0  3  0  0  0  0  0  0
  187.2940  178.4070  139.8160 C   0  0  0  0  0  0  0  0  0  0  0  0
  192.7920  176.3140  136.6290 C   0  0  0  0  0  0  0  0  0  0  0  0
  191.9830  177.1730  140.9150 C   0  0  0  0  0  3  0  0  0  0  0  0
  191.3860  176.1450  136.6760 C   0  0  0  0  0  0  0  0  0  0  0  0
  187.1700  177.7570  145.5580 C   0  0  0  0  0  0  0  0  0  0  0  0
  187.9040  177.5830  144.4420 N   0  0  0  0  0  0  0  0  0  0  0  0
  185.9730  178.4210  143.8150 N   0  0  0  0  0  0  0  0  0  0  0  0
  185.9370  178.2950  145.1550 C   0  0  0  0  0  0  0  0  0  0  0  0
  187.1620  177.9930  143.4250 N   0  0  0  0  0  0  0  0  0  0  0  0
  187.7020  177.2910  146.8920 C   0  0  0  0  0  3  0  0  0  0  0  0
  189.2110  177.3400  146.9640 C   0  0  0  0  0  2  0  0  0  0  0  0
  188.3780  178.3800  147.6940 C   0  0  0  0  0  2  0  0  0  0  0  0
  183.4300  178.8210  145.2600 C   0  0  0  0  0  1  0  0  0  0  0  0
  184.7500  178.6960  145.9380 C   0  0  0  0  0  0  0  0  0  0  0  0
  184.8300  178.9970  147.1560 O   0  0  0  0  0  0  0  0  0  0  0  0
  194.0140  176.5950  134.3530 N   0  0  0  0  0  0  0  0  0  0  0  0
  193.4700  176.4700  135.3660 C   0  0  0  0  0  0  0  0  0  0  0  0
  185.6260  177.8550  137.2450 C   0  0  0  0  0  2  0  0  0  0  0  0
  184.5720  175.6160  137.3430 C   0  0  1  0  0  3  0  0  0  0  0  0
  183.1540  175.1440  137.0880 C   0  0  0  0  0  2  0  0  0  0  0  0
  183.5530  176.5750  136.7930 C   0  0  1  0  0  3  0  0  0  0  0  0
  184.5150  177.0350  137.8730 C   0  0  2  0  0  3  0  0  0  0  0  0
  2  7  1  0  0  0  0
  3  5  1  0  0  0  0
  4 21  2  0  0  0  0
  5  9  1  0  0  0  0
  5 14  2  0  0  0  0
  6  3  1  0  0  0  0
  7 12  2  0  0  0  0
  8 19  1  0  0  0  0
  8  2  2  0  0  0  0
  9  4  1  0  0  0  0
 10  1  1  0  0  0  0
 10  9  2  0  0  0  0
 11 12  1  0  0  0  0
 12 27  1  0  0  0  0
 13 36  1  6  0  0  0
 13 18  1  0  0  0  0
 14  2  1  0  0  0  0
 14 21  1  0  0  0  0
 15 17  1  0  0  0  0
 15 13  1  0  0  0  0
 16 17  1  0  0  0  0
 16 22  1  0  0  0  0
 17  6  2  0  0  0  0
 18  8  1  1  0  0  0
 18 19  1  0  0  0  0
 19 11  2  0  0  0  0
 20 22  2  0  0  0  0
 20 10  1  0  0  0  0
 22  3  1  0  0  0  0
 23 28  1  0  0  0  0
 24 23  2  0  0  0  0
 25 26  2  0  0  0  0
 26 23  1  0  0  0  0
 26 32  1  0  0  0  0
 27 25  1  0  0  0  0
 27 24  1  0  0  0  0
 28 29  1  0  0  0  0
 28 30  1  0  0  0  0
 29 30  1  0  0  0  0
 31 32  1  0  0  0  0
 32 33  2  0  0  0  0
 34 35  3  0  0  0  0
 35 20  1  0  0  0  0
 37 38  1  1  0  0  0
 37 40  1  0  0  0  0
 39 38  1  1  0  0  0
 39 37  1  0  0  0  0
 39 40  1  0  0  0  0
 40 36  1  6  0  0  0
M  END
>  <MODEL>
7

>  <REMARK>
 VINA RESULT:      -7.4      3.830      7.661
  Name = 
  6 active torsions:
  status: ('A' for Active; 'I' for Inactive)
    1  A    between atoms: C_5  and  C_15
    2  A    between atoms: C_17  and  C_22
    3  A    between atoms: C_17  and  C_27
    4  A    between atoms: C_19  and  C_28
    5  A    between atoms: C_24  and  N_38
    6  A    between atoms: C_26  and  C_37
                            x       y       z     vdW  Elec       q    Type
                         _______ _______ _______ _____ _____    ______ ____

>  <TORSDO>
F 6

$$$$
=
 OpenBabel10222421553D

 40 49  0  0  1  0  0  0  0  0999 V2000
  194.0800  177.2280  139.5790 O   0  0  0  0  0  1  0  0  0  0  0  0
  188.0870  177.6800  139.7580 C   0  0  0  0  0  0  0  0  0  0  0  0
  190.2950  176.1560  138.1180 N   0  0  0  0  0  0  0  0  0  0  0  0
  191.5540  177.6700  141.0250 N   0  0  0  0  0  0  0  0  0  0  0  0
  190.4150  176.6130  139.3760 C   0  0  0  0  0  0  0  0  0  0  0  0
  189.1210  175.9920  137.5480 N   0  0  0  0  0  0  0  0  0  0  0  0
  187.0570  177.9350  140.7260 C   0  0  0  0  0  3  0  0  0  0  0  0
  187.6250  177.9950  138.4960 C   0  0  0  0  0  0  0  0  0  0  0  0
  191.6970  176.9330  139.9090 C   0  0  0  0  0  0  0  0  0  0  0  0
  192.8310  176.8560  139.0890 C   0  0  0  0  0  0  0  0  0  0  0  0
  185.2780  178.7110  139.0570 C   0  0  0  0  0  3  0  0  0  0  0  0
  185.7060  178.4140  140.4050 C   0  0  0  0  0  0  0  0  0  0  0  0
  186.8840  177.0540  136.2830 C   0  0  1  0  0  3  0  0  0  0  0  0
  189.4800  177.2940  140.1330 C   0  0  0  0  0  0  0  0  0  0  0  0
  188.0440  176.5700  135.5160 N   0  0  0  0  0  2  0  0  0  0  0  0
  190.7740  176.1470  135.6710 S   0  0  0  0  0  0  0  0  0  0  0  0
  189.1640  176.0350  136.2140 C   0  0  0  0  0  0  0  0  0  0  0  0
  187.2490  178.2910  137.1560 C   0  0  1  0  0  3  0  0  0  0  0  0
  186.2900  178.4840  138.1760 C   0  0  0  0  0  0  0  0  0  0  0  0
  192.6560  176.4780  137.7290 C   0  0  0  0  0  0  0  0  0  0  0  0
  190.2150  177.8830  141.1690 C   0  0  0  0  0  3  0  0  0  0  0  0
  191.3490  176.1840  137.2690 C   0  0  0  0  0  0  0  0  0  0  0  0
  182.9260  178.8880  142.5310 C   0  0  0  0  0  0  0  0  0  0  0  0
  183.4670  178.7280  141.3080 N   0  0  0  0  0  0  0  0  0  0  0  0
  185.1220  178.6800  142.7520 N   0  0  0  0  0  0  0  0  0  0  0  0
  183.9850  178.8550  143.4530 C   0  0  0  0  0  0  0  0  0  0  0  0
  184.7740  178.6020  141.4790 N   0  0  0  0  0  0  0  0  0  0  0  0
  181.4470  179.1570  142.6740 C   0  0  0  0  0  3  0  0  0  0  0  0
  180.8010  179.5480  141.3640 C   0  0  0  0  0  2  0  0  0  0  0  0
  180.5730  178.1620  141.9440 C   0  0  0  0  0  2  0  0  0  0  0  0
  185.2710  178.7830  145.6710 C   0  0  0  0  0  1  0  0  0  0  0  0
  183.9940  178.9710  144.9260 C   0  0  0  0  0  0  0  0  0  0  0  0
  182.9400  179.1630  145.5820 O   0  0  0  0  0  0  0  0  0  0  0  0
  194.6590  176.5330  136.0760 N   0  0  0  0  0  0  0  0  0  0  0  0
  193.7680  176.5080  136.8120 C   0  0  0  0  0  0  0  0  0  0  0  0
  185.7730  177.3990  135.3040 C   0  0  0  0  0  2  0  0  0  0  0  0
  184.6550  175.5260  136.4750 C   0  0  1  0  0  3  0  0  0  0  0  0
  183.5220  174.6030  136.0730 C   0  0  0  0  0  2  0  0  0  0  0  0
  184.1150  175.5730  135.0730 C   0  0  1  0  0  3  0  0  0  0  0  0
  184.4430  176.8660  135.7970 C   0  0  2  0  0  3  0  0  0  0  0  0
  2 14  1  0  0  0  0
  2  7  1  0  0  0  0
  3  5  1  0  0  0  0
  4 21  2  0  0  0  0
  5  9  1  0  0  0  0
  5 14  2  0  0  0  0
  6  3  1  0  0  0  0
  8  2  2  0  0  0  0
  9  4  1  0  0  0  0
 10  1  1  0  0  0  0
 10  9  2  0  0  0  0
 11 12  1  0  0  0  0
 12  7  2  0  0  0  0
 12 27  1  0  0  0  0
 13 36  1  6  0  0  0
 13 18  1  0  0  0  0
 14 21  1  0  0  0  0
 15 17  1  0  0  0  0
 15 13  1  0  0  0  0
 16 17  1  0  0  0  0
 16 22  1  0  0  0  0
 17  6  2  0  0  0  0
 18 19  1  1  0  0  0
 18  8  1  0  0  0  0
 19  8  1  0  0  0  0
 19 11  2  0  0  0  0
 20 10  1  0  0  0  0
 22 20  2  0  0  0  0
 22  3  1  0  0  0  0
 23 28  1  0  0  0  0
 23 26  1  0  0  0  0
 24 27  1  0  0  0  0
 24 23  2  0  0  0  0
 25 26  2  0  0  0  0
 26 32  1  0  0  0  0
 27 25  1  0  0  0  0
 29 30  1  0  0  0  0
 29 28  1  0  0  0  0
 30 28  1  0  0  0  0
 32 33  2  0  0  0  0
 32 31  1  0  0  0  0
 34 35  3  0  0  0  0
 35 20  1  0  0  0  0
 37 38  1  1  0  0  0
 39 40  1  0  0  0  0
 39 38  1  1  0  0  0
 39 37  1  0  0  0  0
 40 36  1  6  0  0  0
 40 37  1  0  0  0  0
M  END
>  <MODEL>
8

>  <REMARK>
 VINA RESULT:      -7.3      3.690      6.316
  Name = 
  6 active torsions:
  status: ('A' for Active; 'I' for Inactive)
    1  A    between atoms: C_5  and  C_15
    2  A    between atoms: C_17  and  C_22
    3  A    between atoms: C_17  and  C_27
    4  A    between atoms: C_19  and  C_28
    5  A    between atoms: C_24  and  N_38
    6  A    between atoms: C_26  and  C_37
                            x       y       z     vdW  Elec       q    Type
                         _______ _______ _______ _____ _____    ______ ____

>  <TORSDO>
F 6

$$$$
=
 OpenBabel10222421553D

 40 49  0  0  1  0  0  0  0  0999 V2000
  191.5150  176.1190  136.2840 O   0  0  0  0  0  1  0  0  0  0  0  0
  187.8390  177.6310  140.7950 C   0  0  0  0  0  0  0  0  0  0  0  0
  190.8990  177.7740  140.0910 N   0  0  0  0  0  0  0  0  0  0  0  0
  188.8960  176.9780  137.3200 N   0  0  0  0  0  0  0  0  0  0  0  0
  189.8840  177.7380  139.2120 C   0  0  0  0  0  0  0  0  0  0  0  0
  190.7150  178.0980  141.3520 N   0  0  0  0  0  0  0  0  0  0  0  0
  186.4730  178.0370  140.9780 C   0  0  0  0  0  3  0  0  0  0  0  0
  188.3200  177.0820  141.9670 C   0  0  0  0  0  0  0  0  0  0  0  0
  190.0840  177.2280  137.8960 C   0  0  0  0  0  0  0  0  0  0  0  0
  191.3250  176.6790  137.5440 C   0  0  0  0  0  0  0  0  0  0  0  0
  186.2960  177.3520  143.4390 C   0  0  0  0  0  3  0  0  0  0  0  0
  185.7280  177.9240  142.2400 C   0  0  0  0  0  0  0  0  0  0  0  0
  189.8720  177.4310  143.9160 C   0  0  1  0  0  3  0  0  0  0  0  0
  188.5280  177.6650  139.4710 C   0  0  0  0  0  0  0  0  0  0  0  0
  191.2720  177.2550  143.4970 N   0  0  0  0  0  2  0  0  0  0  0  0
  192.8790  176.8370  141.2830 S   0  0  0  0  0  0  0  0  0  0  0  0
  191.6510  177.6120  142.1710 C   0  0  0  0  0  0  0  0  0  0  0  0
  188.9130  176.4970  143.1210 C   0  0  1  0  0  3  0  0  0  0  0  0
  187.5780  176.9540  143.2150 C   0  0  0  0  0  0  0  0  0  0  0  0
  192.3460  176.6280  138.5330 C   0  0  0  0  0  0  0  0  0  0  0  0
  187.9520  177.2490  138.2660 C   0  0  0  0  0  3  0  0  0  0  0  0
  192.0680  177.1460  139.8230 C   0  0  0  0  0  0  0  0  0  0  0  0
  182.4580  178.9940  143.0350 C   0  0  0  0  0  0  0  0  0  0  0  0
  183.6740  178.5380  143.3920 N   0  0  0  0  0  0  0  0  0  0  0  0
  183.6770  178.7240  141.2040 N   0  0  0  0  0  0  0  0  0  0  0  0
  182.4620  179.1140  141.6360 C   0  0  0  0  0  0  0  0  0  0  0  0
  184.3730  178.3940  142.2780 N   0  0  0  0  0  0  0  0  0  0  0  0
  181.3810  179.1710  144.0790 C   0  0  0  0  0  3  0  0  0  0  0  0
  180.0100  179.3610  143.4700 C   0  0  0  0  0  2  0  0  0  0  0  0
  180.3790  178.0380  144.1200 C   0  0  0  0  0  2  0  0  0  0  0  0
  180.8700  178.6200  139.6880 C   0  0  0  0  0  1  0  0  0  0  0  0
  181.4160  179.5700  140.6970 C   0  0  0  0  0  0  0  0  0  0  0  0
  181.0130  180.7600  140.6800 O   0  0  0  0  0  0  0  0  0  0  0  0
  194.5940  175.4200  138.0490 N   0  0  0  0  0  0  0  0  0  0  0  0
  193.5940  175.9580  138.2650 C   0  0  0  0  0  0  0  0  0  0  0  0
  189.7800  177.1480  145.4070 C   0  0  0  0  0  2  0  0  0  0  0  0
  188.9900  178.0240  147.5840 C   0  0  1  0  0  3  0  0  0  0  0  0
  187.6110  178.1140  148.2090 C   0  0  0  0  0  2  0  0  0  0  0  0
  187.8190  177.3700  146.9050 C   0  0  1  0  0  3  0  0  0  0  0  0
  188.8410  178.1310  146.0790 C   0  0  2  0  0  3  0  0  0  0  0  0
  1 10  1  0  0  0  0
  2  7  2  0  0  0  0
  2  8  1  0  0  0  0
  3  6  1  0  0  0  0
  4  9  1  0  0  0  0
  4 21  2  0  0  0  0
  5 14  2  0  0  0  0
  5  3  1  0  0  0  0
  6 17  2  0  0  0  0
  7 12  1  0  0  0  0
  8 19  2  0  0  0  0
  9  5  1  0  0  0  0
 10  9  2  0  0  0  0
 10 20  1  0  0  0  0
 12 27  1  0  0  0  0
 12 11  2  0  0  0  0
 13 36  1  1  0  0  0
 14  2  1  0  0  0  0
 15 13  1  0  0  0  0
 16 17  1  0  0  0  0
 17 15  1  0  0  0  0
 18  8  1  6  0  0  0
 18 19  1  0  0  0  0
 18 13  1  0  0  0  0
 19 11  1  0  0  0  0
 20 22  2  0  0  0  0
 21 14  1  0  0  0  0
 22  3  1  0  0  0  0
 22 16  1  0  0  0  0
 23 24  2  0  0  0  0
 23 28  1  0  0  0  0
 25 26  2  0  0  0  0
 25 27  1  0  0  0  0
 26 23  1  0  0  0  0
 27 24  1  0  0  0  0
 28 30  1  0  0  0  0
 29 28  1  0  0  0  0
 29 30  1  0  0  0  0
 31 32  1  0  0  0  0
 32 26  1  0  0  0  0
 33 32  2  0  0  0  0
 34 35  3  0  0  0  0
 35 20  1  0  0  0  0
 37 38  1  1  0  0  0
 39 37  1  0  0  0  0
 39 38  1  1  0  0  0
 40 36  1  6  0  0  0
 40 39  1  0  0  0  0
 40 37  1  0  0  0  0
M  END
>  <MODEL>
9

>  <REMARK>
 VINA RESULT:      -7.2      2.826      6.235
  Name = 
  6 active torsions:
  status: ('A' for Active; 'I' for Inactive)
    1  A    between atoms: C_5  and  C_15
    2  A    between atoms: C_17  and  C_22
    3  A    between atoms: C_17  and  C_27
    4  A    between atoms: C_19  and  C_28
    5  A    between atoms: C_24  and  N_38
    6  A    between atoms: C_26  and  C_37
                            x       y       z     vdW  Elec       q    Type
                         _______ _______ _______ _____ _____    ______ ____

>  <TORSDO>
F 6

$$$$
