=
 OpenBabel10232409073D

 28 29  0  0  1  0  0  0  0  0999 V2000
  190.0440  176.6070  142.7350 C   0  0  0  0  0  0  0  0  0  0  0  0
  191.0130  176.4280  144.9910 C   0  0  0  0  0  2  0  0  0  0  0  0
  187.6130  177.9850  145.0270 N   0  0  0  0  0  0  0  0  0  0  0  0
  188.6910  176.5020  143.3780 C   0  0  0  0  0  2  0  0  0  0  0  0
  189.8860  177.3050  145.5520 C   0  0  1  0  0  3  0  0  0  0  0  0
  191.1390  176.5830  143.5040 C   0  0  0  0  0  3  0  0  0  0  0  0
  188.6550  177.2870  144.6680 C   0  0  0  0  0  0  0  0  0  0  0  0
  184.9540  178.4010  142.6340 C   0  0  0  0  0  0  0  0  0  0  0  0
  185.1540  178.1460  144.9250 C   0  0  0  0  0  3  0  0  0  0  0  0
  186.2430  178.2850  142.9150 C   0  0  0  0  0  3  0  0  0  0  0  0
  184.1120  178.3280  143.8720 C   0  0  1  0  0  3  0  0  0  0  0  0
  186.3520  178.1290  144.3530 C   0  0  0  0  0  0  0  0  0  0  0  0
  183.3930  179.6460  144.1020 C   0  0  0  0  0  1  0  0  0  0  0  0
  183.3670  177.9430  140.9370 O   0  0  0  0  0  0  0  0  0  0  0  0
  184.4250  178.5390  141.2680 C   0  0  0  0  0  0  0  0  0  0  0  0
  185.1020  179.3480  140.3090 N   0  0  0  0  0  1  0  0  0  0  0  0
  188.7920  178.6380  141.0010 O   0  0  0  0  0  0  0  0  0  0  0  0
  190.1200  176.7250  141.3070 N   0  0  0  0  0  2  0  0  0  0  0  0
  189.4920  177.7220  140.4910 C   0  0  0  0  0  0  0  0  0  0  0  0
  189.6870  177.6700  139.0090 C   0  0  1  0  0  3  0  0  0  0  0  0
  189.8070  176.2870  138.5780 N   0  0  0  0  0  1  0  0  0  0  0  0
  187.9640  177.4740  137.3600 O   0  0  0  0  0  1  0  0  0  0  0  0
  188.5370  178.3550  138.2780 C   0  0  0  0  0  3  0  0  0  0  0  0
  189.0040  179.4820  137.5980 O   0  0  0  0  0  1  0  0  0  0  0  0
  189.5630  176.8320  146.9610 C   0  0  0  0  0  2  0  0  0  0  0  0
  190.1770  177.6630  147.9000 O   0  0  0  0  0  0  0  0  0  0  0  0
  187.8990  177.4240  148.5300 C   0  0  0  0  0  1  0  0  0  0  0  0
  189.1220  178.3190  148.5340 C   0  0  0  0  0  2  0  0  0  0  0  0
  1  4  1  0  0  0  0
  1  6  2  0  0  0  0
  2  5  1  0  0  0  0
  4  7  1  0  0  0  0
  5 25  1  1  0  0  0
  6  2  1  0  0  0  0
  7  3  2  0  0  0  0
  7  5  1  0  0  0  0
  8 10  2  0  0  0  0
  8 11  1  0  0  0  0
 10 12  1  0  0  0  0
 11 13  1  1  0  0  0
 11  9  1  0  0  0  0
 12  9  2  0  0  0  0
 12  3  1  0  0  0  0
 14 15  2  0  0  0  0
 15  8  1  0  0  0  0
 16 15  1  0  0  0  0
 18  1  1  0  0  0  0
 19 17  2  0  0  0  0
 19 18  1  0  0  0  0
 20 21  1  6  0  0  0
 20 19  1  0  0  0  0
 22 23  1  0  0  0  0
 23 20  1  0  0  0  0
 24 23  1  0  0  0  0
 25 26  1  0  0  0  0
 26 28  1  0  0  0  0
 27 28  1  0  0  0  0
M  END
>  <MODEL>
1

>  <REMARK>
 VINA RESULT:      -8.4      0.000      0.000
  Name = 
  8 active torsions:
  status: ('A' for Active; 'I' for Inactive)
    1  A    between atoms: C_1  and  C_15
    2  A    between atoms: O_2  and  C_10
    3  A    between atoms: O_2  and  C_22
    4  A    between atoms: CA_3  and  C_16
    5  A    between atoms: CA_3  and  C_27
    6  A    between atoms: C_5  and  N_26
    7  A    between atoms: C_10  and  C_19
    8  A    between atoms: N_12  and  C_23
                            x       y       z     vdW  Elec       q    Type
                         _______ _______ _______ _____ _____    ______ ____

>  <TORSDO>
F 8

$$$$
=
 OpenBabel10232409073D

 28 29  0  0  1  0  0  0  0  0999 V2000
  190.2950  177.3450  141.4200 C   0  0  0  0  0  0  0  0  0  0  0  0
  191.6790  176.9120  143.4090 C   0  0  0  0  0  2  0  0  0  0  0  0
  188.2190  178.0160  144.3010 N   0  0  0  0  0  0  0  0  0  0  0  0
  189.1010  176.9710  142.2490 C   0  0  0  0  0  2  0  0  0  0  0  0
  190.6020  177.5400  144.3030 C   0  0  1  0  0  3  0  0  0  0  0  0
  191.5120  177.3260  141.9770 C   0  0  0  0  0  3  0  0  0  0  0  0
  189.2340  177.5190  143.6500 C   0  0  0  0  0  0  0  0  0  0  0  0
  185.1350  178.4150  142.4850 C   0  0  0  0  0  0  0  0  0  0  0  0
  185.7800  177.9950  144.6660 C   0  0  0  0  0  3  0  0  0  0  0  0
  186.4590  178.3780  142.5120 C   0  0  0  0  0  3  0  0  0  0  0  0
  184.5490  178.1790  143.8440 C   0  0  1  0  0  3  0  0  0  0  0  0
  186.8470  178.1160  143.8860 C   0  0  0  0  0  0  0  0  0  0  0  0
  183.8070  179.4150  144.3230 C   0  0  0  0  0  1  0  0  0  0  0  0
  183.2520  178.0260  141.1040 O   0  0  0  0  0  0  0  0  0  0  0  0
  184.3500  178.6220  141.2580 C   0  0  0  0  0  0  0  0  0  0  0  0
  184.8220  179.4950  140.2350 N   0  0  0  0  0  1  0  0  0  0  0  0
  190.6700  175.6780  139.0160 O   0  0  0  0  0  0  0  0  0  0  0  0
  190.0930  177.7080  140.0460 N   0  0  0  0  0  2  0  0  0  0  0  0
  190.2920  176.8740  138.8970 C   0  0  0  0  0  0  0  0  0  0  0  0
  190.0310  177.4430  137.5390 C   0  0  1  0  0  3  0  0  0  0  0  0
  189.9570  176.3680  136.5630 N   0  0  0  0  0  1  0  0  0  0  0  0
  187.9410  177.8670  136.4530 O   0  0  0  0  0  1  0  0  0  0  0  0
  188.7450  178.2630  137.5230 C   0  0  0  0  0  3  0  0  0  0  0  0
  189.0430  179.6200  137.3920 O   0  0  0  0  0  1  0  0  0  0  0  0
  190.5910  176.8030  145.6340 C   0  0  0  0  0  2  0  0  0  0  0  0
  191.8190  176.9580  146.2800 O   0  0  0  0  0  0  0  0  0  0  0  0
  192.7250  175.8610  148.1830 C   0  0  0  0  0  1  0  0  0  0  0  0
  192.0970  175.7000  146.8140 C   0  0  0  0  0  2  0  0  0  0  0  0
  1  6  2  0  0  0  0
  1  4  1  0  0  0  0
  2  5  1  0  0  0  0
  4  7  1  0  0  0  0
  5 25  1  1  0  0  0
  6  2  1  0  0  0  0
  7  3  2  0  0  0  0
  7  5  1  0  0  0  0
  8 10  2  0  0  0  0
  8 11  1  0  0  0  0
 10 12  1  0  0  0  0
 11 13  1  1  0  0  0
 11  9  1  0  0  0  0
 12  3  1  0  0  0  0
 12  9  2  0  0  0  0
 14 15  2  0  0  0  0
 15  8  1  0  0  0  0
 16 15  1  0  0  0  0
 18  1  1  0  0  0  0
 19 17  2  0  0  0  0
 19 18  1  0  0  0  0
 20 21  1  6  0  0  0
 20 19  1  0  0  0  0
 22 23  1  0  0  0  0
 23 20  1  0  0  0  0
 24 23  1  0  0  0  0
 25 26  1  0  0  0  0
 26 28  1  0  0  0  0
 28 27  1  0  0  0  0
M  END
>  <MODEL>
2

>  <REMARK>
 VINA RESULT:      -8.2      1.595      1.894
  Name = 
  8 active torsions:
  status: ('A' for Active; 'I' for Inactive)
    1  A    between atoms: C_1  and  C_15
    2  A    between atoms: O_2  and  C_10
    3  A    between atoms: O_2  and  C_22
    4  A    between atoms: CA_3  and  C_16
    5  A    between atoms: CA_3  and  C_27
    6  A    between atoms: C_5  and  N_26
    7  A    between atoms: C_10  and  C_19
    8  A    between atoms: N_12  and  C_23
                            x       y       z     vdW  Elec       q    Type
                         _______ _______ _______ _____ _____    ______ ____

>  <TORSDO>
F 8

$$$$
=
 OpenBabel10232409073D

 28 29  0  0  1  0  0  0  0  0999 V2000
  190.7060  177.7850  143.0740 C   0  0  0  0  0  0  0  0  0  0  0  0
  190.9650  177.2710  140.6810 C   0  0  0  0  0  2  0  0  0  0  0  0
  187.3780  177.6490  141.6690 N   0  0  0  0  0  0  0  0  0  0  0  0
  189.4400  178.5080  142.7150 C   0  0  0  0  0  2  0  0  0  0  0  0
  189.4530  177.0420  140.5590 C   0  0  1  0  0  3  0  0  0  0  0  0
  191.4180  177.1910  142.1090 C   0  0  0  0  0  3  0  0  0  0  0  0
  188.6790  177.7500  141.6530 C   0  0  0  0  0  0  0  0  0  0  0  0
  185.4680  178.5790  144.5770 C   0  0  0  0  0  0  0  0  0  0  0  0
  185.4700  179.0710  142.3160 C   0  0  0  0  0  3  0  0  0  0  0  0
  186.4580  177.8990  144.0180 C   0  0  0  0  0  3  0  0  0  0  0  0
  184.7250  179.3990  143.5660 C   0  0  1  0  0  3  0  0  0  0  0  0
  186.4440  178.2160  142.6030 C   0  0  0  0  0  0  0  0  0  0  0  0
  183.2920  178.9120  143.4380 C   0  0  0  0  0  1  0  0  0  0  0  0
  184.0070  178.7960  146.4270 O   0  0  0  0  0  0  0  0  0  0  0  0
  185.1730  178.5550  146.0180 C   0  0  0  0  0  0  0  0  0  0  0  0
  186.1990  178.2610  146.9620 N   0  0  0  0  0  1  0  0  0  0  0  0
  189.3210  176.5580  145.3710 O   0  0  0  0  0  0  0  0  0  0  0  0
  191.1170  177.7580  144.4490 N   0  0  0  0  0  2  0  0  0  0  0  0
  190.4150  177.1590  145.5460 C   0  0  0  0  0  0  0  0  0  0  0  0
  191.0090  177.2440  146.9150 C   0  0  1  0  0  3  0  0  0  0  0  0
  189.9710  177.5650  147.8810 N   0  0  0  0  0  1  0  0  0  0  0  0
  192.7090  176.1900  148.2300 O   0  0  0  0  0  1  0  0  0  0  0  0
  191.7020  175.9390  147.2970 C   0  0  0  0  0  3  0  0  0  0  0  0
  192.2660  175.3470  146.1650 O   0  0  0  0  0  1  0  0  0  0  0  0
  189.0060  177.5000  139.1790 C   0  0  0  0  0  2  0  0  0  0  0  0
  189.0510  178.8930  139.0970 O   0  0  0  0  0  0  0  0  0  0  0  0
  189.0110  177.8630  136.9560 C   0  0  0  0  0  1  0  0  0  0  0  0
  189.0670  179.1650  137.7280 C   0  0  0  0  0  2  0  0  0  0  0  0
  1 18  1  0  0  0  0
  2  6  1  0  0  0  0
  3 12  1  0  0  0  0
  4  1  1  0  0  0  0
  5 25  1  6  0  0  0
  5  2  1  0  0  0  0
  5  7  1  0  0  0  0
  6  1  2  0  0  0  0
  7  3  2  0  0  0  0
  7  4  1  0  0  0  0
  8 15  1  0  0  0  0
  9 12  2  0  0  0  0
  9 11  1  0  0  0  0
 10  8  2  0  0  0  0
 11 13  1  6  0  0  0
 11  8  1  0  0  0  0
 12 10  1  0  0  0  0
 15 14  2  0  0  0  0
 15 16  1  0  0  0  0
 17 19  2  0  0  0  0
 18 19  1  0  0  0  0
 19 20  1  0  0  0  0
 20 23  1  0  0  0  0
 20 21  1  1  0  0  0
 23 22  1  0  0  0  0
 24 23  1  0  0  0  0
 26 25  1  0  0  0  0
 27 28  1  0  0  0  0
 28 26  1  0  0  0  0
M  END
>  <MODEL>
3

>  <REMARK>
 VINA RESULT:      -8.1      2.218      6.394
  Name = 
  8 active torsions:
  status: ('A' for Active; 'I' for Inactive)
    1  A    between atoms: C_1  and  C_15
    2  A    between atoms: O_2  and  C_10
    3  A    between atoms: O_2  and  C_22
    4  A    between atoms: CA_3  and  C_16
    5  A    between atoms: CA_3  and  C_27
    6  A    between atoms: C_5  and  N_26
    7  A    between atoms: C_10  and  C_19
    8  A    between atoms: N_12  and  C_23
                            x       y       z     vdW  Elec       q    Type
                         _______ _______ _______ _____ _____    ______ ____

>  <TORSDO>
F 8

$$$$
=
 OpenBabel10232409073D

 28 29  0  0  1  0  0  0  0  0999 V2000
  187.0150  177.3990  144.9450 C   0  0  0  0  0  0  0  0  0  0  0  0
  184.8040  178.4640  145.1360 C   0  0  0  0  0  2  0  0  0  0  0  0
  186.3000  178.9030  141.7370 N   0  0  0  0  0  0  0  0  0  0  0  0
  186.7270  177.2140  143.4830 C   0  0  0  0  0  2  0  0  0  0  0  0
  185.0120  179.1540  143.7820 C   0  0  1  0  0  3  0  0  0  0  0  0
  186.1050  178.0010  145.7200 C   0  0  0  0  0  3  0  0  0  0  0  0
  186.0280  178.4300  142.9220 C   0  0  0  0  0  0  0  0  0  0  0  0
  189.1400  177.5650  139.9720 C   0  0  0  0  0  0  0  0  0  0  0  0
  187.0020  178.2830  139.4560 C   0  0  0  0  0  3  0  0  0  0  0  0
  188.5620  177.9500  141.1000 C   0  0  0  0  0  3  0  0  0  0  0  0
  188.2230  177.7310  138.7980 C   0  0  1  0  0  3  0  0  0  0  0  0
  187.2250  178.3990  140.7590 C   0  0  0  0  0  0  0  0  0  0  0  0
  188.7800  178.7610  137.8310 C   0  0  0  0  0  1  0  0  0  0  0  0
  191.4200  177.4950  140.6060 O   0  0  0  0  0  0  0  0  0  0  0  0
  190.4990  177.0050  139.9010 C   0  0  0  0  0  0  0  0  0  0  0  0
  190.7850  175.9080  139.0380 N   0  0  0  0  0  1  0  0  0  0  0  0
  189.7160  178.5140  144.5520 O   0  0  0  0  0  0  0  0  0  0  0  0
  188.2600  176.9150  145.4680 N   0  0  0  0  0  2  0  0  0  0  0  0
  189.5610  177.4770  145.2510 C   0  0  0  0  0  0  0  0  0  0  0  0
  190.7460  176.8180  145.8820 C   0  0  1  0  0  3  0  0  0  0  0  0
  191.9630  177.4980  145.4690 N   0  0  0  0  0  1  0  0  0  0  0  0
  189.8400  177.8870  147.8220 O   0  0  0  0  0  1  0  0  0  0  0  0
  190.6300  176.8160  147.4030 C   0  0  0  0  0  3  0  0  0  0  0  0
  191.8960  176.9310  147.9800 O   0  0  0  0  0  1  0  0  0  0  0  0
  183.6650  179.2560  143.0810 C   0  0  0  0  0  2  0  0  0  0  0  0
  182.6510  178.7860  143.9170 O   0  0  0  0  0  0  0  0  0  0  0  0
  180.2910  178.5290  144.0170 C   0  0  0  0  0  1  0  0  0  0  0  0
  181.4710  179.0490  143.2210 C   0  0  0  0  0  2  0  0  0  0  0  0
  1 18  1  0  0  0  0
  1  6  2  0  0  0  0
  2  6  1  0  0  0  0
  3  7  2  0  0  0  0
  4  1  1  0  0  0  0
  5 25  1  6  0  0  0
  5  2  1  0  0  0  0
  7  4  1  0  0  0  0
  7  5  1  0  0  0  0
  8 10  2  0  0  0  0
  9 12  2  0  0  0  0
 11 13  1  6  0  0  0
 11  9  1  0  0  0  0
 11  8  1  0  0  0  0
 12 10  1  0  0  0  0
 12  3  1  0  0  0  0
 15  8  1  0  0  0  0
 15 14  2  0  0  0  0
 16 15  1  0  0  0  0
 17 19  2  0  0  0  0
 19 18  1  0  0  0  0
 19 20  1  0  0  0  0
 20 21  1  1  0  0  0
 20 23  1  0  0  0  0
 23 22  1  0  0  0  0
 23 24  1  0  0  0  0
 25 26  1  0  0  0  0
 28 26  1  0  0  0  0
 28 27  1  0  0  0  0
M  END
>  <MODEL>
4

>  <REMARK>
 VINA RESULT:      -7.8      2.076      6.751
  Name = 
  8 active torsions:
  status: ('A' for Active; 'I' for Inactive)
    1  A    between atoms: C_1  and  C_15
    2  A    between atoms: O_2  and  C_10
    3  A    between atoms: O_2  and  C_22
    4  A    between atoms: CA_3  and  C_16
    5  A    between atoms: CA_3  and  C_27
    6  A    between atoms: C_5  and  N_26
    7  A    between atoms: C_10  and  C_19
    8  A    between atoms: N_12  and  C_23
                            x       y       z     vdW  Elec       q    Type
                         _______ _______ _______ _____ _____    ______ ____

>  <TORSDO>
F 8

$$$$
=
 OpenBabel10232409073D

 28 29  0  0  1  0  0  0  0  0999 V2000
  189.9870  176.7680  141.8380 C   0  0  0  0  0  0  0  0  0  0  0  0
  191.5200  176.6270  143.7590 C   0  0  0  0  0  2  0  0  0  0  0  0
  188.1750  177.9980  144.7140 N   0  0  0  0  0  0  0  0  0  0  0  0
  188.8570  176.5860  142.8100 C   0  0  0  0  0  2  0  0  0  0  0  0
  190.5370  177.4390  144.6120 C   0  0  1  0  0  3  0  0  0  0  0  0
  191.2450  176.7980  142.2950 C   0  0  0  0  0  3  0  0  0  0  0  0
  189.1200  177.3590  144.0810 C   0  0  0  0  0  0  0  0  0  0  0  0
  184.9650  178.4610  143.1460 C   0  0  0  0  0  0  0  0  0  0  0  0
  185.7680  177.8050  145.2150 C   0  0  0  0  0  3  0  0  0  0  0  0
  186.2880  178.4890  143.0920 C   0  0  0  0  0  3  0  0  0  0  0  0
  184.4790  178.0270  144.4960 C   0  0  1  0  0  3  0  0  0  0  0  0
  186.7750  178.0780  144.3950 C   0  0  0  0  0  0  0  0  0  0  0  0
  183.7160  179.1530  145.1720 C   0  0  0  0  0  1  0  0  0  0  0  0
  184.5640  179.3730  140.9990 O   0  0  0  0  0  0  0  0  0  0  0  0
  184.0940  178.7790  142.0040 C   0  0  0  0  0  0  0  0  0  0  0  0
  182.7160  178.4180  142.0240 N   0  0  0  0  0  1  0  0  0  0  0  0
  188.3020  178.7990  140.5220 O   0  0  0  0  0  0  0  0  0  0  0  0
  189.6800  176.8990  140.4430 N   0  0  0  0  0  2  0  0  0  0  0  0
  188.8490  177.8960  139.8340 C   0  0  0  0  0  0  0  0  0  0  0  0
  188.6450  177.8590  138.3530 C   0  0  1  0  0  3  0  0  0  0  0  0
  189.0100  179.1420  137.7760 N   0  0  0  0  0  1  0  0  0  0  0  0
  190.4110  177.2790  136.8450 O   0  0  0  0  0  1  0  0  0  0  0  0
  189.4600  176.7390  137.7130 C   0  0  0  0  0  3  0  0  0  0  0  0
  188.6210  175.8850  136.9960 O   0  0  0  0  0  1  0  0  0  0  0  0
  190.6190  176.9400  146.0470 C   0  0  0  0  0  2  0  0  0  0  0  0
  191.9510  176.8730  146.4580 O   0  0  0  0  0  0  0  0  0  0  0  0
  192.8200  175.8220  148.4040 C   0  0  0  0  0  1  0  0  0  0  0  0
  192.0590  175.6420  147.1060 C   0  0  0  0  0  2  0  0  0  0  0  0
  1  6  2  0  0  0  0
  1  4  1  0  0  0  0
  2  5  1  0  0  0  0
  4  7  1  0  0  0  0
  5 25  1  1  0  0  0
  6  2  1  0  0  0  0
  7  5  1  0  0  0  0
  7  3  2  0  0  0  0
  8 11  1  0  0  0  0
 10  8  2  0  0  0  0
 10 12  1  0  0  0  0
 11 13  1  1  0  0  0
 11  9  1  0  0  0  0
 12  3  1  0  0  0  0
 12  9  2  0  0  0  0
 14 15  2  0  0  0  0
 15 16  1  0  0  0  0
 15  8  1  0  0  0  0
 18  1  1  0  0  0  0
 19 18  1  0  0  0  0
 19 17  2  0  0  0  0
 20 21  1  6  0  0  0
 20 19  1  0  0  0  0
 22 23  1  0  0  0  0
 23 20  1  0  0  0  0
 24 23  1  0  0  0  0
 25 26  1  0  0  0  0
 26 28  1  0  0  0  0
 28 27  1  0  0  0  0
M  END
>  <MODEL>
5

>  <REMARK>
 VINA RESULT:      -7.6      1.613      2.009
  Name = 
  8 active torsions:
  status: ('A' for Active; 'I' for Inactive)
    1  A    between atoms: C_1  and  C_15
    2  A    between atoms: O_2  and  C_10
    3  A    between atoms: O_2  and  C_22
    4  A    between atoms: CA_3  and  C_16
    5  A    between atoms: CA_3  and  C_27
    6  A    between atoms: C_5  and  N_26
    7  A    between atoms: C_10  and  C_19
    8  A    between atoms: N_12  and  C_23
                            x       y       z     vdW  Elec       q    Type
                         _______ _______ _______ _____ _____    ______ ____

>  <TORSDO>
F 8

$$$$
=
 OpenBabel10232409073D

 28 29  0  0  1  0  0  0  0  0999 V2000
  186.6990  178.6720  140.6340 C   0  0  0  0  0  0  0  0  0  0  0  0
  184.2540  178.7890  140.8980 C   0  0  0  0  0  2  0  0  0  0  0  0
  185.9700  177.7370  144.0490 N   0  0  0  0  0  0  0  0  0  0  0  0
  186.8070  178.9910  142.0970 C   0  0  0  0  0  2  0  0  0  0  0  0
  184.3610  178.1030  142.2650 C   0  0  1  0  0  3  0  0  0  0  0  0
  185.4880  178.5660  140.0740 C   0  0  0  0  0  3  0  0  0  0  0  0
  185.7370  178.2660  142.8800 C   0  0  0  0  0  0  0  0  0  0  0  0
  189.3710  177.5310  145.2180 C   0  0  0  0  0  0  0  0  0  0  0  0
  187.2960  178.0400  146.1060 C   0  0  0  0  0  3  0  0  0  0  0  0
  188.4800  177.4310  144.2430 C   0  0  0  0  0  3  0  0  0  0  0  0
  188.7270  177.9260  146.5130 C   0  0  1  0  0  3  0  0  0  0  0  0
  187.1860  177.7520  144.8160 C   0  0  0  0  0  0  0  0  0  0  0  0
  188.8690  176.8140  147.5370 C   0  0  0  0  0  1  0  0  0  0  0  0
  191.3420  176.2290  145.3770 O   0  0  0  0  0  0  0  0  0  0  0  0
  190.8150  177.3180  145.0300 C   0  0  0  0  0  0  0  0  0  0  0  0
  191.6270  178.3390  144.4560 N   0  0  0  0  0  1  0  0  0  0  0  0
  188.9230  176.8060  141.1550 O   0  0  0  0  0  0  0  0  0  0  0  0
  187.9050  178.4940  139.8780 N   0  0  0  0  0  2  0  0  0  0  0  0
  188.9730  177.5820  140.1630 C   0  0  0  0  0  0  0  0  0  0  0  0
  190.1580  177.5500  139.2510 C   0  0  1  0  0  3  0  0  0  0  0  0
  191.3680  177.3270  140.0270 N   0  0  0  0  0  1  0  0  0  0  0  0
  190.8180  175.3770  138.4940 O   0  0  0  0  0  1  0  0  0  0  0  0
  190.0050  176.4690  138.1860 C   0  0  0  0  0  3  0  0  0  0  0  0
  190.3720  176.9720  136.9360 O   0  0  0  0  0  1  0  0  0  0  0  0
  183.2790  178.6660  143.1740 C   0  0  0  0  0  2  0  0  0  0  0  0
  182.0760  178.7820  142.4740 O   0  0  0  0  0  0  0  0  0  0  0  0
  180.1230  178.4210  143.7780 C   0  0  0  0  0  1  0  0  0  0  0  0
  181.2050  179.4000  143.3720 C   0  0  0  0  0  2  0  0  0  0  0  0
  1  4  1  0  0  0  0
  2  5  1  0  0  0  0
  3 12  1  0  0  0  0
  4  7  1  0  0  0  0
  5  7  1  0  0  0  0
  5 25  1  1  0  0  0
  6  1  2  0  0  0  0
  6  2  1  0  0  0  0
  7  3  2  0  0  0  0
  8 11  1  0  0  0  0
  9 11  1  0  0  0  0
 10 12  1  0  0  0  0
 10  8  2  0  0  0  0
 11 13  1  1  0  0  0
 12  9  2  0  0  0  0
 15  8  1  0  0  0  0
 15 14  2  0  0  0  0
 16 15  1  0  0  0  0
 18 19  1  0  0  0  0
 18  1  1  0  0  0  0
 19 17  2  0  0  0  0
 20 21  1  1  0  0  0
 20 19  1  0  0  0  0
 23 22  1  0  0  0  0
 23 20  1  0  0  0  0
 24 23  1  0  0  0  0
 26 25  1  0  0  0  0
 26 28  1  0  0  0  0
 28 27  1  0  0  0  0
M  END
>  <MODEL>
6

>  <REMARK>
 VINA RESULT:      -7.5      1.989      5.683
  Name = 
  8 active torsions:
  status: ('A' for Active; 'I' for Inactive)
    1  A    between atoms: C_1  and  C_15
    2  A    between atoms: O_2  and  C_10
    3  A    between atoms: O_2  and  C_22
    4  A    between atoms: CA_3  and  C_16
    5  A    between atoms: CA_3  and  C_27
    6  A    between atoms: C_5  and  N_26
    7  A    between atoms: C_10  and  C_19
    8  A    between atoms: N_12  and  C_23
                            x       y       z     vdW  Elec       q    Type
                         _______ _______ _______ _____ _____    ______ ____

>  <TORSDO>
F 8

$$$$
=
 OpenBabel10232409073D

 28 29  0  0  1  0  0  0  0  0999 V2000
  187.4250  178.1770  140.1510 C   0  0  0  0  0  0  0  0  0  0  0  0
  185.1090  178.9300  140.5070 C   0  0  0  0  0  2  0  0  0  0  0  0
  186.6900  177.6710  143.6540 N   0  0  0  0  0  0  0  0  0  0  0  0
  187.6970  178.5480  141.5810 C   0  0  0  0  0  2  0  0  0  0  0  0
  185.1210  178.3240  141.9170 C   0  0  1  0  0  3  0  0  0  0  0  0
  186.1950  178.3490  139.6520 C   0  0  0  0  0  3  0  0  0  0  0  0
  186.5280  178.1690  142.4590 C   0  0  0  0  0  0  0  0  0  0  0  0
  189.3020  177.3460  146.1120 C   0  0  0  0  0  0  0  0  0  0  0  0
  189.0420  176.9580  143.8460 C   0  0  0  0  0  3  0  0  0  0  0  0
  188.0590  177.6690  145.7880 C   0  0  0  0  0  3  0  0  0  0  0  0
  190.0720  176.8590  144.9210 C   0  0  1  0  0  3  0  0  0  0  0  0
  187.9130  177.4230  144.3660 C   0  0  0  0  0  0  0  0  0  0  0  0
  191.2170  177.8060  144.6070 C   0  0  0  0  0  1  0  0  0  0  0  0
  190.9530  176.9090  147.7520 O   0  0  0  0  0  0  0  0  0  0  0  0
  189.8350  177.4200  147.4810 C   0  0  0  0  0  0  0  0  0  0  0  0
  189.0930  178.0670  148.5110 N   0  0  0  0  0  1  0  0  0  0  0  0
  188.9720  179.5330  138.0380 O   0  0  0  0  0  0  0  0  0  0  0  0
  188.5010  177.6510  139.3610 N   0  0  0  0  0  2  0  0  0  0  0  0
  189.2290  178.3340  138.3330 C   0  0  0  0  0  0  0  0  0  0  0  0
  190.3190  177.6060  137.6140 C   0  0  1  0  0  3  0  0  0  0  0  0
  191.0760  176.8000  138.5570 N   0  0  0  0  0  1  0  0  0  0  0  0
  190.7450  175.8710  136.0210 O   0  0  0  0  0  1  0  0  0  0  0  0
  189.7540  176.7290  136.5010 C   0  0  0  0  0  3  0  0  0  0  0  0
  189.2920  177.5240  135.4510 O   0  0  0  0  0  1  0  0  0  0  0  0
  184.2710  179.2000  142.8250 C   0  0  0  0  0  2  0  0  0  0  0  0
  182.9390  178.7860  142.7830 O   0  0  0  0  0  0  0  0  0  0  0  0
  183.6870  179.1670  145.0060 C   0  0  0  0  0  1  0  0  0  0  0  0
  182.5070  178.8550  144.1080 C   0  0  0  0  0  2  0  0  0  0  0  0
  1  4  1  0  0  0  0
  2  5  1  0  0  0  0
  3 12  1  0  0  0  0
  4  7  1  0  0  0  0
  5  7  1  0  0  0  0
  5 25  1  1  0  0  0
  6  1  2  0  0  0  0
  6  2  1  0  0  0  0
  7  3  2  0  0  0  0
  8 15  1  0  0  0  0
  9 12  2  0  0  0  0
  9 11  1  0  0  0  0
 10  8  2  0  0  0  0
 11 13  1  6  0  0  0
 11  8  1  0  0  0  0
 12 10  1  0  0  0  0
 15 14  2  0  0  0  0
 15 16  1  0  0  0  0
 17 19  2  0  0  0  0
 18  1  1  0  0  0  0
 19 18  1  0  0  0  0
 20 19  1  0  0  0  0
 20 21  1  1  0  0  0
 22 23  1  0  0  0  0
 23 20  1  0  0  0  0
 24 23  1  0  0  0  0
 26 25  1  0  0  0  0
 26 28  1  0  0  0  0
 28 27  1  0  0  0  0
M  END
>  <MODEL>
7

>  <REMARK>
 VINA RESULT:      -7.4      1.727      5.628
  Name = 
  8 active torsions:
  status: ('A' for Active; 'I' for Inactive)
    1  A    between atoms: C_1  and  C_15
    2  A    between atoms: O_2  and  C_10
    3  A    between atoms: O_2  and  C_22
    4  A    between atoms: CA_3  and  C_16
    5  A    between atoms: CA_3  and  C_27
    6  A    between atoms: C_5  and  N_26
    7  A    between atoms: C_10  and  C_19
    8  A    between atoms: N_12  and  C_23
                            x       y       z     vdW  Elec       q    Type
                         _______ _______ _______ _____ _____    ______ ____

>  <TORSDO>
F 8

$$$$
=
 OpenBabel10232409073D

 28 29  0  0  1  0  0  0  0  0999 V2000
  185.8430  178.7410  140.5660 C   0  0  0  0  0  0  0  0  0  0  0  0
  183.4970  179.1660  141.1780 C   0  0  0  0  0  2  0  0  0  0  0  0
  185.4870  177.8200  144.0440 N   0  0  0  0  0  0  0  0  0  0  0  0
  186.1980  179.0060  142.0020 C   0  0  0  0  0  2  0  0  0  0  0  0
  183.7050  178.4360  142.5110 C   0  0  1  0  0  3  0  0  0  0  0  0
  184.5620  178.8070  140.1850 C   0  0  0  0  0  2  0  0  0  0  0  0
  185.1630  178.4050  142.9230 C   0  0  0  0  0  0  0  0  0  0  0  0
  188.3410  177.6500  146.2340 C   0  0  0  0  0  0  0  0  0  0  0  0
  187.8990  177.3080  143.9890 C   0  0  0  0  0  3  0  0  0  0  0  0
  187.0500  177.8740  146.0390 C   0  0  0  0  0  3  0  0  0  0  0  0
  189.0320  177.2670  144.9590 C   0  0  1  0  0  3  0  0  0  0  0  0
  186.7900  177.6580  144.6290 C   0  0  0  0  0  0  0  0  0  0  0  0
  190.0580  178.3190  144.5750 C   0  0  0  0  0  1  0  0  0  0  0  0
  190.1190  177.1930  147.7290 O   0  0  0  0  0  0  0  0  0  0  0  0
  188.9950  177.7300  147.5490 C   0  0  0  0  0  0  0  0  0  0  0  0
  188.3650  178.4130  148.6290 N   0  0  0  0  0  1  0  0  0  0  0  0
  188.7280  178.4650  141.1150 O   0  0  0  0  0  0  0  0  0  0  0  0
  186.8970  178.4290  139.6440 N   0  0  0  0  0  0  0  0  0  0  0  0
  188.2950  178.3090  139.9410 C   0  0  0  0  0  0  0  0  0  0  0  0
  189.2430  177.9820  138.8330 C   0  0  1  0  0  3  0  0  0  0  0  0
  189.4650  176.5460  138.7860 N   0  0  0  0  0  1  0  0  0  0  0  0
  189.3280  177.7840  136.4490 O   0  0  0  0  0  1  0  0  0  0  0  0
  188.7150  178.4800  137.4910 C   0  0  0  0  0  3  0  0  0  0  0  0
  188.9810  179.8430  137.3480 O   0  0  0  0  0  1  0  0  0  0  0  0
  182.8450  179.1110  143.5690 C   0  0  0  0  0  2  0  0  0  0  0  0
  181.9280  178.2000  144.0960 O   0  0  0  0  0  0  0  0  0  0  0  0
  180.0630  178.3710  142.6340 C   0  0  0  0  0  1  0  0  0  0  0  0
  180.6870  178.8180  143.9400 C   0  0  0  0  0  2  0  0  0  0  0  0
  1  4  1  0  0  0  0
  2  5  1  0  0  0  0
  3 12  1  0  0  0  0
  4  7  1  0  0  0  0
  5  7  1  0  0  0  0
  5 25  1  1  0  0  0
  6  1  1  0  0  0  0
  6  2  1  0  0  0  0
  7  3  2  0  0  0  0
  8 15  1  0  0  0  0
  9 12  2  0  0  0  0
  9 11  1  0  0  0  0
 10  8  2  0  0  0  0
 11 13  1  6  0  0  0
 11  8  1  0  0  0  0
 12 10  1  0  0  0  0
 15 14  2  0  0  0  0
 15 16  1  0  0  0  0
 18 19  1  0  0  0  0
 18  1  2  0  0  0  0
 19 17  2  0  0  0  0
 20 21  1  6  0  0  0
 20 19  1  0  0  0  0
 22 23  1  0  0  0  0
 23 20  1  0  0  0  0
 24 23  1  0  0  0  0
 25 26  1  0  0  0  0
 27 28  1  0  0  0  0
 28 26  1  0  0  0  0
M  END
>  <MODEL>
8

>  <REMARK>
 VINA RESULT:      -7.3      1.748      5.851
  Name = 
  8 active torsions:
  status: ('A' for Active; 'I' for Inactive)
    1  A    between atoms: C_1  and  C_15
    2  A    between atoms: O_2  and  C_10
    3  A    between atoms: O_2  and  C_22
    4  A    between atoms: CA_3  and  C_16
    5  A    between atoms: CA_3  and  C_27
    6  A    between atoms: C_5  and  N_26
    7  A    between atoms: C_10  and  C_19
    8  A    between atoms: N_12  and  C_23
                            x       y       z     vdW  Elec       q    Type
                         _______ _______ _______ _____ _____    ______ ____

>  <TORSDO>
F 8

$$$$
=
 OpenBabel10232409073D

 28 29  0  0  1  0  0  0  0  0999 V2000
  187.8000  177.9810  140.2440 C   0  0  0  0  0  0  0  0  0  0  0  0
  189.2720  177.3220  138.3850 C   0  0  0  0  0  2  0  0  0  0  0  0
  191.1310  177.6660  141.6120 N   0  0  0  0  0  0  0  0  0  0  0  0
  188.7410  177.2550  141.1620 C   0  0  0  0  0  2  0  0  0  0  0  0
  190.5050  177.5640  139.2660 C   0  0  1  0  0  3  0  0  0  0  0  0
  188.0620  178.0190  138.9330 C   0  0  0  0  0  3  0  0  0  0  0  0
  190.1740  177.4870  140.7430 C   0  0  0  0  0  0  0  0  0  0  0  0
  191.4280  176.9140  145.1220 C   0  0  0  0  0  0  0  0  0  0  0  0
  190.4020  178.5190  143.8080 C   0  0  0  0  0  3  0  0  0  0  0  0
  191.7080  176.6380  143.8570 C   0  0  0  0  0  3  0  0  0  0  0  0
  190.5670  178.1360  145.2410 C   0  0  1  0  0  3  0  0  0  0  0  0
  191.0560  177.6500  143.0470 C   0  0  0  0  0  0  0  0  0  0  0  0
  189.2120  177.7740  145.8220 C   0  0  0  0  0  1  0  0  0  0  0  0
  192.3580  174.9620  146.0840 O   0  0  0  0  0  0  0  0  0  0  0  0
  191.9400  176.1360  146.2600 C   0  0  0  0  0  0  0  0  0  0  0  0
  191.9680  176.7010  147.5680 N   0  0  0  0  0  1  0  0  0  0  0  0
  186.6680  177.6420  142.9470 O   0  0  0  0  0  0  0  0  0  0  0  0
  186.6390  178.6100  140.8070 N   0  0  0  0  0  2  0  0  0  0  0  0
  186.1090  178.4170  142.1250 C   0  0  0  0  0  0  0  0  0  0  0  0
  184.8770  179.1650  142.5230 C   0  0  1  0  0  3  0  0  0  0  0  0
  183.8370  178.9630  141.5280 N   0  0  0  0  0  1  0  0  0  0  0  0
  182.9970  178.8330  143.9680 O   0  0  0  0  0  1  0  0  0  0  0  0
  184.3870  178.7240  143.8990 C   0  0  0  0  0  3  0  0  0  0  0  0
  184.9560  179.5250  144.8910 O   0  0  0  0  0  1  0  0  0  0  0  0
  191.5750  176.5520  138.8850 C   0  0  0  0  0  2  0  0  0  0  0  0
  190.9830  175.3540  138.4810 O   0  0  0  0  0  0  0  0  0  0  0  0
  192.8450  175.8100  137.0760 C   0  0  0  0  0  1  0  0  0  0  0  0
  191.9380  174.7480  137.6640 C   0  0  0  0  0  2  0  0  0  0  0  0
  1 18  1  0  0  0  0
  1  4  1  0  0  0  0
  2  6  1  0  0  0  0
  2  5  1  0  0  0  0
  3 12  1  0  0  0  0
  5 25  1  6  0  0  0
  5  7  1  0  0  0  0
  6  1  2  0  0  0  0
  7  4  1  0  0  0  0
  7  3  2  0  0  0  0
  8 11  1  0  0  0  0
  8 15  1  0  0  0  0
  9 11  1  0  0  0  0
 10  8  2  0  0  0  0
 11 13  1  6  0  0  0
 12  9  2  0  0  0  0
 12 10  1  0  0  0  0
 14 15  2  0  0  0  0
 15 16  1  0  0  0  0
 18 19  1  0  0  0  0
 19 20  1  0  0  0  0
 19 17  2  0  0  0  0
 20 21  1  6  0  0  0
 20 23  1  0  0  0  0
 23 22  1  0  0  0  0
 23 24  1  0  0  0  0
 26 25  1  0  0  0  0
 27 28  1  0  0  0  0
 28 26  1  0  0  0  0
M  END
>  <MODEL>
9

>  <REMARK>
 VINA RESULT:      -7.3      2.411      7.295
  Name = 
  8 active torsions:
  status: ('A' for Active; 'I' for Inactive)
    1  A    between atoms: C_1  and  C_15
    2  A    between atoms: O_2  and  C_10
    3  A    between atoms: O_2  and  C_22
    4  A    between atoms: CA_3  and  C_16
    5  A    between atoms: CA_3  and  C_27
    6  A    between atoms: C_5  and  N_26
    7  A    between atoms: C_10  and  C_19
    8  A    between atoms: N_12  and  C_23
                            x       y       z     vdW  Elec       q    Type
                         _______ _______ _______ _____ _____    ______ ____

>  <TORSDO>
F 8

$$$$
