=
 OpenBabel10232409593D

 58 64  0  0  1  0  0  0  0  0999 V2000
  183.9250  177.5960  138.3200 C   0  0  0  0  0  1  0  0  0  0  0  0
  180.4580  176.2090  140.7320 C   0  0  0  0  0  2  0  0  0  0  0  0
  182.0110  176.3280  138.7910 C   0  0  2  0  0  3  0  0  0  0  0  0
  181.0610  176.9120  139.7690 C   0  0  0  0  0  0  0  0  0  0  0  0
  181.0110  179.2240  137.2540 C   0  0  0  0  0  1  0  0  0  0  0  0
  180.9220  178.3730  139.5970 C   0  0  2  0  0  3  0  0  0  0  0  0
  182.5210  177.4380  137.9830 N   0  0  0  0  0  0  0  0  0  0  0  0
  181.8340  178.6690  138.4070 C   0  0  1  0  0  3  0  0  0  0  0  0
  180.4930  178.8440  142.0070 N   0  0  0  0  0  0  0  0  0  0  0  0
  182.8290  178.9220  141.1360 C   0  0  0  0  0  3  0  0  0  0  0  0
  182.3430  178.7200  143.4680 N   0  0  0  0  0  2  0  0  0  0  0  0
  180.9380  178.6840  143.2120 C   0  0  0  0  0  0  0  0  0  0  0  0
  181.3630  179.1360  140.8570 C   0  0  1  0  0  3  0  0  0  0  0  0
  183.2820  178.7870  142.3880 C   0  0  0  0  0  0  0  0  0  0  0  0
  179.9850  178.4420  144.3310 C   0  0  0  0  0  1  0  0  0  0  0  0
  184.7230  178.6520  142.6640 C   0  0  0  0  0  0  0  0  0  0  0  0
  185.7420  179.1890  141.7010 C   0  0  0  0  0  1  0  0  0  0  0  0
  185.1040  178.0930  143.7720 N   0  0  0  0  0  0  0  0  0  0  0  0
  186.4300  177.9350  144.1050 O   0  0  0  0  0  0  0  0  0  0  0  0
  188.4050  176.1970  147.6030 C   0  0  0  0  0  1  0  0  0  0  0  0
  186.7970  177.7830  145.4660 C   0  0  1  0  0  3  0  0  0  0  0  0
  188.6900  177.6000  147.0800 C   0  0  1  0  0  3  0  0  0  0  0  0
  188.2570  177.7320  145.6830 N   0  0  0  0  0  0  0  0  0  0  0  0
  186.2080  178.9290  146.2720 C   0  0  0  0  0  2  0  0  0  0  0  0
  188.0390  178.6740  147.9580 C   0  0  0  0  0  2  0  0  0  0  0  0
  186.5270  178.7330  147.7480 C   0  0  0  0  0  2  0  0  0  0  0  0
  190.2710  176.5670  142.7110 C   0  0  0  0  0  3  0  0  0  0  0  0
  189.2870  176.6190  143.7030 C   0  0  0  0  0  3  0  0  0  0  0  0
  192.4960  177.4930  141.4220 Cl  0  0  0  0  0  0  0  0  0  0  0  0
  189.2620  177.6620  144.6420 C   0  0  0  0  0  0  0  0  0  0  0  0
  190.2550  178.6550  144.5590 C   0  0  0  0  0  3  0  0  0  0  0  0
  191.2450  178.6020  143.5720 C   0  0  0  0  0  3  0  0  0  0  0  0
  191.2510  177.5610  142.6460 C   0  0  0  0  0  0  0  0  0  0  0  0
  181.2890  175.3370  137.8870 C   0  0  0  0  0  2  0  0  0  0  0  0
  181.6930  175.5720  136.4480 C   0  0  0  0  0  2  0  0  0  0  0  0
  180.9670  174.6660  135.5710 N   0  0  0  0  0  2  0  0  0  0  0  0
  181.5050  173.3280  135.7790 C   0  0  2  0  0  3  0  0  0  0  0  0
  184.9260  172.5320  136.3100 S   0  0  0  0  0  0  0  0  0  0  0  0
  182.9140  171.6140  134.7220 N   0  0  0  0  0  2  0  0  0  0  0  0
  183.9610  173.6550  135.3300 C   0  0  1  0  0  3  0  0  0  0  0  0
  184.7150  174.7270  134.3840 S   0  0  0  0  0  0  0  0  0  0  0  0
  183.7970  171.1880  135.8090 C   0  0  1  0  0  3  0  0  0  0  0  0
  182.6940  173.0520  134.8450 C   0  0  2  0  0  3  0  0  0  0  0  0
  185.4530  175.9090  135.5170 C   0  0  2  0  0  3  0  0  0  0  0  0
  186.9560  175.9180  135.3070 C   0  0  2  0  0  3  0  0  0  0  0  0
  186.3600  175.1740  136.4770 C   0  0  0  0  0  2  0  0  0  0  0  0
  187.5450  177.2320  135.8000 C   0  0  0  0  0  2  0  0  0  0  0  0
  189.1290  177.2090  137.7810 C   0  0  0  0  0  0  0  0  0  0  0  0
  188.8900  176.9880  136.4140 C   0  0  0  0  0  0  0  0  0  0  0  0
  190.3330  176.8830  138.3150 N   0  0  0  0  0  0  0  0  0  0  0  0
  188.0670  177.7570  138.6710 C   0  0  0  0  0  1  0  0  0  0  0  0
  191.1400  176.1250  136.1950 C   0  0  0  0  0  3  0  0  0  0  0  0
  191.3330  176.3490  137.5590 C   0  0  0  0  0  3  0  0  0  0  0  0
  189.9120  176.4490  135.6250 C   0  0  0  0  0  3  0  0  0  0  0  0
  185.1480  169.0720  135.0500 N   0  0  0  0  0  0  0  0  0  0  0  0
  184.5500  170.0040  135.3930 C   0  0  0  0  0  0  0  0  0  0  0  0
  180.4110  172.2950  135.5330 C   0  0  0  0  0  2  0  0  0  0  0  0
  180.1400  171.5330  136.8170 C   0  0  0  0  0  1  0  0  0  0  0  0
  3 34  1  6  0  0  0
  3  4  1  0  0  0  0
  4  2  2  0  0  0  0
  6  4  1  1  0  0  0
  6 13  1  0  0  0  0
  7  1  1  0  0  0  0
  7  8  1  0  0  0  0
  7  3  1  0  0  0  0
  8  5  1  6  0  0  0
  8  6  1  0  0  0  0
  9 12  2  0  0  0  0
 10 14  2  0  0  0  0
 12 11  1  0  0  0  0
 12 15  1  0  0  0  0
 13 10  1  1  0  0  0
 13  9  1  0  0  0  0
 14 16  1  0  0  0  0
 14 11  1  0  0  0  0
 16 18  2  0  0  0  0
 17 16  1  0  0  0  0
 18 19  1  0  0  0  0
 21 19  1  6  0  0  0
 21 23  1  0  0  0  0
 21 24  1  0  0  0  0
 22 20  1  1  0  0  0
 22 25  1  0  0  0  0
 23 22  1  0  0  0  0
 24 26  1  0  0  0  0
 26 25  1  0  0  0  0
 27 28  1  0  0  0  0
 28 30  2  0  0  0  0
 29 33  1  0  0  0  0
 30 23  1  0  0  0  0
 31 30  1  0  0  0  0
 32 31  2  0  0  0  0
 33 27  2  0  0  0  0
 33 32  1  0  0  0  0
 35 34  1  0  0  0  0
 36 37  1  0  0  0  0
 36 35  1  0  0  0  0
 37 57  1  6  0  0  0
 39 43  1  0  0  0  0
 39 42  1  0  0  0  0
 40 41  1  6  0  0  0
 40 38  1  0  0  0  0
 42 56  1  6  0  0  0
 42 38  1  0  0  0  0
 43 40  1  0  0  0  0
 43 37  1  1  0  0  0
 44 41  1  6  0  0  0
 44 46  1  0  0  0  0
 45 44  1  0  0  0  0
 45 47  1  1  0  0  0
 45 46  1  0  0  0  0
 47 49  1  0  0  0  0
 48 50  1  0  0  0  0
 48 51  1  0  0  0  0
 49 48  2  0  0  0  0
 52 53  1  0  0  0  0
 53 50  2  0  0  0  0
 54 52  2  0  0  0  0
 54 49  1  0  0  0  0
 55 56  3  0  0  0  0
 57 58  1  0  0  0  0
M  END
>  <MODEL>
1

>  <REMARK>
 VINA RESULT:      -7.7      0.000      0.000
  Name = 
  15 active torsions:
  status: ('A' for Active; 'I' for Inactive)
    1  A    between atoms: C_2  and  C_25
    2  A    between atoms: C_5  and  C_7
    3  A    between atoms: C_5  and  N_8
    4  A    between atoms: C_7  and  C_22
    5  A    between atoms: N_8  and  C_15
    6  A    between atoms: C_9  and  O_39
    7  A    between atoms: N_12  and  C_49
    8  A    between atoms: C_14  and  C_15
    9  A    between atoms: C_15  and  C_56
   10  A    between atoms: C_17  and  C_46
   11  A    between atoms: C_18  and  S_43
   12  A    between atoms: C_25  and  C_28
   13  A    between atoms: N_35  and  O_39
   14  A    between atoms: C_40  and  C_45
   15  A    between atoms: C_47  and  C_54
                            x       y       z     vdW  Elec       q    Type
                         _______ _______ _______ _____ _____    ______ ____

>  <TORSDO>
F 15

$$$$
=
 OpenBabel10232409593D

 58 64  0  0  1  0  0  0  0  0999 V2000
  190.4320  175.7860  142.6280 C   0  0  0  0  0  1  0  0  0  0  0  0
  187.1760  178.1480  140.7370 C   0  0  0  0  0  2  0  0  0  0  0  0
  189.4730  177.2510  141.0700 C   0  0  2  0  0  3  0  0  0  0  0  0
  188.2510  177.9670  141.5100 C   0  0  0  0  0  0  0  0  0  0  0  0
  190.5850  179.1090  143.7280 C   0  0  0  0  0  1  0  0  0  0  0  0
  188.3360  178.3890  142.9230 C   0  0  2  0  0  3  0  0  0  0  0  0
  190.3610  177.1820  142.2320 N   0  0  0  0  0  0  0  0  0  0  0  0
  189.7270  177.9130  143.3420 C   0  0  1  0  0  3  0  0  0  0  0  0
  187.3490  178.1090  145.1950 N   0  0  0  0  0  0  0  0  0  0  0  0
  185.8680  178.0070  143.1910 C   0  0  0  0  0  3  0  0  0  0  0  0
  185.0130  178.3900  145.3900 N   0  0  0  0  0  2  0  0  0  0  0  0
  186.3290  178.3760  145.9470 C   0  0  0  0  0  0  0  0  0  0  0  0
  187.2330  177.7410  143.7750 C   0  0  1  0  0  3  0  0  0  0  0  0
  184.8150  178.2530  143.9790 C   0  0  0  0  0  0  0  0  0  0  0  0
  186.5300  178.6900  147.3890 C   0  0  0  0  0  1  0  0  0  0  0  0
  183.4680  178.4390  143.4090 C   0  0  0  0  0  0  0  0  0  0  0  0
  182.4010  179.1590  144.1810 C   0  0  0  0  0  1  0  0  0  0  0  0
  183.2240  178.0020  142.2110 N   0  0  0  0  0  0  0  0  0  0  0  0
  181.9950  178.1410  141.6070 O   0  0  0  0  0  0  0  0  0  0  0  0
  182.7250  181.0070  138.3810 C   0  0  0  0  0  1  0  0  0  0  0  0
  181.7560  179.2480  140.7550 C   0  0  1  0  0  3  0  0  0  0  0  0
  181.5620  180.0220  138.3910 C   0  0  1  0  0  3  0  0  0  0  0  0
  181.8280  178.9140  139.3180 N   0  0  0  0  0  0  0  0  0  0  0  0
  180.3880  179.8310  141.0670 C   0  0  0  0  0  2  0  0  0  0  0  0
  180.2380  180.7120  138.7310 C   0  0  0  0  0  2  0  0  0  0  0  0
  180.1530  181.0700  140.2130 C   0  0  0  0  0  2  0  0  0  0  0  0
  181.8180  175.3780  137.9940 C   0  0  0  0  0  3  0  0  0  0  0  0
  181.3710  176.5960  138.5190 C   0  0  0  0  0  3  0  0  0  0  0  0
  183.7430  173.6700  137.0770 Cl  0  0  0  0  0  0  0  0  0  0  0  0
  182.2670  177.6470  138.7680 C   0  0  0  0  0  0  0  0  0  0  0  0
  183.6280  177.4430  138.4760 C   0  0  0  0  0  3  0  0  0  0  0  0
  184.0790  176.2250  137.9590 C   0  0  0  0  0  3  0  0  0  0  0  0
  183.1730  175.1950  137.7140 C   0  0  0  0  0  0  0  0  0  0  0  0
  190.1610  178.0260  139.9550 C   0  0  0  0  0  2  0  0  0  0  0  0
  189.2910  178.0180  138.7170 C   0  0  0  0  0  2  0  0  0  0  0  0
  189.2940  176.6950  138.1120 N   0  0  0  0  0  2  0  0  0  0  0  0
  188.2980  176.6940  137.0490 C   0  0  2  0  0  3  0  0  0  0  0  0
  189.0420  173.2340  136.7350 S   0  0  0  0  0  0  0  0  0  0  0  0
  187.5810  175.0680  135.3510 N   0  0  0  0  0  2  0  0  0  0  0  0
  189.7530  174.7920  136.2680 C   0  0  1  0  0  3  0  0  0  0  0  0
  191.1810  174.8140  135.5120 S   0  0  0  0  0  0  0  0  0  0  0  0
  187.4310  173.8290  136.1140 C   0  0  1  0  0  3  0  0  0  0  0  0
  188.7310  175.7970  135.8780 C   0  0  2  0  0  3  0  0  0  0  0  0
  192.3750  174.3260  136.7610 C   0  0  2  0  0  3  0  0  0  0  0  0
  193.7700  174.4120  136.1690 C   0  0  2  0  0  3  0  0  0  0  0  0
  193.0860  173.0720  136.3040 C   0  0  0  0  0  2  0  0  0  0  0  0
  194.8010  174.5580  137.2770 C   0  0  0  0  0  2  0  0  0  0  0  0
  196.9420  173.2480  136.9070 C   0  0  0  0  0  0  0  0  0  0  0  0
  196.1820  174.4130  136.7110 C   0  0  0  0  0  0  0  0  0  0  0  0
  198.1470  173.1190  136.2960 N   0  0  0  0  0  0  0  0  0  0  0  0
  196.4310  172.1260  137.7450 C   0  0  0  0  0  1  0  0  0  0  0  0
  197.9340  175.2750  135.2820 C   0  0  0  0  0  3  0  0  0  0  0  0
  198.6530  174.0970  135.4940 C   0  0  0  0  0  3  0  0  0  0  0  0
  196.6940  175.4290  135.8970 C   0  0  0  0  0  3  0  0  0  0  0  0
  186.2760  172.0190  134.6070 N   0  0  0  0  0  0  0  0  0  0  0  0
  186.7890  172.8140  135.2790 C   0  0  0  0  0  0  0  0  0  0  0  0
  188.0840  178.1180  136.5500 C   0  0  0  0  0  2  0  0  0  0  0  0
  186.5970  178.4190  136.5090 C   0  0  0  0  0  1  0  0  0  0  0  0
  2  4  2  0  0  0  0
  3 34  1  6  0  0  0
  3  4  1  0  0  0  0
  3  7  1  0  0  0  0
  6  4  1  6  0  0  0
  6  8  1  0  0  0  0
  6 13  1  0  0  0  0
  7  1  1  0  0  0  0
  7  8  1  0  0  0  0
  8  5  1  6  0  0  0
  9 12  2  0  0  0  0
 10 14  2  0  0  0  0
 11 12  1  0  0  0  0
 12 15  1  0  0  0  0
 13 10  1  6  0  0  0
 13  9  1  0  0  0  0
 14 11  1  0  0  0  0
 16 14  1  0  0  0  0
 16 17  1  0  0  0  0
 18 16  2  0  0  0  0
 19 18  1  0  0  0  0
 21 24  1  0  0  0  0
 21 19  1  1  0  0  0
 22 20  1  1  0  0  0
 22 25  1  0  0  0  0
 22 23  1  0  0  0  0
 23 21  1  0  0  0  0
 25 26  1  0  0  0  0
 26 24  1  0  0  0  0
 27 28  1  0  0  0  0
 28 30  2  0  0  0  0
 29 33  1  0  0  0  0
 30 23  1  0  0  0  0
 31 30  1  0  0  0  0
 32 31  2  0  0  0  0
 33 32  1  0  0  0  0
 33 27  2  0  0  0  0
 35 34  1  0  0  0  0
 36 35  1  0  0  0  0
 37 57  1  6  0  0  0
 37 36  1  0  0  0  0
 39 43  1  0  0  0  0
 39 42  1  0  0  0  0
 40 41  1  6  0  0  0
 40 38  1  0  0  0  0
 42 56  1  6  0  0  0
 42 38  1  0  0  0  0
 43 40  1  0  0  0  0
 43 37  1  1  0  0  0
 44 41  1  6  0  0  0
 45 46  1  0  0  0  0
 45 44  1  0  0  0  0
 45 47  1  1  0  0  0
 46 44  1  0  0  0  0
 48 51  1  0  0  0  0
 49 48  1  0  0  0  0
 49 47  1  0  0  0  0
 50 48  2  0  0  0  0
 52 53  2  0  0  0  0
 52 54  1  0  0  0  0
 53 50  1  0  0  0  0
 54 49  2  0  0  0  0
 55 56  3  0  0  0  0
 58 57  1  0  0  0  0
M  END
>  <MODEL>
2

>  <REMARK>
 VINA RESULT:      -7.1      3.529      7.906
  Name = 
  15 active torsions:
  status: ('A' for Active; 'I' for Inactive)
    1  A    between atoms: C_2  and  C_25
    2  A    between atoms: C_5  and  C_7
    3  A    between atoms: C_5  and  N_8
    4  A    between atoms: C_7  and  C_22
    5  A    between atoms: N_8  and  C_15
    6  A    between atoms: C_9  and  O_39
    7  A    between atoms: N_12  and  C_49
    8  A    between atoms: C_14  and  C_15
    9  A    between atoms: C_15  and  C_56
   10  A    between atoms: C_17  and  C_46
   11  A    between atoms: C_18  and  S_43
   12  A    between atoms: C_25  and  C_28
   13  A    between atoms: N_35  and  O_39
   14  A    between atoms: C_40  and  C_45
   15  A    between atoms: C_47  and  C_54
                            x       y       z     vdW  Elec       q    Type
                         _______ _______ _______ _____ _____    ______ ____

>  <TORSDO>
F 15

$$$$
=
 OpenBabel10232409593D

 58 64  0  0  1  0  0  0  0  0999 V2000
  191.6940  175.7590  143.6170 C   0  0  0  0  0  1  0  0  0  0  0  0
  189.5090  177.3570  140.0910 C   0  0  0  0  0  2  0  0  0  0  0  0
  191.4580  176.8340  141.5480 C   0  0  2  0  0  3  0  0  0  0  0  0
  190.1320  177.4390  141.2710 C   0  0  0  0  0  0  0  0  0  0  0  0
  191.1630  179.2000  144.0100 C   0  0  0  0  0  1  0  0  0  0  0  0
  189.5540  178.0750  142.4720 C   0  0  2  0  0  3  0  0  0  0  0  0
  191.7350  177.0580  142.9680 N   0  0  0  0  0  0  0  0  0  0  0  0
  190.6330  177.8570  143.5320 C   0  0  1  0  0  3  0  0  0  0  0  0
  187.9490  177.5710  144.3110 N   0  0  0  0  0  0  0  0  0  0  0  0
  187.0950  177.8960  141.9910 C   0  0  0  0  0  3  0  0  0  0  0  0
  185.6710  178.0420  143.9050 N   0  0  0  0  0  2  0  0  0  0  0  0
  186.7730  177.8240  144.7890 C   0  0  0  0  0  0  0  0  0  0  0  0
  188.2220  177.4210  142.8730 C   0  0  1  0  0  3  0  0  0  0  0  0
  185.8750  178.1270  142.4900 C   0  0  0  0  0  0  0  0  0  0  0  0
  186.5710  177.9100  146.2630 C   0  0  0  0  0  1  0  0  0  0  0  0
  184.7580  178.5190  141.6130 C   0  0  0  0  0  0  0  0  0  0  0  0
  183.5340  179.1800  142.1780 C   0  0  0  0  0  1  0  0  0  0  0  0
  184.8590  178.3190  140.3350 N   0  0  0  0  0  0  0  0  0  0  0  0
  183.8620  178.6620  139.4490 O   0  0  0  0  0  0  0  0  0  0  0  0
  182.3520  176.2940  136.0920 C   0  0  0  0  0  1  0  0  0  0  0  0
  183.1390  177.6420  138.7810 C   0  0  1  0  0  3  0  0  0  0  0  0
  183.2710  175.7390  137.1730 C   0  0  1  0  0  3  0  0  0  0  0  0
  183.9690  176.8270  137.8710 N   0  0  0  0  0  0  0  0  0  0  0  0
  182.4860  176.7370  139.8130 C   0  0  0  0  0  2  0  0  0  0  0  0
  182.5080  174.8550  138.1650 C   0  0  0  0  0  2  0  0  0  0  0  0
  181.6400  175.6850  139.1080 C   0  0  0  0  0  2  0  0  0  0  0  0
  187.1160  178.6240  136.8150 C   0  0  0  0  0  3  0  0  0  0  0  0
  185.7820  178.3850  137.1610 C   0  0  0  0  0  3  0  0  0  0  0  0
  189.7010  177.8580  136.3670 Cl  0  0  0  0  0  0  0  0  0  0  0  0
  185.3470  177.0990  137.5170 C   0  0  0  0  0  0  0  0  0  0  0  0
  186.2890  176.0550  137.5150 C   0  0  0  0  0  3  0  0  0  0  0  0
  187.6220  176.2880  137.1630 C   0  0  0  0  0  3  0  0  0  0  0  0
  188.0360  177.5730  136.8170 C   0  0  0  0  0  0  0  0  0  0  0  0
  192.5310  177.5170  140.7110 C   0  0  0  0  0  2  0  0  0  0  0  0
  192.6090  176.8610  139.3490 C   0  0  0  0  0  2  0  0  0  0  0  0
  193.9770  176.4500  139.0710 N   0  0  0  0  0  2  0  0  0  0  0  0
  193.9180  175.3230  138.1500 C   0  0  2  0  0  3  0  0  0  0  0  0
  196.8110  173.8430  136.7130 S   0  0  0  0  0  0  0  0  0  0  0  0
  196.0820  174.7570  139.1710 N   0  0  0  0  0  2  0  0  0  0  0  0
  195.2840  173.3250  137.4550 C   0  0  1  0  0  3  0  0  0  0  0  0
  194.9390  171.7470  137.5330 S   0  0  0  0  0  0  0  0  0  0  0  0
  197.0390  175.0140  138.0950 C   0  0  1  0  0  3  0  0  0  0  0  0
  194.8680  174.1960  138.5840 C   0  0  2  0  0  3  0  0  0  0  0  0
  194.6030  171.2610  135.8370 C   0  0  2  0  0  3  0  0  0  0  0  0
  193.2730  170.5320  135.7890 C   0  0  2  0  0  3  0  0  0  0  0  0
  194.5660  169.7530  135.7520 C   0  0  0  0  0  2  0  0  0  0  0  0
  192.6910  170.5970  134.3850 C   0  0  0  0  0  2  0  0  0  0  0  0
  190.1840  170.2210  134.4540 C   0  0  0  0  0  0  0  0  0  0  0  0
  191.2800  171.0990  134.4420 C   0  0  0  0  0  0  0  0  0  0  0  0
  188.9270  170.7130  134.6050 N   0  0  0  0  0  0  0  0  0  0  0  0
  190.3740  168.7460  134.3460 C   0  0  0  0  0  1  0  0  0  0  0  0
  189.7520  172.9550  134.7200 C   0  0  0  0  0  3  0  0  0  0  0  0
  188.6920  172.0480  134.7390 C   0  0  0  0  0  3  0  0  0  0  0  0
  191.0500  172.4730  134.5700 C   0  0  0  0  0  3  0  0  0  0  0  0
  199.4760  174.8690  139.0520 N   0  0  0  0  0  0  0  0  0  0  0  0
  198.4010  174.9370  138.6220 C   0  0  0  0  0  0  0  0  0  0  0  0
  194.2900  175.7910  136.7480 C   0  0  0  0  0  2  0  0  0  0  0  0
  193.2190  175.3460  135.7680 C   0  0  0  0  0  1  0  0  0  0  0  0
  2  4  2  0  0  0  0
  3 34  1  6  0  0  0
  3  7  1  0  0  0  0
  4  3  1  0  0  0  0
  6  4  1  6  0  0  0
  6 13  1  0  0  0  0
  6  8  1  0  0  0  0
  7  8  1  0  0  0  0
  7  1  1  0  0  0  0
  8  5  1  6  0  0  0
  9 12  2  0  0  0  0
 10 14  2  0  0  0  0
 11 12  1  0  0  0  0
 12 15  1  0  0  0  0
 13 10  1  6  0  0  0
 13  9  1  0  0  0  0
 14 11  1  0  0  0  0
 16 17  1  0  0  0  0
 16 14  1  0  0  0  0
 18 16  2  0  0  0  0
 19 18  1  0  0  0  0
 21 19  1  1  0  0  0
 21 24  1  0  0  0  0
 22 20  1  6  0  0  0
 22 23  1  0  0  0  0
 22 25  1  0  0  0  0
 23 21  1  0  0  0  0
 25 26  1  0  0  0  0
 26 24  1  0  0  0  0
 27 33  2  0  0  0  0
 27 28  1  0  0  0  0
 28 30  2  0  0  0  0
 29 33  1  0  0  0  0
 30 23  1  0  0  0  0
 31 30  1  0  0  0  0
 32 31  2  0  0  0  0
 33 32  1  0  0  0  0
 35 34  1  0  0  0  0
 36 35  1  0  0  0  0
 37 57  1  6  0  0  0
 37 36  1  0  0  0  0
 38 40  1  0  0  0  0
 38 42  1  0  0  0  0
 40 41  1  1  0  0  0
 40 43  1  0  0  0  0
 42 56  1  1  0  0  0
 42 39  1  0  0  0  0
 43 37  1  6  0  0  0
 43 39  1  0  0  0  0
 44 41  1  1  0  0  0
 45 47  1  6  0  0  0
 45 44  1  0  0  0  0
 46 45  1  0  0  0  0
 46 44  1  0  0  0  0
 47 49  1  0  0  0  0
 48 50  1  0  0  0  0
 49 48  2  0  0  0  0
 49 54  1  0  0  0  0
 50 53  2  0  0  0  0
 51 48  1  0  0  0  0
 52 53  1  0  0  0  0
 54 52  2  0  0  0  0
 56 55  3  0  0  0  0
 58 57  1  0  0  0  0
M  END
>  <MODEL>
3

>  <REMARK>
 VINA RESULT:      -6.5      4.203      9.602
  Name = 
  15 active torsions:
  status: ('A' for Active; 'I' for Inactive)
    1  A    between atoms: C_2  and  C_25
    2  A    between atoms: C_5  and  C_7
    3  A    between atoms: C_5  and  N_8
    4  A    between atoms: C_7  and  C_22
    5  A    between atoms: N_8  and  C_15
    6  A    between atoms: C_9  and  O_39
    7  A    between atoms: N_12  and  C_49
    8  A    between atoms: C_14  and  C_15
    9  A    between atoms: C_15  and  C_56
   10  A    between atoms: C_17  and  C_46
   11  A    between atoms: C_18  and  S_43
   12  A    between atoms: C_25  and  C_28
   13  A    between atoms: N_35  and  O_39
   14  A    between atoms: C_40  and  C_45
   15  A    between atoms: C_47  and  C_54
                            x       y       z     vdW  Elec       q    Type
                         _______ _______ _______ _____ _____    ______ ____

>  <TORSDO>
F 15

$$$$
=
 OpenBabel10232409593D

 58 64  0  0  1  0  0  0  0  0999 V2000
  191.3990  176.1370  144.5660 C   0  0  0  0  0  1  0  0  0  0  0  0
  189.4380  176.8070  140.6330 C   0  0  0  0  0  2  0  0  0  0  0  0
  191.2910  176.6880  142.2900 C   0  0  2  0  0  3  0  0  0  0  0  0
  189.9810  177.1800  141.7960 C   0  0  0  0  0  0  0  0  0  0  0  0
  190.8150  179.5600  144.1000 C   0  0  0  0  0  1  0  0  0  0  0  0
  189.3190  178.0670  142.7750 C   0  0  2  0  0  3  0  0  0  0  0  0
  191.4710  177.2470  143.6320 N   0  0  0  0  0  0  0  0  0  0  0  0
  190.3290  178.1300  143.9210 C   0  0  1  0  0  3  0  0  0  0  0  0
  187.7670  177.6660  144.6830 N   0  0  0  0  0  0  0  0  0  0  0  0
  186.8360  178.0330  142.3990 C   0  0  0  0  0  3  0  0  0  0  0  0
  185.5070  178.2700  144.3700 N   0  0  0  0  0  2  0  0  0  0  0  0
  186.6290  177.9900  145.2090 C   0  0  0  0  0  0  0  0  0  0  0  0
  187.9690  177.4950  143.2360 C   0  0  1  0  0  3  0  0  0  0  0  0
  185.6550  178.3380  142.9480 C   0  0  0  0  0  0  0  0  0  0  0  0
  186.4960  178.0930  146.6890 C   0  0  0  0  0  1  0  0  0  0  0  0
  184.5260  178.7930  142.1160 C   0  0  0  0  0  0  0  0  0  0  0  0
  183.3340  179.4610  142.7390 C   0  0  0  0  0  1  0  0  0  0  0  0
  184.5900  178.6420  140.8290 N   0  0  0  0  0  0  0  0  0  0  0  0
  183.5810  179.0450  139.9840 O   0  0  0  0  0  0  0  0  0  0  0  0
  181.0050  176.9100  137.1620 C   0  0  0  0  0  1  0  0  0  0  0  0
  182.6260  178.0990  139.5340 C   0  0  1  0  0  3  0  0  0  0  0  0
  182.1540  176.2570  137.9200 C   0  0  1  0  0  3  0  0  0  0  0  0
  183.0990  177.2710  138.4070 N   0  0  0  0  0  0  0  0  0  0  0  0
  182.2350  177.1960  140.6930 C   0  0  0  0  0  2  0  0  0  0  0  0
  181.6490  175.3830  139.0720 C   0  0  0  0  0  2  0  0  0  0  0  0
  181.1500  176.2270  140.2430 C   0  0  0  0  0  2  0  0  0  0  0  0
  186.6460  178.2300  137.5430 C   0  0  0  0  0  3  0  0  0  0  0  0
  185.4670  178.0390  138.2710 C   0  0  0  0  0  3  0  0  0  0  0  0
  188.1660  178.1080  135.2750 Cl  0  0  0  0  0  0  0  0  0  0  0  0
  184.3320  177.4700  137.6740 C   0  0  0  0  0  0  0  0  0  0  0  0
  184.4110  177.0970  136.3200 C   0  0  0  0  0  3  0  0  0  0  0  0
  185.5860  177.2920  135.5860 C   0  0  0  0  0  3  0  0  0  0  0  0
  186.7040  177.8550  136.1980 C   0  0  0  0  0  0  0  0  0  0  0  0
  192.4110  177.1800  141.3840 C   0  0  0  0  0  2  0  0  0  0  0  0
  191.8570  177.4810  140.0080 C   0  0  0  0  0  2  0  0  0  0  0  0
  192.7200  176.9060  138.9870 N   0  0  0  0  0  2  0  0  0  0  0  0
  191.9570  175.8740  138.2980 C   0  0  2  0  0  3  0  0  0  0  0  0
  193.1650  175.6120  134.9670 S   0  0  0  0  0  0  0  0  0  0  0  0
  194.2300  175.4390  137.4670 N   0  0  0  0  0  2  0  0  0  0  0  0
  192.4250  174.5670  136.1960 C   0  0  1  0  0  3  0  0  0  0  0  0
  192.0960  173.0270  135.8300 S   0  0  0  0  0  0  0  0  0  0  0  0
  194.3020  176.2460  136.2480 C   0  0  1  0  0  3  0  0  0  0  0  0
  192.8830  174.8840  137.5730 C   0  0  2  0  0  3  0  0  0  0  0  0
  190.7270  173.1080  134.6710 C   0  0  2  0  0  3  0  0  0  0  0  0
  189.4780  172.5740  135.3480 C   0  0  2  0  0  3  0  0  0  0  0  0
  190.2430  171.7060  134.3780 C   0  0  0  0  0  2  0  0  0  0  0  0
  188.2360  173.1180  134.6570 C   0  0  0  0  0  2  0  0  0  0  0  0
  186.2220  172.7490  136.1550 C   0  0  0  0  0  0  0  0  0  0  0  0
  187.0320  172.3330  135.0840 C   0  0  0  0  0  0  0  0  0  0  0  0
  185.0870  172.0630  136.4460 N   0  0  0  0  0  0  0  0  0  0  0  0
  186.5630  173.9580  136.9570 C   0  0  0  0  0  1  0  0  0  0  0  0
  185.4890  170.5170  134.6670 C   0  0  0  0  0  3  0  0  0  0  0  0
  184.7070  170.9680  135.7300 C   0  0  0  0  0  3  0  0  0  0  0  0
  186.6570  171.2060  134.3470 C   0  0  0  0  0  3  0  0  0  0  0  0
  196.7740  176.2750  135.3740 N   0  0  0  0  0  0  0  0  0  0  0  0
  195.6790  176.2680  135.7560 C   0  0  0  0  0  0  0  0  0  0  0  0
  191.0150  176.5220  137.2900 C   0  0  0  0  0  2  0  0  0  0  0  0
  189.6410  175.8880  137.4040 C   0  0  0  0  0  1  0  0  0  0  0  0
  2  4  2  0  0  0  0
  3 34  1  6  0  0  0
  3  7  1  0  0  0  0
  4  3  1  0  0  0  0
  6  4  1  6  0  0  0
  6 13  1  0  0  0  0
  6  8  1  0  0  0  0
  7  8  1  0  0  0  0
  7  1  1  0  0  0  0
  8  5  1  6  0  0  0
  9 12  2  0  0  0  0
 10 14  2  0  0  0  0
 11 12  1  0  0  0  0
 12 15  1  0  0  0  0
 13 10  1  6  0  0  0
 13  9  1  0  0  0  0
 14 11  1  0  0  0  0
 16 17  1  0  0  0  0
 16 14  1  0  0  0  0
 18 16  2  0  0  0  0
 19 18  1  0  0  0  0
 21 19  1  1  0  0  0
 21 24  1  0  0  0  0
 22 20  1  1  0  0  0
 22 23  1  0  0  0  0
 22 25  1  0  0  0  0
 23 21  1  0  0  0  0
 25 26  1  0  0  0  0
 26 24  1  0  0  0  0
 27 28  1  0  0  0  0
 29 33  1  0  0  0  0
 30 28  2  0  0  0  0
 30 23  1  0  0  0  0
 31 30  1  0  0  0  0
 32 33  1  0  0  0  0
 32 31  2  0  0  0  0
 33 27  2  0  0  0  0
 35 34  1  0  0  0  0
 36 35  1  0  0  0  0
 37 57  1  6  0  0  0
 37 36  1  0  0  0  0
 38 40  1  0  0  0  0
 38 42  1  0  0  0  0
 39 43  1  0  0  0  0
 40 41  1  6  0  0  0
 40 43  1  0  0  0  0
 42 56  1  6  0  0  0
 42 39  1  0  0  0  0
 43 37  1  6  0  0  0
 44 45  1  0  0  0  0
 44 41  1  1  0  0  0
 45 47  1  6  0  0  0
 46 44  1  0  0  0  0
 46 45  1  0  0  0  0
 47 49  1  0  0  0  0
 48 50  1  0  0  0  0
 48 51  1  0  0  0  0
 49 48  2  0  0  0  0
 52 53  1  0  0  0  0
 53 50  2  0  0  0  0
 54 52  2  0  0  0  0
 54 49  1  0  0  0  0
 55 56  3  0  0  0  0
 57 58  1  0  0  0  0
M  END
>  <MODEL>
4

>  <REMARK>
 VINA RESULT:      -6.3      2.956      8.725
  Name = 
  15 active torsions:
  status: ('A' for Active; 'I' for Inactive)
    1  A    between atoms: C_2  and  C_25
    2  A    between atoms: C_5  and  C_7
    3  A    between atoms: C_5  and  N_8
    4  A    between atoms: C_7  and  C_22
    5  A    between atoms: N_8  and  C_15
    6  A    between atoms: C_9  and  O_39
    7  A    between atoms: N_12  and  C_49
    8  A    between atoms: C_14  and  C_15
    9  A    between atoms: C_15  and  C_56
   10  A    between atoms: C_17  and  C_46
   11  A    between atoms: C_18  and  S_43
   12  A    between atoms: C_25  and  C_28
   13  A    between atoms: N_35  and  O_39
   14  A    between atoms: C_40  and  C_45
   15  A    between atoms: C_47  and  C_54
                            x       y       z     vdW  Elec       q    Type
                         _______ _______ _______ _____ _____    ______ ____

>  <TORSDO>
F 15

$$$$
=
 OpenBabel10232409593D

 58 64  0  0  1  0  0  0  0  0999 V2000
  191.5980  175.8310  143.5850 C   0  0  0  0  0  1  0  0  0  0  0  0
  189.3500  177.1590  139.9870 C   0  0  0  0  0  2  0  0  0  0  0  0
  191.3230  176.7590  141.4500 C   0  0  2  0  0  3  0  0  0  0  0  0
  189.9870  177.3280  141.1500 C   0  0  0  0  0  0  0  0  0  0  0  0
  191.0310  179.2840  143.7490 C   0  0  0  0  0  1  0  0  0  0  0  0
  189.4160  178.0390  142.3130 C   0  0  2  0  0  3  0  0  0  0  0  0
  191.6150  177.0830  142.8480 N   0  0  0  0  0  0  0  0  0  0  0  0
  190.5110  177.9060  143.3700 C   0  0  1  0  0  3  0  0  0  0  0  0
  187.9470  177.4500  144.2380 N   0  0  0  0  0  0  0  0  0  0  0  0
  186.9210  177.9740  142.0270 C   0  0  0  0  0  3  0  0  0  0  0  0
  185.6640  178.0220  144.0580 N   0  0  0  0  0  2  0  0  0  0  0  0
  186.8240  177.7040  144.8300 C   0  0  0  0  0  0  0  0  0  0  0  0
  188.0970  177.3990  142.7760 C   0  0  1  0  0  3  0  0  0  0  0  0
  185.7560  178.2060  142.6410 C   0  0  0  0  0  0  0  0  0  0  0  0
  186.7460  177.6860  146.3170 C   0  0  0  0  0  1  0  0  0  0  0  0
  184.5860  178.6980  141.8910 C   0  0  0  0  0  0  0  0  0  0  0  0
  183.4330  179.3430  142.6040 C   0  0  0  0  0  1  0  0  0  0  0  0
  184.5800  178.5990  140.5970 N   0  0  0  0  0  0  0  0  0  0  0  0
  183.5290  179.0390  139.8250 O   0  0  0  0  0  0  0  0  0  0  0  0
  179.9820  177.1950  138.0430 C   0  0  0  0  0  1  0  0  0  0  0  0
  182.7700  178.1040  139.0780 C   0  0  1  0  0  3  0  0  0  0  0  0
  181.1220  177.7960  137.2300 C   0  0  1  0  0  3  0  0  0  0  0  0
  181.9110  178.7250  138.0500 N   0  0  0  0  0  0  0  0  0  0  0  0
  183.7130  177.1140  138.4140 C   0  0  0  0  0  2  0  0  0  0  0  0
  182.0160  176.7120  136.6200 C   0  0  0  0  0  2  0  0  0  0  0  0
  182.9050  176.0550  137.6740 C   0  0  0  0  0  2  0  0  0  0  0  0
  182.1410  182.4690  138.4800 C   0  0  0  0  0  3  0  0  0  0  0  0
  182.3780  181.1010  138.6490 C   0  0  0  0  0  3  0  0  0  0  0  0
  180.8820  184.6100  137.3410 Cl  0  0  0  0  0  0  0  0  0  0  0  0
  181.6860  180.1470  137.8870 C   0  0  0  0  0  0  0  0  0  0  0  0
  180.7450  180.6050  136.9470 C   0  0  0  0  0  3  0  0  0  0  0  0
  180.4990  181.9720  136.7810 C   0  0  0  0  0  3  0  0  0  0  0  0
  181.2000  182.9030  137.5440 C   0  0  0  0  0  0  0  0  0  0  0  0
  192.3770  177.3950  140.5540 C   0  0  0  0  0  2  0  0  0  0  0  0
  192.3990  176.6900  139.2150 C   0  0  0  0  0  2  0  0  0  0  0  0
  193.7730  176.4620  138.7940 N   0  0  0  0  0  2  0  0  0  0  0  0
  193.7560  175.4110  137.7860 C   0  0  2  0  0  3  0  0  0  0  0  0
  196.4700  173.7770  136.1770 S   0  0  0  0  0  0  0  0  0  0  0  0
  195.9590  174.7630  138.6630 N   0  0  0  0  0  2  0  0  0  0  0  0
  194.9790  173.3410  137.0360 C   0  0  1  0  0  3  0  0  0  0  0  0
  194.5700  171.7820  137.1680 S   0  0  0  0  0  0  0  0  0  0  0  0
  196.8480  174.9580  137.5170 C   0  0  1  0  0  3  0  0  0  0  0  0
  194.6830  174.2480  138.1740 C   0  0  2  0  0  3  0  0  0  0  0  0
  194.0930  171.2850  135.5100 C   0  0  2  0  0  3  0  0  0  0  0  0
  193.1790  170.0780  135.6030 C   0  0  2  0  0  3  0  0  0  0  0  0
  194.6320  169.9000  135.2340 C   0  0  0  0  0  2  0  0  0  0  0  0
  192.3290  169.9670  134.3460 C   0  0  0  0  0  2  0  0  0  0  0  0
  189.9270  170.6620  134.7710 C   0  0  0  0  0  0  0  0  0  0  0  0
  190.9090  169.6590  134.7170 C   0  0  0  0  0  0  0  0  0  0  0  0
  188.6340  170.3260  135.0150 N   0  0  0  0  0  0  0  0  0  0  0  0
  190.2680  172.0910  134.5230 C   0  0  0  0  0  1  0  0  0  0  0  0
  189.2030  168.0090  135.1850 C   0  0  0  0  0  3  0  0  0  0  0  0
  188.2560  169.0330  135.2190 C   0  0  0  0  0  3  0  0  0  0  0  0
  190.5340  168.3290  134.9330 C   0  0  0  0  0  3  0  0  0  0  0  0
  199.3440  174.7120  138.2830 N   0  0  0  0  0  0  0  0  0  0  0  0
  198.2390  174.8280  137.9490 C   0  0  0  0  0  0  0  0  0  0  0  0
  194.1910  175.9840  136.4430 C   0  0  0  0  0  2  0  0  0  0  0  0
  192.9750  176.1640  135.5530 C   0  0  0  0  0  1  0  0  0  0  0  0
  2  4  2  0  0  0  0
  3 34  1  6  0  0  0
  3  7  1  0  0  0  0
  4  3  1  0  0  0  0
  6  4  1  6  0  0  0
  6 13  1  0  0  0  0
  6  8  1  0  0  0  0
  7  8  1  0  0  0  0
  7  1  1  0  0  0  0
  8  5  1  6  0  0  0
  9 12  2  0  0  0  0
 10 14  2  0  0  0  0
 11 12  1  0  0  0  0
 12 15  1  0  0  0  0
 13 10  1  6  0  0  0
 13  9  1  0  0  0  0
 14 11  1  0  0  0  0
 16 17  1  0  0  0  0
 16 14  1  0  0  0  0
 18 16  2  0  0  0  0
 19 18  1  0  0  0  0
 21 19  1  6  0  0  0
 22 20  1  1  0  0  0
 22 23  1  0  0  0  0
 23 21  1  0  0  0  0
 24 21  1  0  0  0  0
 25 22  1  0  0  0  0
 25 26  1  0  0  0  0
 26 24  1  0  0  0  0
 27 28  1  0  0  0  0
 29 33  1  0  0  0  0
 30 23  1  0  0  0  0
 30 28  2  0  0  0  0
 31 30  1  0  0  0  0
 32 31  2  0  0  0  0
 32 33  1  0  0  0  0
 33 27  2  0  0  0  0
 35 34  1  0  0  0  0
 36 35  1  0  0  0  0
 37 57  1  6  0  0  0
 37 36  1  0  0  0  0
 38 40  1  0  0  0  0
 38 42  1  0  0  0  0
 40 41  1  1  0  0  0
 40 43  1  0  0  0  0
 42 56  1  1  0  0  0
 42 39  1  0  0  0  0
 43 37  1  6  0  0  0
 43 39  1  0  0  0  0
 44 45  1  0  0  0  0
 44 41  1  1  0  0  0
 45 47  1  6  0  0  0
 46 44  1  0  0  0  0
 46 45  1  0  0  0  0
 47 49  1  0  0  0  0
 48 50  1  0  0  0  0
 49 48  2  0  0  0  0
 49 54  1  0  0  0  0
 50 53  2  0  0  0  0
 51 48  1  0  0  0  0
 52 53  1  0  0  0  0
 54 52  2  0  0  0  0
 56 55  3  0  0  0  0
 58 57  1  0  0  0  0
M  END
>  <MODEL>
5

>  <REMARK>
 VINA RESULT:      -6.2      4.575     10.200
  Name = 
  15 active torsions:
  status: ('A' for Active; 'I' for Inactive)
    1  A    between atoms: C_2  and  C_25
    2  A    between atoms: C_5  and  C_7
    3  A    between atoms: C_5  and  N_8
    4  A    between atoms: C_7  and  C_22
    5  A    between atoms: N_8  and  C_15
    6  A    between atoms: C_9  and  O_39
    7  A    between atoms: N_12  and  C_49
    8  A    between atoms: C_14  and  C_15
    9  A    between atoms: C_15  and  C_56
   10  A    between atoms: C_17  and  C_46
   11  A    between atoms: C_18  and  S_43
   12  A    between atoms: C_25  and  C_28
   13  A    between atoms: N_35  and  O_39
   14  A    between atoms: C_40  and  C_45
   15  A    between atoms: C_47  and  C_54
                            x       y       z     vdW  Elec       q    Type
                         _______ _______ _______ _____ _____    ______ ____

>  <TORSDO>
F 15

$$$$
=
 OpenBabel10232409593D

 58 64  0  0  1  0  0  0  0  0999 V2000
  186.7420  177.9650  138.9000 C   0  0  0  0  0  1  0  0  0  0  0  0
  190.4780  175.6150  138.3760 C   0  0  0  0  0  2  0  0  0  0  0  0
  188.9030  177.2270  139.4290 C   0  0  2  0  0  3  0  0  0  0  0  0
  189.7130  176.7080  138.3010 C   0  0  0  0  0  0  0  0  0  0  0  0
  189.1880  179.9520  137.3700 C   0  0  0  0  0  1  0  0  0  0  0  0
  189.5140  177.4970  137.0680 C   0  0  2  0  0  3  0  0  0  0  0  0
  188.1390  178.3640  138.9110 N   0  0  0  0  0  0  0  0  0  0  0  0
  188.5350  178.5850  137.5100 C   0  0  1  0  0  3  0  0  0  0  0  0
  189.5120  175.2850  135.9210 N   0  0  0  0  0  0  0  0  0  0  0  0
  187.4270  176.6530  135.9540 C   0  0  0  0  0  3  0  0  0  0  0  0
  187.4080  174.3120  135.4730 N   0  0  0  0  0  2  0  0  0  0  0  0
  188.8190  174.2180  135.6780 C   0  0  0  0  0  0  0  0  0  0  0  0
  188.9350  176.6380  135.9330 C   0  0  1  0  0  3  0  0  0  0  0  0
  186.7210  175.5520  135.6730 C   0  0  0  0  0  0  0  0  0  0  0  0
  189.4900  172.8900  135.6340 C   0  0  0  0  0  1  0  0  0  0  0  0
  185.2480  175.5880  135.6220 C   0  0  0  0  0  0  0  0  0  0  0  0
  184.4430  175.8720  136.8570 C   0  0  0  0  0  1  0  0  0  0  0  0
  184.6520  175.4040  134.4830 N   0  0  0  0  0  0  0  0  0  0  0  0
  183.2820  175.4280  134.3510 O   0  0  0  0  0  0  0  0  0  0  0  0
  181.1870  174.1970  137.9910 C   0  0  0  0  0  1  0  0  0  0  0  0
  182.4840  174.6170  135.1970 C   0  0  1  0  0  3  0  0  0  0  0  0
  180.4830  174.5390  136.6840 C   0  0  1  0  0  3  0  0  0  0  0  0
  181.3560  175.3410  135.8180 N   0  0  0  0  0  0  0  0  0  0  0  0
  181.9480  173.4400  134.3980 C   0  0  0  0  0  2  0  0  0  0  0  0
  179.9970  173.2820  135.9560 C   0  0  0  0  0  2  0  0  0  0  0  0
  181.1540  172.5190  135.3160 C   0  0  0  0  0  2  0  0  0  0  0  0
  181.1110  178.9840  136.7780 C   0  0  0  0  0  3  0  0  0  0  0  0
  181.3380  177.6060  136.8610 C   0  0  0  0  0  3  0  0  0  0  0  0
  180.3650  181.2640  135.4700 Cl  0  0  0  0  0  0  0  0  0  0  0  0
  181.1350  176.7710  135.7520 C   0  0  0  0  0  0  0  0  0  0  0  0
  180.6940  177.3580  134.5510 C   0  0  0  0  0  3  0  0  0  0  0  0
  180.4590  178.7340  134.4660 C   0  0  0  0  0  3  0  0  0  0  0  0
  180.6710  179.5470  135.5780 C   0  0  0  0  0  0  0  0  0  0  0  0
  189.8130  177.7030  140.5530 C   0  0  0  0  0  2  0  0  0  0  0  0
  189.0260  177.7940  141.8420 C   0  0  0  0  0  2  0  0  0  0  0  0
  189.8360  178.4140  142.8800 N   0  0  0  0  0  2  0  0  0  0  0  0
  190.1550  177.3860  143.8610 C   0  0  2  0  0  3  0  0  0  0  0  0
  189.5150  176.2440  147.1640 S   0  0  0  0  0  0  0  0  0  0  0  0
  191.5770  177.4590  145.8660 N   0  0  0  0  0  2  0  0  0  0  0  0
  189.2370  177.6990  146.1860 C   0  0  1  0  0  3  0  0  0  0  0  0
  188.4250  178.9410  146.8280 S   0  0  0  0  0  0  0  0  0  0  0  0
  191.2390  176.2180  146.5630 C   0  0  1  0  0  3  0  0  0  0  0  0
  190.3600  177.9920  145.2590 C   0  0  2  0  0  3  0  0  0  0  0  0
  186.7290  178.3660  146.9630 C   0  0  2  0  0  3  0  0  0  0  0  0
  185.8470  179.2280  146.0780 C   0  0  2  0  0  3  0  0  0  0  0  0
  185.8820  179.4620  147.5690 C   0  0  0  0  0  2  0  0  0  0  0  0
  184.5730  178.4780  145.7210 C   0  0  0  0  0  2  0  0  0  0  0  0
  183.1740  178.7310  143.6200 C   0  0  0  0  0  0  0  0  0  0  0  0
  184.4050  178.4380  144.2320 C   0  0  0  0  0  0  0  0  0  0  0  0
  183.0900  178.7790  142.2660 N   0  0  0  0  0  0  0  0  0  0  0  0
  181.9610  179.0330  144.4310 C   0  0  0  0  0  1  0  0  0  0  0  0
  185.4090  178.2370  142.0400 C   0  0  0  0  0  3  0  0  0  0  0  0
  184.1720  178.5430  141.4720 C   0  0  0  0  0  3  0  0  0  0  0  0
  185.5200  178.1850  143.4270 C   0  0  0  0  0  3  0  0  0  0  0  0
  192.9240  175.8440  148.5370 N   0  0  0  0  0  0  0  0  0  0  0  0
  192.1720  176.0080  147.6690 C   0  0  0  0  0  0  0  0  0  0  0  0
  191.4180  176.6470  143.4350 C   0  0  0  0  0  2  0  0  0  0  0  0
  191.0680  175.2120  143.0850 C   0  0  0  0  0  1  0  0  0  0  0  0
  1  7  1  0  0  0  0
  3 34  1  1  0  0  0
  4  2  2  0  0  0  0
  4  3  1  0  0  0  0
  6  8  1  0  0  0  0
  6  4  1  1  0  0  0
  7  3  1  0  0  0  0
  8  5  1  1  0  0  0
  8  7  1  0  0  0  0
  9 13  1  0  0  0  0
 11 14  1  0  0  0  0
 11 12  1  0  0  0  0
 12  9  2  0  0  0  0
 13 10  1  1  0  0  0
 13  6  1  0  0  0  0
 14 10  2  0  0  0  0
 15 12  1  0  0  0  0
 16 14  1  0  0  0  0
 16 17  1  0  0  0  0
 18 16  2  0  0  0  0
 19 18  1  0  0  0  0
 21 19  1  6  0  0  0
 21 23  1  0  0  0  0
 22 20  1  1  0  0  0
 23 22  1  0  0  0  0
 24 21  1  0  0  0  0
 24 26  1  0  0  0  0
 25 22  1  0  0  0  0
 26 25  1  0  0  0  0
 27 28  1  0  0  0  0
 29 33  1  0  0  0  0
 30 23  1  0  0  0  0
 30 28  2  0  0  0  0
 31 30  1  0  0  0  0
 32 31  2  0  0  0  0
 32 33  1  0  0  0  0
 33 27  2  0  0  0  0
 34 35  1  0  0  0  0
 35 36  1  0  0  0  0
 36 37  1  0  0  0  0
 37 57  1  6  0  0  0
 39 42  1  0  0  0  0
 40 41  1  1  0  0  0
 40 38  1  0  0  0  0
 42 38  1  0  0  0  0
 42 56  1  1  0  0  0
 43 37  1  6  0  0  0
 43 39  1  0  0  0  0
 43 40  1  0  0  0  0
 44 41  1  6  0  0  0
 44 46  1  0  0  0  0
 45 47  1  1  0  0  0
 45 44  1  0  0  0  0
 45 46  1  0  0  0  0
 48 49  1  0  0  0  0
 48 51  1  0  0  0  0
 49 47  1  0  0  0  0
 50 48  2  0  0  0  0
 52 54  1  0  0  0  0
 53 52  2  0  0  0  0
 53 50  1  0  0  0  0
 54 49  2  0  0  0  0
 56 55  3  0  0  0  0
 58 57  1  0  0  0  0
M  END
>  <MODEL>
6

>  <REMARK>
 VINA RESULT:      -5.9      3.901     11.375
  Name = 
  15 active torsions:
  status: ('A' for Active; 'I' for Inactive)
    1  A    between atoms: C_2  and  C_25
    2  A    between atoms: C_5  and  C_7
    3  A    between atoms: C_5  and  N_8
    4  A    between atoms: C_7  and  C_22
    5  A    between atoms: N_8  and  C_15
    6  A    between atoms: C_9  and  O_39
    7  A    between atoms: N_12  and  C_49
    8  A    between atoms: C_14  and  C_15
    9  A    between atoms: C_15  and  C_56
   10  A    between atoms: C_17  and  C_46
   11  A    between atoms: C_18  and  S_43
   12  A    between atoms: C_25  and  C_28
   13  A    between atoms: N_35  and  O_39
   14  A    between atoms: C_40  and  C_45
   15  A    between atoms: C_47  and  C_54
                            x       y       z     vdW  Elec       q    Type
                         _______ _______ _______ _____ _____    ______ ____

>  <TORSDO>
F 15

$$$$
=
 OpenBabel10232409593D

 58 64  0  0  1  0  0  0  0  0999 V2000
  186.7440  177.5070  138.3380 C   0  0  0  0  0  1  0  0  0  0  0  0
  190.5510  175.4920  137.2410 C   0  0  0  0  0  2  0  0  0  0  0  0
  188.9640  176.8150  138.6280 C   0  0  2  0  0  3  0  0  0  0  0  0
  189.7310  176.5370  137.3890 C   0  0  0  0  0  0  0  0  0  0  0  0
  189.0000  179.8560  137.0460 C   0  0  0  0  0  1  0  0  0  0  0  0
  189.4230  177.5070  136.3190 C   0  0  2  0  0  3  0  0  0  0  0  0
  188.1180  177.9770  138.3470 N   0  0  0  0  0  0  0  0  0  0  0  0
  188.4220  178.4500  136.9860 C   0  0  1  0  0  3  0  0  0  0  0  0
  189.2370  175.4100  134.9870 N   0  0  0  0  0  0  0  0  0  0  0  0
  187.3270  177.0130  135.0270 C   0  0  0  0  0  3  0  0  0  0  0  0
  187.0670  174.7370  134.3460 N   0  0  0  0  0  2  0  0  0  0  0  0
  188.4420  174.4570  134.6170 C   0  0  0  0  0  0  0  0  0  0  0  0
  188.8210  176.8170  135.0850 C   0  0  1  0  0  3  0  0  0  0  0  0
  186.5160  176.0310  134.6160 C   0  0  0  0  0  0  0  0  0  0  0  0
  188.9560  173.0650  134.4940 C   0  0  0  0  0  1  0  0  0  0  0  0
  185.0640  176.2480  134.4900 C   0  0  0  0  0  0  0  0  0  0  0  0
  184.5050  177.6340  134.3460 C   0  0  0  0  0  1  0  0  0  0  0  0
  184.2720  175.2200  134.4690 N   0  0  0  0  0  0  0  0  0  0  0  0
  182.9060  175.3390  134.3490 O   0  0  0  0  0  0  0  0  0  0  0  0
  180.1180  173.4070  137.1150 C   0  0  0  0  0  1  0  0  0  0  0  0
  182.0870  175.1870  135.4960 C   0  0  1  0  0  3  0  0  0  0  0  0
  181.5560  173.7610  137.4730 C   0  0  1  0  0  3  0  0  0  0  0  0
  182.3610  173.9530  136.2590 N   0  0  0  0  0  0  0  0  0  0  0  0
  182.2730  176.3920  136.4030 C   0  0  0  0  0  2  0  0  0  0  0  0
  181.6270  174.9960  138.3760 C   0  0  0  0  0  2  0  0  0  0  0  0
  181.3380  176.2800  137.6000 C   0  0  0  0  0  2  0  0  0  0  0  0
  185.3580  171.6780  135.9550 C   0  0  0  0  0  3  0  0  0  0  0  0
  184.5240  172.7170  136.3800 C   0  0  0  0  0  3  0  0  0  0  0  0
  185.9600  169.4960  134.4240 Cl  0  0  0  0  0  0  0  0  0  0  0  0
  183.2390  172.8800  135.8400 C   0  0  0  0  0  0  0  0  0  0  0  0
  182.8120  171.9690  134.8560 C   0  0  0  0  0  3  0  0  0  0  0  0
  183.6460  170.9330  134.4230 C   0  0  0  0  0  3  0  0  0  0  0  0
  184.9170  170.7850  134.9750 C   0  0  0  0  0  0  0  0  0  0  0  0
  189.9150  177.1480  139.7700 C   0  0  0  0  0  2  0  0  0  0  0  0
  189.1450  177.2090  141.0710 C   0  0  0  0  0  2  0  0  0  0  0  0
  189.9140  177.9350  142.0710 N   0  0  0  0  0  2  0  0  0  0  0  0
  189.6050  177.3530  143.3710 C   0  0  2  0  0  3  0  0  0  0  0  0
  187.1320  177.0430  145.9030 S   0  0  0  0  0  0  0  0  0  0  0  0
  189.4800  178.3880  145.5970 N   0  0  0  0  0  2  0  0  0  0  0  0
  187.4320  178.0240  144.4540 C   0  0  1  0  0  3  0  0  0  0  0  0
  186.3260  179.1070  143.9900 S   0  0  0  0  0  0  0  0  0  0  0  0
  188.8570  177.3470  146.4170 C   0  0  1  0  0  3  0  0  0  0  0  0
  188.8680  178.3570  144.2720 C   0  0  2  0  0  3  0  0  0  0  0  0
  184.9450  178.1310  143.3850 C   0  0  2  0  0  3  0  0  0  0  0  0
  184.4170  178.7630  142.1110 C   0  0  2  0  0  3  0  0  0  0  0  0
  183.6900  178.9730  143.4180 C   0  0  0  0  0  2  0  0  0  0  0  0
  183.6670  177.7290  141.2850 C   0  0  0  0  0  2  0  0  0  0  0  0
  182.5480  179.1720  139.5240 C   0  0  0  0  0  0  0  0  0  0  0  0
  182.4550  178.3550  140.6630 C   0  0  0  0  0  0  0  0  0  0  0  0
  181.4180  179.6390  138.9350 N   0  0  0  0  0  0  0  0  0  0  0  0
  183.8690  179.5030  138.9180 C   0  0  0  0  0  1  0  0  0  0  0  0
  180.0450  178.5460  140.5610 C   0  0  0  0  0  3  0  0  0  0  0  0
  180.1810  179.3440  139.4240 C   0  0  0  0  0  3  0  0  0  0  0  0
  181.1910  178.0530  141.1800 C   0  0  0  0  0  3  0  0  0  0  0  0
  188.9590  178.0450  148.9430 N   0  0  0  0  0  0  0  0  0  0  0  0
  188.9200  177.7310  147.8270 C   0  0  0  0  0  0  0  0  0  0  0  0
  190.8940  176.9080  144.0500 C   0  0  0  0  0  2  0  0  0  0  0  0
  191.2940  175.5420  143.5250 C   0  0  0  0  0  1  0  0  0  0  0  0
  1  7  1  0  0  0  0
  2  4  2  0  0  0  0
  3 34  1  1  0  0  0
  4  3  1  0  0  0  0
  6  8  1  0  0  0  0
  6  4  1  1  0  0  0
  7  3  1  0  0  0  0
  8  5  1  1  0  0  0
  8  7  1  0  0  0  0
  9 13  1  0  0  0  0
 11 14  1  0  0  0  0
 11 12  1  0  0  0  0
 12  9  2  0  0  0  0
 13 10  1  1  0  0  0
 13  6  1  0  0  0  0
 14 10  2  0  0  0  0
 15 12  1  0  0  0  0
 16 14  1  0  0  0  0
 17 16  1  0  0  0  0
 18 16  2  0  0  0  0
 19 18  1  0  0  0  0
 21 19  1  6  0  0  0
 21 23  1  0  0  0  0
 21 24  1  0  0  0  0
 22 20  1  6  0  0  0
 22 25  1  0  0  0  0
 23 22  1  0  0  0  0
 24 26  1  0  0  0  0
 26 25  1  0  0  0  0
 27 28  1  0  0  0  0
 29 33  1  0  0  0  0
 30 23  1  0  0  0  0
 30 28  2  0  0  0  0
 31 30  1  0  0  0  0
 32 31  2  0  0  0  0
 32 33  1  0  0  0  0
 33 27  2  0  0  0  0
 34 35  1  0  0  0  0
 35 36  1  0  0  0  0
 36 37  1  0  0  0  0
 37 57  1  1  0  0  0
 38 42  1  0  0  0  0
 39 42  1  0  0  0  0
 40 41  1  1  0  0  0
 40 38  1  0  0  0  0
 42 56  1  1  0  0  0
 43 37  1  6  0  0  0
 43 40  1  0  0  0  0
 43 39  1  0  0  0  0
 44 46  1  0  0  0  0
 44 41  1  1  0  0  0
 45 47  1  6  0  0  0
 45 44  1  0  0  0  0
 45 46  1  0  0  0  0
 48 49  1  0  0  0  0
 49 54  2  0  0  0  0
 49 47  1  0  0  0  0
 50 53  1  0  0  0  0
 50 48  2  0  0  0  0
 51 48  1  0  0  0  0
 52 54  1  0  0  0  0
 53 52  2  0  0  0  0
 56 55  3  0  0  0  0
 58 57  1  0  0  0  0
M  END
>  <MODEL>
7

>  <REMARK>
 VINA RESULT:      -5.8      3.497     10.811
  Name = 
  15 active torsions:
  status: ('A' for Active; 'I' for Inactive)
    1  A    between atoms: C_2  and  C_25
    2  A    between atoms: C_5  and  C_7
    3  A    between atoms: C_5  and  N_8
    4  A    between atoms: C_7  and  C_22
    5  A    between atoms: N_8  and  C_15
    6  A    between atoms: C_9  and  O_39
    7  A    between atoms: N_12  and  C_49
    8  A    between atoms: C_14  and  C_15
    9  A    between atoms: C_15  and  C_56
   10  A    between atoms: C_17  and  C_46
   11  A    between atoms: C_18  and  S_43
   12  A    between atoms: C_25  and  C_28
   13  A    between atoms: N_35  and  O_39
   14  A    between atoms: C_40  and  C_45
   15  A    between atoms: C_47  and  C_54
                            x       y       z     vdW  Elec       q    Type
                         _______ _______ _______ _____ _____    ______ ____

>  <TORSDO>
F 15

$$$$
=
 OpenBabel10232409593D

 58 64  0  0  1  0  0  0  0  0999 V2000
  192.3490  176.3040  135.5760 C   0  0  0  0  0  1  0  0  0  0  0  0
  189.2300  173.5950  137.2150 C   0  0  0  0  0  2  0  0  0  0  0  0
  190.4330  174.9550  135.5140 C   0  0  2  0  0  3  0  0  0  0  0  0
  189.7230  174.7660  136.8020 C   0  0  0  0  0  0  0  0  0  0  0  0
  189.4620  178.1390  136.3290 C   0  0  0  0  0  1  0  0  0  0  0  0
  189.6930  176.0070  137.6040 C   0  0  2  0  0  3  0  0  0  0  0  0
  190.9000  176.3430  135.4900 N   0  0  0  0  0  0  0  0  0  0  0  0
  190.4130  177.0140  136.7070 C   0  0  1  0  0  3  0  0  0  0  0  0
  191.8590  176.0630  138.8350 N   0  0  0  0  0  0  0  0  0  0  0  0
  189.7510  176.6480  140.0320 C   0  0  0  0  0  3  0  0  0  0  0  0
  191.9040  177.2580  140.8710 N   0  0  0  0  0  2  0  0  0  0  0  0
  192.5530  176.6900  139.7300 C   0  0  0  0  0  0  0  0  0  0  0  0
  190.4110  175.8290  138.9510 C   0  0  1  0  0  3  0  0  0  0  0  0
  190.4760  177.2690  140.9690 C   0  0  0  0  0  0  0  0  0  0  0  0
  194.0250  176.8390  139.5610 C   0  0  0  0  0  1  0  0  0  0  0  0
  189.8250  178.0060  142.0670 C   0  0  0  0  0  0  0  0  0  0  0  0
  188.5820  178.8110  141.8200 C   0  0  0  0  0  1  0  0  0  0  0  0
  190.3220  177.9230  143.2640 N   0  0  0  0  0  0  0  0  0  0  0  0
  189.7700  178.5770  144.3420 O   0  0  0  0  0  0  0  0  0  0  0  0
  189.4310  178.3240  148.6990 C   0  0  0  0  0  1  0  0  0  0  0  0
  190.0100  178.0920  145.6520 C   0  0  1  0  0  3  0  0  0  0  0  0
  188.9740  177.2230  147.7490 C   0  0  1  0  0  3  0  0  0  0  0  0
  188.7780  177.7550  146.3930 N   0  0  0  0  0  0  0  0  0  0  0  0
  190.9020  176.8640  145.5730 C   0  0  0  0  0  2  0  0  0  0  0  0
  189.9510  176.0430  147.7360 C   0  0  0  0  0  2  0  0  0  0  0  0
  191.2330  176.3810  146.9790 C   0  0  0  0  0  2  0  0  0  0  0  0
  185.1530  178.8090  146.3750 C   0  0  0  0  0  3  0  0  0  0  0  0
  186.4540  178.5550  146.8200 C   0  0  0  0  0  3  0  0  0  0  0  0
  183.1740  178.8340  144.4900 Cl  0  0  0  0  0  0  0  0  0  0  0  0
  187.4270  178.0330  145.9520 C   0  0  0  0  0  0  0  0  0  0  0  0
  187.0560  177.7700  144.6210 C   0  0  0  0  0  3  0  0  0  0  0  0
  185.7530  178.0160  144.1740 C   0  0  0  0  0  3  0  0  0  0  0  0
  184.8040  178.5380  145.0500 C   0  0  0  0  0  0  0  0  0  0  0  0
  189.4790  174.7230  134.3510 C   0  0  0  0  0  2  0  0  0  0  0  0
  188.1370  175.3490  134.6610 C   0  0  0  0  0  2  0  0  0  0  0  0
  187.2780  174.3840  135.3300 N   0  0  0  0  0  2  0  0  0  0  0  0
  185.9530  174.4860  134.7330 C   0  0  2  0  0  3  0  0  0  0  0  0
  184.2850  176.1430  137.3960 S   0  0  0  0  0  0  0  0  0  0  0  0
  186.2960  176.7370  135.6590 N   0  0  0  0  0  2  0  0  0  0  0  0
  184.0780  175.8940  135.6510 C   0  0  1  0  0  3  0  0  0  0  0  0
  182.7690  176.4960  134.9160 S   0  0  0  0  0  0  0  0  0  0  0  0
  186.0370  176.5550  137.0880 C   0  0  1  0  0  3  0  0  0  0  0  0
  185.3660  175.8950  134.9120 C   0  0  2  0  0  3  0  0  0  0  0  0
  181.4030  175.4910  135.5060 C   0  0  2  0  0  3  0  0  0  0  0  0
  180.9630  174.5570  134.3940 C   0  0  2  0  0  3  0  0  0  0  0  0
  180.1690  175.8060  134.6920 C   0  0  0  0  0  2  0  0  0  0  0  0
  180.2370  173.3540  134.9770 C   0  0  0  0  0  2  0  0  0  0  0  0
  181.6010  172.1070  136.7150 C   0  0  0  0  0  0  0  0  0  0  0  0
  181.2300  172.3030  135.3740 C   0  0  0  0  0  0  0  0  0  0  0  0
  182.4280  171.0820  137.0420 N   0  0  0  0  0  0  0  0  0  0  0  0
  181.0680  172.9800  137.7990 C   0  0  0  0  0  1  0  0  0  0  0  0
  182.5880  170.3990  134.7550 C   0  0  0  0  0  3  0  0  0  0  0  0
  182.9220  170.2310  136.0990 C   0  0  0  0  0  3  0  0  0  0  0  0
  181.7380  171.4420  134.3960 C   0  0  0  0  0  3  0  0  0  0  0  0
  186.7290  178.7180  138.4000 N   0  0  0  0  0  0  0  0  0  0  0  0
  186.4220  177.7660  137.8140 C   0  0  0  0  0  0  0  0  0  0  0  0
  185.0250  173.4610  135.3730 C   0  0  0  0  0  2  0  0  0  0  0  0
  185.8470  172.4640  136.1690 C   0  0  0  0  0  1  0  0  0  0  0  0
  3 34  1  6  0  0  0
  3  4  1  0  0  0  0
  4  2  2  0  0  0  0
  6  4  1  6  0  0  0
  6 13  1  0  0  0  0
  7  3  1  0  0  0  0
  7  1  1  0  0  0  0
  7  8  1  0  0  0  0
  8  5  1  6  0  0  0
  8  6  1  0  0  0  0
  9 13  1  0  0  0  0
  9 12  2  0  0  0  0
 10 14  2  0  0  0  0
 11 14  1  0  0  0  0
 12 11  1  0  0  0  0
 13 10  1  1  0  0  0
 14 16  1  0  0  0  0
 15 12  1  0  0  0  0
 16 18  2  0  0  0  0
 17 16  1  0  0  0  0
 18 19  1  0  0  0  0
 21 19  1  6  0  0  0
 21 23  1  0  0  0  0
 22 20  1  1  0  0  0
 23 22  1  0  0  0  0
 24 21  1  0  0  0  0
 24 26  1  0  0  0  0
 25 22  1  0  0  0  0
 26 25  1  0  0  0  0
 27 28  1  0  0  0  0
 29 33  1  0  0  0  0
 30 23  1  0  0  0  0
 30 28  2  0  0  0  0
 31 30  1  0  0  0  0
 32 31  2  0  0  0  0
 32 33  1  0  0  0  0
 33 27  2  0  0  0  0
 34 35  1  0  0  0  0
 35 36  1  0  0  0  0
 37 36  1  0  0  0  0
 37 57  1  1  0  0  0
 39 42  1  0  0  0  0
 40 41  1  6  0  0  0
 40 38  1  0  0  0  0
 42 38  1  0  0  0  0
 42 56  1  1  0  0  0
 43 37  1  1  0  0  0
 43 40  1  0  0  0  0
 43 39  1  0  0  0  0
 44 41  1  6  0  0  0
 45 46  1  0  0  0  0
 45 47  1  1  0  0  0
 45 44  1  0  0  0  0
 46 44  1  0  0  0  0
 47 49  1  0  0  0  0
 48 50  1  0  0  0  0
 48 51  1  0  0  0  0
 49 48  2  0  0  0  0
 52 53  1  0  0  0  0
 53 50  2  0  0  0  0
 54 52  2  0  0  0  0
 54 49  1  0  0  0  0
 56 55  3  0  0  0  0
 57 58  1  0  0  0  0
M  END
>  <MODEL>
8

>  <REMARK>
 VINA RESULT:      -5.6      3.235      7.498
  Name = 
  15 active torsions:
  status: ('A' for Active; 'I' for Inactive)
    1  A    between atoms: C_2  and  C_25
    2  A    between atoms: C_5  and  C_7
    3  A    between atoms: C_5  and  N_8
    4  A    between atoms: C_7  and  C_22
    5  A    between atoms: N_8  and  C_15
    6  A    between atoms: C_9  and  O_39
    7  A    between atoms: N_12  and  C_49
    8  A    between atoms: C_14  and  C_15
    9  A    between atoms: C_15  and  C_56
   10  A    between atoms: C_17  and  C_46
   11  A    between atoms: C_18  and  S_43
   12  A    between atoms: C_25  and  C_28
   13  A    between atoms: N_35  and  O_39
   14  A    between atoms: C_40  and  C_45
   15  A    between atoms: C_47  and  C_54
                            x       y       z     vdW  Elec       q    Type
                         _______ _______ _______ _____ _____    ______ ____

>  <TORSDO>
F 15

$$$$
=
 OpenBabel10232409593D

 58 64  0  0  1  0  0  0  0  0999 V2000
  186.2920  177.8890  137.0980 C   0  0  0  0  0  1  0  0  0  0  0  0
  183.2560  175.3880  139.1680 C   0  0  0  0  0  2  0  0  0  0  0  0
  185.0360  175.9570  137.5250 C   0  0  2  0  0  3  0  0  0  0  0  0
  183.7230  176.1610  138.1820 C   0  0  0  0  0  0  0  0  0  0  0  0
  183.3200  177.8540  135.2430 C   0  0  0  0  0  1  0  0  0  0  0  0
  183.0290  177.3610  137.6710 C   0  0  2  0  0  3  0  0  0  0  0  0
  185.2120  177.0650  136.5830 N   0  0  0  0  0  0  0  0  0  0  0  0
  183.9920  177.8880  136.6070 C   0  0  1  0  0  3  0  0  0  0  0  0
  181.6460  178.0260  139.6340 N   0  0  0  0  0  0  0  0  0  0  0  0
  184.0550  178.6670  139.5550 C   0  0  0  0  0  3  0  0  0  0  0  0
  182.8020  178.6700  141.5900 N   0  0  0  0  0  2  0  0  0  0  0  0
  181.6380  178.1820  140.9200 C   0  0  0  0  0  0  0  0  0  0  0  0
  182.7880  178.3940  138.7830 C   0  0  1  0  0  3  0  0  0  0  0  0
  184.0310  178.8550  140.8790 C   0  0  0  0  0  0  0  0  0  0  0  0
  180.4210  177.8320  141.7030 C   0  0  0  0  0  1  0  0  0  0  0  0
  185.2590  179.1960  141.6200 C   0  0  0  0  0  0  0  0  0  0  0  0
  185.1870  179.9190  142.9340 C   0  0  0  0  0  1  0  0  0  0  0  0
  186.4080  178.8300  141.1390 N   0  0  0  0  0  0  0  0  0  0  0  0
  187.5980  179.1050  141.7720 O   0  0  0  0  0  0  0  0  0  0  0  0
  191.8560  178.1000  141.6400 C   0  0  0  0  0  1  0  0  0  0  0  0
  188.8030  178.5570  141.2660 C   0  0  1  0  0  3  0  0  0  0  0  0
  190.7440  177.0620  141.7380 C   0  0  1  0  0  3  0  0  0  0  0  0
  189.5020  177.6770  142.2240 N   0  0  0  0  0  0  0  0  0  0  0  0
  188.5010  177.7780  139.9960 C   0  0  0  0  0  2  0  0  0  0  0  0
  190.5150  176.3500  140.4020 C   0  0  0  0  0  2  0  0  0  0  0  0
  189.7990  177.2520  139.3980 C   0  0  0  0  0  2  0  0  0  0  0  0
  187.4760  177.2100  145.3760 C   0  0  0  0  0  3  0  0  0  0  0  0
  187.8030  177.3820  144.0270 C   0  0  0  0  0  3  0  0  0  0  0  0
  188.0880  176.9510  148.0260 Cl  0  0  0  0  0  0  0  0  0  0  0  0
  189.1410  177.4900  143.6150 C   0  0  0  0  0  0  0  0  0  0  0  0
  190.1450  177.4210  144.5970 C   0  0  0  0  0  3  0  0  0  0  0  0
  189.8220  177.2560  145.9480 C   0  0  0  0  0  3  0  0  0  0  0  0
  188.4880  177.1470  146.3360 C   0  0  0  0  0  0  0  0  0  0  0  0
  185.0400  174.6400  136.7600 C   0  0  0  0  0  2  0  0  0  0  0  0
  185.4580  173.5170  137.6840 C   0  0  0  0  0  2  0  0  0  0  0  0
  186.4850  172.7040  137.0490 N   0  0  0  0  0  2  0  0  0  0  0  0
  186.8530  173.3580  135.8000 C   0  0  2  0  0  3  0  0  0  0  0  0
  188.2080  170.0810  136.0300 S   0  0  0  0  0  0  0  0  0  0  0  0
  186.3460  171.3390  134.4920 N   0  0  0  0  0  2  0  0  0  0  0  0
  188.5840  171.6200  135.2290 C   0  0  1  0  0  3  0  0  0  0  0  0
  189.9330  171.7430  134.3460 S   0  0  0  0  0  0  0  0  0  0  0  0
  186.4780  170.2610  135.4730 C   0  0  1  0  0  3  0  0  0  0  0  0
  187.3700  172.3420  134.7690 C   0  0  2  0  0  3  0  0  0  0  0  0
  191.2740  171.7140  135.5400 C   0  0  2  0  0  3  0  0  0  0  0  0
  192.4950  172.3710  134.9240 C   0  0  2  0  0  3  0  0  0  0  0  0
  192.4020  170.8660  134.9980 C   0  0  0  0  0  2  0  0  0  0  0  0
  193.4300  172.8670  136.0170 C   0  0  0  0  0  2  0  0  0  0  0  0
  195.3630  174.4850  135.7420 C   0  0  0  0  0  0  0  0  0  0  0  0
  193.9900  174.2050  135.6390 C   0  0  0  0  0  0  0  0  0  0  0  0
  195.8420  175.6760  135.2980 N   0  0  0  0  0  0  0  0  0  0  0  0
  196.3180  173.4820  136.2920 C   0  0  0  0  0  1  0  0  0  0  0  0
  193.6530  176.3860  134.6480 C   0  0  0  0  0  3  0  0  0  0  0  0
  195.0240  176.6210  134.7560 C   0  0  0  0  0  3  0  0  0  0  0  0
  193.1390  175.1710  135.0940 C   0  0  0  0  0  3  0  0  0  0  0  0
  185.5820  168.0260  134.4350 N   0  0  0  0  0  0  0  0  0  0  0  0
  185.9850  169.0110  134.8950 C   0  0  0  0  0  0  0  0  0  0  0  0
  187.9280  174.4040  136.0690 C   0  0  0  0  0  2  0  0  0  0  0  0
  187.9420  175.4150  134.9370 C   0  0  0  0  0  1  0  0  0  0  0  0
  3 34  1  6  0  0  0
  3  4  1  0  0  0  0
  4  2  2  0  0  0  0
  6  4  1  1  0  0  0
  6 13  1  0  0  0  0
  7  8  1  0  0  0  0
  7  1  1  0  0  0  0
  7  3  1  0  0  0  0
  8  5  1  6  0  0  0
  8  6  1  0  0  0  0
  9 12  2  0  0  0  0
 10 14  2  0  0  0  0
 12 11  1  0  0  0  0
 12 15  1  0  0  0  0
 13 10  1  1  0  0  0
 13  9  1  0  0  0  0
 14 11  1  0  0  0  0
 14 16  1  0  0  0  0
 16 17  1  0  0  0  0
 18 16  2  0  0  0  0
 18 19  1  0  0  0  0
 21 19  1  1  0  0  0
 21 23  1  0  0  0  0
 22 20  1  6  0  0  0
 22 23  1  0  0  0  0
 23 30  1  0  0  0  0
 24 21  1  0  0  0  0
 25 22  1  0  0  0  0
 26 24  1  0  0  0  0
 26 25  1  0  0  0  0
 27 33  1  0  0  0  0
 28 27  2  0  0  0  0
 30 28  1  0  0  0  0
 30 31  2  0  0  0  0
 31 32  1  0  0  0  0
 32 33  2  0  0  0  0
 33 29  1  0  0  0  0
 34 35  1  0  0  0  0
 36 35  1  0  0  0  0
 37 57  1  1  0  0  0
 37 36  1  0  0  0  0
 39 43  1  0  0  0  0
 39 42  1  0  0  0  0
 40 41  1  6  0  0  0
 40 38  1  0  0  0  0
 42 56  1  6  0  0  0
 42 38  1  0  0  0  0
 43 40  1  0  0  0  0
 43 37  1  1  0  0  0
 44 41  1  6  0  0  0
 45 46  1  0  0  0  0
 45 44  1  0  0  0  0
 45 47  1  1  0  0  0
 46 44  1  0  0  0  0
 48 51  1  0  0  0  0
 49 48  1  0  0  0  0
 49 47  1  0  0  0  0
 50 48  2  0  0  0  0
 52 53  2  0  0  0  0
 52 54  1  0  0  0  0
 53 50  1  0  0  0  0
 54 49  2  0  0  0  0
 55 56  3  0  0  0  0
 58 57  1  0  0  0  0
M  END
>  <MODEL>
9

>  <REMARK>
 VINA RESULT:      -4.9      3.018      4.919
  Name = 
  15 active torsions:
  status: ('A' for Active; 'I' for Inactive)
    1  A    between atoms: C_2  and  C_25
    2  A    between atoms: C_5  and  C_7
    3  A    between atoms: C_5  and  N_8
    4  A    between atoms: C_7  and  C_22
    5  A    between atoms: N_8  and  C_15
    6  A    between atoms: C_9  and  O_39
    7  A    between atoms: N_12  and  C_49
    8  A    between atoms: C_14  and  C_15
    9  A    between atoms: C_15  and  C_56
   10  A    between atoms: C_17  and  C_46
   11  A    between atoms: C_18  and  S_43
   12  A    between atoms: C_25  and  C_28
   13  A    between atoms: N_35  and  O_39
   14  A    between atoms: C_40  and  C_45
   15  A    between atoms: C_47  and  C_54
                            x       y       z     vdW  Elec       q    Type
                         _______ _______ _______ _____ _____    ______ ____

>  <TORSDO>
F 15

$$$$
