=
 OpenBabel10232408493D

 25 28  0  0  1  0  0  0  0  0999 V2000
  183.5560  179.1450  145.5500 N   0  0  0  0  0  1  0  0  0  0  0  0
  186.5950  178.5930  141.7210 C   0  0  0  0  0  3  0  0  0  0  0  0
  184.2150  178.6790  142.5500 C   0  0  0  0  0  1  0  0  0  0  0  0
  186.6180  178.2740  147.1430 C   0  0  1  0  0  3  0  0  0  0  0  0
  187.8660  177.3200  145.2250 C   0  0  0  0  0  0  0  0  0  0  0  0
  185.6390  178.2890  142.7310 C   0  0  0  0  0  0  0  0  0  0  0  0
  188.3700  177.7530  143.1340 C   0  0  0  0  0  0  0  0  0  0  0  0
  184.8120  178.6370  145.9810 C   0  0  0  0  0  0  0  0  0  0  0  0
  187.6940  178.6750  147.9870 N   0  0  0  0  0  1  0  0  0  0  0  0
  189.5340  177.8850  143.8840 C   0  0  0  0  0  0  0  0  0  0  0  0
  187.4250  177.3540  144.0110 C   0  0  0  0  0  0  0  0  0  0  0  0
  185.3560  178.9550  147.1170 N   0  0  0  0  0  0  0  0  0  0  0  0
  186.7690  177.5670  146.0320 C   0  0  2  0  0  3  0  0  0  0  0  0
  185.6600  177.7170  145.2340 C   0  0  2  0  0  3  0  0  0  0  0  0
  189.2050  177.6940  145.2450 C   0  0  0  0  0  2  0  0  0  0  0  0
  186.0950  177.6680  143.9080 C   0  0  0  0  0  0  0  0  0  0  0  0
  187.9830  178.3660  141.9330 C   0  0  0  0  0  3  0  0  0  0  0  0
  190.8080  178.4930  143.3950 C   0  0  0  0  0  2  0  0  0  0  0  0
  191.6670  177.4600  142.6810 C   0  0  1  0  0  3  0  0  0  0  0  0
  191.7350  176.1870  143.5050 C   0  0  0  0  0  1  0  0  0  0  0  0
  191.8720  177.1310  140.1800 C   0  0  0  0  0  0  0  0  0  0  0  0
  191.0940  177.1550  141.3790 N   0  0  0  0  0  2  0  0  0  0  0  0
  193.1130  177.3580  140.2190 O   0  0  0  0  0  0  0  0  0  0  0  0
  191.9460  176.8180  137.7850 O   0  0  0  0  0  1  0  0  0  0  0  0
  191.2360  176.8480  138.9370 N   0  0  0  0  0  2  0  0  0  0  0  0
  1  8  1  0  0  0  0
  2 17  2  0  0  0  0
  2  6  1  0  0  0  0
  3  6  1  0  0  0  0
  4  9  1  6  0  0  0
  5 15  1  0  0  0  0
  6 16  2  0  0  0  0
  7 10  2  0  0  0  0
  7 11  1  0  0  0  0
  8 12  2  0  0  0  0
 10 15  1  0  0  0  0
 11  5  2  0  0  0  0
 12  4  1  0  0  0  0
 13  5  1  6  0  0  0
 13  4  1  0  0  0  0
 14 16  1  6  0  0  0
 14  8  1  0  0  0  0
 14 13  1  0  0  0  0
 16 11  1  0  0  0  0
 17  7  1  0  0  0  0
 18 10  1  0  0  0  0
 19 18  1  0  0  0  0
 19 20  1  1  0  0  0
 21 23  2  0  0  0  0
 21 22  1  0  0  0  0
 22 19  1  0  0  0  0
 24 25  1  0  0  0  0
 25 21  1  0  0  0  0
M  END
>  <MODEL>
1

>  <REMARK>
 VINA RESULT:     -10.2      0.000      0.000
  Name = 
  3 active torsions:
  status: ('A' for Active; 'I' for Inactive)
    1  A    between atoms: C_4  and  C_6
    2  A    between atoms: C_4  and  C_13
    3  A    between atoms: C_6  and  N_16
                            x       y       z     vdW  Elec       q    Type
                         _______ _______ _______ _____ _____    ______ ____

>  <TORSDO>
F 3

$$$$
=
 OpenBabel10232408493D

 25 28  0  0  1  0  0  0  0  0999 V2000
  191.6700  177.8040  145.8420 N   0  0  0  0  0  1  0  0  0  0  0  0
  187.1970  178.4360  147.7920 C   0  0  0  0  0  3  0  0  0  0  0  0
  189.6220  177.8660  148.1790 C   0  0  0  0  0  1  0  0  0  0  0  0
  189.5580  177.4860  142.9940 C   0  0  1  0  0  3  0  0  0  0  0  0
  187.3740  177.0850  144.0970 C   0  0  0  0  0  0  0  0  0  0  0  0
  188.3900  177.7990  147.3490 C   0  0  0  0  0  0  0  0  0  0  0  0
  186.1080  177.8690  145.7080 C   0  0  0  0  0  0  0  0  0  0  0  0
  190.6620  177.5540  144.8700 C   0  0  0  0  0  0  0  0  0  0  0  0
  189.1310  178.0230  141.7460 N   0  0  0  0  0  1  0  0  0  0  0  0
  185.4920  178.1780  144.4990 C   0  0  0  0  0  0  0  0  0  0  0  0
  187.2070  177.1600  145.3750 C   0  0  2  0  0  3  0  0  0  0  0  0
  190.7990  177.8520  143.6120 N   0  0  0  0  0  0  0  0  0  0  0  0
  188.7400  176.9720  143.9000 C   0  0  2  0  0  3  0  0  0  0  0  0
  189.3610  176.9530  145.1270 C   0  0  2  0  0  3  0  0  0  0  0  0
  186.3410  177.7550  143.4510 C   0  0  0  0  0  3  0  0  0  0  0  0
  188.3740  177.1650  146.0930 C   0  0  0  0  0  0  0  0  0  0  0  0
  186.0520  178.5150  146.9520 C   0  0  0  0  0  3  0  0  0  0  0  0
  184.3450  179.1210  144.3340 C   0  0  0  0  0  2  0  0  0  0  0  0
  183.5360  178.7830  143.0900 C   0  0  1  0  0  3  0  0  0  0  0  0
  182.0840  179.1740  143.2950 C   0  0  0  0  0  1  0  0  0  0  0  0
  184.2420  178.8990  140.6620 C   0  0  0  0  0  0  0  0  0  0  0  0
  184.0670  179.5070  141.9440 N   0  0  0  0  0  2  0  0  0  0  0  0
  183.9120  177.6950  140.4760 O   0  0  0  0  0  0  0  0  0  0  0  0
  184.9670  179.1170  138.3670 O   0  0  0  0  0  1  0  0  0  0  0  0
  184.7900  179.6640  139.5930 N   0  0  0  0  0  2  0  0  0  0  0  0
  4  9  1  1  0  0  0
  4 12  1  0  0  0  0
  4 13  1  0  0  0  0
  6  2  1  0  0  0  0
  6  3  1  0  0  0  0
  7 17  1  0  0  0  0
  8  1  1  0  0  0  0
 10  7  2  0  0  0  0
 11  5  1  6  0  0  0
 11  7  1  0  0  0  0
 11 16  1  0  0  0  0
 12  8  2  0  0  0  0
 13  5  1  1  0  0  0
 13 14  1  0  0  0  0
 14  8  1  6  0  0  0
 14 16  1  0  0  0  0
 15  5  2  0  0  0  0
 15 10  1  0  0  0  0
 16  6  2  0  0  0  0
 17  2  2  0  0  0  0
 18 10  1  0  0  0  0
 19 20  1  1  0  0  0
 19 18  1  0  0  0  0
 21 22  1  0  0  0  0
 22 19  1  0  0  0  0
 23 21  2  0  0  0  0
 24 25  1  0  0  0  0
 25 21  1  0  0  0  0
M  END
>  <MODEL>
2

>  <REMARK>
 VINA RESULT:     -10.1      3.177      6.223
  Name = 
  3 active torsions:
  status: ('A' for Active; 'I' for Inactive)
    1  A    between atoms: C_4  and  C_6
    2  A    between atoms: C_4  and  C_13
    3  A    between atoms: C_6  and  N_16
                            x       y       z     vdW  Elec       q    Type
                         _______ _______ _______ _____ _____    ______ ____

>  <TORSDO>
F 3

$$$$
=
 OpenBabel10232408493D

 25 28  0  0  1  0  0  0  0  0999 V2000
  187.6270  178.4220  148.2460 N   0  0  0  0  0  1  0  0  0  0  0  0
  185.2530  178.7300  143.9480 C   0  0  0  0  0  3  0  0  0  0  0  0
  185.0900  178.5870  146.4600 C   0  0  0  0  0  1  0  0  0  0  0  0
  190.1070  177.3240  145.9390 C   0  0  1  0  0  3  0  0  0  0  0  0
  188.6910  176.8080  143.9710 C   0  0  0  0  0  0  0  0  0  0  0  0
  185.7400  178.2040  145.1780 C   0  0  0  0  0  0  0  0  0  0  0  0
  187.0740  177.6660  142.7620 C   0  0  0  0  0  0  0  0  0  0  0  0
  188.4170  177.8680  147.2000 C   0  0  0  0  0  0  0  0  0  0  0  0
  191.3590  177.5730  145.3080 N   0  0  0  0  0  1  0  0  0  0  0  0
  188.2290  177.6730  141.9870 C   0  0  0  0  0  0  0  0  0  0  0  0
  187.4280  177.0750  143.9220 C   0  0  2  0  0  3  0  0  0  0  0  0
  189.7120  177.9640  147.1610 N   0  0  0  0  0  0  0  0  0  0  0  0
  189.0370  176.8600  145.3100 C   0  0  2  0  0  3  0  0  0  0  0  0
  187.9100  177.1400  146.0450 C   0  0  2  0  0  3  0  0  0  0  0  0
  189.2980  177.2030  142.7830 C   0  0  0  0  0  3  0  0  0  0  0  0
  186.8720  177.3700  145.1390 C   0  0  0  0  0  0  0  0  0  0  0  0
  185.9460  178.4990  142.7270 C   0  0  0  0  0  3  0  0  0  0  0  0
  188.3910  178.3990  140.6910 C   0  0  0  0  0  2  0  0  0  0  0  0
  188.8100  177.4460  139.5800 C   0  0  1  0  0  3  0  0  0  0  0  0
  187.9910  177.7170  138.3320 C   0  0  0  0  0  1  0  0  0  0  0  0
  191.0710  176.5570  138.8750 C   0  0  0  0  0  0  0  0  0  0  0  0
  190.2200  177.6330  139.2750 N   0  0  0  0  0  2  0  0  0  0  0  0
  190.6090  175.3890  138.7500 O   0  0  0  0  0  0  0  0  0  0  0  0
  193.2800  175.8130  138.2340 O   0  0  0  0  0  1  0  0  0  0  0  0
  192.4490  176.8120  138.6150 N   0  0  0  0  0  2  0  0  0  0  0  0
  2  6  1  0  0  0  0
  4  9  1  6  0  0  0
  4 12  1  0  0  0  0
  6  3  1  0  0  0  0
  8  1  1  0  0  0  0
 10  7  2  0  0  0  0
 10 15  1  0  0  0  0
 11  7  1  6  0  0  0
 11  5  1  0  0  0  0
 11 16  1  0  0  0  0
 12  8  2  0  0  0  0
 13  5  1  6  0  0  0
 13  4  1  0  0  0  0
 13 14  1  0  0  0  0
 14 16  1  6  0  0  0
 14  8  1  0  0  0  0
 15  5  2  0  0  0  0
 16  6  2  0  0  0  0
 17  7  1  0  0  0  0
 17  2  2  0  0  0  0
 18 10  1  0  0  0  0
 19 20  1  6  0  0  0
 19 18  1  0  0  0  0
 21 22  1  0  0  0  0
 22 19  1  0  0  0  0
 23 21  2  0  0  0  0
 24 25  1  0  0  0  0
 25 21  1  0  0  0  0
M  END
>  <MODEL>
3

>  <REMARK>
 VINA RESULT:      -9.9      1.828      3.218
  Name = 
  3 active torsions:
  status: ('A' for Active; 'I' for Inactive)
    1  A    between atoms: C_4  and  C_6
    2  A    between atoms: C_4  and  C_13
    3  A    between atoms: C_6  and  N_16
                            x       y       z     vdW  Elec       q    Type
                         _______ _______ _______ _____ _____    ______ ____

>  <TORSDO>
F 3

$$$$
=
 OpenBabel10232408493D

 25 28  0  0  1  0  0  0  0  0999 V2000
  191.1820  177.9950  145.2150 N   0  0  0  0  0  1  0  0  0  0  0  0
  186.7150  178.4480  147.2260 C   0  0  0  0  0  3  0  0  0  0  0  0
  189.1500  177.8870  147.5630 C   0  0  0  0  0  1  0  0  0  0  0  0
  189.0560  177.8250  142.3650 C   0  0  1  0  0  3  0  0  0  0  0  0
  186.8850  177.3290  143.4540 C   0  0  0  0  0  0  0  0  0  0  0  0
  187.9130  177.8550  146.7370 C   0  0  0  0  0  0  0  0  0  0  0  0
  185.6190  177.9960  145.1170 C   0  0  0  0  0  0  0  0  0  0  0  0
  190.1720  177.7930  144.2350 C   0  0  0  0  0  0  0  0  0  0  0  0
  188.6140  178.4320  141.1540 N   0  0  0  0  0  1  0  0  0  0  0  0
  184.9920  178.3700  143.9330 C   0  0  0  0  0  0  0  0  0  0  0  0
  186.7250  177.3230  144.7350 C   0  0  2  0  0  3  0  0  0  0  0  0
  190.2970  178.1690  142.9970 N   0  0  0  0  0  0  0  0  0  0  0  0
  188.2500  177.2450  143.2430 C   0  0  2  0  0  3  0  0  0  0  0  0
  188.8800  177.1600  144.4620 C   0  0  2  0  0  3  0  0  0  0  0  0
  185.8390  178.0230  142.8560 C   0  0  0  0  0  3  0  0  0  0  0  0
  187.8970  177.2990  145.4450 C   0  0  0  0  0  0  0  0  0  0  0  0
  185.5630  178.5630  146.3980 C   0  0  0  0  0  3  0  0  0  0  0  0
  183.8310  179.3060  143.8330 C   0  0  0  0  0  2  0  0  0  0  0  0
  182.6870  178.6740  143.0530 C   0  0  1  0  0  3  0  0  0  0  0  0
  181.3850  178.8490  143.8140 C   0  0  0  0  0  1  0  0  0  0  0  0
  182.7650  178.6000  140.5250 C   0  0  0  0  0  0  0  0  0  0  0  0
  182.5670  179.3100  141.7500 N   0  0  0  0  0  2  0  0  0  0  0  0
  183.0350  177.3670  140.5370 O   0  0  0  0  0  0  0  0  0  0  0  0
  182.8360  178.6500  138.1100 O   0  0  0  0  0  1  0  0  0  0  0  0
  182.6540  179.2950  139.2860 N   0  0  0  0  0  2  0  0  0  0  0  0
  4  9  1  1  0  0  0
  4 12  1  0  0  0  0
  4 13  1  0  0  0  0
  6  2  1  0  0  0  0
  6  3  1  0  0  0  0
  7 17  1  0  0  0  0
  8  1  1  0  0  0  0
 10  7  2  0  0  0  0
 11  5  1  6  0  0  0
 11  7  1  0  0  0  0
 11 16  1  0  0  0  0
 12  8  2  0  0  0  0
 13  5  1  1  0  0  0
 13 14  1  0  0  0  0
 14  8  1  6  0  0  0
 14 16  1  0  0  0  0
 15  5  2  0  0  0  0
 15 10  1  0  0  0  0
 16  6  2  0  0  0  0
 17  2  2  0  0  0  0
 18 10  1  0  0  0  0
 19 20  1  1  0  0  0
 19 18  1  0  0  0  0
 21 23  2  0  0  0  0
 21 22  1  0  0  0  0
 22 19  1  0  0  0  0
 24 25  1  0  0  0  0
 25 21  1  0  0  0  0
M  END
>  <MODEL>
4

>  <REMARK>
 VINA RESULT:      -9.7      3.558      6.624
  Name = 
  3 active torsions:
  status: ('A' for Active; 'I' for Inactive)
    1  A    between atoms: C_4  and  C_6
    2  A    between atoms: C_4  and  C_13
    3  A    between atoms: C_6  and  N_16
                            x       y       z     vdW  Elec       q    Type
                         _______ _______ _______ _____ _____    ______ ____

>  <TORSDO>
F 3

$$$$
=
 OpenBabel10232408493D

 25 28  0  0  1  0  0  0  0  0999 V2000
  189.1790  178.0940  147.8810 N   0  0  0  0  0  1  0  0  0  0  0  0
  184.9720  179.1150  145.5420 C   0  0  0  0  0  3  0  0  0  0  0  0
  186.1170  178.6040  147.7290 C   0  0  0  0  0  1  0  0  0  0  0  0
  189.9780  177.2760  144.5090 C   0  0  1  0  0  3  0  0  0  0  0  0
  187.7030  177.1040  143.5380 C   0  0  0  0  0  0  0  0  0  0  0  0
  185.9670  178.3970  146.2640 C   0  0  0  0  0  0  0  0  0  0  0  0
  185.7940  178.1840  143.4660 C   0  0  0  0  0  0  0  0  0  0  0  0
  189.2510  177.6780  146.5220 C   0  0  0  0  0  0  0  0  0  0  0  0
  190.7420  177.5770  143.3460 N   0  0  0  0  0  1  0  0  0  0  0  0
  186.3760  178.2700  142.2050 C   0  0  0  0  0  0  0  0  0  0  0  0
  186.6330  177.4150  144.1920 C   0  0  2  0  0  3  0  0  0  0  0  0
  190.3410  177.7380  145.8180 N   0  0  0  0  0  0  0  0  0  0  0  0
  188.6950  176.9450  144.4910 C   0  0  2  0  0  3  0  0  0  0  0  0
  188.1470  177.1470  145.7350 C   0  0  2  0  0  3  0  0  0  0  0  0
  187.6460  177.6530  142.2620 C   0  0  0  0  0  3  0  0  0  0  0  0
  186.8210  177.5420  145.5430 C   0  0  0  0  0  0  0  0  0  0  0  0
  184.9060  179.0480  144.1220 C   0  0  0  0  0  3  0  0  0  0  0  0
  185.9200  179.1760  141.1080 C   0  0  0  0  0  2  0  0  0  0  0  0
  185.1990  178.3950  140.0190 C   0  0  1  0  0  3  0  0  0  0  0  0
  183.7020  178.6230  140.1240 C   0  0  0  0  0  1  0  0  0  0  0  0
  186.8720  178.3630  138.1210 C   0  0  0  0  0  0  0  0  0  0  0  0
  185.6570  178.8340  138.7090 N   0  0  0  0  0  2  0  0  0  0  0  0
  187.5880  177.5170  138.7230 O   0  0  0  0  0  0  0  0  0  0  0  0
  188.4130  178.4300  136.2600 O   0  0  0  0  0  1  0  0  0  0  0  0
  187.2680  178.8570  136.8440 N   0  0  0  0  0  2  0  0  0  0  0  0
  2  6  1  0  0  0  0
  4  9  1  6  0  0  0
  4 12  1  0  0  0  0
  5 11  1  0  0  0  0
  6  3  1  0  0  0  0
  7 17  1  0  0  0  0
  8  1  1  0  0  0  0
 10 15  1  0  0  0  0
 10  7  2  0  0  0  0
 11  7  1  6  0  0  0
 11 16  1  0  0  0  0
 12  8  2  0  0  0  0
 13  5  1  6  0  0  0
 13  4  1  0  0  0  0
 13 14  1  0  0  0  0
 14 16  1  6  0  0  0
 14  8  1  0  0  0  0
 15  5  2  0  0  0  0
 16  6  2  0  0  0  0
 17  2  2  0  0  0  0
 18 10  1  0  0  0  0
 19 20  1  6  0  0  0
 19 18  1  0  0  0  0
 21 22  1  0  0  0  0
 21 23  2  0  0  0  0
 22 19  1  0  0  0  0
 24 25  1  0  0  0  0
 25 21  1  0  0  0  0
M  END
>  <MODEL>
5

>  <REMARK>
 VINA RESULT:      -9.5      2.688      4.778
  Name = 
  3 active torsions:
  status: ('A' for Active; 'I' for Inactive)
    1  A    between atoms: C_4  and  C_6
    2  A    between atoms: C_4  and  C_13
    3  A    between atoms: C_6  and  N_16
                            x       y       z     vdW  Elec       q    Type
                         _______ _______ _______ _____ _____    ______ ____

>  <TORSDO>
F 3

$$$$
=
 OpenBabel10232408493D

 25 28  0  0  1  0  0  0  0  0999 V2000
  183.1620  179.9310  143.3530 N   0  0  0  0  0  1  0  0  0  0  0  0
  187.4650  178.6220  141.3590 C   0  0  0  0  0  3  0  0  0  0  0  0
  185.0410  179.2070  140.9860 C   0  0  0  0  0  1  0  0  0  0  0  0
  184.8940  178.5570  146.1430 C   0  0  1  0  0  3  0  0  0  0  0  0
  186.6810  177.2910  144.9820 C   0  0  0  0  0  0  0  0  0  0  0  0
  186.1100  178.5570  141.7900 C   0  0  0  0  0  0  0  0  0  0  0  0
  188.1760  177.5200  143.3920 C   0  0  0  0  0  0  0  0  0  0  0  0
  183.9470  179.2090  144.2930 C   0  0  0  0  0  0  0  0  0  0  0  0
  185.5060  178.7800  147.4100 N   0  0  0  0  0  1  0  0  0  0  0  0
  188.8560  177.4580  144.6030 C   0  0  0  0  0  0  0  0  0  0  0  0
  186.8730  177.3530  143.7060 C   0  0  0  0  0  0  0  0  0  0  0  0
  183.9480  179.4680  145.5660 N   0  0  0  0  0  0  0  0  0  0  0  0
  185.4060  177.7830  145.1970 C   0  0  2  0  0  3  0  0  0  0  0  0
  184.8490  178.1080  143.9820 C   0  0  2  0  0  3  0  0  0  0  0  0
  187.9000  177.3980  145.6430 C   0  0  0  0  0  3  0  0  0  0  0  0
  185.8350  177.9140  143.0110 C   0  0  0  0  0  0  0  0  0  0  0  0
  188.5200  178.1400  142.1820 C   0  0  0  0  0  2  0  0  0  0  0  0
  190.3010  177.7840  144.7970 C   0  0  0  0  0  2  0  0  0  0  0  0
  191.0860  176.5520  145.2240 C   0  0  1  0  0  3  0  0  0  0  0  0
  191.9110  176.0360  144.0600 C   0  0  0  0  0  1  0  0  0  0  0  0
  192.1560  176.0380  147.4580 C   0  0  0  0  0  0  0  0  0  0  0  0
  191.9740  176.8900  146.3260 N   0  0  0  0  0  2  0  0  0  0  0  0
  191.5540  174.9310  147.5290 O   0  0  0  0  0  0  0  0  0  0  0  0
  193.2180  175.6610  149.5970 O   0  0  0  0  0  1  0  0  0  0  0  0
  193.0250  176.4470  148.5110 N   0  0  0  0  0  2  0  0  0  0  0  0
  1  8  1  0  0  0  0
  2  6  2  0  0  0  0
  2 17  1  0  0  0  0
  3  6  1  0  0  0  0
  4  9  1  6  0  0  0
  5 15  2  0  0  0  0
  6 16  1  0  0  0  0
  7 11  1  0  0  0  0
  7 10  2  0  0  0  0
  8 12  2  0  0  0  0
 10 18  1  0  0  0  0
 10 15  1  0  0  0  0
 11  5  1  0  0  0  0
 12  4  1  0  0  0  0
 13  5  1  6  0  0  0
 13  4  1  0  0  0  0
 14 16  1  6  0  0  0
 14  8  1  0  0  0  0
 14 13  1  0  0  0  0
 16 11  2  0  0  0  0
 17  7  1  0  0  0  0
 18 19  1  0  0  0  0
 19 20  1  6  0  0  0
 19 22  1  0  0  0  0
 21 23  2  0  0  0  0
 21 25  1  0  0  0  0
 22 21  1  0  0  0  0
 25 24  1  0  0  0  0
M  END
>  <MODEL>
6

>  <REMARK>
 VINA RESULT:      -9.2      3.358      4.146
  Name = 
  3 active torsions:
  status: ('A' for Active; 'I' for Inactive)
    1  A    between atoms: C_4  and  C_6
    2  A    between atoms: C_4  and  C_13
    3  A    between atoms: C_6  and  N_16
                            x       y       z     vdW  Elec       q    Type
                         _______ _______ _______ _____ _____    ______ ____

>  <TORSDO>
F 3

$$$$
=
 OpenBabel10232408493D

 25 28  0  0  1  0  0  0  0  0999 V2000
  187.2250  178.2140  147.8420 N   0  0  0  0  0  1  0  0  0  0  0  0
  185.2450  178.8030  143.3760 C   0  0  0  0  0  3  0  0  0  0  0  0
  184.8580  178.4640  145.8450 C   0  0  0  0  0  1  0  0  0  0  0  0
  189.9340  177.3490  145.7000 C   0  0  1  0  0  3  0  0  0  0  0  0
  188.7190  176.9570  143.5750 C   0  0  0  0  0  0  0  0  0  0  0  0
  185.6320  178.1940  144.6040 C   0  0  0  0  0  0  0  0  0  0  0  0
  187.1950  177.8720  142.2890 C   0  0  0  0  0  0  0  0  0  0  0  0
  188.1220  177.7590  146.8360 C   0  0  0  0  0  0  0  0  0  0  0  0
  191.2320  177.6720  145.2090 N   0  0  0  0  0  1  0  0  0  0  0  0
  188.4150  177.9620  141.6270 C   0  0  0  0  0  0  0  0  0  0  0  0
  187.4590  177.2010  143.4300 C   0  0  2  0  0  3  0  0  0  0  0  0
  189.4120  177.8850  146.9240 N   0  0  0  0  0  0  0  0  0  0  0  0
  188.9400  176.9130  144.9410 C   0  0  2  0  0  3  0  0  0  0  0  0
  187.7430  177.1110  145.5870 C   0  0  2  0  0  3  0  0  0  0  0  0
  189.4200  177.4550  142.4820 C   0  0  0  0  0  3  0  0  0  0  0  0
  186.7860  177.3890  144.6080 C   0  0  0  0  0  0  0  0  0  0  0  0
  186.0530  178.6820  142.2120 C   0  0  0  0  0  3  0  0  0  0  0  0
  188.6750  178.7900  140.4100 C   0  0  0  0  0  2  0  0  0  0  0  0
  189.0600  177.9130  139.2270 C   0  0  1  0  0  3  0  0  0  0  0  0
  190.1290  176.9210  139.6450 C   0  0  0  0  0  1  0  0  0  0  0  0
  187.0090  177.7090  137.7580 C   0  0  0  0  0  0  0  0  0  0  0  0
  187.8930  177.1840  138.7520 N   0  0  0  0  0  2  0  0  0  0  0  0
  187.2310  178.8350  137.2360 O   0  0  0  0  0  0  0  0  0  0  0  0
  185.0170  177.4160  136.4210 O   0  0  0  0  0  1  0  0  0  0  0  0
  185.8730  176.9470  137.3600 N   0  0  0  0  0  2  0  0  0  0  0  0
  2  6  1  0  0  0  0
  4  9  1  6  0  0  0
  4 12  1  0  0  0  0
  6 16  2  0  0  0  0
  6  3  1  0  0  0  0
  8 12  2  0  0  0  0
  8  1  1  0  0  0  0
 10  7  2  0  0  0  0
 10 15  1  0  0  0  0
 11  7  1  6  0  0  0
 11  5  1  0  0  0  0
 11 16  1  0  0  0  0
 13  5  1  6  0  0  0
 13 14  1  0  0  0  0
 13  4  1  0  0  0  0
 14 16  1  6  0  0  0
 14  8  1  0  0  0  0
 15  5  2  0  0  0  0
 17  7  1  0  0  0  0
 17  2  2  0  0  0  0
 18 10  1  0  0  0  0
 19 20  1  1  0  0  0
 19 18  1  0  0  0  0
 21 22  1  0  0  0  0
 22 19  1  0  0  0  0
 23 21  2  0  0  0  0
 24 25  1  0  0  0  0
 25 21  1  0  0  0  0
M  END
>  <MODEL>
7

>  <REMARK>
 VINA RESULT:      -8.9      2.704      3.822
  Name = 
  3 active torsions:
  status: ('A' for Active; 'I' for Inactive)
    1  A    between atoms: C_4  and  C_6
    2  A    between atoms: C_4  and  C_13
    3  A    between atoms: C_6  and  N_16
                            x       y       z     vdW  Elec       q    Type
                         _______ _______ _______ _____ _____    ______ ____

>  <TORSDO>
F 3

$$$$
=
 OpenBabel10232408493D

 25 28  0  0  1  0  0  0  0  0999 V2000
  190.4590  177.4530  147.2540 N   0  0  0  0  0  1  0  0  0  0  0  0
  185.8490  178.9970  146.4950 C   0  0  0  0  0  3  0  0  0  0  0  0
  187.5700  178.1730  148.1440 C   0  0  0  0  0  1  0  0  0  0  0  0
  190.0720  176.9650  143.7490 C   0  0  1  0  0  3  0  0  0  0  0  0
  187.6020  177.0500  143.5540 C   0  0  0  0  0  0  0  0  0  0  0  0
  186.9460  178.1390  146.7940 C   0  0  0  0  0  0  0  0  0  0  0  0
  185.8810  178.2510  144.1940 C   0  0  0  0  0  0  0  0  0  0  0  0
  190.0580  177.1870  145.9150 C   0  0  0  0  0  0  0  0  0  0  0  0
  190.4560  177.3450  142.4300 N   0  0  0  0  0  1  0  0  0  0  0  0
  186.0410  178.4400  142.8250 C   0  0  0  0  0  0  0  0  0  0  0  0
  186.8280  177.3540  144.5420 C   0  0  2  0  0  3  0  0  0  0  0  0
  190.8710  177.2550  144.9040 N   0  0  0  0  0  0  0  0  0  0  0  0
  188.8230  176.7220  144.1170 C   0  0  2  0  0  3  0  0  0  0  0  0
  188.7160  176.8190  145.4840 C   0  0  2  0  0  3  0  0  0  0  0  0
  187.1990  177.7400  142.4150 C   0  0  0  0  0  3  0  0  0  0  0  0
  187.4420  177.3180  145.7660 C   0  0  0  0  0  0  0  0  0  0  0  0
  185.3330  179.0920  145.1730 C   0  0  0  0  0  3  0  0  0  0  0  0
  185.3530  179.4900  142.0150 C   0  0  0  0  0  2  0  0  0  0  0  0
  183.9780  179.0180  141.5640 C   0  0  1  0  0  3  0  0  0  0  0  0
  184.1230  177.9120  140.5350 C   0  0  0  0  0  1  0  0  0  0  0  0
  181.9010  178.9380  143.0080 C   0  0  0  0  0  0  0  0  0  0  0  0
  183.2310  178.5110  142.7060 N   0  0  0  0  0  2  0  0  0  0  0  0
  181.3130  179.7710  142.2650 O   0  0  0  0  0  0  0  0  0  0  0  0
  179.9820  178.8000  144.4700 O   0  0  0  0  0  1  0  0  0  0  0  0
  181.2420  178.4150  144.1580 N   0  0  0  0  0  2  0  0  0  0  0  0
  2  6  1  0  0  0  0
  4  9  1  6  0  0  0
  4 13  1  0  0  0  0
  4 12  1  0  0  0  0
  6  3  1  0  0  0  0
  7 11  1  0  0  0  0
  7 17  1  0  0  0  0
  8  1  1  0  0  0  0
 10  7  2  0  0  0  0
 11  5  1  6  0  0  0
 11 16  1  0  0  0  0
 12  8  2  0  0  0  0
 13  5  1  6  0  0  0
 13 14  1  0  0  0  0
 14 16  1  6  0  0  0
 14  8  1  0  0  0  0
 15 10  1  0  0  0  0
 15  5  2  0  0  0  0
 16  6  2  0  0  0  0
 17  2  2  0  0  0  0
 18 10  1  0  0  0  0
 19 20  1  6  0  0  0
 19 18  1  0  0  0  0
 19 22  1  0  0  0  0
 21 25  1  0  0  0  0
 22 21  1  0  0  0  0
 23 21  2  0  0  0  0
 25 24  1  0  0  0  0
M  END
>  <MODEL>
8

>  <REMARK>
 VINA RESULT:      -8.9      4.004      6.818
  Name = 
  3 active torsions:
  status: ('A' for Active; 'I' for Inactive)
    1  A    between atoms: C_4  and  C_6
    2  A    between atoms: C_4  and  C_13
    3  A    between atoms: C_6  and  N_16
                            x       y       z     vdW  Elec       q    Type
                         _______ _______ _______ _____ _____    ______ ____

>  <TORSDO>
F 3

$$$$
=
 OpenBabel10232408493D

 25 28  0  0  1  0  0  0  0  0999 V2000
  186.4690  177.3840  137.1640 N   0  0  0  0  0  1  0  0  0  0  0  0
  184.0460  178.2550  141.3570 C   0  0  0  0  0  3  0  0  0  0  0  0
  184.0630  178.4130  138.8410 C   0  0  0  0  0  1  0  0  0  0  0  0
  189.0840  177.2820  139.5770 C   0  0  1  0  0  3  0  0  0  0  0  0
  187.9790  178.4150  141.4850 C   0  0  0  0  0  0  0  0  0  0  0  0
  184.7650  178.4830  140.1500 C   0  0  0  0  0  0  0  0  0  0  0  0
  186.1030  178.4020  142.6220 C   0  0  0  0  0  0  0  0  0  0  0  0
  187.3810  177.5390  138.2440 C   0  0  0  0  0  0  0  0  0  0  0  0
  190.0630  176.5040  140.2600 N   0  0  0  0  0  1  0  0  0  0  0  0
  187.0990  177.8870  143.4450 C   0  0  0  0  0  0  0  0  0  0  0  0
  186.7310  178.7490  141.4790 C   0  0  0  0  0  0  0  0  0  0  0  0
  188.4910  176.8680  138.3390 N   0  0  0  0  0  0  0  0  0  0  0  0
  188.3160  178.1900  140.1620 C   0  0  2  0  0  3  0  0  0  0  0  0
  187.2140  178.4370  139.3780 C   0  0  2  0  0  3  0  0  0  0  0  0
  188.2940  177.8090  142.6970 C   0  0  0  0  0  3  0  0  0  0  0  0
  186.1500  178.7160  140.2390 C   0  0  0  0  0  0  0  0  0  0  0  0
  184.7200  178.1680  142.6070 C   0  0  0  0  0  2  0  0  0  0  0  0
  186.8640  177.1880  144.7450 C   0  0  0  0  0  2  0  0  0  0  0  0
  187.3520  178.0320  145.9140 C   0  0  1  0  0  3  0  0  0  0  0  0
  186.1830  178.3970  146.8100 C   0  0  0  0  0  1  0  0  0  0  0  0
  189.7330  177.3370  146.4150 C   0  0  0  0  0  0  0  0  0  0  0  0
  188.3310  177.2840  146.6890 N   0  0  0  0  0  2  0  0  0  0  0  0
  190.1760  178.0670  145.4870 O   0  0  0  0  0  0  0  0  0  0  0  0
  191.9630  176.5870  146.9680 O   0  0  0  0  0  1  0  0  0  0  0  0
  190.6300  176.5590  147.2020 N   0  0  0  0  0  2  0  0  0  0  0  0
  1  8  1  0  0  0  0
  2 17  1  0  0  0  0
  3  6  1  0  0  0  0
  4 13  1  0  0  0  0
  4  9  1  1  0  0  0
  5 15  2  0  0  0  0
  6 16  1  0  0  0  0
  6  2  2  0  0  0  0
  7 10  2  0  0  0  0
  8 12  2  0  0  0  0
 10 18  1  0  0  0  0
 11  5  1  0  0  0  0
 11  7  1  0  0  0  0
 12  4  1  0  0  0  0
 13  5  1  1  0  0  0
 14  8  1  1  0  0  0
 14 13  1  0  0  0  0
 14 16  1  0  0  0  0
 15 10  1  0  0  0  0
 16 11  2  0  0  0  0
 17  7  1  0  0  0  0
 18 19  1  0  0  0  0
 19 22  1  0  0  0  0
 19 20  1  1  0  0  0
 21 22  1  0  0  0  0
 21 25  1  0  0  0  0
 23 21  2  0  0  0  0
 24 25  1  0  0  0  0
M  END
>  <MODEL>
9

>  <REMARK>
 VINA RESULT:      -8.8      2.868      6.037
  Name = 
  3 active torsions:
  status: ('A' for Active; 'I' for Inactive)
    1  A    between atoms: C_4  and  C_6
    2  A    between atoms: C_4  and  C_13
    3  A    between atoms: C_6  and  N_16
                            x       y       z     vdW  Elec       q    Type
                         _______ _______ _______ _____ _____    ______ ____

>  <TORSDO>
F 3

$$$$
