=
 OpenBabel10232410063D

 68 75  0  0  1  0  0  0  0  0999 V2000
  188.5480  177.0440  135.9020 C   0  0  0  0  0  0  0  0  0  0  0  0
  189.2170  176.6720  134.6780 N   0  0  0  0  0  0  0  0  0  0  0  0
  191.0360  177.4100  141.9620 C   0  0  1  0  0  3  0  0  0  0  0  0
  189.4040  177.4320  139.4080 C   0  0  0  0  0  2  0  0  0  0  0  0
  193.4210  176.1340  136.8510 O   0  0  0  0  0  0  0  0  0  0  0  0
  183.4690  178.3320  142.2640 C   0  0  1  0  0  3  0  0  0  0  0  0
  185.5260  177.4430  143.3780 C   0  0  1  0  0  3  0  0  0  0  0  0
  185.2270  178.5480  144.3030 N   0  0  0  0  0  0  0  0  0  0  0  0
  192.8870  176.5130  138.0920 C   0  0  0  0  0  0  0  0  0  0  0  0
  184.4430  177.9840  137.7270 C   0  0  0  0  0  2  0  0  0  0  0  0
  184.8380  179.8650  143.7910 C   0  0  0  0  0  2  0  0  0  0  0  0
  191.6580  177.1400  140.6230 C   0  0  0  0  0  0  0  0  0  0  0  0
  190.9300  177.5930  139.3790 C   0  0  1  0  0  3  0  0  0  0  0  0
  183.6680  179.7550  142.7980 C   0  0  0  0  0  2  0  0  0  0  0  0
  191.3040  176.3750  135.7770 C   0  0  0  0  0  0  0  0  0  0  0  0
  188.8680  177.8440  138.1660 O   0  0  0  0  0  0  0  0  0  0  0  0
  185.7120  179.4540  146.5670 N   0  0  0  0  0  2  0  0  0  0  0  0
  182.4920  178.2640  141.0810 C   0  0  0  0  0  2  0  0  0  0  0  0
  191.4910  176.9540  138.1400 C   0  0  0  0  0  0  0  0  0  0  0  0
  189.2330  176.8610  137.2230 C   0  0  2  0  0  3  0  0  0  0  0  0
  189.7190  175.8270  143.3840 C   0  0  0  0  0  2  0  0  0  0  0  0
  184.7970  177.6120  142.0420 C   0  0  0  0  0  2  0  0  0  0  0  0
  185.9520  177.2060  135.9510 C   0  0  0  0  0  3  0  0  0  0  0  0
  192.6150  176.0790  135.6940 C   0  0  0  0  0  0  0  0  0  0  0  0
  181.7700  179.7970  137.7040 C   0  0  0  0  0  2  0  0  0  0  0  0
  190.4560  176.3610  134.6220 N   0  0  0  0  0  0  0  0  0  0  0  0
  182.3270  181.1390  138.2150 C   0  0  0  0  0  2  0  0  0  0  0  0
  181.7010  178.7450  138.8160 C   0  0  0  0  0  2  0  0  0  0  0  0
  190.7250  176.7920  137.0600 C   0  0  0  0  0  0  0  0  0  0  0  0
  187.7300  176.6750  144.2820 C   0  0  0  0  0  2  0  0  0  0  0  0
  182.6700  181.1070  139.5830 O   0  0  0  0  0  0  0  0  0  0  0  0
  193.5720  176.3840  139.2370 C   0  0  0  0  0  0  0  0  0  0  0  0
  185.2390  177.1990  146.2120 O   0  0  0  0  0  0  0  0  0  0  0  0
  183.6310  180.0960  139.7390 C   0  0  0  0  0  2  0  0  0  0  0  0
  185.2630  176.8200  137.2120 C   0  0  0  0  0  2  0  0  0  0  0  0
  192.9110  176.6510  140.5370 C   0  0  0  0  0  3  0  0  0  0  0  0
  185.3800  178.3510  145.7190 C   0  0  0  0  0  0  0  0  0  0  0  0
  189.1620  176.8960  144.1980 N   0  0  0  0  0  2  0  0  0  0  0  0
  191.1140  176.2080  142.8990 C   0  0  0  0  0  2  0  0  0  0  0  0
  187.2490  177.1410  135.9010 C   0  0  0  0  0  0  0  0  0  0  0  0
  182.9690  178.7060  139.6860 C   0  0  1  0  0  0  0  0  0  0  0  0
  183.9430  177.6560  139.1330 C   0  0  0  0  0  2  0  0  0  0  0  0
  187.0240  177.3540  143.1170 C   0  0  0  0  0  2  0  0  0  0  0  0
  191.6080  178.6560  142.6110 C   0  0  0  0  0  2  0  0  0  0  0  0
  190.5670  179.3110  143.3900 N   0  0  0  0  0  1  0  0  0  0  0  0
  194.1980  174.6650  134.3600 C   0  0  0  0  0  1  0  0  0  0  0  0
  193.1870  175.7030  134.4430 N   0  0  0  0  0  2  0  0  0  0  0  0
  195.9790  175.3030  139.2010 C   0  0  0  0  0  0  0  0  0  0  0  0
  194.8850  175.7980  139.2440 C   0  0  0  0  0  0  0  0  0  0  0  0
  197.3050  174.6900  139.1270 C   0  0  0  0  0  2  0  0  0  0  0  0
  197.3340  173.6470  138.0290 C   0  0  0  0  0  2  0  0  0  0  0  0
  196.0380  173.1930  137.7830 O   0  0  0  0  0  0  0  0  0  0  0  0
  196.0850  172.5820  136.5250 C   0  0  1  0  0  3  0  0  0  0  0  0
  197.4670  171.9640  136.2790 C   0  0  1  0  0  3  0  0  0  0  0  0
  197.3440  170.6140  135.9480 O   0  0  0  0  0  1  0  0  0  0  0  0
  198.3010  172.6960  135.2230 C   0  0  0  0  0  2  0  0  0  0  0  0
  198.4220  175.1060  134.4640 C   0  0  0  0  0  3  0  0  0  0  0  0
  199.6770  175.0620  134.3650 O   0  0  0  0  0  0  0  0  0  0  0  0
  197.6710  173.9410  134.8090 N   0  0  0  0  0  2  0  0  0  0  0  0
  194.9700  171.5440  136.4000 C   0  0  0  0  0  2  0  0  0  0  0  0
  193.5950  172.1900  136.3730 C   0  0  0  0  0  2  0  0  0  0  0  0
  192.6420  171.2710  135.9280 O   0  0  0  0  0  0  0  0  0  0  0  0
  192.9660  168.9510  135.6490 C   0  0  0  0  0  2  0  0  0  0  0  0
  193.3720  170.3340  135.1980 C   0  0  0  0  0  3  0  0  0  0  0  0
  192.4310  169.5010  134.3460 C   0  0  0  0  0  2  0  0  0  0  0  0
  185.9810  179.2590  147.9860 C   0  0  0  0  0  2  0  0  0  0  0  0
  187.4580  178.9640  148.2050 C   0  0  0  0  0  2  0  0  0  0  0  0
  187.7260  177.4710  148.1310 C   0  0  0  0  0  1  0  0  0  0  0  0
  2  1  1  0  0  0  0
  3 44  1  1  0  0  0
  3 39  1  0  0  0  0
  5  9  1  0  0  0  0
  6 18  1  6  0  0  0
  6 14  1  0  0  0  0
  7 22  1  6  0  0  0
  7  8  1  0  0  0  0
  8 37  1  0  0  0  0
  9 19  1  0  0  0  0
  9 32  2  0  0  0  0
 10 42  1  0  0  0  0
 11  8  1  0  0  0  0
 12  3  1  0  0  0  0
 13  4  1  1  0  0  0
 13 12  1  0  0  0  0
 14 11  1  0  0  0  0
 15 29  1  0  0  0  0
 16  4  1  0  0  0  0
 17 66  1  0  0  0  0
 19 13  1  0  0  0  0
 20  1  1  6  0  0  0
 20 16  1  0  0  0  0
 21 38  1  0  0  0  0
 22  6  1  0  0  0  0
 23 35  1  0  0  0  0
 24 15  2  0  0  0  0
 24  5  1  0  0  0  0
 25 27  1  0  0  0  0
 25 28  1  0  0  0  0
 26  2  2  0  0  0  0
 26 15  1  0  0  0  0
 27 31  1  0  0  0  0
 29 20  1  0  0  0  0
 29 19  2  0  0  0  0
 31 34  1  0  0  0  0
 32 49  1  0  0  0  0
 32 36  1  0  0  0  0
 35 10  1  0  0  0  0
 36 12  2  0  0  0  0
 37 33  2  0  0  0  0
 37 17  1  0  0  0  0
 38 30  1  0  0  0  0
 39 21  1  0  0  0  0
 40  1  2  0  0  0  0
 40 23  2  0  0  0  0
 41 28  1  6  0  0  0
 41 34  1  0  0  0  0
 41 18  1  0  0  0  0
 42 41  1  0  0  0  0
 43  7  1  0  0  0  0
 43 30  1  0  0  0  0
 44 45  1  0  0  0  0
 46 47  1  0  0  0  0
 47 24  1  0  0  0  0
 48 49  3  0  0  0  0
 50 48  1  0  0  0  0
 51 50  1  0  0  0  0
 52 51  1  0  0  0  0
 53 60  1  1  0  0  0
 53 52  1  0  0  0  0
 54 55  1  6  0  0  0
 54 53  1  0  0  0  0
 56 54  1  0  0  0  0
 57 59  1  0  0  0  0
 58 57  2  0  0  0  0
 59 56  1  0  0  0  0
 61 60  1  0  0  0  0
 62 61  1  0  0  0  0
 64 63  1  0  0  0  0
 64 62  1  0  0  0  0
 65 64  1  0  0  0  0
 65 63  1  0  0  0  0
 66 67  1  0  0  0  0
 68 67  1  0  0  0  0
M  END
>  <MODEL>
1

>  <REMARK>
 VINA RESULT:      -3.5      0.000      0.000
  Name = 
  16 active torsions:
  status: ('A' for Active; 'I' for Inactive)
    1  A    between atoms: C_2  and  C_13
    2  A    between atoms: C_2  and  N_56
    3  A    between atoms: C_5  and  C_54
    4  A    between atoms: O_9  and  C_39
    5  A    between atoms: O_9  and  C_68
    6  A    between atoms: C_13  and  C_68
    7  A    between atoms: C_21  and  O_46
    8  A    between atoms: N_23  and  C_29
    9  A    between atoms: C_29  and  C_45
   10  A    between atoms: C_32  and  N_64
   11  A    between atoms: C_39  and  C_52
   12  A    between atoms: C_41  and  C_52
   13  A    between atoms: C_44  and  C_55
   14  A    between atoms: O_46  and  C_53
   15  A    between atoms: C_53  and  C_61
   16  A    between atoms: C_61  and  C_68
                            x       y       z     vdW  Elec       q    Type
                         _______ _______ _______ _____ _____    ______ ____

>  <TORSDO>
F 16

$$$$
