=
 OpenBabel10232412313D

 29 31  0  0  1  0  0  0  0  0999 V2000
  187.4830  178.6030  138.5510 N   0  0  0  0  0  0  0  0  0  0  0  0
  183.5350  179.0210  138.4240 N   0  0  0  0  0  1  0  0  0  0  0  0
  183.3230  178.4020  142.0200 C   0  0  0  0  0  3  0  0  0  0  0  0
  185.4630  178.6740  139.7800 C   0  0  0  0  0  0  0  0  0  0  0  0
  183.1770  178.1560  140.7220 C   0  0  0  0  0  0  0  0  0  0  0  0
  188.2000  178.3840  139.6740 C   0  0  0  0  0  3  0  0  0  0  0  0
  185.7750  178.7400  142.2170 C   0  0  0  0  0  3  0  0  0  0  0  0
  184.4410  179.0690  142.5990 N   0  0  0  0  0  0  0  0  0  0  0  0
  186.1610  178.7460  138.6100 N   0  0  0  0  0  0  0  0  0  0  0  0
  186.2250  178.5400  140.9770 C   0  0  0  0  0  0  0  0  0  0  0  0
  184.1120  178.6770  139.6870 C   0  0  0  0  0  0  0  0  0  0  0  0
  187.5680  178.3640  140.8700 N   0  0  0  0  0  0  0  0  0  0  0  0
  184.0150  178.8140  146.1010 O   0  0  0  0  0  0  0  0  0  0  0  0
  185.3940  179.0310  145.9160 C   0  0  2  0  0  3  0  0  0  0  0  0
  183.4270  178.8520  144.8250 C   0  0  0  0  0  2  0  0  0  0  0  0
  184.2930  179.6930  143.9130 C   0  0  1  0  0  3  0  0  0  0  0  0
  185.6110  179.7890  144.6260 C   0  0  0  0  0  2  0  0  0  0  0  0
  186.1390  177.7030  145.8650 C   0  0  0  0  0  2  0  0  0  0  0  0
  187.6330  177.8960  146.1280 C   0  0  1  0  0  3  0  0  0  0  0  0
  188.0070  177.3720  147.5170 C   0  0  2  0  0  3  0  0  0  0  0  0
  188.1610  178.4370  148.4070 O   0  0  0  0  0  1  0  0  0  0  0  0
  189.2530  176.6270  147.4530 N   0  0  0  0  0  1  0  0  0  0  0  0
  188.5030  177.2560  145.0330 C   0  0  2  0  0  3  0  0  0  0  0  0
  189.3060  178.2200  144.4210 O   0  0  0  0  0  1  0  0  0  0  0  0
  188.2450  175.8900  143.1240 O   0  0  0  0  0  0  0  0  0  0  0  0
  187.6920  176.5290  144.0030 C   0  0  0  0  0  3  0  0  0  0  0  0
  180.7890  177.9300  140.4270 N   0  0  0  0  0  2  0  0  0  0  0  0
  181.9630  177.4010  140.3070 C   0  0  0  0  0  0  0  0  0  0  0  0
  182.0680  176.0680  139.6390 C   0  0  0  0  0  1  0  0  0  0  0  0
  1  9  2  0  0  0  0
  1  6  1  0  0  0  0
  2 11  1  0  0  0  0
  3  8  1  0  0  0  0
  4 10  1  0  0  0  0
  5  3  2  0  0  0  0
  6 12  2  0  0  0  0
  7  8  1  0  0  0  0
  9  4  1  0  0  0  0
 10  7  2  0  0  0  0
 11  4  2  0  0  0  0
 11  5  1  0  0  0  0
 12 10  1  0  0  0  0
 14 18  1  6  0  0  0
 14 13  1  0  0  0  0
 15 13  1  0  0  0  0
 16  8  1  6  0  0  0
 16 17  1  0  0  0  0
 16 15  1  0  0  0  0
 17 14  1  0  0  0  0
 19 18  1  6  0  0  0
 19 20  1  0  0  0  0
 20 22  1  6  0  0  0
 20 21  1  0  0  0  0
 23 24  1  6  0  0  0
 23 19  1  0  0  0  0
 25 26  2  0  0  0  0
 26 23  1  0  0  0  0
 28 27  2  0  0  0  0
 28  5  1  0  0  0  0
 29 28  1  0  0  0  0
M  END
>  <MODEL>
1

>  <REMARK>
 VINA RESULT:      -7.9      0.000      0.000
  Name = 
  7 active torsions:
  status: ('A' for Active; 'I' for Inactive)
    1  A    between atoms: C_2  and  C_14
    2  A    between atoms: C_5  and  C_17
    3  A    between atoms: C_7  and  C_14
    4  A    between atoms: C_7  and  C_24
    5  A    between atoms: C_8  and  C_13
    6  A    between atoms: C_13  and  C_14
    7  A    between atoms: C_19  and  N_23
                            x       y       z     vdW  Elec       q    Type
                         _______ _______ _______ _____ _____    ______ ____

>  <TORSDO>
F 7

$$$$
=
 OpenBabel10232412313D

 29 31  0  0  1  0  0  0  0  0999 V2000
  183.9070  178.9810  140.8490 N   0  0  0  0  0  0  0  0  0  0  0  0
  186.1430  177.6180  137.8620 N   0  0  0  0  0  1  0  0  0  0  0  0
  189.1430  177.9260  139.9270 C   0  0  0  0  0  3  0  0  0  0  0  0
  186.0680  178.3350  140.1330 C   0  0  0  0  0  0  0  0  0  0  0  0
  188.2940  178.2140  138.9460 C   0  0  0  0  0  0  0  0  0  0  0  0
  184.3690  179.2930  142.0780 C   0  0  0  0  0  3  0  0  0  0  0  0
  187.7210  178.1870  141.9450 C   0  0  0  0  0  3  0  0  0  0  0  0
  188.7610  177.5160  141.2370 N   0  0  0  0  0  0  0  0  0  0  0  0
  184.7320  178.5150  139.9140 N   0  0  0  0  0  0  0  0  0  0  0  0
  186.5400  178.5720  141.4560 C   0  0  0  0  0  0  0  0  0  0  0  0
  186.8240  178.0080  139.0580 C   0  0  0  0  0  0  0  0  0  0  0  0
  185.6720  179.0790  142.3700 N   0  0  0  0  0  0  0  0  0  0  0  0
  191.0660  177.4160  143.9180 O   0  0  0  0  0  0  0  0  0  0  0  0
  189.8790  176.8610  144.4350 C   0  0  2  0  0  3  0  0  0  0  0  0
  190.8180  177.7060  142.5660 C   0  0  0  0  0  2  0  0  0  0  0  0
  189.7240  176.7890  142.0620 C   0  0  1  0  0  3  0  0  0  0  0  0
  189.0820  176.2480  143.3070 C   0  0  0  0  0  2  0  0  0  0  0  0
  189.0500  177.9340  145.1300 C   0  0  0  0  0  2  0  0  0  0  0  0
  188.2500  177.3480  146.2960 C   0  0  1  0  0  3  0  0  0  0  0  0
  188.7530  177.9070  147.6280 C   0  0  2  0  0  3  0  0  0  0  0  0
  190.0680  177.4960  147.8570 O   0  0  0  0  0  1  0  0  0  0  0  0
  187.9150  177.4360  148.7180 N   0  0  0  0  0  1  0  0  0  0  0  0
  186.7370  177.5650  146.1300 C   0  0  2  0  0  3  0  0  0  0  0  0
  186.2930  177.0160  144.9260 O   0  0  0  0  0  1  0  0  0  0  0  0
  185.6050  179.3990  147.0970 O   0  0  0  0  0  0  0  0  0  0  0  0
  186.3500  179.0120  146.2120 C   0  0  0  0  0  3  0  0  0  0  0  0
  188.9450  179.9350  137.3790 N   0  0  0  0  0  2  0  0  0  0  0  0
  188.8790  178.6740  137.6560 C   0  0  0  0  0  0  0  0  0  0  0  0
  189.5060  177.7100  136.7010 C   0  0  0  0  0  1  0  0  0  0  0  0
  1  6  1  0  0  0  0
  2 11  1  0  0  0  0
  3  8  1  0  0  0  0
  4 10  1  0  0  0  0
  5 11  1  0  0  0  0
  5  3  2  0  0  0  0
  6 12  2  0  0  0  0
  8  7  1  0  0  0  0
  9  4  1  0  0  0  0
  9  1  2  0  0  0  0
 10  7  2  0  0  0  0
 10 12  1  0  0  0  0
 11  4  2  0  0  0  0
 13 14  1  0  0  0  0
 14 18  1  6  0  0  0
 15 13  1  0  0  0  0
 16  8  1  1  0  0  0
 16 15  1  0  0  0  0
 16 17  1  0  0  0  0
 17 14  1  0  0  0  0
 19 18  1  6  0  0  0
 19 20  1  0  0  0  0
 20 21  1  1  0  0  0
 20 22  1  0  0  0  0
 23 24  1  6  0  0  0
 23 26  1  0  0  0  0
 23 19  1  0  0  0  0
 26 25  2  0  0  0  0
 27 28  2  0  0  0  0
 28  5  1  0  0  0  0
 29 28  1  0  0  0  0
M  END
>  <MODEL>
2

>  <REMARK>
 VINA RESULT:      -7.2      2.019      4.773
  Name = 
  7 active torsions:
  status: ('A' for Active; 'I' for Inactive)
    1  A    between atoms: C_2  and  C_14
    2  A    between atoms: C_5  and  C_17
    3  A    between atoms: C_7  and  C_14
    4  A    between atoms: C_7  and  C_24
    5  A    between atoms: C_8  and  C_13
    6  A    between atoms: C_13  and  C_14
    7  A    between atoms: C_19  and  N_23
                            x       y       z     vdW  Elec       q    Type
                         _______ _______ _______ _____ _____    ______ ____

>  <TORSDO>
F 7

$$$$
=
 OpenBabel10232412313D

 29 31  0  0  1  0  0  0  0  0999 V2000
  182.8750  178.8320  144.7770 N   0  0  0  0  0  0  0  0  0  0  0  0
  182.7980  177.8020  140.9410 N   0  0  0  0  0  1  0  0  0  0  0  0
  186.4030  178.3530  140.6900 C   0  0  0  0  0  3  0  0  0  0  0  0
  184.1310  178.4360  142.8120 C   0  0  0  0  0  0  0  0  0  0  0  0
  185.1100  178.5830  140.4870 C   0  0  0  0  0  0  0  0  0  0  0  0
  183.9900  179.1520  145.4670 C   0  0  0  0  0  3  0  0  0  0  0  0
  186.5630  178.4020  143.1670 C   0  0  0  0  0  3  0  0  0  0  0  0
  186.9600  177.8650  141.9070 N   0  0  0  0  0  0  0  0  0  0  0  0
  182.9500  178.4840  143.4940 N   0  0  0  0  0  0  0  0  0  0  0  0
  185.3180  178.6790  143.5620 C   0  0  0  0  0  0  0  0  0  0  0  0
  184.0560  178.2220  141.4760 C   0  0  0  0  0  0  0  0  0  0  0  0
  185.1940  179.0650  144.8580 N   0  0  0  0  0  0  0  0  0  0  0  0
  190.3790  177.7820  142.8090 O   0  0  0  0  0  0  0  0  0  0  0  0
  189.7380  176.9300  143.7290 C   0  0  2  0  0  3  0  0  0  0  0  0
  189.3880  178.2340  141.9210 C   0  0  0  0  0  2  0  0  0  0  0  0
  188.2690  177.2150  141.8780 C   0  0  1  0  0  3  0  0  0  0  0  0
  188.4870  176.3640  143.0970 C   0  0  0  0  0  2  0  0  0  0  0  0
  189.3760  177.6920  144.9970 C   0  0  0  0  0  2  0  0  0  0  0  0
  189.5480  176.8150  146.2390 C   0  0  1  0  0  3  0  0  0  0  0  0
  190.9330  177.0230  146.8560 C   0  0  2  0  0  3  0  0  0  0  0  0
  191.8410  177.4280  145.8750 O   0  0  0  0  0  1  0  0  0  0  0  0
  191.4060  175.7850  147.4540 N   0  0  0  0  0  1  0  0  0  0  0  0
  188.4330  177.0450  147.2720 C   0  0  2  0  0  3  0  0  0  0  0  0
  187.2060  177.2360  146.6330 O   0  0  0  0  0  1  0  0  0  0  0  0
  188.2800  178.2040  149.3250 O   0  0  0  0  0  0  0  0  0  0  0  0
  188.7230  178.1960  148.1880 C   0  0  0  0  0  3  0  0  0  0  0  0
  184.3290  180.3680  139.0590 N   0  0  0  0  0  2  0  0  0  0  0  0
  184.7190  179.1400  139.1630 C   0  0  0  0  0  0  0  0  0  0  0  0
  184.8730  178.3420  137.9090 C   0  0  0  0  0  1  0  0  0  0  0  0
  1  6  1  0  0  0  0
  2 11  1  0  0  0  0
  3  8  1  0  0  0  0
  4  9  1  0  0  0  0
  4 10  1  0  0  0  0
  5  3  2  0  0  0  0
  5 11  1  0  0  0  0
  7 10  2  0  0  0  0
  8  7  1  0  0  0  0
  9  1  2  0  0  0  0
 10 12  1  0  0  0  0
 11  4  2  0  0  0  0
 12  6  2  0  0  0  0
 13 14  1  0  0  0  0
 14 18  1  1  0  0  0
 15 13  1  0  0  0  0
 16  8  1  1  0  0  0
 16 15  1  0  0  0  0
 16 17  1  0  0  0  0
 17 14  1  0  0  0  0
 19 18  1  6  0  0  0
 19 20  1  0  0  0  0
 19 23  1  0  0  0  0
 20 21  1  6  0  0  0
 20 22  1  0  0  0  0
 23 24  1  6  0  0  0
 23 26  1  0  0  0  0
 26 25  2  0  0  0  0
 27 28  2  0  0  0  0
 28  5  1  0  0  0  0
 29 28  1  0  0  0  0
M  END
>  <MODEL>
3

>  <REMARK>
 VINA RESULT:      -7.0      1.948      4.461
  Name = 
  7 active torsions:
  status: ('A' for Active; 'I' for Inactive)
    1  A    between atoms: C_2  and  C_14
    2  A    between atoms: C_5  and  C_17
    3  A    between atoms: C_7  and  C_14
    4  A    between atoms: C_7  and  C_24
    5  A    between atoms: C_8  and  C_13
    6  A    between atoms: C_13  and  C_14
    7  A    between atoms: C_19  and  N_23
                            x       y       z     vdW  Elec       q    Type
                         _______ _______ _______ _____ _____    ______ ____

>  <TORSDO>
F 7

$$$$
=
 OpenBabel10232412313D

 29 31  0  0  1  0  0  0  0  0999 V2000
  184.1090  179.0500  140.9710 N   0  0  0  0  0  0  0  0  0  0  0  0
  186.1980  177.6680  137.8880 N   0  0  0  0  0  1  0  0  0  0  0  0
  189.2730  177.8350  139.8570 C   0  0  0  0  0  3  0  0  0  0  0  0
  186.2220  178.3450  140.1730 C   0  0  0  0  0  0  0  0  0  0  0  0
  188.4030  178.1710  138.9100 C   0  0  0  0  0  0  0  0  0  0  0  0
  184.6220  179.3230  142.1900 C   0  0  0  0  0  3  0  0  0  0  0  0
  187.9270  178.1060  141.9260 C   0  0  0  0  0  3  0  0  0  0  0  0
  188.9200  177.4140  141.1720 N   0  0  0  0  0  0  0  0  0  0  0  0
  184.8870  178.5740  140.0020 N   0  0  0  0  0  0  0  0  0  0  0  0
  186.7450  178.5410  141.4830 C   0  0  0  0  0  0  0  0  0  0  0  0
  186.9310  178.0130  139.0670 C   0  0  0  0  0  0  0  0  0  0  0  0
  185.9250  179.0590  142.4350 N   0  0  0  0  0  0  0  0  0  0  0  0
  191.5060  177.2390  143.5780 O   0  0  0  0  0  0  0  0  0  0  0  0
  190.3350  176.8860  144.2750 C   0  0  2  0  0  3  0  0  0  0  0  0
  191.1310  177.4460  142.2400 C   0  0  0  0  0  2  0  0  0  0  0  0
  189.8840  176.6390  141.9520 C   0  0  1  0  0  3  0  0  0  0  0  0
  189.3380  176.2900  143.3070 C   0  0  0  0  0  2  0  0  0  0  0  0
  189.7290  178.1110  144.9510 C   0  0  0  0  0  2  0  0  0  0  0  0
  189.3640  177.8160  146.4070 C   0  0  1  0  0  3  0  0  0  0  0  0
  187.8480  177.6630  146.5600 C   0  0  2  0  0  3  0  0  0  0  0  0
  187.2000  178.1290  145.4150 O   0  0  0  0  0  1  0  0  0  0  0  0
  187.3820  178.4220  147.7080 N   0  0  0  0  0  1  0  0  0  0  0  0
  190.1110  176.5900  146.9570 C   0  0  2  0  0  3  0  0  0  0  0  0
  189.2870  175.8610  147.8160 O   0  0  0  0  0  1  0  0  0  0  0  0
  192.3570  176.2170  147.5880 O   0  0  0  0  0  0  0  0  0  0  0  0
  191.3880  176.9560  147.6520 C   0  0  0  0  0  3  0  0  0  0  0  0
  188.9520  179.8910  137.3040 N   0  0  0  0  0  2  0  0  0  0  0  0
  188.9610  178.6350  137.6110 C   0  0  0  0  0  0  0  0  0  0  0  0
  189.6460  177.6880  136.6780 C   0  0  0  0  0  1  0  0  0  0  0  0
  1  6  1  0  0  0  0
  2 11  1  0  0  0  0
  3  8  1  0  0  0  0
  4 10  1  0  0  0  0
  5 11  1  0  0  0  0
  5  3  2  0  0  0  0
  6 12  2  0  0  0  0
  8  7  1  0  0  0  0
  9  4  1  0  0  0  0
  9  1  2  0  0  0  0
 10  7  2  0  0  0  0
 10 12  1  0  0  0  0
 11  4  2  0  0  0  0
 13 14  1  0  0  0  0
 14 18  1  6  0  0  0
 15 13  1  0  0  0  0
 16  8  1  6  0  0  0
 16 15  1  0  0  0  0
 16 17  1  0  0  0  0
 17 14  1  0  0  0  0
 19 18  1  6  0  0  0
 19 20  1  0  0  0  0
 19 23  1  0  0  0  0
 20 21  1  6  0  0  0
 20 22  1  0  0  0  0
 23 26  1  0  0  0  0
 23 24  1  1  0  0  0
 25 26  2  0  0  0  0
 27 28  2  0  0  0  0
 28  5  1  0  0  0  0
 29 28  1  0  0  0  0
M  END
>  <MODEL>
4

>  <REMARK>
 VINA RESULT:      -7.0      2.354      5.029
  Name = 
  7 active torsions:
  status: ('A' for Active; 'I' for Inactive)
    1  A    between atoms: C_2  and  C_14
    2  A    between atoms: C_5  and  C_17
    3  A    between atoms: C_7  and  C_14
    4  A    between atoms: C_7  and  C_24
    5  A    between atoms: C_8  and  C_13
    6  A    between atoms: C_13  and  C_14
    7  A    between atoms: C_19  and  N_23
                            x       y       z     vdW  Elec       q    Type
                         _______ _______ _______ _____ _____    ______ ____

>  <TORSDO>
F 7

$$$$
=
 OpenBabel10232412313D

 29 31  0  0  1  0  0  0  0  0999 V2000
  187.2330  178.0820  137.3570 N   0  0  0  0  0  0  0  0  0  0  0  0
  186.0680  179.5380  140.8640 N   0  0  0  0  0  1  0  0  0  0  0  0
  188.5220  177.4430  142.5830 C   0  0  0  0  0  3  0  0  0  0  0  0
  187.5870  178.1210  139.6960 C   0  0  0  0  0  0  0  0  0  0  0  0
  187.3200  177.8580  142.1940 C   0  0  0  0  0  0  0  0  0  0  0  0
  188.2400  177.2000  137.1840 C   0  0  0  0  0  3  0  0  0  0  0  0
  189.6490  176.9950  140.4170 C   0  0  0  0  0  3  0  0  0  0  0  0
  189.6890  177.4550  141.7650 N   0  0  0  0  0  0  0  0  0  0  0  0
  186.9250  178.5260  138.5730 N   0  0  0  0  0  0  0  0  0  0  0  0
  188.7100  177.2660  139.5060 C   0  0  0  0  0  0  0  0  0  0  0  0
  187.0760  178.5220  140.8840 C   0  0  0  0  0  0  0  0  0  0  0  0
  188.9700  176.8090  138.2540 N   0  0  0  0  0  0  0  0  0  0  0  0
  191.9320  178.6210  144.2390 O   0  0  0  0  0  0  0  0  0  0  0  0
  191.4270  177.4080  144.7460 C   0  0  2  0  0  3  0  0  0  0  0  0
  191.3630  178.7920  142.9660 C   0  0  0  0  0  2  0  0  0  0  0  0
  191.0030  177.4330  142.4050 C   0  0  1  0  0  3  0  0  0  0  0  0
  191.0190  176.5170  143.5950 C   0  0  0  0  0  2  0  0  0  0  0  0
  190.2270  177.6670  145.6490 C   0  0  0  0  0  2  0  0  0  0  0  0
  190.1900  176.6820  146.8180 C   0  0  1  0  0  3  0  0  0  0  0  0
  191.6070  176.3730  147.3070 C   0  0  2  0  0  3  0  0  0  0  0  0
  191.6750  175.0640  147.7880 O   0  0  0  0  0  1  0  0  0  0  0  0
  191.9800  177.2880  148.3720 N   0  0  0  0  0  1  0  0  0  0  0  0
  189.2940  177.1750  147.9670 C   0  0  2  0  0  3  0  0  0  0  0  0
  188.4190  176.1660  148.3720 O   0  0  0  0  0  1  0  0  0  0  0  0
  187.3280  178.4760  147.8250 O   0  0  0  0  0  0  0  0  0  0  0  0
  188.5270  178.4120  147.6080 C   0  0  0  0  0  3  0  0  0  0  0  0
  184.9770  177.7560  142.7750 N   0  0  0  0  0  2  0  0  0  0  0  0
  186.2070  177.7220  143.1720 C   0  0  0  0  0  0  0  0  0  0  0  0
  186.4710  177.4300  144.6150 C   0  0  0  0  0  1  0  0  0  0  0  0
  1  9  2  0  0  0  0
  2 11  1  0  0  0  0
  4 11  2  0  0  0  0
  5  3  2  0  0  0  0
  5 28  1  0  0  0  0
  6  1  1  0  0  0  0
  6 12  2  0  0  0  0
  7  8  1  0  0  0  0
  8  3  1  0  0  0  0
  9  4  1  0  0  0  0
 10  4  1  0  0  0  0
 10  7  2  0  0  0  0
 11  5  1  0  0  0  0
 12 10  1  0  0  0  0
 13 14  1  0  0  0  0
 14 18  1  1  0  0  0
 15 13  1  0  0  0  0
 16  8  1  1  0  0  0
 16 15  1  0  0  0  0
 16 17  1  0  0  0  0
 17 14  1  0  0  0  0
 19 18  1  6  0  0  0
 19 20  1  0  0  0  0
 19 23  1  0  0  0  0
 20 21  1  1  0  0  0
 20 22  1  0  0  0  0
 23 24  1  6  0  0  0
 26 25  2  0  0  0  0
 26 23  1  0  0  0  0
 27 28  2  0  0  0  0
 28 29  1  0  0  0  0
M  END
>  <MODEL>
5

>  <REMARK>
 VINA RESULT:      -6.6      2.876      4.804
  Name = 
  7 active torsions:
  status: ('A' for Active; 'I' for Inactive)
    1  A    between atoms: C_2  and  C_14
    2  A    between atoms: C_5  and  C_17
    3  A    between atoms: C_7  and  C_14
    4  A    between atoms: C_7  and  C_24
    5  A    between atoms: C_8  and  C_13
    6  A    between atoms: C_13  and  C_14
    7  A    between atoms: C_19  and  N_23
                            x       y       z     vdW  Elec       q    Type
                         _______ _______ _______ _____ _____    ______ ____

>  <TORSDO>
F 7

$$$$
=
 OpenBabel10232412313D

 29 31  0  0  1  0  0  0  0  0999 V2000
  183.4780  179.1690  144.7450 N   0  0  0  0  0  0  0  0  0  0  0  0
  186.3270  179.7280  147.4570 N   0  0  0  0  0  1  0  0  0  0  0  0
  188.5550  177.4850  145.6230 C   0  0  0  0  0  3  0  0  0  0  0  0
  185.7090  178.7150  145.3900 C   0  0  0  0  0  0  0  0  0  0  0  0
  187.7610  177.8880  146.6100 C   0  0  0  0  0  0  0  0  0  0  0  0
  183.6120  178.4200  143.6300 C   0  0  0  0  0  3  0  0  0  0  0  0
  187.0490  177.6060  143.6540 C   0  0  0  0  0  3  0  0  0  0  0  0
  188.3380  177.7590  144.2420 N   0  0  0  0  0  0  0  0  0  0  0  0
  184.4970  179.3100  145.5900 N   0  0  0  0  0  0  0  0  0  0  0  0
  185.8830  178.0040  144.1680 C   0  0  0  0  0  0  0  0  0  0  0  0
  186.6080  178.8070  146.3990 C   0  0  0  0  0  0  0  0  0  0  0  0
  184.8080  177.8560  143.3500 N   0  0  0  0  0  0  0  0  0  0  0  0
  189.7520  176.7100  141.1740 O   0  0  0  0  0  0  0  0  0  0  0  0
  189.3900  178.0550  140.9690 C   0  0  2  0  0  3  0  0  0  0  0  0
  189.4410  176.4100  142.5120 C   0  0  0  0  0  2  0  0  0  0  0  0
  189.4700  177.6900  143.3190 C   0  0  1  0  0  3  0  0  0  0  0  0
  189.4080  178.7850  142.2920 C   0  0  0  0  0  2  0  0  0  0  0  0
  188.0010  178.1430  140.3490 C   0  0  0  0  0  2  0  0  0  0  0  0
  188.0430  177.8390  138.8500 C   0  0  1  0  0  3  0  0  0  0  0  0
  186.7670  178.3340  138.1650 C   0  0  2  0  0  3  0  0  0  0  0  0
  185.8520  178.7820  139.1200 O   0  0  0  0  0  1  0  0  0  0  0  0
  186.1610  177.2590  137.3980 N   0  0  0  0  0  1  0  0  0  0  0  0
  189.3010  178.4120  138.1760 C   0  0  2  0  0  3  0  0  0  0  0  0
  188.9780  179.5370  137.4160 O   0  0  0  0  0  1  0  0  0  0  0  0
  190.6780  176.5210  137.8480 O   0  0  0  0  0  0  0  0  0  0  0  0
  190.0120  177.4010  137.3270 C   0  0  0  0  0  3  0  0  0  0  0  0
  187.4750  176.5070  148.5710 N   0  0  0  0  0  2  0  0  0  0  0  0
  188.1230  177.4620  147.9890 C   0  0  0  0  0  0  0  0  0  0  0  0
  189.3080  178.0390  148.6950 C   0  0  0  0  0  1  0  0  0  0  0  0
  1  9  2  0  0  0  0
  3  5  2  0  0  0  0
  4  9  1  0  0  0  0
  4 11  2  0  0  0  0
  5 28  1  0  0  0  0
  6  1  1  0  0  0  0
  7 10  2  0  0  0  0
  7  8  1  0  0  0  0
  8  3  1  0  0  0  0
 10  4  1  0  0  0  0
 11  5  1  0  0  0  0
 11  2  1  0  0  0  0
 12  6  2  0  0  0  0
 12 10  1  0  0  0  0
 13 15  1  0  0  0  0
 14 18  1  1  0  0  0
 14 13  1  0  0  0  0
 14 17  1  0  0  0  0
 15 16  1  0  0  0  0
 16 17  1  6  0  0  0
 16  8  1  0  0  0  0
 19 18  1  1  0  0  0
 20 22  1  1  0  0  0
 20 19  1  0  0  0  0
 20 21  1  0  0  0  0
 23 24  1  6  0  0  0
 23 19  1  0  0  0  0
 26 25  2  0  0  0  0
 26 23  1  0  0  0  0
 28 27  2  0  0  0  0
 28 29  1  0  0  0  0
M  END
>  <MODEL>
6

>  <REMARK>
 VINA RESULT:      -6.6      3.083      7.376
  Name = 
  7 active torsions:
  status: ('A' for Active; 'I' for Inactive)
    1  A    between atoms: C_2  and  C_14
    2  A    between atoms: C_5  and  C_17
    3  A    between atoms: C_7  and  C_14
    4  A    between atoms: C_7  and  C_24
    5  A    between atoms: C_8  and  C_13
    6  A    between atoms: C_13  and  C_14
    7  A    between atoms: C_19  and  N_23
                            x       y       z     vdW  Elec       q    Type
                         _______ _______ _______ _____ _____    ______ ____

>  <TORSDO>
F 7

$$$$
=
 OpenBabel10232412313D

 29 31  0  0  1  0  0  0  0  0999 V2000
  186.1500  177.2940  137.2600 N   0  0  0  0  0  0  0  0  0  0  0  0
  189.4320  175.0590  137.1140 N   0  0  0  0  0  1  0  0  0  0  0  0
  190.8370  176.8840  139.9520 C   0  0  0  0  0  3  0  0  0  0  0  0
  188.2370  176.7800  138.2500 C   0  0  0  0  0  0  0  0  0  0  0  0
  190.7080  176.4910  138.6890 C   0  0  0  0  0  0  0  0  0  0  0  0
  185.9100  178.2510  138.1810 C   0  0  0  0  0  3  0  0  0  0  0  0
  188.6010  177.8490  140.4330 C   0  0  0  0  0  3  0  0  0  0  0  0
  189.7520  177.1160  140.8460 N   0  0  0  0  0  0  0  0  0  0  0  0
  187.2760  176.5840  137.3010 N   0  0  0  0  0  0  0  0  0  0  0  0
  187.9430  177.7220  139.2780 C   0  0  0  0  0  0  0  0  0  0  0  0
  189.4010  176.1060  138.0890 C   0  0  0  0  0  0  0  0  0  0  0  0
  186.8000  178.4490  139.1800 N   0  0  0  0  0  0  0  0  0  0  0  0
  188.9930  178.1880  144.1300 O   0  0  0  0  0  0  0  0  0  0  0  0
  188.3460  176.9440  143.9920 C   0  0  2  0  0  3  0  0  0  0  0  0
  189.6870  178.4150  142.9290 C   0  0  0  0  0  2  0  0  0  0  0  0
  189.9990  177.0800  142.2860 C   0  0  1  0  0  3  0  0  0  0  0  0
  189.0860  176.1070  142.9750 C   0  0  0  0  0  2  0  0  0  0  0  0
  186.9020  177.1430  143.5470 C   0  0  0  0  0  2  0  0  0  0  0  0
  186.2770  178.3650  144.2220 C   0  0  1  0  0  3  0  0  0  0  0  0
  185.2360  179.0120  143.3050 C   0  0  2  0  0  3  0  0  0  0  0  0
  184.3890  178.0360  142.7760 O   0  0  0  0  0  1  0  0  0  0  0  0
  185.8940  179.7080  142.2130 N   0  0  0  0  0  1  0  0  0  0  0  0
  185.6810  178.0270  145.5980 C   0  0  2  0  0  3  0  0  0  0  0  0
  184.4660  178.6890  145.7800 O   0  0  0  0  0  1  0  0  0  0  0  0
  187.4580  177.5310  147.0730 O   0  0  0  0  0  0  0  0  0  0  0  0
  186.6170  178.3440  146.7260 C   0  0  0  0  0  3  0  0  0  0  0  0
  191.9430  176.5390  136.6130 N   0  0  0  0  0  2  0  0  0  0  0  0
  191.9570  176.3490  137.8910 C   0  0  0  0  0  0  0  0  0  0  0  0
  193.2750  176.0980  138.5510 C   0  0  0  0  0  1  0  0  0  0  0  0
  1  9  2  0  0  0  0
  1  6  1  0  0  0  0
  2 11  1  0  0  0  0
  3  8  1  0  0  0  0
  4 10  1  0  0  0  0
  5  3  2  0  0  0  0
  6 12  2  0  0  0  0
  7  8  1  0  0  0  0
  9  4  1  0  0  0  0
 10  7  2  0  0  0  0
 11  4  2  0  0  0  0
 11  5  1  0  0  0  0
 12 10  1  0  0  0  0
 14 18  1  6  0  0  0
 14 13  1  0  0  0  0
 15 13  1  0  0  0  0
 16  8  1  6  0  0  0
 16 15  1  0  0  0  0
 16 17  1  0  0  0  0
 17 14  1  0  0  0  0
 19 18  1  6  0  0  0
 19 23  1  0  0  0  0
 20 22  1  6  0  0  0
 20 19  1  0  0  0  0
 21 20  1  0  0  0  0
 23 24  1  1  0  0  0
 23 26  1  0  0  0  0
 26 25  2  0  0  0  0
 27 28  2  0  0  0  0
 28 29  1  0  0  0  0
 28  5  1  0  0  0  0
M  END
>  <MODEL>
7

>  <REMARK>
 VINA RESULT:      -6.5      2.635      5.989
  Name = 
  7 active torsions:
  status: ('A' for Active; 'I' for Inactive)
    1  A    between atoms: C_2  and  C_14
    2  A    between atoms: C_5  and  C_17
    3  A    between atoms: C_7  and  C_14
    4  A    between atoms: C_7  and  C_24
    5  A    between atoms: C_8  and  C_13
    6  A    between atoms: C_13  and  C_14
    7  A    between atoms: C_19  and  N_23
                            x       y       z     vdW  Elec       q    Type
                         _______ _______ _______ _____ _____    ______ ____

>  <TORSDO>
F 7

$$$$
=
 OpenBabel10232412313D

 29 31  0  0  1  0  0  0  0  0999 V2000
  186.8590  177.4180  136.9470 N   0  0  0  0  0  0  0  0  0  0  0  0
  189.9450  174.9200  137.0840 N   0  0  0  0  0  1  0  0  0  0  0  0
  191.1580  176.5380  140.1290 C   0  0  0  0  0  3  0  0  0  0  0  0
  188.7700  176.7020  138.1440 C   0  0  0  0  0  0  0  0  0  0  0  0
  191.1440  176.1940  138.8460 C   0  0  0  0  0  0  0  0  0  0  0  0
  186.5920  178.3660  137.8710 C   0  0  0  0  0  3  0  0  0  0  0  0
  188.9660  177.6740  140.3930 C   0  0  0  0  0  3  0  0  0  0  0  0
  189.9990  176.8350  140.9040 N   0  0  0  0  0  0  0  0  0  0  0  0
  187.9120  176.6150  137.0870 N   0  0  0  0  0  0  0  0  0  0  0  0
  188.4370  177.6360  139.1680 C   0  0  0  0  0  0  0  0  0  0  0  0
  189.8870  175.9380  138.0890 C   0  0  0  0  0  0  0  0  0  0  0  0
  187.3750  178.4590  138.9700 N   0  0  0  0  0  0  0  0  0  0  0  0
  189.3310  178.1480  144.1200 O   0  0  0  0  0  0  0  0  0  0  0  0
  188.3160  177.1980  143.8940 C   0  0  2  0  0  3  0  0  0  0  0  0
  190.1760  178.1070  142.9980 C   0  0  0  0  0  2  0  0  0  0  0  0
  190.0760  176.7370  142.3610 C   0  0  1  0  0  3  0  0  0  0  0  0
  188.8220  176.1440  142.9370 C   0  0  0  0  0  2  0  0  0  0  0  0
  187.0780  177.8710  143.3140 C   0  0  0  0  0  2  0  0  0  0  0  0
  185.9670  177.9830  144.3600 C   0  0  1  0  0  3  0  0  0  0  0  0
  186.5420  178.4150  145.7110 C   0  0  2  0  0  3  0  0  0  0  0  0
  186.6970  177.3050  146.5440 O   0  0  0  0  0  1  0  0  0  0  0  0
  185.6520  179.3670  146.3540 N   0  0  0  0  0  1  0  0  0  0  0  0
  184.8350  178.9200  143.9070 C   0  0  2  0  0  3  0  0  0  0  0  0
  183.5950  178.4140  144.3020 O   0  0  0  0  0  1  0  0  0  0  0  0
  183.8830  178.8530  141.7450 O   0  0  0  0  0  0  0  0  0  0  0  0
  184.8460  179.1640  142.4270 C   0  0  0  0  0  3  0  0  0  0  0  0
  193.3190  176.9310  138.0960 N   0  0  0  0  0  2  0  0  0  0  0  0
  192.4600  175.9700  138.1880 C   0  0  0  0  0  0  0  0  0  0  0  0
  192.8730  174.6100  137.7210 C   0  0  0  0  0  1  0  0  0  0  0  0
  1  9  2  0  0  0  0
  1  6  1  0  0  0  0
  2 11  1  0  0  0  0
  3  8  1  0  0  0  0
  4 10  1  0  0  0  0
  5  3  2  0  0  0  0
  6 12  2  0  0  0  0
  7  8  1  0  0  0  0
  9  4  1  0  0  0  0
 10  7  2  0  0  0  0
 11  4  2  0  0  0  0
 11  5  1  0  0  0  0
 12 10  1  0  0  0  0
 14 18  1  6  0  0  0
 14 13  1  0  0  0  0
 15 13  1  0  0  0  0
 16  8  1  6  0  0  0
 16 17  1  0  0  0  0
 16 15  1  0  0  0  0
 17 14  1  0  0  0  0
 19 18  1  6  0  0  0
 19 20  1  0  0  0  0
 20 22  1  1  0  0  0
 20 21  1  0  0  0  0
 23 24  1  6  0  0  0
 23 19  1  0  0  0  0
 25 26  2  0  0  0  0
 26 23  1  0  0  0  0
 27 28  2  0  0  0  0
 28  5  1  0  0  0  0
 29 28  1  0  0  0  0
M  END
>  <MODEL>
8

>  <REMARK>
 VINA RESULT:      -6.5      3.036      6.056
  Name = 
  7 active torsions:
  status: ('A' for Active; 'I' for Inactive)
    1  A    between atoms: C_2  and  C_14
    2  A    between atoms: C_5  and  C_17
    3  A    between atoms: C_7  and  C_14
    4  A    between atoms: C_7  and  C_24
    5  A    between atoms: C_8  and  C_13
    6  A    between atoms: C_13  and  C_14
    7  A    between atoms: C_19  and  N_23
                            x       y       z     vdW  Elec       q    Type
                         _______ _______ _______ _____ _____    ______ ____

>  <TORSDO>
F 7

$$$$
=
 OpenBabel10232412313D

 29 31  0  0  1  0  0  0  0  0999 V2000
  183.4260  179.2090  144.5300 N   0  0  0  0  0  0  0  0  0  0  0  0
  186.1490  179.7240  147.3760 N   0  0  0  0  0  1  0  0  0  0  0  0
  188.4530  177.4960  145.6170 C   0  0  0  0  0  3  0  0  0  0  0  0
  185.6240  178.7400  145.2700 C   0  0  0  0  0  0  0  0  0  0  0  0
  187.6160  177.8900  146.5710 C   0  0  0  0  0  0  0  0  0  0  0  0
  183.6080  178.4740  143.4120 C   0  0  0  0  0  3  0  0  0  0  0  0
  187.0390  177.6480  143.5820 C   0  0  0  0  0  3  0  0  0  0  0  0
  188.3000  177.7890  144.2310 N   0  0  0  0  0  0  0  0  0  0  0  0
  184.4060  179.3360  145.4220 N   0  0  0  0  0  0  0  0  0  0  0  0
  185.8510  178.0440  144.0480 C   0  0  0  0  0  0  0  0  0  0  0  0
  186.4760  178.8150  146.3200 C   0  0  0  0  0  0  0  0  0  0  0  0
  184.8150  177.9090  143.1800 N   0  0  0  0  0  0  0  0  0  0  0  0
  189.9630  176.4960  141.3900 O   0  0  0  0  0  0  0  0  0  0  0  0
  189.4570  177.7450  140.9800 C   0  0  2  0  0  3  0  0  0  0  0  0
  189.6290  176.3520  142.7470 C   0  0  0  0  0  2  0  0  0  0  0  0
  189.4720  177.7280  143.3600 C   0  0  1  0  0  3  0  0  0  0  0  0
  189.3310  178.6510  142.1840 C   0  0  0  0  0  2  0  0  0  0  0  0
  188.0960  177.5760  140.3160 C   0  0  0  0  0  2  0  0  0  0  0  0
  188.1390  178.0080  138.8490 C   0  0  1  0  0  3  0  0  0  0  0  0
  189.0480  177.0790  138.0410 C   0  0  2  0  0  3  0  0  0  0  0  0
  189.6670  177.7890  137.0100 O   0  0  0  0  0  1  0  0  0  0  0  0
  188.2710  175.9930  137.4660 N   0  0  0  0  0  1  0  0  0  0  0  0
  186.7350  178.0990  138.2290 C   0  0  2  0  0  3  0  0  0  0  0  0
  186.7030  179.0770  137.2330 O   0  0  0  0  0  1  0  0  0  0  0  0
  185.2350  179.4960  139.4030 O   0  0  0  0  0  0  0  0  0  0  0  0
  185.6700  178.3660  139.2500 C   0  0  0  0  0  3  0  0  0  0  0  0
  187.5180  176.2870  148.3760 N   0  0  0  0  0  2  0  0  0  0  0  0
  187.9120  177.4450  147.9600 C   0  0  0  0  0  0  0  0  0  0  0  0
  188.7660  178.2670  148.8730 C   0  0  0  0  0  1  0  0  0  0  0  0
  1  9  2  0  0  0  0
  3  5  2  0  0  0  0
  4  9  1  0  0  0  0
  4 11  2  0  0  0  0
  5 28  1  0  0  0  0
  6  1  1  0  0  0  0
  7 10  2  0  0  0  0
  7  8  1  0  0  0  0
  8  3  1  0  0  0  0
 10  4  1  0  0  0  0
 11  5  1  0  0  0  0
 11  2  1  0  0  0  0
 12  6  2  0  0  0  0
 12 10  1  0  0  0  0
 13 15  1  0  0  0  0
 14 18  1  1  0  0  0
 14 13  1  0  0  0  0
 14 17  1  0  0  0  0
 15 16  1  0  0  0  0
 16 17  1  6  0  0  0
 16  8  1  0  0  0  0
 19 18  1  1  0  0  0
 20 21  1  6  0  0  0
 20 19  1  0  0  0  0
 22 20  1  0  0  0  0
 23 24  1  6  0  0  0
 23 19  1  0  0  0  0
 23 26  1  0  0  0  0
 26 25  2  0  0  0  0
 28 27  2  0  0  0  0
 28 29  1  0  0  0  0
M  END
>  <MODEL>
9

>  <REMARK>
 VINA RESULT:      -6.4      3.076      7.382
  Name = 
  7 active torsions:
  status: ('A' for Active; 'I' for Inactive)
    1  A    between atoms: C_2  and  C_14
    2  A    between atoms: C_5  and  C_17
    3  A    between atoms: C_7  and  C_14
    4  A    between atoms: C_7  and  C_24
    5  A    between atoms: C_8  and  C_13
    6  A    between atoms: C_13  and  C_14
    7  A    between atoms: C_19  and  N_23
                            x       y       z     vdW  Elec       q    Type
                         _______ _______ _______ _____ _____    ______ ____

>  <TORSDO>
F 7

$$$$
