=
 OpenBabel10232410003D

 26 29  0  0  1  0  0  0  0  0999 V2000
  190.2760  176.7530  146.8090 C   0  0  0  0  0  1  0  0  0  0  0  0
  188.6670  177.5780  145.1180 C   0  0  0  0  0  0  0  0  0  0  0  0
  188.2840  178.0690  148.8830 C   0  0  0  0  0  1  0  0  0  0  0  0
  186.3450  178.0160  145.7940 C   0  0  0  0  0  0  0  0  0  0  0  0
  187.3480  177.7550  144.7890 C   0  0  0  0  0  0  0  0  0  0  0  0
  187.0700  177.8740  143.4400 C   0  0  0  0  0  0  0  0  0  0  0  0
  187.9750  177.4660  147.5270 C   0  0  1  0  0  3  0  0  0  0  0  0
  186.6620  177.9560  147.0550 N   0  0  0  0  0  0  0  0  0  0  0  0
  189.1400  177.7240  146.5340 C   0  0  1  0  0  3  0  0  0  0  0  0
  188.2130  177.7590  142.6550 C   0  0  0  0  0  0  0  0  0  0  0  0
  189.5570  177.5880  143.6840 S   0  0  0  0  0  0  0  0  0  0  0  0
  184.7270  178.5270  144.0970 C   0  0  0  0  0  3  0  0  0  0  0  0
  185.0470  178.4430  145.3640 N   0  0  0  0  0  0  0  0  0  0  0  0
  185.6740  178.1630  142.9600 C   0  0  0  0  0  2  0  0  0  0  0  0
  188.2290  177.9120  141.2290 N   0  0  0  0  0  2  0  0  0  0  0  0
  189.8760  176.8590  138.0580 C   0  0  0  0  0  3  0  0  0  0  0  0
  191.1940  176.6450  138.4700 C   0  0  0  0  0  0  0  0  0  0  0  0
  188.9110  177.2810  138.9770 C   0  0  0  0  0  3  0  0  0  0  0  0
  189.2530  177.4970  140.3160 C   0  0  0  0  0  0  0  0  0  0  0  0
  191.5400  176.8460  139.8140 C   0  0  0  0  0  3  0  0  0  0  0  0
  190.5730  177.2680  140.7300 C   0  0  0  0  0  3  0  0  0  0  0  0
  192.2070  176.1780  137.4730 C   0  0  1  0  0  3  0  0  0  0  0  0
  193.4290  176.8240  137.6710 O   0  0  0  0  0  1  0  0  0  0  0  0
  192.3870  174.6970  137.5360 C   0  0  0  0  0  0  0  0  0  0  0  0
  191.3770  173.9450  137.5310 O   0  0  0  0  0  0  0  0  0  0  0  0
  193.6580  174.1450  137.6330 O   0  0  0  0  0  1  0  0  0  0  0  0
  2  9  1  0  0  0  0
  4  8  2  0  0  0  0
  5  2  2  0  0  0  0
  5  4  1  0  0  0  0
  6  5  1  0  0  0  0
  7  3  1  1  0  0  0
  8  7  1  0  0  0  0
  9  1  1  1  0  0  0
  9  7  1  0  0  0  0
 10  6  2  0  0  0  0
 10 11  1  0  0  0  0
 11  2  1  0  0  0  0
 12 13  2  0  0  0  0
 13  4  1  0  0  0  0
 14  6  1  0  0  0  0
 14 12  1  0  0  0  0
 15 10  1  0  0  0  0
 16 17  2  0  0  0  0
 16 18  1  0  0  0  0
 17 20  1  0  0  0  0
 18 19  2  0  0  0  0
 19 21  1  0  0  0  0
 19 15  1  0  0  0  0
 20 21  2  0  0  0  0
 22 24  1  0  0  0  0
 22 23  1  1  0  0  0
 22 17  1  0  0  0  0
 24 26  1  0  0  0  0
 25 24  2  0  0  0  0
M  END
>  <MODEL>
1

>  <REMARK>
 VINA RESULT:      -9.0      0.000      0.000
  Name = 
  4 active torsions:
  status: ('A' for Active; 'I' for Inactive)
    1  A    between atoms: N_4  and  C_16
    2  A    between atoms: N_4  and  C_19
    3  A    between atoms: C_10  and  C_11
    4  A    between atoms: C_11  and  C_14
                            x       y       z     vdW  Elec       q    Type
                         _______ _______ _______ _____ _____    ______ ____

>  <TORSDO>
F 4

$$$$
=
 OpenBabel10232410003D

 26 29  0  0  1  0  0  0  0  0999 V2000
  190.5160  176.9200  146.3620 C   0  0  0  0  0  1  0  0  0  0  0  0
  188.7960  177.7180  144.7710 C   0  0  0  0  0  0  0  0  0  0  0  0
  188.4830  177.9180  148.5700 C   0  0  0  0  0  1  0  0  0  0  0  0
  186.4650  177.9110  145.5300 C   0  0  0  0  0  0  0  0  0  0  0  0
  187.4580  177.8050  144.4860 C   0  0  0  0  0  0  0  0  0  0  0  0
  187.1320  177.9910  143.1550 C   0  0  0  0  0  0  0  0  0  0  0  0
  188.1850  177.3840  147.1810 C   0  0  1  0  0  3  0  0  0  0  0  0
  186.8240  177.7920  146.7760 N   0  0  0  0  0  0  0  0  0  0  0  0
  189.2960  177.8070  146.1820 C   0  0  1  0  0  3  0  0  0  0  0  0
  188.2570  178.0270  142.3380 C   0  0  0  0  0  0  0  0  0  0  0  0
  189.6400  177.9010  143.3210 S   0  0  0  0  0  0  0  0  0  0  0  0
  184.7620  178.3970  143.9120 C   0  0  0  0  0  3  0  0  0  0  0  0
  185.1250  178.2550  145.1610 N   0  0  0  0  0  0  0  0  0  0  0  0
  185.7030  178.1940  142.7300 C   0  0  0  0  0  2  0  0  0  0  0  0
  188.2190  178.2790  140.9270 N   0  0  0  0  0  2  0  0  0  0  0  0
  189.0990  176.8130  137.6170 C   0  0  0  0  0  3  0  0  0  0  0  0
  190.3880  176.3250  137.8470 C   0  0  0  0  0  0  0  0  0  0  0  0
  188.3980  177.4590  138.6390 C   0  0  0  0  0  3  0  0  0  0  0  0
  188.9780  177.6260  139.9010 C   0  0  0  0  0  0  0  0  0  0  0  0
  190.9700  176.4770  139.1130 C   0  0  0  0  0  3  0  0  0  0  0  0
  190.2670  177.1230  140.1340 C   0  0  0  0  0  3  0  0  0  0  0  0
  191.1130  175.6220  136.7430 C   0  0  1  0  0  3  0  0  0  0  0  0
  192.3930  176.1570  136.5740 O   0  0  0  0  0  1  0  0  0  0  0  0
  191.1940  174.1530  136.9960 C   0  0  0  0  0  0  0  0  0  0  0  0
  192.2710  173.5400  136.7760 O   0  0  0  0  0  0  0  0  0  0  0  0
  190.0800  173.4530  137.4420 O   0  0  0  0  0  1  0  0  0  0  0  0
  2  9  1  0  0  0  0
  4  8  2  0  0  0  0
  5  2  2  0  0  0  0
  5  4  1  0  0  0  0
  6  5  1  0  0  0  0
  7  3  1  1  0  0  0
  8  7  1  0  0  0  0
  9  1  1  6  0  0  0
  9  7  1  0  0  0  0
 10  6  2  0  0  0  0
 10 11  1  0  0  0  0
 11  2  1  0  0  0  0
 12 13  2  0  0  0  0
 13  4  1  0  0  0  0
 14  6  1  0  0  0  0
 14 12  1  0  0  0  0
 15 10  1  0  0  0  0
 16 17  2  0  0  0  0
 16 18  1  0  0  0  0
 17 20  1  0  0  0  0
 18 19  2  0  0  0  0
 19 21  1  0  0  0  0
 19 15  1  0  0  0  0
 20 21  2  0  0  0  0
 22 23  1  1  0  0  0
 22 24  1  0  0  0  0
 22 17  1  0  0  0  0
 24 26  1  0  0  0  0
 25 24  2  0  0  0  0
M  END
>  <MODEL>
2

>  <REMARK>
 VINA RESULT:      -8.8      0.801      1.035
  Name = 
  4 active torsions:
  status: ('A' for Active; 'I' for Inactive)
    1  A    between atoms: N_4  and  C_16
    2  A    between atoms: N_4  and  C_19
    3  A    between atoms: C_10  and  C_11
    4  A    between atoms: C_11  and  C_14
                            x       y       z     vdW  Elec       q    Type
                         _______ _______ _______ _____ _____    ______ ____

>  <TORSDO>
F 4

$$$$
=
 OpenBabel10232410003D

 26 29  0  0  1  0  0  0  0  0999 V2000
  185.6090  177.9520  137.6710 C   0  0  0  0  0  1  0  0  0  0  0  0
  187.8820  177.7830  138.6360 C   0  0  0  0  0  0  0  0  0  0  0  0
  187.1340  178.0170  134.9010 C   0  0  0  0  0  1  0  0  0  0  0  0
  189.7110  176.9210  137.2380 C   0  0  0  0  0  0  0  0  0  0  0  0
  189.1300  177.2280  138.5250 C   0  0  0  0  0  0  0  0  0  0  0  0
  189.8760  177.1720  139.6880 C   0  0  0  0  0  0  0  0  0  0  0  0
  187.5440  177.3340  136.1910 C   0  0  1  0  0  3  0  0  0  0  0  0
  188.9940  177.0470  136.1600 N   0  0  0  0  0  0  0  0  0  0  0  0
  187.0920  178.1670  137.4210 C   0  0  1  0  0  3  0  0  0  0  0  0
  189.1820  177.6790  140.7820 C   0  0  0  0  0  0  0  0  0  0  0  0
  187.6750  178.2570  140.2430 S   0  0  0  0  0  0  0  0  0  0  0  0
  191.8360  176.4810  138.2630 C   0  0  0  0  0  3  0  0  0  0  0  0
  191.1030  176.5880  137.1830 N   0  0  0  0  0  0  0  0  0  0  0  0
  191.2940  176.6710  139.6750 C   0  0  0  0  0  2  0  0  0  0  0  0
  189.7370  177.8090  142.0980 N   0  0  0  0  0  2  0  0  0  0  0  0
  186.9770  177.3320  144.5540 C   0  0  0  0  0  3  0  0  0  0  0  0
  187.5990  177.6660  145.7610 C   0  0  0  0  0  0  0  0  0  0  0  0
  187.6950  177.3790  143.3560 C   0  0  0  0  0  3  0  0  0  0  0  0
  189.0420  177.7570  143.3500 C   0  0  0  0  0  0  0  0  0  0  0  0
  188.9450  178.0600  145.7600 C   0  0  0  0  0  3  0  0  0  0  0  0
  189.6600  178.1060  144.5600 C   0  0  0  0  0  3  0  0  0  0  0  0
  186.8070  177.6250  147.0290 C   0  0  1  0  0  3  0  0  0  0  0  0
  187.6460  177.7520  148.1390 O   0  0  0  0  0  1  0  0  0  0  0  0
  185.7580  178.6870  147.0480 C   0  0  0  0  0  0  0  0  0  0  0  0
  186.0490  179.8460  147.4440 O   0  0  0  0  0  1  0  0  0  0  0  0
  184.4550  178.3970  146.6610 O   0  0  0  0  0  0  0  0  0  0  0  0
  2 11  1  0  0  0  0
  4  5  1  0  0  0  0
  5  2  2  0  0  0  0
  5  6  1  0  0  0  0
  6 10  2  0  0  0  0
  7  3  1  6  0  0  0
  7  9  1  0  0  0  0
  8  7  1  0  0  0  0
  8  4  2  0  0  0  0
  9  1  1  1  0  0  0
  9  2  1  0  0  0  0
 10 15  1  0  0  0  0
 11 10  1  0  0  0  0
 12 14  1  0  0  0  0
 13  4  1  0  0  0  0
 13 12  2  0  0  0  0
 14  6  1  0  0  0  0
 15 19  1  0  0  0  0
 16 17  1  0  0  0  0
 17 22  1  0  0  0  0
 18 16  2  0  0  0  0
 19 18  1  0  0  0  0
 19 21  2  0  0  0  0
 20 17  2  0  0  0  0
 21 20  1  0  0  0  0
 22 24  1  0  0  0  0
 22 23  1  1  0  0  0
 24 25  1  0  0  0  0
 26 24  2  0  0  0  0
M  END
>  <MODEL>
3

>  <REMARK>
 VINA RESULT:      -8.5      4.742      8.928
  Name = 
  4 active torsions:
  status: ('A' for Active; 'I' for Inactive)
    1  A    between atoms: N_4  and  C_16
    2  A    between atoms: N_4  and  C_19
    3  A    between atoms: C_10  and  C_11
    4  A    between atoms: C_11  and  C_14
                            x       y       z     vdW  Elec       q    Type
                         _______ _______ _______ _____ _____    ______ ____

>  <TORSDO>
F 4

$$$$
=
 OpenBabel10232410003D

 26 29  0  0  1  0  0  0  0  0999 V2000
  190.5200  176.9310  146.4200 C   0  0  0  0  0  1  0  0  0  0  0  0
  188.8900  177.7210  144.7330 C   0  0  0  0  0  0  0  0  0  0  0  0
  188.3320  177.8600  148.5060 C   0  0  0  0  0  1  0  0  0  0  0  0
  186.5130  177.8610  145.3440 C   0  0  0  0  0  0  0  0  0  0  0  0
  187.5720  177.7880  144.3640 C   0  0  0  0  0  0  0  0  0  0  0  0
  187.3280  177.9880  143.0180 C   0  0  0  0  0  0  0  0  0  0  0  0
  188.1340  177.3410  147.0950 C   0  0  1  0  0  3  0  0  0  0  0  0
  186.7940  177.7310  146.6080 N   0  0  0  0  0  0  0  0  0  0  0  0
  189.2980  177.7990  146.1750 C   0  0  1  0  0  3  0  0  0  0  0  0
  188.5020  178.0560  142.2750 C   0  0  0  0  0  0  0  0  0  0  0  0
  189.8220  177.9400  143.3430 S   0  0  0  0  0  0  0  0  0  0  0  0
  184.9080  178.3400  143.6260 C   0  0  0  0  0  3  0  0  0  0  0  0
  185.1930  178.1860  144.8940 N   0  0  0  0  0  0  0  0  0  0  0  0
  185.9260  178.1710  142.5050 C   0  0  0  0  0  2  0  0  0  0  0  0
  188.5500  178.3260  140.8680 N   0  0  0  0  0  2  0  0  0  0  0  0
  190.9540  176.2420  138.9300 C   0  0  0  0  0  3  0  0  0  0  0  0
  190.1880  175.8640  137.8240 C   0  0  0  0  0  0  0  0  0  0  0  0
  190.4000  177.0490  139.9270 C   0  0  0  0  0  3  0  0  0  0  0  0
  189.0740  177.4860  139.8320 C   0  0  0  0  0  0  0  0  0  0  0  0
  188.8630  176.3100  137.7150 C   0  0  0  0  0  3  0  0  0  0  0  0
  188.3110  177.1170  138.7140 C   0  0  0  0  0  3  0  0  0  0  0  0
  190.8060  175.0130  136.7600 C   0  0  1  0  0  3  0  0  0  0  0  0
  189.8300  174.2690  136.0940 O   0  0  0  0  0  1  0  0  0  0  0  0
  191.5820  175.8390  135.7880 C   0  0  0  0  0  0  0  0  0  0  0  0
  190.9960  176.3570  134.8020 O   0  0  0  0  0  0  0  0  0  0  0  0
  192.9510  176.0140  135.9470 O   0  0  0  0  0  1  0  0  0  0  0  0
  2  9  1  0  0  0  0
  4  8  2  0  0  0  0
  5  2  2  0  0  0  0
  5  4  1  0  0  0  0
  6  5  1  0  0  0  0
  7  3  1  1  0  0  0
  8  7  1  0  0  0  0
  9  1  1  6  0  0  0
  9  7  1  0  0  0  0
 10  6  2  0  0  0  0
 10 11  1  0  0  0  0
 11  2  1  0  0  0  0
 12 13  2  0  0  0  0
 13  4  1  0  0  0  0
 14  6  1  0  0  0  0
 14 12  1  0  0  0  0
 15 10  1  0  0  0  0
 16 18  1  0  0  0  0
 17 16  2  0  0  0  0
 19 18  2  0  0  0  0
 19 15  1  0  0  0  0
 20 17  1  0  0  0  0
 20 21  2  0  0  0  0
 21 19  1  0  0  0  0
 22 23  1  6  0  0  0
 22 17  1  0  0  0  0
 24 26  1  0  0  0  0
 24 22  1  0  0  0  0
 25 24  2  0  0  0  0
M  END
>  <MODEL>
4

>  <REMARK>
 VINA RESULT:      -8.5      1.190      1.796
  Name = 
  4 active torsions:
  status: ('A' for Active; 'I' for Inactive)
    1  A    between atoms: N_4  and  C_16
    2  A    between atoms: N_4  and  C_19
    3  A    between atoms: C_10  and  C_11
    4  A    between atoms: C_11  and  C_14
                            x       y       z     vdW  Elec       q    Type
                         _______ _______ _______ _____ _____    ______ ____

>  <TORSDO>
F 4

$$$$
=
 OpenBabel10232410003D

 26 29  0  0  1  0  0  0  0  0999 V2000
  193.1120  176.1790  138.1040 C   0  0  0  0  0  1  0  0  0  0  0  0
  190.7400  176.6970  138.5860 C   0  0  0  0  0  0  0  0  0  0  0  0
  191.9310  174.5540  135.6610 C   0  0  0  0  0  1  0  0  0  0  0  0
  189.0960  176.5670  136.7640 C   0  0  0  0  0  0  0  0  0  0  0  0
  189.5170  177.0290  138.0660 C   0  0  0  0  0  0  0  0  0  0  0  0
  188.6370  177.6500  138.9330 C   0  0  0  0  0  0  0  0  0  0  0  0
  191.3710  175.7930  136.3330 C   0  0  1  0  0  3  0  0  0  0  0  0
  189.9370  175.9300  136.0020 N   0  0  0  0  0  0  0  0  0  0  0  0
  191.6700  175.7730  137.8560 C   0  0  1  0  0  3  0  0  0  0  0  0
  189.1930  177.8490  140.1930 C   0  0  0  0  0  0  0  0  0  0  0  0
  190.7510  177.1660  140.2080 S   0  0  0  0  0  0  0  0  0  0  0  0
  186.8650  177.3540  137.1660 C   0  0  0  0  0  3  0  0  0  0  0  0
  187.7220  176.7330  136.3950 N   0  0  0  0  0  0  0  0  0  0  0  0
  187.2330  177.9790  138.5060 C   0  0  0  0  0  2  0  0  0  0  0  0
  188.4820  178.4060  141.3070 N   0  0  0  0  0  2  0  0  0  0  0  0
  189.8430  178.0530  144.7570 C   0  0  0  0  0  3  0  0  0  0  0  0
  188.8560  177.2860  145.3830 C   0  0  0  0  0  0  0  0  0  0  0  0
  189.7040  178.4190  143.4160 C   0  0  0  0  0  3  0  0  0  0  0  0
  188.5770  178.0250  142.6850 C   0  0  0  0  0  0  0  0  0  0  0  0
  187.7320  176.8750  144.6530 C   0  0  0  0  0  3  0  0  0  0  0  0
  187.5950  177.2430  143.3110 C   0  0  0  0  0  3  0  0  0  0  0  0
  189.0330  176.8920  146.8150 C   0  0  1  0  0  3  0  0  0  0  0  0
  190.3790  176.6500  147.0980 O   0  0  0  0  0  1  0  0  0  0  0  0
  188.4890  177.9340  147.7360 C   0  0  0  0  0  0  0  0  0  0  0  0
  189.2340  178.4430  148.6130 O   0  0  0  0  0  1  0  0  0  0  0  0
  187.1570  178.3220  147.6510 O   0  0  0  0  0  0  0  0  0  0  0  0
  2 11  1  0  0  0  0
  4  5  1  0  0  0  0
  5  2  2  0  0  0  0
  5  6  1  0  0  0  0
  6 10  2  0  0  0  0
  7  3  1  1  0  0  0
  7  9  1  0  0  0  0
  8  7  1  0  0  0  0
  8  4  2  0  0  0  0
  9  1  1  6  0  0  0
  9  2  1  0  0  0  0
 10 11  1  0  0  0  0
 10 15  1  0  0  0  0
 12 14  1  0  0  0  0
 13  4  1  0  0  0  0
 13 12  2  0  0  0  0
 14  6  1  0  0  0  0
 15 19  1  0  0  0  0
 16 17  1  0  0  0  0
 17 22  1  0  0  0  0
 18 16  2  0  0  0  0
 19 21  2  0  0  0  0
 19 18  1  0  0  0  0
 20 17  2  0  0  0  0
 21 20  1  0  0  0  0
 22 23  1  1  0  0  0
 22 24  1  0  0  0  0
 24 25  1  0  0  0  0
 26 24  2  0  0  0  0
M  END
>  <MODEL>
5

>  <REMARK>
 VINA RESULT:      -8.3      4.301      8.462
  Name = 
  4 active torsions:
  status: ('A' for Active; 'I' for Inactive)
    1  A    between atoms: N_4  and  C_16
    2  A    between atoms: N_4  and  C_19
    3  A    between atoms: C_10  and  C_11
    4  A    between atoms: C_11  and  C_14
                            x       y       z     vdW  Elec       q    Type
                         _______ _______ _______ _____ _____    ______ ____

>  <TORSDO>
F 4

$$$$
=
 OpenBabel10232410003D

 26 29  0  0  1  0  0  0  0  0999 V2000
  185.0720  178.9990  143.9910 C   0  0  0  0  0  1  0  0  0  0  0  0
  187.3240  177.9740  143.9210 C   0  0  0  0  0  0  0  0  0  0  0  0
  185.0780  178.0420  147.0060 C   0  0  0  0  0  1  0  0  0  0  0  0
  188.5720  177.6910  146.0200 C   0  0  0  0  0  0  0  0  0  0  0  0
  188.5100  177.7810  144.5800 C   0  0  0  0  0  0  0  0  0  0  0  0
  189.6010  177.4740  143.7880 C   0  0  0  0  0  0  0  0  0  0  0  0
  186.2540  178.4500  146.1400 C   0  0  1  0  0  3  0  0  0  0  0  0
  187.5060  177.9260  146.7280 N   0  0  0  0  0  0  0  0  0  0  0  0
  186.0220  178.0240  144.6650 C   0  0  1  0  0  3  0  0  0  0  0  0
  189.2780  177.4490  142.4350 C   0  0  0  0  0  0  0  0  0  0  0  0
  187.6090  177.7370  142.2750 S   0  0  0  0  0  0  0  0  0  0  0  0
  190.8600  176.9760  145.9140 C   0  0  0  0  0  3  0  0  0  0  0  0
  189.7900  177.2350  146.6210 N   0  0  0  0  0  0  0  0  0  0  0  0
  190.9360  177.1490  144.4010 C   0  0  0  0  0  2  0  0  0  0  0  0
  190.1980  177.0900  141.3950 N   0  0  0  0  0  2  0  0  0  0  0  0
  189.0360  178.4250  138.1160 C   0  0  0  0  0  3  0  0  0  0  0  0
  189.5560  177.4880  137.2190 C   0  0  0  0  0  0  0  0  0  0  0  0
  189.2600  178.2840  139.4890 C   0  0  0  0  0  3  0  0  0  0  0  0
  190.0070  177.2070  139.9790 C   0  0  0  0  0  0  0  0  0  0  0  0
  190.2930  176.3990  137.7050 C   0  0  0  0  0  3  0  0  0  0  0  0
  190.5160  176.2610  139.0780 C   0  0  0  0  0  3  0  0  0  0  0  0
  189.2900  177.6500  135.7550 C   0  0  1  0  0  3  0  0  0  0  0  0
  190.1690  176.8660  135.0040 O   0  0  0  0  0  1  0  0  0  0  0  0
  187.8750  177.3100  135.4200 C   0  0  0  0  0  0  0  0  0  0  0  0
  187.5070  176.1060  135.4150 O   0  0  0  0  0  1  0  0  0  0  0  0
  186.9710  178.3100  135.0830 O   0  0  0  0  0  0  0  0  0  0  0  0
  2  5  2  0  0  0  0
  2  9  1  0  0  0  0
  4 13  1  0  0  0  0
  4  8  2  0  0  0  0
  5  4  1  0  0  0  0
  6 14  1  0  0  0  0
  6  5  1  0  0  0  0
  7  8  1  0  0  0  0
  7  3  1  1  0  0  0
  9  1  1  6  0  0  0
  9  7  1  0  0  0  0
 10  6  2  0  0  0  0
 11 10  1  0  0  0  0
 11  2  1  0  0  0  0
 12 13  2  0  0  0  0
 14 12  1  0  0  0  0
 15 10  1  0  0  0  0
 16 18  1  0  0  0  0
 17 20  1  0  0  0  0
 17 16  2  0  0  0  0
 18 19  2  0  0  0  0
 19 15  1  0  0  0  0
 20 21  2  0  0  0  0
 21 19  1  0  0  0  0
 22 23  1  6  0  0  0
 22 17  1  0  0  0  0
 24 22  1  0  0  0  0
 25 24  1  0  0  0  0
 26 24  2  0  0  0  0
M  END
>  <MODEL>
6

>  <REMARK>
 VINA RESULT:      -8.2      2.388      3.811
  Name = 
  4 active torsions:
  status: ('A' for Active; 'I' for Inactive)
    1  A    between atoms: N_4  and  C_16
    2  A    between atoms: N_4  and  C_19
    3  A    between atoms: C_10  and  C_11
    4  A    between atoms: C_11  and  C_14
                            x       y       z     vdW  Elec       q    Type
                         _______ _______ _______ _____ _____    ______ ____

>  <TORSDO>
F 4

$$$$
=
 OpenBabel10232410003D

 26 29  0  0  1  0  0  0  0  0999 V2000
  189.4840  176.6620  143.8150 C   0  0  0  0  0  1  0  0  0  0  0  0
  187.3890  177.9400  143.4910 C   0  0  0  0  0  0  0  0  0  0  0  0
  189.0260  177.2990  146.8790 C   0  0  0  0  0  1  0  0  0  0  0  0
  185.8160  178.1480  145.3690 C   0  0  0  0  0  0  0  0  0  0  0  0
  186.1280  178.2000  143.9590 C   0  0  0  0  0  0  0  0  0  0  0  0
  185.2310  178.7090  143.0380 C   0  0  0  0  0  0  0  0  0  0  0  0
  187.9920  177.1200  145.7850 C   0  0  1  0  0  3  0  0  0  0  0  0
  186.7110  177.7210  146.2120 N   0  0  0  0  0  0  0  0  0  0  0  0
  188.5250  177.6650  144.4320 C   0  0  1  0  0  3  0  0  0  0  0  0
  185.7940  178.8360  141.7720 C   0  0  0  0  0  0  0  0  0  0  0  0
  187.4290  178.3760  141.8610 S   0  0  0  0  0  0  0  0  0  0  0  0
  183.6630  179.1280  144.9660 C   0  0  0  0  0  3  0  0  0  0  0  0
  184.5590  178.6770  145.8070 N   0  0  0  0  0  0  0  0  0  0  0  0
  183.8450  179.1200  143.4530 C   0  0  0  0  0  2  0  0  0  0  0  0
  185.1150  179.4020  140.6430 N   0  0  0  0  0  2  0  0  0  0  0  0
  185.0520  177.6070  137.3790 C   0  0  0  0  0  3  0  0  0  0  0  0
  183.6840  177.3910  137.1910 C   0  0  0  0  0  0  0  0  0  0  0  0
  185.5090  178.2660  138.5240 C   0  0  0  0  0  3  0  0  0  0  0  0
  184.6060  178.7150  139.4930 C   0  0  0  0  0  0  0  0  0  0  0  0
  182.7720  177.8520  138.1510 C   0  0  0  0  0  3  0  0  0  0  0  0
  183.2320  178.5110  139.2950 C   0  0  0  0  0  3  0  0  0  0  0  0
  183.2150  176.6980  135.9510 C   0  0  1  0  0  3  0  0  0  0  0  0
  183.9030  177.1700  134.8310 O   0  0  0  0  0  1  0  0  0  0  0  0
  183.3670  175.2170  136.0670 C   0  0  0  0  0  0  0  0  0  0  0  0
  182.5090  174.5500  136.7030 O   0  0  0  0  0  1  0  0  0  0  0  0
  184.4640  174.5750  135.5070 O   0  0  0  0  0  0  0  0  0  0  0  0
  2  5  2  0  0  0  0
  2  9  1  0  0  0  0
  4 13  1  0  0  0  0
  4  8  2  0  0  0  0
  5  4  1  0  0  0  0
  6 14  1  0  0  0  0
  6  5  1  0  0  0  0
  7  8  1  0  0  0  0
  7  3  1  1  0  0  0
  9  1  1  6  0  0  0
  9  7  1  0  0  0  0
 10 11  1  0  0  0  0
 10  6  2  0  0  0  0
 11  2  1  0  0  0  0
 12 13  2  0  0  0  0
 14 12  1  0  0  0  0
 15 10  1  0  0  0  0
 16 18  1  0  0  0  0
 17 16  2  0  0  0  0
 17 20  1  0  0  0  0
 18 19  2  0  0  0  0
 19 15  1  0  0  0  0
 20 21  2  0  0  0  0
 21 19  1  0  0  0  0
 22 23  1  6  0  0  0
 22 24  1  0  0  0  0
 22 17  1  0  0  0  0
 24 25  1  0  0  0  0
 26 24  2  0  0  0  0
M  END
>  <MODEL>
7

>  <REMARK>
 VINA RESULT:      -8.1      4.287      5.419
  Name = 
  4 active torsions:
  status: ('A' for Active; 'I' for Inactive)
    1  A    between atoms: N_4  and  C_16
    2  A    between atoms: N_4  and  C_19
    3  A    between atoms: C_10  and  C_11
    4  A    between atoms: C_11  and  C_14
                            x       y       z     vdW  Elec       q    Type
                         _______ _______ _______ _____ _____    ______ ____

>  <TORSDO>
F 4

$$$$
=
 OpenBabel10232410003D

 26 29  0  0  1  0  0  0  0  0999 V2000
  185.1940  178.7070  139.0230 C   0  0  0  0  0  1  0  0  0  0  0  0
  184.1740  178.4410  141.2630 C   0  0  0  0  0  0  0  0  0  0  0  0
  182.2750  178.0940  137.9710 C   0  0  0  0  0  1  0  0  0  0  0  0
  181.7510  178.7660  141.5180 C   0  0  0  0  0  0  0  0  0  0  0  0
  183.0880  178.6940  142.0590 C   0  0  0  0  0  0  0  0  0  0  0  0
  183.3170  178.6720  143.4230 C   0  0  0  0  0  0  0  0  0  0  0  0
  182.6920  178.7650  139.2650 C   0  0  1  0  0  3  0  0  0  0  0  0
  181.5730  178.7200  140.2290 N   0  0  0  0  0  0  0  0  0  0  0  0
  184.0140  178.1490  139.8000 C   0  0  1  0  0  3  0  0  0  0  0  0
  184.6500  178.4170  143.7280 C   0  0  0  0  0  0  0  0  0  0  0  0
  185.4930  178.1490  142.2750 S   0  0  0  0  0  0  0  0  0  0  0  0
  180.8190  178.8000  143.7280 C   0  0  0  0  0  3  0  0  0  0  0  0
  180.6470  178.7760  142.4310 N   0  0  0  0  0  0  0  0  0  0  0  0
  182.1860  178.8430  144.4000 C   0  0  0  0  0  2  0  0  0  0  0  0
  185.1560  178.2670  145.0620 N   0  0  0  0  0  2  0  0  0  0  0  0
  188.7540  177.3240  144.8480 C   0  0  0  0  0  3  0  0  0  0  0  0
  189.1750  177.4780  146.1720 C   0  0  0  0  0  0  0  0  0  0  0  0
  187.4280  177.5930  144.4960 C   0  0  0  0  0  3  0  0  0  0  0  0
  186.5100  178.0200  145.4610 C   0  0  0  0  0  0  0  0  0  0  0  0
  188.2560  177.8920  147.1470 C   0  0  0  0  0  3  0  0  0  0  0  0
  186.9310  178.1600  146.7920 C   0  0  0  0  0  3  0  0  0  0  0  0
  190.5940  177.1690  146.5290 C   0  0  1  0  0  3  0  0  0  0  0  0
  190.6710  175.9910  147.2760 O   0  0  0  0  0  1  0  0  0  0  0  0
  191.4510  177.0680  145.3100 C   0  0  0  0  0  0  0  0  0  0  0  0
  191.8160  178.1150  144.7150 O   0  0  0  0  0  0  0  0  0  0  0  0
  191.8220  175.8250  144.8110 O   0  0  0  0  0  1  0  0  0  0  0  0
  2  5  2  0  0  0  0
  2 11  1  0  0  0  0
  4  5  1  0  0  0  0
  4 13  1  0  0  0  0
  5  6  1  0  0  0  0
  6 10  2  0  0  0  0
  6 14  1  0  0  0  0
  7  3  1  6  0  0  0
  7  9  1  0  0  0  0
  7  8  1  0  0  0  0
  8  4  2  0  0  0  0
  9  1  1  6  0  0  0
  9  2  1  0  0  0  0
 10 15  1  0  0  0  0
 11 10  1  0  0  0  0
 12 14  1  0  0  0  0
 13 12  2  0  0  0  0
 15 19  1  0  0  0  0
 16 17  1  0  0  0  0
 17 22  1  0  0  0  0
 17 20  2  0  0  0  0
 18 16  2  0  0  0  0
 18 19  1  0  0  0  0
 19 21  2  0  0  0  0
 21 20  1  0  0  0  0
 22 23  1  6  0  0  0
 24 22  1  0  0  0  0
 25 24  2  0  0  0  0
 26 24  1  0  0  0  0
M  END
>  <MODEL>
8

>  <REMARK>
 VINA RESULT:      -8.1      4.417      7.327
  Name = 
  4 active torsions:
  status: ('A' for Active; 'I' for Inactive)
    1  A    between atoms: N_4  and  C_16
    2  A    between atoms: N_4  and  C_19
    3  A    between atoms: C_10  and  C_11
    4  A    between atoms: C_11  and  C_14
                            x       y       z     vdW  Elec       q    Type
                         _______ _______ _______ _____ _____    ______ ____

>  <TORSDO>
F 4

$$$$
=
 OpenBabel10232410003D

 26 29  0  0  1  0  0  0  0  0999 V2000
  183.8280  179.0720  141.6920 C   0  0  0  0  0  1  0  0  0  0  0  0
  185.4330  178.3130  143.4170 C   0  0  0  0  0  0  0  0  0  0  0  0
  181.7080  178.8700  144.0300 C   0  0  0  0  0  1  0  0  0  0  0  0
  184.8980  178.6770  145.7880 C   0  0  0  0  0  0  0  0  0  0  0  0
  185.8370  178.4130  144.7230 C   0  0  0  0  0  0  0  0  0  0  0  0
  187.1440  178.0470  144.9830 C   0  0  0  0  0  0  0  0  0  0  0  0
  183.1880  179.1840  144.1210 C   0  0  1  0  0  3  0  0  0  0  0  0
  183.6590  178.9560  145.5030 N   0  0  0  0  0  0  0  0  0  0  0  0
  183.9820  178.3960  143.0440 C   0  0  1  0  0  3  0  0  0  0  0  0
  187.8230  177.6640  143.8310 C   0  0  0  0  0  0  0  0  0  0  0  0
  186.7370  177.7210  142.5230 S   0  0  0  0  0  0  0  0  0  0  0  0
  186.5810  178.2120  147.4340 C   0  0  0  0  0  3  0  0  0  0  0  0
  185.3420  178.5130  147.1410 N   0  0  0  0  0  0  0  0  0  0  0  0
  187.6760  178.0260  146.3910 C   0  0  0  0  0  2  0  0  0  0  0  0
  189.1690  177.1700  143.8170 N   0  0  0  0  0  2  0  0  0  0  0  0
  192.3570  177.5510  141.9260 C   0  0  0  0  0  3  0  0  0  0  0  0
  191.9590  177.2550  140.6200 C   0  0  0  0  0  0  0  0  0  0  0  0
  191.4280  177.5140  142.9700 C   0  0  0  0  0  3  0  0  0  0  0  0
  190.0930  177.1790  142.7210 C   0  0  0  0  0  0  0  0  0  0  0  0
  190.6190  176.9320  140.3610 C   0  0  0  0  0  3  0  0  0  0  0  0
  189.6930  176.8960  141.4060 C   0  0  0  0  0  3  0  0  0  0  0  0
  192.9660  177.3160  139.5150 C   0  0  1  0  0  3  0  0  0  0  0  0
  194.2240  176.9130  139.9710 O   0  0  0  0  0  1  0  0  0  0  0  0
  192.5450  176.4820  138.3500 C   0  0  0  0  0  0  0  0  0  0  0  0
  193.1330  175.3940  138.1160 O   0  0  0  0  0  1  0  0  0  0  0  0
  191.5300  176.9140  137.5050 O   0  0  0  0  0  0  0  0  0  0  0  0
  2  5  2  0  0  0  0
  4 13  1  0  0  0  0
  5  6  1  0  0  0  0
  5  4  1  0  0  0  0
  6 14  1  0  0  0  0
  7  3  1  1  0  0  0
  7  8  1  0  0  0  0
  8  4  2  0  0  0  0
  9  1  1  6  0  0  0
  9  2  1  0  0  0  0
  9  7  1  0  0  0  0
 10  6  2  0  0  0  0
 11  2  1  0  0  0  0
 11 10  1  0  0  0  0
 13 12  2  0  0  0  0
 14 12  1  0  0  0  0
 15 10  1  0  0  0  0
 16 18  1  0  0  0  0
 17 16  2  0  0  0  0
 19 18  2  0  0  0  0
 19 15  1  0  0  0  0
 20 17  1  0  0  0  0
 20 21  2  0  0  0  0
 21 19  1  0  0  0  0
 22 23  1  1  0  0  0
 22 17  1  0  0  0  0
 24 22  1  0  0  0  0
 25 24  1  0  0  0  0
 26 24  2  0  0  0  0
M  END
>  <MODEL>
9

>  <REMARK>
 VINA RESULT:      -8.1      1.784      3.903
  Name = 
  4 active torsions:
  status: ('A' for Active; 'I' for Inactive)
    1  A    between atoms: N_4  and  C_16
    2  A    between atoms: N_4  and  C_19
    3  A    between atoms: C_10  and  C_11
    4  A    between atoms: C_11  and  C_14
                            x       y       z     vdW  Elec       q    Type
                         _______ _______ _______ _____ _____    ______ ____

>  <TORSDO>
F 4

$$$$
