=
 OpenBabel10232412193D

 56 60  0  0  1  0  0  0  0  0999 V2000
  182.9890  176.9030  140.4300 O   0  0  0  0  0  0  0  0  0  0  0  0
  181.4970  178.3290  141.8060 C   0  0  1  0  0  3  0  0  0  0  0  0
  181.1930  179.2910  140.6500 C   0  0  2  0  0  3  0  0  0  0  0  0
  183.0620  179.5130  143.7350 C   0  0  1  0  0  3  0  0  0  0  0  0
  179.9820  179.9460  140.8780 O   0  0  0  0  0  1  0  0  0  0  0  0
  184.0250  178.5530  141.8070 C   0  0  1  0  0  3  0  0  0  0  0  0
  182.8420  177.5840  141.6610 C   0  0  2  0  0  3  0  0  0  0  0  0
  183.7830  179.7430  142.5400 O   0  0  0  0  0  0  0  0  0  0  0  0
  181.1330  178.6190  139.2570 C   0  0  2  0  0  3  0  0  0  0  0  0
  181.7910  176.2420  140.1160 C   0  0  0  0  0  2  0  0  0  0  0  0
  180.9350  177.0900  139.1630 C   0  0  0  0  0  2  0  0  0  0  0  0
  181.3060  179.0970  143.4540 S   0  0  0  0  0  0  0  0  0  0  0  0
  184.6740  178.9330  145.5870 C   0  0  0  0  0  0  0  0  0  0  0  0
  183.7110  178.5430  144.6060 N   0  0  0  0  0  2  0  0  0  0  0  0
  185.1120  180.1130  145.6250 O   0  0  0  0  0  0  0  0  0  0  0  0
  185.1440  177.9400  146.5960 C   0  0  0  0  0  2  0  0  0  0  0  0
  188.5470  177.0850  145.1720 C   0  0  0  0  0  3  0  0  0  0  0  0
  189.3810  177.3240  146.2760 C   0  0  0  0  0  0  0  0  0  0  0  0
  187.1690  177.2940  145.2740 C   0  0  0  0  0  3  0  0  0  0  0  0
  188.8260  177.7880  147.4750 C   0  0  0  0  0  3  0  0  0  0  0  0
  187.4480  177.9990  147.5750 C   0  0  0  0  0  3  0  0  0  0  0  0
  186.6180  177.7530  146.4750 C   0  0  0  0  0  0  0  0  0  0  0  0
  190.8630  177.1210  146.1930 C   0  0  2  0  0  3  0  0  0  0  0  0
  191.5780  176.2360  144.0140 N   0  0  0  0  0  0  0  0  0  0  0  0
  191.9610  178.2460  142.8290 C   0  0  0  0  0  3  0  0  0  0  0  0
  191.5240  178.4620  144.1580 O   0  0  0  0  0  0  0  0  0  0  0  0
  191.3390  177.2460  144.7750 C   0  0  0  0  0  0  0  0  0  0  0  0
  191.9870  176.7200  142.7020 C   0  0  0  0  0  3  0  0  0  0  0  0
  191.2780  175.8040  146.8370 C   0  0  0  0  0  2  0  0  0  0  0  0
  192.2530  176.0500  147.9770 C   0  0  0  0  0  2  0  0  0  0  0  0
  192.0510  177.4440  148.5460 C   0  0  0  0  0  2  0  0  0  0  0  0
  194.1380  176.9430  149.7190 N   0  0  0  0  0  1  0  0  0  0  0  0
  192.8780  177.6570  149.8080 C   0  0  0  0  0  2  0  0  0  0  0  0
  181.7270  180.5990  137.7520 C   0  0  0  0  0  1  0  0  0  0  0  0
  182.0870  179.1860  138.1980 C   0  0  2  0  0  3  0  0  0  0  0  0
  182.2660  178.2430  137.0080 C   0  0  1  0  0  3  0  0  0  0  0  0
  181.8620  178.8670  135.8170 O   0  0  0  0  0  1  0  0  0  0  0  0
  183.6620  177.8260  136.9140 N   0  0  0  0  0  2  0  0  0  0  0  0
  183.7860  176.8430  135.8470 C   0  0  0  0  0  2  0  0  0  0  0  0
  185.2010  176.2840  135.7900 C   0  0  0  0  0  2  0  0  0  0  0  0
  186.1570  177.3120  135.7800 O   0  0  0  0  0  0  0  0  0  0  0  0
  189.2170  177.2210  138.0070 C   0  0  0  0  0  0  0  0  0  0  0  0
  186.9640  177.8980  138.4270 O   0  0  0  0  0  1  0  0  0  0  0  0
  187.0660  175.3250  136.8240 C   0  0  0  0  0  2  0  0  0  0  0  0
  190.3510  176.6800  137.1650 C   0  0  0  0  0  2  0  0  0  0  0  0
  189.1590  174.4210  136.7150 C   0  0  1  0  0  3  0  0  0  0  0  0
  188.1840  179.0790  136.7770 C   0  0  0  0  0  1  0  0  0  0  0  0
  189.3940  177.2960  139.2140 O   0  0  0  0  0  0  0  0  0  0  0  0
  188.1290  174.8160  137.5910 O   0  0  0  0  0  0  0  0  0  0  0  0
  189.9360  175.6200  136.1380 C   0  0  0  0  0  2  0  0  0  0  0  0
  187.9100  177.7250  137.4110 C   0  0  1  0  0  0  0  0  0  0  0  0
  187.3250  176.7720  136.3410 C   0  0  2  0  0  3  0  0  0  0  0  0
  190.0410  173.5800  137.3900 O   0  0  0  0  0  1  0  0  0  0  0  0
  185.3120  177.8470  142.2220 C   0  0  0  0  0  2  0  0  0  0  0  0
  186.5270  178.6730  141.8370 C   0  0  0  0  0  2  0  0  0  0  0  0
  187.6680  177.8670  141.8320 O   0  0  0  0  0  1  0  0  0  0  0  0
  2 12  1  1  0  0  0
  3  5  1  1  0  0  0
  3  2  1  0  0  0  0
  4 14  1  6  0  0  0
  6 54  1  1  0  0  0
  6  8  1  0  0  0  0
  7  1  1  6  0  0  0
  7  2  1  0  0  0  0
  7  6  1  0  0  0  0
  8  4  1  0  0  0  0
  9 35  1  1  0  0  0
  9  3  1  0  0  0  0
 10  1  1  0  0  0  0
 11  9  1  0  0  0  0
 11 10  1  0  0  0  0
 12  4  1  0  0  0  0
 13 15  2  0  0  0  0
 13 16  1  0  0  0  0
 14 13  1  0  0  0  0
 17 19  2  0  0  0  0
 17 18  1  0  0  0  0
 18 20  2  0  0  0  0
 19 22  1  0  0  0  0
 20 21  1  0  0  0  0
 22 16  1  0  0  0  0
 22 21  2  0  0  0  0
 23 18  1  0  0  0  0
 23 29  1  6  0  0  0
 24 27  2  0  0  0  0
 25 26  1  0  0  0  0
 26 27  1  0  0  0  0
 27 23  1  0  0  0  0
 28 25  2  0  0  0  0
 28 24  1  0  0  0  0
 29 30  1  0  0  0  0
 30 31  1  0  0  0  0
 31 33  1  0  0  0  0
 32 33  1  0  0  0  0
 35 34  1  6  0  0  0
 36 37  1  6  0  0  0
 36 35  1  0  0  0  0
 38 36  1  0  0  0  0
 39 38  1  0  0  0  0
 40 39  1  0  0  0  0
 41 40  1  0  0  0  0
 42 48  2  0  0  0  0
 44 49  1  0  0  0  0
 45 42  1  0  0  0  0
 46 53  1  1  0  0  0
 46 49  1  0  0  0  0
 50 46  1  0  0  0  0
 50 45  1  0  0  0  0
 51 47  1  6  0  0  0
 51 42  1  0  0  0  0
 51 43  1  0  0  0  0
 52 41  1  1  0  0  0
 52 44  1  0  0  0  0
 52 51  1  0  0  0  0
 55 54  1  0  0  0  0
 56 55  1  0  0  0  0
M  END
>  <MODEL>
1

>  <REMARK>
 VINA RESULT:      -6.7      0.000      0.000
  Name = 
  18 active torsions:
  status: ('A' for Active; 'I' for Inactive)
    1  A    between atoms: C_5  and  C_31
    2  A    between atoms: N_7  and  C_29
    3  A    between atoms: C_11  and  C_27
    4  A    between atoms: C_12  and  C_33
    5  A    between atoms: C_12  and  N_50
    6  A    between atoms: C_16  and  N_50
    7  A    between atoms: C_16  and  C_53
    8  A    between atoms: C_19  and  C_22
    9  A    between atoms: C_19  and  C_38
   10  A    between atoms: C_22  and  C_37
   11  A    between atoms: C_25  and  C_37
   12  A    between atoms: C_27  and  C_41
   13  A    between atoms: C_31  and  C_52
   14  A    between atoms: C_32  and  C_37
   15  A    between atoms: C_33  and  C_46
   16  A    between atoms: C_38  and  C_42
   17  A    between atoms: C_47  and  O_56
   18  A    between atoms: C_53  and  O_56
                            x       y       z     vdW  Elec       q    Type
                         _______ _______ _______ _____ _____    ______ ____

>  <TORSDO>
F 18

$$$$
=
 OpenBabel10232412193D

 56 60  0  0  1  0  0  0  0  0999 V2000
  182.8000  176.9740  140.1730 O   0  0  0  0  0  0  0  0  0  0  0  0
  181.4870  178.4690  141.6550 C   0  0  1  0  0  3  0  0  0  0  0  0
  181.1410  179.4450  140.5220 C   0  0  2  0  0  3  0  0  0  0  0  0
  183.2490  179.5760  143.4540 C   0  0  1  0  0  3  0  0  0  0  0  0
  179.9840  180.1560  140.8400 O   0  0  0  0  0  1  0  0  0  0  0  0
  184.0150  178.5720  141.4610 C   0  0  1  0  0  3  0  0  0  0  0  0
  182.7800  177.6610  141.4100 C   0  0  2  0  0  3  0  0  0  0  0  0
  183.8860  179.7720  142.2070 O   0  0  0  0  0  0  0  0  0  0  0  0
  180.9430  178.7770  139.1400 C   0  0  2  0  0  3  0  0  0  0  0  0
  181.5510  176.3710  139.9540 C   0  0  0  0  0  2  0  0  0  0  0  0
  180.6660  177.2590  139.0660 C   0  0  0  0  0  2  0  0  0  0  0  0
  181.4590  179.2440  143.3100 S   0  0  0  0  0  0  0  0  0  0  0  0
  184.7550  178.9370  145.3750 C   0  0  0  0  0  0  0  0  0  0  0  0
  183.9160  178.5760  144.2770 N   0  0  0  0  0  2  0  0  0  0  0  0
  185.0730  180.1400  145.5730 O   0  0  0  0  0  0  0  0  0  0  0  0
  185.2360  177.8840  146.3150 C   0  0  0  0  0  2  0  0  0  0  0  0
  188.9710  177.5770  146.8600 C   0  0  0  0  0  3  0  0  0  0  0  0
  189.4070  177.1680  145.5900 C   0  0  0  0  0  0  0  0  0  0  0  0
  187.6120  177.8020  147.0980 C   0  0  0  0  0  3  0  0  0  0  0  0
  188.4700  176.9710  144.5680 C   0  0  0  0  0  3  0  0  0  0  0  0
  187.1110  177.1940  144.8070 C   0  0  0  0  0  3  0  0  0  0  0  0
  186.6810  177.6080  146.0720 C   0  0  0  0  0  0  0  0  0  0  0  0
  190.8540  176.9080  145.3080 C   0  0  2  0  0  3  0  0  0  0  0  0
  192.0530  175.3530  146.7880 N   0  0  0  0  0  0  0  0  0  0  0  0
  192.5510  176.7770  148.6090 C   0  0  0  0  0  3  0  0  0  0  0  0
  191.8420  177.4300  147.5730 O   0  0  0  0  0  0  0  0  0  0  0  0
  191.5830  176.5300  146.5660 C   0  0  0  0  0  0  0  0  0  0  0  0
  192.7250  175.3500  148.0810 C   0  0  0  0  0  3  0  0  0  0  0  0
  191.5000  178.0860  144.5890 C   0  0  0  0  0  2  0  0  0  0  0  0
  191.9080  177.6940  143.1790 C   0  0  0  0  0  2  0  0  0  0  0  0
  190.8610  178.1600  142.1810 C   0  0  0  0  0  2  0  0  0  0  0  0
  192.4510  177.1920  140.5940 N   0  0  0  0  0  1  0  0  0  0  0  0
  191.0510  177.4970  140.8230 C   0  0  0  0  0  2  0  0  0  0  0  0
  181.5490  180.7440  137.6240 C   0  0  0  0  0  1  0  0  0  0  0  0
  181.8390  179.2980  138.0100 C   0  0  2  0  0  3  0  0  0  0  0  0
  181.8390  178.3740  136.7900 C   0  0  1  0  0  3  0  0  0  0  0  0
  181.3890  179.0590  135.6510 O   0  0  0  0  0  1  0  0  0  0  0  0
  183.1840  177.8490  136.5700 N   0  0  0  0  0  2  0  0  0  0  0  0
  183.2370  177.2420  135.2480 C   0  0  0  0  0  2  0  0  0  0  0  0
  184.5110  176.4270  135.0790 C   0  0  0  0  0  2  0  0  0  0  0  0
  185.6500  177.2490  135.0940 O   0  0  0  0  0  0  0  0  0  0  0  0
  188.4700  176.6140  137.5390 C   0  0  0  0  0  0  0  0  0  0  0  0
  186.3400  177.6640  137.8060 O   0  0  0  0  0  1  0  0  0  0  0  0
  186.1230  175.1260  136.1600 C   0  0  0  0  0  2  0  0  0  0  0  0
  189.5560  175.8940  136.7720 C   0  0  0  0  0  2  0  0  0  0  0  0
  188.0340  173.8770  136.1860 C   0  0  1  0  0  3  0  0  0  0  0  0
  187.8660  178.6330  136.2770 C   0  0  0  0  0  1  0  0  0  0  0  0
  188.5640  176.6470  138.7570 O   0  0  0  0  0  0  0  0  0  0  0  0
  187.0230  174.4350  136.9920 O   0  0  0  0  0  0  0  0  0  0  0  0
  189.0460  174.9290  135.6950 C   0  0  0  0  0  2  0  0  0  0  0  0
  187.3170  177.3400  136.8590 C   0  0  1  0  0  0  0  0  0  0  0  0
  186.6620  176.5110  135.7290 C   0  0  2  0  0  3  0  0  0  0  0  0
  188.7050  172.8910  136.9050 O   0  0  0  0  0  1  0  0  0  0  0  0
  185.2950  177.8060  141.7790 C   0  0  0  0  0  2  0  0  0  0  0  0
  186.4890  178.4410  141.0870 C   0  0  0  0  0  2  0  0  0  0  0  0
  187.3020  179.0740  142.0290 O   0  0  0  0  0  1  0  0  0  0  0  0
  2 12  1  1  0  0  0
  3  5  1  1  0  0  0
  3  2  1  0  0  0  0
  4 14  1  6  0  0  0
  6 54  1  1  0  0  0
  6  8  1  0  0  0  0
  7  1  1  6  0  0  0
  7  6  1  0  0  0  0
  7  2  1  0  0  0  0
  8  4  1  0  0  0  0
  9 35  1  6  0  0  0
  9  3  1  0  0  0  0
 10  1  1  0  0  0  0
 11  9  1  0  0  0  0
 11 10  1  0  0  0  0
 12  4  1  0  0  0  0
 13 15  2  0  0  0  0
 13 16  1  0  0  0  0
 14 13  1  0  0  0  0
 17 19  1  0  0  0  0
 18 17  2  0  0  0  0
 20 21  2  0  0  0  0
 20 18  1  0  0  0  0
 21 22  1  0  0  0  0
 22 16  1  0  0  0  0
 22 19  2  0  0  0  0
 23 29  1  1  0  0  0
 23 18  1  0  0  0  0
 23 27  1  0  0  0  0
 24 28  1  0  0  0  0
 26 25  1  0  0  0  0
 27 24  2  0  0  0  0
 27 26  1  0  0  0  0
 28 25  2  0  0  0  0
 30 29  1  0  0  0  0
 31 30  1  0  0  0  0
 32 33  1  0  0  0  0
 33 31  1  0  0  0  0
 35 34  1  6  0  0  0
 36 37  1  6  0  0  0
 36 35  1  0  0  0  0
 38 36  1  0  0  0  0
 39 38  1  0  0  0  0
 40 41  1  0  0  0  0
 40 39  1  0  0  0  0
 42 48  2  0  0  0  0
 44 49  1  0  0  0  0
 45 42  1  0  0  0  0
 46 53  1  1  0  0  0
 46 49  1  0  0  0  0
 50 46  1  0  0  0  0
 50 45  1  0  0  0  0
 51 47  1  6  0  0  0
 51 42  1  0  0  0  0
 51 43  1  0  0  0  0
 52 41  1  1  0  0  0
 52 44  1  0  0  0  0
 52 51  1  0  0  0  0
 55 54  1  0  0  0  0
 55 56  1  0  0  0  0
M  END
>  <MODEL>
2

>  <REMARK>
 VINA RESULT:      -6.5      1.115      2.642
  Name = 
  18 active torsions:
  status: ('A' for Active; 'I' for Inactive)
    1  A    between atoms: C_5  and  C_31
    2  A    between atoms: N_7  and  C_29
    3  A    between atoms: C_11  and  C_27
    4  A    between atoms: C_12  and  C_33
    5  A    between atoms: C_12  and  N_50
    6  A    between atoms: C_16  and  N_50
    7  A    between atoms: C_16  and  C_53
    8  A    between atoms: C_19  and  C_22
    9  A    between atoms: C_19  and  C_38
   10  A    between atoms: C_22  and  C_37
   11  A    between atoms: C_25  and  C_37
   12  A    between atoms: C_27  and  C_41
   13  A    between atoms: C_31  and  C_52
   14  A    between atoms: C_32  and  C_37
   15  A    between atoms: C_33  and  C_46
   16  A    between atoms: C_38  and  C_42
   17  A    between atoms: C_47  and  O_56
   18  A    between atoms: C_53  and  O_56
                            x       y       z     vdW  Elec       q    Type
                         _______ _______ _______ _____ _____    ______ ____

>  <TORSDO>
F 18

$$$$
=
 OpenBabel10232412193D

 56 60  0  0  1  0  0  0  0  0999 V2000
  183.2530  176.9850  140.4070 O   0  0  0  0  0  0  0  0  0  0  0  0
  181.6450  178.2250  141.8320 C   0  0  1  0  0  3  0  0  0  0  0  0
  181.2460  179.1900  140.7060 C   0  0  2  0  0  3  0  0  0  0  0  0
  183.1050  179.4880  143.7920 C   0  0  1  0  0  3  0  0  0  0  0  0
  179.9820  179.7230  140.9590 O   0  0  0  0  0  1  0  0  0  0  0  0
  184.1410  178.6800  141.8320 C   0  0  1  0  0  3  0  0  0  0  0  0
  183.0520  177.6120  141.6600 C   0  0  2  0  0  3  0  0  0  0  0  0
  183.7950  179.8200  142.6030 O   0  0  0  0  0  0  0  0  0  0  0  0
  181.2410  178.5580  139.2940 C   0  0  2  0  0  3  0  0  0  0  0  0
  182.1190  176.2270  140.0760 C   0  0  0  0  0  2  0  0  0  0  0  0
  181.1830  177.0210  139.1520 C   0  0  0  0  0  2  0  0  0  0  0  0
  181.3930  178.9210  143.5040 S   0  0  0  0  0  0  0  0  0  0  0  0
  184.7790  179.0010  145.6160 C   0  0  0  0  0  0  0  0  0  0  0  0
  183.8450  178.5550  144.6310 N   0  0  0  0  0  2  0  0  0  0  0  0
  185.1100  180.2150  145.6850 O   0  0  0  0  0  0  0  0  0  0  0  0
  185.3440  178.0260  146.5930 C   0  0  0  0  0  2  0  0  0  0  0  0
  188.4510  177.1420  144.6160 C   0  0  0  0  0  3  0  0  0  0  0  0
  189.4240  177.1020  145.6270 C   0  0  0  0  0  0  0  0  0  0  0  0
  187.1250  177.4510  144.9300 C   0  0  0  0  0  3  0  0  0  0  0  0
  189.0620  177.3910  146.9480 C   0  0  0  0  0  3  0  0  0  0  0  0
  187.7350  177.7020  147.2610 C   0  0  0  0  0  3  0  0  0  0  0  0
  186.7660  177.7340  146.2520 C   0  0  0  0  0  0  0  0  0  0  0  0
  190.8560  176.7860  145.3190 C   0  0  2  0  0  3  0  0  0  0  0  0
  192.0530  175.2680  146.8370 N   0  0  0  0  0  0  0  0  0  0  0  0
  192.6380  176.7590  148.5770 C   0  0  0  0  0  3  0  0  0  0  0  0
  191.9180  177.3840  147.5310 O   0  0  0  0  0  0  0  0  0  0  0  0
  191.6080  176.4460  146.5730 C   0  0  0  0  0  0  0  0  0  0  0  0
  192.7600  175.3050  148.1110 C   0  0  0  0  0  3  0  0  0  0  0  0
  191.5130  177.9100  144.5280 C   0  0  0  0  0  2  0  0  0  0  0  0
  191.9980  177.4030  143.1800 C   0  0  0  0  0  2  0  0  0  0  0  0
  190.8130  177.1100  142.2740 C   0  0  0  0  0  2  0  0  0  0  0  0
  190.4740  176.3530  139.9730 N   0  0  0  0  0  1  0  0  0  0  0  0
  191.1690  177.3160  140.8070 C   0  0  0  0  0  2  0  0  0  0  0  0
  182.3410  180.7300  138.5130 C   0  0  0  0  0  1  0  0  0  0  0  0
  182.1330  179.2430  138.2510 C   0  0  2  0  0  3  0  0  0  0  0  0
  181.6640  178.9800  136.8180 C   0  0  1  0  0  3  0  0  0  0  0  0
  181.5680  180.1820  136.1000 O   0  0  0  0  0  1  0  0  0  0  0  0
  182.5910  178.0650  136.1570 N   0  0  0  0  0  2  0  0  0  0  0  0
  181.8460  177.2440  135.2140 C   0  0  0  0  0  2  0  0  0  0  0  0
  182.2540  175.7830  135.3300 C   0  0  0  0  0  2  0  0  0  0  0  0
  183.2250  175.6000  136.3270 O   0  0  0  0  0  0  0  0  0  0  0  0
  185.9870  173.0670  135.7920 C   0  0  0  0  0  0  0  0  0  0  0  0
  185.7700  174.8820  137.3320 O   0  0  0  0  0  1  0  0  0  0  0  0
  183.1870  173.3070  137.1060 C   0  0  0  0  0  2  0  0  0  0  0  0
  185.5330  172.1590  134.6710 C   0  0  0  0  0  2  0  0  0  0  0  0
  183.4310  171.3500  135.9570 C   0  0  1  0  0  3  0  0  0  0  0  0
  185.7690  175.3880  135.0190 C   0  0  0  0  0  1  0  0  0  0  0  0
  186.9590  172.7180  136.4450 O   0  0  0  0  0  0  0  0  0  0  0  0
  183.8670  172.0760  137.0820 O   0  0  0  0  0  0  0  0  0  0  0  0
  184.0250  171.8860  134.6410 C   0  0  0  0  0  2  0  0  0  0  0  0
  185.3280  174.4070  136.0930 C   0  0  1  0  0  0  0  0  0  0  0  0
  183.7830  174.3310  136.1090 C   0  0  2  0  0  3  0  0  0  0  0  0
  183.7800  170.0100  136.1100 O   0  0  0  0  0  1  0  0  0  0  0  0
  185.4900  178.0840  142.2210 C   0  0  0  0  0  2  0  0  0  0  0  0
  186.5620  178.4800  141.2210 C   0  0  0  0  0  2  0  0  0  0  0  0
  185.9770  179.1080  140.1200 O   0  0  0  0  0  1  0  0  0  0  0  0
  2 12  1  1  0  0  0
  3  5  1  1  0  0  0
  3  2  1  0  0  0  0
  4 14  1  6  0  0  0
  6 54  1  1  0  0  0
  6  8  1  0  0  0  0
  7  1  1  6  0  0  0
  7  2  1  0  0  0  0
  7  6  1  0  0  0  0
  8  4  1  0  0  0  0
  9 35  1  1  0  0  0
  9  3  1  0  0  0  0
 10  1  1  0  0  0  0
 11  9  1  0  0  0  0
 11 10  1  0  0  0  0
 12  4  1  0  0  0  0
 13 15  2  0  0  0  0
 13 16  1  0  0  0  0
 14 13  1  0  0  0  0
 17 19  2  0  0  0  0
 17 18  1  0  0  0  0
 18 20  2  0  0  0  0
 19 22  1  0  0  0  0
 20 21  1  0  0  0  0
 22 16  1  0  0  0  0
 22 21  2  0  0  0  0
 23 29  1  1  0  0  0
 23 18  1  0  0  0  0
 23 27  1  0  0  0  0
 24 28  1  0  0  0  0
 26 25  1  0  0  0  0
 27 24  2  0  0  0  0
 27 26  1  0  0  0  0
 28 25  2  0  0  0  0
 30 29  1  0  0  0  0
 31 30  1  0  0  0  0
 32 33  1  0  0  0  0
 33 31  1  0  0  0  0
 35 34  1  1  0  0  0
 36 37  1  6  0  0  0
 36 35  1  0  0  0  0
 38 36  1  0  0  0  0
 39 40  1  0  0  0  0
 39 38  1  0  0  0  0
 40 41  1  0  0  0  0
 42 51  1  0  0  0  0
 42 48  2  0  0  0  0
 45 42  1  0  0  0  0
 46 53  1  1  0  0  0
 46 49  1  0  0  0  0
 49 44  1  0  0  0  0
 50 45  1  0  0  0  0
 50 46  1  0  0  0  0
 51 47  1  6  0  0  0
 51 52  1  0  0  0  0
 51 43  1  0  0  0  0
 52 41  1  1  0  0  0
 52 44  1  0  0  0  0
 55 54  1  0  0  0  0
 56 55  1  0  0  0  0
M  END
>  <MODEL>
3

>  <REMARK>
 VINA RESULT:      -6.1      2.180      3.746
  Name = 
  18 active torsions:
  status: ('A' for Active; 'I' for Inactive)
    1  A    between atoms: C_5  and  C_31
    2  A    between atoms: N_7  and  C_29
    3  A    between atoms: C_11  and  C_27
    4  A    between atoms: C_12  and  C_33
    5  A    between atoms: C_12  and  N_50
    6  A    between atoms: C_16  and  N_50
    7  A    between atoms: C_16  and  C_53
    8  A    between atoms: C_19  and  C_22
    9  A    between atoms: C_19  and  C_38
   10  A    between atoms: C_22  and  C_37
   11  A    between atoms: C_25  and  C_37
   12  A    between atoms: C_27  and  C_41
   13  A    between atoms: C_31  and  C_52
   14  A    between atoms: C_32  and  C_37
   15  A    between atoms: C_33  and  C_46
   16  A    between atoms: C_38  and  C_42
   17  A    between atoms: C_47  and  O_56
   18  A    between atoms: C_53  and  O_56
                            x       y       z     vdW  Elec       q    Type
                         _______ _______ _______ _____ _____    ______ ____

>  <TORSDO>
F 18

$$$$
=
 OpenBabel10232412193D

 56 60  0  0  1  0  0  0  0  0999 V2000
  185.9190  178.6340  138.5120 O   0  0  0  0  0  0  0  0  0  0  0  0
  185.1410  177.5160  136.4380 C   0  0  1  0  0  3  0  0  0  0  0  0
  183.9240  176.8810  137.1250 C   0  0  2  0  0  3  0  0  0  0  0  0
  187.0360  175.6350  135.7720 C   0  0  1  0  0  3  0  0  0  0  0  0
  182.9410  176.5880  136.1790 O   0  0  0  0  0  1  0  0  0  0  0  0
  186.9460  176.5580  137.9420 C   0  0  1  0  0  3  0  0  0  0  0  0
  186.3020  177.8430  137.4030 C   0  0  2  0  0  3  0  0  0  0  0  0
  186.7990  175.3920  137.1450 O   0  0  0  0  0  0  0  0  0  0  0  0
  183.2910  177.7510  138.2380 C   0  0  2  0  0  3  0  0  0  0  0  0
  185.0650  179.6610  138.0800 C   0  0  0  0  0  2  0  0  0  0  0  0
  183.5940  179.2650  138.2790 C   0  0  0  0  0  2  0  0  0  0  0  0
  185.7050  176.5910  134.9660 S   0  0  0  0  0  0  0  0  0  0  0  0
  189.4740  175.4220  135.1620 C   0  0  0  0  0  0  0  0  0  0  0  0
  188.3450  176.2210  135.5200 N   0  0  0  0  0  2  0  0  0  0  0  0
  189.4120  174.1640  135.2050 O   0  0  0  0  0  0  0  0  0  0  0  0
  190.7300  176.0820  134.7030 C   0  0  0  0  0  2  0  0  0  0  0  0
  193.1040  174.8600  137.3890 C   0  0  0  0  0  3  0  0  0  0  0  0
  194.1570  174.3430  136.6180 C   0  0  0  0  0  0  0  0  0  0  0  0
  191.9850  175.4180  136.7650 C   0  0  0  0  0  3  0  0  0  0  0  0
  194.0720  174.3740  135.2210 C   0  0  0  0  0  3  0  0  0  0  0  0
  192.9510  174.9310  134.5980 C   0  0  0  0  0  3  0  0  0  0  0  0
  191.9060  175.4520  135.3690 C   0  0  0  0  0  0  0  0  0  0  0  0
  195.3630  173.7270  137.2580 C   0  0  2  0  0  3  0  0  0  0  0  0
  195.2530  171.5650  138.4230 N   0  0  0  0  0  0  0  0  0  0  0  0
  194.9270  170.0990  136.5960 C   0  0  0  0  0  3  0  0  0  0  0  0
  195.0270  171.4560  136.2050 O   0  0  0  0  0  0  0  0  0  0  0  0
  195.2280  172.2330  137.3230 C   0  0  0  0  0  0  0  0  0  0  0  0
  195.0600  170.1530  138.1200 C   0  0  0  0  0  3  0  0  0  0  0  0
  195.6470  174.3500  138.6200 C   0  0  0  0  0  2  0  0  0  0  0  0
  197.1420  174.3980  138.8850 C   0  0  0  0  0  2  0  0  0  0  0  0
  197.8880  174.7670  137.6130 C   0  0  0  0  0  2  0  0  0  0  0  0
  199.0600  172.6760  137.1230 N   0  0  0  0  0  1  0  0  0  0  0  0
  199.2340  174.0580  137.5310 C   0  0  0  0  0  2  0  0  0  0  0  0
  182.2800  175.8820  139.6600 C   0  0  0  0  0  1  0  0  0  0  0  0
  183.1970  177.1000  139.6230 C   0  0  2  0  0  3  0  0  0  0  0  0
  182.8460  178.1080  140.7190 C   0  0  1  0  0  3  0  0  0  0  0  0
  181.5060  177.9630  141.1130 O   0  0  0  0  0  1  0  0  0  0  0  0
  183.7350  177.9210  141.8630 N   0  0  0  0  0  2  0  0  0  0  0  0
  184.9860  178.6180  141.6010 C   0  0  0  0  0  2  0  0  0  0  0  0
  185.7130  178.9300  142.9010 C   0  0  0  0  0  2  0  0  0  0  0  0
  185.7810  177.8010  143.7320 O   0  0  0  0  0  0  0  0  0  0  0  0
  188.7870  177.4730  146.0100 C   0  0  0  0  0  0  0  0  0  0  0  0
  186.6030  176.5070  146.1110 O   0  0  0  0  0  1  0  0  0  0  0  0
  187.7230  176.4220  143.2930 C   0  0  0  0  0  2  0  0  0  0  0  0
  189.8840  178.3220  145.4070 C   0  0  0  0  0  2  0  0  0  0  0  0
  189.9360  176.9720  143.1930 C   0  0  1  0  0  3  0  0  0  0  0  0
  186.7740  178.8670  146.2030 C   0  0  0  0  0  1  0  0  0  0  0  0
  189.0970  176.7000  146.9050 O   0  0  0  0  0  0  0  0  0  0  0  0
  189.0070  176.0710  143.7470 O   0  0  0  0  0  0  0  0  0  0  0  0
  189.8980  178.3530  143.8740 C   0  0  0  0  0  2  0  0  0  0  0  0
  187.3260  177.5880  145.5950 C   0  0  1  0  0  0  0  0  0  0  0  0
  187.1350  177.6310  144.0600 C   0  0  2  0  0  3  0  0  0  0  0  0
  191.2180  176.4380  143.3020 O   0  0  0  0  0  1  0  0  0  0  0  0
  188.3760  176.7760  138.4230 C   0  0  0  0  0  2  0  0  0  0  0  0
  188.3940  177.5450  139.7320 C   0  0  0  0  0  2  0  0  0  0  0  0
  189.6410  178.1460  139.9150 O   0  0  0  0  0  1  0  0  0  0  0  0
  2 12  1  6  0  0  0
  2  3  1  0  0  0  0
  2  7  1  0  0  0  0
  3  5  1  6  0  0  0
  3  9  1  0  0  0  0
  4 14  1  1  0  0  0
  4  8  1  0  0  0  0
  6 54  1  6  0  0  0
  7  6  1  0  0  0  0
  7  1  1  1  0  0  0
  8  6  1  0  0  0  0
  9 11  1  0  0  0  0
  9 35  1  1  0  0  0
 10 11  1  0  0  0  0
 10  1  1  0  0  0  0
 12  4  1  0  0  0  0
 13 15  2  0  0  0  0
 13 14  1  0  0  0  0
 16 13  1  0  0  0  0
 16 22  1  0  0  0  0
 18 23  1  0  0  0  0
 18 17  2  0  0  0  0
 19 17  1  0  0  0  0
 20 18  1  0  0  0  0
 21 20  2  0  0  0  0
 21 22  1  0  0  0  0
 22 19  2  0  0  0  0
 23 27  1  0  0  0  0
 23 29  1  1  0  0  0
 25 28  2  0  0  0  0
 26 25  1  0  0  0  0
 26 27  1  0  0  0  0
 27 24  2  0  0  0  0
 28 24  1  0  0  0  0
 29 30  1  0  0  0  0
 31 30  1  0  0  0  0
 32 33  1  0  0  0  0
 33 31  1  0  0  0  0
 35 34  1  6  0  0  0
 35 36  1  0  0  0  0
 36 37  1  1  0  0  0
 36 38  1  0  0  0  0
 39 38  1  0  0  0  0
 39 40  1  0  0  0  0
 40 41  1  0  0  0  0
 42 48  2  0  0  0  0
 44 49  1  0  0  0  0
 44 52  1  0  0  0  0
 45 42  1  0  0  0  0
 46 53  1  1  0  0  0
 46 49  1  0  0  0  0
 46 50  1  0  0  0  0
 50 45  1  0  0  0  0
 51 42  1  0  0  0  0
 51 43  1  0  0  0  0
 51 47  1  1  0  0  0
 52 41  1  1  0  0  0
 52 51  1  0  0  0  0
 54 55  1  0  0  0  0
 55 56  1  0  0  0  0
M  END
>  <MODEL>
4

>  <REMARK>
 VINA RESULT:      -5.1      4.141      8.769
  Name = 
  18 active torsions:
  status: ('A' for Active; 'I' for Inactive)
    1  A    between atoms: C_5  and  C_31
    2  A    between atoms: N_7  and  C_29
    3  A    between atoms: C_11  and  C_27
    4  A    between atoms: C_12  and  C_33
    5  A    between atoms: C_12  and  N_50
    6  A    between atoms: C_16  and  N_50
    7  A    between atoms: C_16  and  C_53
    8  A    between atoms: C_19  and  C_22
    9  A    between atoms: C_19  and  C_38
   10  A    between atoms: C_22  and  C_37
   11  A    between atoms: C_25  and  C_37
   12  A    between atoms: C_27  and  C_41
   13  A    between atoms: C_31  and  C_52
   14  A    between atoms: C_32  and  C_37
   15  A    between atoms: C_33  and  C_46
   16  A    between atoms: C_38  and  C_42
   17  A    between atoms: C_47  and  O_56
   18  A    between atoms: C_53  and  O_56
                            x       y       z     vdW  Elec       q    Type
                         _______ _______ _______ _____ _____    ______ ____

>  <TORSDO>
F 18

$$$$
=
 OpenBabel10232412193D

 56 60  0  0  1  0  0  0  0  0999 V2000
  189.4730  176.3870  136.8180 O   0  0  0  0  0  0  0  0  0  0  0  0
  187.7740  174.6530  137.3300 C   0  0  1  0  0  3  0  0  0  0  0  0
  188.5950  173.5250  136.6910 C   0  0  2  0  0  3  0  0  0  0  0  0
  185.5340  175.2520  135.8500 C   0  0  1  0  0  3  0  0  0  0  0  0
  188.2150  172.2940  137.2270 O   0  0  0  0  0  1  0  0  0  0  0  0
  187.6330  176.1860  135.3140 C   0  0  1  0  0  3  0  0  0  0  0  0
  188.0980  176.0560  136.7710 C   0  0  2  0  0  3  0  0  0  0  0  0
  186.5820  175.3250  134.9040 O   0  0  0  0  0  0  0  0  0  0  0  0
  190.1270  173.6790  136.8500 C   0  0  2  0  0  3  0  0  0  0  0  0
  190.0060  175.9920  138.0560 C   0  0  0  0  0  2  0  0  0  0  0  0
  190.6830  174.6180  137.9430 C   0  0  0  0  0  2  0  0  0  0  0  0
  185.9770  174.3160  137.3540 S   0  0  0  0  0  0  0  0  0  0  0  0
  183.7680  176.6990  136.9250 C   0  0  0  0  0  0  0  0  0  0  0  0
  184.9770  176.5580  136.1760 N   0  0  0  0  0  2  0  0  0  0  0  0
  183.0580  175.6940  137.1950 O   0  0  0  0  0  0  0  0  0  0  0  0
  183.3580  178.0450  137.4190 C   0  0  0  0  0  2  0  0  0  0  0  0
  185.5790  178.8940  140.3660 C   0  0  0  0  0  3  0  0  0  0  0  0
  184.7630  178.5270  141.4470 C   0  0  0  0  0  0  0  0  0  0  0  0
  185.1190  178.7440  139.0550 C   0  0  0  0  0  3  0  0  0  0  0  0
  183.4780  178.0270  141.2050 C   0  0  0  0  0  3  0  0  0  0  0  0
  183.0170  177.8800  139.8940 C   0  0  0  0  0  3  0  0  0  0  0  0
  183.8360  178.2400  138.8170 C   0  0  0  0  0  0  0  0  0  0  0  0
  185.2250  178.6870  142.8630 C   0  0  2  0  0  3  0  0  0  0  0  0
  186.6870  176.9360  143.7770 N   0  0  0  0  0  0  0  0  0  0  0  0
  188.7720  177.5890  142.8720 C   0  0  0  0  0  3  0  0  0  0  0  0
  187.7110  178.4480  142.4950 O   0  0  0  0  0  0  0  0  0  0  0  0
  186.5450  178.0040  143.0740 C   0  0  0  0  0  0  0  0  0  0  0  0
  188.0860  176.5300  143.7390 C   0  0  0  0  0  3  0  0  0  0  0  0
  184.1590  178.2220  143.8490 C   0  0  0  0  0  2  0  0  0  0  0  0
  183.1580  179.3330  144.1180 C   0  0  0  0  0  2  0  0  0  0  0  0
  181.7410  178.7900  144.0460 C   0  0  0  0  0  2  0  0  0  0  0  0
  180.1230  180.5840  143.6620 N   0  0  0  0  0  1  0  0  0  0  0  0
  180.9060  179.5450  143.0190 C   0  0  0  0  0  2  0  0  0  0  0  0
  190.1440  174.1970  134.3460 C   0  0  0  0  0  1  0  0  0  0  0  0
  190.9370  173.6950  135.5480 C   0  0  2  0  0  3  0  0  0  0  0  0
  191.6110  172.3520  135.2630 C   0  0  1  0  0  3  0  0  0  0  0  0
  190.6900  171.4410  134.7210 O   0  0  0  0  0  1  0  0  0  0  0  0
  192.7310  172.5480  134.3460 N   0  0  0  0  0  2  0  0  0  0  0  0
  193.5650  171.3540  134.3650 C   0  0  0  0  0  2  0  0  0  0  0  0
  194.8500  171.6050  135.1400 C   0  0  0  0  0  2  0  0  0  0  0  0
  195.4380  172.8260  134.7730 O   0  0  0  0  0  0  0  0  0  0  0  0
  196.9690  174.5630  137.7680 C   0  0  0  0  0  0  0  0  0  0  0  0
  197.6890  174.3800  135.4970 O   0  0  0  0  0  1  0  0  0  0  0  0
  194.7160  174.9550  135.6720 C   0  0  0  0  0  2  0  0  0  0  0  0
  196.0310  174.3290  138.9320 C   0  0  0  0  0  2  0  0  0  0  0  0
  194.0360  175.5190  137.7770 C   0  0  1  0  0  3  0  0  0  0  0  0
  197.4680  172.3840  136.7510 C   0  0  0  0  0  1  0  0  0  0  0  0
  197.8480  175.4000  137.9090 O   0  0  0  0  0  0  0  0  0  0  0  0
  194.8930  175.8780  136.7190 O   0  0  0  0  0  0  0  0  0  0  0  0
  194.5450  174.2920  138.5580 C   0  0  0  0  0  2  0  0  0  0  0  0
  196.8980  173.7660  136.4730 C   0  0  1  0  0  0  0  0  0  0  0  0
  195.4560  173.6210  135.9300 C   0  0  2  0  0  3  0  0  0  0  0  0
  193.9020  176.5980  138.6480 O   0  0  0  0  0  1  0  0  0  0  0  0
  187.4130  177.6360  134.8970 C   0  0  0  0  0  2  0  0  0  0  0  0
  187.0230  178.4880  136.0930 C   0  0  0  0  0  2  0  0  0  0  0  0
  188.0910  179.3110  136.4580 O   0  0  0  0  0  1  0  0  0  0  0  0
  1 10  1  0  0  0  0
  2 12  1  6  0  0  0
  3  9  1  0  0  0  0
  3  5  1  1  0  0  0
  3  2  1  0  0  0  0
  4 14  1  1  0  0  0
  4 12  1  0  0  0  0
  6 54  1  1  0  0  0
  6  7  1  0  0  0  0
  7  1  1  6  0  0  0
  7  2  1  0  0  0  0
  8  6  1  0  0  0  0
  8  4  1  0  0  0  0
  9 35  1  6  0  0  0
  9 11  1  0  0  0  0
 11 10  1  0  0  0  0
 13 15  2  0  0  0  0
 13 16  1  0  0  0  0
 14 13  1  0  0  0  0
 16 22  1  0  0  0  0
 17 18  1  0  0  0  0
 18 23  1  0  0  0  0
 19 17  2  0  0  0  0
 20 18  2  0  0  0  0
 21 20  1  0  0  0  0
 22 19  1  0  0  0  0
 22 21  2  0  0  0  0
 23 27  1  0  0  0  0
 23 29  1  1  0  0  0
 25 28  2  0  0  0  0
 26 25  1  0  0  0  0
 26 27  1  0  0  0  0
 27 24  2  0  0  0  0
 28 24  1  0  0  0  0
 29 30  1  0  0  0  0
 31 30  1  0  0  0  0
 33 32  1  0  0  0  0
 33 31  1  0  0  0  0
 35 34  1  6  0  0  0
 36 37  1  6  0  0  0
 36 35  1  0  0  0  0
 38 39  1  0  0  0  0
 38 36  1  0  0  0  0
 39 40  1  0  0  0  0
 41 40  1  0  0  0  0
 42 48  2  0  0  0  0
 42 45  1  0  0  0  0
 43 51  1  0  0  0  0
 44 52  1  0  0  0  0
 44 49  1  0  0  0  0
 46 50  1  0  0  0  0
 46 53  1  1  0  0  0
 49 46  1  0  0  0  0
 50 45  1  0  0  0  0
 51 47  1  1  0  0  0
 51 42  1  0  0  0  0
 52 41  1  6  0  0  0
 52 51  1  0  0  0  0
 54 55  1  0  0  0  0
 55 56  1  0  0  0  0
M  END
>  <MODEL>
5

>  <REMARK>
 VINA RESULT:      -4.9      4.115      8.953
  Name = 
  18 active torsions:
  status: ('A' for Active; 'I' for Inactive)
    1  A    between atoms: C_5  and  C_31
    2  A    between atoms: N_7  and  C_29
    3  A    between atoms: C_11  and  C_27
    4  A    between atoms: C_12  and  C_33
    5  A    between atoms: C_12  and  N_50
    6  A    between atoms: C_16  and  N_50
    7  A    between atoms: C_16  and  C_53
    8  A    between atoms: C_19  and  C_22
    9  A    between atoms: C_19  and  C_38
   10  A    between atoms: C_22  and  C_37
   11  A    between atoms: C_25  and  C_37
   12  A    between atoms: C_27  and  C_41
   13  A    between atoms: C_31  and  C_52
   14  A    between atoms: C_32  and  C_37
   15  A    between atoms: C_33  and  C_46
   16  A    between atoms: C_38  and  C_42
   17  A    between atoms: C_47  and  O_56
   18  A    between atoms: C_53  and  O_56
                            x       y       z     vdW  Elec       q    Type
                         _______ _______ _______ _____ _____    ______ ____

>  <TORSDO>
F 18

$$$$
=
 OpenBabel10232412193D

 56 60  0  0  1  0  0  0  0  0999 V2000
  185.0650  174.9520  136.7190 O   0  0  0  0  0  0  0  0  0  0  0  0
  182.8820  174.2880  137.6930 C   0  0  1  0  0  3  0  0  0  0  0  0
  182.8310  172.9640  136.9170 C   0  0  2  0  0  3  0  0  0  0  0  0
  181.0080  176.0820  136.7770 C   0  0  1  0  0  3  0  0  0  0  0  0
  182.0020  172.0560  137.5750 O   0  0  0  0  0  1  0  0  0  0  0  0
  183.1020  175.8600  135.7130 C   0  0  1  0  0  3  0  0  0  0  0  0
  183.7480  175.3740  137.0180 C   0  0  2  0  0  3  0  0  0  0  0  0
  181.6970  175.6980  135.6030 O   0  0  0  0  0  0  0  0  0  0  0  0
  184.2110  172.3000  136.6950 C   0  0  2  0  0  3  0  0  0  0  0  0
  185.5810  174.2260  137.8050 C   0  0  0  0  0  2  0  0  0  0  0  0
  185.4040  172.7160  137.5840 C   0  0  0  0  0  2  0  0  0  0  0  0
  181.2300  174.9140  138.1630 S   0  0  0  0  0  0  0  0  0  0  0  0
  181.2130  177.8750  138.5400 C   0  0  0  0  0  0  0  0  0  0  0  0
  181.2980  177.4520  137.1780 N   0  0  0  0  0  2  0  0  0  0  0  0
  180.7310  177.1140  139.4210 O   0  0  0  0  0  0  0  0  0  0  0  0
  181.7280  179.2190  138.9290 C   0  0  0  0  0  2  0  0  0  0  0  0
  185.3870  178.7690  139.7920 C   0  0  0  0  0  3  0  0  0  0  0  0
  185.3400  178.7150  141.1940 C   0  0  0  0  0  0  0  0  0  0  0  0
  184.2120  178.9420  139.0560 C   0  0  0  0  0  3  0  0  0  0  0  0
  184.1110  178.8510  141.8510 C   0  0  0  0  0  3  0  0  0  0  0  0
  182.9360  179.0260  141.1130 C   0  0  0  0  0  3  0  0  0  0  0  0
  182.9860  179.0730  139.7160 C   0  0  0  0  0  0  0  0  0  0  0  0
  186.5840  178.5430  142.0100 C   0  0  2  0  0  3  0  0  0  0  0  0
  188.4470  177.1130  141.2830 N   0  0  0  0  0  0  0  0  0  0  0  0
  189.2600  178.3560  139.4420 C   0  0  0  0  0  3  0  0  0  0  0  0
  188.1480  178.9640  140.0720 O   0  0  0  0  0  0  0  0  0  0  0  0
  187.7510  178.1850  141.1350 C   0  0  0  0  0  0  0  0  0  0  0  0
  189.4710  177.0700  140.2470 C   0  0  0  0  0  3  0  0  0  0  0  0
  186.3710  177.5430  143.1410 C   0  0  0  0  0  2  0  0  0  0  0  0
  187.4850  177.6530  144.1680 C   0  0  0  0  0  2  0  0  0  0  0  0
  186.9120  177.5820  145.5730 C   0  0  0  0  0  2  0  0  0  0  0  0
  185.3700  178.7180  147.0950 N   0  0  0  0  0  1  0  0  0  0  0  0
  185.6460  178.4200  145.7020 C   0  0  0  0  0  2  0  0  0  0  0  0
  183.3990  171.6940  134.3470 C   0  0  0  0  0  1  0  0  0  0  0  0
  184.5930  172.0230  135.2350 C   0  0  2  0  0  3  0  0  0  0  0  0
  185.6990  170.9730  135.1110 C   0  0  1  0  0  3  0  0  0  0  0  0
  185.2110  169.8110  134.4930 O   0  0  0  0  0  1  0  0  0  0  0  0
  186.8170  171.5230  134.3470 N   0  0  0  0  0  2  0  0  0  0  0  0
  188.0610  171.0270  134.9180 C   0  0  0  0  0  2  0  0  0  0  0  0
  188.8020  172.1390  135.6450 C   0  0  0  0  0  2  0  0  0  0  0  0
  189.1390  173.1860  134.7730 O   0  0  0  0  0  0  0  0  0  0  0  0
  191.4230  175.3300  136.9000 C   0  0  0  0  0  0  0  0  0  0  0  0
  189.5230  173.9900  137.4580 O   0  0  0  0  0  1  0  0  0  0  0  0
  191.3570  172.5550  135.5150 C   0  0  0  0  0  2  0  0  0  0  0  0
  192.4560  175.9220  135.9680 C   0  0  0  0  0  2  0  0  0  0  0  0
  193.3640  173.6050  135.2370 C   0  0  1  0  0  3  0  0  0  0  0  0
  189.2020  175.7960  135.9600 C   0  0  0  0  0  1  0  0  0  0  0  0
  191.6220  175.4270  138.1020 O   0  0  0  0  0  0  0  0  0  0  0  0
  192.5130  172.9990  136.1810 O   0  0  0  0  0  0  0  0  0  0  0  0
  192.8770  175.0040  134.8140 C   0  0  0  0  0  2  0  0  0  0  0  0
  190.1350  174.6830  136.4080 C   0  0  1  0  0  0  0  0  0  0  0  0
  190.3610  173.7050  135.2300 C   0  0  2  0  0  3  0  0  0  0  0  0
  194.6480  173.7050  135.7710 O   0  0  0  0  0  1  0  0  0  0  0  0
  183.5770  177.2510  135.3070 C   0  0  0  0  0  2  0  0  0  0  0  0
  184.7580  177.1620  134.3560 C   0  0  0  0  0  2  0  0  0  0  0  0
  185.9200  177.5940  135.0000 O   0  0  0  0  0  1  0  0  0  0  0  0
  1 10  1  0  0  0  0
  2 12  1  6  0  0  0
  3  5  1  1  0  0  0
  3  2  1  0  0  0  0
  4 14  1  1  0  0  0
  4 12  1  0  0  0  0
  6 54  1  1  0  0  0
  6  7  1  0  0  0  0
  7  1  1  6  0  0  0
  7  2  1  0  0  0  0
  8  6  1  0  0  0  0
  8  4  1  0  0  0  0
  9 35  1  6  0  0  0
  9  3  1  0  0  0  0
  9 11  1  0  0  0  0
 11 10  1  0  0  0  0
 13 16  1  0  0  0  0
 13 15  2  0  0  0  0
 14 13  1  0  0  0  0
 16 22  1  0  0  0  0
 17 18  1  0  0  0  0
 18 20  2  0  0  0  0
 18 23  1  0  0  0  0
 19 22  1  0  0  0  0
 19 17  2  0  0  0  0
 21 20  1  0  0  0  0
 22 21  2  0  0  0  0
 23 29  1  1  0  0  0
 25 26  1  0  0  0  0
 25 28  2  0  0  0  0
 26 27  1  0  0  0  0
 27 24  2  0  0  0  0
 27 23  1  0  0  0  0
 28 24  1  0  0  0  0
 29 30  1  0  0  0  0
 30 31  1  0  0  0  0
 31 33  1  0  0  0  0
 33 32  1  0  0  0  0
 35 34  1  6  0  0  0
 36 37  1  6  0  0  0
 36 35  1  0  0  0  0
 38 39  1  0  0  0  0
 38 36  1  0  0  0  0
 39 40  1  0  0  0  0
 41 40  1  0  0  0  0
 42 48  2  0  0  0  0
 44 49  1  0  0  0  0
 45 42  1  0  0  0  0
 46 53  1  1  0  0  0
 46 49  1  0  0  0  0
 50 46  1  0  0  0  0
 50 45  1  0  0  0  0
 51 47  1  6  0  0  0
 51 42  1  0  0  0  0
 51 43  1  0  0  0  0
 52 41  1  1  0  0  0
 52 44  1  0  0  0  0
 52 51  1  0  0  0  0
 55 56  1  0  0  0  0
 55 54  1  0  0  0  0
M  END
>  <MODEL>
6

>  <REMARK>
 VINA RESULT:      -4.6      3.286      6.564
  Name = 
  18 active torsions:
  status: ('A' for Active; 'I' for Inactive)
    1  A    between atoms: C_5  and  C_31
    2  A    between atoms: N_7  and  C_29
    3  A    between atoms: C_11  and  C_27
    4  A    between atoms: C_12  and  C_33
    5  A    between atoms: C_12  and  N_50
    6  A    between atoms: C_16  and  N_50
    7  A    between atoms: C_16  and  C_53
    8  A    between atoms: C_19  and  C_22
    9  A    between atoms: C_19  and  C_38
   10  A    between atoms: C_22  and  C_37
   11  A    between atoms: C_25  and  C_37
   12  A    between atoms: C_27  and  C_41
   13  A    between atoms: C_31  and  C_52
   14  A    between atoms: C_32  and  C_37
   15  A    between atoms: C_33  and  C_46
   16  A    between atoms: C_38  and  C_42
   17  A    between atoms: C_47  and  O_56
   18  A    between atoms: C_53  and  O_56
                            x       y       z     vdW  Elec       q    Type
                         _______ _______ _______ _____ _____    ______ ____

>  <TORSDO>
F 18

$$$$
=
 OpenBabel10232412193D

 56 60  0  0  1  0  0  0  0  0999 V2000
  190.1890  176.1050  137.1290 O   0  0  0  0  0  0  0  0  0  0  0  0
  188.2280  174.5920  137.2720 C   0  0  1  0  0  3  0  0  0  0  0  0
  188.9350  173.4500  136.5280 C   0  0  2  0  0  3  0  0  0  0  0  0
  186.2270  175.7150  135.7540 C   0  0  1  0  0  3  0  0  0  0  0  0
  188.3430  172.2300  136.8530 O   0  0  0  0  0  1  0  0  0  0  0  0
  188.4730  176.3870  135.4960 C   0  0  1  0  0  3  0  0  0  0  0  0
  188.7900  175.9930  136.9450 C   0  0  2  0  0  3  0  0  0  0  0  0
  187.3510  175.7570  134.8980 O   0  0  0  0  0  0  0  0  0  0  0  0
  190.4540  173.3500  136.8060 C   0  0  2  0  0  3  0  0  0  0  0  0
  190.5550  175.4700  138.3270 C   0  0  0  0  0  2  0  0  0  0  0  0
  191.0420  174.0380  138.0580 C   0  0  0  0  0  2  0  0  0  0  0  0
  186.4060  174.5280  137.1300 S   0  0  0  0  0  0  0  0  0  0  0  0
  184.6710  177.2280  137.0410 C   0  0  0  0  0  0  0  0  0  0  0  0
  185.8320  177.0340  136.2310 N   0  0  0  0  0  2  0  0  0  0  0  0
  183.8600  176.2840  137.2400 O   0  0  0  0  0  0  0  0  0  0  0  0
  184.4310  178.5520  137.6830 C   0  0  0  0  0  2  0  0  0  0  0  0
  184.4610  178.6460  141.4680 C   0  0  0  0  0  3  0  0  0  0  0  0
  185.8350  178.5670  141.7400 C   0  0  0  0  0  0  0  0  0  0  0  0
  184.0040  178.6330  140.1480 C   0  0  0  0  0  3  0  0  0  0  0  0
  186.7450  178.4570  140.6810 C   0  0  0  0  0  3  0  0  0  0  0  0
  186.2860  178.4420  139.3600 C   0  0  0  0  0  3  0  0  0  0  0  0
  184.9160  178.5280  139.0920 C   0  0  0  0  0  0  0  0  0  0  0  0
  186.3550  178.5660  143.1450 C   0  0  2  0  0  3  0  0  0  0  0  0
  187.8140  176.5970  143.3290 N   0  0  0  0  0  0  0  0  0  0  0  0
  189.9440  177.6200  143.2340 C   0  0  0  0  0  3  0  0  0  0  0  0
  188.8800  178.5490  143.1450 O   0  0  0  0  0  0  0  0  0  0  0  0
  187.6840  177.8730  143.2220 C   0  0  0  0  0  0  0  0  0  0  0  0
  189.2340  176.2680  143.3410 C   0  0  0  0  0  3  0  0  0  0  0  0
  185.3320  177.9830  144.1130 C   0  0  0  0  0  2  0  0  0  0  0  0
  184.7980  179.0620  145.0400 C   0  0  0  0  0  2  0  0  0  0  0  0
  185.5740  179.0610  146.3460 C   0  0  0  0  0  2  0  0  0  0  0  0
  187.5290  177.8640  147.2000 N   0  0  0  0  0  1  0  0  0  0  0  0
  186.2100  177.7030  146.6170 C   0  0  0  0  0  2  0  0  0  0  0  0
  190.6830  174.0110  134.3470 C   0  0  0  0  0  1  0  0  0  0  0  0
  191.3660  173.4210  135.5750 C   0  0  2  0  0  3  0  0  0  0  0  0
  192.0330  172.0800  135.2650 C   0  0  1  0  0  3  0  0  0  0  0  0
  191.1280  171.2110  134.6360 O   0  0  0  0  0  1  0  0  0  0  0  0
  193.2030  172.2960  134.4170 N   0  0  0  0  0  2  0  0  0  0  0  0
  194.0310  171.0990  134.4490 C   0  0  0  0  0  2  0  0  0  0  0  0
  195.3750  171.3900  135.1010 C   0  0  0  0  0  2  0  0  0  0  0  0
  195.9120  172.6050  134.6470 O   0  0  0  0  0  0  0  0  0  0  0  0
  197.8280  175.0210  136.8440 C   0  0  0  0  0  0  0  0  0  0  0  0
  197.2800  175.0780  134.5180 O   0  0  0  0  0  1  0  0  0  0  0  0
  194.9140  174.1820  136.1910 C   0  0  0  0  0  2  0  0  0  0  0  0
  197.8280  174.4340  138.2380 C   0  0  0  0  0  2  0  0  0  0  0  0
  195.2420  174.4690  138.4310 C   0  0  1  0  0  3  0  0  0  0  0  0
  198.6210  173.2870  135.2950 C   0  0  0  0  0  1  0  0  0  0  0  0
  198.1910  176.1810  136.7180 O   0  0  0  0  0  0  0  0  0  0  0  0
  195.1810  175.1340  137.1910 O   0  0  0  0  0  0  0  0  0  0  0  0
  196.5500  173.6750  138.6130 C   0  0  0  0  0  2  0  0  0  0  0  0
  197.4580  174.2160  135.6050 C   0  0  1  0  0  0  0  0  0  0  0  0
  196.1720  173.3750  135.7920 C   0  0  2  0  0  3  0  0  0  0  0  0
  195.1210  175.4010  139.4600 O   0  0  0  0  0  1  0  0  0  0  0  0
  188.4940  177.8970  135.2820 C   0  0  0  0  0  2  0  0  0  0  0  0
  188.6190  178.6280  136.6080 C   0  0  0  0  0  2  0  0  0  0  0  0
  187.9360  179.8450  136.5470 O   0  0  0  0  0  1  0  0  0  0  0  0
  1 10  1  0  0  0  0
  2 12  1  6  0  0  0
  3  9  1  0  0  0  0
  3  5  1  1  0  0  0
  3  2  1  0  0  0  0
  4 14  1  1  0  0  0
  4 12  1  0  0  0  0
  6 54  1  1  0  0  0
  6  7  1  0  0  0  0
  7  1  1  6  0  0  0
  7  2  1  0  0  0  0
  8  6  1  0  0  0  0
  8  4  1  0  0  0  0
  9 35  1  6  0  0  0
  9 11  1  0  0  0  0
 11 10  1  0  0  0  0
 13 15  2  0  0  0  0
 13 16  1  0  0  0  0
 14 13  1  0  0  0  0
 16 22  1  0  0  0  0
 17 18  1  0  0  0  0
 18 23  1  0  0  0  0
 19 17  2  0  0  0  0
 20 18  2  0  0  0  0
 21 20  1  0  0  0  0
 22 21  2  0  0  0  0
 22 19  1  0  0  0  0
 23 27  1  0  0  0  0
 23 29  1  1  0  0  0
 24 28  1  0  0  0  0
 25 28  2  0  0  0  0
 26 27  1  0  0  0  0
 26 25  1  0  0  0  0
 27 24  2  0  0  0  0
 29 30  1  0  0  0  0
 30 31  1  0  0  0  0
 31 33  1  0  0  0  0
 33 32  1  0  0  0  0
 35 34  1  6  0  0  0
 36 37  1  6  0  0  0
 36 35  1  0  0  0  0
 38 39  1  0  0  0  0
 38 36  1  0  0  0  0
 39 40  1  0  0  0  0
 41 40  1  0  0  0  0
 42 45  1  0  0  0  0
 43 51  1  0  0  0  0
 44 49  1  0  0  0  0
 45 50  1  0  0  0  0
 46 50  1  0  0  0  0
 46 53  1  1  0  0  0
 48 42  2  0  0  0  0
 49 46  1  0  0  0  0
 51 47  1  6  0  0  0
 51 52  1  0  0  0  0
 51 42  1  0  0  0  0
 52 41  1  6  0  0  0
 52 44  1  0  0  0  0
 54 55  1  0  0  0  0
 56 55  1  0  0  0  0
M  END
>  <MODEL>
7

>  <REMARK>
 VINA RESULT:      -4.6      4.485      8.641
  Name = 
  18 active torsions:
  status: ('A' for Active; 'I' for Inactive)
    1  A    between atoms: C_5  and  C_31
    2  A    between atoms: N_7  and  C_29
    3  A    between atoms: C_11  and  C_27
    4  A    between atoms: C_12  and  C_33
    5  A    between atoms: C_12  and  N_50
    6  A    between atoms: C_16  and  N_50
    7  A    between atoms: C_16  and  C_53
    8  A    between atoms: C_19  and  C_22
    9  A    between atoms: C_19  and  C_38
   10  A    between atoms: C_22  and  C_37
   11  A    between atoms: C_25  and  C_37
   12  A    between atoms: C_27  and  C_41
   13  A    between atoms: C_31  and  C_52
   14  A    between atoms: C_32  and  C_37
   15  A    between atoms: C_33  and  C_46
   16  A    between atoms: C_38  and  C_42
   17  A    between atoms: C_47  and  O_56
   18  A    between atoms: C_53  and  O_56
                            x       y       z     vdW  Elec       q    Type
                         _______ _______ _______ _____ _____    ______ ____

>  <TORSDO>
F 18

$$$$
=
 OpenBabel10232412193D

 56 60  0  0  1  0  0  0  0  0999 V2000
  186.6990  175.1730  136.6020 O   0  0  0  0  0  0  0  0  0  0  0  0
  184.5340  174.2740  137.4140 C   0  0  1  0  0  3  0  0  0  0  0  0
  184.6990  172.9430  136.6680 C   0  0  2  0  0  3  0  0  0  0  0  0
  182.5480  175.8260  136.3090 C   0  0  1  0  0  3  0  0  0  0  0  0
  183.9280  171.9540  137.2790 O   0  0  0  0  0  1  0  0  0  0  0  0
  184.7340  175.8320  135.4220 C   0  0  1  0  0  3  0  0  0  0  0  0
  185.3220  175.4440  136.7850 C   0  0  2  0  0  3  0  0  0  0  0  0
  183.3700  175.5070  135.2030 O   0  0  0  0  0  0  0  0  0  0  0  0
  186.1590  172.4400  136.5730 C   0  0  2  0  0  3  0  0  0  0  0  0
  187.2040  174.5270  137.7430 C   0  0  0  0  0  2  0  0  0  0  0  0
  187.2190  173.0040  137.5440 C   0  0  0  0  0  2  0  0  0  0  0  0
  182.7880  174.7110  137.7360 S   0  0  0  0  0  0  0  0  0  0  0  0
  181.7430  177.8130  137.6380 C   0  0  0  0  0  0  0  0  0  0  0  0
  182.6460  177.2260  136.6990 N   0  0  0  0  0  2  0  0  0  0  0  0
  180.7330  177.1780  138.0420 O   0  0  0  0  0  0  0  0  0  0  0  0
  182.0150  179.1800  138.1690 C   0  0  0  0  0  2  0  0  0  0  0  0
  183.4090  178.8150  141.6710 C   0  0  0  0  0  3  0  0  0  0  0  0
  184.7780  179.0360  141.4520 C   0  0  0  0  0  0  0  0  0  0  0  0
  182.5110  178.8540  140.6000 C   0  0  0  0  0  3  0  0  0  0  0  0
  185.2410  179.2780  140.1530 C   0  0  0  0  0  3  0  0  0  0  0  0
  184.3420  179.3150  139.0820 C   0  0  0  0  0  3  0  0  0  0  0  0
  182.9770  179.1010  139.3050 C   0  0  0  0  0  0  0  0  0  0  0  0
  185.7650  178.9880  142.5770 C   0  0  2  0  0  3  0  0  0  0  0  0
  187.6660  177.4370  142.7370 N   0  0  0  0  0  0  0  0  0  0  0  0
  188.8920  178.0460  140.8090 C   0  0  0  0  0  3  0  0  0  0  0  0
  187.7060  178.8020  140.9730 O   0  0  0  0  0  0  0  0  0  0  0  0
  187.0660  178.3940  142.1200 C   0  0  0  0  0  0  0  0  0  0  0  0
  188.8740  177.0860  142.0030 C   0  0  0  0  0  3  0  0  0  0  0  0
  185.1870  178.2710  143.7910 C   0  0  0  0  0  2  0  0  0  0  0  0
  185.6720  178.9210  145.0760 C   0  0  0  0  0  2  0  0  0  0  0  0
  185.5860  177.9330  146.2280 C   0  0  0  0  0  2  0  0  0  0  0  0
  187.3800  177.9970  147.8900 N   0  0  0  0  0  1  0  0  0  0  0  0
  186.0870  178.5480  147.5290 C   0  0  0  0  0  2  0  0  0  0  0  0
  185.9800  171.0460  134.4360 C   0  0  0  0  0  1  0  0  0  0  0  0
  186.6890  172.1880  135.1550 C   0  0  2  0  0  3  0  0  0  0  0  0
  188.2100  172.0220  135.1210 C   0  0  1  0  0  3  0  0  0  0  0  0
  188.5660  170.8640  134.4140 O   0  0  0  0  0  1  0  0  0  0  0  0
  188.8200  173.2000  134.5090 N   0  0  0  0  0  2  0  0  0  0  0  0
  190.2460  172.9560  134.3460 C   0  0  0  0  0  2  0  0  0  0  0  0
  191.0360  173.5950  135.4780 C   0  0  0  0  0  2  0  0  0  0  0  0
  192.0070  174.4820  134.9880 O   0  0  0  0  0  0  0  0  0  0  0  0
  195.5640  174.8500  136.2300 C   0  0  0  0  0  0  0  0  0  0  0  0
  193.6020  176.1600  136.6150 O   0  0  0  0  0  1  0  0  0  0  0  0
  193.0010  173.1910  136.7790 C   0  0  0  0  0  2  0  0  0  0  0  0
  196.3500  173.6970  135.6470 C   0  0  0  0  0  2  0  0  0  0  0  0
  194.8820  171.8980  136.8030 C   0  0  1  0  0  3  0  0  0  0  0  0
  194.3850  175.9690  134.3880 C   0  0  0  0  0  1  0  0  0  0  0  0
  196.0920  175.5030  137.1180 O   0  0  0  0  0  0  0  0  0  0  0  0
  194.1940  172.9250  137.4770 O   0  0  0  0  0  0  0  0  0  0  0  0
  195.5600  172.3900  135.5100 C   0  0  0  0  0  2  0  0  0  0  0  0
  194.1900  175.2600  135.7190 C   0  0  1  0  0  0  0  0  0  0  0  0
  193.2350  174.0590  135.5190 C   0  0  2  0  0  3  0  0  0  0  0  0
  195.8450  171.3550  137.6520 O   0  0  0  0  0  1  0  0  0  0  0  0
  185.0780  177.2640  135.0220 C   0  0  0  0  0  2  0  0  0  0  0  0
  186.5780  177.4300  134.8500 C   0  0  0  0  0  2  0  0  0  0  0  0
  187.0620  178.3620  135.7700 O   0  0  0  0  0  1  0  0  0  0  0  0
  1 10  1  0  0  0  0
  2 12  1  6  0  0  0
  3  5  1  1  0  0  0
  3  2  1  0  0  0  0
  4 14  1  1  0  0  0
  4 12  1  0  0  0  0
  6 54  1  1  0  0  0
  6  7  1  0  0  0  0
  7  1  1  6  0  0  0
  7  2  1  0  0  0  0
  8  6  1  0  0  0  0
  8  4  1  0  0  0  0
  9 35  1  6  0  0  0
  9  3  1  0  0  0  0
  9 11  1  0  0  0  0
 11 10  1  0  0  0  0
 13 15  2  0  0  0  0
 13 16  1  0  0  0  0
 14 13  1  0  0  0  0
 16 22  1  0  0  0  0
 18 17  1  0  0  0  0
 18 23  1  0  0  0  0
 19 17  2  0  0  0  0
 20 18  2  0  0  0  0
 21 22  2  0  0  0  0
 21 20  1  0  0  0  0
 22 19  1  0  0  0  0
 23 29  1  1  0  0  0
 25 26  1  0  0  0  0
 25 28  2  0  0  0  0
 26 27  1  0  0  0  0
 27 23  1  0  0  0  0
 27 24  2  0  0  0  0
 28 24  1  0  0  0  0
 29 30  1  0  0  0  0
 30 31  1  0  0  0  0
 31 33  1  0  0  0  0
 33 32  1  0  0  0  0
 35 34  1  1  0  0  0
 36 37  1  6  0  0  0
 36 35  1  0  0  0  0
 38 36  1  0  0  0  0
 39 38  1  0  0  0  0
 39 40  1  0  0  0  0
 41 40  1  0  0  0  0
 42 48  2  0  0  0  0
 44 49  1  0  0  0  0
 45 42  1  0  0  0  0
 46 49  1  0  0  0  0
 46 53  1  1  0  0  0
 50 45  1  0  0  0  0
 50 46  1  0  0  0  0
 51 47  1  6  0  0  0
 51 42  1  0  0  0  0
 51 43  1  0  0  0  0
 52 41  1  1  0  0  0
 52 51  1  0  0  0  0
 52 44  1  0  0  0  0
 55 54  1  0  0  0  0
 55 56  1  0  0  0  0
M  END
>  <MODEL>
8

>  <REMARK>
 VINA RESULT:      -4.5      3.600      7.333
  Name = 
  18 active torsions:
  status: ('A' for Active; 'I' for Inactive)
    1  A    between atoms: C_5  and  C_31
    2  A    between atoms: N_7  and  C_29
    3  A    between atoms: C_11  and  C_27
    4  A    between atoms: C_12  and  C_33
    5  A    between atoms: C_12  and  N_50
    6  A    between atoms: C_16  and  N_50
    7  A    between atoms: C_16  and  C_53
    8  A    between atoms: C_19  and  C_22
    9  A    between atoms: C_19  and  C_38
   10  A    between atoms: C_22  and  C_37
   11  A    between atoms: C_25  and  C_37
   12  A    between atoms: C_27  and  C_41
   13  A    between atoms: C_31  and  C_52
   14  A    between atoms: C_32  and  C_37
   15  A    between atoms: C_33  and  C_46
   16  A    between atoms: C_38  and  C_42
   17  A    between atoms: C_47  and  O_56
   18  A    between atoms: C_53  and  O_56
                            x       y       z     vdW  Elec       q    Type
                         _______ _______ _______ _____ _____    ______ ____

>  <TORSDO>
F 18

$$$$
=
 OpenBabel10232412193D

 56 60  0  0  1  0  0  0  0  0999 V2000
  187.0350  177.5580  143.4330 O   0  0  0  0  0  0  0  0  0  0  0  0
  189.2280  176.4540  143.7890 C   0  0  1  0  0  3  0  0  0  0  0  0
  189.3670  176.9820  145.2240 C   0  0  2  0  0  3  0  0  0  0  0  0
  191.0240  177.6500  142.0810 C   0  0  1  0  0  3  0  0  0  0  0  0
  190.2290  176.1620  145.9530 O   0  0  0  0  0  1  0  0  0  0  0  0
  188.9690  178.6840  142.6070 C   0  0  1  0  0  3  0  0  0  0  0  0
  188.3210  177.3220  142.8900 C   0  0  2  0  0  3  0  0  0  0  0  0
  190.3840  178.7460  142.7050 O   0  0  0  0  0  0  0  0  0  0  0  0
  188.0310  177.1000  145.9940 C   0  0  2  0  0  3  0  0  0  0  0  0
  186.5350  176.3680  143.9830 C   0  0  0  0  0  2  0  0  0  0  0  0
  186.7970  176.3150  145.4960 C   0  0  0  0  0  2  0  0  0  0  0  0
  190.8330  176.0810  142.9970 S   0  0  0  0  0  0  0  0  0  0  0  0
  191.6080  177.1550  139.6770 C   0  0  0  0  0  0  0  0  0  0  0  0
  190.6520  177.5020  140.6810 N   0  0  0  0  0  2  0  0  0  0  0  0
  192.8380  177.1180  139.9470 O   0  0  0  0  0  0  0  0  0  0  0  0
  191.1430  176.8030  138.3050 C   0  0  0  0  0  2  0  0  0  0  0  0
  194.2390  175.7160  136.4140 C   0  0  0  0  0  3  0  0  0  0  0  0
  194.0220  174.3350  136.2920 C   0  0  0  0  0  0  0  0  0  0  0  0
  193.3060  176.5180  137.0770 C   0  0  0  0  0  3  0  0  0  0  0  0
  192.8740  173.7630  136.8510 C   0  0  0  0  0  3  0  0  0  0  0  0
  191.9420  174.5650  137.5160 C   0  0  0  0  0  3  0  0  0  0  0  0
  192.1570  175.9430  137.6310 C   0  0  0  0  0  0  0  0  0  0  0  0
  195.0110  173.4490  135.5980 C   0  0  2  0  0  3  0  0  0  0  0  0
  195.4590  172.1810  137.6560 N   0  0  0  0  0  0  0  0  0  0  0  0
  195.4610  169.9700  136.8160 C   0  0  0  0  0  3  0  0  0  0  0  0
  195.2170  170.9420  135.8160 O   0  0  0  0  0  0  0  0  0  0  0  0
  195.2470  172.1940  136.3860 C   0  0  0  0  0  0  0  0  0  0  0  0
  195.6110  170.8000  138.0950 C   0  0  0  0  0  3  0  0  0  0  0  0
  196.3020  174.1970  135.2850 C   0  0  0  0  0  2  0  0  0  0  0  0
  197.4930  173.4920  135.9130 C   0  0  0  0  0  2  0  0  0  0  0  0
  198.4290  174.5090  136.5450 C   0  0  0  0  0  2  0  0  0  0  0  0
  197.9700  175.4130  138.7700 N   0  0  0  0  0  1  0  0  0  0  0  0
  198.5510  174.2970  138.0480 C   0  0  0  0  0  2  0  0  0  0  0  0
  188.4630  178.8400  147.8170 C   0  0  0  0  0  1  0  0  0  0  0  0
  187.6970  178.4920  146.5460 C   0  0  2  0  0  3  0  0  0  0  0  0
  186.1920  178.7080  146.7130 C   0  0  1  0  0  3  0  0  0  0  0  0
  185.9180  179.3710  147.9200 O   0  0  0  0  0  1  0  0  0  0  0  0
  185.6760  179.4770  145.5830 N   0  0  0  0  0  2  0  0  0  0  0  0
  184.2720  179.1430  145.3930 C   0  0  0  0  0  2  0  0  0  0  0  0
  183.9390  179.0320  143.9120 C   0  0  0  0  0  2  0  0  0  0  0  0
  182.6110  178.6210  143.7160 O   0  0  0  0  0  0  0  0  0  0  0  0
  180.7840  178.6500  140.4000 C   0  0  0  0  0  0  0  0  0  0  0  0
  180.8680  180.2400  142.1830 O   0  0  0  0  0  1  0  0  0  0  0  0
  183.6190  179.1170  141.5700 C   0  0  0  0  0  2  0  0  0  0  0  0
  181.1390  177.3590  139.6970 C   0  0  0  0  0  2  0  0  0  0  0  0
  183.6760  177.8930  139.6440 C   0  0  1  0  0  3  0  0  0  0  0  0
  179.9990  178.0890  142.6580 C   0  0  0  0  0  1  0  0  0  0  0  0
  180.2250  179.5170  139.7440 O   0  0  0  0  0  0  0  0  0  0  0  0
  183.3970  179.1650  140.1820 O   0  0  0  0  0  0  0  0  0  0  0  0
  182.5690  176.8670  139.9480 C   0  0  0  0  0  2  0  0  0  0  0  0
  181.0370  178.8830  141.8840 C   0  0  1  0  0  0  0  0  0  0  0  0
  182.4520  178.4450  142.3320 C   0  0  2  0  0  3  0  0  0  0  0  0
  183.8400  178.0020  138.2650 O   0  0  0  0  0  1  0  0  0  0  0  0
  188.4300  179.3370  141.3380 C   0  0  0  0  0  2  0  0  0  0  0  0
  187.3730  178.4610  140.6880 C   0  0  0  0  0  2  0  0  0  0  0  0
  187.5740  178.4210  139.3060 O   0  0  0  0  0  1  0  0  0  0  0  0
  1 10  1  0  0  0  0
  2 12  1  6  0  0  0
  2  3  1  0  0  0  0
  3  5  1  1  0  0  0
  3  9  1  0  0  0  0
  4 14  1  6  0  0  0
  4  8  1  0  0  0  0
  4 12  1  0  0  0  0
  6 54  1  6  0  0  0
  6  8  1  0  0  0  0
  6  7  1  0  0  0  0
  7  1  1  1  0  0  0
  7  2  1  0  0  0  0
  9 35  1  6  0  0  0
 10 11  1  0  0  0  0
 11  9  1  0  0  0  0
 13 15  2  0  0  0  0
 13 14  1  0  0  0  0
 16 13  1  0  0  0  0
 17 19  1  0  0  0  0
 18 17  2  0  0  0  0
 18 20  1  0  0  0  0
 19 22  2  0  0  0  0
 20 21  2  0  0  0  0
 21 22  1  0  0  0  0
 22 16  1  0  0  0  0
 23 29  1  1  0  0  0
 23 18  1  0  0  0  0
 23 27  1  0  0  0  0
 24 28  1  0  0  0  0
 25 28  2  0  0  0  0
 26 27  1  0  0  0  0
 26 25  1  0  0  0  0
 27 24  2  0  0  0  0
 29 30  1  0  0  0  0
 30 31  1  0  0  0  0
 31 33  1  0  0  0  0
 33 32  1  0  0  0  0
 35 36  1  0  0  0  0
 35 34  1  1  0  0  0
 36 37  1  1  0  0  0
 38 36  1  0  0  0  0
 39 38  1  0  0  0  0
 40 39  1  0  0  0  0
 41 40  1  0  0  0  0
 42 51  1  0  0  0  0
 44 52  1  0  0  0  0
 45 50  1  0  0  0  0
 45 42  1  0  0  0  0
 46 53  1  6  0  0  0
 46 50  1  0  0  0  0
 46 49  1  0  0  0  0
 48 42  2  0  0  0  0
 49 44  1  0  0  0  0
 51 43  1  0  0  0  0
 51 52  1  0  0  0  0
 51 47  1  1  0  0  0
 52 41  1  1  0  0  0
 55 54  1  0  0  0  0
 56 55  1  0  0  0  0
M  END
>  <MODEL>
9

>  <REMARK>
 VINA RESULT:      -4.5      4.031      9.556
  Name = 
  18 active torsions:
  status: ('A' for Active; 'I' for Inactive)
    1  A    between atoms: C_5  and  C_31
    2  A    between atoms: N_7  and  C_29
    3  A    between atoms: C_11  and  C_27
    4  A    between atoms: C_12  and  C_33
    5  A    between atoms: C_12  and  N_50
    6  A    between atoms: C_16  and  N_50
    7  A    between atoms: C_16  and  C_53
    8  A    between atoms: C_19  and  C_22
    9  A    between atoms: C_19  and  C_38
   10  A    between atoms: C_22  and  C_37
   11  A    between atoms: C_25  and  C_37
   12  A    between atoms: C_27  and  C_41
   13  A    between atoms: C_31  and  C_52
   14  A    between atoms: C_32  and  C_37
   15  A    between atoms: C_33  and  C_46
   16  A    between atoms: C_38  and  C_42
   17  A    between atoms: C_47  and  O_56
   18  A    between atoms: C_53  and  O_56
                            x       y       z     vdW  Elec       q    Type
                         _______ _______ _______ _____ _____    ______ ____

>  <TORSDO>
F 18

$$$$
