=
 OpenBabel10232411103D

 36 38  0  0  1  0  0  0  0  0999 V2000
  186.8770  177.8500  143.2370 C   0  0  0  0  0  0  0  0  0  0  0  0
  184.5240  178.4420  143.3440 C   0  0  0  0  0  0  0  0  0  0  0  0
  185.9200  178.4390  145.3440 C   0  0  0  0  0  0  0  0  0  0  0  0
  186.9750  178.0510  144.5770 N   0  0  0  0  0  0  0  0  0  0  0  0
  183.6020  179.0270  145.4910 F   0  0  0  0  0  0  0  0  0  0  0  0
  185.6450  178.0440  142.6070 C   0  0  0  0  0  3  0  0  0  0  0  0
  184.6650  178.6450  144.7360 C   0  0  0  0  0  0  0  0  0  0  0  0
  190.3230  176.6630  140.9840 C   0  0  0  0  0  3  0  0  0  0  0  0
  188.1500  177.7130  141.0980 C   0  0  0  0  0  3  0  0  0  0  0  0
  189.1370  176.7670  143.0920 C   0  0  0  0  0  3  0  0  0  0  0  0
  190.2570  176.3830  142.3510 C   0  0  0  0  0  3  0  0  0  0  0  0
  189.2680  177.3320  140.3450 C   0  0  0  0  0  0  0  0  0  0  0  0
  188.0720  177.4380  142.4710 C   0  0  0  0  0  0  0  0  0  0  0  0
  189.7660  176.6690  137.9790 C   0  0  0  0  0  3  0  0  0  0  0  0
  188.9270  178.8560  138.4400 N   0  0  0  0  0  0  0  0  0  0  0  0
  188.9550  179.1750  137.1190 C   0  0  0  0  0  3  0  0  0  0  0  0
  189.8020  176.9790  136.6180 C   0  0  0  0  0  3  0  0  0  0  0  0
  189.3950  178.2390  136.1810 C   0  0  0  0  0  3  0  0  0  0  0  0
  189.3200  177.6310  138.8970 C   0  0  0  0  0  0  0  0  0  0  0  0
  183.2450  178.6310  142.6110 C   0  0  0  0  0  0  0  0  0  0  0  0
  183.1120  178.2830  141.3290 C   0  0  0  0  0  3  0  0  0  0  0  0
  182.1590  179.1850  143.2840 O   0  0  0  0  0  1  0  0  0  0  0  0
  181.8450  177.9960  138.7410 C   0  0  0  0  0  1  0  0  0  0  0  0
  181.6150  178.4910  140.4330 S   0  0  0  0  0  0  0  0  0  0  0  0
  180.5250  177.6720  141.0640 O   0  0  0  0  0  0  0  0  0  0  0  0
  181.2250  179.9410  140.4680 O   0  0  0  0  0  0  0  0  0  0  0  0
  185.7270  179.6690  147.3830 O   0  0  0  0  0  0  0  0  0  0  0  0
  186.1360  178.6320  146.7960 C   0  0  0  0  0  0  0  0  0  0  0  0
  186.8720  177.5990  147.5860 C   0  0  0  0  0  2  0  0  0  0  0  0
  188.6440  178.2370  149.0710 O   0  0  0  0  0  1  0  0  0  0  0  0
  188.3360  177.9840  147.7320 C   0  0  1  0  0  3  0  0  0  0  0  0
  189.2670  176.9170  147.1550 C   0  0  0  0  0  2  0  0  0  0  0  0
  190.3010  177.4800  146.1830 C   0  0  0  0  0  2  0  0  0  0  0  0
  191.5540  176.6160  146.1340 C   0  0  0  0  0  2  0  0  0  0  0  0
  192.6680  176.4470  148.2410 O   0  0  0  0  0  1  0  0  0  0  0  0
  191.7270  175.8240  147.4200 C   0  0  0  0  0  2  0  0  0  0  0  0
  1  4  1  0  0  0  0
  2  7  2  0  0  0  0
  3 28  1  0  0  0  0
  4  3  2  0  0  0  0
  6  1  2  0  0  0  0
  6  2  1  0  0  0  0
  7  3  1  0  0  0  0
  7  5  1  0  0  0  0
  8 11  1  0  0  0  0
  9 13  2  0  0  0  0
 11 10  2  0  0  0  0
 12  8  2  0  0  0  0
 12  9  1  0  0  0  0
 13 10  1  0  0  0  0
 13  1  1  0  0  0  0
 14 19  1  0  0  0  0
 15 19  2  0  0  0  0
 16 15  1  0  0  0  0
 17 14  2  0  0  0  0
 18 17  1  0  0  0  0
 18 16  2  0  0  0  0
 19 12  1  0  0  0  0
 20 22  1  0  0  0  0
 20  2  1  0  0  0  0
 21 20  2  0  0  0  0
 23 24  1  0  0  0  0
 24 26  2  0  0  0  0
 24 25  2  0  0  0  0
 24 21  1  0  0  0  0
 28 27  2  0  0  0  0
 28 29  1  0  0  0  0
 29 31  1  0  0  0  0
 31 30  1  1  0  0  0
 32 31  1  0  0  0  0
 33 32  1  0  0  0  0
 34 33  1  0  0  0  0
 34 36  1  0  0  0  0
 36 35  1  0  0  0  0
M  END
>  <MODEL>
1

>  <REMARK>
 VINA RESULT:      -8.9      0.000      0.000
  Name = 
  11 active torsions:
  status: ('A' for Active; 'I' for Inactive)
    1  A    between atoms: C_2  and  C_12
    2  A    between atoms: C_5  and  C_7
    3  A    between atoms: C_5  and  C_11
    4  A    between atoms: C_7  and  C_14
    5  A    between atoms: C_10  and  C_36
    6  A    between atoms: C_11  and  C_22
    7  A    between atoms: C_13  and  C_19
    8  A    between atoms: C_13  and  C_22
    9  A    between atoms: C_17  and  C_19
   10  A    between atoms: S_20  and  C_28
   11  A    between atoms: C_30  and  C_34
                            x       y       z     vdW  Elec       q    Type
                         _______ _______ _______ _____ _____    ______ ____

>  <TORSDO>
F 11

$$$$
=
 OpenBabel10232411103D

 36 38  0  0  1  0  0  0  0  0999 V2000
  187.3570  177.9030  142.7060 C   0  0  0  0  0  0  0  0  0  0  0  0
  188.5880  177.8310  140.6130 C   0  0  0  0  0  0  0  0  0  0  0  0
  189.6140  177.1200  142.7090 C   0  0  0  0  0  0  0  0  0  0  0  0
  188.4500  177.4160  143.3500 N   0  0  0  0  0  0  0  0  0  0  0  0
  190.8620  177.0350  140.6660 F   0  0  0  0  0  0  0  0  0  0  0  0
  187.4180  178.1160  141.3260 C   0  0  0  0  0  3  0  0  0  0  0  0
  189.7040  177.3220  141.3170 C   0  0  0  0  0  0  0  0  0  0  0  0
  183.7710  178.7480  144.8920 C   0  0  0  0  0  3  0  0  0  0  0  0
  184.9120  178.3750  142.7950 C   0  0  0  0  0  3  0  0  0  0  0  0
  186.1480  178.2920  144.8700 C   0  0  0  0  0  3  0  0  0  0  0  0
  184.9750  178.5680  145.5770 C   0  0  0  0  0  3  0  0  0  0  0  0
  183.7290  178.6530  143.4930 C   0  0  0  0  0  0  0  0  0  0  0  0
  186.1260  178.1910  143.4710 C   0  0  0  0  0  0  0  0  0  0  0  0
  181.2650  179.1130  143.4330 C   0  0  0  0  0  3  0  0  0  0  0  0
  182.4520  178.7680  141.3900 N   0  0  0  0  0  0  0  0  0  0  0  0
  181.3130  178.9410  140.6670 C   0  0  0  0  0  3  0  0  0  0  0  0
  180.0860  179.2930  142.7080 C   0  0  0  0  0  3  0  0  0  0  0  0
  180.1060  179.2070  141.3160 C   0  0  0  0  0  3  0  0  0  0  0  0
  182.4630  178.8460  142.7520 C   0  0  0  0  0  0  0  0  0  0  0  0
  188.5840  178.0800  139.1480 C   0  0  0  0  0  0  0  0  0  0  0  0
  188.1450  177.1650  138.2810 C   0  0  0  0  0  3  0  0  0  0  0  0
  189.0520  179.3030  138.6720 O   0  0  0  0  0  1  0  0  0  0  0  0
  187.4040  176.0240  135.7240 C   0  0  0  0  0  1  0  0  0  0  0  0
  188.1260  177.4270  136.5440 S   0  0  0  0  0  0  0  0  0  0  0  0
  187.3420  178.6680  136.2240 O   0  0  0  0  0  0  0  0  0  0  0  0
  189.5380  177.5990  136.0620 O   0  0  0  0  0  0  0  0  0  0  0  0
  191.2060  175.4390  143.2970 O   0  0  0  0  0  0  0  0  0  0  0  0
  190.7430  176.5920  143.5060 C   0  0  0  0  0  0  0  0  0  0  0  0
  191.3400  177.4200  144.5980 C   0  0  0  0  0  2  0  0  0  0  0  0
  192.1010  176.9760  146.8280 O   0  0  0  0  0  1  0  0  0  0  0  0
  191.0210  176.8170  145.9580 C   0  0  1  0  0  3  0  0  0  0  0  0
  189.7480  177.4120  146.5610 C   0  0  0  0  0  2  0  0  0  0  0  0
  189.0060  176.4420  147.4780 C   0  0  0  0  0  2  0  0  0  0  0  0
  188.0260  177.1710  148.3880 C   0  0  0  0  0  2  0  0  0  0  0  0
  186.9370  179.2810  148.1150 O   0  0  0  0  0  1  0  0  0  0  0  0
  188.1860  178.6780  148.2760 C   0  0  0  0  0  2  0  0  0  0  0  0
  1  4  1  0  0  0  0
  1 13  1  0  0  0  0
  2  7  2  0  0  0  0
  2  6  1  0  0  0  0
  3  4  2  0  0  0  0
  3 28  1  0  0  0  0
  5  7  1  0  0  0  0
  6  1  2  0  0  0  0
  7  3  1  0  0  0  0
  8 11  1  0  0  0  0
  9 13  2  0  0  0  0
  9 12  1  0  0  0  0
 10 11  2  0  0  0  0
 12  8  2  0  0  0  0
 13 10  1  0  0  0  0
 15 19  2  0  0  0  0
 16 18  2  0  0  0  0
 16 15  1  0  0  0  0
 17 14  2  0  0  0  0
 18 17  1  0  0  0  0
 19 14  1  0  0  0  0
 19 12  1  0  0  0  0
 20  2  1  0  0  0  0
 21 20  2  0  0  0  0
 22 20  1  0  0  0  0
 23 24  1  0  0  0  0
 24 21  1  0  0  0  0
 25 24  2  0  0  0  0
 26 24  2  0  0  0  0
 27 28  2  0  0  0  0
 28 29  1  0  0  0  0
 29 31  1  0  0  0  0
 31 32  1  0  0  0  0
 31 30  1  1  0  0  0
 32 33  1  0  0  0  0
 33 34  1  0  0  0  0
 35 36  1  0  0  0  0
 36 34  1  0  0  0  0
M  END
>  <MODEL>
2

>  <REMARK>
 VINA RESULT:      -8.8      3.641      6.579
  Name = 
  11 active torsions:
  status: ('A' for Active; 'I' for Inactive)
    1  A    between atoms: C_2  and  C_12
    2  A    between atoms: C_5  and  C_7
    3  A    between atoms: C_5  and  C_11
    4  A    between atoms: C_7  and  C_14
    5  A    between atoms: C_10  and  C_36
    6  A    between atoms: C_11  and  C_22
    7  A    between atoms: C_13  and  C_19
    8  A    between atoms: C_13  and  C_22
    9  A    between atoms: C_17  and  C_19
   10  A    between atoms: S_20  and  C_28
   11  A    between atoms: C_30  and  C_34
                            x       y       z     vdW  Elec       q    Type
                         _______ _______ _______ _____ _____    ______ ____

>  <TORSDO>
F 11

$$$$
=
 OpenBabel10232411103D

 36 38  0  0  1  0  0  0  0  0999 V2000
  185.3320  178.5390  141.7450 C   0  0  0  0  0  0  0  0  0  0  0  0
  184.4310  178.6310  139.4920 C   0  0  0  0  0  0  0  0  0  0  0  0
  186.8270  178.4020  139.8880 C   0  0  0  0  0  0  0  0  0  0  0  0
  186.5820  178.4230  141.2260 N   0  0  0  0  0  0  0  0  0  0  0  0
  185.9780  178.4910  137.6490 F   0  0  0  0  0  0  0  0  0  0  0  0
  184.2420  178.6450  140.8780 C   0  0  0  0  0  3  0  0  0  0  0  0
  185.7470  178.5060  138.9880 C   0  0  0  0  0  0  0  0  0  0  0  0
  184.8290  178.5400  146.0000 C   0  0  0  0  0  3  0  0  0  0  0  0
  186.2390  178.2920  144.0530 C   0  0  0  0  0  3  0  0  0  0  0  0
  183.8900  178.7940  143.7840 C   0  0  0  0  0  3  0  0  0  0  0  0
  183.7330  178.7930  145.1720 C   0  0  0  0  0  3  0  0  0  0  0  0
  186.0940  178.2870  145.4470 C   0  0  0  0  0  0  0  0  0  0  0  0
  185.1470  178.5450  143.2110 C   0  0  0  0  0  0  0  0  0  0  0  0
  188.4480  177.4890  145.7710 C   0  0  0  0  0  3  0  0  0  0  0  0
  187.1990  178.2720  147.6480 N   0  0  0  0  0  0  0  0  0  0  0  0
  188.2490  178.0380  148.4800 C   0  0  0  0  0  3  0  0  0  0  0  0
  189.5370  177.2420  146.6090 C   0  0  0  0  0  3  0  0  0  0  0  0
  189.4410  177.5160  147.9730 C   0  0  0  0  0  3  0  0  0  0  0  0
  187.2630  178.0130  146.3110 C   0  0  0  0  0  0  0  0  0  0  0  0
  183.2280  178.7470  138.6270 C   0  0  0  0  0  0  0  0  0  0  0  0
  182.5410  179.8870  138.5280 C   0  0  0  0  0  3  0  0  0  0  0  0
  182.8110  177.6340  137.9010 O   0  0  0  0  0  1  0  0  0  0  0  0
  180.6470  181.7720  137.4120 C   0  0  0  0  0  1  0  0  0  0  0  0
  181.1160  180.0600  137.5160 S   0  0  0  0  0  0  0  0  0  0  0  0
  181.3990  179.5210  136.1420 O   0  0  0  0  0  0  0  0  0  0  0  0
  179.9870  179.2820  138.1280 O   0  0  0  0  0  0  0  0  0  0  0  0
  188.9410  179.2850  139.2100 O   0  0  0  0  0  0  0  0  0  0  0  0
  188.2280  178.2700  139.4290 C   0  0  0  0  0  0  0  0  0  0  0  0
  188.8130  176.9150  139.1940 C   0  0  0  0  0  2  0  0  0  0  0  0
  191.1030  177.3880  139.7280 O   0  0  0  0  0  1  0  0  0  0  0  0
  189.9790  176.6680  140.1390 C   0  0  1  0  0  3  0  0  0  0  0  0
  189.6220  177.0050  141.5870 C   0  0  0  0  0  2  0  0  0  0  0  0
  190.3770  176.1570  142.6080 C   0  0  0  0  0  2  0  0  0  0  0  0
  191.4260  176.9750  143.3490 C   0  0  0  0  0  2  0  0  0  0  0  0
  191.9810  179.1610  144.1370 O   0  0  0  0  0  1  0  0  0  0  0  0
  191.0760  178.4530  143.3460 C   0  0  0  0  0  2  0  0  0  0  0  0
  1 13  1  0  0  0  0
  2  6  1  0  0  0  0
  3  4  2  0  0  0  0
  4  1  1  0  0  0  0
  5  7  1  0  0  0  0
  6  1  2  0  0  0  0
  7  2  2  0  0  0  0
  7  3  1  0  0  0  0
  9 12  2  0  0  0  0
 10 11  1  0  0  0  0
 11  8  2  0  0  0  0
 12  8  1  0  0  0  0
 12 19  1  0  0  0  0
 13 10  2  0  0  0  0
 13  9  1  0  0  0  0
 14 19  2  0  0  0  0
 14 17  1  0  0  0  0
 15 16  2  0  0  0  0
 17 18  2  0  0  0  0
 18 16  1  0  0  0  0
 19 15  1  0  0  0  0
 20  2  1  0  0  0  0
 21 20  2  0  0  0  0
 22 20  1  0  0  0  0
 23 24  1  0  0  0  0
 24 26  2  0  0  0  0
 24 21  1  0  0  0  0
 25 24  2  0  0  0  0
 27 28  2  0  0  0  0
 28  3  1  0  0  0  0
 29 28  1  0  0  0  0
 29 31  1  0  0  0  0
 31 30  1  6  0  0  0
 31 32  1  0  0  0  0
 32 33  1  0  0  0  0
 33 34  1  0  0  0  0
 36 34  1  0  0  0  0
 36 35  1  0  0  0  0
M  END
>  <MODEL>
3

>  <REMARK>
 VINA RESULT:      -8.7      3.225      6.560
  Name = 
  11 active torsions:
  status: ('A' for Active; 'I' for Inactive)
    1  A    between atoms: C_2  and  C_12
    2  A    between atoms: C_5  and  C_7
    3  A    between atoms: C_5  and  C_11
    4  A    between atoms: C_7  and  C_14
    5  A    between atoms: C_10  and  C_36
    6  A    between atoms: C_11  and  C_22
    7  A    between atoms: C_13  and  C_19
    8  A    between atoms: C_13  and  C_22
    9  A    between atoms: C_17  and  C_19
   10  A    between atoms: S_20  and  C_28
   11  A    between atoms: C_30  and  C_34
                            x       y       z     vdW  Elec       q    Type
                         _______ _______ _______ _____ _____    ______ ____

>  <TORSDO>
F 11

$$$$
=
 OpenBabel10232411103D

 36 38  0  0  1  0  0  0  0  0999 V2000
  189.4250  177.1930  140.7860 C   0  0  0  0  0  0  0  0  0  0  0  0
  191.0280  176.8740  138.9890 C   0  0  0  0  0  0  0  0  0  0  0  0
  188.7200  177.5140  138.5270 C   0  0  0  0  0  0  0  0  0  0  0  0
  188.4740  177.4990  139.8650 N   0  0  0  0  0  0  0  0  0  0  0  0
  190.2700  177.2070  136.7260 F   0  0  0  0  0  0  0  0  0  0  0  0
  190.7160  176.8750  140.3530 C   0  0  0  0  0  3  0  0  0  0  0  0
  190.0130  177.2000  138.0600 C   0  0  0  0  0  0  0  0  0  0  0  0
  188.4000  177.2540  144.9450 C   0  0  0  0  0  3  0  0  0  0  0  0
  187.8020  177.6080  142.6310 C   0  0  0  0  0  3  0  0  0  0  0  0
  190.0200  176.8310  143.1970 C   0  0  0  0  0  3  0  0  0  0  0  0
  189.6800  176.8530  144.5520 C   0  0  0  0  0  3  0  0  0  0  0  0
  187.4490  177.6350  143.9870 C   0  0  0  0  0  0  0  0  0  0  0  0
  189.0830  177.2070  142.2230 C   0  0  0  0  0  0  0  0  0  0  0  0
  185.7780  178.2910  145.7370 C   0  0  0  0  0  3  0  0  0  0  0  0
  185.1290  178.2540  143.4390 N   0  0  0  0  0  0  0  0  0  0  0  0
  183.8690  178.6520  143.7600 C   0  0  0  0  0  3  0  0  0  0  0  0
  184.4890  178.7000  146.0850 C   0  0  0  0  0  3  0  0  0  0  0  0
  183.5260  178.8820  145.0940 C   0  0  0  0  0  3  0  0  0  0  0  0
  186.0920  178.0670  144.3880 C   0  0  0  0  0  0  0  0  0  0  0  0
  192.4190  176.5270  138.5980 C   0  0  0  0  0  0  0  0  0  0  0  0
  192.6880  175.4880  137.8040 C   0  0  0  0  0  3  0  0  0  0  0  0
  193.4680  177.3110  139.0740 O   0  0  0  0  0  1  0  0  0  0  0  0
  194.3020  173.5010  136.4490 C   0  0  0  0  0  1  0  0  0  0  0  0
  194.3190  175.0510  137.3210 S   0  0  0  0  0  0  0  0  0  0  0  0
  194.8970  176.1260  136.4450 O   0  0  0  0  0  0  0  0  0  0  0  0
  195.1690  174.9080  138.5520 O   0  0  0  0  0  0  0  0  0  0  0  0
  187.4150  179.0550  137.2510 O   0  0  0  0  0  0  0  0  0  0  0  0
  187.6120  177.8640  137.6100 C   0  0  0  0  0  0  0  0  0  0  0  0
  186.6880  176.8000  137.1120 C   0  0  0  0  0  2  0  0  0  0  0  0
  185.4980  177.1470  135.0600 O   0  0  0  0  0  1  0  0  0  0  0  0
  185.4800  177.4210  136.4290 C   0  0  1  0  0  3  0  0  0  0  0  0
  184.1670  176.9540  137.0570 C   0  0  0  0  0  2  0  0  0  0  0  0
  183.5000  178.0200  137.9230 C   0  0  0  0  0  2  0  0  0  0  0  0
  183.8500  177.8460  139.3950 C   0  0  0  0  0  2  0  0  0  0  0  0
  184.7000  180.0530  139.0560 O   0  0  0  0  0  1  0  0  0  0  0  0
  184.2300  179.1730  140.0320 C   0  0  0  0  0  2  0  0  0  0  0  0
  1 13  1  0  0  0  0
  2  6  2  0  0  0  0
  3  4  1  0  0  0  0
  4  1  2  0  0  0  0
  5  7  1  0  0  0  0
  6  1  1  0  0  0  0
  7  3  2  0  0  0  0
  7  2  1  0  0  0  0
  9 12  1  0  0  0  0
 10 11  2  0  0  0  0
 11  8  1  0  0  0  0
 12 19  1  0  0  0  0
 12  8  2  0  0  0  0
 13  9  2  0  0  0  0
 13 10  1  0  0  0  0
 14 17  1  0  0  0  0
 15 16  2  0  0  0  0
 15 19  1  0  0  0  0
 16 18  1  0  0  0  0
 18 17  2  0  0  0  0
 19 14  2  0  0  0  0
 20  2  1  0  0  0  0
 20 22  1  0  0  0  0
 21 20  2  0  0  0  0
 23 24  1  0  0  0  0
 24 21  1  0  0  0  0
 24 26  2  0  0  0  0
 25 24  2  0  0  0  0
 27 28  2  0  0  0  0
 28  3  1  0  0  0  0
 29 28  1  0  0  0  0
 31 30  1  6  0  0  0
 31 32  1  0  0  0  0
 31 29  1  0  0  0  0
 32 33  1  0  0  0  0
 33 34  1  0  0  0  0
 34 36  1  0  0  0  0
 35 36  1  0  0  0  0
M  END
>  <MODEL>
4

>  <REMARK>
 VINA RESULT:      -8.7      4.962      9.663
  Name = 
  11 active torsions:
  status: ('A' for Active; 'I' for Inactive)
    1  A    between atoms: C_2  and  C_12
    2  A    between atoms: C_5  and  C_7
    3  A    between atoms: C_5  and  C_11
    4  A    between atoms: C_7  and  C_14
    5  A    between atoms: C_10  and  C_36
    6  A    between atoms: C_11  and  C_22
    7  A    between atoms: C_13  and  C_19
    8  A    between atoms: C_13  and  C_22
    9  A    between atoms: C_17  and  C_19
   10  A    between atoms: S_20  and  C_28
   11  A    between atoms: C_30  and  C_34
                            x       y       z     vdW  Elec       q    Type
                         _______ _______ _______ _____ _____    ______ ____

>  <TORSDO>
F 11

$$$$
=
 OpenBabel10232411103D

 36 38  0  0  1  0  0  0  0  0999 V2000
  185.4040  178.6300  141.7440 C   0  0  0  0  0  0  0  0  0  0  0  0
  186.8530  178.4120  139.8070 C   0  0  0  0  0  0  0  0  0  0  0  0
  184.4750  178.8950  139.5600 C   0  0  0  0  0  0  0  0  0  0  0  0
  184.3540  178.8680  140.9150 N   0  0  0  0  0  0  0  0  0  0  0  0
  185.8710  178.6860  137.6240 F   0  0  0  0  0  0  0  0  0  0  0  0
  186.6670  178.3980  141.1940 C   0  0  0  0  0  3  0  0  0  0  0  0
  185.7380  178.6670  138.9760 C   0  0  0  0  0  0  0  0  0  0  0  0
  184.8280  178.6030  145.9890 C   0  0  0  0  0  3  0  0  0  0  0  0
  186.2660  178.3460  144.0650 C   0  0  0  0  0  3  0  0  0  0  0  0
  183.9320  178.8940  143.7600 C   0  0  0  0  0  3  0  0  0  0  0  0
  183.7500  178.8840  145.1450 C   0  0  0  0  0  3  0  0  0  0  0  0
  186.0970  178.3320  145.4560 C   0  0  0  0  0  0  0  0  0  0  0  0
  185.1930  178.6260  143.2070 C   0  0  0  0  0  0  0  0  0  0  0  0
  188.4490  177.5370  145.8050 C   0  0  0  0  0  3  0  0  0  0  0  0
  187.1450  178.2280  147.6820 N   0  0  0  0  0  0  0  0  0  0  0  0
  188.1750  177.9650  148.5300 C   0  0  0  0  0  3  0  0  0  0  0  0
  189.5170  177.2610  146.6600 C   0  0  0  0  0  3  0  0  0  0  0  0
  189.3840  177.4740  148.0320 C   0  0  0  0  0  3  0  0  0  0  0  0
  187.2460  178.0280  146.3370 C   0  0  0  0  0  0  0  0  0  0  0  0
  188.2230  178.1590  139.2900 C   0  0  0  0  0  0  0  0  0  0  0  0
  188.7370  176.9280  139.2370 C   0  0  0  0  0  3  0  0  0  0  0  0
  188.9860  179.2370  138.8480 O   0  0  0  0  0  1  0  0  0  0  0  0
  191.5700  177.2220  139.7610 C   0  0  0  0  0  1  0  0  0  0  0  0
  190.3520  176.5920  138.6300 S   0  0  0  0  0  0  0  0  0  0  0  0
  190.5320  175.1110  138.4550 O   0  0  0  0  0  0  0  0  0  0  0  0
  190.5230  177.2700  137.3010 O   0  0  0  0  0  0  0  0  0  0  0  0
  182.7110  178.2540  138.0830 O   0  0  0  0  0  0  0  0  0  0  0  0
  183.2670  179.1670  138.7490 C   0  0  0  0  0  0  0  0  0  0  0  0
  182.7000  180.5480  138.6900 C   0  0  0  0  0  2  0  0  0  0  0  0
  180.4470  180.9070  139.4290 O   0  0  0  0  0  1  0  0  0  0  0  0
  181.2210  180.5020  138.3390 C   0  0  1  0  0  3  0  0  0  0  0  0
  180.9010  181.3460  137.1060 C   0  0  0  0  0  2  0  0  0  0  0  0
  180.3370  182.7240  137.4480 C   0  0  0  0  0  2  0  0  0  0  0  0
  181.4060  183.8040  137.3650 C   0  0  0  0  0  2  0  0  0  0  0  0
  180.8990  184.3430  135.0930 O   0  0  0  0  0  1  0  0  0  0  0  0
  181.0190  184.8880  136.3720 C   0  0  0  0  0  2  0  0  0  0  0  0
  1 13  1  0  0  0  0
  2  6  2  0  0  0  0
  3  4  1  0  0  0  0
  4  1  2  0  0  0  0
  5  7  1  0  0  0  0
  6  1  1  0  0  0  0
  7  3  2  0  0  0  0
  7  2  1  0  0  0  0
  9 12  2  0  0  0  0
 10 11  1  0  0  0  0
 11  8  2  0  0  0  0
 12  8  1  0  0  0  0
 12 19  1  0  0  0  0
 13 10  2  0  0  0  0
 13  9  1  0  0  0  0
 14 19  2  0  0  0  0
 14 17  1  0  0  0  0
 15 16  2  0  0  0  0
 17 18  2  0  0  0  0
 18 16  1  0  0  0  0
 19 15  1  0  0  0  0
 20  2  1  0  0  0  0
 21 20  2  0  0  0  0
 22 20  1  0  0  0  0
 24 21  1  0  0  0  0
 24 23  1  0  0  0  0
 25 24  2  0  0  0  0
 26 24  2  0  0  0  0
 27 28  2  0  0  0  0
 28  3  1  0  0  0  0
 29 28  1  0  0  0  0
 31 29  1  0  0  0  0
 31 30  1  1  0  0  0
 32 33  1  0  0  0  0
 32 31  1  0  0  0  0
 34 33  1  0  0  0  0
 35 36  1  0  0  0  0
 36 34  1  0  0  0  0
M  END
>  <MODEL>
5

>  <REMARK>
 VINA RESULT:      -8.7      4.417      9.749
  Name = 
  11 active torsions:
  status: ('A' for Active; 'I' for Inactive)
    1  A    between atoms: C_2  and  C_12
    2  A    between atoms: C_5  and  C_7
    3  A    between atoms: C_5  and  C_11
    4  A    between atoms: C_7  and  C_14
    5  A    between atoms: C_10  and  C_36
    6  A    between atoms: C_11  and  C_22
    7  A    between atoms: C_13  and  C_19
    8  A    between atoms: C_13  and  C_22
    9  A    between atoms: C_17  and  C_19
   10  A    between atoms: S_20  and  C_28
   11  A    between atoms: C_30  and  C_34
                            x       y       z     vdW  Elec       q    Type
                         _______ _______ _______ _____ _____    ______ ____

>  <TORSDO>
F 11

$$$$
=
 OpenBabel10232411103D

 36 38  0  0  1  0  0  0  0  0999 V2000
  186.1520  178.4080  142.0450 C   0  0  0  0  0  0  0  0  0  0  0  0
  184.6580  178.7950  140.1700 C   0  0  0  0  0  0  0  0  0  0  0  0
  187.0420  178.4030  139.8290 C   0  0  0  0  0  0  0  0  0  0  0  0
  187.1890  178.2870  141.1770 N   0  0  0  0  0  0  0  0  0  0  0  0
  185.6010  178.7830  137.9530 F   0  0  0  0  0  0  0  0  0  0  0  0
  184.8720  178.6650  141.5470 C   0  0  0  0  0  3  0  0  0  0  0  0
  185.7620  178.6600  139.2960 C   0  0  0  0  0  0  0  0  0  0  0  0
  186.8800  177.9600  146.2440 C   0  0  0  0  0  3  0  0  0  0  0  0
  187.6530  177.8570  143.9570 C   0  0  0  0  0  3  0  0  0  0  0  0
  185.3740  178.5100  144.4300 C   0  0  0  0  0  3  0  0  0  0  0  0
  185.6180  178.3620  145.7970 C   0  0  0  0  0  3  0  0  0  0  0  0
  187.9100  177.7040  145.3260 C   0  0  0  0  0  0  0  0  0  0  0  0
  186.3920  178.2590  143.4960 C   0  0  0  0  0  0  0  0  0  0  0  0
  190.2560  176.9550  144.8580 C   0  0  0  0  0  3  0  0  0  0  0  0
  189.5190  177.1860  147.1170 N   0  0  0  0  0  0  0  0  0  0  0  0
  190.7360  176.7970  147.5820 C   0  0  0  0  0  3  0  0  0  0  0  0
  191.5110  176.5530  145.3170 C   0  0  0  0  0  3  0  0  0  0  0  0
  191.7570  176.4720  146.6870 C   0  0  0  0  0  3  0  0  0  0  0  0
  189.2500  177.2730  145.7820 C   0  0  0  0  0  0  0  0  0  0  0  0
  183.2720  179.0670  139.7070 C   0  0  0  0  0  0  0  0  0  0  0  0
  182.9660  180.1680  139.0180 C   0  0  0  0  0  3  0  0  0  0  0  0
  182.2700  178.1460  140.0020 O   0  0  0  0  0  1  0  0  0  0  0  0
  180.2290  180.6430  139.8380 C   0  0  0  0  0  1  0  0  0  0  0  0
  181.3390  180.5220  138.4550 S   0  0  0  0  0  0  0  0  0  0  0  0
  181.3370  181.8090  137.6800 O   0  0  0  0  0  0  0  0  0  0  0  0
  180.8820  179.4070  137.5580 O   0  0  0  0  0  0  0  0  0  0  0  0
  188.6150  179.1800  138.2090 O   0  0  0  0  0  0  0  0  0  0  0  0
  188.2390  178.2520  138.9720 C   0  0  0  0  0  0  0  0  0  0  0  0
  189.0110  176.9720  138.9850 C   0  0  0  0  0  2  0  0  0  0  0  0
  190.2480  176.5780  141.0000 O   0  0  0  0  0  1  0  0  0  0  0  0
  190.3250  177.1510  139.7290 C   0  0  1  0  0  3  0  0  0  0  0  0
  191.5060  176.5760  138.9480 C   0  0  0  0  0  2  0  0  0  0  0  0
  191.2150  176.3990  137.4590 C   0  0  0  0  0  2  0  0  0  0  0  0
  192.0790  175.3050  136.8450 C   0  0  0  0  0  2  0  0  0  0  0  0
  190.3840  173.7000  137.3560 O   0  0  0  0  0  1  0  0  0  0  0  0
  191.2290  174.1500  136.3410 C   0  0  0  0  0  2  0  0  0  0  0  0
  1 13  1  0  0  0  0
  2  6  2  0  0  0  0
  3  4  1  0  0  0  0
  4  1  2  0  0  0  0
  5  7  1  0  0  0  0
  6  1  1  0  0  0  0
  7  3  2  0  0  0  0
  7  2  1  0  0  0  0
  9 12  1  0  0  0  0
 10 11  2  0  0  0  0
 11  8  1  0  0  0  0
 12 19  1  0  0  0  0
 12  8  2  0  0  0  0
 13  9  2  0  0  0  0
 13 10  1  0  0  0  0
 14 17  2  0  0  0  0
 14 19  1  0  0  0  0
 15 16  1  0  0  0  0
 17 18  1  0  0  0  0
 18 16  2  0  0  0  0
 19 15  2  0  0  0  0
 20 22  1  0  0  0  0
 20  2  1  0  0  0  0
 21 20  2  0  0  0  0
 24 21  1  0  0  0  0
 24 23  1  0  0  0  0
 25 24  2  0  0  0  0
 26 24  2  0  0  0  0
 27 28  2  0  0  0  0
 28 29  1  0  0  0  0
 28  3  1  0  0  0  0
 29 31  1  0  0  0  0
 31 30  1  1  0  0  0
 32 31  1  0  0  0  0
 33 32  1  0  0  0  0
 34 33  1  0  0  0  0
 36 34  1  0  0  0  0
 36 35  1  0  0  0  0
M  END
>  <MODEL>
6

>  <REMARK>
 VINA RESULT:      -8.2      3.521      6.943
  Name = 
  11 active torsions:
  status: ('A' for Active; 'I' for Inactive)
    1  A    between atoms: C_2  and  C_12
    2  A    between atoms: C_5  and  C_7
    3  A    between atoms: C_5  and  C_11
    4  A    between atoms: C_7  and  C_14
    5  A    between atoms: C_10  and  C_36
    6  A    between atoms: C_11  and  C_22
    7  A    between atoms: C_13  and  C_19
    8  A    between atoms: C_13  and  C_22
    9  A    between atoms: C_17  and  C_19
   10  A    between atoms: S_20  and  C_28
   11  A    between atoms: C_30  and  C_34
                            x       y       z     vdW  Elec       q    Type
                         _______ _______ _______ _____ _____    ______ ____

>  <TORSDO>
F 11

$$$$
=
 OpenBabel10232411103D

 36 38  0  0  1  0  0  0  0  0999 V2000
  189.3020  177.2620  140.7790 C   0  0  0  0  0  0  0  0  0  0  0  0
  190.2070  176.5050  138.6560 C   0  0  0  0  0  0  0  0  0  0  0  0
  188.0840  177.7000  138.7720 C   0  0  0  0  0  0  0  0  0  0  0  0
  188.2300  177.7780  140.1220 N   0  0  0  0  0  0  0  0  0  0  0  0
  188.9420  176.9680  136.6580 F   0  0  0  0  0  0  0  0  0  0  0  0
  190.3030  176.6170  140.0480 C   0  0  0  0  0  3  0  0  0  0  0  0
  189.0790  177.0570  138.0070 C   0  0  0  0  0  0  0  0  0  0  0  0
  189.5310  177.6620  145.0380 C   0  0  0  0  0  3  0  0  0  0  0  0
  188.2330  177.6240  143.0010 C   0  0  0  0  0  3  0  0  0  0  0  0
  190.6270  177.3030  142.9100 C   0  0  0  0  0  3  0  0  0  0  0  0
  190.6950  177.4350  144.3000 C   0  0  0  0  0  3  0  0  0  0  0  0
  188.2880  177.7580  144.3950 C   0  0  0  0  0  0  0  0  0  0  0  0
  189.3930  177.3950  142.2480 C   0  0  0  0  0  0  0  0  0  0  0  0
  185.8280  178.2260  144.5060 C   0  0  0  0  0  3  0  0  0  0  0  0
  187.0810  178.0100  146.5270 N   0  0  0  0  0  0  0  0  0  0  0  0
  185.9650  178.2290  147.2740 C   0  0  0  0  0  3  0  0  0  0  0  0
  184.6730  178.4530  145.2560 C   0  0  0  0  0  3  0  0  0  0  0  0
  184.7370  178.4550  146.6490 C   0  0  0  0  0  3  0  0  0  0  0  0
  187.0470  178.0030  145.1630 C   0  0  0  0  0  0  0  0  0  0  0  0
  191.3070  175.8070  137.9400 C   0  0  0  0  0  0  0  0  0  0  0  0
  192.3750  176.4640  137.4830 C   0  0  0  0  0  3  0  0  0  0  0  0
  191.2170  174.4310  137.7450 O   0  0  0  0  0  1  0  0  0  0  0  0
  194.5290  174.5440  137.7240 C   0  0  0  0  0  1  0  0  0  0  0  0
  193.6930  175.6720  136.6340 S   0  0  0  0  0  0  0  0  0  0  0  0
  193.1590  174.9310  135.4400 O   0  0  0  0  0  0  0  0  0  0  0  0
  194.6690  176.7150  136.1690 O   0  0  0  0  0  0  0  0  0  0  0  0
  186.9730  179.1660  137.2490 O   0  0  0  0  0  0  0  0  0  0  0  0
  186.8780  178.2990  138.1570 C   0  0  0  0  0  0  0  0  0  0  0  0
  185.5190  177.8950  138.6290 C   0  0  0  0  0  2  0  0  0  0  0  0
  184.5480  180.0100  139.2070 O   0  0  0  0  0  1  0  0  0  0  0  0
  185.0450  178.8190  139.7410 C   0  0  1  0  0  3  0  0  0  0  0  0
  184.0020  178.1490  140.6340 C   0  0  0  0  0  2  0  0  0  0  0  0
  183.2780  176.9900  139.9510 C   0  0  0  0  0  2  0  0  0  0  0  0
  181.7810  177.2470  139.8490 C   0  0  0  0  0  2  0  0  0  0  0  0
  181.9310  178.2830  137.7020 O   0  0  0  0  0  1  0  0  0  0  0  0
  181.3180  177.2430  138.4020 C   0  0  0  0  0  2  0  0  0  0  0  0
  1 13  1  0  0  0  0
  2  6  1  0  0  0  0
  3  4  2  0  0  0  0
  4  1  1  0  0  0  0
  5  7  1  0  0  0  0
  6  1  2  0  0  0  0
  7  2  2  0  0  0  0
  7  3  1  0  0  0  0
  9 12  2  0  0  0  0
 10 11  1  0  0  0  0
 11  8  2  0  0  0  0
 12  8  1  0  0  0  0
 12 19  1  0  0  0  0
 13 10  2  0  0  0  0
 13  9  1  0  0  0  0
 14 19  2  0  0  0  0
 14 17  1  0  0  0  0
 15 16  2  0  0  0  0
 17 18  2  0  0  0  0
 18 16  1  0  0  0  0
 19 15  1  0  0  0  0
 20  2  1  0  0  0  0
 21 20  2  0  0  0  0
 22 20  1  0  0  0  0
 24 21  1  0  0  0  0
 24 23  1  0  0  0  0
 25 24  2  0  0  0  0
 26 24  2  0  0  0  0
 27 28  2  0  0  0  0
 28 29  1  0  0  0  0
 28  3  1  0  0  0  0
 29 31  1  0  0  0  0
 31 30  1  6  0  0  0
 31 32  1  0  0  0  0
 33 32  1  0  0  0  0
 34 33  1  0  0  0  0
 35 36  1  0  0  0  0
 36 34  1  0  0  0  0
M  END
>  <MODEL>
7

>  <REMARK>
 VINA RESULT:      -8.1      4.941      9.392
  Name = 
  11 active torsions:
  status: ('A' for Active; 'I' for Inactive)
    1  A    between atoms: C_2  and  C_12
    2  A    between atoms: C_5  and  C_7
    3  A    between atoms: C_5  and  C_11
    4  A    between atoms: C_7  and  C_14
    5  A    between atoms: C_10  and  C_36
    6  A    between atoms: C_11  and  C_22
    7  A    between atoms: C_13  and  C_19
    8  A    between atoms: C_13  and  C_22
    9  A    between atoms: C_17  and  C_19
   10  A    between atoms: S_20  and  C_28
   11  A    between atoms: C_30  and  C_34
                            x       y       z     vdW  Elec       q    Type
                         _______ _______ _______ _____ _____    ______ ____

>  <TORSDO>
F 11

$$$$
=
 OpenBabel10232411103D

 36 38  0  0  1  0  0  0  0  0999 V2000
  190.0730  177.2010  141.2330 C   0  0  0  0  0  0  0  0  0  0  0  0
  189.1140  177.3330  139.0060 C   0  0  0  0  0  0  0  0  0  0  0  0
  191.5010  176.9550  139.3340 C   0  0  0  0  0  0  0  0  0  0  0  0
  191.2980  177.0020  140.6790 N   0  0  0  0  0  0  0  0  0  0  0  0
  190.5930  177.0810  137.1210 F   0  0  0  0  0  0  0  0  0  0  0  0
  188.9660  177.3700  140.3970 C   0  0  0  0  0  3  0  0  0  0  0  0
  190.4030  177.1200  138.4650 C   0  0  0  0  0  0  0  0  0  0  0  0
  189.6310  177.3000  145.4930 C   0  0  0  0  0  3  0  0  0  0  0  0
  188.6940  177.5460  143.2800 C   0  0  0  0  0  3  0  0  0  0  0  0
  191.0210  176.9480  143.5430 C   0  0  0  0  0  3  0  0  0  0  0  0
  190.8700  176.9830  144.9310 C   0  0  0  0  0  3  0  0  0  0  0  0
  188.5300  177.5850  144.6710 C   0  0  0  0  0  0  0  0  0  0  0  0
  189.9320  177.2290  142.7030 C   0  0  0  0  0  0  0  0  0  0  0  0
  186.0860  178.0850  144.4290 C   0  0  0  0  0  3  0  0  0  0  0  0
  187.0830  178.0890  146.5980 N   0  0  0  0  0  0  0  0  0  0  0  0
  185.8920  178.4010  147.1750 C   0  0  0  0  0  3  0  0  0  0  0  0
  184.8550  178.4060  145.0030 C   0  0  0  0  0  3  0  0  0  0  0  0
  184.7530  178.5670  146.3850 C   0  0  0  0  0  3  0  0  0  0  0  0
  187.2130  177.9270  145.2500 C   0  0  0  0  0  0  0  0  0  0  0  0
  187.8950  177.5200  138.1750 C   0  0  0  0  0  0  0  0  0  0  0  0
  187.3340  176.5050  137.5140 C   0  0  0  0  0  3  0  0  0  0  0  0
  187.3280  178.7890  138.0880 O   0  0  0  0  0  1  0  0  0  0  0  0
  184.5370  177.2580  137.5230 C   0  0  0  0  0  1  0  0  0  0  0  0
  185.8940  176.6900  136.5240 S   0  0  0  0  0  0  0  0  0  0  0  0
  186.1600  177.6680  135.4150 O   0  0  0  0  0  0  0  0  0  0  0  0
  185.5380  175.3570  135.9300 O   0  0  0  0  0  0  0  0  0  0  0  0
  193.8780  177.1380  139.4820 O   0  0  0  0  0  0  0  0  0  0  0  0
  192.8770  176.7300  138.8360 C   0  0  0  0  0  0  0  0  0  0  0  0
  193.0950  176.0290  137.5350 C   0  0  0  0  0  2  0  0  0  0  0  0
  191.9900  173.9780  136.9700 O   0  0  0  0  0  1  0  0  0  0  0  0
  193.0310  174.5210  137.7250 C   0  0  1  0  0  3  0  0  0  0  0  0
  194.3580  173.8450  137.3810 C   0  0  0  0  0  2  0  0  0  0  0  0
  195.5780  174.6550  137.8180 C   0  0  0  0  0  2  0  0  0  0  0  0
  196.0330  174.2710  139.2190 C   0  0  0  0  0  2  0  0  0  0  0  0
  197.9900  175.4100  138.4580 O   0  0  0  0  0  1  0  0  0  0  0  0
  197.3070  175.0050  139.6050 C   0  0  0  0  0  2  0  0  0  0  0  0
  1 13  1  0  0  0  0
  2  6  1  0  0  0  0
  3  4  2  0  0  0  0
  4  1  1  0  0  0  0
  5  7  1  0  0  0  0
  6  1  2  0  0  0  0
  7  2  2  0  0  0  0
  7  3  1  0  0  0  0
  9 12  1  0  0  0  0
 10 11  2  0  0  0  0
 11  8  1  0  0  0  0
 12 19  1  0  0  0  0
 12  8  2  0  0  0  0
 13  9  2  0  0  0  0
 13 10  1  0  0  0  0
 14 17  2  0  0  0  0
 14 19  1  0  0  0  0
 15 16  1  0  0  0  0
 17 18  1  0  0  0  0
 18 16  2  0  0  0  0
 19 15  2  0  0  0  0
 20  2  1  0  0  0  0
 21 20  2  0  0  0  0
 22 20  1  0  0  0  0
 24 21  1  0  0  0  0
 24 23  1  0  0  0  0
 25 24  2  0  0  0  0
 26 24  2  0  0  0  0
 28  3  1  0  0  0  0
 28 27  2  0  0  0  0
 29 31  1  0  0  0  0
 29 28  1  0  0  0  0
 31 30  1  6  0  0  0
 32 31  1  0  0  0  0
 32 33  1  0  0  0  0
 33 34  1  0  0  0  0
 34 36  1  0  0  0  0
 35 36  1  0  0  0  0
M  END
>  <MODEL>
8

>  <REMARK>
 VINA RESULT:      -8.1      5.030      8.284
  Name = 
  11 active torsions:
  status: ('A' for Active; 'I' for Inactive)
    1  A    between atoms: C_2  and  C_12
    2  A    between atoms: C_5  and  C_7
    3  A    between atoms: C_5  and  C_11
    4  A    between atoms: C_7  and  C_14
    5  A    between atoms: C_10  and  C_36
    6  A    between atoms: C_11  and  C_22
    7  A    between atoms: C_13  and  C_19
    8  A    between atoms: C_13  and  C_22
    9  A    between atoms: C_17  and  C_19
   10  A    between atoms: S_20  and  C_28
   11  A    between atoms: C_30  and  C_34
                            x       y       z     vdW  Elec       q    Type
                         _______ _______ _______ _____ _____    ______ ____

>  <TORSDO>
F 11

$$$$
=
 OpenBabel10232411103D

 36 38  0  0  1  0  0  0  0  0999 V2000
  187.1920  178.1610  142.2560 C   0  0  0  0  0  0  0  0  0  0  0  0
  184.9600  178.7180  141.4770 C   0  0  0  0  0  0  0  0  0  0  0  0
  185.4400  178.4440  143.8530 C   0  0  0  0  0  0  0  0  0  0  0  0
  186.7340  178.1730  143.5350 N   0  0  0  0  0  0  0  0  0  0  0  0
  183.2240  178.9920  143.1250 F   0  0  0  0  0  0  0  0  0  0  0  0
  186.3040  178.4330  141.2120 C   0  0  0  0  0  3  0  0  0  0  0  0
  184.5210  178.7250  142.8210 C   0  0  0  0  0  0  0  0  0  0  0  0
  191.3110  177.2930  141.4580 C   0  0  0  0  0  3  0  0  0  0  0  0
  189.0250  177.5000  140.7020 C   0  0  0  0  0  3  0  0  0  0  0  0
  189.5750  177.9410  143.0140 C   0  0  0  0  0  3  0  0  0  0  0  0
  190.9160  177.6570  142.7470 C   0  0  0  0  0  3  0  0  0  0  0  0
  190.3680  177.2120  140.4220 C   0  0  0  0  0  0  0  0  0  0  0  0
  188.6160  177.8660  141.9920 C   0  0  0  0  0  0  0  0  0  0  0  0
  192.1100  176.5380  138.7490 C   0  0  0  0  0  3  0  0  0  0  0  0
  189.8300  176.7350  138.0670 N   0  0  0  0  0  0  0  0  0  0  0  0
  190.1520  176.3790  136.7940 C   0  0  0  0  0  3  0  0  0  0  0  0
  192.4590  176.1720  137.4480 C   0  0  0  0  0  3  0  0  0  0  0  0
  191.4770  176.0910  136.4610 C   0  0  0  0  0  3  0  0  0  0  0  0
  190.7690  176.8230  139.0520 C   0  0  0  0  0  0  0  0  0  0  0  0
  184.0700  178.9990  140.3200 C   0  0  0  0  0  0  0  0  0  0  0  0
  182.8860  178.4000  140.1830 C   0  0  0  0  0  3  0  0  0  0  0  0
  184.4880  179.9140  139.3560 O   0  0  0  0  0  1  0  0  0  0  0  0
  182.5240  178.0810  137.3270 C   0  0  0  0  0  1  0  0  0  0  0  0
  181.8090  178.7090  138.8300 S   0  0  0  0  0  0  0  0  0  0  0  0
  180.4790  178.0560  139.0770 O   0  0  0  0  0  0  0  0  0  0  0  0
  181.6120  180.1920  138.6930 O   0  0  0  0  0  0  0  0  0  0  0  0
  184.0120  179.0340  145.6750 O   0  0  0  0  0  0  0  0  0  0  0  0
  185.0470  178.4340  145.2800 C   0  0  0  0  0  0  0  0  0  0  0  0
  185.8950  177.7250  146.2850 C   0  0  0  0  0  2  0  0  0  0  0  0
  185.9810  179.7060  147.6330 O   0  0  0  0  0  1  0  0  0  0  0  0
  186.7680  178.7170  147.0390 C   0  0  1  0  0  3  0  0  0  0  0  0
  187.6450  178.0260  148.0830 C   0  0  0  0  0  2  0  0  0  0  0  0
  188.6110  177.0080  147.4790 C   0  0  0  0  0  2  0  0  0  0  0  0
  189.5450  177.6540  146.4640 C   0  0  0  0  0  2  0  0  0  0  0  0
  191.2400  176.4570  147.6480 O   0  0  0  0  0  1  0  0  0  0  0  0
  190.8680  176.9130  146.3820 C   0  0  0  0  0  2  0  0  0  0  0  0
  1  4  1  0  0  0  0
  2  7  2  0  0  0  0
  3 28  1  0  0  0  0
  4  3  2  0  0  0  0
  6  2  1  0  0  0  0
  6  1  2  0  0  0  0
  7  5  1  0  0  0  0
  7  3  1  0  0  0  0
  8 11  1  0  0  0  0
  9 13  2  0  0  0  0
 11 10  2  0  0  0  0
 12  9  1  0  0  0  0
 12  8  2  0  0  0  0
 13  1  1  0  0  0  0
 13 10  1  0  0  0  0
 14 19  1  0  0  0  0
 15 19  2  0  0  0  0
 16 15  1  0  0  0  0
 17 14  2  0  0  0  0
 18 16  2  0  0  0  0
 18 17  1  0  0  0  0
 19 12  1  0  0  0  0
 20  2  1  0  0  0  0
 21 20  2  0  0  0  0
 22 20  1  0  0  0  0
 23 24  1  0  0  0  0
 24 25  2  0  0  0  0
 24 21  1  0  0  0  0
 26 24  2  0  0  0  0
 28 27  2  0  0  0  0
 28 29  1  0  0  0  0
 29 31  1  0  0  0  0
 31 30  1  1  0  0  0
 31 32  1  0  0  0  0
 33 32  1  0  0  0  0
 34 33  1  0  0  0  0
 36 34  1  0  0  0  0
 36 35  1  0  0  0  0
M  END
>  <MODEL>
9

>  <REMARK>
 VINA RESULT:      -8.1      1.567      2.099
  Name = 
  11 active torsions:
  status: ('A' for Active; 'I' for Inactive)
    1  A    between atoms: C_2  and  C_12
    2  A    between atoms: C_5  and  C_7
    3  A    between atoms: C_5  and  C_11
    4  A    between atoms: C_7  and  C_14
    5  A    between atoms: C_10  and  C_36
    6  A    between atoms: C_11  and  C_22
    7  A    between atoms: C_13  and  C_19
    8  A    between atoms: C_13  and  C_22
    9  A    between atoms: C_17  and  C_19
   10  A    between atoms: S_20  and  C_28
   11  A    between atoms: C_30  and  C_34
                            x       y       z     vdW  Elec       q    Type
                         _______ _______ _______ _____ _____    ______ ____

>  <TORSDO>
F 11

$$$$
