=
 OpenBabel10222422113D

 29 31  0  0  1  0  0  0  0  0999 V2000
  182.8780  178.1970  141.3310 O   0  0  0  0  0  1  0  0  0  0  0  0
  184.2480  178.0500  141.5680 C   0  0  2  0  0  3  0  0  0  0  0  0
  187.0270  177.9330  145.7740 C   0  0  0  0  0  0  0  0  0  0  0  0
  183.7390  179.0660  145.2090 C   0  0  0  0  0  3  0  0  0  0  0  0
  185.3820  178.8190  146.9840 O   0  0  0  0  0  0  0  0  0  0  0  0
  186.6170  178.3580  147.0210 C   0  0  0  0  0  0  0  0  0  0  0  0
  187.4580  178.2780  148.1290 C   0  0  0  0  0  3  0  0  0  0  0  0
  184.5350  178.2890  143.0200 C   0  0  0  0  0  0  0  0  0  0  0  0
  188.7490  177.7500  147.9310 C   0  0  0  0  0  3  0  0  0  0  0  0
  183.5250  178.8510  143.8350 C   0  0  0  0  0  3  0  0  0  0  0  0
  184.9760  178.7050  145.7340 C   0  0  0  0  0  0  0  0  0  0  0  0
  185.7800  177.9270  143.5780 C   0  0  0  0  0  3  0  0  0  0  0  0
  185.9620  178.1590  144.9400 C   0  0  0  0  0  0  0  0  0  0  0  0
  188.2970  177.4100  145.5460 C   0  0  0  0  0  3  0  0  0  0  0  0
  189.1640  177.3190  146.6510 C   0  0  0  0  0  3  0  0  0  0  0  0
  185.0720  178.9850  140.6650 C   0  0  2  0  0  3  0  0  0  0  0  0
  184.0770  180.4850  139.0180 N   0  0  0  0  0  1  0  0  0  0  0  0
  184.4800  179.1110  139.2660 C   0  0  0  0  0  2  0  0  0  0  0  0
  186.5480  178.5690  140.5880 C   0  0  0  0  0  2  0  0  0  0  0  0
  187.0200  178.2820  139.1650 C   0  0  0  0  0  2  0  0  0  0  0  0
  188.4500  178.5180  139.0510 N   0  0  0  0  0  2  0  0  0  0  0  0
  189.0540  177.9790  140.1970 N   0  0  0  0  0  2  0  0  0  0  0  0
  190.3370  177.3420  140.1690 C   0  0  0  0  0  0  0  0  0  0  0  0
  190.8720  176.6070  138.7980 S   0  0  0  0  0  0  0  0  0  0  0  0
  191.1480  177.3890  141.3530 N   0  0  0  0  0  2  0  0  0  0  0  0
  191.5710  178.0870  143.6680 C   0  0  0  0  0  1  0  0  0  0  0  0
  190.6730  177.2970  142.7310 C   0  0  2  0  0  3  0  0  0  0  0  0
  191.6690  175.7910  144.0130 C   0  0  0  0  0  1  0  0  0  0  0  0
  190.5970  175.9620  143.1350 O   0  0  0  0  0  0  0  0  0  0  0  0
  2  1  1  1  0  0  0
  2  8  1  0  0  0  0
  3  6  1  0  0  0  0
  4 11  1  0  0  0  0
  5  6  1  0  0  0  0
  6  7  2  0  0  0  0
  8 12  2  0  0  0  0
  8 10  1  0  0  0  0
  9  7  1  0  0  0  0
 10  4  2  0  0  0  0
 11  5  1  0  0  0  0
 12 13  1  0  0  0  0
 13 11  2  0  0  0  0
 13  3  1  0  0  0  0
 14  3  2  0  0  0  0
 14 15  1  0  0  0  0
 15  9  2  0  0  0  0
 16 18  1  6  0  0  0
 16  2  1  0  0  0  0
 17 18  1  0  0  0  0
 19 16  1  0  0  0  0
 20 19  1  0  0  0  0
 21 20  1  0  0  0  0
 21 22  1  0  0  0  0
 23 22  1  0  0  0  0
 23 25  1  0  0  0  0
 24 23  2  0  0  0  0
 25 27  1  0  0  0  0
 27 29  1  0  0  0  0
 27 26  1  1  0  0  0
 29 28  1  0  0  0  0
M  END
>  <MODEL>
1

>  <REMARK>
 VINA RESULT:      -8.7      0.000      0.000
  Name = 
  11 active torsions:
  status: ('A' for Active; 'I' for Inactive)
    1  A    between atoms: C_4  and  N_12
    2  A    between atoms: C_4  and  N_13
    3  A    between atoms: C_10  and  C_14
    4  A    between atoms: C_10  and  C_29
    5  A    between atoms: N_12  and  N_20
    6  A    between atoms: N_13  and  C_22
    7  A    between atoms: C_19  and  C_23
    8  A    between atoms: C_19  and  C_29
    9  A    between atoms: N_20  and  C_23
   10  A    between atoms: C_22  and  O_27
   11  A    between atoms: C_28  and  C_29
                            x       y       z     vdW  Elec       q    Type
                         _______ _______ _______ _____ _____    ______ ____

>  <TORSDO>
F 11

$$$$
=
 OpenBabel10222422113D

 29 31  0  0  1  0  0  0  0  0999 V2000
  190.9300  176.3470  147.6320 O   0  0  0  0  0  1  0  0  0  0  0  0
  190.6080  177.3440  146.7060 C   0  0  2  0  0  3  0  0  0  0  0  0
  185.9360  178.2820  145.0560 C   0  0  0  0  0  0  0  0  0  0  0  0
  187.3100  178.4100  148.2980 C   0  0  0  0  0  3  0  0  0  0  0  0
  185.2230  178.7790  147.1070 O   0  0  0  0  0  0  0  0  0  0  0  0
  184.8720  178.6790  145.8390 C   0  0  0  0  0  0  0  0  0  0  0  0
  183.6150  178.9220  145.2880 C   0  0  0  0  0  3  0  0  0  0  0  0
  189.1610  177.7090  146.8450 C   0  0  0  0  0  0  0  0  0  0  0  0
  183.4680  178.7440  143.8990 C   0  0  0  0  0  3  0  0  0  0  0  0
  188.6540  178.0340  148.1250 C   0  0  0  0  0  3  0  0  0  0  0  0
  186.5000  178.4540  147.1670 C   0  0  0  0  0  0  0  0  0  0  0  0
  188.3190  177.7660  145.7130 C   0  0  0  0  0  3  0  0  0  0  0  0
  186.9930  178.1360  145.9190 C   0  0  0  0  0  0  0  0  0  0  0  0
  185.8200  178.0940  143.6820 C   0  0  0  0  0  3  0  0  0  0  0  0
  184.5610  178.3350  143.1020 C   0  0  0  0  0  3  0  0  0  0  0  0
  190.9470  176.9020  145.2720 C   0  0  2  0  0  3  0  0  0  0  0  0
  191.9140  175.1430  143.8840 N   0  0  0  0  0  1  0  0  0  0  0  0
  191.8260  175.6560  145.2410 C   0  0  0  0  0  2  0  0  0  0  0  0
  191.5860  178.0300  144.4500 C   0  0  0  0  0  2  0  0  0  0  0  0
  190.6930  178.5330  143.3190 C   0  0  0  0  0  2  0  0  0  0  0  0
  189.9670  177.4260  142.7190 N   0  0  0  0  0  2  0  0  0  0  0  0
  189.1230  177.9640  141.7360 N   0  0  0  0  0  2  0  0  0  0  0  0
  189.4130  177.8800  140.3360 C   0  0  0  0  0  0  0  0  0  0  0  0
  190.6170  176.8990  139.7920 S   0  0  0  0  0  0  0  0  0  0  0  0
  188.6100  178.6470  139.4260 N   0  0  0  0  0  2  0  0  0  0  0  0
  188.3520  178.5570  136.9860 C   0  0  0  0  0  1  0  0  0  0  0  0
  187.7980  178.1200  138.3320 C   0  0  2  0  0  3  0  0  0  0  0  0
  185.7540  177.7230  137.5790 C   0  0  0  0  0  1  0  0  0  0  0  0
  186.4680  178.5260  138.4690 O   0  0  0  0  0  0  0  0  0  0  0  0
  2  8  1  0  0  0  0
  2  1  1  1  0  0  0
  3  6  1  0  0  0  0
  3 13  1  0  0  0  0
  5 11  1  0  0  0  0
  6  5  1  0  0  0  0
  7  6  2  0  0  0  0
  8 10  2  0  0  0  0
  9  7  1  0  0  0  0
 10  4  1  0  0  0  0
 11  4  2  0  0  0  0
 12 13  2  0  0  0  0
 12  8  1  0  0  0  0
 13 11  1  0  0  0  0
 14  3  2  0  0  0  0
 15 14  1  0  0  0  0
 15  9  2  0  0  0  0
 16 19  1  1  0  0  0
 16  2  1  0  0  0  0
 17 18  1  0  0  0  0
 18 16  1  0  0  0  0
 20 19  1  0  0  0  0
 21 20  1  0  0  0  0
 22 21  1  0  0  0  0
 23 22  1  0  0  0  0
 24 23  2  0  0  0  0
 25 23  1  0  0  0  0
 27 26  1  6  0  0  0
 27 29  1  0  0  0  0
 27 25  1  0  0  0  0
 28 29  1  0  0  0  0
M  END
>  <MODEL>
2

>  <REMARK>
 VINA RESULT:      -8.3      1.870      5.890
  Name = 
  11 active torsions:
  status: ('A' for Active; 'I' for Inactive)
    1  A    between atoms: C_4  and  N_12
    2  A    between atoms: C_4  and  N_13
    3  A    between atoms: C_10  and  C_14
    4  A    between atoms: C_10  and  C_29
    5  A    between atoms: N_12  and  N_20
    6  A    between atoms: N_13  and  C_22
    7  A    between atoms: C_19  and  C_23
    8  A    between atoms: C_19  and  C_29
    9  A    between atoms: N_20  and  C_23
   10  A    between atoms: C_22  and  O_27
   11  A    between atoms: C_28  and  C_29
                            x       y       z     vdW  Elec       q    Type
                         _______ _______ _______ _____ _____    ______ ____

>  <TORSDO>
F 11

$$$$
=
 OpenBabel10222422113D

 29 31  0  0  1  0  0  0  0  0999 V2000
  191.0540  176.1560  147.4040 O   0  0  0  0  0  1  0  0  0  0  0  0
  190.7340  177.2180  146.5530 C   0  0  2  0  0  3  0  0  0  0  0  0
  186.0390  178.2460  145.0290 C   0  0  0  0  0  0  0  0  0  0  0  0
  187.4780  178.2580  148.2460 C   0  0  0  0  0  3  0  0  0  0  0  0
  185.3710  178.6820  147.1090 O   0  0  0  0  0  0  0  0  0  0  0  0
  184.9930  178.6250  145.8460 C   0  0  0  0  0  0  0  0  0  0  0  0
  183.7280  178.8960  145.3280 C   0  0  0  0  0  3  0  0  0  0  0  0
  189.2930  177.5900  146.7330 C   0  0  0  0  0  0  0  0  0  0  0  0
  183.5520  178.7650  143.9370 C   0  0  0  0  0  3  0  0  0  0  0  0
  188.8150  177.8760  148.0330 C   0  0  0  0  0  3  0  0  0  0  0  0
  186.6460  178.3440  147.1330 C   0  0  0  0  0  0  0  0  0  0  0  0
  188.4300  177.6900  145.6200 C   0  0  0  0  0  3  0  0  0  0  0  0
  187.1110  178.0640  145.8650 C   0  0  0  0  0  0  0  0  0  0  0  0
  185.8940  178.1040  143.6520 C   0  0  0  0  0  3  0  0  0  0  0  0
  184.6250  178.3740  143.1060 C   0  0  0  0  0  3  0  0  0  0  0  0
  191.0530  176.8720  145.0890 C   0  0  2  0  0  3  0  0  0  0  0  0
  191.5570  174.8710  143.7870 N   0  0  0  0  0  1  0  0  0  0  0  0
  191.9360  175.6350  144.9620 C   0  0  0  0  0  2  0  0  0  0  0  0
  191.6750  178.0550  144.3320 C   0  0  0  0  0  2  0  0  0  0  0  0
  190.9130  178.4280  143.0640 C   0  0  0  0  0  2  0  0  0  0  0  0
  191.4690  177.7310  141.9170 N   0  0  0  0  0  2  0  0  0  0  0  0
  190.4130  177.0560  141.2860 N   0  0  0  0  0  2  0  0  0  0  0  0
  189.6550  177.6330  140.2160 C   0  0  0  0  0  0  0  0  0  0  0  0
  188.1730  178.2880  140.5030 S   0  0  0  0  0  0  0  0  0  0  0  0
  190.2340  177.6480  138.9020 N   0  0  0  0  0  2  0  0  0  0  0  0
  188.9340  178.5990  137.0490 C   0  0  0  0  0  1  0  0  0  0  0  0
  189.5450  177.3450  137.6490 C   0  0  2  0  0  3  0  0  0  0  0  0
  188.8220  175.3960  136.8890 C   0  0  0  0  0  1  0  0  0  0  0  0
  188.5640  176.3710  137.8530 O   0  0  0  0  0  0  0  0  0  0  0  0
  2  8  1  0  0  0  0
  2  1  1  1  0  0  0
  3  6  1  0  0  0  0
  3 13  1  0  0  0  0
  5 11  1  0  0  0  0
  6  5  1  0  0  0  0
  7  6  2  0  0  0  0
  8 10  2  0  0  0  0
  9  7  1  0  0  0  0
 10  4  1  0  0  0  0
 11  4  2  0  0  0  0
 12 13  2  0  0  0  0
 12  8  1  0  0  0  0
 13 11  1  0  0  0  0
 14  3  2  0  0  0  0
 15 14  1  0  0  0  0
 15  9  2  0  0  0  0
 16 19  1  1  0  0  0
 16  2  1  0  0  0  0
 17 18  1  0  0  0  0
 18 16  1  0  0  0  0
 20 19  1  0  0  0  0
 21 20  1  0  0  0  0
 22 21  1  0  0  0  0
 23 24  2  0  0  0  0
 23 22  1  0  0  0  0
 25 23  1  0  0  0  0
 27 26  1  1  0  0  0
 27 29  1  0  0  0  0
 27 25  1  0  0  0  0
 28 29  1  0  0  0  0
M  END
>  <MODEL>
3

>  <REMARK>
 VINA RESULT:      -8.0      2.433      5.783
  Name = 
  11 active torsions:
  status: ('A' for Active; 'I' for Inactive)
    1  A    between atoms: C_4  and  N_12
    2  A    between atoms: C_4  and  N_13
    3  A    between atoms: C_10  and  C_14
    4  A    between atoms: C_10  and  C_29
    5  A    between atoms: N_12  and  N_20
    6  A    between atoms: N_13  and  C_22
    7  A    between atoms: C_19  and  C_23
    8  A    between atoms: C_19  and  C_29
    9  A    between atoms: N_20  and  C_23
   10  A    between atoms: C_22  and  O_27
   11  A    between atoms: C_28  and  C_29
                            x       y       z     vdW  Elec       q    Type
                         _______ _______ _______ _____ _____    ______ ____

>  <TORSDO>
F 11

$$$$
=
 OpenBabel10222422113D

 29 31  0  0  1  0  0  0  0  0999 V2000
  189.6230  176.3730  147.4590 O   0  0  0  0  0  1  0  0  0  0  0  0
  189.5200  177.5140  146.6580 C   0  0  2  0  0  3  0  0  0  0  0  0
  185.2960  178.3360  144.0290 C   0  0  0  0  0  0  0  0  0  0  0  0
  185.9620  178.6160  147.4780 C   0  0  0  0  0  3  0  0  0  0  0  0
  184.1710  178.9140  145.8620 O   0  0  0  0  0  0  0  0  0  0  0  0
  184.0910  178.7560  144.5550 C   0  0  0  0  0  0  0  0  0  0  0  0
  182.9780  178.9630  143.7430 C   0  0  0  0  0  3  0  0  0  0  0  0
  188.0760  177.8710  146.4750 C   0  0  0  0  0  0  0  0  0  0  0  0
  183.1240  178.7250  142.3630 C   0  0  0  0  0  3  0  0  0  0  0  0
  187.3130  178.2450  147.6060 C   0  0  0  0  0  3  0  0  0  0  0  0
  185.4070  178.6030  146.2020 C   0  0  0  0  0  0  0  0  0  0  0  0
  187.4900  177.8710  145.1910 C   0  0  0  0  0  3  0  0  0  0  0  0
  186.1490  178.2370  145.0990 C   0  0  0  0  0  0  0  0  0  0  0  0
  185.4700  178.0890  142.6700 C   0  0  0  0  0  3  0  0  0  0  0  0
  184.3600  178.2930  141.8310 C   0  0  0  0  0  3  0  0  0  0  0  0
  190.2300  177.3110  145.3080 C   0  0  2  0  0  3  0  0  0  0  0  0
  191.7180  175.6080  144.3910 N   0  0  0  0  0  1  0  0  0  0  0  0
  191.5630  176.5850  145.4550 C   0  0  0  0  0  2  0  0  0  0  0  0
  190.4190  178.6300  144.5440 C   0  0  0  0  0  2  0  0  0  0  0  0
  190.8750  178.4310  143.1010 C   0  0  0  0  0  2  0  0  0  0  0  0
  189.7980  177.8650  142.3050 N   0  0  0  0  0  2  0  0  0  0  0  0
  190.3810  176.9860  141.3800 N   0  0  0  0  0  2  0  0  0  0  0  0
  190.0340  176.9840  139.9900 C   0  0  0  0  0  0  0  0  0  0  0  0
  188.9940  178.1080  139.3890 S   0  0  0  0  0  0  0  0  0  0  0  0
  190.6360  175.9970  139.1380 N   0  0  0  0  0  2  0  0  0  0  0  0
  191.3480  175.0220  137.0010 C   0  0  0  0  0  1  0  0  0  0  0  0
  191.3570  176.2520  137.8930 C   0  0  2  0  0  3  0  0  0  0  0  0
  193.4450  176.0010  137.2030 C   0  0  0  0  0  1  0  0  0  0  0  0
  192.6670  176.6540  138.1590 O   0  0  0  0  0  0  0  0  0  0  0  0
  2  1  1  1  0  0  0
  3  6  1  0  0  0  0
  3 13  1  0  0  0  0
  4 10  1  0  0  0  0
  5 11  1  0  0  0  0
  6  5  1  0  0  0  0
  7  6  2  0  0  0  0
  8  2  1  0  0  0  0
  8 10  2  0  0  0  0
  9  7  1  0  0  0  0
 11  4  2  0  0  0  0
 12  8  1  0  0  0  0
 13 12  2  0  0  0  0
 13 11  1  0  0  0  0
 14  3  2  0  0  0  0
 15  9  2  0  0  0  0
 15 14  1  0  0  0  0
 16 19  1  1  0  0  0
 16 18  1  0  0  0  0
 16  2  1  0  0  0  0
 17 18  1  0  0  0  0
 20 19  1  0  0  0  0
 21 20  1  0  0  0  0
 22 21  1  0  0  0  0
 23 22  1  0  0  0  0
 24 23  2  0  0  0  0
 25 23  1  0  0  0  0
 27 26  1  6  0  0  0
 27 29  1  0  0  0  0
 27 25  1  0  0  0  0
 28 29  1  0  0  0  0
M  END
>  <MODEL>
4

>  <REMARK>
 VINA RESULT:      -8.0      2.336      5.588
  Name = 
  11 active torsions:
  status: ('A' for Active; 'I' for Inactive)
    1  A    between atoms: C_4  and  N_12
    2  A    between atoms: C_4  and  N_13
    3  A    between atoms: C_10  and  C_14
    4  A    between atoms: C_10  and  C_29
    5  A    between atoms: N_12  and  N_20
    6  A    between atoms: N_13  and  C_22
    7  A    between atoms: C_19  and  C_23
    8  A    between atoms: C_19  and  C_29
    9  A    between atoms: N_20  and  C_23
   10  A    between atoms: C_22  and  O_27
   11  A    between atoms: C_28  and  C_29
                            x       y       z     vdW  Elec       q    Type
                         _______ _______ _______ _____ _____    ______ ____

>  <TORSDO>
F 11

$$$$
=
 OpenBabel10222422113D

 29 31  0  0  1  0  0  0  0  0999 V2000
  190.2400  175.2640  142.9360 O   0  0  0  0  0  1  0  0  0  0  0  0
  190.6170  176.3160  143.7760 C   0  0  2  0  0  3  0  0  0  0  0  0
  185.9060  178.0800  144.1230 C   0  0  0  0  0  0  0  0  0  0  0  0
  188.3770  177.5910  146.5870 C   0  0  0  0  0  3  0  0  0  0  0  0
  186.0960  178.3900  146.3190 O   0  0  0  0  0  0  0  0  0  0  0  0
  185.2910  178.5070  145.2810 C   0  0  0  0  0  0  0  0  0  0  0  0
  183.9830  178.9870  145.2740 C   0  0  0  0  0  3  0  0  0  0  0  0
  189.4100  176.8490  144.4870 C   0  0  0  0  0  0  0  0  0  0  0  0
  183.3060  179.0170  144.0400 C   0  0  0  0  0  3  0  0  0  0  0  0
  189.4750  177.0650  145.8830 C   0  0  0  0  0  3  0  0  0  0  0  0
  187.2280  177.8920  145.8610 C   0  0  0  0  0  0  0  0  0  0  0  0
  188.2340  177.1670  143.7720 C   0  0  0  0  0  3  0  0  0  0  0  0
  187.1630  177.6810  144.4990 C   0  0  0  0  0  0  0  0  0  0  0  0
  185.2610  178.0940  142.8890 C   0  0  0  0  0  3  0  0  0  0  0  0
  183.9400  178.5760  142.8570 C   0  0  0  0  0  3  0  0  0  0  0  0
  191.3470  177.4190  142.9910 C   0  0  2  0  0  3  0  0  0  0  0  0
  192.1560  179.1960  144.4540 N   0  0  0  0  0  1  0  0  0  0  0  0
  191.0800  178.8100  143.5570 C   0  0  0  0  0  2  0  0  0  0  0  0
  191.0210  177.3800  141.4910 C   0  0  0  0  0  2  0  0  0  0  0  0
  192.2630  177.3910  140.6030 C   0  0  0  0  0  2  0  0  0  0  0  0
  191.9030  177.0840  139.2290 N   0  0  0  0  0  2  0  0  0  0  0  0
  190.9070  176.0970  139.2680 N   0  0  0  0  0  2  0  0  0  0  0  0
  189.8410  176.0340  138.3140 C   0  0  0  0  0  0  0  0  0  0  0  0
  190.0000  175.1370  136.9450 S   0  0  0  0  0  0  0  0  0  0  0  0
  188.6280  176.7480  138.6000 N   0  0  0  0  0  2  0  0  0  0  0  0
  187.7510  178.3550  140.2350 C   0  0  0  0  0  1  0  0  0  0  0  0
  188.5160  178.1650  138.9360 C   0  0  2  0  0  3  0  0  0  0  0  0
  188.9370  179.1870  137.0180 C   0  0  0  0  0  1  0  0  0  0  0  0
  187.9010  178.8680  137.8980 O   0  0  0  0  0  0  0  0  0  0  0  0
  2  1  1  6  0  0  0
  2  8  1  0  0  0  0
  3 13  1  0  0  0  0
  3  6  1  0  0  0  0
  6  5  1  0  0  0  0
  7  6  2  0  0  0  0
  8 10  2  0  0  0  0
  9  7  1  0  0  0  0
 10  4  1  0  0  0  0
 11  5  1  0  0  0  0
 11  4  2  0  0  0  0
 12  8  1  0  0  0  0
 12 13  2  0  0  0  0
 13 11  1  0  0  0  0
 14  3  2  0  0  0  0
 15 14  1  0  0  0  0
 15  9  2  0  0  0  0
 16 19  1  6  0  0  0
 16 18  1  0  0  0  0
 16  2  1  0  0  0  0
 18 17  1  0  0  0  0
 20 19  1  0  0  0  0
 21 22  1  0  0  0  0
 21 20  1  0  0  0  0
 23 25  1  0  0  0  0
 23 22  1  0  0  0  0
 24 23  2  0  0  0  0
 25 27  1  0  0  0  0
 27 26  1  1  0  0  0
 28 29  1  0  0  0  0
 29 27  1  0  0  0  0
M  END
>  <MODEL>
5

>  <REMARK>
 VINA RESULT:      -8.0      2.124      5.334
  Name = 
  11 active torsions:
  status: ('A' for Active; 'I' for Inactive)
    1  A    between atoms: C_4  and  N_12
    2  A    between atoms: C_4  and  N_13
    3  A    between atoms: C_10  and  C_14
    4  A    between atoms: C_10  and  C_29
    5  A    between atoms: N_12  and  N_20
    6  A    between atoms: N_13  and  C_22
    7  A    between atoms: C_19  and  C_23
    8  A    between atoms: C_19  and  C_29
    9  A    between atoms: N_20  and  C_23
   10  A    between atoms: C_22  and  O_27
   11  A    between atoms: C_28  and  C_29
                            x       y       z     vdW  Elec       q    Type
                         _______ _______ _______ _____ _____    ______ ____

>  <TORSDO>
F 11

$$$$
=
 OpenBabel10222422113D

 29 31  0  0  1  0  0  0  0  0999 V2000
  183.0440  178.3200  141.3940 O   0  0  0  0  0  1  0  0  0  0  0  0
  184.3970  178.0900  141.6600 C   0  0  2  0  0  3  0  0  0  0  0  0
  187.1250  177.9130  145.8970 C   0  0  0  0  0  0  0  0  0  0  0  0
  183.8520  179.0760  145.3040 C   0  0  0  0  0  3  0  0  0  0  0  0
  185.4720  178.8000  147.0960 O   0  0  0  0  0  0  0  0  0  0  0  0
  186.7030  178.3300  147.1420 C   0  0  0  0  0  0  0  0  0  0  0  0
  187.5310  178.2330  148.2590 C   0  0  0  0  0  3  0  0  0  0  0  0
  184.6680  178.3140  143.1170 C   0  0  0  0  0  0  0  0  0  0  0  0
  188.8200  177.6980  148.0710 C   0  0  0  0  0  3  0  0  0  0  0  0
  183.6530  178.8750  143.9260 C   0  0  0  0  0  3  0  0  0  0  0  0
  185.0810  178.7010  145.8400 C   0  0  0  0  0  0  0  0  0  0  0  0
  185.9040  177.9380  143.6860 C   0  0  0  0  0  3  0  0  0  0  0  0
  186.0720  178.1550  145.0520 C   0  0  0  0  0  0  0  0  0  0  0  0
  188.3950  177.3840  145.6780 C   0  0  0  0  0  3  0  0  0  0  0  0
  189.2480  177.2760  146.7920 C   0  0  0  0  0  3  0  0  0  0  0  0
  185.2940  178.9720  140.7730 C   0  0  2  0  0  3  0  0  0  0  0  0
  184.2890  180.2860  138.9800 N   0  0  0  0  0  1  0  0  0  0  0  0
  184.8400  178.9850  139.3180 C   0  0  0  0  0  2  0  0  0  0  0  0
  186.7750  178.5780  140.8700 C   0  0  0  0  0  2  0  0  0  0  0  0
  187.4370  178.3810  139.5090 C   0  0  0  0  0  2  0  0  0  0  0  0
  188.8240  178.8110  139.5550 N   0  0  0  0  0  2  0  0  0  0  0  0
  189.4520  178.3210  138.4000 N   0  0  0  0  0  2  0  0  0  0  0  0
  189.8510  176.9530  138.2560 C   0  0  0  0  0  0  0  0  0  0  0  0
  188.9360  175.9070  137.3740 S   0  0  0  0  0  0  0  0  0  0  0  0
  191.0760  176.5310  138.8750 N   0  0  0  0  0  2  0  0  0  0  0  0
  192.7190  175.1980  137.6310 C   0  0  0  0  0  1  0  0  0  0  0  0
  192.4030  176.5420  138.2640 C   0  0  2  0  0  3  0  0  0  0  0  0
  192.6580  177.3900  140.2930 C   0  0  0  0  0  1  0  0  0  0  0  0
  193.3740  176.8790  139.2100 O   0  0  0  0  0  0  0  0  0  0  0  0
  2  1  1  1  0  0  0
  2  8  1  0  0  0  0
  3  6  1  0  0  0  0
  4 11  1  0  0  0  0
  5  6  1  0  0  0  0
  6  7  2  0  0  0  0
  8 12  2  0  0  0  0
  8 10  1  0  0  0  0
  9  7  1  0  0  0  0
 10  4  2  0  0  0  0
 11  5  1  0  0  0  0
 12 13  1  0  0  0  0
 13 11  2  0  0  0  0
 13  3  1  0  0  0  0
 14  3  2  0  0  0  0
 14 15  1  0  0  0  0
 15  9  2  0  0  0  0
 16 18  1  6  0  0  0
 16 19  1  0  0  0  0
 16  2  1  0  0  0  0
 17 18  1  0  0  0  0
 20 21  1  0  0  0  0
 20 19  1  0  0  0  0
 22 21  1  0  0  0  0
 23 22  1  0  0  0  0
 23 25  1  0  0  0  0
 24 23  2  0  0  0  0
 27 26  1  1  0  0  0
 27 25  1  0  0  0  0
 27 29  1  0  0  0  0
 29 28  1  0  0  0  0
M  END
>  <MODEL>
6

>  <REMARK>
 VINA RESULT:      -7.8      1.688      2.144
  Name = 
  11 active torsions:
  status: ('A' for Active; 'I' for Inactive)
    1  A    between atoms: C_4  and  N_12
    2  A    between atoms: C_4  and  N_13
    3  A    between atoms: C_10  and  C_14
    4  A    between atoms: C_10  and  C_29
    5  A    between atoms: N_12  and  N_20
    6  A    between atoms: N_13  and  C_22
    7  A    between atoms: C_19  and  C_23
    8  A    between atoms: C_19  and  C_29
    9  A    between atoms: N_20  and  C_23
   10  A    between atoms: C_22  and  O_27
   11  A    between atoms: C_28  and  C_29
                            x       y       z     vdW  Elec       q    Type
                         _______ _______ _______ _____ _____    ______ ____

>  <TORSDO>
F 11

$$$$
=
 OpenBabel10222422113D

 29 31  0  0  1  0  0  0  0  0999 V2000
  182.2140  178.0010  140.6550 O   0  0  0  0  0  1  0  0  0  0  0  0
  183.5920  178.0710  140.8810 C   0  0  2  0  0  3  0  0  0  0  0  0
  186.3150  178.1040  145.1250 C   0  0  0  0  0  0  0  0  0  0  0  0
  182.9990  179.1180  144.5000 C   0  0  0  0  0  3  0  0  0  0  0  0
  184.6240  178.9510  146.3000 O   0  0  0  0  0  0  0  0  0  0  0  0
  185.8740  178.5320  146.3600 C   0  0  0  0  0  0  0  0  0  0  0  0
  186.7020  178.4950  147.4800 C   0  0  0  0  0  3  0  0  0  0  0  0
  183.8500  178.3390  142.3330 C   0  0  0  0  0  0  0  0  0  0  0  0
  188.0120  178.0090  147.3060 C   0  0  0  0  0  3  0  0  0  0  0  0
  182.8110  178.8770  143.1270 C   0  0  0  0  0  3  0  0  0  0  0  0
  184.2400  178.8060  145.0470 C   0  0  0  0  0  0  0  0  0  0  0  0
  185.0990  178.0270  142.9130 C   0  0  0  0  0  3  0  0  0  0  0  0
  185.2550  178.2830  144.2730 C   0  0  0  0  0  0  0  0  0  0  0  0
  187.6060  177.6230  144.9210 C   0  0  0  0  0  3  0  0  0  0  0  0
  188.4600  177.5750  146.0380 C   0  0  0  0  0  3  0  0  0  0  0  0
  184.2490  179.1330  139.9820 C   0  0  2  0  0  3  0  0  0  0  0  0
  182.9970  180.9800  138.9950 N   0  0  0  0  0  1  0  0  0  0  0  0
  183.3360  179.5760  138.8430 C   0  0  0  0  0  2  0  0  0  0  0  0
  185.6060  178.6720  139.4330 C   0  0  0  0  0  2  0  0  0  0  0  0
  185.5660  178.3090  137.9510 C   0  0  0  0  0  2  0  0  0  0  0  0
  186.7480  177.5470  137.5850 N   0  0  0  0  0  2  0  0  0  0  0  0
  187.8600  178.3760  137.7940 N   0  0  0  0  0  2  0  0  0  0  0  0
  189.1370  177.8710  138.2050 C   0  0  0  0  0  0  0  0  0  0  0  0
  190.0920  177.0580  137.1410 S   0  0  0  0  0  0  0  0  0  0  0  0
  189.5660  178.1190  139.5530 N   0  0  0  0  0  2  0  0  0  0  0  0
  188.8240  178.0930  141.8920 C   0  0  0  0  0  1  0  0  0  0  0  0
  189.3100  177.2680  140.7120 C   0  0  2  0  0  3  0  0  0  0  0  0
  190.6410  176.7970  142.4180 C   0  0  0  0  0  1  0  0  0  0  0  0
  190.4590  176.5510  141.0570 O   0  0  0  0  0  0  0  0  0  0  0  0
  2  1  1  1  0  0  0
  2  8  1  0  0  0  0
  3  6  1  0  0  0  0
  4 11  1  0  0  0  0
  5  6  1  0  0  0  0
  6  7  2  0  0  0  0
  8 12  2  0  0  0  0
  8 10  1  0  0  0  0
  9  7  1  0  0  0  0
 10  4  2  0  0  0  0
 11  5  1  0  0  0  0
 12 13  1  0  0  0  0
 13 11  2  0  0  0  0
 13  3  1  0  0  0  0
 14  3  2  0  0  0  0
 14 15  1  0  0  0  0
 15  9  2  0  0  0  0
 16 18  1  6  0  0  0
 16  2  1  0  0  0  0
 18 17  1  0  0  0  0
 19 16  1  0  0  0  0
 20 19  1  0  0  0  0
 21 22  1  0  0  0  0
 21 20  1  0  0  0  0
 22 23  1  0  0  0  0
 23 25  1  0  0  0  0
 24 23  2  0  0  0  0
 25 27  1  0  0  0  0
 27 29  1  0  0  0  0
 27 26  1  1  0  0  0
 29 28  1  0  0  0  0
M  END
>  <MODEL>
7

>  <REMARK>
 VINA RESULT:      -7.7      1.292      1.655
  Name = 
  11 active torsions:
  status: ('A' for Active; 'I' for Inactive)
    1  A    between atoms: C_4  and  N_12
    2  A    between atoms: C_4  and  N_13
    3  A    between atoms: C_10  and  C_14
    4  A    between atoms: C_10  and  C_29
    5  A    between atoms: N_12  and  N_20
    6  A    between atoms: N_13  and  C_22
    7  A    between atoms: C_19  and  C_23
    8  A    between atoms: C_19  and  C_29
    9  A    between atoms: N_20  and  C_23
   10  A    between atoms: C_22  and  O_27
   11  A    between atoms: C_28  and  C_29
                            x       y       z     vdW  Elec       q    Type
                         _______ _______ _______ _____ _____    ______ ____

>  <TORSDO>
F 11

$$$$
=
 OpenBabel10222422113D

 29 31  0  0  1  0  0  0  0  0999 V2000
  183.0570  178.5820  141.7860 O   0  0  0  0  0  1  0  0  0  0  0  0
  184.4070  178.2500  141.9290 C   0  0  2  0  0  3  0  0  0  0  0  0
  187.5080  177.8010  145.8810 C   0  0  0  0  0  0  0  0  0  0  0  0
  184.1480  178.8450  145.6880 C   0  0  0  0  0  3  0  0  0  0  0  0
  185.9310  178.4800  147.2990 O   0  0  0  0  0  0  0  0  0  0  0  0
  187.1810  178.0710  147.1930 C   0  0  0  0  0  0  0  0  0  0  0  0
  188.1080  177.9090  148.2210 C   0  0  0  0  0  3  0  0  0  0  0  0
  184.7980  178.3440  143.3730 C   0  0  0  0  0  0  0  0  0  0  0  0
  189.3970  177.4630  147.8710 C   0  0  0  0  0  3  0  0  0  0  0  0
  183.8350  178.7700  144.3180 C   0  0  0  0  0  3  0  0  0  0  0  0
  185.4340  178.4840  146.0770 C   0  0  0  0  0  0  0  0  0  0  0  0
  186.0940  177.9790  143.7950 C   0  0  0  0  0  3  0  0  0  0  0  0
  186.3740  178.0700  145.1570 C   0  0  0  0  0  0  0  0  0  0  0  0
  188.7740  177.3630  145.5030 C   0  0  0  0  0  3  0  0  0  0  0  0
  189.7270  177.1910  146.5240 C   0  0  0  0  0  3  0  0  0  0  0  0
  185.2950  179.1410  141.0420 C   0  0  2  0  0  3  0  0  0  0  0  0
  184.2360  180.2930  139.1700 N   0  0  0  0  0  1  0  0  0  0  0  0
  184.9060  179.0670  139.5700 C   0  0  0  0  0  2  0  0  0  0  0  0
  186.7890  178.8330  141.2180 C   0  0  0  0  0  2  0  0  0  0  0  0
  187.3810  178.0340  140.0600 C   0  0  0  0  0  2  0  0  0  0  0  0
  188.7250  178.5000  139.7610 N   0  0  0  0  0  2  0  0  0  0  0  0
  189.4800  177.3790  139.3830 N   0  0  0  0  0  2  0  0  0  0  0  0
  190.2400  177.3310  138.1690 C   0  0  0  0  0  0  0  0  0  0  0  0
  191.6630  176.5060  138.1100 S   0  0  0  0  0  0  0  0  0  0  0  0
  189.7140  177.9930  137.0090 N   0  0  0  0  0  2  0  0  0  0  0  0
  187.3720  178.3970  136.3970 C   0  0  0  0  0  1  0  0  0  0  0  0
  188.6030  177.5340  136.1790 C   0  0  2  0  0  3  0  0  0  0  0  0
  186.9870  176.1900  136.8760 C   0  0  0  0  0  1  0  0  0  0  0  0
  188.3150  176.1930  136.4450 O   0  0  0  0  0  0  0  0  0  0  0  0
  2  1  1  1  0  0  0
  2  8  1  0  0  0  0
  3  6  1  0  0  0  0
  4 11  1  0  0  0  0
  6  5  1  0  0  0  0
  6  7  2  0  0  0  0
  8 12  2  0  0  0  0
  8 10  1  0  0  0  0
  9  7  1  0  0  0  0
 10  4  2  0  0  0  0
 11  5  1  0  0  0  0
 12 13  1  0  0  0  0
 13  3  1  0  0  0  0
 13 11  2  0  0  0  0
 14  3  2  0  0  0  0
 14 15  1  0  0  0  0
 15  9  2  0  0  0  0
 16 18  1  6  0  0  0
 16 19  1  0  0  0  0
 16  2  1  0  0  0  0
 17 18  1  0  0  0  0
 20 19  1  0  0  0  0
 21 20  1  0  0  0  0
 22 21  1  0  0  0  0
 23 22  1  0  0  0  0
 24 23  2  0  0  0  0
 25 23  1  0  0  0  0
 27 26  1  1  0  0  0
 27 29  1  0  0  0  0
 27 25  1  0  0  0  0
 29 28  1  0  0  0  0
M  END
>  <MODEL>
8

>  <REMARK>
 VINA RESULT:      -7.7      1.863      3.087
  Name = 
  11 active torsions:
  status: ('A' for Active; 'I' for Inactive)
    1  A    between atoms: C_4  and  N_12
    2  A    between atoms: C_4  and  N_13
    3  A    between atoms: C_10  and  C_14
    4  A    between atoms: C_10  and  C_29
    5  A    between atoms: N_12  and  N_20
    6  A    between atoms: N_13  and  C_22
    7  A    between atoms: C_19  and  C_23
    8  A    between atoms: C_19  and  C_29
    9  A    between atoms: N_20  and  C_23
   10  A    between atoms: C_22  and  O_27
   11  A    between atoms: C_28  and  C_29
                            x       y       z     vdW  Elec       q    Type
                         _______ _______ _______ _____ _____    ______ ____

>  <TORSDO>
F 11

$$$$
=
 OpenBabel10222422113D

 29 31  0  0  1  0  0  0  0  0999 V2000
  183.8290  178.9010  146.3510 O   0  0  0  0  0  1  0  0  0  0  0  0
  184.5440  178.2970  145.3130 C   0  0  2  0  0  3  0  0  0  0  0  0
  189.3570  176.9140  144.7150 C   0  0  0  0  0  0  0  0  0  0  0  0
  187.6360  178.1270  147.5400 C   0  0  0  0  0  3  0  0  0  0  0  0
  189.8360  177.3620  146.8420 O   0  0  0  0  0  0  0  0  0  0  0  0
  190.3250  176.9260  145.6970 C   0  0  0  0  0  0  0  0  0  0  0  0
  191.6310  176.5170  145.4350 C   0  0  0  0  0  3  0  0  0  0  0  0
  185.9640  178.0770  145.7430 C   0  0  0  0  0  0  0  0  0  0  0  0
  191.9310  176.0920  144.1270 C   0  0  0  0  0  3  0  0  0  0  0  0
  186.3240  178.3460  147.0840 C   0  0  0  0  0  3  0  0  0  0  0  0
  188.5640  177.6360  146.6260 C   0  0  0  0  0  0  0  0  0  0  0  0
  186.9220  177.5750  144.8370 C   0  0  0  0  0  3  0  0  0  0  0  0
  188.2140  177.3750  145.3180 C   0  0  0  0  0  0  0  0  0  0  0  0
  189.6240  176.5030  143.4110 C   0  0  0  0  0  3  0  0  0  0  0  0
  190.9360  176.0840  143.1240 C   0  0  0  0  0  3  0  0  0  0  0  0
  184.4650  179.1310  144.0230 C   0  0  2  0  0  3  0  0  0  0  0  0
  182.0730  178.7980  143.6760 N   0  0  0  0  0  1  0  0  0  0  0  0
  183.1070  179.8030  143.8480 C   0  0  0  0  0  2  0  0  0  0  0  0
  184.8220  178.3110  142.7750 C   0  0  0  0  0  2  0  0  0  0  0  0
  185.2260  179.1740  141.5820 C   0  0  0  0  0  2  0  0  0  0  0  0
  184.2280  179.0770  140.5290 N   0  0  0  0  0  2  0  0  0  0  0  0
  184.8450  179.4720  139.3330 N   0  0  0  0  0  2  0  0  0  0  0  0
  185.2960  178.5330  138.3480 C   0  0  0  0  0  0  0  0  0  0  0  0
  184.3190  177.3020  137.8620 S   0  0  0  0  0  0  0  0  0  0  0  0
  186.6030  178.7150  137.7820 N   0  0  0  0  0  2  0  0  0  0  0  0
  188.0220  176.7370  137.4660 C   0  0  0  0  0  1  0  0  0  0  0  0
  187.8310  178.0480  138.2090 C   0  0  2  0  0  3  0  0  0  0  0  0
  189.1360  178.0380  139.9980 C   0  0  0  0  0  1  0  0  0  0  0  0
  187.8170  177.8320  139.5890 O   0  0  0  0  0  0  0  0  0  0  0  0
  2  8  1  0  0  0  0
  2  1  1  1  0  0  0
  3 13  1  0  0  0  0
  3  6  1  0  0  0  0
  6  5  1  0  0  0  0
  7  6  2  0  0  0  0
  8 10  2  0  0  0  0
  9  7  1  0  0  0  0
 10  4  1  0  0  0  0
 11  5  1  0  0  0  0
 11  4  2  0  0  0  0
 12 13  2  0  0  0  0
 12  8  1  0  0  0  0
 13 11  1  0  0  0  0
 14  3  2  0  0  0  0
 15 14  1  0  0  0  0
 15  9  2  0  0  0  0
 16 19  1  6  0  0  0
 16  2  1  0  0  0  0
 17 18  1  0  0  0  0
 18 16  1  0  0  0  0
 20 19  1  0  0  0  0
 21 20  1  0  0  0  0
 22 21  1  0  0  0  0
 23 22  1  0  0  0  0
 24 23  2  0  0  0  0
 25 27  1  0  0  0  0
 25 23  1  0  0  0  0
 27 26  1  6  0  0  0
 27 29  1  0  0  0  0
 29 28  1  0  0  0  0
M  END
>  <MODEL>
9

>  <REMARK>
 VINA RESULT:      -7.7      2.426      4.571
  Name = 
  11 active torsions:
  status: ('A' for Active; 'I' for Inactive)
    1  A    between atoms: C_4  and  N_12
    2  A    between atoms: C_4  and  N_13
    3  A    between atoms: C_10  and  C_14
    4  A    between atoms: C_10  and  C_29
    5  A    between atoms: N_12  and  N_20
    6  A    between atoms: N_13  and  C_22
    7  A    between atoms: C_19  and  C_23
    8  A    between atoms: C_19  and  C_29
    9  A    between atoms: N_20  and  C_23
   10  A    between atoms: C_22  and  O_27
   11  A    between atoms: C_28  and  C_29
                            x       y       z     vdW  Elec       q    Type
                         _______ _______ _______ _____ _____    ______ ____

>  <TORSDO>
F 11

$$$$
