=
 OpenBabel10232409373D

 33 37  0  0  1  0  0  0  0  0999 V2000
  184.3130  178.6530  144.1820 N   0  0  0  0  0  2  0  0  0  0  0  0
  187.4170  177.5830  145.7300 C   0  0  0  0  0  3  0  0  0  0  0  0
  186.1400  178.7620  147.4430 C   0  0  0  0  0  3  0  0  0  0  0  0
  185.2550  178.5170  145.2260 C   0  0  0  0  0  0  0  0  0  0  0  0
  184.8530  177.9550  143.0140 C   0  0  2  0  0  3  0  0  0  0  0  0
  185.1040  178.9980  146.5250 C   0  0  0  0  0  3  0  0  0  0  0  0
  186.2750  177.4460  143.4020 C   0  0  2  0  0  3  0  0  0  0  0  0
  187.2920  178.0550  147.0460 C   0  0  0  0  0  3  0  0  0  0  0  0
  186.3740  177.8340  144.8350 C   0  0  0  0  0  0  0  0  0  0  0  0
  182.1720  176.8930  139.9720 C   0  0  0  0  0  3  0  0  0  0  0  0
  184.1030  179.3020  139.4790 C   0  0  0  0  0  3  0  0  0  0  0  0
  181.7600  177.5830  138.7220 C   0  0  0  0  0  2  0  0  0  0  0  0
  183.6680  179.0290  138.2470 C   0  0  0  0  0  3  0  0  0  0  0  0
  183.9860  178.4640  140.6500 N   0  0  0  0  0  0  0  0  0  0  0  0
  185.5450  179.8480  141.7250 O   0  0  0  0  0  0  0  0  0  0  0  0
  183.1390  177.3000  140.7970 C   0  0  0  0  0  3  0  0  0  0  0  0
  184.8050  178.8250  141.7810 C   0  0  0  0  0  0  0  0  0  0  0  0
  182.9740  177.7770  137.8440 C   0  0  2  0  0  3  0  0  0  0  0  0
  182.5760  177.8470  136.4060 C   0  0  0  0  0  0  0  0  0  0  0  0
  181.6070  178.5650  136.0400 O   0  0  0  0  0  1  0  0  0  0  0  0
  183.2870  177.1180  135.4630 O   0  0  0  0  0  0  0  0  0  0  0  0
  187.3250  178.1090  142.6340 N   0  0  0  0  0  2  0  0  0  0  0  0
  188.1960  178.2910  139.9960 N   0  0  0  0  0  0  0  0  0  0  0  0
  188.9310  177.5320  140.9600 C   0  0  0  0  0  0  0  0  0  0  0  0
  190.5570  176.9530  139.3000 N   0  0  0  0  0  0  0  0  0  0  0  0
  188.5550  178.3210  138.7470 C   0  0  0  0  0  3  0  0  0  0  0  0
  190.1910  176.9060  140.5450 C   0  0  0  0  0  0  0  0  0  0  0  0
  189.7210  177.5110  138.2290 C   0  0  0  0  0  2  0  0  0  0  0  0
  190.6860  176.2110  142.7700 C   0  0  0  0  0  0  0  0  0  0  0  0
  188.5390  177.4620  142.2380 C   0  0  0  0  0  0  0  0  0  0  0  0
  191.6140  175.5800  143.7430 C   0  0  0  0  0  1  0  0  0  0  0  0
  189.3210  176.6470  143.2460 C   0  0  0  0  0  2  0  0  0  0  0  0
  191.0430  176.3110  141.5250 N   0  0  0  0  0  0  0  0  0  0  0  0
  1  4  1  0  0  0  0
  2  8  1  0  0  0  0
  4  6  2  0  0  0  0
  5 17  1  6  0  0  0
  5  7  1  0  0  0  0
  5  1  1  0  0  0  0
  6  3  1  0  0  0  0
  7 22  1  6  0  0  0
  7  9  1  0  0  0  0
  8  3  2  0  0  0  0
  9  4  1  0  0  0  0
  9  2  2  0  0  0  0
 10 16  2  0  0  0  0
 11 14  1  0  0  0  0
 12 10  1  0  0  0  0
 13 11  2  0  0  0  0
 14 16  1  0  0  0  0
 14 17  1  0  0  0  0
 15 17  2  0  0  0  0
 18 19  1  6  0  0  0
 18 13  1  0  0  0  0
 18 12  1  0  0  0  0
 20 19  1  0  0  0  0
 21 19  2  0  0  0  0
 23 24  1  0  0  0  0
 24 30  2  0  0  0  0
 25 27  2  0  0  0  0
 26 23  2  0  0  0  0
 27 24  1  0  0  0  0
 27 33  1  0  0  0  0
 28 26  1  0  0  0  0
 28 25  1  0  0  0  0
 29 32  1  0  0  0  0
 29 31  1  0  0  0  0
 30 22  1  0  0  0  0
 30 32  1  0  0  0  0
 33 29  2  0  0  0  0
M  END
>  <MODEL>
1

>  <REMARK>
 VINA RESULT:      -9.0      0.000      0.000
  Name = 
  4 active torsions:
  status: ('A' for Active; 'I' for Inactive)
    1  A    between atoms: C_12  and  C_32
    2  A    between atoms: C_18  and  C_24
    3  A    between atoms: C_23  and  N_30
    4  A    between atoms: C_26  and  N_30
                            x       y       z     vdW  Elec       q    Type
                         _______ _______ _______ _____ _____    ______ ____

>  <TORSDO>
F 4

$$$$
=
 OpenBabel10232409373D

 33 37  0  0  1  0  0  0  0  0999 V2000
  184.9840  178.1860  144.0390 N   0  0  0  0  0  2  0  0  0  0  0  0
  188.4560  177.3430  144.6760 C   0  0  0  0  0  3  0  0  0  0  0  0
  187.4740  177.9680  146.8200 C   0  0  0  0  0  3  0  0  0  0  0  0
  186.1450  178.0060  144.8220 C   0  0  0  0  0  0  0  0  0  0  0  0
  185.3220  177.8110  142.6650 C   0  0  2  0  0  3  0  0  0  0  0  0
  186.2380  178.2070  146.1980 C   0  0  0  0  0  3  0  0  0  0  0  0
  186.8430  177.4660  142.6460 C   0  0  2  0  0  3  0  0  0  0  0  0
  188.5790  177.5360  146.0610 C   0  0  0  0  0  3  0  0  0  0  0  0
  187.2170  177.5910  144.0800 C   0  0  0  0  0  0  0  0  0  0  0  0
  182.2270  176.8950  139.9910 C   0  0  0  0  0  3  0  0  0  0  0  0
  183.6730  179.6520  139.7040 C   0  0  0  0  0  3  0  0  0  0  0  0
  181.4730  177.7270  139.0170 C   0  0  0  0  0  2  0  0  0  0  0  0
  183.0290  179.5470  138.5410 C   0  0  0  0  0  3  0  0  0  0  0  0
  183.9180  178.6000  140.6650 N   0  0  0  0  0  0  0  0  0  0  0  0
  185.4700  180.0040  141.7220 O   0  0  0  0  0  0  0  0  0  0  0  0
  183.2830  177.3000  140.7000 C   0  0  0  0  0  3  0  0  0  0  0  0
  184.9010  178.8770  141.6820 C   0  0  0  0  0  0  0  0  0  0  0  0
  182.4390  178.2920  138.0020 C   0  0  2  0  0  3  0  0  0  0  0  0
  181.7420  178.5640  136.7090 C   0  0  0  0  0  0  0  0  0  0  0  0
  180.9060  179.5030  136.6120 O   0  0  0  0  0  1  0  0  0  0  0  0
  182.0220  177.7760  135.6010 O   0  0  0  0  0  0  0  0  0  0  0  0
  187.6120  178.4160  141.8470 N   0  0  0  0  0  2  0  0  0  0  0  0
  186.9810  178.3050  139.1370 N   0  0  0  0  0  0  0  0  0  0  0  0
  188.2840  177.9430  139.6020 C   0  0  0  0  0  0  0  0  0  0  0  0
  188.9800  177.4750  137.3590 N   0  0  0  0  0  0  0  0  0  0  0  0
  186.6560  178.1870  137.8850 C   0  0  0  0  0  3  0  0  0  0  0  0
  189.3030  177.5750  138.6130 C   0  0  0  0  0  0  0  0  0  0  0  0
  187.6030  177.6020  136.8630 C   0  0  0  0  0  2  0  0  0  0  0  0
  191.0060  177.4530  140.2750 C   0  0  0  0  0  0  0  0  0  0  0  0
  188.6090  178.0210  140.8990 C   0  0  0  0  0  0  0  0  0  0  0  0
  192.4320  177.2600  140.6430 C   0  0  0  0  0  1  0  0  0  0  0  0
  189.9890  177.6250  141.3780 C   0  0  0  0  0  2  0  0  0  0  0  0
  190.6600  177.4010  139.0240 N   0  0  0  0  0  0  0  0  0  0  0  0
  1  4  1  0  0  0  0
  2  8  1  0  0  0  0
  4  6  2  0  0  0  0
  5 17  1  6  0  0  0
  5  1  1  0  0  0  0
  6  3  1  0  0  0  0
  7 22  1  6  0  0  0
  7  5  1  0  0  0  0
  7  9  1  0  0  0  0
  8  3  2  0  0  0  0
  9  2  2  0  0  0  0
  9  4  1  0  0  0  0
 10 16  2  0  0  0  0
 11 14  1  0  0  0  0
 12 10  1  0  0  0  0
 13 11  2  0  0  0  0
 14 16  1  0  0  0  0
 14 17  1  0  0  0  0
 17 15  2  0  0  0  0
 18 19  1  6  0  0  0
 18 13  1  0  0  0  0
 18 12  1  0  0  0  0
 20 19  1  0  0  0  0
 21 19  2  0  0  0  0
 23 24  1  0  0  0  0
 24 30  2  0  0  0  0
 25 27  2  0  0  0  0
 26 23  2  0  0  0  0
 27 33  1  0  0  0  0
 27 24  1  0  0  0  0
 28 25  1  0  0  0  0
 28 26  1  0  0  0  0
 29 31  1  0  0  0  0
 29 32  1  0  0  0  0
 30 32  1  0  0  0  0
 30 22  1  0  0  0  0
 33 29  2  0  0  0  0
M  END
>  <MODEL>
2

>  <REMARK>
 VINA RESULT:      -9.0      1.239      1.603
  Name = 
  4 active torsions:
  status: ('A' for Active; 'I' for Inactive)
    1  A    between atoms: C_12  and  C_32
    2  A    between atoms: C_18  and  C_24
    3  A    between atoms: C_23  and  N_30
    4  A    between atoms: C_26  and  N_30
                            x       y       z     vdW  Elec       q    Type
                         _______ _______ _______ _____ _____    ______ ____

>  <TORSDO>
F 4

$$$$
=
 OpenBabel10232409373D

 33 37  0  0  1  0  0  0  0  0999 V2000
  184.8690  178.1950  144.1040 N   0  0  0  0  0  2  0  0  0  0  0  0
  188.2970  177.3770  144.9710 C   0  0  0  0  0  3  0  0  0  0  0  0
  187.1880  178.0560  147.0340 C   0  0  0  0  0  3  0  0  0  0  0  0
  185.9820  178.0380  144.9590 C   0  0  0  0  0  0  0  0  0  0  0  0
  185.2890  177.7850  142.7630 C   0  0  2  0  0  3  0  0  0  0  0  0
  185.9910  178.2760  146.3330 C   0  0  0  0  0  3  0  0  0  0  0  0
  186.8090  177.4430  142.8450 C   0  0  2  0  0  3  0  0  0  0  0  0
  188.3370  177.6060  146.3550 C   0  0  0  0  0  3  0  0  0  0  0  0
  187.0970  177.6060  144.2950 C   0  0  0  0  0  0  0  0  0  0  0  0
  182.3120  176.8180  139.9760 C   0  0  0  0  0  3  0  0  0  0  0  0
  183.8030  179.5490  139.6730 C   0  0  0  0  0  3  0  0  0  0  0  0
  181.6140  177.6270  138.9430 C   0  0  0  0  0  2  0  0  0  0  0  0
  183.2120  179.4140  138.4840 C   0  0  0  0  0  3  0  0  0  0  0  0
  183.9890  178.5250  140.6760 N   0  0  0  0  0  0  0  0  0  0  0  0
  185.5070  179.9460  141.7610 O   0  0  0  0  0  0  0  0  0  0  0  0
  183.3380  177.2340  140.7210 C   0  0  0  0  0  3  0  0  0  0  0  0
  184.9270  178.8240  141.7290 C   0  0  0  0  0  0  0  0  0  0  0  0
  182.6330  178.1490  137.9570 C   0  0  2  0  0  3  0  0  0  0  0  0
  182.0000  178.3880  136.6260 C   0  0  0  0  0  0  0  0  0  0  0  0
  181.1910  179.3400  136.4570 O   0  0  0  0  0  1  0  0  0  0  0  0
  182.3110  177.5540  135.5600 O   0  0  0  0  0  0  0  0  0  0  0  0
  187.6240  178.3730  142.0680 N   0  0  0  0  0  2  0  0  0  0  0  0
  190.3310  177.7210  142.0780 N   0  0  0  0  0  0  0  0  0  0  0  0
  189.5840  177.7350  140.8580 C   0  0  0  0  0  0  0  0  0  0  0  0
  191.5340  177.0840  139.6300 N   0  0  0  0  0  0  0  0  0  0  0  0
  191.6100  177.4900  142.0820 C   0  0  0  0  0  3  0  0  0  0  0  0
  190.2590  177.3330  139.6190 C   0  0  0  0  0  0  0  0  0  0  0  0
  192.3910  177.2880  140.8050 C   0  0  0  0  0  2  0  0  0  0  0  0
  188.2300  177.4280  138.3740 C   0  0  0  0  0  0  0  0  0  0  0  0
  188.2760  178.0170  140.8450 C   0  0  0  0  0  0  0  0  0  0  0  0
  187.4910  177.2160  137.1020 C   0  0  0  0  0  1  0  0  0  0  0  0
  187.4990  178.0380  139.5450 C   0  0  0  0  0  2  0  0  0  0  0  0
  189.4980  177.1470  138.4250 N   0  0  0  0  0  0  0  0  0  0  0  0
  1  4  1  0  0  0  0
  2  8  1  0  0  0  0
  4  6  2  0  0  0  0
  5 17  1  6  0  0  0
  5  7  1  0  0  0  0
  5  1  1  0  0  0  0
  6  3  1  0  0  0  0
  7 22  1  6  0  0  0
  7  9  1  0  0  0  0
  8  3  2  0  0  0  0
  9  4  1  0  0  0  0
  9  2  2  0  0  0  0
 10 16  2  0  0  0  0
 11 14  1  0  0  0  0
 12 10  1  0  0  0  0
 13 11  2  0  0  0  0
 14 16  1  0  0  0  0
 14 17  1  0  0  0  0
 17 15  2  0  0  0  0
 18 19  1  6  0  0  0
 18 13  1  0  0  0  0
 18 12  1  0  0  0  0
 20 19  1  0  0  0  0
 21 19  2  0  0  0  0
 23 26  2  0  0  0  0
 24 23  1  0  0  0  0
 25 28  1  0  0  0  0
 27 25  2  0  0  0  0
 27 24  1  0  0  0  0
 28 26  1  0  0  0  0
 29 33  2  0  0  0  0
 29 32  1  0  0  0  0
 30 24  2  0  0  0  0
 30 22  1  0  0  0  0
 31 29  1  0  0  0  0
 32 30  1  0  0  0  0
 33 27  1  0  0  0  0
M  END
>  <MODEL>
3

>  <REMARK>
 VINA RESULT:      -8.7      1.106      2.368
  Name = 
  4 active torsions:
  status: ('A' for Active; 'I' for Inactive)
    1  A    between atoms: C_12  and  C_32
    2  A    between atoms: C_18  and  C_24
    3  A    between atoms: C_23  and  N_30
    4  A    between atoms: C_26  and  N_30
                            x       y       z     vdW  Elec       q    Type
                         _______ _______ _______ _____ _____    ______ ____

>  <TORSDO>
F 4

$$$$
=
 OpenBabel10232409373D

 33 37  0  0  1  0  0  0  0  0999 V2000
  182.1570  178.7870  139.5040 N   0  0  0  0  0  2  0  0  0  0  0  0
  182.1800  178.8140  143.1330 C   0  0  0  0  0  3  0  0  0  0  0  0
  180.0870  179.8510  142.4300 C   0  0  0  0  0  3  0  0  0  0  0  0
  181.6560  179.0590  140.7950 C   0  0  0  0  0  0  0  0  0  0  0  0
  183.4360  178.0940  139.6700 C   0  0  2  0  0  3  0  0  0  0  0  0
  180.4350  179.6690  141.0820 C   0  0  0  0  0  3  0  0  0  0  0  0
  183.7320  178.0410  141.2010 C   0  0  2  0  0  3  0  0  0  0  0  0
  180.9570  179.4240  143.4520 C   0  0  0  0  0  3  0  0  0  0  0  0
  182.5050  178.6470  141.7850 C   0  0  0  0  0  0  0  0  0  0  0  0
  185.3510  175.7100  136.8030 C   0  0  0  0  0  3  0  0  0  0  0  0
  186.3860  178.6270  137.2430 C   0  0  0  0  0  3  0  0  0  0  0  0
  186.3300  176.0320  135.7330 C   0  0  0  0  0  2  0  0  0  0  0  0
  187.3880  178.0690  136.5620 C   0  0  0  0  0  3  0  0  0  0  0  0
  185.2960  177.9460  137.9050 N   0  0  0  0  0  0  0  0  0  0  0  0
  184.7890  179.9520  139.0090 O   0  0  0  0  0  0  0  0  0  0  0  0
  184.9120  176.5620  137.7320 C   0  0  0  0  0  3  0  0  0  0  0  0
  184.5210  178.7300  138.8350 C   0  0  0  0  0  0  0  0  0  0  0  0
  187.5760  176.6070  136.3630 C   0  0  2  0  0  3  0  0  0  0  0  0
  188.7670  176.3530  135.4980 C   0  0  0  0  0  0  0  0  0  0  0  0
  189.1470  175.1770  135.2520 O   0  0  0  0  0  1  0  0  0  0  0  0
  189.4590  177.4270  134.9540 O   0  0  0  0  0  0  0  0  0  0  0  0
  184.9010  178.8380  141.5620 N   0  0  0  0  0  2  0  0  0  0  0  0
  187.4900  178.4200  140.6270 N   0  0  0  0  0  0  0  0  0  0  0  0
  187.1520  178.1550  141.9910 C   0  0  0  0  0  0  0  0  0  0  0  0
  189.4040  177.4790  142.4420 N   0  0  0  0  0  0  0  0  0  0  0  0
  188.6760  178.1590  140.1640 C   0  0  0  0  0  3  0  0  0  0  0  0
  188.2140  177.7210  142.9040 C   0  0  0  0  0  0  0  0  0  0  0  0
  189.7400  177.5040  141.0130 C   0  0  0  0  0  2  0  0  0  0  0  0
  186.7660  177.8350  144.7920 C   0  0  0  0  0  0  0  0  0  0  0  0
  185.9180  178.3810  142.4600 C   0  0  0  0  0  0  0  0  0  0  0  0
  186.5550  177.7320  146.2590 C   0  0  0  0  0  1  0  0  0  0  0  0
  185.5710  178.0860  143.9040 C   0  0  0  0  0  2  0  0  0  0  0  0
  187.9540  177.6390  144.3060 N   0  0  0  0  0  0  0  0  0  0  0  0
  1  5  1  0  0  0  0
  1  4  1  0  0  0  0
  2  8  1  0  0  0  0
  3  8  2  0  0  0  0
  4  6  2  0  0  0  0
  4  9  1  0  0  0  0
  5 17  1  6  0  0  0
  5  7  1  0  0  0  0
  6  3  1  0  0  0  0
  7 22  1  6  0  0  0
  7  9  1  0  0  0  0
  9  2  2  0  0  0  0
 10 16  2  0  0  0  0
 11 14  1  0  0  0  0
 12 18  1  0  0  0  0
 12 10  1  0  0  0  0
 13 11  2  0  0  0  0
 14 17  1  0  0  0  0
 16 14  1  0  0  0  0
 17 15  2  0  0  0  0
 18 19  1  6  0  0  0
 18 13  1  0  0  0  0
 20 19  1  0  0  0  0
 21 19  2  0  0  0  0
 22 30  1  0  0  0  0
 23 24  1  0  0  0  0
 24 30  2  0  0  0  0
 24 27  1  0  0  0  0
 25 27  2  0  0  0  0
 26 23  2  0  0  0  0
 26 28  1  0  0  0  0
 27 33  1  0  0  0  0
 28 25  1  0  0  0  0
 29 31  1  0  0  0  0
 30 32  1  0  0  0  0
 32 29  1  0  0  0  0
 33 29  2  0  0  0  0
M  END
>  <MODEL>
4

>  <REMARK>
 VINA RESULT:      -8.7      2.759      4.786
  Name = 
  4 active torsions:
  status: ('A' for Active; 'I' for Inactive)
    1  A    between atoms: C_12  and  C_32
    2  A    between atoms: C_18  and  C_24
    3  A    between atoms: C_23  and  N_30
    4  A    between atoms: C_26  and  N_30
                            x       y       z     vdW  Elec       q    Type
                         _______ _______ _______ _____ _____    ______ ____

>  <TORSDO>
F 4

$$$$
=
 OpenBabel10232409373D

 33 37  0  0  1  0  0  0  0  0999 V2000
  190.6090  177.5570  141.1550 N   0  0  0  0  0  2  0  0  0  0  0  0
  191.3400  176.1310  137.8980 C   0  0  0  0  0  3  0  0  0  0  0  0
  193.4590  176.9140  138.8200 C   0  0  0  0  0  3  0  0  0  0  0  0
  191.4230  177.1800  140.0640 C   0  0  0  0  0  0  0  0  0  0  0  0
  189.2430  177.1310  140.8460 C   0  0  2  0  0  3  0  0  0  0  0  0
  192.8030  177.3620  139.9780 C   0  0  0  0  0  3  0  0  0  0  0  0
  189.2660  176.5300  139.4070 C   0  0  2  0  0  3  0  0  0  0  0  0
  192.7290  176.2990  137.7840 C   0  0  0  0  0  3  0  0  0  0  0  0
  190.7110  176.5880  139.0580 C   0  0  0  0  0  0  0  0  0  0  0  0
  186.9610  177.1170  144.3620 C   0  0  0  0  0  3  0  0  0  0  0  0
  186.3790  179.3170  142.2190 C   0  0  0  0  0  3  0  0  0  0  0  0
  186.0290  178.1140  144.9490 C   0  0  0  0  0  2  0  0  0  0  0  0
  185.2960  179.3840  142.9970 C   0  0  0  0  0  3  0  0  0  0  0  0
  187.3620  178.2590  142.1820 N   0  0  0  0  0  0  0  0  0  0  0  0
  188.1750  179.1630  140.1760 O   0  0  0  0  0  0  0  0  0  0  0  0
  187.5330  177.2060  143.1590 C   0  0  0  0  0  3  0  0  0  0  0  0
  188.2550  178.2540  141.0500 C   0  0  0  0  0  0  0  0  0  0  0  0
  184.8900  178.3490  143.9850 C   0  0  2  0  0  3  0  0  0  0  0  0
  183.6650  178.7890  144.7180 C   0  0  0  0  0  0  0  0  0  0  0  0
  183.7320  179.1600  145.9210 O   0  0  0  0  0  1  0  0  0  0  0  0
  182.4410  178.7940  144.0640 O   0  0  0  0  0  0  0  0  0  0  0  0
  188.4940  177.3350  138.4630 N   0  0  0  0  0  2  0  0  0  0  0  0
  185.8820  178.2980  138.5020 N   0  0  0  0  0  0  0  0  0  0  0  0
  186.2580  177.2350  137.6220 C   0  0  0  0  0  0  0  0  0  0  0  0
  184.0280  177.1280  136.7580 N   0  0  0  0  0  0  0  0  0  0  0  0
  184.6500  178.7040  138.5780 C   0  0  0  0  0  3  0  0  0  0  0  0
  185.2550  176.7070  136.6920 C   0  0  0  0  0  0  0  0  0  0  0  0
  183.5380  178.0400  137.8000 C   0  0  0  0  0  2  0  0  0  0  0  0
  186.8570  175.3180  135.6060 C   0  0  0  0  0  0  0  0  0  0  0  0
  187.5180  176.7840  137.5730 C   0  0  0  0  0  0  0  0  0  0  0  0
  187.2060  174.3620  134.5240 C   0  0  0  0  0  1  0  0  0  0  0  0
  187.9010  175.6510  136.6440 C   0  0  0  0  0  2  0  0  0  0  0  0
  185.6480  175.7880  135.6710 N   0  0  0  0  0  0  0  0  0  0  0  0
  2  9  1  0  0  0  0
  3  6  2  0  0  0  0
  4  1  1  0  0  0  0
  5 17  1  6  0  0  0
  5  1  1  0  0  0  0
  6  4  1  0  0  0  0
  7 22  1  6  0  0  0
  7  5  1  0  0  0  0
  8  2  2  0  0  0  0
  8  3  1  0  0  0  0
  9  7  1  0  0  0  0
  9  4  2  0  0  0  0
 10 12  1  0  0  0  0
 11 13  2  0  0  0  0
 13 18  1  0  0  0  0
 14 11  1  0  0  0  0
 14 16  1  0  0  0  0
 15 17  2  0  0  0  0
 16 10  2  0  0  0  0
 17 14  1  0  0  0  0
 18 19  1  1  0  0  0
 18 12  1  0  0  0  0
 19 20  1  0  0  0  0
 21 19  2  0  0  0  0
 23 26  2  0  0  0  0
 24 23  1  0  0  0  0
 25 28  1  0  0  0  0
 27 25  2  0  0  0  0
 27 24  1  0  0  0  0
 28 26  1  0  0  0  0
 29 33  2  0  0  0  0
 29 32  1  0  0  0  0
 30 24  2  0  0  0  0
 30 22  1  0  0  0  0
 31 29  1  0  0  0  0
 32 30  1  0  0  0  0
 33 27  1  0  0  0  0
M  END
>  <MODEL>
5

>  <REMARK>
 VINA RESULT:      -8.2      2.730      7.049
  Name = 
  4 active torsions:
  status: ('A' for Active; 'I' for Inactive)
    1  A    between atoms: C_12  and  C_32
    2  A    between atoms: C_18  and  C_24
    3  A    between atoms: C_23  and  N_30
    4  A    between atoms: C_26  and  N_30
                            x       y       z     vdW  Elec       q    Type
                         _______ _______ _______ _____ _____    ______ ____

>  <TORSDO>
F 4

$$$$
=
 OpenBabel10232409373D

 33 37  0  0  1  0  0  0  0  0999 V2000
  189.7460  177.4520  139.1030 N   0  0  0  0  0  2  0  0  0  0  0  0
  186.8630  177.8810  136.9390 C   0  0  0  0  0  3  0  0  0  0  0  0
  188.8420  178.0060  135.5170 C   0  0  0  0  0  3  0  0  0  0  0  0
  189.0690  177.6630  137.8820 C   0  0  0  0  0  0  0  0  0  0  0  0
  188.7270  177.2910  140.1430 C   0  0  2  0  0  3  0  0  0  0  0  0
  189.6710  177.8160  136.6340 C   0  0  0  0  0  3  0  0  0  0  0  0
  187.3410  177.5170  139.4650 C   0  0  2  0  0  3  0  0  0  0  0  0
  187.4420  178.0370  135.6700 C   0  0  0  0  0  3  0  0  0  0  0  0
  187.7100  177.6970  138.0350 C   0  0  0  0  0  0  0  0  0  0  0  0
  190.8890  175.6670  143.3460 C   0  0  0  0  0  3  0  0  0  0  0  0
  189.7630  178.5690  143.6310 C   0  0  0  0  0  3  0  0  0  0  0  0
  191.4600  176.2780  144.5740 C   0  0  0  0  0  2  0  0  0  0  0  0
  190.0670  178.2570  144.8930 C   0  0  0  0  0  3  0  0  0  0  0  0
  189.6500  177.6630  142.5110 N   0  0  0  0  0  0  0  0  0  0  0  0
  188.6080  179.3810  141.3020 O   0  0  0  0  0  0  0  0  0  0  0  0
  190.1100  176.2920  142.4610 C   0  0  0  0  0  3  0  0  0  0  0  0
  189.0060  178.1820  141.3300 C   0  0  0  0  0  0  0  0  0  0  0  0
  190.3400  176.8810  145.3890 C   0  0  2  0  0  3  0  0  0  0  0  0
  190.7060  176.9190  146.8360 C   0  0  0  0  0  0  0  0  0  0  0  0
  189.8690  177.2880  147.7040 O   0  0  0  0  0  1  0  0  0  0  0  0
  191.9820  176.5380  147.2310 O   0  0  0  0  0  0  0  0  0  0  0  0
  186.6750  178.7180  139.9620 N   0  0  0  0  0  2  0  0  0  0  0  0
  185.7430  178.6890  142.5860 N   0  0  0  0  0  0  0  0  0  0  0  0
  184.8320  178.7430  141.4840 C   0  0  0  0  0  0  0  0  0  0  0  0
  182.9740  178.7820  142.9940 N   0  0  0  0  0  0  0  0  0  0  0  0
  185.3160  178.6010  143.8100 C   0  0  0  0  0  3  0  0  0  0  0  0
  183.3970  178.8510  141.7680 C   0  0  0  0  0  0  0  0  0  0  0  0
  183.8460  178.4860  144.1380 C   0  0  0  0  0  2  0  0  0  0  0  0
  182.8690  179.1380  139.4620 C   0  0  0  0  0  0  0  0  0  0  0  0
  185.2690  178.7880  140.2190 C   0  0  0  0  0  0  0  0  0  0  0  0
  181.8690  179.4040  138.3960 C   0  0  0  0  0  1  0  0  0  0  0  0
  184.2930  178.8360  139.0630 C   0  0  0  0  0  2  0  0  0  0  0  0
  182.4810  179.1050  140.7020 N   0  0  0  0  0  0  0  0  0  0  0  0
  1  5  1  0  0  0  0
  2  9  1  0  0  0  0
  3  8  1  0  0  0  0
  3  6  2  0  0  0  0
  4  9  2  0  0  0  0
  4  1  1  0  0  0  0
  5 17  1  1  0  0  0
  6  4  1  0  0  0  0
  7 22  1  1  0  0  0
  7  5  1  0  0  0  0
  8  2  2  0  0  0  0
  9  7  1  0  0  0  0
 10 12  1  0  0  0  0
 11 13  2  0  0  0  0
 12 18  1  0  0  0  0
 13 18  1  0  0  0  0
 14 11  1  0  0  0  0
 15 17  2  0  0  0  0
 16 14  1  0  0  0  0
 16 10  2  0  0  0  0
 17 14  1  0  0  0  0
 18 19  1  1  0  0  0
 19 21  2  0  0  0  0
 19 20  1  0  0  0  0
 22 30  1  0  0  0  0
 23 26  2  0  0  0  0
 24 27  1  0  0  0  0
 24 23  1  0  0  0  0
 25 28  1  0  0  0  0
 26 28  1  0  0  0  0
 27 25  2  0  0  0  0
 29 33  2  0  0  0  0
 30 24  2  0  0  0  0
 31 29  1  0  0  0  0
 32 29  1  0  0  0  0
 32 30  1  0  0  0  0
 33 27  1  0  0  0  0
M  END
>  <MODEL>
6

>  <REMARK>
 VINA RESULT:      -8.1      2.788      8.717
  Name = 
  4 active torsions:
  status: ('A' for Active; 'I' for Inactive)
    1  A    between atoms: C_12  and  C_32
    2  A    between atoms: C_18  and  C_24
    3  A    between atoms: C_23  and  N_30
    4  A    between atoms: C_26  and  N_30
                            x       y       z     vdW  Elec       q    Type
                         _______ _______ _______ _____ _____    ______ ____

>  <TORSDO>
F 4

$$$$
=
 OpenBabel10232409373D

 33 37  0  0  1  0  0  0  0  0999 V2000
  189.7040  177.4640  139.0450 N   0  0  0  0  0  2  0  0  0  0  0  0
  186.6210  177.9510  137.1930 C   0  0  0  0  0  3  0  0  0  0  0  0
  188.4420  178.0380  135.5730 C   0  0  0  0  0  3  0  0  0  0  0  0
  188.9080  177.6890  137.9010 C   0  0  0  0  0  0  0  0  0  0  0  0
  188.7970  177.3220  140.1860 C   0  0  2  0  0  3  0  0  0  0  0  0
  189.3800  177.8310  136.5970 C   0  0  0  0  0  3  0  0  0  0  0  0
  187.3520  177.5750  139.6560 C   0  0  2  0  0  3  0  0  0  0  0  0
  187.0670  178.0970  135.8700 C   0  0  0  0  0  3  0  0  0  0  0  0
  187.5730  177.7490  138.1950 C   0  0  0  0  0  0  0  0  0  0  0  0
  190.8580  175.5450  143.3730 C   0  0  0  0  0  3  0  0  0  0  0  0
  190.0860  178.5650  143.6020 C   0  0  0  0  0  3  0  0  0  0  0  0
  191.5350  176.1180  144.5650 C   0  0  0  0  0  2  0  0  0  0  0  0
  190.3910  178.2540  144.8630 C   0  0  0  0  0  3  0  0  0  0  0  0
  189.8330  177.6490  142.5130 N   0  0  0  0  0  0  0  0  0  0  0  0
  188.9570  179.4420  141.2820 O   0  0  0  0  0  0  0  0  0  0  0  0
  190.1290  176.2330  142.4920 C   0  0  0  0  0  3  0  0  0  0  0  0
  189.2150  178.2070  141.3360 C   0  0  0  0  0  0  0  0  0  0  0  0
  190.5200  176.8700  145.3930 C   0  0  2  0  0  3  0  0  0  0  0  0
  190.9340  176.9050  146.8280 C   0  0  0  0  0  0  0  0  0  0  0  0
  192.0900  176.5400  147.1740 O   0  0  0  0  0  0  0  0  0  0  0  0
  190.0370  177.3480  147.7890 O   0  0  0  0  0  1  0  0  0  0  0  0
  186.7650  178.7880  140.2180 N   0  0  0  0  0  2  0  0  0  0  0  0
  184.1510  178.7570  139.2570 N   0  0  0  0  0  0  0  0  0  0  0  0
  184.4160  178.7940  140.6620 C   0  0  0  0  0  0  0  0  0  0  0  0
  182.0670  178.7880  141.1280 N   0  0  0  0  0  0  0  0  0  0  0  0
  182.9370  178.8160  138.7980 C   0  0  0  0  0  3  0  0  0  0  0  0
  183.2810  178.7480  141.5890 C   0  0  0  0  0  0  0  0  0  0  0  0
  181.7450  178.9930  139.7090 C   0  0  0  0  0  2  0  0  0  0  0  0
  184.7150  178.5840  143.4840 C   0  0  0  0  0  0  0  0  0  0  0  0
  185.6680  178.7790  141.1370 C   0  0  0  0  0  0  0  0  0  0  0  0
  184.8960  178.4140  144.9490 C   0  0  0  0  0  1  0  0  0  0  0  0
  185.9330  178.8290  142.6260 C   0  0  0  0  0  2  0  0  0  0  0  0
  183.5140  178.5850  142.9890 N   0  0  0  0  0  0  0  0  0  0  0  0
  1  5  1  0  0  0  0
  2  9  1  0  0  0  0
  3  8  1  0  0  0  0
  3  6  2  0  0  0  0
  4  9  2  0  0  0  0
  4  1  1  0  0  0  0
  5 17  1  1  0  0  0
  6  4  1  0  0  0  0
  7  5  1  0  0  0  0
  7 22  1  1  0  0  0
  8  2  2  0  0  0  0
  9  7  1  0  0  0  0
 10 12  1  0  0  0  0
 11 13  2  0  0  0  0
 12 18  1  0  0  0  0
 13 18  1  0  0  0  0
 14 11  1  0  0  0  0
 15 17  2  0  0  0  0
 16 14  1  0  0  0  0
 16 10  2  0  0  0  0
 17 14  1  0  0  0  0
 18 19  1  1  0  0  0
 19 20  2  0  0  0  0
 19 21  1  0  0  0  0
 22 30  1  0  0  0  0
 23 24  1  0  0  0  0
 24 30  2  0  0  0  0
 24 27  1  0  0  0  0
 25 27  2  0  0  0  0
 26 23  2  0  0  0  0
 26 28  1  0  0  0  0
 27 33  1  0  0  0  0
 28 25  1  0  0  0  0
 29 31  1  0  0  0  0
 30 32  1  0  0  0  0
 32 29  1  0  0  0  0
 33 29  2  0  0  0  0
M  END
>  <MODEL>
7

>  <REMARK>
 VINA RESULT:      -8.1      2.760      8.446
  Name = 
  4 active torsions:
  status: ('A' for Active; 'I' for Inactive)
    1  A    between atoms: C_12  and  C_32
    2  A    between atoms: C_18  and  C_24
    3  A    between atoms: C_23  and  N_30
    4  A    between atoms: C_26  and  N_30
                            x       y       z     vdW  Elec       q    Type
                         _______ _______ _______ _____ _____    ______ ____

>  <TORSDO>
F 4

$$$$
=
 OpenBabel10232409373D

 33 37  0  0  1  0  0  0  0  0999 V2000
  182.2410  178.6520  139.5730 N   0  0  0  0  0  2  0  0  0  0  0  0
  182.4520  178.8360  143.1920 C   0  0  0  0  0  3  0  0  0  0  0  0
  180.2700  179.7270  142.5640 C   0  0  0  0  0  3  0  0  0  0  0  0
  181.7930  178.9520  140.8780 C   0  0  0  0  0  0  0  0  0  0  0  0
  183.5640  178.0370  139.6970 C   0  0  2  0  0  3  0  0  0  0  0  0
  180.5570  179.5060  141.2070 C   0  0  0  0  0  3  0  0  0  0  0  0
  183.9420  178.0660  141.2100 C   0  0  2  0  0  3  0  0  0  0  0  0
  181.2150  179.3910  143.5530 C   0  0  0  0  0  3  0  0  0  0  0  0
  182.7150  178.6290  141.8360 C   0  0  0  0  0  0  0  0  0  0  0  0
  185.3890  175.6600  136.7670 C   0  0  0  0  0  3  0  0  0  0  0  0
  186.3280  178.6260  137.0730 C   0  0  0  0  0  3  0  0  0  0  0  0
  186.2830  175.9930  135.6280 C   0  0  0  0  0  2  0  0  0  0  0  0
  187.3070  178.0920  136.3400 C   0  0  0  0  0  3  0  0  0  0  0  0
  185.3110  177.9190  137.8190 N   0  0  0  0  0  0  0  0  0  0  0  0
  184.7940  179.9310  138.9080 O   0  0  0  0  0  0  0  0  0  0  0  0
  184.9750  176.5170  137.7020 C   0  0  0  0  0  3  0  0  0  0  0  0
  184.5660  178.6940  138.7790 C   0  0  0  0  0  0  0  0  0  0  0  0
  187.5420  176.6340  136.1630 C   0  0  2  0  0  3  0  0  0  0  0  0
  188.6850  176.4060  135.2280 C   0  0  0  0  0  0  0  0  0  0  0  0
  188.6960  175.4110  134.4540 O   0  0  0  0  0  0  0  0  0  0  0  0
  189.7430  177.3050  135.2080 O   0  0  0  0  0  1  0  0  0  0  0  0
  185.0810  178.9390  141.4750 N   0  0  0  0  0  2  0  0  0  0  0  0
  185.7200  178.1800  144.0770 N   0  0  0  0  0  0  0  0  0  0  0  0
  186.6970  178.1190  143.0340 C   0  0  0  0  0  0  0  0  0  0  0  0
  188.3260  177.2850  144.5780 N   0  0  0  0  0  0  0  0  0  0  0  0
  186.0290  177.8980  145.3070 C   0  0  0  0  0  3  0  0  0  0  0  0
  188.0260  177.5850  143.3500 C   0  0  0  0  0  0  0  0  0  0  0  0
  187.4420  177.5550  145.7190 C   0  0  0  0  0  2  0  0  0  0  0  0
  188.7000  177.6540  141.0660 C   0  0  0  0  0  0  0  0  0  0  0  0
  186.3930  178.4530  141.7730 C   0  0  0  0  0  0  0  0  0  0  0  0
  189.7070  177.3640  140.0140 C   0  0  0  0  0  1  0  0  0  0  0  0
  187.4400  178.3930  140.6810 C   0  0  0  0  0  2  0  0  0  0  0  0
  188.9560  177.3270  142.2970 N   0  0  0  0  0  0  0  0  0  0  0  0
  1  5  1  0  0  0  0
  1  4  1  0  0  0  0
  2  8  1  0  0  0  0
  3  8  2  0  0  0  0
  4  6  2  0  0  0  0
  4  9  1  0  0  0  0
  5 17  1  6  0  0  0
  5  7  1  0  0  0  0
  6  3  1  0  0  0  0
  7 22  1  6  0  0  0
  7  9  1  0  0  0  0
  9  2  2  0  0  0  0
 10 16  2  0  0  0  0
 11 14  1  0  0  0  0
 12 18  1  0  0  0  0
 12 10  1  0  0  0  0
 13 11  2  0  0  0  0
 14 17  1  0  0  0  0
 16 14  1  0  0  0  0
 17 15  2  0  0  0  0
 18 19  1  6  0  0  0
 18 13  1  0  0  0  0
 20 19  2  0  0  0  0
 21 19  1  0  0  0  0
 22 30  1  0  0  0  0
 23 26  2  0  0  0  0
 24 27  1  0  0  0  0
 24 23  1  0  0  0  0
 25 28  1  0  0  0  0
 26 28  1  0  0  0  0
 27 25  2  0  0  0  0
 29 33  2  0  0  0  0
 30 24  2  0  0  0  0
 31 29  1  0  0  0  0
 32 29  1  0  0  0  0
 32 30  1  0  0  0  0
 33 27  1  0  0  0  0
M  END
>  <MODEL>
8

>  <REMARK>
 VINA RESULT:      -8.0      2.772      5.048
  Name = 
  4 active torsions:
  status: ('A' for Active; 'I' for Inactive)
    1  A    between atoms: C_12  and  C_32
    2  A    between atoms: C_18  and  C_24
    3  A    between atoms: C_23  and  N_30
    4  A    between atoms: C_26  and  N_30
                            x       y       z     vdW  Elec       q    Type
                         _______ _______ _______ _____ _____    ______ ____

>  <TORSDO>
F 4

$$$$
=
 OpenBabel10232409373D

 33 37  0  0  1  0  0  0  0  0999 V2000
  191.3400  177.2040  142.7910 N   0  0  0  0  0  2  0  0  0  0  0  0
  189.0220  178.0380  145.4560 C   0  0  0  0  0  3  0  0  0  0  0  0
  191.0090  177.0980  146.5140 C   0  0  0  0  0  3  0  0  0  0  0  0
  190.8900  177.3030  144.1250 C   0  0  0  0  0  0  0  0  0  0  0  0
  190.2970  177.7740  141.9350 C   0  0  2  0  0  3  0  0  0  0  0  0
  191.6070  176.9160  145.2560 C   0  0  0  0  0  3  0  0  0  0  0  0
  189.1030  178.1560  142.8640 C   0  0  2  0  0  3  0  0  0  0  0  0
  189.7210  177.6590  146.6130 C   0  0  0  0  0  3  0  0  0  0  0  0
  189.6370  177.8440  144.2170 C   0  0  0  0  0  0  0  0  0  0  0  0
  188.9820  179.4820  138.3410 C   0  0  0  0  0  3  0  0  0  0  0  0
  188.9770  176.3660  138.5960 C   0  0  0  0  0  3  0  0  0  0  0  0
  188.7020  178.8970  137.0040 C   0  0  0  0  0  2  0  0  0  0  0  0
  188.2070  176.5650  137.5250 C   0  0  0  0  0  3  0  0  0  0  0  0
  189.3870  177.3510  139.5720 N   0  0  0  0  0  0  0  0  0  0  0  0
  190.0880  175.5980  140.9630 O   0  0  0  0  0  0  0  0  0  0  0  0
  189.2840  178.7890  139.4410 C   0  0  0  0  0  3  0  0  0  0  0  0
  189.9460  176.8430  140.8000 C   0  0  0  0  0  0  0  0  0  0  0  0
  187.6050  177.8690  137.1370 C   0  0  2  0  0  3  0  0  0  0  0  0
  186.8580  177.7280  135.8510 C   0  0  0  0  0  0  0  0  0  0  0  0
  187.4200  177.9750  134.7490 O   0  0  0  0  0  0  0  0  0  0  0  0
  185.5330  177.3170  135.8690 O   0  0  0  0  0  1  0  0  0  0  0  0
  187.9180  177.3460  142.5970 N   0  0  0  0  0  2  0  0  0  0  0  0
  186.1270  178.0940  144.5930 N   0  0  0  0  0  0  0  0  0  0  0  0
  185.7840  178.2300  143.2110 C   0  0  0  0  0  0  0  0  0  0  0  0
  183.6450  179.1280  143.8060 N   0  0  0  0  0  0  0  0  0  0  0  0
  185.2710  178.3730  145.5300 C   0  0  0  0  0  3  0  0  0  0  0  0
  184.4930  178.8340  142.8660 C   0  0  0  0  0  0  0  0  0  0  0  0
  183.8520  178.7880  145.2200 C   0  0  0  0  0  2  0  0  0  0  0  0
  185.0120  178.8430  140.5410 C   0  0  0  0  0  0  0  0  0  0  0  0
  186.6480  177.9010  142.2430 C   0  0  0  0  0  0  0  0  0  0  0  0
  184.6570  179.2080  139.1460 C   0  0  0  0  0  1  0  0  0  0  0  0
  186.2680  178.0400  140.7840 C   0  0  0  0  0  2  0  0  0  0  0  0
  184.2040  179.1630  141.5070 N   0  0  0  0  0  0  0  0  0  0  0  0
  1  4  1  0  0  0  0
  2  8  1  0  0  0  0
  3  8  2  0  0  0  0
  4  9  1  0  0  0  0
  4  6  2  0  0  0  0
  5 17  1  6  0  0  0
  5  1  1  0  0  0  0
  5  7  1  0  0  0  0
  6  3  1  0  0  0  0
  7 22  1  6  0  0  0
  7  9  1  0  0  0  0
  9  2  2  0  0  0  0
 10 16  2  0  0  0  0
 11 14  1  0  0  0  0
 12 18  1  0  0  0  0
 12 10  1  0  0  0  0
 13 11  2  0  0  0  0
 14 17  1  0  0  0  0
 16 14  1  0  0  0  0
 17 15  2  0  0  0  0
 18 19  1  6  0  0  0
 18 13  1  0  0  0  0
 19 21  1  0  0  0  0
 20 19  2  0  0  0  0
 23 26  2  0  0  0  0
 24 23  1  0  0  0  0
 25 28  1  0  0  0  0
 27 24  1  0  0  0  0
 27 25  2  0  0  0  0
 28 26  1  0  0  0  0
 29 32  1  0  0  0  0
 29 33  2  0  0  0  0
 30 22  1  0  0  0  0
 30 24  2  0  0  0  0
 31 29  1  0  0  0  0
 32 30  1  0  0  0  0
 33 27  1  0  0  0  0
M  END
>  <MODEL>
9

>  <REMARK>
 VINA RESULT:      -7.8      2.187      5.822
  Name = 
  4 active torsions:
  status: ('A' for Active; 'I' for Inactive)
    1  A    between atoms: C_12  and  C_32
    2  A    between atoms: C_18  and  C_24
    3  A    between atoms: C_23  and  N_30
    4  A    between atoms: C_26  and  N_30
                            x       y       z     vdW  Elec       q    Type
                         _______ _______ _______ _____ _____    ______ ____

>  <TORSDO>
F 4

$$$$
