=
 OpenBabel10232411213D

 37 39  0  0  1  0  0  0  0  0999 V2000
  187.5080  178.4730  141.7100 N   0  0  0  0  0  0  0  0  0  0  0  0
  190.8330  177.4060  140.9340 O   0  0  0  0  0  0  0  0  0  0  0  0
  187.3090  177.8030  142.8140 C   0  0  0  0  0  0  0  0  0  0  0  0
  188.2130  176.7440  143.1780 N   0  0  0  0  0  0  0  0  0  0  0  0
  188.5560  178.1520  140.7350 C   0  0  1  0  0  3  0  0  0  0  0  0
  189.6600  177.3710  141.3900 C   0  0  0  0  0  0  0  0  0  0  0  0
  189.3270  176.5300  142.5400 C   0  0  0  0  0  0  0  0  0  0  0  0
  183.8500  178.7650  145.1830 C   0  0  0  0  0  3  0  0  0  0  0  0
  185.0660  178.5370  145.8260 C   0  0  0  0  0  3  0  0  0  0  0  0
  187.7010  178.0230  146.0110 Cl  0  0  0  0  0  0  0  0  0  0  0  0
  182.2530  178.9840  142.9820 Cl  0  0  0  0  0  0  0  0  0  0  0  0
  186.1490  178.1420  143.6760 C   0  0  0  0  0  0  0  0  0  0  0  0
  183.7750  178.6930  143.7940 C   0  0  0  0  0  0  0  0  0  0  0  0
  186.2160  178.2280  145.0920 C   0  0  0  0  0  0  0  0  0  0  0  0
  184.9140  178.3840  143.0490 C   0  0  0  0  0  3  0  0  0  0  0  0
  190.2040  175.5200  142.9410 O   0  0  0  0  0  0  0  0  0  0  0  0
  191.4320  175.8000  143.6000 C   0  0  0  0  0  2  0  0  0  0  0  0
  191.1700  176.6600  144.8190 C   0  0  2  0  0  3  0  0  0  0  0  0
  191.5880  177.9680  144.5700 O   0  0  0  0  0  1  0  0  0  0  0  0
  191.9270  176.0910  146.0060 C   0  0  0  0  0  2  0  0  0  0  0  0
  190.1440  176.6610  147.4730 O   0  0  0  0  0  0  0  0  0  0  0  0
  191.3880  176.6410  147.2860 C   0  0  0  0  0  0  0  0  0  0  0  0
  193.1120  176.2940  148.8880 O   0  0  0  0  0  1  0  0  0  0  0  0
  192.2410  177.1130  148.2830 O   0  0  0  0  0  0  0  0  0  0  0  0
  187.9310  177.3380  139.6050 C   0  0  0  0  0  2  0  0  0  0  0  0
  188.7020  179.2440  138.3630 O   0  0  0  0  0  1  0  0  0  0  0  0
  188.2140  177.9420  138.2320 C   0  0  2  0  0  3  0  0  0  0  0  0
  187.3130  178.3470  135.9070 C   0  0  0  0  0  1  0  0  0  0  0  0
  186.9800  177.9030  137.3230 C   0  0  2  0  0  3  0  0  0  0  0  0
  185.9760  178.7290  137.8450 O   0  0  0  0  0  0  0  0  0  0  0  0
  184.9490  177.8780  138.2700 C   0  0  1  0  0  3  0  0  0  0  0  0
  182.6170  180.1980  138.5280 O   0  0  0  0  0  0  0  0  0  0  0  0
  184.2640  178.4810  139.4950 C   0  0  1  0  0  3  0  0  0  0  0  0
  184.8900  179.6660  139.8890 N   0  0  0  0  0  2  0  0  0  0  0  0
  183.5770  179.6230  139.1030 C   0  0  0  0  0  0  0  0  0  0  0  0
  183.0980  176.8370  137.2170 O   0  0  0  0  0  0  0  0  0  0  0  0
  183.9770  177.6810  137.1440 C   0  0  0  0  0  3  0  0  0  0  0  0
  1  3  2  0  0  0  0
  2  6  2  0  0  0  0
  3  4  1  0  0  0  0
  3 12  1  0  0  0  0
  5 25  1  6  0  0  0
  5  6  1  0  0  0  0
  5  1  1  0  0  0  0
  6  7  1  0  0  0  0
  7 16  1  0  0  0  0
  7  4  2  0  0  0  0
  8  9  1  0  0  0  0
 11 13  1  0  0  0  0
 12 14  1  0  0  0  0
 13  8  2  0  0  0  0
 14  9  2  0  0  0  0
 14 10  1  0  0  0  0
 15 12  2  0  0  0  0
 15 13  1  0  0  0  0
 16 17  1  0  0  0  0
 17 18  1  0  0  0  0
 18 19  1  6  0  0  0
 18 20  1  0  0  0  0
 20 22  1  0  0  0  0
 22 21  2  0  0  0  0
 22 24  1  0  0  0  0
 24 23  1  0  0  0  0
 27 26  1  1  0  0  0
 27 25  1  0  0  0  0
 29 28  1  6  0  0  0
 29 30  1  0  0  0  0
 29 27  1  0  0  0  0
 30 31  1  0  0  0  0
 31 37  1  6  0  0  0
 32 35  2  0  0  0  0
 33 31  1  6  0  0  0
 33 34  1  0  0  0  0
 35 33  1  0  0  0  0
 35 34  1  0  0  0  0
 37 36  2  0  0  0  0
M  END
>  <MODEL>
1

>  <REMARK>
 VINA RESULT:      -8.5      0.000      0.000
  Name = 
  14 active torsions:
  status: ('A' for Active; 'I' for Inactive)
    1  A    between atoms: C_7  and  C_10
    2  A    between atoms: C_7  and  O_25
    3  A    between atoms: C_8  and  C_29
    4  A    between atoms: C_8  and  C_31
    5  A    between atoms: C_9  and  C_12
    6  A    between atoms: C_10  and  C_32
    7  A    between atoms: C_12  and  CA_17
    8  A    between atoms: C_12  and  O_20
    9  A    between atoms: C_14  and  C_24
   10  A    between atoms: C_19  and  C_29
   11  A    between atoms: O_20  and  C_31
   12  A    between atoms: C_22  and  C_32
   13  A    between atoms: C_22  and  O_33
   14  A    between atoms: O_25  and  C_27
                            x       y       z     vdW  Elec       q    Type
                         _______ _______ _______ _____ _____    ______ ____

>  <TORSDO>
F 14

$$$$
=
 OpenBabel10232411213D

 37 39  0  0  1  0  0  0  0  0999 V2000
  187.6520  178.5020  141.5660 N   0  0  0  0  0  0  0  0  0  0  0  0
  190.9990  177.4320  140.8970 O   0  0  0  0  0  0  0  0  0  0  0  0
  187.4040  177.8040  142.6430 C   0  0  0  0  0  0  0  0  0  0  0  0
  188.2860  176.7290  143.0150 N   0  0  0  0  0  0  0  0  0  0  0  0
  188.7370  178.2000  140.6260 C   0  0  1  0  0  3  0  0  0  0  0  0
  189.8090  177.3940  141.3050 C   0  0  0  0  0  0  0  0  0  0  0  0
  189.4240  176.5250  142.4180 C   0  0  0  0  0  0  0  0  0  0  0  0
  184.0470  178.7660  145.1540 C   0  0  0  0  0  3  0  0  0  0  0  0
  183.8550  178.6760  143.7760 C   0  0  0  0  0  3  0  0  0  0  0  0
  184.5380  178.2150  141.2150 Cl  0  0  0  0  0  0  0  0  0  0  0  0
  185.5530  178.6370  147.4260 Cl  0  0  0  0  0  0  0  0  0  0  0  0
  186.2120  178.1280  143.4660 C   0  0  0  0  0  0  0  0  0  0  0  0
  185.3090  178.5310  145.6960 C   0  0  0  0  0  0  0  0  0  0  0  0
  184.9190  178.3590  142.9250 C   0  0  0  0  0  0  0  0  0  0  0  0
  186.3800  178.2160  144.8590 C   0  0  0  0  0  3  0  0  0  0  0  0
  190.2780  175.4980  142.8260 O   0  0  0  0  0  0  0  0  0  0  0  0
  191.4770  175.7520  143.5450 C   0  0  0  0  0  2  0  0  0  0  0  0
  191.1780  176.6350  144.7380 C   0  0  2  0  0  3  0  0  0  0  0  0
  191.6650  177.9220  144.5040 O   0  0  0  0  0  1  0  0  0  0  0  0
  191.8370  176.0500  145.9750 C   0  0  0  0  0  2  0  0  0  0  0  0
  192.0260  177.0800  148.1100 O   0  0  0  0  0  0  0  0  0  0  0  0
  191.2560  176.6480  147.2140 C   0  0  0  0  0  0  0  0  0  0  0  0
  189.2580  177.9370  147.2900 O   0  0  0  0  0  1  0  0  0  0  0  0
  189.8760  176.7520  147.3840 O   0  0  0  0  0  0  0  0  0  0  0  0
  188.1540  177.4200  139.4510 C   0  0  0  0  0  2  0  0  0  0  0  0
  189.0180  179.2910  138.2180 O   0  0  0  0  0  1  0  0  0  0  0  0
  188.6420  177.9510  138.1060 C   0  0  2  0  0  3  0  0  0  0  0  0
  186.2060  178.1640  137.4700 C   0  0  0  0  0  1  0  0  0  0  0  0
  187.5960  177.7610  137.0010 C   0  0  2  0  0  3  0  0  0  0  0  0
  187.5760  176.4230  136.5870 O   0  0  0  0  0  0  0  0  0  0  0  0
  188.8990  176.0850  136.2830 C   0  0  1  0  0  3  0  0  0  0  0  0
  191.2810  174.6790  138.0800 O   0  0  0  0  0  0  0  0  0  0  0  0
  189.1480  174.6240  136.6510 C   0  0  1  0  0  3  0  0  0  0  0  0
  190.0490  174.0290  135.7650 N   0  0  0  0  0  2  0  0  0  0  0  0
  190.4330  174.5100  137.1670 C   0  0  0  0  0  0  0  0  0  0  0  0
  189.9890  177.1340  134.4580 O   0  0  0  0  0  0  0  0  0  0  0  0
  189.1460  176.3310  134.8240 C   0  0  0  0  0  3  0  0  0  0  0  0
  1  3  2  0  0  0  0
  2  6  2  0  0  0  0
  3  4  1  0  0  0  0
  3 12  1  0  0  0  0
  5 25  1  6  0  0  0
  5  6  1  0  0  0  0
  5  1  1  0  0  0  0
  6  7  1  0  0  0  0
  7 16  1  0  0  0  0
  7  4  2  0  0  0  0
  8 13  1  0  0  0  0
  9  8  2  0  0  0  0
 10 14  1  0  0  0  0
 12 15  1  0  0  0  0
 13 11  1  0  0  0  0
 14 12  2  0  0  0  0
 14  9  1  0  0  0  0
 15 13  2  0  0  0  0
 16 17  1  0  0  0  0
 17 18  1  0  0  0  0
 18 19  1  6  0  0  0
 18 20  1  0  0  0  0
 20 22  1  0  0  0  0
 22 24  1  0  0  0  0
 22 21  2  0  0  0  0
 23 24  1  0  0  0  0
 27 26  1  1  0  0  0
 27 25  1  0  0  0  0
 29 28  1  1  0  0  0
 29 27  1  0  0  0  0
 30 29  1  0  0  0  0
 31 37  1  6  0  0  0
 31 30  1  0  0  0  0
 33 31  1  6  0  0  0
 33 35  1  0  0  0  0
 34 33  1  0  0  0  0
 34 35  1  0  0  0  0
 35 32  2  0  0  0  0
 36 37  2  0  0  0  0
M  END
>  <MODEL>
2

>  <REMARK>
 VINA RESULT:      -8.3      2.190      3.853
  Name = 
  14 active torsions:
  status: ('A' for Active; 'I' for Inactive)
    1  A    between atoms: C_7  and  C_10
    2  A    between atoms: C_7  and  O_25
    3  A    between atoms: C_8  and  C_29
    4  A    between atoms: C_8  and  C_31
    5  A    between atoms: C_9  and  C_12
    6  A    between atoms: C_10  and  C_32
    7  A    between atoms: C_12  and  CA_17
    8  A    between atoms: C_12  and  O_20
    9  A    between atoms: C_14  and  C_24
   10  A    between atoms: C_19  and  C_29
   11  A    between atoms: O_20  and  C_31
   12  A    between atoms: C_22  and  C_32
   13  A    between atoms: C_22  and  O_33
   14  A    between atoms: O_25  and  C_27
                            x       y       z     vdW  Elec       q    Type
                         _______ _______ _______ _____ _____    ______ ____

>  <TORSDO>
F 14

$$$$
=
 OpenBabel10232411213D

 37 39  0  0  1  0  0  0  0  0999 V2000
  187.7280  178.5350  141.4260 N   0  0  0  0  0  0  0  0  0  0  0  0
  191.1040  177.4430  140.9670 O   0  0  0  0  0  0  0  0  0  0  0  0
  187.4080  177.8340  142.4820 C   0  0  0  0  0  0  0  0  0  0  0  0
  188.2570  176.7520  142.9050 N   0  0  0  0  0  0  0  0  0  0  0  0
  188.8690  178.2280  140.5560 C   0  0  1  0  0  3  0  0  0  0  0  0
  189.8890  177.4110  141.2970 C   0  0  0  0  0  0  0  0  0  0  0  0
  189.4280  176.5410  142.3800 C   0  0  0  0  0  0  0  0  0  0  0  0
  183.9030  178.8010  144.7810 C   0  0  0  0  0  3  0  0  0  0  0  0
  183.8180  178.7990  143.3900 C   0  0  0  0  0  3  0  0  0  0  0  0
  184.6830  178.4530  140.8650 Cl  0  0  0  0  0  0  0  0  0  0  0  0
  185.2180  178.4770  147.1500 Cl  0  0  0  0  0  0  0  0  0  0  0  0
  186.1680  178.1640  143.2290 C   0  0  0  0  0  0  0  0  0  0  0  0
  185.1080  178.4800  145.4040 C   0  0  0  0  0  0  0  0  0  0  0  0
  184.9330  178.4830  142.6050 C   0  0  0  0  0  0  0  0  0  0  0  0
  186.2280  178.1650  144.6340 C   0  0  0  0  0  3  0  0  0  0  0  0
  190.2480  175.5070  142.8380 O   0  0  0  0  0  0  0  0  0  0  0  0
  191.4620  175.7530  143.5330 C   0  0  0  0  0  2  0  0  0  0  0  0
  191.1940  176.6570  144.7180 C   0  0  2  0  0  3  0  0  0  0  0  0
  191.6990  177.9330  144.4600 O   0  0  0  0  0  1  0  0  0  0  0  0
  191.8620  176.0760  145.9530 C   0  0  0  0  0  2  0  0  0  0  0  0
  191.9960  177.0310  148.1270 O   0  0  0  0  0  0  0  0  0  0  0  0
  191.2490  176.6350  147.1950 C   0  0  0  0  0  0  0  0  0  0  0  0
  189.2520  177.9270  147.2040 O   0  0  0  0  0  1  0  0  0  0  0  0
  189.8660  176.7430  147.3290 O   0  0  0  0  0  0  0  0  0  0  0  0
  188.3550  177.4570  139.3420 C   0  0  0  0  0  2  0  0  0  0  0  0
  186.9950  178.6440  137.7580 O   0  0  0  0  0  1  0  0  0  0  0  0
  188.3140  178.3200  138.0850 C   0  0  2  0  0  3  0  0  0  0  0  0
  188.2830  177.8790  135.5980 C   0  0  0  0  0  1  0  0  0  0  0  0
  189.0270  177.6500  136.9050 C   0  0  2  0  0  3  0  0  0  0  0  0
  189.1440  176.2740  137.1360 O   0  0  0  0  0  0  0  0  0  0  0  0
  190.4500  175.9240  136.7760 C   0  0  1  0  0  3  0  0  0  0  0  0
  193.4970  176.8400  137.6480 O   0  0  0  0  0  0  0  0  0  0  0  0
  191.2640  175.6310  138.0340 C   0  0  1  0  0  3  0  0  0  0  0  0
  192.1050  174.5330  137.8450 N   0  0  0  0  0  2  0  0  0  0  0  0
  192.5870  175.9850  137.7990 C   0  0  0  0  0  0  0  0  0  0  0  0
  189.6830  174.7250  134.8800 O   0  0  0  0  0  0  0  0  0  0  0  0
  190.4060  174.7330  135.8650 C   0  0  0  0  0  3  0  0  0  0  0  0
  1  3  2  0  0  0  0
  2  6  2  0  0  0  0
  3  4  1  0  0  0  0
  3 12  1  0  0  0  0
  5 25  1  6  0  0  0
  5  6  1  0  0  0  0
  5  1  1  0  0  0  0
  6  7  1  0  0  0  0
  7 16  1  0  0  0  0
  7  4  2  0  0  0  0
  8 13  1  0  0  0  0
  9  8  2  0  0  0  0
 10 14  1  0  0  0  0
 12 15  1  0  0  0  0
 13 11  1  0  0  0  0
 14 12  2  0  0  0  0
 14  9  1  0  0  0  0
 15 13  2  0  0  0  0
 16 17  1  0  0  0  0
 17 18  1  0  0  0  0
 18 19  1  6  0  0  0
 18 20  1  0  0  0  0
 20 22  1  0  0  0  0
 22 24  1  0  0  0  0
 22 21  2  0  0  0  0
 23 24  1  0  0  0  0
 27 26  1  6  0  0  0
 27 25  1  0  0  0  0
 29 28  1  6  0  0  0
 29 30  1  0  0  0  0
 29 27  1  0  0  0  0
 31 37  1  6  0  0  0
 31 30  1  0  0  0  0
 32 35  2  0  0  0  0
 33 31  1  6  0  0  0
 34 33  1  0  0  0  0
 35 34  1  0  0  0  0
 35 33  1  0  0  0  0
 36 37  2  0  0  0  0
M  END
>  <MODEL>
3

>  <REMARK>
 VINA RESULT:      -8.3      2.374      4.206
  Name = 
  14 active torsions:
  status: ('A' for Active; 'I' for Inactive)
    1  A    between atoms: C_7  and  C_10
    2  A    between atoms: C_7  and  O_25
    3  A    between atoms: C_8  and  C_29
    4  A    between atoms: C_8  and  C_31
    5  A    between atoms: C_9  and  C_12
    6  A    between atoms: C_10  and  C_32
    7  A    between atoms: C_12  and  CA_17
    8  A    between atoms: C_12  and  O_20
    9  A    between atoms: C_14  and  C_24
   10  A    between atoms: C_19  and  C_29
   11  A    between atoms: O_20  and  C_31
   12  A    between atoms: C_22  and  C_32
   13  A    between atoms: C_22  and  O_33
   14  A    between atoms: O_25  and  C_27
                            x       y       z     vdW  Elec       q    Type
                         _______ _______ _______ _____ _____    ______ ____

>  <TORSDO>
F 14

$$$$
=
 OpenBabel10232411213D

 37 39  0  0  1  0  0  0  0  0999 V2000
  185.7350  177.3970  143.6540 N   0  0  0  0  0  0  0  0  0  0  0  0
  189.0260  176.5320  142.5510 O   0  0  0  0  0  0  0  0  0  0  0  0
  185.3480  178.1350  142.6470 C   0  0  0  0  0  0  0  0  0  0  0  0
  186.3140  178.5880  141.6820 N   0  0  0  0  0  0  0  0  0  0  0  0
  187.1370  177.0690  143.9370 C   0  0  1  0  0  3  0  0  0  0  0  0
  187.9670  177.1980  142.6920 C   0  0  0  0  0  0  0  0  0  0  0  0
  187.5400  178.1550  141.6690 C   0  0  0  0  0  0  0  0  0  0  0  0
  181.1970  179.1340  142.1190 C   0  0  0  0  0  3  0  0  0  0  0  0
  181.7490  179.1980  143.3970 C   0  0  0  0  0  3  0  0  0  0  0  0
  183.6900  179.0660  145.2570 Cl  0  0  0  0  0  0  0  0  0  0  0  0
  181.3060  178.6870  139.4290 Cl  0  0  0  0  0  0  0  0  0  0  0  0
  183.9140  178.5000  142.5170 C   0  0  0  0  0  0  0  0  0  0  0  0
  181.9930  178.7630  141.0370 C   0  0  0  0  0  0  0  0  0  0  0  0
  183.0960  178.8880  143.6110 C   0  0  0  0  0  0  0  0  0  0  0  0
  183.3380  178.4500  141.2350 C   0  0  0  0  0  3  0  0  0  0  0  0
  188.4460  178.5820  140.6960 O   0  0  0  0  0  0  0  0  0  0  0  0
  188.2530  178.3170  139.3130 C   0  0  0  0  0  2  0  0  0  0  0  0
  189.5880  178.0270  138.6600 C   0  0  2  0  0  3  0  0  0  0  0  0
  189.3860  177.6020  137.3460 O   0  0  0  0  0  1  0  0  0  0  0  0
  190.3090  176.9460  139.4480 C   0  0  0  0  0  2  0  0  0  0  0  0
  190.9590  174.9680  138.2980 O   0  0  0  0  0  0  0  0  0  0  0  0
  191.2250  176.1700  138.5600 C   0  0  0  0  0  0  0  0  0  0  0  0
  193.5580  176.6350  138.5830 O   0  0  0  0  0  1  0  0  0  0  0  0
  192.3570  176.7610  138.0020 O   0  0  0  0  0  0  0  0  0  0  0  0
  187.6470  178.0230  145.0140 C   0  0  0  0  0  2  0  0  0  0  0  0
  186.4440  178.1850  147.0870 O   0  0  0  0  0  1  0  0  0  0  0  0
  187.4410  177.4690  146.4210 C   0  0  2  0  0  3  0  0  0  0  0  0
  188.6100  178.2460  148.5210 C   0  0  0  0  0  1  0  0  0  0  0  0
  188.7450  177.4560  147.2280 C   0  0  2  0  0  3  0  0  0  0  0  0
  189.7870  177.9930  146.4620 O   0  0  0  0  0  0  0  0  0  0  0  0
  190.6180  176.9200  146.1210 C   0  0  1  0  0  3  0  0  0  0  0  0
  190.7350  179.3240  143.8650 O   0  0  0  0  0  0  0  0  0  0  0  0
  191.7670  177.4240  145.2500 C   0  0  1  0  0  3  0  0  0  0  0  0
  191.7450  176.8210  143.9910 N   0  0  0  0  0  2  0  0  0  0  0  0
  191.2450  178.2440  144.2580 C   0  0  0  0  0  0  0  0  0  0  0  0
  192.1460  176.6750  147.9170 O   0  0  0  0  0  0  0  0  0  0  0  0
  191.1260  176.2750  147.3770 C   0  0  0  0  0  3  0  0  0  0  0  0
  1  5  1  0  0  0  0
  2  6  2  0  0  0  0
  3  1  2  0  0  0  0
  4  3  1  0  0  0  0
  5 25  1  1  0  0  0
  6  5  1  0  0  0  0
  7  4  2  0  0  0  0
  7  6  1  0  0  0  0
  8  9  1  0  0  0  0
  9 14  2  0  0  0  0
 11 13  1  0  0  0  0
 12  3  1  0  0  0  0
 12 14  1  0  0  0  0
 13 15  1  0  0  0  0
 13  8  2  0  0  0  0
 14 10  1  0  0  0  0
 15 12  2  0  0  0  0
 16  7  1  0  0  0  0
 17 16  1  0  0  0  0
 18 19  1  6  0  0  0
 18 17  1  0  0  0  0
 18 20  1  0  0  0  0
 21 22  2  0  0  0  0
 22 20  1  0  0  0  0
 24 22  1  0  0  0  0
 24 23  1  0  0  0  0
 25 27  1  0  0  0  0
 27 26  1  1  0  0  0
 27 29  1  0  0  0  0
 29 28  1  1  0  0  0
 30 29  1  0  0  0  0
 31 30  1  0  0  0  0
 31 37  1  1  0  0  0
 32 35  2  0  0  0  0
 33 31  1  1  0  0  0
 34 35  1  0  0  0  0
 34 33  1  0  0  0  0
 35 33  1  0  0  0  0
 37 36  2  0  0  0  0
M  END
>  <MODEL>
4

>  <REMARK>
 VINA RESULT:      -8.2      2.597      7.449
  Name = 
  14 active torsions:
  status: ('A' for Active; 'I' for Inactive)
    1  A    between atoms: C_7  and  C_10
    2  A    between atoms: C_7  and  O_25
    3  A    between atoms: C_8  and  C_29
    4  A    between atoms: C_8  and  C_31
    5  A    between atoms: C_9  and  C_12
    6  A    between atoms: C_10  and  C_32
    7  A    between atoms: C_12  and  CA_17
    8  A    between atoms: C_12  and  O_20
    9  A    between atoms: C_14  and  C_24
   10  A    between atoms: C_19  and  C_29
   11  A    between atoms: O_20  and  C_31
   12  A    between atoms: C_22  and  C_32
   13  A    between atoms: C_22  and  O_33
   14  A    between atoms: O_25  and  C_27
                            x       y       z     vdW  Elec       q    Type
                         _______ _______ _______ _____ _____    ______ ____

>  <TORSDO>
F 14

$$$$
=
 OpenBabel10232411213D

 37 39  0  0  1  0  0  0  0  0999 V2000
  188.4820  177.0280  142.3520 N   0  0  0  0  0  0  0  0  0  0  0  0
  190.3210  176.5380  139.3230 O   0  0  0  0  0  0  0  0  0  0  0  0
  187.5440  177.8280  141.9170 C   0  0  0  0  0  0  0  0  0  0  0  0
  187.6780  178.4490  140.6260 N   0  0  0  0  0  0  0  0  0  0  0  0
  189.7440  176.7850  141.6430 C   0  0  1  0  0  3  0  0  0  0  0  0
  189.5940  177.1010  140.1820 C   0  0  0  0  0  0  0  0  0  0  0  0
  188.6160  178.1160  139.7880 C   0  0  0  0  0  0  0  0  0  0  0  0
  184.0060  178.5690  144.2480 C   0  0  0  0  0  3  0  0  0  0  0  0
  185.2150  178.3510  144.9070 C   0  0  0  0  0  3  0  0  0  0  0  0
  187.8610  177.9150  145.1290 Cl  0  0  0  0  0  0  0  0  0  0  0  0
  182.4490  178.8350  142.0240 Cl  0  0  0  0  0  0  0  0  0  0  0  0
  186.3550  178.0900  142.7670 C   0  0  0  0  0  0  0  0  0  0  0  0
  183.9620  178.5570  142.8550 C   0  0  0  0  0  0  0  0  0  0  0  0
  186.3900  178.1130  144.1870 C   0  0  0  0  0  0  0  0  0  0  0  0
  185.1260  178.3200  142.1240 C   0  0  0  0  0  3  0  0  0  0  0  0
  188.6970  178.7070  138.5250 O   0  0  0  0  0  0  0  0  0  0  0  0
  188.3380  178.0120  137.3390 C   0  0  0  0  0  2  0  0  0  0  0  0
  187.1830  177.0770  137.6280 C   0  0  2  0  0  3  0  0  0  0  0  0
  187.4330  175.8290  137.0550 O   0  0  0  0  0  1  0  0  0  0  0  0
  185.9050  177.6640  137.0530 C   0  0  0  0  0  2  0  0  0  0  0  0
  184.0760  177.4570  138.5590 O   0  0  0  0  0  0  0  0  0  0  0  0
  185.0230  178.1750  138.1450 C   0  0  0  0  0  0  0  0  0  0  0  0
  184.2190  180.2010  139.0970 O   0  0  0  0  0  1  0  0  0  0  0  0
  185.2440  179.4230  138.7230 O   0  0  0  0  0  0  0  0  0  0  0  0
  190.8230  177.6670  142.2670 C   0  0  0  0  0  2  0  0  0  0  0  0
  191.0750  175.6930  143.6120 O   0  0  0  0  0  1  0  0  0  0  0  0
  191.4260  177.0420  143.5220 C   0  0  2  0  0  3  0  0  0  0  0  0
  191.2520  179.3000  144.6400 C   0  0  0  0  0  1  0  0  0  0  0  0
  191.0250  177.8030  144.7900 C   0  0  2  0  0  3  0  0  0  0  0  0
  191.7610  177.3300  145.8840 O   0  0  0  0  0  0  0  0  0  0  0  0
  190.8440  176.6960  146.7300 C   0  0  1  0  0  3  0  0  0  0  0  0
  193.2950  176.3990  148.9180 O   0  0  0  0  0  0  0  0  0  0  0  0
  191.4930  175.4590  147.3480 C   0  0  1  0  0  3  0  0  0  0  0  0
  192.6420  175.0900  146.6460 N   0  0  0  0  0  2  0  0  0  0  0  0
  192.6690  175.8440  147.9790 C   0  0  0  0  0  0  0  0  0  0  0  0
  189.2280  177.7260  148.1270 O   0  0  0  0  0  0  0  0  0  0  0  0
  190.3990  177.6650  147.7860 C   0  0  0  0  0  3  0  0  0  0  0  0
  2  6  2  0  0  0  0
  3  1  2  0  0  0  0
  3 12  1  0  0  0  0
  4  3  1  0  0  0  0
  5 25  1  1  0  0  0
  5  1  1  0  0  0  0
  6  5  1  0  0  0  0
  7  6  1  0  0  0  0
  7  4  2  0  0  0  0
  8  9  1  0  0  0  0
 11 13  1  0  0  0  0
 12 14  1  0  0  0  0
 13  8  2  0  0  0  0
 14  9  2  0  0  0  0
 14 10  1  0  0  0  0
 15 12  2  0  0  0  0
 15 13  1  0  0  0  0
 16  7  1  0  0  0  0
 17 18  1  0  0  0  0
 17 16  1  0  0  0  0
 18 19  1  6  0  0  0
 20 18  1  0  0  0  0
 20 22  1  0  0  0  0
 22 21  2  0  0  0  0
 22 24  1  0  0  0  0
 24 23  1  0  0  0  0
 25 27  1  0  0  0  0
 27 26  1  1  0  0  0
 27 29  1  0  0  0  0
 29 28  1  6  0  0  0
 29 30  1  0  0  0  0
 30 31  1  0  0  0  0
 31 37  1  1  0  0  0
 33 31  1  6  0  0  0
 33 35  1  0  0  0  0
 34 33  1  0  0  0  0
 34 35  1  0  0  0  0
 35 32  2  0  0  0  0
 37 36  2  0  0  0  0
M  END
>  <MODEL>
5

>  <REMARK>
 VINA RESULT:      -8.0      1.620      8.083
  Name = 
  14 active torsions:
  status: ('A' for Active; 'I' for Inactive)
    1  A    between atoms: C_7  and  C_10
    2  A    between atoms: C_7  and  O_25
    3  A    between atoms: C_8  and  C_29
    4  A    between atoms: C_8  and  C_31
    5  A    between atoms: C_9  and  C_12
    6  A    between atoms: C_10  and  C_32
    7  A    between atoms: C_12  and  CA_17
    8  A    between atoms: C_12  and  O_20
    9  A    between atoms: C_14  and  C_24
   10  A    between atoms: C_19  and  C_29
   11  A    between atoms: O_20  and  C_31
   12  A    between atoms: C_22  and  C_32
   13  A    between atoms: C_22  and  O_33
   14  A    between atoms: O_25  and  C_27
                            x       y       z     vdW  Elec       q    Type
                         _______ _______ _______ _____ _____    ______ ____

>  <TORSDO>
F 14

$$$$
=
 OpenBabel10232411213D

 37 39  0  0  1  0  0  0  0  0999 V2000
  188.0250  177.1920  142.3620 N   0  0  0  0  0  0  0  0  0  0  0  0
  189.5980  176.6040  139.2040 O   0  0  0  0  0  0  0  0  0  0  0  0
  187.0680  178.0000  141.9890 C   0  0  0  0  0  0  0  0  0  0  0  0
  187.1040  178.5910  140.6770 N   0  0  0  0  0  0  0  0  0  0  0  0
  189.2190  176.9110  141.5580 C   0  0  1  0  0  3  0  0  0  0  0  0
  188.9540  177.1990  140.1070 C   0  0  0  0  0  0  0  0  0  0  0  0
  187.9640  178.2240  139.7730 C   0  0  0  0  0  0  0  0  0  0  0  0
  183.9620  178.8950  144.8270 C   0  0  0  0  0  3  0  0  0  0  0  0
  183.6370  178.8180  143.4730 C   0  0  0  0  0  3  0  0  0  0  0  0
  184.0720  178.3930  140.8520 Cl  0  0  0  0  0  0  0  0  0  0  0  0
  185.6840  178.7600  146.9390 Cl  0  0  0  0  0  0  0  0  0  0  0  0
  185.9580  178.3020  142.9280 C   0  0  0  0  0  0  0  0  0  0  0  0
  185.2730  178.6700  145.2400 C   0  0  0  0  0  0  0  0  0  0  0  0
  184.6160  178.5230  142.5190 C   0  0  0  0  0  0  0  0  0  0  0  0
  186.2600  178.3760  144.2990 C   0  0  0  0  0  3  0  0  0  0  0  0
  187.9500  178.7860  138.4940 O   0  0  0  0  0  0  0  0  0  0  0  0
  186.8910  178.5530  137.5760 C   0  0  0  0  0  2  0  0  0  0  0  0
  187.1810  177.3010  136.7730 C   0  0  2  0  0  3  0  0  0  0  0  0
  187.0430  177.5740  135.4110 O   0  0  0  0  0  1  0  0  0  0  0  0
  186.2110  176.2060  137.1830 C   0  0  0  0  0  2  0  0  0  0  0  0
  188.0720  174.7440  136.9540 O   0  0  0  0  0  0  0  0  0  0  0  0
  186.8190  174.8590  136.9710 C   0  0  0  0  0  0  0  0  0  0  0  0
  185.7390  172.9330  137.8570 O   0  0  0  0  0  1  0  0  0  0  0  0
  186.0220  173.7260  136.8150 O   0  0  0  0  0  0  0  0  0  0  0  0
  190.3620  177.7850  142.0700 C   0  0  0  0  0  2  0  0  0  0  0  0
  190.9130  175.6930  143.1140 O   0  0  0  0  0  1  0  0  0  0  0  0
  191.2510  177.0480  143.0660 C   0  0  2  0  0  3  0  0  0  0  0  0
  191.7950  179.0780  144.4680 C   0  0  0  0  0  1  0  0  0  0  0  0
  191.1950  177.6800  144.4620 C   0  0  2  0  0  3  0  0  0  0  0  0
  191.8830  176.8760  145.3790 O   0  0  0  0  0  0  0  0  0  0  0  0
  191.3020  177.1200  146.6290 C   0  0  1  0  0  3  0  0  0  0  0  0
  188.9880  178.6030  148.4520 O   0  0  0  0  0  0  0  0  0  0  0  0
  189.7820  177.1560  146.4850 C   0  0  1  0  0  3  0  0  0  0  0  0
  189.1780  176.1780  147.2770 N   0  0  0  0  0  2  0  0  0  0  0  0
  189.2370  177.6590  147.6600 C   0  0  0  0  0  0  0  0  0  0  0  0
  192.7700  176.1610  148.2250 O   0  0  0  0  0  0  0  0  0  0  0  0
  191.7340  176.0500  147.5880 C   0  0  0  0  0  3  0  0  0  0  0  0
  2  6  2  0  0  0  0
  3  1  2  0  0  0  0
  3 12  1  0  0  0  0
  4  3  1  0  0  0  0
  5 25  1  1  0  0  0
  5  1  1  0  0  0  0
  6  5  1  0  0  0  0
  7  6  1  0  0  0  0
  7  4  2  0  0  0  0
  8 13  1  0  0  0  0
  9  8  2  0  0  0  0
 10 14  1  0  0  0  0
 12 15  1  0  0  0  0
 13 11  1  0  0  0  0
 14 12  2  0  0  0  0
 14  9  1  0  0  0  0
 15 13  2  0  0  0  0
 16  7  1  0  0  0  0
 17 16  1  0  0  0  0
 18 19  1  6  0  0  0
 18 20  1  0  0  0  0
 18 17  1  0  0  0  0
 21 22  2  0  0  0  0
 22 20  1  0  0  0  0
 24 22  1  0  0  0  0
 24 23  1  0  0  0  0
 25 27  1  0  0  0  0
 27 26  1  1  0  0  0
 27 29  1  0  0  0  0
 29 28  1  6  0  0  0
 29 30  1  0  0  0  0
 30 31  1  0  0  0  0
 31 37  1  1  0  0  0
 33 31  1  1  0  0  0
 33 34  1  0  0  0  0
 33 35  1  0  0  0  0
 34 35  1  0  0  0  0
 35 32  2  0  0  0  0
 37 36  2  0  0  0  0
M  END
>  <MODEL>
6

>  <REMARK>
 VINA RESULT:      -7.9      2.080      8.057
  Name = 
  14 active torsions:
  status: ('A' for Active; 'I' for Inactive)
    1  A    between atoms: C_7  and  C_10
    2  A    between atoms: C_7  and  O_25
    3  A    between atoms: C_8  and  C_29
    4  A    between atoms: C_8  and  C_31
    5  A    between atoms: C_9  and  C_12
    6  A    between atoms: C_10  and  C_32
    7  A    between atoms: C_12  and  CA_17
    8  A    between atoms: C_12  and  O_20
    9  A    between atoms: C_14  and  C_24
   10  A    between atoms: C_19  and  C_29
   11  A    between atoms: O_20  and  C_31
   12  A    between atoms: C_22  and  C_32
   13  A    between atoms: C_22  and  O_33
   14  A    between atoms: O_25  and  C_27
                            x       y       z     vdW  Elec       q    Type
                         _______ _______ _______ _____ _____    ______ ____

>  <TORSDO>
F 14

$$$$
=
 OpenBabel10232411213D

 37 39  0  0  1  0  0  0  0  0999 V2000
  188.8430  177.0050  142.1210 N   0  0  0  0  0  0  0  0  0  0  0  0
  190.8010  176.5260  139.1660 O   0  0  0  0  0  0  0  0  0  0  0  0
  187.9820  177.8840  141.6790 C   0  0  0  0  0  0  0  0  0  0  0  0
  188.2210  178.5490  140.4260 N   0  0  0  0  0  0  0  0  0  0  0  0
  190.1220  176.7110  141.4640 C   0  0  1  0  0  3  0  0  0  0  0  0
  190.0680  177.0980  140.0140 C   0  0  0  0  0  0  0  0  0  0  0  0
  189.1780  178.1920  139.6200 C   0  0  0  0  0  0  0  0  0  0  0  0
  184.5600  178.7510  144.1370 C   0  0  0  0  0  3  0  0  0  0  0  0
  184.4550  178.9030  142.7560 C   0  0  0  0  0  3  0  0  0  0  0  0
  185.2650  178.7950  140.1920 Cl  0  0  0  0  0  0  0  0  0  0  0  0
  185.8930  178.1130  146.4310 Cl  0  0  0  0  0  0  0  0  0  0  0  0
  186.7700  178.1860  142.4820 C   0  0  0  0  0  0  0  0  0  0  0  0
  185.7580  178.3110  144.6980 C   0  0  0  0  0  0  0  0  0  0  0  0
  185.5420  178.6250  141.9200 C   0  0  0  0  0  0  0  0  0  0  0  0
  186.8510  178.0320  143.8770 C   0  0  0  0  0  3  0  0  0  0  0  0
  189.3620  178.8300  138.3920 O   0  0  0  0  0  0  0  0  0  0  0  0
  188.3910  178.7720  137.3560 C   0  0  0  0  0  2  0  0  0  0  0  0
  188.4950  177.4440  136.6360 C   0  0  2  0  0  3  0  0  0  0  0  0
  188.4830  177.6540  135.2560 O   0  0  0  0  0  1  0  0  0  0  0  0
  187.3220  176.5640  137.0350 C   0  0  0  0  0  2  0  0  0  0  0  0
  186.8810  174.2290  137.1350 O   0  0  0  0  0  0  0  0  0  0  0  0
  187.7510  175.1380  137.1520 C   0  0  0  0  0  0  0  0  0  0  0  0
  189.4850  173.5150  137.2840 O   0  0  0  0  0  1  0  0  0  0  0  0
  189.0980  174.7980  137.2590 O   0  0  0  0  0  0  0  0  0  0  0  0
  191.2220  177.4910  142.1790 C   0  0  0  0  0  2  0  0  0  0  0  0
  191.3280  175.4880  143.5010 O   0  0  0  0  0  1  0  0  0  0  0  0
  191.6070  176.8560  143.5130 C   0  0  2  0  0  3  0  0  0  0  0  0
  190.8530  179.0560  144.4990 C   0  0  0  0  0  1  0  0  0  0  0  0
  190.9240  177.5490  144.6970 C   0  0  2  0  0  3  0  0  0  0  0  0
  191.6180  177.2700  145.8800 O   0  0  0  0  0  0  0  0  0  0  0  0
  190.7320  176.5590  146.6980 C   0  0  1  0  0  3  0  0  0  0  0  0
  193.1390  176.5450  148.9540 O   0  0  0  0  0  0  0  0  0  0  0  0
  191.4720  175.4040  147.3680 C   0  0  1  0  0  3  0  0  0  0  0  0
  192.6690  175.1220  146.7050 N   0  0  0  0  0  2  0  0  0  0  0  0
  192.5920  175.9100  148.0160 C   0  0  0  0  0  0  0  0  0  0  0  0
  188.9430  177.7010  147.7540 O   0  0  0  0  0  0  0  0  0  0  0  0
  190.1460  177.4940  147.7140 C   0  0  0  0  0  3  0  0  0  0  0  0
  2  6  2  0  0  0  0
  3  1  2  0  0  0  0
  3 12  1  0  0  0  0
  4  3  1  0  0  0  0
  5  1  1  0  0  0  0
  5 25  1  1  0  0  0
  6  5  1  0  0  0  0
  7  6  1  0  0  0  0
  7  4  2  0  0  0  0
  8 13  1  0  0  0  0
  9  8  2  0  0  0  0
 10 14  1  0  0  0  0
 12 15  1  0  0  0  0
 13 11  1  0  0  0  0
 14 12  2  0  0  0  0
 14  9  1  0  0  0  0
 15 13  2  0  0  0  0
 16  7  1  0  0  0  0
 17 16  1  0  0  0  0
 18 19  1  6  0  0  0
 18 20  1  0  0  0  0
 18 17  1  0  0  0  0
 20 22  1  0  0  0  0
 21 22  2  0  0  0  0
 22 24  1  0  0  0  0
 24 23  1  0  0  0  0
 25 27  1  0  0  0  0
 27 26  1  6  0  0  0
 27 29  1  0  0  0  0
 29 28  1  6  0  0  0
 29 30  1  0  0  0  0
 30 31  1  0  0  0  0
 31 37  1  1  0  0  0
 33 31  1  6  0  0  0
 33 35  1  0  0  0  0
 34 33  1  0  0  0  0
 34 35  1  0  0  0  0
 35 32  2  0  0  0  0
 37 36  2  0  0  0  0
M  END
>  <MODEL>
7

>  <REMARK>
 VINA RESULT:      -7.9      2.312      8.148
  Name = 
  14 active torsions:
  status: ('A' for Active; 'I' for Inactive)
    1  A    between atoms: C_7  and  C_10
    2  A    between atoms: C_7  and  O_25
    3  A    between atoms: C_8  and  C_29
    4  A    between atoms: C_8  and  C_31
    5  A    between atoms: C_9  and  C_12
    6  A    between atoms: C_10  and  C_32
    7  A    between atoms: C_12  and  CA_17
    8  A    between atoms: C_12  and  O_20
    9  A    between atoms: C_14  and  C_24
   10  A    between atoms: C_19  and  C_29
   11  A    between atoms: O_20  and  C_31
   12  A    between atoms: C_22  and  C_32
   13  A    between atoms: C_22  and  O_33
   14  A    between atoms: O_25  and  C_27
                            x       y       z     vdW  Elec       q    Type
                         _______ _______ _______ _____ _____    ______ ____

>  <TORSDO>
F 14

$$$$
=
 OpenBabel10232411213D

 37 39  0  0  1  0  0  0  0  0999 V2000
  187.5790  177.4050  142.3570 N   0  0  0  0  0  0  0  0  0  0  0  0
  190.4920  176.8720  140.3500 O   0  0  0  0  0  0  0  0  0  0  0  0
  186.8790  178.1510  141.5440 C   0  0  0  0  0  0  0  0  0  0  0  0
  187.5090  178.7270  140.3850 N   0  0  0  0  0  0  0  0  0  0  0  0
  189.0240  177.1850  142.2280 C   0  0  1  0  0  3  0  0  0  0  0  0
  189.4680  177.4390  140.8150 C   0  0  0  0  0  0  0  0  0  0  0  0
  188.7110  178.4000  140.0120 C   0  0  0  0  0  0  0  0  0  0  0  0
  182.7590  178.8960  142.5290 C   0  0  0  0  0  3  0  0  0  0  0  0
  183.1230  178.7890  141.1870 C   0  0  0  0  0  3  0  0  0  0  0  0
  184.7740  178.3650  139.1050 Cl  0  0  0  0  0  0  0  0  0  0  0  0
  183.2690  178.8760  145.2090 Cl  0  0  0  0  0  0  0  0  0  0  0  0
  185.4440  178.3980  141.8310 C   0  0  0  0  0  0  0  0  0  0  0  0
  183.7230  178.7480  143.5240 C   0  0  0  0  0  0  0  0  0  0  0  0
  184.4510  178.5410  140.8250 C   0  0  0  0  0  0  0  0  0  0  0  0
  185.0520  178.5020  143.1770 C   0  0  0  0  0  3  0  0  0  0  0  0
  189.2820  178.9450  138.8600 O   0  0  0  0  0  0  0  0  0  0  0  0
  188.5990  178.9700  137.6150 C   0  0  0  0  0  2  0  0  0  0  0  0
  188.7200  177.6190  136.9410 C   0  0  2  0  0  3  0  0  0  0  0  0
  187.8680  176.7050  137.5630 O   0  0  0  0  0  1  0  0  0  0  0  0
  190.1570  177.1370  137.0380 C   0  0  0  0  0  2  0  0  0  0  0  0
  190.1510  175.4140  135.3990 O   0  0  0  0  0  0  0  0  0  0  0  0
  190.2620  175.7070  136.6170 C   0  0  0  0  0  0  0  0  0  0  0  0
  190.0460  173.4540  137.3470 O   0  0  0  0  0  1  0  0  0  0  0  0
  190.4990  174.6980  137.5490 O   0  0  0  0  0  0  0  0  0  0  0  0
  189.7430  178.1300  143.1870 C   0  0  0  0  0  2  0  0  0  0  0  0
  190.9740  176.1030  143.5650 O   0  0  0  0  0  1  0  0  0  0  0  0
  190.8060  177.4150  144.0150 C   0  0  2  0  0  3  0  0  0  0  0  0
  191.5090  176.6680  146.3240 C   0  0  0  0  0  1  0  0  0  0  0  0
  190.4850  177.4480  145.5140 C   0  0  2  0  0  3  0  0  0  0  0  0
  189.2100  176.9150  145.7410 O   0  0  0  0  0  0  0  0  0  0  0  0
  188.5120  177.8690  146.4900 C   0  0  1  0  0  3  0  0  0  0  0  0
  185.9810  179.7530  147.4510 O   0  0  0  0  0  0  0  0  0  0  0  0
  187.1530  178.1280  145.8440 C   0  0  1  0  0  3  0  0  0  0  0  0
  186.1750  177.2830  146.3720 N   0  0  0  0  0  2  0  0  0  0  0  0
  186.3310  178.7520  146.7750 C   0  0  0  0  0  0  0  0  0  0  0  0
  188.9040  177.9510  148.8270 O   0  0  0  0  0  0  0  0  0  0  0  0
  188.3620  177.3730  147.8980 C   0  0  0  0  0  3  0  0  0  0  0  0
  2  6  2  0  0  0  0
  3 12  1  0  0  0  0
  3  1  2  0  0  0  0
  4  3  1  0  0  0  0
  5  1  1  0  0  0  0
  5 25  1  1  0  0  0
  6  5  1  0  0  0  0
  7  4  2  0  0  0  0
  7  6  1  0  0  0  0
  8 13  1  0  0  0  0
  9  8  2  0  0  0  0
 10 14  1  0  0  0  0
 12 15  1  0  0  0  0
 13 11  1  0  0  0  0
 14  9  1  0  0  0  0
 14 12  2  0  0  0  0
 15 13  2  0  0  0  0
 16  7  1  0  0  0  0
 17 16  1  0  0  0  0
 18 20  1  0  0  0  0
 18 19  1  1  0  0  0
 18 17  1  0  0  0  0
 21 22  2  0  0  0  0
 22 20  1  0  0  0  0
 22 24  1  0  0  0  0
 23 24  1  0  0  0  0
 25 27  1  0  0  0  0
 27 26  1  6  0  0  0
 27 29  1  0  0  0  0
 29 30  1  0  0  0  0
 29 28  1  1  0  0  0
 30 31  1  0  0  0  0
 31 37  1  1  0  0  0
 33 34  1  0  0  0  0
 33 31  1  1  0  0  0
 33 35  1  0  0  0  0
 34 35  1  0  0  0  0
 35 32  2  0  0  0  0
 37 36  2  0  0  0  0
M  END
>  <MODEL>
8

>  <REMARK>
 VINA RESULT:      -7.8      2.489      7.383
  Name = 
  14 active torsions:
  status: ('A' for Active; 'I' for Inactive)
    1  A    between atoms: C_7  and  C_10
    2  A    between atoms: C_7  and  O_25
    3  A    between atoms: C_8  and  C_29
    4  A    between atoms: C_8  and  C_31
    5  A    between atoms: C_9  and  C_12
    6  A    between atoms: C_10  and  C_32
    7  A    between atoms: C_12  and  CA_17
    8  A    between atoms: C_12  and  O_20
    9  A    between atoms: C_14  and  C_24
   10  A    between atoms: C_19  and  C_29
   11  A    between atoms: O_20  and  C_31
   12  A    between atoms: C_22  and  C_32
   13  A    between atoms: C_22  and  O_33
   14  A    between atoms: O_25  and  C_27
                            x       y       z     vdW  Elec       q    Type
                         _______ _______ _______ _____ _____    ______ ____

>  <TORSDO>
F 14

$$$$
=
 OpenBabel10232411213D

 37 39  0  0  1  0  0  0  0  0999 V2000
  186.8160  178.7990  141.4600 N   0  0  0  0  0  0  0  0  0  0  0  0
  190.1430  178.5000  142.7390 O   0  0  0  0  0  0  0  0  0  0  0  0
  186.1420  178.3170  142.4720 C   0  0  0  0  0  0  0  0  0  0  0  0
  186.8350  177.6140  143.5190 N   0  0  0  0  0  0  0  0  0  0  0  0
  188.2530  178.5840  141.2560 C   0  0  1  0  0  3  0  0  0  0  0  0
  188.9220  178.2500  142.5590 C   0  0  0  0  0  0  0  0  0  0  0  0
  188.1330  177.5800  143.5940 C   0  0  0  0  0  0  0  0  0  0  0  0
  181.8660  178.7830  142.4720 C   0  0  0  0  0  3  0  0  0  0  0  0
  182.5650  178.9650  143.6640 C   0  0  0  0  0  3  0  0  0  0  0  0
  184.7290  179.1460  145.2540 Cl  0  0  0  0  0  0  0  0  0  0  0  0
  181.6850  178.2430  139.8040 Cl  0  0  0  0  0  0  0  0  0  0  0  0
  184.6700  178.4990  142.5230 C   0  0  0  0  0  0  0  0  0  0  0  0
  182.5570  178.4680  141.3030 C   0  0  0  0  0  0  0  0  0  0  0  0
  183.9570  178.8300  143.7060 C   0  0  0  0  0  0  0  0  0  0  0  0
  183.9450  178.3280  141.3310 C   0  0  0  0  0  3  0  0  0  0  0  0
  188.7780  176.9220  144.6440 O   0  0  0  0  0  0  0  0  0  0  0  0
  188.5110  177.2270  146.0050 C   0  0  0  0  0  2  0  0  0  0  0  0
  189.7370  176.9310  146.8430 C   0  0  2  0  0  3  0  0  0  0  0  0
  189.7200  177.7180  147.9960 O   0  0  0  0  0  1  0  0  0  0  0  0
  190.9850  177.2330  146.0300 C   0  0  0  0  0  2  0  0  0  0  0  0
  192.4200  175.7060  147.1540 O   0  0  0  0  0  0  0  0  0  0  0  0
  191.9240  176.0710  146.0570 C   0  0  0  0  0  0  0  0  0  0  0  0
  191.6220  175.6480  143.7360 O   0  0  0  0  0  1  0  0  0  0  0  0
  192.2420  175.3750  144.8920 O   0  0  0  0  0  0  0  0  0  0  0  0
  188.4320  177.4410  140.2600 C   0  0  0  0  0  2  0  0  0  0  0  0
  188.9830  179.1720  138.6880 O   0  0  0  0  0  1  0  0  0  0  0  0
  189.2670  177.8530  139.0520 C   0  0  2  0  0  3  0  0  0  0  0  0
  187.6280  176.4350  137.7550 C   0  0  0  0  0  1  0  0  0  0  0  0
  189.0720  176.8990  137.8670 C   0  0  2  0  0  3  0  0  0  0  0  0
  189.9090  175.7850  138.0080 O   0  0  0  0  0  0  0  0  0  0  0  0
  191.0510  176.0510  137.2450 C   0  0  1  0  0  3  0  0  0  0  0  0
  194.1940  176.9260  136.7590 O   0  0  0  0  0  0  0  0  0  0  0  0
  192.2970  175.8320  138.1010 C   0  0  1  0  0  3  0  0  0  0  0  0
  192.9930  174.6930  137.6930 N   0  0  0  0  0  2  0  0  0  0  0  0
  193.4180  176.1190  137.3330 C   0  0  0  0  0  0  0  0  0  0  0  0
  190.4150  175.4560  135.0400 O   0  0  0  0  0  0  0  0  0  0  0  0
  191.0540  175.1600  136.0380 C   0  0  0  0  0  3  0  0  0  0  0  0
  1  3  2  0  0  0  0
  3 12  1  0  0  0  0
  3  4  1  0  0  0  0
  4  7  2  0  0  0  0
  5 25  1  6  0  0  0
  5  1  1  0  0  0  0
  5  6  1  0  0  0  0
  6  2  2  0  0  0  0
  6  7  1  0  0  0  0
  7 16  1  0  0  0  0
  8  9  1  0  0  0  0
  9 14  2  0  0  0  0
 11 13  1  0  0  0  0
 12 14  1  0  0  0  0
 13 15  1  0  0  0  0
 13  8  2  0  0  0  0
 14 10  1  0  0  0  0
 15 12  2  0  0  0  0
 16 17  1  0  0  0  0
 17 18  1  0  0  0  0
 18 19  1  1  0  0  0
 20 22  1  0  0  0  0
 20 18  1  0  0  0  0
 22 21  2  0  0  0  0
 23 24  1  0  0  0  0
 24 22  1  0  0  0  0
 27 26  1  6  0  0  0
 27 25  1  0  0  0  0
 29 28  1  1  0  0  0
 29 30  1  0  0  0  0
 29 27  1  0  0  0  0
 31 37  1  6  0  0  0
 31 30  1  0  0  0  0
 32 35  2  0  0  0  0
 33 31  1  6  0  0  0
 34 33  1  0  0  0  0
 35 34  1  0  0  0  0
 35 33  1  0  0  0  0
 36 37  2  0  0  0  0
M  END
>  <MODEL>
9

>  <REMARK>
 VINA RESULT:      -7.7      2.872      4.681
  Name = 
  14 active torsions:
  status: ('A' for Active; 'I' for Inactive)
    1  A    between atoms: C_7  and  C_10
    2  A    between atoms: C_7  and  O_25
    3  A    between atoms: C_8  and  C_29
    4  A    between atoms: C_8  and  C_31
    5  A    between atoms: C_9  and  C_12
    6  A    between atoms: C_10  and  C_32
    7  A    between atoms: C_12  and  CA_17
    8  A    between atoms: C_12  and  O_20
    9  A    between atoms: C_14  and  C_24
   10  A    between atoms: C_19  and  C_29
   11  A    between atoms: O_20  and  C_31
   12  A    between atoms: C_22  and  C_32
   13  A    between atoms: C_22  and  O_33
   14  A    between atoms: O_25  and  C_27
                            x       y       z     vdW  Elec       q    Type
                         _______ _______ _______ _____ _____    ______ ____

>  <TORSDO>
F 14

$$$$
