=
 OpenBabel10222421513D

 54 61  0  0  1  0  0  0  0  0999 V2000
  187.7540  179.4790  136.8020 C   0  0  0  0  0  2  0  0  0  0  0  0
  190.3270  177.7290  144.4180 C   0  0  0  0  0  0  0  0  0  0  0  0
  188.3880  175.9340  136.9020 C   0  0  1  0  0  3  0  0  0  0  0  0
  186.3870  178.9210  136.4600 C   0  0  1  0  0  3  0  0  0  0  0  0
  191.6780  175.8410  137.9120 C   0  0  0  0  0  2  0  0  0  0  0  0
  190.4180  176.0730  139.9100 O   0  0  0  0  0  0  0  0  0  0  0  0
  192.3200  173.6400  136.7510 N   0  0  0  0  0  2  0  0  0  0  0  0
  187.7040  176.6460  143.7350 C   0  0  1  0  0  3  0  0  0  0  0  0
  191.4140  177.6250  141.4420 C   0  0  0  0  0  2  0  0  0  0  0  0
  186.4690  177.4430  136.8030 C   0  0  1  0  0  3  0  0  0  0  0  0
  189.0710  175.4590  143.5160 S   0  0  0  0  0  0  0  0  0  0  0  0
  187.9460  177.4530  144.9800 C   0  0  0  0  0  3  0  0  0  0  0  0
  189.1440  177.9570  145.2830 C   0  0  0  0  0  0  0  0  0  0  0  0
  190.1000  174.2330  137.3260 N   0  0  0  0  0  0  0  0  0  0  0  0
  191.4030  178.6060  144.5080 O   0  0  0  0  0  1  0  0  0  0  0  0
  187.7740  177.1700  137.4300 N   0  0  2  0  0  0  0  0  0  0  0  0
  186.1310  178.7420  139.0130 C   0  0  0  0  0  2  0  0  0  0  0  0
  185.5770  178.3660  137.6390 C   0  0  1  0  0  3  0  0  0  0  0  0
  189.3180  175.2870  137.9480 C   0  0  1  0  0  3  0  0  0  0  0  0
  188.6320  178.2720  137.0100 C   0  0  0  0  0  2  0  0  0  0  0  0
  184.3450  178.2750  140.7800 C   0  0  1  0  0  3  0  0  0  0  0  0
  190.2730  177.3450  140.4700 C   0  0  0  0  0  2  0  0  0  0  0  0
  190.3560  176.7230  143.5270 C   0  0  0  0  0  0  0  0  0  0  0  0
  185.3400  177.3710  141.5060 C   0  0  0  0  0  2  0  0  0  0  0  0
  186.2180  178.1880  142.4340 C   0  0  0  0  0  2  0  0  0  0  0  0
  190.3500  176.2630  138.5280 C   0  0  2  0  0  3  0  0  0  0  0  0
  191.3500  174.5310  137.3030 C   0  0  0  0  0  0  0  0  0  0  0  0
  187.5900  177.5510  142.5150 C   0  0  0  0  0  2  0  0  0  0  0  0
  185.0300  179.3300  139.8940 C   0  0  0  0  0  2  0  0  0  0  0  0
  191.4820  176.5770  142.5500 C   0  0  0  0  0  2  0  0  0  0  0  0
  189.2730  178.7980  146.5060 C   0  0  0  0  0  1  0  0  0  0  0  0
  187.3850  174.9620  136.5130 N   0  0  0  0  0  0  0  0  0  0  0  0
  187.3490  174.5060  135.3150 C   0  0  0  0  0  2  0  0  0  0  0  0
  183.3550  177.4380  139.9830 C   0  0  0  0  0  2  0  0  0  0  0  0
  181.9310  177.7900  140.3900 C   0  0  2  0  0  3  0  0  0  0  0  0
  181.1210  177.8580  139.2540 O   0  0  0  0  0  0  0  0  0  0  0  0
  181.9650  177.9960  138.2530 O   0  0  0  0  0  1  0  0  0  0  0  0
  181.9090  179.1350  141.0970 C   0  0  0  0  0  2  0  0  0  0  0  0
  181.1670  178.9910  142.7120 S   0  0  0  0  0  0  0  0  0  0  0  0
  180.7090  180.3510  143.1590 O   0  0  0  0  0  0  0  0  0  0  0  0
  179.9820  178.0680  142.6420 O   0  0  0  0  0  0  0  0  0  0  0  0
  182.3680  178.3660  143.8710 C   0  0  0  0  0  2  0  0  0  0  0  0
  183.0500  179.5040  144.6090 C   0  0  0  0  0  3  0  0  0  0  0  0
  184.0270  180.0640  143.7870 O   0  0  0  0  0  1  0  0  0  0  0  0
  183.6490  179.0260  145.7740 O   0  0  0  0  0  1  0  0  0  0  0  0
  193.7470  173.9280  136.7580 C   0  0  0  0  0  2  0  0  0  0  0  0
  195.2400  172.8510  138.4260 N   0  0  1  0  0  0  0  0  0  0  0  0
  195.5580  172.3370  136.0810 C   0  0  1  0  0  3  0  0  0  0  0  0
  196.6710  172.6090  138.1420 C   0  0  1  0  0  3  0  0  0  0  0  0
  196.9990  170.9540  136.5020 C   0  0  0  0  0  2  0  0  0  0  0  0
  196.8740  172.3930  136.7060 N   0  0  1  0  0  0  0  0  0  0  0  0
  196.2040  173.9730  138.3740 C   0  0  0  0  0  2  0  0  0  0  0  0
  195.6300  170.8400  135.8690 C   0  0  0  0  0  2  0  0  0  0  0  0
  194.5450  172.6860  137.1490 C   0  0  2  0  0  3  0  0  0  0  0  0
  1 20  1  0  0  0  0
  2 15  1  0  0  0  0
  2 13  1  0  0  0  0
  3 32  1  1  0  0  0
  3 16  1  0  0  0  0
  3 19  1  0  0  0  0
  4  1  1  1  0  0  0
  4 10  1  0  0  0  0
  4 18  1  0  0  0  0
  5 26  1  0  0  0  0
  6 22  1  0  0  0  0
  7 46  1  0  0  0  0
  7 27  1  0  0  0  0
  8 28  1  6  0  0  0
  8 12  1  0  0  0  0
  9 30  1  0  0  0  0
 10 16  1  0  0  0  0
 10 18  1  0  0  0  0
 11 23  1  0  0  0  0
 11  8  1  0  0  0  0
 12 13  2  0  0  0  0
 13 31  1  0  0  0  0
 14 19  1  0  0  0  0
 17 29  1  0  0  0  0
 18 17  1  0  0  0  0
 19 26  1  0  0  0  0
 20 16  1  0  0  0  0
 21 24  1  0  0  0  0
 22  9  1  0  0  0  0
 23  2  2  0  0  0  0
 24 25  1  0  0  0  0
 25 28  1  0  0  0  0
 26  6  1  0  0  0  0
 27 14  2  0  0  0  0
 27  5  1  0  0  0  0
 29 21  1  0  0  0  0
 30 23  1  0  0  0  0
 33 32  2  0  0  0  0
 34 35  1  0  0  0  0
 34 21  1  0  0  0  0
 35 38  1  0  0  0  0
 36 35  1  0  0  0  0
 37 36  1  0  0  0  0
 38 39  1  0  0  0  0
 39 40  2  0  0  0  0
 39 42  1  0  0  0  0
 41 39  2  0  0  0  0
 42 43  1  0  0  0  0
 43 45  1  0  0  0  0
 44 43  1  0  0  0  0
 46 54  1  0  0  0  0
 48 51  1  0  0  0  0
 48 54  1  0  0  0  0
 49 52  1  0  0  0  0
 49 47  1  0  0  0  0
 50 51  1  0  0  0  0
 51 49  1  0  0  0  0
 52 47  1  0  0  0  0
 53 48  1  0  0  0  0
 53 50  1  0  0  0  0
 54 47  1  0  0  0  0
M  END
>  <MODEL>
1

>  <REMARK>
 VINA RESULT:      -5.6      0.000      0.000
  Name = 
  10 active torsions:
  status: ('A' for Active; 'I' for Inactive)
    1  A    between atoms: C_1  and  C_46
    2  A    between atoms: N_2  and  C_5
    3  A    between atoms: C_9  and  C_34
    4  A    between atoms: C_9  and  C_40
    5  A    between atoms: S_10  and  C_13
    6  A    between atoms: S_10  and  C_46
    7  A    between atoms: C_13  and  C_34
    8  A    between atoms: C_14  and  N_19
    9  A    between atoms: C_14  and  C_53
   10  A    between atoms: C_34  and  O_37
                            x       y       z     vdW  Elec       q    Type
                         _______ _______ _______ _____ _____    ______ ____

>  <TORSDO>
F 10

$$$$
=
 OpenBabel10222421513D

 54 61  0  0  1  0  0  0  0  0999 V2000
  187.7270  179.5190  136.9000 C   0  0  0  0  0  2  0  0  0  0  0  0
  190.4580  177.7330  144.4520 C   0  0  0  0  0  0  0  0  0  0  0  0
  188.3480  175.9720  136.9740 C   0  0  1  0  0  3  0  0  0  0  0  0
  186.3510  178.9680  136.5860 C   0  0  1  0  0  3  0  0  0  0  0  0
  191.6590  175.8620  137.9120 C   0  0  0  0  0  2  0  0  0  0  0  0
  190.4440  176.0920  139.9370 O   0  0  0  0  0  0  0  0  0  0  0  0
  192.2670  173.6620  136.7300 N   0  0  0  0  0  2  0  0  0  0  0  0
  187.8170  176.6630  143.8220 C   0  0  1  0  0  3  0  0  0  0  0  0
  191.4800  177.6350  141.4530 C   0  0  0  0  0  2  0  0  0  0  0  0
  186.4350  177.4890  136.9220 C   0  0  1  0  0  3  0  0  0  0  0  0
  189.1730  175.4720  143.5700 S   0  0  0  0  0  0  0  0  0  0  0  0
  188.0900  177.4650  145.0650 C   0  0  0  0  0  3  0  0  0  0  0  0
  189.2960  177.9630  145.3430 C   0  0  0  0  0  0  0  0  0  0  0  0
  190.0630  174.2620  137.3550 N   0  0  0  0  0  0  0  0  0  0  0  0
  191.5400  178.6050  144.5220 O   0  0  0  0  0  1  0  0  0  0  0  0
  187.7520  177.2090  137.5190 N   0  0  2  0  0  0  0  0  0  0  0  0
  186.1500  178.7820  139.1430 C   0  0  0  0  0  2  0  0  0  0  0  0
  185.5640  178.4130  137.7810 C   0  0  1  0  0  3  0  0  0  0  0  0
  189.2990  175.3180  137.9970 C   0  0  1  0  0  3  0  0  0  0  0  0
  188.6050  178.3090  137.0850 C   0  0  0  0  0  2  0  0  0  0  0  0
  184.4010  178.3160  140.9470 C   0  0  1  0  0  3  0  0  0  0  0  0
  190.3170  177.3630  140.5050 C   0  0  0  0  0  2  0  0  0  0  0  0
  190.4640  176.7300  143.5570 C   0  0  0  0  0  0  0  0  0  0  0  0
  185.4080  177.4050  141.6480 C   0  0  0  0  0  2  0  0  0  0  0  0
  186.3100  178.2160  142.5600 C   0  0  0  0  0  2  0  0  0  0  0  0
  190.3470  176.2870  138.5570 C   0  0  2  0  0  3  0  0  0  0  0  0
  191.3130  174.5560  137.3060 C   0  0  0  0  0  0  0  0  0  0  0  0
  187.6800  177.5730  142.6080 C   0  0  0  0  0  2  0  0  0  0  0  0
  185.0710  179.3710  140.0500 C   0  0  0  0  0  2  0  0  0  0  0  0
  191.5680  176.5830  142.5550 C   0  0  0  0  0  2  0  0  0  0  0  0
  189.4540  178.7990  146.5660 C   0  0  0  0  0  1  0  0  0  0  0  0
  187.3340  175.0050  136.6040 N   0  0  0  0  0  0  0  0  0  0  0  0
  187.2630  174.5620  135.4030 C   0  0  0  0  0  2  0  0  0  0  0  0
  183.3910  177.4860  140.1680 C   0  0  0  0  0  2  0  0  0  0  0  0
  182.0590  178.2210  140.0980 C   0  0  2  0  0  3  0  0  0  0  0  0
  181.0270  177.3580  140.4740 O   0  0  0  0  0  0  0  0  0  0  0  0
  181.1850  176.2980  139.7100 O   0  0  0  0  0  1  0  0  0  0  0  0
  181.8080  178.7090  138.6810 C   0  0  0  0  0  2  0  0  0  0  0  0
  181.3910  180.4430  138.6720 S   0  0  0  0  0  0  0  0  0  0  0  0
  180.5790  180.7550  139.8970 O   0  0  0  0  0  0  0  0  0  0  0  0
  182.6510  181.2640  138.6900 O   0  0  0  0  0  0  0  0  0  0  0  0
  180.4300  180.8220  137.2190 C   0  0  0  0  0  2  0  0  0  0  0  0
  180.6790  182.2480  136.7630 C   0  0  0  0  0  3  0  0  0  0  0  0
  179.9820  183.1240  137.5950 O   0  0  0  0  0  1  0  0  0  0  0  0
  180.2380  182.4140  135.4510 O   0  0  0  0  0  1  0  0  0  0  0  0
  193.6950  173.9440  136.7060 C   0  0  0  0  0  2  0  0  0  0  0  0
  195.5850  173.4390  138.2380 N   0  0  1  0  0  0  0  0  0  0  0  0
  194.9970  171.8110  136.5440 C   0  0  1  0  0  3  0  0  0  0  0  0
  196.7920  172.7260  137.7680 C   0  0  1  0  0  3  0  0  0  0  0  0
  196.3650  170.4710  137.2490 C   0  0  0  0  0  2  0  0  0  0  0  0
  196.4480  171.8110  136.6760 N   0  0  1  0  0  0  0  0  0  0  0  0
  196.5620  174.1040  137.3470 C   0  0  0  0  0  2  0  0  0  0  0  0
  194.8560  170.4340  137.1550 C   0  0  0  0  0  2  0  0  0  0  0  0
  194.4670  172.8770  137.4790 C   0  0  2  0  0  3  0  0  0  0  0  0
  1 20  1  0  0  0  0
  2 15  1  0  0  0  0
  2 13  1  0  0  0  0
  3 32  1  1  0  0  0
  3 16  1  0  0  0  0
  3 19  1  0  0  0  0
  4  1  1  1  0  0  0
  4 10  1  0  0  0  0
  4 18  1  0  0  0  0
  5 26  1  0  0  0  0
  6 22  1  0  0  0  0
  7 27  1  0  0  0  0
  8 28  1  6  0  0  0
  8 12  1  0  0  0  0
  9 30  1  0  0  0  0
 10 16  1  0  0  0  0
 10 18  1  0  0  0  0
 11  8  1  0  0  0  0
 12 13  2  0  0  0  0
 13 31  1  0  0  0  0
 14 19  1  0  0  0  0
 17 29  1  0  0  0  0
 18 17  1  0  0  0  0
 19 26  1  0  0  0  0
 20 16  1  0  0  0  0
 21 24  1  0  0  0  0
 22  9  1  0  0  0  0
 23 11  1  0  0  0  0
 23  2  2  0  0  0  0
 24 25  1  0  0  0  0
 25 28  1  0  0  0  0
 26  6  1  0  0  0  0
 27 14  2  0  0  0  0
 27  5  1  0  0  0  0
 29 21  1  0  0  0  0
 30 23  1  0  0  0  0
 33 32  2  0  0  0  0
 34 21  1  0  0  0  0
 35 34  1  0  0  0  0
 35 36  1  0  0  0  0
 37 36  1  0  0  0  0
 38 35  1  0  0  0  0
 39 38  1  0  0  0  0
 39 41  2  0  0  0  0
 39 40  2  0  0  0  0
 42 39  1  0  0  0  0
 43 42  1  0  0  0  0
 43 44  1  0  0  0  0
 45 43  1  0  0  0  0
 46  7  1  0  0  0  0
 46 54  1  0  0  0  0
 48 51  1  0  0  0  0
 48 53  1  0  0  0  0
 48 54  1  0  0  0  0
 49 47  1  0  0  0  0
 51 50  1  0  0  0  0
 51 49  1  0  0  0  0
 52 49  1  0  0  0  0
 52 47  1  0  0  0  0
 53 50  1  0  0  0  0
 54 47  1  0  0  0  0
M  END
>  <MODEL>
2

>  <REMARK>
 VINA RESULT:      -5.4      1.753      2.742
  Name = 
  10 active torsions:
  status: ('A' for Active; 'I' for Inactive)
    1  A    between atoms: C_1  and  C_46
    2  A    between atoms: N_2  and  C_5
    3  A    between atoms: C_9  and  C_34
    4  A    between atoms: C_9  and  C_40
    5  A    between atoms: S_10  and  C_13
    6  A    between atoms: S_10  and  C_46
    7  A    between atoms: C_13  and  C_34
    8  A    between atoms: C_14  and  N_19
    9  A    between atoms: C_14  and  C_53
   10  A    between atoms: C_34  and  O_37
                            x       y       z     vdW  Elec       q    Type
                         _______ _______ _______ _____ _____    ______ ____

>  <TORSDO>
F 10

$$$$
=
 OpenBabel10222421513D

 54 61  0  0  1  0  0  0  0  0999 V2000
  187.7210  179.4680  136.9070 C   0  0  0  0  0  2  0  0  0  0  0  0
  190.4050  177.7510  144.4910 C   0  0  0  0  0  0  0  0  0  0  0  0
  188.3550  175.9230  137.0130 C   0  0  1  0  0  3  0  0  0  0  0  0
  186.3490  178.9090  136.5870 C   0  0  1  0  0  3  0  0  0  0  0  0
  191.6590  175.8330  137.9750 C   0  0  0  0  0  2  0  0  0  0  0  0
  190.4290  176.0740  139.9900 O   0  0  0  0  0  0  0  0  0  0  0  0
  192.2840  173.6260  136.8140 N   0  0  0  0  0  2  0  0  0  0  0  0
  187.7730  176.6660  143.8520 C   0  0  1  0  0  3  0  0  0  0  0  0
  191.4480  177.6330  141.5000 C   0  0  0  0  0  2  0  0  0  0  0  0
  186.4360  177.4330  136.9360 C   0  0  1  0  0  3  0  0  0  0  0  0
  189.1350  175.4770  143.6180 S   0  0  0  0  0  0  0  0  0  0  0  0
  188.0330  177.4780  145.0900 C   0  0  0  0  0  3  0  0  0  0  0  0
  189.2350  177.9830  145.3730 C   0  0  0  0  0  0  0  0  0  0  0  0
  190.0730  174.2230  137.4190 N   0  0  0  0  0  0  0  0  0  0  0  0
  191.4830  178.6270  144.5620 O   0  0  0  0  0  1  0  0  0  0  0  0
  187.7500  177.1620  137.5440 N   0  0  2  0  0  0  0  0  0  0  0  0
  186.1300  178.7420  139.1450 C   0  0  0  0  0  2  0  0  0  0  0  0
  185.5560  178.3600  137.7810 C   0  0  1  0  0  3  0  0  0  0  0  0
  189.3000  175.2810  138.0480 C   0  0  1  0  0  3  0  0  0  0  0  0
  188.6010  178.2620  137.1070 C   0  0  0  0  0  2  0  0  0  0  0  0
  184.3710  178.2830  140.9400 C   0  0  1  0  0  3  0  0  0  0  0  0
  190.2930  177.3490  140.5460 C   0  0  0  0  0  2  0  0  0  0  0  0
  190.4210  176.7410  143.6040 C   0  0  0  0  0  0  0  0  0  0  0  0
  185.3760  177.3820  141.6550 C   0  0  0  0  0  2  0  0  0  0  0  0
  186.2680  178.2030  142.5670 C   0  0  0  0  0  2  0  0  0  0  0  0
  190.3410  176.2580  138.6080 C   0  0  2  0  0  3  0  0  0  0  0  0
  191.3220  174.5210  137.3760 C   0  0  0  0  0  0  0  0  0  0  0  0
  187.6410  177.5650  142.6290 C   0  0  0  0  0  2  0  0  0  0  0  0
  185.0430  179.3340  140.0390 C   0  0  0  0  0  2  0  0  0  0  0  0
  191.5330  176.5890  142.6120 C   0  0  0  0  0  2  0  0  0  0  0  0
  189.3820  178.8290  146.5900 C   0  0  0  0  0  1  0  0  0  0  0  0
  187.3470  174.9500  136.6430 N   0  0  0  0  0  0  0  0  0  0  0  0
  187.3120  174.4650  135.4570 C   0  0  0  0  0  2  0  0  0  0  0  0
  183.3690  177.4430  140.1610 C   0  0  0  0  0  2  0  0  0  0  0  0
  182.1630  178.2920  139.7820 C   0  0  2  0  0  3  0  0  0  0  0  0
  181.7230  179.0060  140.8990 O   0  0  0  0  0  0  0  0  0  0  0  0
  180.8800  178.1940  141.5010 O   0  0  0  0  0  1  0  0  0  0  0  0
  181.0360  177.4040  139.2850 C   0  0  0  0  0  2  0  0  0  0  0  0
  181.3010  176.9340  137.5850 S   0  0  0  0  0  0  0  0  0  0  0  0
  179.9820  176.9510  136.8640 O   0  0  0  0  0  0  0  0  0  0  0  0
  182.2350  177.9130  136.9300 O   0  0  0  0  0  0  0  0  0  0  0  0
  181.9850  175.2890  137.5160 C   0  0  0  0  0  2  0  0  0  0  0  0
  183.4650  175.3330  137.1830 C   0  0  0  0  0  3  0  0  0  0  0  0
  183.6400  175.0470  135.8290 O   0  0  0  0  0  1  0  0  0  0  0  0
  184.1530  174.3890  137.9440 O   0  0  0  0  0  1  0  0  0  0  0  0
  193.7110  173.9140  136.7990 C   0  0  0  0  0  2  0  0  0  0  0  0
  195.3680  172.8670  138.3240 N   0  0  1  0  0  0  0  0  0  0  0  0
  195.3770  172.2300  135.9870 C   0  0  1  0  0  3  0  0  0  0  0  0
  196.7450  172.5620  137.8790 C   0  0  1  0  0  3  0  0  0  0  0  0
  196.8190  170.8190  136.2990 C   0  0  0  0  0  2  0  0  0  0  0  0
  196.7610  172.2710  136.4420 N   0  0  1  0  0  0  0  0  0  0  0  0
  196.3500  173.9500  138.0960 C   0  0  0  0  0  2  0  0  0  0  0  0
  195.3790  170.7230  135.8460 C   0  0  0  0  0  2  0  0  0  0  0  0
  194.5150  172.6650  137.1520 C   0  0  2  0  0  3  0  0  0  0  0  0
  1 20  1  0  0  0  0
  2 15  1  0  0  0  0
  2 13  1  0  0  0  0
  3 32  1  1  0  0  0
  3 16  1  0  0  0  0
  3 19  1  0  0  0  0
  4  1  1  1  0  0  0
  4 10  1  0  0  0  0
  4 18  1  0  0  0  0
  5 26  1  0  0  0  0
  6 22  1  0  0  0  0
  7 27  1  0  0  0  0
  8 28  1  6  0  0  0
  8 12  1  0  0  0  0
  9 30  1  0  0  0  0
 10 16  1  0  0  0  0
 10 18  1  0  0  0  0
 11  8  1  0  0  0  0
 12 13  2  0  0  0  0
 13 31  1  0  0  0  0
 14 19  1  0  0  0  0
 17 29  1  0  0  0  0
 18 17  1  0  0  0  0
 19 26  1  0  0  0  0
 20 16  1  0  0  0  0
 21 24  1  0  0  0  0
 22  9  1  0  0  0  0
 23 11  1  0  0  0  0
 23  2  2  0  0  0  0
 24 25  1  0  0  0  0
 25 28  1  0  0  0  0
 26  6  1  0  0  0  0
 27 14  2  0  0  0  0
 27  5  1  0  0  0  0
 29 21  1  0  0  0  0
 30 23  1  0  0  0  0
 33 32  2  0  0  0  0
 34 21  1  0  0  0  0
 35 34  1  0  0  0  0
 35 36  1  0  0  0  0
 36 37  1  0  0  0  0
 38 35  1  0  0  0  0
 39 38  1  0  0  0  0
 40 39  2  0  0  0  0
 41 39  2  0  0  0  0
 42 39  1  0  0  0  0
 43 42  1  0  0  0  0
 43 45  1  0  0  0  0
 44 43  1  0  0  0  0
 46  7  1  0  0  0  0
 46 54  1  0  0  0  0
 48 51  1  0  0  0  0
 48 54  1  0  0  0  0
 49 52  1  0  0  0  0
 49 47  1  0  0  0  0
 50 51  1  0  0  0  0
 51 49  1  0  0  0  0
 52 47  1  0  0  0  0
 53 48  1  0  0  0  0
 53 50  1  0  0  0  0
 54 47  1  0  0  0  0
M  END
>  <MODEL>
3

>  <REMARK>
 VINA RESULT:      -5.3      1.495      2.852
  Name = 
  10 active torsions:
  status: ('A' for Active; 'I' for Inactive)
    1  A    between atoms: C_1  and  C_46
    2  A    between atoms: N_2  and  C_5
    3  A    between atoms: C_9  and  C_34
    4  A    between atoms: C_9  and  C_40
    5  A    between atoms: S_10  and  C_13
    6  A    between atoms: S_10  and  C_46
    7  A    between atoms: C_13  and  C_34
    8  A    between atoms: C_14  and  N_19
    9  A    between atoms: C_14  and  C_53
   10  A    between atoms: C_34  and  O_37
                            x       y       z     vdW  Elec       q    Type
                         _______ _______ _______ _____ _____    ______ ____

>  <TORSDO>
F 10

$$$$
=
 OpenBabel10222421513D

 54 61  0  0  1  0  0  0  0  0999 V2000
  187.8750  179.5650  137.0080 C   0  0  0  0  0  2  0  0  0  0  0  0
  189.9620  177.7490  144.7560 C   0  0  0  0  0  0  0  0  0  0  0  0
  188.6130  176.0400  137.0930 C   0  0  1  0  0  3  0  0  0  0  0  0
  186.5540  178.9720  136.5610 C   0  0  1  0  0  3  0  0  0  0  0  0
  191.8250  176.0280  138.3310 C   0  0  0  0  0  2  0  0  0  0  0  0
  190.4210  176.1830  140.2380 O   0  0  0  0  0  0  0  0  0  0  0  0
  192.6180  173.8700  137.1810 N   0  0  0  0  0  2  0  0  0  0  0  0
  187.4300  176.5990  143.8700 C   0  0  1  0  0  3  0  0  0  0  0  0
  191.2580  177.7350  141.8630 C   0  0  0  0  0  2  0  0  0  0  0  0
  186.6590  177.4910  136.8840 C   0  0  1  0  0  3  0  0  0  0  0  0
  188.8450  175.4590  143.7290 S   0  0  0  0  0  0  0  0  0  0  0  0
  187.5580  177.3890  145.1430 C   0  0  0  0  0  3  0  0  0  0  0  0
  188.7150  177.9240  145.5390 C   0  0  0  0  0  0  0  0  0  0  0  0
  190.3450  174.3840  137.6070 N   0  0  0  0  0  0  0  0  0  0  0  0
  191.0010  178.6560  144.9370 O   0  0  0  0  0  1  0  0  0  0  0  0
  187.9250  177.2460  137.5960 N   0  0  2  0  0  0  0  0  0  0  0  0
  186.1250  178.7360  139.0860 C   0  0  0  0  0  2  0  0  0  0  0  0
  185.6810  178.3700  137.6700 C   0  0  1  0  0  3  0  0  0  0  0  0
  189.4880  175.4020  138.1900 C   0  0  1  0  0  3  0  0  0  0  0  0
  188.7740  178.3820  137.2570 C   0  0  0  0  0  2  0  0  0  0  0  0
  184.2360  178.1810  140.7140 C   0  0  1  0  0  3  0  0  0  0  0  0
  190.1980  177.4390  140.8080 C   0  0  0  0  0  2  0  0  0  0  0  0
  190.0850  176.7610  143.8520 C   0  0  0  0  0  0  0  0  0  0  0  0
  185.2050  177.2940  141.4930 C   0  0  0  0  0  2  0  0  0  0  0  0
  185.9900  178.1200  142.4950 C   0  0  0  0  0  2  0  0  0  0  0  0
  190.4450  176.3970  138.8580 C   0  0  2  0  0  3  0  0  0  0  0  0
  191.5830  174.7210  137.6780 C   0  0  0  0  0  0  0  0  0  0  0  0
  187.3730  177.5240  142.6610 C   0  0  0  0  0  2  0  0  0  0  0  0
  184.9470  179.2730  139.8960 C   0  0  0  0  0  2  0  0  0  0  0  0
  191.2820  176.6680  142.9550 C   0  0  0  0  0  2  0  0  0  0  0  0
  188.7300  178.7450  146.7820 C   0  0  0  0  0  1  0  0  0  0  0  0
  187.6720  175.0450  136.6170 N   0  0  0  0  0  0  0  0  0  0  0  0
  187.8970  174.4010  135.5320 C   0  0  0  0  0  2  0  0  0  0  0  0
  183.3320  177.3300  139.8340 C   0  0  0  0  0  2  0  0  0  0  0  0
  182.0890  178.1210  139.4480 C   0  0  2  0  0  3  0  0  0  0  0  0
  181.5630  178.7500  140.5790 O   0  0  0  0  0  0  0  0  0  0  0  0
  180.9810  179.8350  140.1150 O   0  0  0  0  0  1  0  0  0  0  0  0
  181.0400  177.1900  138.8640 C   0  0  0  0  0  2  0  0  0  0  0  0
  181.3910  176.8320  137.1530 S   0  0  0  0  0  0  0  0  0  0  0  0
  180.1040  176.8530  136.3770 O   0  0  0  0  0  0  0  0  0  0  0  0
  182.3200  177.8770  136.5990 O   0  0  0  0  0  0  0  0  0  0  0  0
  182.1320  175.2160  137.0170 C   0  0  0  0  0  2  0  0  0  0  0  0
  181.4180  174.3810  135.9690 C   0  0  0  0  0  3  0  0  0  0  0  0
  181.6030  173.0290  136.2550 O   0  0  0  0  0  1  0  0  0  0  0  0
  181.9360  174.6580  134.7040 O   0  0  0  0  0  1  0  0  0  0  0  0
  194.0300  174.2020  137.2930 C   0  0  0  0  0  2  0  0  0  0  0  0
  195.9130  174.1090  135.6750 N   0  0  1  0  0  0  0  0  0  0  0  0
  194.6560  176.1690  135.8750 C   0  0  1  0  0  3  0  0  0  0  0  0
  196.7940  175.2730  135.4450 C   0  0  1  0  0  3  0  0  0  0  0  0
  195.6920  177.0380  134.3460 C   0  0  0  0  0  2  0  0  0  0  0  0
  196.0540  176.5200  135.6620 N   0  0  1  0  0  0  0  0  0  0  0  0
  196.8920  174.5340  136.7000 C   0  0  0  0  0  2  0  0  0  0  0  0
  194.2340  176.6700  134.5110 C   0  0  0  0  0  2  0  0  0  0  0  0
  194.5840  174.6590  135.9460 C   0  0  2  0  0  3  0  0  0  0  0  0
  1 20  1  0  0  0  0
  2 15  1  0  0  0  0
  2 13  1  0  0  0  0
  3 32  1  1  0  0  0
  3 16  1  0  0  0  0
  3 19  1  0  0  0  0
  4 10  1  0  0  0  0
  4  1  1  1  0  0  0
  4 18  1  0  0  0  0
  5 26  1  0  0  0  0
  6 22  1  0  0  0  0
  7 46  1  0  0  0  0
  7 27  1  0  0  0  0
  8 28  1  6  0  0  0
  8 12  1  0  0  0  0
  9 30  1  0  0  0  0
 10 16  1  0  0  0  0
 10 18  1  0  0  0  0
 11 23  1  0  0  0  0
 11  8  1  0  0  0  0
 12 13  2  0  0  0  0
 13 31  1  0  0  0  0
 14 27  2  0  0  0  0
 14 19  1  0  0  0  0
 17 29  1  0  0  0  0
 18 17  1  0  0  0  0
 19 26  1  0  0  0  0
 20 16  1  0  0  0  0
 21 24  1  0  0  0  0
 22  9  1  0  0  0  0
 23  2  2  0  0  0  0
 24 25  1  0  0  0  0
 25 28  1  0  0  0  0
 26  6  1  0  0  0  0
 27  5  1  0  0  0  0
 29 21  1  0  0  0  0
 30 23  1  0  0  0  0
 33 32  2  0  0  0  0
 34 21  1  0  0  0  0
 35 34  1  0  0  0  0
 35 36  1  0  0  0  0
 37 36  1  0  0  0  0
 38 35  1  0  0  0  0
 39 38  1  0  0  0  0
 40 39  2  0  0  0  0
 41 39  2  0  0  0  0
 42 39  1  0  0  0  0
 43 44  1  0  0  0  0
 43 42  1  0  0  0  0
 45 43  1  0  0  0  0
 47 54  1  0  0  0  0
 47 52  1  0  0  0  0
 48 54  1  0  0  0  0
 49 51  1  0  0  0  0
 49 47  1  0  0  0  0
 49 52  1  0  0  0  0
 50 53  1  0  0  0  0
 50 51  1  0  0  0  0
 51 48  1  0  0  0  0
 53 48  1  0  0  0  0
 54 46  1  0  0  0  0
M  END
>  <MODEL>
4

>  <REMARK>
 VINA RESULT:      -5.0      2.105      3.672
  Name = 
  10 active torsions:
  status: ('A' for Active; 'I' for Inactive)
    1  A    between atoms: C_1  and  C_46
    2  A    between atoms: N_2  and  C_5
    3  A    between atoms: C_9  and  C_34
    4  A    between atoms: C_9  and  C_40
    5  A    between atoms: S_10  and  C_13
    6  A    between atoms: S_10  and  C_46
    7  A    between atoms: C_13  and  C_34
    8  A    between atoms: C_14  and  N_19
    9  A    between atoms: C_14  and  C_53
   10  A    between atoms: C_34  and  O_37
                            x       y       z     vdW  Elec       q    Type
                         _______ _______ _______ _____ _____    ______ ____

>  <TORSDO>
F 10

$$$$
=
 OpenBabel10222421513D

 54 61  0  0  1  0  0  0  0  0999 V2000
  188.0650  179.5510  136.8570 C   0  0  0  0  0  2  0  0  0  0  0  0
  190.3540  177.6460  144.5250 C   0  0  0  0  0  0  0  0  0  0  0  0
  188.7500  176.0150  136.8940 C   0  0  1  0  0  3  0  0  0  0  0  0
  186.7220  178.9820  136.4450 C   0  0  1  0  0  3  0  0  0  0  0  0
  191.9980  175.9450  138.0360 C   0  0  0  0  0  2  0  0  0  0  0  0
  190.6540  176.1070  139.9850 O   0  0  0  0  0  0  0  0  0  0  0  0
  192.7220  173.7840  136.8470 N   0  0  0  0  0  2  0  0  0  0  0  0
  187.7790  176.5420  143.7080 C   0  0  1  0  0  3  0  0  0  0  0  0
  191.5620  177.6340  141.5950 C   0  0  0  0  0  2  0  0  0  0  0  0
  186.8140  177.4980  136.7540 C   0  0  1  0  0  3  0  0  0  0  0  0
  189.1710  175.3820  143.5170 S   0  0  0  0  0  0  0  0  0  0  0  0
  187.9570  177.3200  144.9820 C   0  0  0  0  0  3  0  0  0  0  0  0
  189.1330  177.8340  145.3470 C   0  0  0  0  0  0  0  0  0  0  0  0
  190.4710  174.3290  137.3460 N   0  0  0  0  0  0  0  0  0  0  0  0
  191.4110  178.5360  144.6820 O   0  0  0  0  0  1  0  0  0  0  0  0
  188.0960  177.2280  137.4270 N   0  0  2  0  0  0  0  0  0  0  0  0
  186.3650  178.7350  138.9800 C   0  0  0  0  0  2  0  0  0  0  0  0
  185.8730  178.3860  137.5760 C   0  0  1  0  0  3  0  0  0  0  0  0
  189.6480  175.3560  137.9610 C   0  0  1  0  0  3  0  0  0  0  0  0
  188.9530  178.3530  137.0700 C   0  0  0  0  0  2  0  0  0  0  0  0
  184.5170  178.1960  140.6600 C   0  0  1  0  0  3  0  0  0  0  0  0
  190.4670  177.3630  140.5700 C   0  0  0  0  0  2  0  0  0  0  0  0
  190.4350  176.6640  143.6110 C   0  0  0  0  0  0  0  0  0  0  0  0
  185.4950  177.2880  141.4040 C   0  0  0  0  0  2  0  0  0  0  0  0
  186.3220  178.0950  142.3870 C   0  0  0  0  0  2  0  0  0  0  0  0
  190.6390  176.3310  138.6060 C   0  0  2  0  0  3  0  0  0  0  0  0
  191.7160  174.6470  137.3810 C   0  0  0  0  0  0  0  0  0  0  0  0
  187.7000  177.4760  142.5080 C   0  0  0  0  0  2  0  0  0  0  0  0
  185.2210  179.2830  139.8290 C   0  0  0  0  0  2  0  0  0  0  0  0
  191.6020  176.5590  142.6790 C   0  0  0  0  0  2  0  0  0  0  0  0
  189.1990  178.6460  146.5950 C   0  0  0  0  0  1  0  0  0  0  0  0
  187.7800  175.0390  136.4400 N   0  0  0  0  0  0  0  0  0  0  0  0
  187.0500  174.4050  137.2810 C   0  0  0  0  0  2  0  0  0  0  0  0
  183.5740  177.3650  139.8020 C   0  0  0  0  0  2  0  0  0  0  0  0
  182.2470  178.0930  139.6350 C   0  0  2  0  0  3  0  0  0  0  0  0
  181.2050  177.1640  139.5900 O   0  0  0  0  0  0  0  0  0  0  0  0
  180.9680  176.9920  138.3070 O   0  0  0  0  0  1  0  0  0  0  0  0
  182.2520  178.8970  138.3450 C   0  0  0  0  0  2  0  0  0  0  0  0
  181.0630  180.2230  138.4190 S   0  0  0  0  0  0  0  0  0  0  0  0
  179.9820  179.9640  137.4070 O   0  0  0  0  0  0  0  0  0  0  0  0
  180.4520  180.2780  139.7920 O   0  0  0  0  0  0  0  0  0  0  0  0
  181.8630  181.7700  138.0380 C   0  0  0  0  0  2  0  0  0  0  0  0
  180.9240  182.6930  137.2840 C   0  0  0  0  0  3  0  0  0  0  0  0
  181.6160  183.2940  136.2330 O   0  0  0  0  0  1  0  0  0  0  0  0
  180.4380  183.6820  138.1390 O   0  0  0  0  0  1  0  0  0  0  0  0
  194.1420  174.0930  136.9200 C   0  0  0  0  0  2  0  0  0  0  0  0
  195.9820  174.4280  135.2850 N   0  0  1  0  0  0  0  0  0  0  0  0
  194.5100  176.2880  135.7720 C   0  0  1  0  0  3  0  0  0  0  0  0
  196.7230  175.7060  135.2050 C   0  0  1  0  0  3  0  0  0  0  0  0
  195.4040  177.4630  134.3630 C   0  0  0  0  0  2  0  0  0  0  0  0
  195.8550  176.8210  135.5940 N   0  0  1  0  0  0  0  0  0  0  0  0
  196.9340  174.8230  136.3480 C   0  0  0  0  0  2  0  0  0  0  0  0
  194.0000  176.9140  134.4920 C   0  0  0  0  0  2  0  0  0  0  0  0
  194.6080  174.7840  135.6400 C   0  0  2  0  0  3  0  0  0  0  0  0
  1 20  1  0  0  0  0
  2 15  1  0  0  0  0
  2 13  1  0  0  0  0
  3 32  1  1  0  0  0
  3 16  1  0  0  0  0
  3 19  1  0  0  0  0
  4 10  1  0  0  0  0
  4  1  1  1  0  0  0
  4 18  1  0  0  0  0
  5 26  1  0  0  0  0
  6 22  1  0  0  0  0
  7 46  1  0  0  0  0
  7 27  1  0  0  0  0
  8 28  1  6  0  0  0
  8 12  1  0  0  0  0
  9 30  1  0  0  0  0
 10 16  1  0  0  0  0
 10 18  1  0  0  0  0
 11 23  1  0  0  0  0
 11  8  1  0  0  0  0
 12 13  2  0  0  0  0
 13 31  1  0  0  0  0
 14 27  2  0  0  0  0
 14 19  1  0  0  0  0
 17 29  1  0  0  0  0
 18 17  1  0  0  0  0
 19 26  1  0  0  0  0
 20 16  1  0  0  0  0
 21 24  1  0  0  0  0
 22  9  1  0  0  0  0
 23  2  2  0  0  0  0
 24 25  1  0  0  0  0
 25 28  1  0  0  0  0
 26  6  1  0  0  0  0
 27  5  1  0  0  0  0
 29 21  1  0  0  0  0
 30 23  1  0  0  0  0
 32 33  2  0  0  0  0
 34 21  1  0  0  0  0
 35 34  1  0  0  0  0
 36 35  1  0  0  0  0
 37 36  1  0  0  0  0
 38 39  1  0  0  0  0
 38 35  1  0  0  0  0
 39 41  2  0  0  0  0
 40 39  2  0  0  0  0
 42 39  1  0  0  0  0
 43 42  1  0  0  0  0
 43 45  1  0  0  0  0
 44 43  1  0  0  0  0
 47 54  1  0  0  0  0
 47 52  1  0  0  0  0
 49 47  1  0  0  0  0
 49 51  1  0  0  0  0
 49 52  1  0  0  0  0
 50 53  1  0  0  0  0
 50 51  1  0  0  0  0
 51 48  1  0  0  0  0
 53 48  1  0  0  0  0
 54 48  1  0  0  0  0
 54 46  1  0  0  0  0
M  END
>  <MODEL>
5

>  <REMARK>
 VINA RESULT:      -4.4      2.169      3.149
  Name = 
  10 active torsions:
  status: ('A' for Active; 'I' for Inactive)
    1  A    between atoms: C_1  and  C_46
    2  A    between atoms: N_2  and  C_5
    3  A    between atoms: C_9  and  C_34
    4  A    between atoms: C_9  and  C_40
    5  A    between atoms: S_10  and  C_13
    6  A    between atoms: S_10  and  C_46
    7  A    between atoms: C_13  and  C_34
    8  A    between atoms: C_14  and  N_19
    9  A    between atoms: C_14  and  C_53
   10  A    between atoms: C_34  and  O_37
                            x       y       z     vdW  Elec       q    Type
                         _______ _______ _______ _____ _____    ______ ____

>  <TORSDO>
F 10

$$$$
=
 OpenBabel10222421513D

 54 61  0  0  1  0  0  0  0  0999 V2000
  188.0980  176.9830  141.5200 C   0  0  0  0  0  2  0  0  0  0  0  0
  183.0690  172.3760  136.9180 C   0  0  0  0  0  0  0  0  0  0  0  0
  188.4650  178.1120  138.1190 C   0  0  1  0  0  3  0  0  0  0  0  0
  187.6810  178.4340  141.6400 C   0  0  1  0  0  3  0  0  0  0  0  0
  189.3590  175.2030  136.5090 C   0  0  0  0  0  2  0  0  0  0  0  0
  186.9910  175.1380  136.6490 O   0  0  0  0  0  0  0  0  0  0  0  0
  190.7550  176.2740  134.6360 N   0  0  0  0  0  2  0  0  0  0  0  0
  182.2920  175.1800  137.1450 C   0  0  1  0  0  3  0  0  0  0  0  0
  186.1700  172.9590  137.2230 C   0  0  0  0  0  2  0  0  0  0  0  0
  187.4820  178.9060  140.2100 C   0  0  1  0  0  3  0  0  0  0  0  0
  183.2410  174.7990  135.6360 S   0  0  0  0  0  0  0  0  0  0  0  0
  181.3390  174.0520  137.4270 C   0  0  0  0  0  3  0  0  0  0  0  0
  181.7020  172.7710  137.3340 C   0  0  0  0  0  0  0  0  0  0  0  0
  189.0710  177.4160  135.8480 N   0  0  0  0  0  0  0  0  0  0  0  0
  183.5350  171.1100  137.2580 O   0  0  0  0  0  1  0  0  0  0  0  0
  187.6530  177.7590  139.3010 N   0  0  2  0  0  0  0  0  0  0  0  0
  185.3880  177.5470  140.8840 C   0  0  0  0  0  2  0  0  0  0  0  0
  186.2700  178.7690  141.1370 C   0  0  1  0  0  3  0  0  0  0  0  0
  188.0950  177.2330  136.9080 C   0  0  1  0  0  3  0  0  0  0  0  0
  188.4270  176.7860  140.0630 C   0  0  0  0  0  2  0  0  0  0  0  0
  182.9600  178.3120  140.6690 C   0  0  1  0  0  3  0  0  0  0  0  0
  186.3980  174.3970  137.6760 C   0  0  0  0  0  2  0  0  0  0  0  0
  183.8730  173.2310  136.2610 C   0  0  0  0  0  0  0  0  0  0  0  0
  182.9020  177.6490  139.2930 C   0  0  0  0  0  2  0  0  0  0  0  0
  182.5550  176.1780  139.4280 C   0  0  0  0  0  2  0  0  0  0  0  0
  188.1190  175.7310  137.2190 C   0  0  2  0  0  3  0  0  0  0  0  0
  189.7440  176.3410  135.6430 C   0  0  0  0  0  0  0  0  0  0  0  0
  183.2360  175.4000  138.3210 C   0  0  0  0  0  2  0  0  0  0  0  0
  184.0390  177.7040  141.5820 C   0  0  0  0  0  2  0  0  0  0  0  0
  185.3020  172.8910  135.9690 C   0  0  0  0  0  2  0  0  0  0  0  0
  180.7060  171.7220  137.6940 C   0  0  0  0  0  1  0  0  0  0  0  0
  188.2960  179.5030  137.7480 N   0  0  0  0  0  0  0  0  0  0  0  0
  187.5200  179.8300  136.7810 C   0  0  0  0  0  2  0  0  0  0  0  0
  183.1370  179.8160  140.5230 C   0  0  0  0  0  2  0  0  0  0  0  0
  183.2100  180.1900  139.0490 C   0  0  2  0  0  3  0  0  0  0  0  0
  184.4890  180.6630  138.7480 O   0  0  0  0  0  0  0  0  0  0  0  0
  185.0330  179.7100  138.0210 O   0  0  0  0  0  1  0  0  0  0  0  0
  182.1920  181.2730  138.7360 C   0  0  0  0  0  2  0  0  0  0  0  0
  180.9000  180.6450  137.6800 S   0  0  0  0  0  0  0  0  0  0  0  0
  181.5240  179.8460  136.5700 O   0  0  0  0  0  0  0  0  0  0  0  0
  179.9860  179.7550  138.4760 O   0  0  0  0  0  0  0  0  0  0  0  0
  179.9820  182.0030  136.9790 C   0  0  0  0  0  2  0  0  0  0  0  0
  180.8880  183.1940  136.7260 C   0  0  0  0  0  3  0  0  0  0  0  0
  180.2410  184.3590  137.1370 O   0  0  0  0  0  1  0  0  0  0  0  0
  181.1850  183.2880  135.3670 O   0  0  0  0  0  1  0  0  0  0  0  0
  191.4970  175.0560  134.3460 C   0  0  0  0  0  2  0  0  0  0  0  0
  193.5170  173.7640  134.9980 N   0  0  1  0  0  0  0  0  0  0  0  0
  192.6800  175.4550  136.5170 C   0  0  1  0  0  3  0  0  0  0  0  0
  193.7580  173.3610  136.3990 C   0  0  1  0  0  3  0  0  0  0  0  0
  194.2500  175.1920  137.7940 C   0  0  0  0  0  2  0  0  0  0  0  0
  193.1660  174.3380  137.3180 N   0  0  1  0  0  0  0  0  0  0  0  0
  192.7040  172.7030  135.6340 C   0  0  0  0  0  2  0  0  0  0  0  0
  193.7990  176.3720  136.9620 C   0  0  0  0  0  2  0  0  0  0  0  0
  192.8450  175.0630  135.0650 C   0  0  2  0  0  3  0  0  0  0  0  0
  2 15  1  0  0  0  0
  2 13  1  0  0  0  0
  3 32  1  6  0  0  0
  3 16  1  0  0  0  0
  4  1  1  6  0  0  0
  5 26  1  0  0  0  0
  6 26  1  0  0  0  0
  6 22  1  0  0  0  0
  7 27  1  0  0  0  0
  8 12  1  1  0  0  0
  8 28  1  0  0  0  0
  9 22  1  0  0  0  0
 10 18  1  0  0  0  0
 10  4  1  0  0  0  0
 11 23  1  0  0  0  0
 11  8  1  0  0  0  0
 13 12  2  0  0  0  0
 13 31  1  0  0  0  0
 14 19  1  0  0  0  0
 16 20  1  0  0  0  0
 16 10  1  0  0  0  0
 17 18  1  0  0  0  0
 17 29  1  0  0  0  0
 18  4  1  0  0  0  0
 19 26  1  0  0  0  0
 19  3  1  0  0  0  0
 20  1  1  0  0  0  0
 21 29  1  0  0  0  0
 23  2  2  0  0  0  0
 24 25  1  0  0  0  0
 24 21  1  0  0  0  0
 27 14  2  0  0  0  0
 27  5  1  0  0  0  0
 28 25  1  0  0  0  0
 30 23  1  0  0  0  0
 30  9  1  0  0  0  0
 33 32  2  0  0  0  0
 34 21  1  0  0  0  0
 35 34  1  0  0  0  0
 36 35  1  0  0  0  0
 37 36  1  0  0  0  0
 38 35  1  0  0  0  0
 39 41  2  0  0  0  0
 39 38  1  0  0  0  0
 40 39  2  0  0  0  0
 42 39  1  0  0  0  0
 43 42  1  0  0  0  0
 43 44  1  0  0  0  0
 45 43  1  0  0  0  0
 46  7  1  0  0  0  0
 46 54  1  0  0  0  0
 47 54  1  0  0  0  0
 47 52  1  0  0  0  0
 47 49  1  0  0  0  0
 48 53  1  0  0  0  0
 48 51  1  0  0  0  0
 49 51  1  0  0  0  0
 51 50  1  0  0  0  0
 52 49  1  0  0  0  0
 53 50  1  0  0  0  0
 54 48  1  0  0  0  0
M  END
>  <MODEL>
6

>  <REMARK>
 VINA RESULT:      -2.9      3.459      6.456
  Name = 
  10 active torsions:
  status: ('A' for Active; 'I' for Inactive)
    1  A    between atoms: C_1  and  C_46
    2  A    between atoms: N_2  and  C_5
    3  A    between atoms: C_9  and  C_34
    4  A    between atoms: C_9  and  C_40
    5  A    between atoms: S_10  and  C_13
    6  A    between atoms: S_10  and  C_46
    7  A    between atoms: C_13  and  C_34
    8  A    between atoms: C_14  and  N_19
    9  A    between atoms: C_14  and  C_53
   10  A    between atoms: C_34  and  O_37
                            x       y       z     vdW  Elec       q    Type
                         _______ _______ _______ _____ _____    ______ ____

>  <TORSDO>
F 10

$$$$
=
 OpenBabel10222421513D

 54 61  0  0  1  0  0  0  0  0999 V2000
  187.4940  174.3960  137.2060 C   0  0  0  0  0  2  0  0  0  0  0  0
  189.6270  177.4850  144.5260 C   0  0  0  0  0  0  0  0  0  0  0  0
  186.8200  177.9320  137.0840 C   0  0  1  0  0  3  0  0  0  0  0  0
  188.3840  174.8310  136.0600 C   0  0  1  0  0  3  0  0  0  0  0  0
  184.6960  178.3320  139.7640 C   0  0  0  0  0  2  0  0  0  0  0  0
  186.8810  178.3790  140.6870 O   0  0  0  0  0  0  0  0  0  0  0  0
  183.3750  180.3370  138.8460 N   0  0  0  0  0  2  0  0  0  0  0  0
  191.3200  178.3270  142.3030 C   0  0  1  0  0  3  0  0  0  0  0  0
  187.0320  177.1440  142.7370 C   0  0  0  0  0  2  0  0  0  0  0  0
  188.4250  176.3460  136.1470 C   0  0  1  0  0  3  0  0  0  0  0  0
  190.0060  179.5200  142.7200 S   0  0  0  0  0  0  0  0  0  0  0  0
  191.8810  177.7480  143.5720 C   0  0  0  0  0  3  0  0  0  0  0  0
  191.1030  177.3530  144.5820 C   0  0  0  0  0  0  0  0  0  0  0  0
  185.5570  179.7520  138.1330 N   0  0  0  0  0  0  0  0  0  0  0  0
  188.8490  176.6830  145.3540 O   0  0  0  0  0  1  0  0  0  0  0  0
  187.6970  176.7750  137.3540 N   0  0  2  0  0  0  0  0  0  0  0  0
  190.0400  175.4160  137.9390 C   0  0  0  0  0  2  0  0  0  0  0  0
  189.6880  175.5360  136.4560 C   0  0  1  0  0  3  0  0  0  0  0  0
  186.6160  178.7820  138.3540 C   0  0  1  0  0  3  0  0  0  0  0  0
  186.8210  175.6570  137.6830 C   0  0  0  0  0  2  0  0  0  0  0  0
  192.4830  176.0910  138.2640 C   0  0  1  0  0  3  0  0  0  0  0  0
  187.3950  177.2110  141.2580 C   0  0  0  0  0  2  0  0  0  0  0  0
  189.0350  178.3310  143.6650 C   0  0  0  0  0  0  0  0  0  0  0  0
  192.0290  177.1450  139.2730 C   0  0  0  0  0  2  0  0  0  0  0  0
  191.8880  176.5300  140.6530 C   0  0  0  0  0  2  0  0  0  0  0  0
  186.1600  177.9610  139.5660 C   0  0  2  0  0  3  0  0  0  0  0  0
  184.5380  179.5080  138.8770 C   0  0  0  0  0  0  0  0  0  0  0  0
  190.7720  177.2300  141.4010 C   0  0  0  0  0  2  0  0  0  0  0  0
  191.4790  174.9350  138.1110 C   0  0  0  0  0  2  0  0  0  0  0  0
  187.5460  178.3630  143.5000 C   0  0  0  0  0  2  0  0  0  0  0  0
  191.7460  176.7310  145.7730 C   0  0  0  0  0  1  0  0  0  0  0  0
  187.3610  178.7830  136.0420 N   0  0  0  0  0  0  0  0  0  0  0  0
  186.8630  178.7640  134.8610 C   0  0  0  0  0  2  0  0  0  0  0  0
  192.7890  176.7420  136.9230 C   0  0  0  0  0  2  0  0  0  0  0  0
  194.2100  176.4040  136.4940 C   0  0  2  0  0  3  0  0  0  0  0  0
  194.4830  177.0020  135.2610 O   0  0  0  0  0  0  0  0  0  0  0  0
  195.3780  177.9280  135.5330 O   0  0  0  0  0  1  0  0  0  0  0  0
  194.3710  174.8990  136.3620 C   0  0  0  0  0  2  0  0  0  0  0  0
  195.6470  174.2990  137.4530 S   0  0  0  0  0  0  0  0  0  0  0  0
  195.3580  174.7760  138.8490 O   0  0  0  0  0  0  0  0  0  0  0  0
  195.6600  172.7950  137.4380 O   0  0  0  0  0  0  0  0  0  0  0  0
  197.2300  174.9330  136.9330 C   0  0  0  0  0  2  0  0  0  0  0  0
  198.2880  174.6830  137.9920 C   0  0  0  0  0  3  0  0  0  0  0  0
  198.3600  175.7880  138.8400 O   0  0  0  0  0  1  0  0  0  0  0  0
  199.5290  174.4840  137.3900 O   0  0  0  0  0  1  0  0  0  0  0  0
  182.2280  180.1160  139.7130 C   0  0  0  0  0  2  0  0  0  0  0  0
  180.2110  178.6770  139.5300 N   0  0  1  0  0  0  0  0  0  0  0  0
  181.3970  179.2770  137.5050 C   0  0  1  0  0  3  0  0  0  0  0  0
  180.1300  177.5800  138.5420 C   0  0  1  0  0  3  0  0  0  0  0  0
  180.0010  178.3640  136.3280 C   0  0  0  0  0  2  0  0  0  0  0  0
  180.9290  177.9040  137.3560 N   0  0  1  0  0  0  0  0  0  0  0  0
  181.0050  177.4400  139.7020 C   0  0  0  0  0  2  0  0  0  0  0  0
  180.4360  179.8070  136.4630 C   0  0  0  0  0  2  0  0  0  0  0  0
  180.9990  179.7330  138.8920 C   0  0  2  0  0  3  0  0  0  0  0  0
  1 20  1  0  0  0  0
  2 13  1  0  0  0  0
  2 15  1  0  0  0  0
  3 32  1  6  0  0  0
  3 16  1  0  0  0  0
  3 19  1  0  0  0  0
  4 10  1  0  0  0  0
  4 18  1  0  0  0  0
  4  1  1  1  0  0  0
  6 22  1  0  0  0  0
  7 27  1  0  0  0  0
  7 46  1  0  0  0  0
  8 28  1  6  0  0  0
  8 11  1  0  0  0  0
  8 12  1  0  0  0  0
  9 30  1  0  0  0  0
 10 18  1  0  0  0  0
 10 16  1  0  0  0  0
 11 23  1  0  0  0  0
 12 13  2  0  0  0  0
 13 31  1  0  0  0  0
 14 19  1  0  0  0  0
 14 27  2  0  0  0  0
 16 20  1  0  0  0  0
 17 29  1  0  0  0  0
 18 17  1  0  0  0  0
 19 26  1  0  0  0  0
 21 24  1  0  0  0  0
 22  9  1  0  0  0  0
 23  2  2  0  0  0  0
 24 25  1  0  0  0  0
 25 28  1  0  0  0  0
 26  5  1  0  0  0  0
 26  6  1  0  0  0  0
 27  5  1  0  0  0  0
 29 21  1  0  0  0  0
 30 23  1  0  0  0  0
 33 32  2  0  0  0  0
 34 21  1  0  0  0  0
 35 34  1  0  0  0  0
 36 37  1  0  0  0  0
 36 35  1  0  0  0  0
 38 35  1  0  0  0  0
 38 39  1  0  0  0  0
 39 40  2  0  0  0  0
 41 39  2  0  0  0  0
 42 39  1  0  0  0  0
 42 43  1  0  0  0  0
 43 44  1  0  0  0  0
 45 43  1  0  0  0  0
 47 52  1  0  0  0  0
 48 54  1  0  0  0  0
 49 47  1  0  0  0  0
 49 52  1  0  0  0  0
 50 53  1  0  0  0  0
 50 51  1  0  0  0  0
 51 48  1  0  0  0  0
 51 49  1  0  0  0  0
 53 48  1  0  0  0  0
 54 47  1  0  0  0  0
 54 46  1  0  0  0  0
M  END
>  <MODEL>
7

>  <REMARK>
 VINA RESULT:      -2.8      3.691     10.678
  Name = 
  10 active torsions:
  status: ('A' for Active; 'I' for Inactive)
    1  A    between atoms: C_1  and  C_46
    2  A    between atoms: N_2  and  C_5
    3  A    between atoms: C_9  and  C_34
    4  A    between atoms: C_9  and  C_40
    5  A    between atoms: S_10  and  C_13
    6  A    between atoms: S_10  and  C_46
    7  A    between atoms: C_13  and  C_34
    8  A    between atoms: C_14  and  N_19
    9  A    between atoms: C_14  and  C_53
   10  A    between atoms: C_34  and  O_37
                            x       y       z     vdW  Elec       q    Type
                         _______ _______ _______ _____ _____    ______ ____

>  <TORSDO>
F 10

$$$$
=
 OpenBabel10222421513D

 54 61  0  0  1  0  0  0  0  0999 V2000
  189.4090  179.2800  136.4380 C   0  0  0  0  0  2  0  0  0  0  0  0
  182.2760  179.0260  140.5290 C   0  0  0  0  0  0  0  0  0  0  0  0
  189.7190  176.6870  138.9190 C   0  0  1  0  0  3  0  0  0  0  0  0
  189.6760  178.0670  135.5710 C   0  0  1  0  0  3  0  0  0  0  0  0
  189.0340  178.4100  141.8200 C   0  0  0  0  0  2  0  0  0  0  0  0
  186.9150  177.8400  140.9170 O   0  0  0  0  0  0  0  0  0  0  0  0
  190.4620  176.9760  143.4040 N   0  0  0  0  0  2  0  0  0  0  0  0
  182.8160  176.6880  138.8680 C   0  0  1  0  0  3  0  0  0  0  0  0
  185.3350  179.6360  141.0900 C   0  0  0  0  0  2  0  0  0  0  0  0
  189.4900  176.8750  136.4940 C   0  0  1  0  0  3  0  0  0  0  0  0
  183.2770  176.4700  140.6180 S   0  0  0  0  0  0  0  0  0  0  0  0
  181.5250  177.4540  138.7900 C   0  0  0  0  0  3  0  0  0  0  0  0
  181.2860  178.5300  139.5420 C   0  0  0  0  0  0  0  0  0  0  0  0
  189.6270  176.2150  141.3220 N   0  0  0  0  0  0  0  0  0  0  0  0
  182.1990  180.3500  140.9490 O   0  0  0  0  0  1  0  0  0  0  0  0
  189.0170  177.3560  137.8040 N   0  0  2  0  0  0  0  0  0  0  0  0
  187.1400  177.6970  135.7950 C   0  0  0  0  0  2  0  0  0  0  0  0
  188.4870  177.1190  135.3620 C   0  0  1  0  0  3  0  0  0  0  0  0
  188.8340  176.6360  140.1800 C   0  0  1  0  0  3  0  0  0  0  0  0
  189.4030  178.7610  137.8520 C   0  0  0  0  0  2  0  0  0  0  0  0
  185.2700  176.2620  134.8100 C   0  0  1  0  0  3  0  0  0  0  0  0
  186.2200  178.7990  140.1730 C   0  0  0  0  0  2  0  0  0  0  0  0
  183.2610  178.2340  140.9870 C   0  0  0  0  0  0  0  0  0  0  0  0
  184.7320  176.0420  136.2240 C   0  0  0  0  0  2  0  0  0  0  0  0
  183.8140  177.1810  136.6230 C   0  0  0  0  0  2  0  0  0  0  0  0
  188.2590  178.0020  140.5740 C   0  0  2  0  0  3  0  0  0  0  0  0
  189.7360  177.1590  142.1870 C   0  0  0  0  0  0  0  0  0  0  0  0
  183.9250  177.4130  138.1160 C   0  0  0  0  0  2  0  0  0  0  0  0
  186.1070  177.5460  134.6800 C   0  0  0  0  0  2  0  0  0  0  0  0
  184.3480  178.7700  141.8680 C   0  0  0  0  0  2  0  0  0  0  0  0
  180.0030  179.2630  139.3490 C   0  0  0  0  0  1  0  0  0  0  0  0
  190.1080  175.3340  138.5740 N   0  0  0  0  0  0  0  0  0  0  0  0
  191.2930  175.0830  138.1540 C   0  0  0  0  0  2  0  0  0  0  0  0
  186.0510  175.0400  134.3470 C   0  0  0  0  0  2  0  0  0  0  0  0
  185.7160  173.8450  135.2290 C   0  0  2  0  0  3  0  0  0  0  0  0
  186.8950  173.2720  135.7100 O   0  0  0  0  0  0  0  0  0  0  0  0
  187.1160  173.8790  136.8570 O   0  0  0  0  0  1  0  0  0  0  0  0
  184.9490  172.8060  134.4290 C   0  0  0  0  0  2  0  0  0  0  0  0
  184.1140  171.6610  135.5110 S   0  0  0  0  0  0  0  0  0  0  0  0
  184.4980  170.2590  135.1270 O   0  0  0  0  0  0  0  0  0  0  0  0
  184.5310  171.9150  136.9340 O   0  0  0  0  0  0  0  0  0  0  0  0
  182.3490  171.8520  135.3430 C   0  0  0  0  0  2  0  0  0  0  0  0
  181.8790  173.1320  136.0100 C   0  0  0  0  0  3  0  0  0  0  0  0
  181.2560  172.8180  137.2180 O   0  0  0  0  0  1  0  0  0  0  0  0
  180.9720  173.7940  135.1840 O   0  0  0  0  0  1  0  0  0  0  0  0
  190.5590  178.0090  144.4250 C   0  0  0  0  0  2  0  0  0  0  0  0
  189.2270  178.5550  146.4500 N   0  0  1  0  0  0  0  0  0  0  0  0
  188.2070  177.2020  144.7200 C   0  0  1  0  0  3  0  0  0  0  0  0
  188.2900  177.5790  147.0460 C   0  0  1  0  0  3  0  0  0  0  0  0
  186.4090  177.1860  145.6870 C   0  0  0  0  0  2  0  0  0  0  0  0
  187.7470  176.6980  146.0080 N   0  0  1  0  0  0  0  0  0  0  0  0
  189.7280  177.3640  147.1720 C   0  0  0  0  0  2  0  0  0  0  0  0
  186.8440  177.7480  144.3510 C   0  0  0  0  0  2  0  0  0  0  0  0
  189.1820  178.3230  145.0050 C   0  0  2  0  0  3  0  0  0  0  0  0
  1 20  1  0  0  0  0
  2 15  1  0  0  0  0
  2 23  2  0  0  0  0
  3 32  1  6  0  0  0
  3 19  1  0  0  0  0
  4  1  1  1  0  0  0
  4 10  1  0  0  0  0
  5 27  1  0  0  0  0
  7 46  1  0  0  0  0
  8 28  1  6  0  0  0
  8 11  1  0  0  0  0
  9 30  1  0  0  0  0
 10 16  1  0  0  0  0
 11 23  1  0  0  0  0
 12  8  1  0  0  0  0
 12 13  2  0  0  0  0
 13  2  1  0  0  0  0
 14 27  2  0  0  0  0
 16 20  1  0  0  0  0
 16  3  1  0  0  0  0
 18  4  1  0  0  0  0
 18 17  1  0  0  0  0
 18 10  1  0  0  0  0
 19 26  1  0  0  0  0
 19 14  1  0  0  0  0
 21 24  1  0  0  0  0
 22  6  1  0  0  0  0
 22  9  1  0  0  0  0
 23 30  1  0  0  0  0
 24 25  1  0  0  0  0
 25 28  1  0  0  0  0
 26  6  1  0  0  0  0
 26  5  1  0  0  0  0
 27  7  1  0  0  0  0
 29 21  1  0  0  0  0
 29 17  1  0  0  0  0
 31 13  1  0  0  0  0
 33 32  2  0  0  0  0
 34 21  1  0  0  0  0
 34 35  1  0  0  0  0
 35 36  1  0  0  0  0
 36 37  1  0  0  0  0
 38 35  1  0  0  0  0
 38 39  1  0  0  0  0
 39 41  2  0  0  0  0
 40 39  2  0  0  0  0
 42 39  1  0  0  0  0
 42 43  1  0  0  0  0
 43 44  1  0  0  0  0
 45 43  1  0  0  0  0
 46 54  1  0  0  0  0
 47 49  1  0  0  0  0
 47 52  1  0  0  0  0
 48 54  1  0  0  0  0
 48 51  1  0  0  0  0
 49 52  1  0  0  0  0
 50 51  1  0  0  0  0
 51 49  1  0  0  0  0
 53 48  1  0  0  0  0
 53 50  1  0  0  0  0
 54 47  1  0  0  0  0
M  END
>  <MODEL>
8

>  <REMARK>
 VINA RESULT:      -2.7      3.784      8.392
  Name = 
  10 active torsions:
  status: ('A' for Active; 'I' for Inactive)
    1  A    between atoms: C_1  and  C_46
    2  A    between atoms: N_2  and  C_5
    3  A    between atoms: C_9  and  C_34
    4  A    between atoms: C_9  and  C_40
    5  A    between atoms: S_10  and  C_13
    6  A    between atoms: S_10  and  C_46
    7  A    between atoms: C_13  and  C_34
    8  A    between atoms: C_14  and  N_19
    9  A    between atoms: C_14  and  C_53
   10  A    between atoms: C_34  and  O_37
                            x       y       z     vdW  Elec       q    Type
                         _______ _______ _______ _____ _____    ______ ____

>  <TORSDO>
F 10

$$$$
