=
 OpenBabel10232409063D

 28 29  0  0  1  0  0  0  0  0999 V2000
  189.0660  175.4520  142.8300 C   0  0  0  0  0  2  0  0  0  0  0  0
  189.4570  176.7190  142.6900 C   0  0  0  0  0  0  0  0  0  0  0  0
  187.7830  178.4260  143.0970 O   0  0  0  0  0  0  0  0  0  0  0  0
  188.7920  177.3220  145.0990 C   0  0  2  0  0  3  0  0  0  0  0  0
  186.3170  177.6730  144.8760 C   0  0  1  0  0  3  0  0  0  0  0  0
  186.6420  177.6450  143.3720 C   0  0  0  0  0  2  0  0  0  0  0  0
  188.9290  177.7790  143.6270 C   0  0  1  0  0  3  0  0  0  0  0  0
  187.5530  177.9370  145.7460 C   0  0  0  0  0  2  0  0  0  0  0  0
  185.2190  178.5000  145.2000 O   0  0  0  0  0  0  0  0  0  0  0  0
  184.9970  178.4440  146.5870 C   0  0  0  0  0  1  0  0  0  0  0  0
  190.0420  177.6980  145.8770 C   0  0  0  0  0  2  0  0  0  0  0  0
  192.7040  175.2210  146.9260 O   0  0  0  0  0  0  0  0  0  0  0  0
  191.8630  177.0670  147.9910 O   0  0  0  0  0  1  0  0  0  0  0  0
  190.9970  176.6000  145.8720 N   0  0  0  0  0  2  0  0  0  0  0  0
  191.8570  176.3200  146.9770 C   0  0  0  0  0  0  0  0  0  0  0  0
  192.1950  177.9920  140.6590 O   0  0  0  0  0  0  0  0  0  0  0  0
  190.1880  177.1250  141.5180 N   0  0  0  0  0  0  0  0  0  0  0  0
  191.6040  177.3950  141.5970 C   0  0  0  0  0  0  0  0  0  0  0  0
  192.3370  177.0000  142.7120 O   0  0  0  0  0  1  0  0  0  0  0  0
  188.9390  176.7740  138.0150 N   0  0  0  0  0  0  0  0  0  0  0  0
  188.4620  177.9410  139.9580 C   0  0  0  0  0  3  0  0  0  0  0  0
  188.1460  177.6530  138.5460 C   0  0  0  0  0  0  0  0  0  0  0  0
  190.7290  175.5480  138.9470 O   0  0  0  0  0  0  0  0  0  0  0  0
  189.5060  177.1750  140.2500 C   0  0  0  0  0  0  0  0  0  0  0  0
  189.8330  176.4250  139.0550 C   0  0  0  0  0  0  0  0  0  0  0  0
  187.1650  178.5000  136.5660 O   0  0  0  0  0  0  0  0  0  0  0  0
  187.0510  178.2860  137.8020 C   0  0  0  0  0  0  0  0  0  0  0  0
  185.8530  178.6620  138.4720 N   0  0  0  0  0  1  0  0  0  0  0  0
  2  1  2  0  0  0  0
  3  6  1  0  0  0  0
  3  7  1  0  0  0  0
  4  8  1  0  0  0  0
  4 11  1  1  0  0  0
  5  9  1  6  0  0  0
  5  8  1  0  0  0  0
  6  5  1  0  0  0  0
  7  2  1  6  0  0  0
  7  4  1  0  0  0  0
  9 10  1  0  0  0  0
 12 15  2  0  0  0  0
 14 11  1  0  0  0  0
 14 15  1  0  0  0  0
 15 13  1  0  0  0  0
 16 18  2  0  0  0  0
 17 18  1  0  0  0  0
 17  2  1  0  0  0  0
 18 19  1  0  0  0  0
 20 22  2  0  0  0  0
 20 25  1  0  0  0  0
 21 24  2  0  0  0  0
 22 21  1  0  0  0  0
 23 25  2  0  0  0  0
 24 17  1  0  0  0  0
 25 24  1  0  0  0  0
 26 27  2  0  0  0  0
 27 28  1  0  0  0  0
 27 22  1  0  0  0  0
M  END
>  <MODEL>
1

>  <REMARK>
 VINA RESULT:      -7.3      0.000      0.000
  Name = 
  7 active torsions:
  status: ('A' for Active; 'I' for Inactive)
    1  A    between atoms: C_3  and  C_14
    2  A    between atoms: N_5  and  C_22
    3  A    between atoms: N_5  and  C_26
    4  A    between atoms: O_6  and  C_12
    5  A    between atoms: C_10  and  C_18
    6  A    between atoms: C_14  and  N_17
    7  A    between atoms: C_22  and  C_23
                            x       y       z     vdW  Elec       q    Type
                         _______ _______ _______ _____ _____    ______ ____

>  <TORSDO>
F 7

$$$$
=
 OpenBabel10232409063D

 28 29  0  0  1  0  0  0  0  0999 V2000
  189.2820  175.5440  142.9240 C   0  0  0  0  0  2  0  0  0  0  0  0
  189.3430  176.8430  143.2190 C   0  0  0  0  0  0  0  0  0  0  0  0
  190.3590  178.0420  141.3720 O   0  0  0  0  0  0  0  0  0  0  0  0
  187.8860  177.7020  141.2840 C   0  0  2  0  0  3  0  0  0  0  0  0
  189.3610  177.2750  139.3000 C   0  0  1  0  0  3  0  0  0  0  0  0
  190.4270  177.0380  140.3840 C   0  0  0  0  0  2  0  0  0  0  0  0
  189.1710  177.8730  142.1280 C   0  0  1  0  0  3  0  0  0  0  0  0
  188.1460  178.0520  139.8200 C   0  0  0  0  0  2  0  0  0  0  0  0
  189.8860  177.7990  138.0980 O   0  0  0  0  0  0  0  0  0  0  0  0
  189.0430  178.8240  137.6380 C   0  0  0  0  0  1  0  0  0  0  0  0
  186.7750  178.5710  141.8500 C   0  0  0  0  0  2  0  0  0  0  0  0
  184.2520  179.9590  139.3940 O   0  0  0  0  0  0  0  0  0  0  0  0
  184.1160  178.2030  140.8580 O   0  0  0  0  0  1  0  0  0  0  0  0
  186.1490  179.3540  140.7930 N   0  0  0  0  0  2  0  0  0  0  0  0
  184.8030  179.1380  140.3680 C   0  0  0  0  0  0  0  0  0  0  0  0
  191.6480  177.6440  145.9180 O   0  0  0  0  0  1  0  0  0  0  0  0
  189.8020  177.2700  144.5150 N   0  0  0  0  0  0  0  0  0  0  0  0
  191.2040  177.5260  144.7460 C   0  0  0  0  0  0  0  0  0  0  0  0
  192.0850  177.6460  143.6760 O   0  0  0  0  0  0  0  0  0  0  0  0
  187.7060  177.4460  147.6030 N   0  0  0  0  0  0  0  0  0  0  0  0
  187.7540  178.2810  145.4430 C   0  0  0  0  0  3  0  0  0  0  0  0
  187.0810  178.2010  146.7540 C   0  0  0  0  0  0  0  0  0  0  0  0
  189.7370  176.2560  147.4060 O   0  0  0  0  0  0  0  0  0  0  0  0
  188.8350  177.5190  145.5530 C   0  0  0  0  0  0  0  0  0  0  0  0
  188.8410  176.9810  146.8980 C   0  0  0  0  0  0  0  0  0  0  0  0
  185.8540  179.9590  147.7570 O   0  0  0  0  0  0  0  0  0  0  0  0
  185.8300  178.8960  147.0820 C   0  0  0  0  0  0  0  0  0  0  0  0
  184.5830  178.3730  146.6390 N   0  0  0  0  0  1  0  0  0  0  0  0
  1  2  2  0  0  0  0
  2 17  1  0  0  0  0
  3  7  1  0  0  0  0
  4 11  1  1  0  0  0
  4  7  1  0  0  0  0
  5  9  1  6  0  0  0
  5  8  1  0  0  0  0
  5  6  1  0  0  0  0
  6  3  1  0  0  0  0
  7  2  1  6  0  0  0
  8  4  1  0  0  0  0
 10  9  1  0  0  0  0
 12 15  2  0  0  0  0
 14 11  1  0  0  0  0
 15 14  1  0  0  0  0
 15 13  1  0  0  0  0
 17 18  1  0  0  0  0
 17 24  1  0  0  0  0
 18 16  1  0  0  0  0
 19 18  2  0  0  0  0
 21 24  2  0  0  0  0
 21 22  1  0  0  0  0
 22 27  1  0  0  0  0
 22 20  2  0  0  0  0
 24 25  1  0  0  0  0
 25 23  2  0  0  0  0
 25 20  1  0  0  0  0
 27 26  2  0  0  0  0
 28 27  1  0  0  0  0
M  END
>  <MODEL>
2

>  <REMARK>
 VINA RESULT:      -7.1      2.469      7.166
  Name = 
  7 active torsions:
  status: ('A' for Active; 'I' for Inactive)
    1  A    between atoms: C_3  and  C_14
    2  A    between atoms: N_5  and  C_22
    3  A    between atoms: N_5  and  C_26
    4  A    between atoms: O_6  and  C_12
    5  A    between atoms: C_10  and  C_18
    6  A    between atoms: C_14  and  N_17
    7  A    between atoms: C_22  and  C_23
                            x       y       z     vdW  Elec       q    Type
                         _______ _______ _______ _____ _____    ______ ____

>  <TORSDO>
F 7

$$$$
=
 OpenBabel10232409063D

 28 29  0  0  1  0  0  0  0  0999 V2000
  187.0400  176.2220  143.9200 C   0  0  0  0  0  2  0  0  0  0  0  0
  187.4280  177.3930  143.4120 C   0  0  0  0  0  0  0  0  0  0  0  0
  188.9300  178.3490  145.0590 O   0  0  0  0  0  0  0  0  0  0  0  0
  189.9630  177.0230  143.2100 C   0  0  2  0  0  3  0  0  0  0  0  0
  190.6300  176.7100  145.6090 C   0  0  1  0  0  3  0  0  0  0  0  0
  189.2070  177.2320  145.8740 C   0  0  0  0  0  2  0  0  0  0  0  0
  188.8090  177.9240  143.7100 C   0  0  1  0  0  3  0  0  0  0  0  0
  191.1300  177.0360  144.1960 C   0  0  0  0  0  2  0  0  0  0  0  0
  191.5540  177.0530  146.6210 O   0  0  0  0  0  0  0  0  0  0  0  0
  192.1400  175.8790  147.1240 C   0  0  0  0  0  1  0  0  0  0  0  0
  190.4220  177.4840  141.8360 C   0  0  0  0  0  2  0  0  0  0  0  0
  190.7640  175.3840  138.7060 O   0  0  0  0  0  0  0  0  0  0  0  0
  190.5170  177.6440  138.9810 O   0  0  0  0  0  1  0  0  0  0  0  0
  190.5290  176.3510  140.9270 N   0  0  0  0  0  2  0  0  0  0  0  0
  190.6050  176.5050  139.5100 C   0  0  0  0  0  0  0  0  0  0  0  0
  186.0170  179.7260  141.0020 O   0  0  0  0  0  1  0  0  0  0  0  0
  186.4670  178.2610  142.7820 N   0  0  0  0  0  0  0  0  0  0  0  0
  186.7080  178.7750  141.4550 C   0  0  0  0  0  0  0  0  0  0  0  0
  187.7080  178.2290  140.6560 O   0  0  0  0  0  0  0  0  0  0  0  0
  183.6780  179.0730  145.1310 N   0  0  0  0  0  0  0  0  0  0  0  0
  184.0160  178.4880  142.9160 C   0  0  0  0  0  3  0  0  0  0  0  0
  183.0810  178.8300  144.0050 C   0  0  0  0  0  0  0  0  0  0  0  0
  185.9740  179.1120  145.6830 O   0  0  0  0  0  0  0  0  0  0  0  0
  185.2260  178.5400  143.4580 C   0  0  0  0  0  0  0  0  0  0  0  0
  185.0540  178.9070  144.8480 C   0  0  0  0  0  0  0  0  0  0  0  0
  180.8850  178.0780  144.4650 O   0  0  0  0  0  0  0  0  0  0  0  0
  181.6230  178.8920  143.8500 C   0  0  0  0  0  0  0  0  0  0  0  0
  181.0340  179.8730  143.0030 N   0  0  0  0  0  1  0  0  0  0  0  0
  2  1  2  0  0  0  0
  3  6  1  0  0  0  0
  4 11  1  6  0  0  0
  4  7  1  0  0  0  0
  4  8  1  0  0  0  0
  5  6  1  0  0  0  0
  5  9  1  1  0  0  0
  7  2  1  1  0  0  0
  7  3  1  0  0  0  0
  8  5  1  0  0  0  0
  9 10  1  0  0  0  0
 12 15  2  0  0  0  0
 13 15  1  0  0  0  0
 14 11  1  0  0  0  0
 15 14  1  0  0  0  0
 16 18  1  0  0  0  0
 17  2  1  0  0  0  0
 17 24  1  0  0  0  0
 18 17  1  0  0  0  0
 19 18  2  0  0  0  0
 21 24  2  0  0  0  0
 21 22  1  0  0  0  0
 22 20  2  0  0  0  0
 24 25  1  0  0  0  0
 25 20  1  0  0  0  0
 25 23  2  0  0  0  0
 27 22  1  0  0  0  0
 27 26  2  0  0  0  0
 28 27  1  0  0  0  0
M  END
>  <MODEL>
3

>  <REMARK>
 VINA RESULT:      -6.9      2.810      6.249
  Name = 
  7 active torsions:
  status: ('A' for Active; 'I' for Inactive)
    1  A    between atoms: C_3  and  C_14
    2  A    between atoms: N_5  and  C_22
    3  A    between atoms: N_5  and  C_26
    4  A    between atoms: O_6  and  C_12
    5  A    between atoms: C_10  and  C_18
    6  A    between atoms: C_14  and  N_17
    7  A    between atoms: C_22  and  C_23
                            x       y       z     vdW  Elec       q    Type
                         _______ _______ _______ _____ _____    ______ ____

>  <TORSDO>
F 7

$$$$
=
 OpenBabel10232409063D

 28 29  0  0  1  0  0  0  0  0999 V2000
  187.2540  176.2470  143.5630 C   0  0  0  0  0  2  0  0  0  0  0  0
  187.5490  177.5460  143.4890 C   0  0  0  0  0  0  0  0  0  0  0  0
  185.9730  179.1540  142.5880 O   0  0  0  0  0  0  0  0  0  0  0  0
  185.4090  178.1210  144.7910 C   0  0  2  0  0  3  0  0  0  0  0  0
  183.7220  178.3260  142.9450 C   0  0  1  0  0  3  0  0  0  0  0  0
  184.9770  178.3100  142.0550 C   0  0  0  0  0  2  0  0  0  0  0  0
  186.4850  178.5780  143.7790 C   0  0  1  0  0  3  0  0  0  0  0  0
  184.0350  178.6660  144.4080 C   0  0  0  0  0  2  0  0  0  0  0  0
  182.6620  179.0900  142.4090 O   0  0  0  0  0  0  0  0  0  0  0  0
  181.5980  179.1060  143.3290 C   0  0  0  0  0  1  0  0  0  0  0  0
  185.7900  178.5740  146.1910 C   0  0  0  0  0  2  0  0  0  0  0  0
  188.3430  176.9660  148.4760 O   0  0  0  0  0  1  0  0  0  0  0  0
  187.6340  179.1370  148.3050 O   0  0  0  0  0  0  0  0  0  0  0  0
  186.6840  177.6080  146.8150 N   0  0  0  0  0  2  0  0  0  0  0  0
  187.5580  177.9500  147.8910 C   0  0  0  0  0  0  0  0  0  0  0  0
  190.8300  179.0990  143.2370 O   0  0  0  0  0  0  0  0  0  0  0  0
  188.7960  177.9720  142.9090 N   0  0  0  0  0  0  0  0  0  0  0  0
  189.8520  178.4900  143.7450 C   0  0  0  0  0  0  0  0  0  0  0  0
  189.8040  178.3230  145.1260 O   0  0  0  0  0  1  0  0  0  0  0  0
  189.8530  177.0260  139.4520 N   0  0  0  0  0  0  0  0  0  0  0  0
  188.3930  178.4670  140.5270 C   0  0  0  0  0  3  0  0  0  0  0  0
  188.9600  177.9480  139.2670 C   0  0  0  0  0  0  0  0  0  0  0  0
  190.6540  176.0290  141.4380 O   0  0  0  0  0  0  0  0  0  0  0  0
  189.0060  177.7970  141.4940 C   0  0  0  0  0  0  0  0  0  0  0  0
  189.9290  176.8790  140.8580 C   0  0  0  0  0  0  0  0  0  0  0  0
  187.4130  178.8840  137.7400 O   0  0  0  0  0  0  0  0  0  0  0  0
  188.5660  178.4150  137.9330 C   0  0  0  0  0  0  0  0  0  0  0  0
  189.4840  178.3390  136.8480 N   0  0  0  0  0  1  0  0  0  0  0  0
  2  1  2  0  0  0  0
  3  7  1  0  0  0  0
  4 11  1  1  0  0  0
  5  9  1  6  0  0  0
  5  8  1  0  0  0  0
  6  3  1  0  0  0  0
  6  5  1  0  0  0  0
  7  2  1  6  0  0  0
  7  4  1  0  0  0  0
  8  4  1  0  0  0  0
  9 10  1  0  0  0  0
 11 14  1  0  0  0  0
 14 15  1  0  0  0  0
 15 13  2  0  0  0  0
 15 12  1  0  0  0  0
 16 18  2  0  0  0  0
 17  2  1  0  0  0  0
 17 18  1  0  0  0  0
 18 19  1  0  0  0  0
 20 25  1  0  0  0  0
 21 24  2  0  0  0  0
 22 20  2  0  0  0  0
 22 21  1  0  0  0  0
 24 17  1  0  0  0  0
 25 23  2  0  0  0  0
 25 24  1  0  0  0  0
 26 27  2  0  0  0  0
 27 22  1  0  0  0  0
 28 27  1  0  0  0  0
M  END
>  <MODEL>
4

>  <REMARK>
 VINA RESULT:      -6.8      2.401      3.175
  Name = 
  7 active torsions:
  status: ('A' for Active; 'I' for Inactive)
    1  A    between atoms: C_3  and  C_14
    2  A    between atoms: N_5  and  C_22
    3  A    between atoms: N_5  and  C_26
    4  A    between atoms: O_6  and  C_12
    5  A    between atoms: C_10  and  C_18
    6  A    between atoms: C_14  and  N_17
    7  A    between atoms: C_22  and  C_23
                            x       y       z     vdW  Elec       q    Type
                         _______ _______ _______ _____ _____    ______ ____

>  <TORSDO>
F 7

$$$$
=
 OpenBabel10232409063D

 28 29  0  0  1  0  0  0  0  0999 V2000
  190.2120  179.2380  142.6410 C   0  0  0  0  0  2  0  0  0  0  0  0
  189.3830  178.2090  142.4630 C   0  0  0  0  0  0  0  0  0  0  0  0
  190.5320  176.2710  143.3590 O   0  0  0  0  0  0  0  0  0  0  0  0
  188.9860  177.4880  144.8980 C   0  0  2  0  0  3  0  0  0  0  0  0
  191.2870  176.7810  145.6060 C   0  0  1  0  0  3  0  0  0  0  0  0
  191.5720  176.8730  144.0970 C   0  0  0  0  0  2  0  0  0  0  0  0
  189.3660  177.0730  143.4570 C   0  0  1  0  0  3  0  0  0  0  0  0
  189.7890  176.6910  145.9240 C   0  0  0  0  0  2  0  0  0  0  0  0
  192.0570  175.7990  146.2670 O   0  0  0  0  0  0  0  0  0  0  0  0
  192.0020  176.0280  147.6530 C   0  0  0  0  0  1  0  0  0  0  0  0
  187.4950  177.2900  145.1180 C   0  0  0  0  0  2  0  0  0  0  0  0
  185.5170  179.5680  147.4030 O   0  0  0  0  0  1  0  0  0  0  0  0
  185.3120  179.1390  145.1630 O   0  0  0  0  0  0  0  0  0  0  0  0
  187.0460  178.0420  146.2810 N   0  0  0  0  0  2  0  0  0  0  0  0
  185.9250  178.9260  146.2420 C   0  0  0  0  0  0  0  0  0  0  0  0
  186.5960  178.0600  140.1260 O   0  0  0  0  0  0  0  0  0  0  0  0
  188.6770  178.0560  141.2170 N   0  0  0  0  0  0  0  0  0  0  0  0
  187.2840  178.4250  141.1160 C   0  0  0  0  0  0  0  0  0  0  0  0
  186.6820  179.1880  142.1110 O   0  0  0  0  0  1  0  0  0  0  0  0
  190.2680  177.5100  137.8810 N   0  0  0  0  0  0  0  0  0  0  0  0
  190.1070  176.4940  139.9560 C   0  0  0  0  0  3  0  0  0  0  0  0
  190.6300  176.4760  138.5760 C   0  0  0  0  0  0  0  0  0  0  0  0
  188.9840  179.4000  138.4800 O   0  0  0  0  0  0  0  0  0  0  0  0
  189.3990  177.6120  140.0530 C   0  0  0  0  0  0  0  0  0  0  0  0
  189.4800  178.2790  138.7690 C   0  0  0  0  0  0  0  0  0  0  0  0
  192.7160  175.5780  137.9110 O   0  0  0  0  0  0  0  0  0  0  0  0
  191.4730  175.4080  138.0280 C   0  0  0  0  0  0  0  0  0  0  0  0
  190.8930  174.1720  137.6250 N   0  0  0  0  0  1  0  0  0  0  0  0
  2  1  2  0  0  0  0
  3  7  1  0  0  0  0
  3  6  1  0  0  0  0
  4 11  1  1  0  0  0
  4  8  1  0  0  0  0
  5  8  1  0  0  0  0
  5  9  1  6  0  0  0
  6  5  1  0  0  0  0
  7  2  1  6  0  0  0
  7  4  1  0  0  0  0
  9 10  1  0  0  0  0
 11 14  1  0  0  0  0
 13 15  2  0  0  0  0
 15 14  1  0  0  0  0
 15 12  1  0  0  0  0
 16 18  2  0  0  0  0
 17  2  1  0  0  0  0
 18 17  1  0  0  0  0
 18 19  1  0  0  0  0
 20 22  2  0  0  0  0
 20 25  1  0  0  0  0
 21 24  2  0  0  0  0
 22 21  1  0  0  0  0
 23 25  2  0  0  0  0
 24 17  1  0  0  0  0
 25 24  1  0  0  0  0
 26 27  2  0  0  0  0
 27 22  1  0  0  0  0
 28 27  1  0  0  0  0
M  END
>  <MODEL>
5

>  <REMARK>
 VINA RESULT:      -6.7      1.974      4.773
  Name = 
  7 active torsions:
  status: ('A' for Active; 'I' for Inactive)
    1  A    between atoms: C_3  and  C_14
    2  A    between atoms: N_5  and  C_22
    3  A    between atoms: N_5  and  C_26
    4  A    between atoms: O_6  and  C_12
    5  A    between atoms: C_10  and  C_18
    6  A    between atoms: C_14  and  N_17
    7  A    between atoms: C_22  and  C_23
                            x       y       z     vdW  Elec       q    Type
                         _______ _______ _______ _____ _____    ______ ____

>  <TORSDO>
F 7

$$$$
=
 OpenBabel10232409063D

 28 29  0  0  1  0  0  0  0  0999 V2000
  187.9030  179.4360  141.9060 C   0  0  0  0  0  2  0  0  0  0  0  0
  187.9650  178.1960  142.3910 C   0  0  0  0  0  0  0  0  0  0  0  0
  187.1490  177.2610  144.4750 O   0  0  0  0  0  0  0  0  0  0  0  0
  185.4890  178.4510  143.0350 C   0  0  2  0  0  3  0  0  0  0  0  0
  185.6410  178.8550  145.5080 C   0  0  1  0  0  3  0  0  0  0  0  0
  187.0980  178.4050  145.2980 C   0  0  0  0  0  2  0  0  0  0  0  0
  186.7920  177.6240  143.1510 C   0  0  1  0  0  3  0  0  0  0  0  0
  184.7190  178.4390  144.3540 C   0  0  0  0  0  2  0  0  0  0  0  0
  185.1260  178.5240  146.7800 O   0  0  0  0  0  0  0  0  0  0  0  0
  186.1820  178.4850  147.7070 C   0  0  0  0  0  1  0  0  0  0  0  0
  184.6270  177.9050  141.9090 C   0  0  0  0  0  2  0  0  0  0  0  0
  184.1900  180.2970  139.0090 O   0  0  0  0  0  0  0  0  0  0  0  0
  185.7400  178.6530  139.3820 O   0  0  0  0  0  1  0  0  0  0  0  0
  184.1490  178.9870  141.0610 N   0  0  0  0  0  2  0  0  0  0  0  0
  184.7320  179.2870  139.7920 C   0  0  0  0  0  0  0  0  0  0  0  0
  190.6080  175.9420  141.3060 O   0  0  0  0  0  1  0  0  0  0  0  0
  189.2170  177.4850  142.4020 N   0  0  0  0  0  0  0  0  0  0  0  0
  189.6610  176.7690  141.2300 C   0  0  0  0  0  0  0  0  0  0  0  0
  189.0490  176.9810  139.9980 O   0  0  0  0  0  0  0  0  0  0  0  0
  191.5530  178.3810  145.1760 N   0  0  0  0  0  0  0  0  0  0  0  0
  190.2690  176.5970  144.4470 C   0  0  0  0  0  3  0  0  0  0  0  0
  191.2120  177.1570  145.4340 C   0  0  0  0  0  0  0  0  0  0  0  0
  190.8710  179.8420  143.4500 O   0  0  0  0  0  0  0  0  0  0  0  0
  190.0590  177.5680  143.5680 C   0  0  0  0  0  0  0  0  0  0  0  0
  190.8470  178.7070  143.9940 C   0  0  0  0  0  0  0  0  0  0  0  0
  191.6530  176.9200  147.7470 O   0  0  0  0  0  0  0  0  0  0  0  0
  191.7250  176.4190  146.5940 C   0  0  0  0  0  0  0  0  0  0  0  0
  192.3070  175.1310  146.4240 N   0  0  0  0  0  1  0  0  0  0  0  0
  1  2  2  0  0  0  0
  2 17  1  0  0  0  0
  3  6  1  0  0  0  0
  4 11  1  6  0  0  0
  4  7  1  0  0  0  0
  4  8  1  0  0  0  0
  5  9  1  1  0  0  0
  6  5  1  0  0  0  0
  7  2  1  1  0  0  0
  7  3  1  0  0  0  0
  8  5  1  0  0  0  0
  9 10  1  0  0  0  0
 12 15  2  0  0  0  0
 13 15  1  0  0  0  0
 14 11  1  0  0  0  0
 15 14  1  0  0  0  0
 17 24  1  0  0  0  0
 18 16  1  0  0  0  0
 18 17  1  0  0  0  0
 19 18  2  0  0  0  0
 20 22  2  0  0  0  0
 21 22  1  0  0  0  0
 22 27  1  0  0  0  0
 23 25  2  0  0  0  0
 24 25  1  0  0  0  0
 24 21  2  0  0  0  0
 25 20  1  0  0  0  0
 27 26  2  0  0  0  0
 28 27  1  0  0  0  0
M  END
>  <MODEL>
6

>  <REMARK>
 VINA RESULT:      -6.5      2.133      6.546
  Name = 
  7 active torsions:
  status: ('A' for Active; 'I' for Inactive)
    1  A    between atoms: C_3  and  C_14
    2  A    between atoms: N_5  and  C_22
    3  A    between atoms: N_5  and  C_26
    4  A    between atoms: O_6  and  C_12
    5  A    between atoms: C_10  and  C_18
    6  A    between atoms: C_14  and  N_17
    7  A    between atoms: C_22  and  C_23
                            x       y       z     vdW  Elec       q    Type
                         _______ _______ _______ _____ _____    ______ ____

>  <TORSDO>
F 7

$$$$
=
 OpenBabel10232409063D

 28 29  0  0  1  0  0  0  0  0999 V2000
  191.6370  177.4910  140.0590 C   0  0  0  0  0  2  0  0  0  0  0  0
  190.3650  177.1230  139.9000 C   0  0  0  0  0  0  0  0  0  0  0  0
  190.0750  175.8980  141.9720 O   0  0  0  0  0  0  0  0  0  0  0  0
  188.9870  178.1410  141.8160 C   0  0  2  0  0  3  0  0  0  0  0  0
  190.3090  177.4380  143.8300 C   0  0  1  0  0  3  0  0  0  0  0  0
  191.0170  176.5290  142.8110 C   0  0  0  0  0  2  0  0  0  0  0  0
  189.4980  176.8640  141.1090 C   0  0  1  0  0  3  0  0  0  0  0  0
  188.9510  177.9470  143.3310 C   0  0  0  0  0  2  0  0  0  0  0  0
  190.2560  176.8930  145.1310 O   0  0  0  0  0  0  0  0  0  0  0  0
  191.5670  176.7130  145.6070 C   0  0  0  0  0  1  0  0  0  0  0  0
  187.6080  178.5070  141.2930 C   0  0  0  0  0  2  0  0  0  0  0  0
  184.3160  178.3620  143.1540 O   0  0  0  0  0  1  0  0  0  0  0  0
  184.9070  179.4480  141.2250 O   0  0  0  0  0  0  0  0  0  0  0  0
  186.5910  178.2340  142.2980 N   0  0  0  0  0  2  0  0  0  0  0  0
  185.2490  178.7090  142.1860 C   0  0  0  0  0  0  0  0  0  0  0  0
  190.3270  175.6160  136.5880 O   0  0  0  0  0  0  0  0  0  0  0  0
  189.8790  176.7450  138.5980 N   0  0  0  0  0  0  0  0  0  0  0  0
  190.5870  175.7630  137.8110 C   0  0  0  0  0  0  0  0  0  0  0  0
  191.5670  174.9650  138.3930 O   0  0  0  0  0  1  0  0  0  0  0  0
  187.0240  178.8080  137.3540 N   0  0  0  0  0  0  0  0  0  0  0  0
  187.4900  176.6340  138.0000 C   0  0  0  0  0  3  0  0  0  0  0  0
  186.5130  177.6260  137.5130 C   0  0  0  0  0  0  0  0  0  0  0  0
  189.2320  179.5890  137.6590 O   0  0  0  0  0  0  0  0  0  0  0  0
  188.6330  177.2950  138.1290 C   0  0  0  0  0  0  0  0  0  0  0  0
  188.3810  178.6640  137.7290 C   0  0  0  0  0  0  0  0  0  0  0  0
  184.2230  177.5490  138.1010 O   0  0  0  0  0  0  0  0  0  0  0  0
  185.1050  177.3270  137.2300 C   0  0  0  0  0  0  0  0  0  0  0  0
  184.7270  176.7810  135.9710 N   0  0  0  0  0  1  0  0  0  0  0  0
  2  1  2  0  0  0  0
  3  6  1  0  0  0  0
  4 11  1  6  0  0  0
  4  8  1  0  0  0  0
  5  9  1  1  0  0  0
  6  5  1  0  0  0  0
  7  2  1  6  0  0  0
  7  4  1  0  0  0  0
  7  3  1  0  0  0  0
  8  5  1  0  0  0  0
  9 10  1  0  0  0  0
 11 14  1  0  0  0  0
 13 15  2  0  0  0  0
 15 14  1  0  0  0  0
 15 12  1  0  0  0  0
 16 18  2  0  0  0  0
 17  2  1  0  0  0  0
 18 19  1  0  0  0  0
 18 17  1  0  0  0  0
 20 22  2  0  0  0  0
 20 25  1  0  0  0  0
 21 24  2  0  0  0  0
 22 21  1  0  0  0  0
 23 25  2  0  0  0  0
 24 17  1  0  0  0  0
 25 24  1  0  0  0  0
 27 22  1  0  0  0  0
 27 26  2  0  0  0  0
 28 27  1  0  0  0  0
M  END
>  <MODEL>
7

>  <REMARK>
 VINA RESULT:      -6.4      2.530      4.876
  Name = 
  7 active torsions:
  status: ('A' for Active; 'I' for Inactive)
    1  A    between atoms: C_3  and  C_14
    2  A    between atoms: N_5  and  C_22
    3  A    between atoms: N_5  and  C_26
    4  A    between atoms: O_6  and  C_12
    5  A    between atoms: C_10  and  C_18
    6  A    between atoms: C_14  and  N_17
    7  A    between atoms: C_22  and  C_23
                            x       y       z     vdW  Elec       q    Type
                         _______ _______ _______ _____ _____    ______ ____

>  <TORSDO>
F 7

$$$$
=
 OpenBabel10232409063D

 28 29  0  0  1  0  0  0  0  0999 V2000
  192.0020  177.7150  140.6970 C   0  0  0  0  0  2  0  0  0  0  0  0
  190.8200  177.3270  140.2170 C   0  0  0  0  0  0  0  0  0  0  0  0
  190.1550  175.8830  142.0480 O   0  0  0  0  0  0  0  0  0  0  0  0
  188.9800  178.0780  141.8470 C   0  0  2  0  0  3  0  0  0  0  0  0
  189.8600  177.2340  144.0400 C   0  0  1  0  0  3  0  0  0  0  0  0
  190.8390  176.4670  143.1340 C   0  0  0  0  0  2  0  0  0  0  0  0
  189.7230  176.9050  141.1650 C   0  0  1  0  0  3  0  0  0  0  0  0
  188.6170  177.7280  143.2880 C   0  0  0  0  0  2  0  0  0  0  0  0
  189.5530  176.5550  145.2400 O   0  0  0  0  0  0  0  0  0  0  0  0
  189.2990  177.5000  146.2490 C   0  0  0  0  0  1  0  0  0  0  0  0
  187.7320  178.4320  141.0540 C   0  0  0  0  0  2  0  0  0  0  0  0
  184.2390  179.0300  142.3820 O   0  0  0  0  0  1  0  0  0  0  0  0
  185.1860  179.5370  140.3600 O   0  0  0  0  0  0  0  0  0  0  0  0
  186.5730  178.5060  141.9320 N   0  0  0  0  0  2  0  0  0  0  0  0
  185.3190  179.0430  141.5100 C   0  0  0  0  0  0  0  0  0  0  0  0
  189.4010  177.5200  136.8710 O   0  0  0  0  0  0  0  0  0  0  0  0
  190.6560  177.0820  138.8070 N   0  0  0  0  0  0  0  0  0  0  0  0
  189.7440  177.8840  138.0270 C   0  0  0  0  0  0  0  0  0  0  0  0
  189.2300  179.0710  138.5410 O   0  0  0  0  0  1  0  0  0  0  0  0
  192.1670  174.0870  137.1620 N   0  0  0  0  0  0  0  0  0  0  0  0
  192.7740  176.1920  137.9130 C   0  0  0  0  0  3  0  0  0  0  0  0
  193.1580  174.9150  137.2820 C   0  0  0  0  0  0  0  0  0  0  0  0
  189.8850  174.3200  137.7270 O   0  0  0  0  0  0  0  0  0  0  0  0
  191.4770  176.0840  138.1710 C   0  0  0  0  0  0  0  0  0  0  0  0
  191.0590  174.7760  137.7100 C   0  0  0  0  0  0  0  0  0  0  0  0
  194.6940  173.8940  135.7990 O   0  0  0  0  0  0  0  0  0  0  0  0
  194.5170  174.5950  136.8300 C   0  0  0  0  0  0  0  0  0  0  0  0
  195.6450  175.0730  137.5560 N   0  0  0  0  0  1  0  0  0  0  0  0
  2  1  2  0  0  0  0
  3  6  1  0  0  0  0
  4 11  1  6  0  0  0
  4  8  1  0  0  0  0
  5  9  1  1  0  0  0
  6  5  1  0  0  0  0
  7  2  1  1  0  0  0
  7  4  1  0  0  0  0
  7  3  1  0  0  0  0
  8  5  1  0  0  0  0
  9 10  1  0  0  0  0
 11 14  1  0  0  0  0
 13 15  2  0  0  0  0
 15 14  1  0  0  0  0
 15 12  1  0  0  0  0
 16 18  2  0  0  0  0
 17  2  1  0  0  0  0
 18 19  1  0  0  0  0
 18 17  1  0  0  0  0
 20 22  2  0  0  0  0
 20 25  1  0  0  0  0
 21 24  2  0  0  0  0
 22 21  1  0  0  0  0
 24 17  1  0  0  0  0
 25 23  2  0  0  0  0
 25 24  1  0  0  0  0
 26 27  2  0  0  0  0
 27 22  1  0  0  0  0
 27 28  1  0  0  0  0
M  END
>  <MODEL>
8

>  <REMARK>
 VINA RESULT:      -6.4      3.053      5.787
  Name = 
  7 active torsions:
  status: ('A' for Active; 'I' for Inactive)
    1  A    between atoms: C_3  and  C_14
    2  A    between atoms: N_5  and  C_22
    3  A    between atoms: N_5  and  C_26
    4  A    between atoms: O_6  and  C_12
    5  A    between atoms: C_10  and  C_18
    6  A    between atoms: C_14  and  N_17
    7  A    between atoms: C_22  and  C_23
                            x       y       z     vdW  Elec       q    Type
                         _______ _______ _______ _____ _____    ______ ____

>  <TORSDO>
F 7

$$$$
=
 OpenBabel10232409063D

 28 29  0  0  1  0  0  0  0  0999 V2000
  190.5230  179.3730  143.5640 C   0  0  0  0  0  2  0  0  0  0  0  0
  190.1090  178.1990  143.0850 C   0  0  0  0  0  0  0  0  0  0  0  0
  190.8150  176.2990  144.4160 O   0  0  0  0  0  0  0  0  0  0  0  0
  188.8070  177.5580  145.2060 C   0  0  2  0  0  3  0  0  0  0  0  0
  190.6580  176.8880  146.7630 C   0  0  1  0  0  3  0  0  0  0  0  0
  191.4980  176.9310  145.4740 C   0  0  0  0  0  2  0  0  0  0  0  0
  189.7060  177.0970  144.0340 C   0  0  1  0  0  3  0  0  0  0  0  0
  189.1510  176.8000  146.4870 C   0  0  0  0  0  2  0  0  0  0  0  0
  191.1100  175.9330  147.6990 O   0  0  0  0  0  0  0  0  0  0  0  0
  192.4740  175.6790  147.4740 C   0  0  0  0  0  1  0  0  0  0  0  0
  187.3440  177.3590  144.8470 C   0  0  0  0  0  2  0  0  0  0  0  0
  184.5660  178.6520  147.0670 O   0  0  0  0  0  1  0  0  0  0  0  0
  185.0980  179.1310  144.8920 O   0  0  0  0  0  0  0  0  0  0  0  0
  186.4940  177.6200  145.9990 N   0  0  0  0  0  2  0  0  0  0  0  0
  185.3660  178.4940  145.9440 C   0  0  0  0  0  0  0  0  0  0  0  0
  191.7510  177.3420  139.9520 O   0  0  0  0  0  0  0  0  0  0  0  0
  190.2660  177.8930  141.6860 N   0  0  0  0  0  0  0  0  0  0  0  0
  191.5150  177.3680  141.1890 C   0  0  0  0  0  0  0  0  0  0  0  0
  192.4770  176.8820  142.0690 O   0  0  0  0  0  1  0  0  0  0  0  0
  186.9780  178.4930  140.0170 N   0  0  0  0  0  0  0  0  0  0  0  0
  189.1060  177.7300  139.5170 C   0  0  0  0  0  3  0  0  0  0  0  0
  187.7330  178.0320  139.0690 C   0  0  0  0  0  0  0  0  0  0  0  0
  187.4590  178.9700  142.2800 O   0  0  0  0  0  0  0  0  0  0  0  0
  189.1340  178.0380  140.8070 C   0  0  0  0  0  0  0  0  0  0  0  0
  187.8150  178.5250  141.1570 C   0  0  0  0  0  0  0  0  0  0  0  0
  187.0590  178.8300  136.9450 O   0  0  0  0  0  0  0  0  0  0  0  0
  187.2540  177.8370  137.6950 C   0  0  0  0  0  0  0  0  0  0  0  0
  187.0040  176.5250  137.2030 N   0  0  0  0  0  1  0  0  0  0  0  0
  2  1  2  0  0  0  0
  3  6  1  0  0  0  0
  4 11  1  6  0  0  0
  4  8  1  0  0  0  0
  5  9  1  1  0  0  0
  6  5  1  0  0  0  0
  7  2  1  1  0  0  0
  7  3  1  0  0  0  0
  7  4  1  0  0  0  0
  8  5  1  0  0  0  0
 10  9  1  0  0  0  0
 11 14  1  0  0  0  0
 13 15  2  0  0  0  0
 15 14  1  0  0  0  0
 15 12  1  0  0  0  0
 16 18  2  0  0  0  0
 17  2  1  0  0  0  0
 18 17  1  0  0  0  0
 18 19  1  0  0  0  0
 20 25  1  0  0  0  0
 21 24  2  0  0  0  0
 22 21  1  0  0  0  0
 22 20  2  0  0  0  0
 24 25  1  0  0  0  0
 24 17  1  0  0  0  0
 25 23  2  0  0  0  0
 26 27  2  0  0  0  0
 27 22  1  0  0  0  0
 28 27  1  0  0  0  0
M  END
>  <MODEL>
9

>  <REMARK>
 VINA RESULT:      -6.4      1.555      4.187
  Name = 
  7 active torsions:
  status: ('A' for Active; 'I' for Inactive)
    1  A    between atoms: C_3  and  C_14
    2  A    between atoms: N_5  and  C_22
    3  A    between atoms: N_5  and  C_26
    4  A    between atoms: O_6  and  C_12
    5  A    between atoms: C_10  and  C_18
    6  A    between atoms: C_14  and  N_17
    7  A    between atoms: C_22  and  C_23
                            x       y       z     vdW  Elec       q    Type
                         _______ _______ _______ _____ _____    ______ ____

>  <TORSDO>
F 7

$$$$
