=
 OpenBabel10232407543D

 26 29  0  0  0  0  0  0  0  0999 V2000
  187.4250  178.3020  147.8680 C   0  0  0  0  0  3  0  0  0  0  0  0
  188.2030  177.2600  145.2480 C   0  0  0  0  0  0  0  0  0  0  0  0
  183.5870  179.0800  145.1950 C   0  0  0  0  0  3  0  0  0  0  0  0
  186.5360  178.2650  146.8800 C   0  0  0  0  0  0  0  0  0  0  0  0
  189.1130  177.2780  146.2330 C   0  0  0  0  0  3  0  0  0  0  0  0
  185.2140  178.7890  146.9130 N   0  0  0  0  0  0  0  0  0  0  0  0
  185.5420  177.9640  143.4720 C   0  0  0  0  0  3  0  0  0  0  0  0
  186.8620  177.8090  145.5520 C   0  0  0  0  0  0  0  0  0  0  0  0
  183.3250  178.9260  143.8250 C   0  0  0  0  0  0  0  0  0  0  0  0
  185.7820  178.1030  144.8370 C   0  0  0  0  0  0  0  0  0  0  0  0
  188.8440  177.8250  147.6290 C   0  0  0  0  0  2  0  0  0  0  0  0
  184.8270  178.6660  145.6820 C   0  0  0  0  0  0  0  0  0  0  0  0
  184.2980  178.3770  142.9680 C   0  0  0  0  0  3  0  0  0  0  0  0
  182.0990  179.3240  143.3090 O   0  0  0  0  0  1  0  0  0  0  0  0
  188.5630  176.6650  143.9990 N   0  0  0  0  0  2  0  0  0  0  0  0
  188.1380  177.8100  139.0500 C   0  0  0  0  0  1  0  0  0  0  0  0
  190.5550  177.5720  139.4690 N   0  0  0  0  0  0  0  0  0  0  0  0
  189.0660  177.2620  141.2660 N   0  0  0  0  0  0  0  0  0  0  0  0
  189.2860  177.5410  139.9540 C   0  0  0  0  0  0  0  0  0  0  0  0
  189.8640  176.7120  143.4830 N   0  0  0  0  0  2  0  0  0  0  0  0
  191.6180  177.3310  140.2810 C   0  0  0  0  0  0  0  0  0  0  0  0
  191.4110  177.0370  141.6290 C   0  0  0  0  0  3  0  0  0  0  0  0
  190.1020  177.0100  142.1100 C   0  0  0  0  0  0  0  0  0  0  0  0
  193.0010  177.3490  139.7240 C   0  0  0  0  0  2  0  0  0  0  0  0
  193.0660  176.5900  138.4080 C   0  0  0  0  0  2  0  0  0  0  0  0
  194.2770  175.7890  138.3530 N   0  0  0  0  0  1  0  0  0  0  0  0
  2  8  1  0  0  0  0
  2  5  2  0  0  0  0
  3 12  1  0  0  0  0
  4  6  1  0  0  0  0
  4  1  2  0  0  0  0
  5 11  1  0  0  0  0
  7 10  1  0  0  0  0
  8  4  1  0  0  0  0
  9  3  2  0  0  0  0
 10  8  2  0  0  0  0
 10 12  1  0  0  0  0
 11  1  1  0  0  0  0
 12  6  2  0  0  0  0
 13  7  2  0  0  0  0
 13  9  1  0  0  0  0
 14  9  1  0  0  0  0
 15  2  1  0  0  0  0
 16 19  1  0  0  0  0
 17 19  2  0  0  0  0
 17 21  1  0  0  0  0
 18 23  2  0  0  0  0
 19 18  1  0  0  0  0
 20 15  1  0  0  0  0
 21 22  2  0  0  0  0
 22 23  1  0  0  0  0
 23 20  1  0  0  0  0
 24 21  1  0  0  0  0
 25 24  1  0  0  0  0
 26 25  1  0  0  0  0
M  END
>  <MODEL>
1

>  <REMARK>
 VINA RESULT:     -10.0      0.000      0.000
  Name = 
  4 active torsions:
  status: ('A' for Active; 'I' for Inactive)
    1  A    between atoms: C_2  and  N_4
    2  A    between atoms: N_4  and  N_10
    3  A    between atoms: C_13  and  C_23
    4  A    between atoms: C_17  and  C_23
                            x       y       z     vdW  Elec       q    Type
                         _______ _______ _______ _____ _____    ______ ____

>  <TORSDO>
F 4

$$$$
=
 OpenBabel10232407543D

 26 29  0  0  0  0  0  0  0  0999 V2000
  190.5370  177.0460  146.8830 C   0  0  0  0  0  3  0  0  0  0  0  0
  189.8960  176.6100  144.0630 C   0  0  0  0  0  0  0  0  0  0  0  0
  186.0000  178.3840  146.5700 C   0  0  0  0  0  3  0  0  0  0  0  0
  189.2920  177.2260  146.4520 C   0  0  0  0  0  0  0  0  0  0  0  0
  191.1560  176.4120  144.4780 C   0  0  0  0  0  3  0  0  0  0  0  0
  188.1990  177.7250  147.2120 N   0  0  0  0  0  2  0  0  0  0  0  0
  186.8030  177.6800  143.9440 C   0  0  0  0  0  3  0  0  0  0  0  0
  188.9150  177.0740  145.0690 C   0  0  0  0  0  0  0  0  0  0  0  0
  185.1160  178.5350  145.4900 C   0  0  0  0  0  0  0  0  0  0  0  0
  187.6630  177.5160  145.0280 C   0  0  0  0  0  0  0  0  0  0  0  0
  191.6250  176.6370  145.9090 C   0  0  0  0  0  3  0  0  0  0  0  0
  187.2740  177.8760  146.3160 C   0  0  0  0  0  0  0  0  0  0  0  0
  185.5170  178.1910  144.1840 C   0  0  0  0  0  3  0  0  0  0  0  0
  183.8400  179.0340  145.7090 O   0  0  0  0  0  1  0  0  0  0  0  0
  189.5720  176.3050  142.7040 N   0  0  0  0  0  2  0  0  0  0  0  0
  191.6850  175.3000  138.1760 C   0  0  0  0  0  1  0  0  0  0  0  0
  190.2540  177.2740  137.8140 N   0  0  0  0  0  0  0  0  0  0  0  0
  190.3450  176.3290  139.9690 N   0  0  0  0  0  0  0  0  0  0  0  0
  190.7330  176.3300  138.6670 C   0  0  0  0  0  0  0  0  0  0  0  0
  189.0800  177.2620  141.8080 N   0  0  0  0  0  2  0  0  0  0  0  0
  189.3810  178.2230  138.2440 C   0  0  0  0  0  0  0  0  0  0  0  0
  188.9760  178.2410  139.5790 C   0  0  0  0  0  3  0  0  0  0  0  0
  189.4780  177.2650  140.4400 C   0  0  0  0  0  0  0  0  0  0  0  0
  188.8830  179.2610  137.2980 C   0  0  0  0  0  2  0  0  0  0  0  0
  187.6770  178.7560  136.5220 C   0  0  0  0  0  2  0  0  0  0  0  0
  186.5130  178.6960  137.3900 N   0  0  0  0  0  1  0  0  0  0  0  0
  2  5  2  0  0  0  0
  2  8  1  0  0  0  0
  4  1  1  0  0  0  0
  4  6  1  0  0  0  0
  5 11  1  0  0  0  0
  7 13  2  0  0  0  0
  7 10  1  0  0  0  0
  8  4  2  0  0  0  0
  9 14  1  0  0  0  0
  9  3  2  0  0  0  0
 10  8  1  0  0  0  0
 10 12  2  0  0  0  0
 11  1  2  0  0  0  0
 12  3  1  0  0  0  0
 12  6  1  0  0  0  0
 13  9  1  0  0  0  0
 15  2  1  0  0  0  0
 16 19  1  0  0  0  0
 17 21  1  0  0  0  0
 17 19  2  0  0  0  0
 18 23  2  0  0  0  0
 19 18  1  0  0  0  0
 20 15  1  0  0  0  0
 21 22  2  0  0  0  0
 22 23  1  0  0  0  0
 23 20  1  0  0  0  0
 24 21  1  0  0  0  0
 25 24  1  0  0  0  0
 25 26  1  0  0  0  0
M  END
>  <MODEL>
2

>  <REMARK>
 VINA RESULT:      -9.7      1.928      3.379
  Name = 
  4 active torsions:
  status: ('A' for Active; 'I' for Inactive)
    1  A    between atoms: C_2  and  N_4
    2  A    between atoms: N_4  and  N_10
    3  A    between atoms: C_13  and  C_23
    4  A    between atoms: C_17  and  C_23
                            x       y       z     vdW  Elec       q    Type
                         _______ _______ _______ _____ _____    ______ ____

>  <TORSDO>
F 4

$$$$
=
 OpenBabel10232407543D

 26 29  0  0  0  0  0  0  0  0999 V2000
  189.9870  177.1820  147.1160 C   0  0  0  0  0  3  0  0  0  0  0  0
  189.5430  176.9700  144.2340 C   0  0  0  0  0  0  0  0  0  0  0  0
  185.4550  178.4770  146.6050 C   0  0  0  0  0  3  0  0  0  0  0  0
  188.7700  177.3790  146.6180 C   0  0  0  0  0  0  0  0  0  0  0  0
  190.7760  176.7560  144.7160 C   0  0  0  0  0  3  0  0  0  0  0  0
  187.6190  177.7990  147.3390 N   0  0  0  0  0  2  0  0  0  0  0  0
  186.4440  178.0030  143.9910 C   0  0  0  0  0  3  0  0  0  0  0  0
  188.4880  177.3360  145.2050 C   0  0  0  0  0  0  0  0  0  0  0  0
  184.6420  178.7040  145.4830 C   0  0  0  0  0  0  0  0  0  0  0  0
  187.2340  177.7620  145.1140 C   0  0  0  0  0  0  0  0  0  0  0  0
  191.1450  176.8700  146.1890 C   0  0  0  0  0  3  0  0  0  0  0  0
  186.7530  178.0100  146.3980 C   0  0  0  0  0  0  0  0  0  0  0  0
  185.1360  178.4740  144.1840 C   0  0  0  0  0  3  0  0  0  0  0  0
  183.3440  179.1650  145.6550 O   0  0  0  0  0  1  0  0  0  0  0  0
  189.3160  176.7730  142.8360 N   0  0  0  0  0  2  0  0  0  0  0  0
  187.4680  177.9070  138.2220 C   0  0  0  0  0  1  0  0  0  0  0  0
  189.7990  177.2000  137.8460 N   0  0  0  0  0  0  0  0  0  0  0  0
  188.9710  177.2190  140.0500 N   0  0  0  0  0  0  0  0  0  0  0  0
  188.7850  177.4290  138.7200 C   0  0  0  0  0  0  0  0  0  0  0  0
  190.3530  176.5530  141.9210 N   0  0  0  0  0  2  0  0  0  0  0  0
  191.0110  176.7650  138.2830 C   0  0  0  0  0  0  0  0  0  0  0  0
  191.2190  176.5380  139.6430 C   0  0  0  0  0  3  0  0  0  0  0  0
  190.1660  176.7780  140.5260 C   0  0  0  0  0  0  0  0  0  0  0  0
  192.1050  176.5000  137.3050 C   0  0  0  0  0  2  0  0  0  0  0  0
  192.8570  175.2280  137.6620 C   0  0  0  0  0  2  0  0  0  0  0  0
  194.2570  175.5260  137.9050 N   0  0  0  0  0  1  0  0  0  0  0  0
  2  5  2  0  0  0  0
  2  8  1  0  0  0  0
  4  1  1  0  0  0  0
  4  6  1  0  0  0  0
  5 11  1  0  0  0  0
  7 13  2  0  0  0  0
  7 10  1  0  0  0  0
  8  4  2  0  0  0  0
  9 14  1  0  0  0  0
  9  3  2  0  0  0  0
 10  8  1  0  0  0  0
 10 12  2  0  0  0  0
 11  1  2  0  0  0  0
 12  3  1  0  0  0  0
 12  6  1  0  0  0  0
 13  9  1  0  0  0  0
 15  2  1  0  0  0  0
 16 19  1  0  0  0  0
 17 21  1  0  0  0  0
 17 19  2  0  0  0  0
 18 23  2  0  0  0  0
 19 18  1  0  0  0  0
 20 15  1  0  0  0  0
 21 22  2  0  0  0  0
 22 23  1  0  0  0  0
 23 20  1  0  0  0  0
 24 25  1  0  0  0  0
 24 21  1  0  0  0  0
 25 26  1  0  0  0  0
M  END
>  <MODEL>
3

>  <REMARK>
 VINA RESULT:      -9.5      1.448      1.984
  Name = 
  4 active torsions:
  status: ('A' for Active; 'I' for Inactive)
    1  A    between atoms: C_2  and  N_4
    2  A    between atoms: N_4  and  N_10
    3  A    between atoms: C_13  and  C_23
    4  A    between atoms: C_17  and  C_23
                            x       y       z     vdW  Elec       q    Type
                         _______ _______ _______ _____ _____    ______ ____

>  <TORSDO>
F 4

$$$$
=
 OpenBabel10232407543D

 26 29  0  0  1  0  0  0  0  0999 V2000
  185.9870  178.0320  145.6880 C   0  0  0  0  0  3  0  0  0  0  0  0
  187.6790  177.8190  143.3120 C   0  0  0  0  0  0  0  0  0  0  0  0
  190.2340  176.8970  147.4640 C   0  0  0  0  0  3  0  0  0  0  0  0
  187.2930  177.8210  145.8230 C   0  0  0  0  0  0  0  0  0  0  0  0
  186.3660  178.0430  143.1540 C   0  0  0  0  0  3  0  0  0  0  0  0
  187.9890  177.5740  147.0380 N   0  0  0  0  0  0  0  0  0  0  0  0
  190.5310  176.9130  144.6450 C   0  0  0  0  0  3  0  0  0  0  0  0
  188.1780  177.6590  144.6960 C   0  0  0  0  0  0  0  0  0  0  0  0
  191.4570  176.5400  146.8740 C   0  0  2  0  0  3  0  0  0  0  0  0
  189.3290  177.2850  145.2440 C   0  0  0  0  0  0  0  0  0  0  0  0
  185.3750  178.1400  144.3060 C   0  0  0  0  0  3  0  0  0  0  0  0
  189.1790  177.2630  146.6290 C   0  0  0  0  0  0  0  0  0  0  0  0
  191.6020  176.5420  145.4730 C   0  0  0  0  0  3  0  0  0  0  0  0
  192.5290  176.1750  147.6770 O   0  0  0  0  0  1  0  0  0  0  0  0
  188.5130  177.8080  142.1510 N   0  0  0  0  0  0  0  0  0  0  0  0
  192.2340  176.5260  138.9110 C   0  0  0  0  0  1  0  0  0  0  0  0
  190.3620  177.2880  137.5010 N   0  0  0  0  0  0  0  0  0  0  0  0
  190.0840  177.2940  139.8390 N   0  0  0  0  0  0  0  0  0  0  0  0
  190.8530  177.0500  138.7450 C   0  0  0  0  0  0  0  0  0  0  0  0
  188.0200  178.0360  140.8600 N   0  0  0  0  0  0  0  0  0  0  0  0
  189.1010  177.7650  137.3290 C   0  0  0  0  0  0  0  0  0  0  0  0
  188.2990  178.0260  138.4400 C   0  0  0  0  0  3  0  0  0  0  0  0
  188.8190  177.7760  139.7090 C   0  0  0  0  0  0  0  0  0  0  0  0
  188.5880  178.0380  135.9560 C   0  0  0  0  0  2  0  0  0  0  0  0
  187.1070  178.3780  135.9860 C   0  0  0  0  0  2  0  0  0  0  0  0
  186.3350  177.2990  135.3930 N   0  0  0  0  0  1  0  0  0  0  0  0
  1  4  1  0  0  0  0
  2  8  1  0  0  0  0
  4  6  2  0  0  0  0
  5  2  2  0  0  0  0
  5 11  1  0  0  0  0
  7 10  1  0  0  0  0
  7 13  2  0  0  0  0
  8 10  2  0  0  0  0
  8  4  1  0  0  0  0
  9  3  1  0  0  0  0
  9 14  1  6  0  0  0
 10 12  1  0  0  0  0
 11  1  2  0  0  0  0
 12  6  1  0  0  0  0
 12  3  2  0  0  0  0
 13  9  1  0  0  0  0
 15  2  1  0  0  0  0
 17 19  2  0  0  0  0
 19 16  1  0  0  0  0
 19 18  1  0  0  0  0
 20 15  2  0  0  0  0
 21 17  1  0  0  0  0
 21 22  2  0  0  0  0
 22 23  1  0  0  0  0
 23 18  2  0  0  0  0
 23 20  1  0  0  0  0
 24 25  1  0  0  0  0
 24 21  1  0  0  0  0
 26 25  1  0  0  0  0
M  END
>  <MODEL>
4

>  <REMARK>
 VINA RESULT:      -9.1      3.088      5.216
  Name = 
  4 active torsions:
  status: ('A' for Active; 'I' for Inactive)
    1  A    between atoms: C_2  and  N_4
    2  A    between atoms: N_4  and  N_10
    3  A    between atoms: C_13  and  C_23
    4  A    between atoms: C_17  and  C_23
                            x       y       z     vdW  Elec       q    Type
                         _______ _______ _______ _____ _____    ______ ____

>  <TORSDO>
F 4

$$$$
=
 OpenBabel10232407543D

 26 29  0  0  1  0  0  0  0  0999 V2000
  185.7800  177.7960  145.2960 C   0  0  0  0  0  3  0  0  0  0  0  0
  187.6810  178.1430  143.1010 C   0  0  0  0  0  0  0  0  0  0  0  0
  189.9730  176.9130  147.3260 C   0  0  0  0  0  3  0  0  0  0  0  0
  187.0860  177.7220  145.5340 C   0  0  0  0  0  0  0  0  0  0  0  0
  186.3690  178.2340  142.8400 C   0  0  0  0  0  3  0  0  0  0  0  0
  187.7020  177.3780  146.7690 N   0  0  0  0  0  0  0  0  0  0  0  0
  190.5040  177.3900  144.5820 C   0  0  0  0  0  3  0  0  0  0  0  0
  188.0770  177.8360  144.4930 C   0  0  0  0  0  0  0  0  0  0  0  0
  191.2770  176.7960  146.8210 C   0  0  2  0  0  3  0  0  0  0  0  0
  189.2170  177.5230  145.1000 C   0  0  0  0  0  0  0  0  0  0  0  0
  185.2790  178.0380  143.8860 C   0  0  0  0  0  3  0  0  0  0  0  0
  188.9530  177.2750  146.4450 C   0  0  0  0  0  0  0  0  0  0  0  0
  191.5400  177.0260  145.4570 C   0  0  0  0  0  3  0  0  0  0  0  0
  192.3150  176.4430  147.6720 O   0  0  0  0  0  1  0  0  0  0  0  0
  188.6050  178.4060  142.0410 N   0  0  0  0  0  2  0  0  0  0  0  0
  188.7200  179.1630  137.0020 C   0  0  0  0  0  1  0  0  0  0  0  0
  190.1660  177.2090  137.4100 N   0  0  0  0  0  0  0  0  0  0  0  0
  189.1260  178.2440  139.2520 N   0  0  0  0  0  0  0  0  0  0  0  0
  189.3570  178.1780  137.9140 C   0  0  0  0  0  0  0  0  0  0  0  0
  189.4440  177.4220  141.5050 N   0  0  0  0  0  2  0  0  0  0  0  0
  190.7590  176.3000  138.2300 C   0  0  0  0  0  0  0  0  0  0  0  0
  190.5290  176.3500  139.6050 C   0  0  0  0  0  3  0  0  0  0  0  0
  189.6950  177.3500  140.1040 C   0  0  0  0  0  0  0  0  0  0  0  0
  191.6270  175.2340  137.6550 C   0  0  0  0  0  2  0  0  0  0  0  0
  192.8360  175.8340  136.9560 C   0  0  0  0  0  2  0  0  0  0  0  0
  193.8030  176.2950  137.9370 N   0  0  0  0  0  1  0  0  0  0  0  0
  1  4  1  0  0  0  0
  2  8  1  0  0  0  0
  4  6  2  0  0  0  0
  5  2  2  0  0  0  0
  5 11  1  0  0  0  0
  7 10  1  0  0  0  0
  7 13  2  0  0  0  0
  8 10  2  0  0  0  0
  8  4  1  0  0  0  0
  9  3  1  0  0  0  0
  9 14  1  6  0  0  0
 10 12  1  0  0  0  0
 11  1  2  0  0  0  0
 12  6  1  0  0  0  0
 12  3  2  0  0  0  0
 13  9  1  0  0  0  0
 15  2  1  0  0  0  0
 16 19  1  0  0  0  0
 17 19  2  0  0  0  0
 17 21  1  0  0  0  0
 18 23  2  0  0  0  0
 19 18  1  0  0  0  0
 20 15  1  0  0  0  0
 21 22  2  0  0  0  0
 22 23  1  0  0  0  0
 23 20  1  0  0  0  0
 24 21  1  0  0  0  0
 25 24  1  0  0  0  0
 25 26  1  0  0  0  0
M  END
>  <MODEL>
5

>  <REMARK>
 VINA RESULT:      -9.0      2.809      4.445
  Name = 
  4 active torsions:
  status: ('A' for Active; 'I' for Inactive)
    1  A    between atoms: C_2  and  N_4
    2  A    between atoms: N_4  and  N_10
    3  A    between atoms: C_13  and  C_23
    4  A    between atoms: C_17  and  C_23
                            x       y       z     vdW  Elec       q    Type
                         _______ _______ _______ _____ _____    ______ ____

>  <TORSDO>
F 4

$$$$
=
 OpenBabel10232407543D

 26 29  0  0  1  0  0  0  0  0999 V2000
  183.1430  178.9270  144.3350 C   0  0  0  0  0  3  0  0  0  0  0  0
  185.5590  178.5410  142.7350 C   0  0  0  0  0  0  0  0  0  0  0  0
  186.5150  178.2280  147.5930 C   0  0  0  0  0  3  0  0  0  0  0  0
  184.3210  178.8030  144.9370 C   0  0  0  0  0  0  0  0  0  0  0  0
  184.3820  178.6760  142.1060 C   0  0  0  0  0  3  0  0  0  0  0  0
  184.5520  178.7310  146.3380 N   0  0  0  0  0  0  0  0  0  0  0  0
  187.7780  177.9460  145.0700 C   0  0  0  0  0  3  0  0  0  0  0  0
  185.5460  178.5640  144.2140 C   0  0  0  0  0  0  0  0  0  0  0  0
  187.8710  177.8740  147.5100 C   0  0  2  0  0  3  0  0  0  0  0  0
  186.4380  178.3170  145.1670 C   0  0  0  0  0  0  0  0  0  0  0  0
  183.0500  178.8470  142.8240 C   0  0  0  0  0  3  0  0  0  0  0  0
  185.8130  178.4410  146.4060 C   0  0  0  0  0  0  0  0  0  0  0  0
  188.4960  177.7280  146.2560 C   0  0  0  0  0  3  0  0  0  0  0  0
  188.5990  177.6600  148.6720 O   0  0  0  0  0  1  0  0  0  0  0  0
  186.7460  178.4460  141.9430 N   0  0  0  0  0  0  0  0  0  0  0  0
  191.4580  177.2620  140.4010 C   0  0  0  0  0  1  0  0  0  0  0  0
  190.1600  177.6300  138.3380 N   0  0  0  0  0  0  0  0  0  0  0  0
  189.0690  177.8660  140.4120 N   0  0  0  0  0  0  0  0  0  0  0  0
  190.1930  177.5940  139.6960 C   0  0  0  0  0  0  0  0  0  0  0  0
  186.7290  178.4660  140.5430 N   0  0  0  0  0  0  0  0  0  0  0  0
  189.0110  177.9290  137.6760 C   0  0  0  0  0  0  0  0  0  0  0  0
  187.8500  178.2170  138.3940 C   0  0  0  0  0  3  0  0  0  0  0  0
  187.9020  178.1760  139.7870 C   0  0  0  0  0  0  0  0  0  0  0  0
  189.0010  177.9820  136.1860 C   0  0  0  0  0  2  0  0  0  0  0  0
  188.0940  176.9070  135.6100 C   0  0  0  0  0  2  0  0  0  0  0  0
  188.5680  175.5910  136.0030 N   0  0  0  0  0  1  0  0  0  0  0  0
  1  4  1  0  0  0  0
  2  8  1  0  0  0  0
  4  6  2  0  0  0  0
  5  2  2  0  0  0  0
  5 11  1  0  0  0  0
  6 12  1  0  0  0  0
  7 10  1  0  0  0  0
  7 13  2  0  0  0  0
  8  4  1  0  0  0  0
  8 10  2  0  0  0  0
  9  3  1  0  0  0  0
  9 14  1  6  0  0  0
 10 12  1  0  0  0  0
 11  1  2  0  0  0  0
 12  3  2  0  0  0  0
 13  9  1  0  0  0  0
 15  2  1  0  0  0  0
 17 19  2  0  0  0  0
 19 16  1  0  0  0  0
 19 18  1  0  0  0  0
 20 15  2  0  0  0  0
 21 17  1  0  0  0  0
 21 22  2  0  0  0  0
 22 23  1  0  0  0  0
 23 18  2  0  0  0  0
 23 20  1  0  0  0  0
 24 21  1  0  0  0  0
 25 26  1  0  0  0  0
 25 24  1  0  0  0  0
M  END
>  <MODEL>
6

>  <REMARK>
 VINA RESULT:      -9.0      2.373      4.474
  Name = 
  4 active torsions:
  status: ('A' for Active; 'I' for Inactive)
    1  A    between atoms: C_2  and  N_4
    2  A    between atoms: N_4  and  N_10
    3  A    between atoms: C_13  and  C_23
    4  A    between atoms: C_17  and  C_23
                            x       y       z     vdW  Elec       q    Type
                         _______ _______ _______ _____ _____    ______ ____

>  <TORSDO>
F 4

$$$$
=
 OpenBabel10232407543D

 26 29  0  0  0  0  0  0  0  0999 V2000
  187.6610  178.0470  147.9300 C   0  0  0  0  0  3  0  0  0  0  0  0
  188.5210  177.3120  145.2340 C   0  0  0  0  0  0  0  0  0  0  0  0
  183.8010  178.8420  145.2940 C   0  0  0  0  0  3  0  0  0  0  0  0
  186.7830  178.0510  146.9320 C   0  0  0  0  0  0  0  0  0  0  0  0
  189.4200  177.2900  146.2270 C   0  0  0  0  0  3  0  0  0  0  0  0
  185.4310  178.4860  146.9980 N   0  0  0  0  0  0  0  0  0  0  0  0
  185.8340  178.0190  143.4970 C   0  0  0  0  0  3  0  0  0  0  0  0
  187.1460  177.7460  145.5710 C   0  0  0  0  0  0  0  0  0  0  0  0
  183.5590  178.8050  143.9120 C   0  0  0  0  0  0  0  0  0  0  0  0
  186.0550  178.0410  144.8730 C   0  0  0  0  0  0  0  0  0  0  0  0
  189.1090  177.6840  147.6660 C   0  0  0  0  0  2  0  0  0  0  0  0
  185.0610  178.4590  145.7550 C   0  0  0  0  0  0  0  0  0  0  0  0
  184.5710  178.4010  143.0190 C   0  0  0  0  0  3  0  0  0  0  0  0
  182.3140  179.1740  143.4210 O   0  0  0  0  0  1  0  0  0  0  0  0
  188.9270  176.8630  143.9380 N   0  0  0  0  0  2  0  0  0  0  0  0
  192.5180  177.2880  140.3460 C   0  0  0  0  0  1  0  0  0  0  0  0
  190.3980  177.8740  139.2340 N   0  0  0  0  0  0  0  0  0  0  0  0
  190.3480  177.2830  141.5120 N   0  0  0  0  0  0  0  0  0  0  0  0
  191.0450  177.4860  140.3640 C   0  0  0  0  0  0  0  0  0  0  0  0
  188.2760  177.2520  142.7610 N   0  0  0  0  0  2  0  0  0  0  0  0
  189.0510  178.0590  139.2310 C   0  0  0  0  0  0  0  0  0  0  0  0
  188.3190  177.8600  140.4020 C   0  0  0  0  0  3  0  0  0  0  0  0
  189.0000  177.4620  141.5520 C   0  0  0  0  0  0  0  0  0  0  0  0
  188.3630  178.5040  137.9860 C   0  0  0  0  0  2  0  0  0  0  0  0
  189.0640  177.9580  136.7520 C   0  0  0  0  0  2  0  0  0  0  0  0
  188.5670  176.6290  136.4420 N   0  0  0  0  0  1  0  0  0  0  0  0
  2  8  1  0  0  0  0
  2  5  2  0  0  0  0
  3 12  1  0  0  0  0
  4  6  1  0  0  0  0
  4  1  2  0  0  0  0
  5 11  1  0  0  0  0
  7 10  1  0  0  0  0
  8  4  1  0  0  0  0
  9  3  2  0  0  0  0
 10  8  2  0  0  0  0
 10 12  1  0  0  0  0
 11  1  1  0  0  0  0
 12  6  2  0  0  0  0
 13  7  2  0  0  0  0
 13  9  1  0  0  0  0
 14  9  1  0  0  0  0
 15  2  1  0  0  0  0
 16 19  1  0  0  0  0
 17 19  2  0  0  0  0
 18 23  2  0  0  0  0
 19 18  1  0  0  0  0
 20 15  1  0  0  0  0
 21 17  1  0  0  0  0
 21 22  2  0  0  0  0
 22 23  1  0  0  0  0
 23 20  1  0  0  0  0
 24 21  1  0  0  0  0
 25 24  1  0  0  0  0
 26 25  1  0  0  0  0
M  END
>  <MODEL>
7

>  <REMARK>
 VINA RESULT:      -8.9      1.171      2.290
  Name = 
  4 active torsions:
  status: ('A' for Active; 'I' for Inactive)
    1  A    between atoms: C_2  and  N_4
    2  A    between atoms: N_4  and  N_10
    3  A    between atoms: C_13  and  C_23
    4  A    between atoms: C_17  and  C_23
                            x       y       z     vdW  Elec       q    Type
                         _______ _______ _______ _____ _____    ______ ____

>  <TORSDO>
F 4

$$$$
=
 OpenBabel10232407543D

 26 29  0  0  0  0  0  0  0  0999 V2000
  189.2830  177.6570  147.8710 C   0  0  0  0  0  3  0  0  0  0  0  0
  186.8440  178.1540  146.3360 C   0  0  0  0  0  0  0  0  0  0  0  0
  190.5670  176.6560  143.4180 C   0  0  0  0  0  3  0  0  0  0  0  0
  189.3070  177.5710  146.5440 C   0  0  0  0  0  0  0  0  0  0  0  0
  186.7990  178.2570  147.6720 C   0  0  0  0  0  3  0  0  0  0  0  0
  190.4050  177.1490  145.7450 N   0  0  0  0  0  0  0  0  0  0  0  0
  187.8100  177.3130  143.3210 C   0  0  0  0  0  3  0  0  0  0  0  0
  188.1340  177.7570  145.7280 C   0  0  0  0  0  0  0  0  0  0  0  0
  189.8560  176.5750  142.2100 C   0  0  0  0  0  0  0  0  0  0  0  0
  188.5310  177.4080  144.5100 C   0  0  0  0  0  0  0  0  0  0  0  0
  187.9880  177.9900  148.5860 C   0  0  0  0  0  2  0  0  0  0  0  0
  189.8820  177.0710  144.5610 C   0  0  0  0  0  0  0  0  0  0  0  0
  188.4860  176.8960  142.1630 C   0  0  0  0  0  3  0  0  0  0  0  0
  190.5090  176.1700  141.0530 O   0  0  0  0  0  1  0  0  0  0  0  0
  185.6720  178.4880  145.5880 N   0  0  0  0  0  0  0  0  0  0  0  0
  180.7650  178.8150  144.2450 C   0  0  0  0  0  1  0  0  0  0  0  0
  182.0240  178.6940  142.1290 N   0  0  0  0  0  0  0  0  0  0  0  0
  183.2220  178.6480  144.1550 N   0  0  0  0  0  0  0  0  0  0  0  0
  182.0410  178.7170  143.4880 C   0  0  0  0  0  0  0  0  0  0  0  0
  185.6350  178.4770  144.1890 N   0  0  0  0  0  0  0  0  0  0  0  0
  183.1800  178.6080  141.4190 C   0  0  0  0  0  0  0  0  0  0  0  0
  184.4020  178.5310  142.0870 C   0  0  0  0  0  3  0  0  0  0  0  0
  184.4000  178.5560  143.4820 C   0  0  0  0  0  0  0  0  0  0  0  0
  183.1390  178.5640  139.9300 C   0  0  0  0  0  2  0  0  0  0  0  0
  184.4740  178.9820  139.3360 C   0  0  0  0  0  2  0  0  0  0  0  0
  184.4290  180.3780  138.9350 N   0  0  0  0  0  1  0  0  0  0  0  0
  1 11  1  0  0  0  0
  2  5  2  0  0  0  0
  3 12  1  0  0  0  0
  4  1  2  0  0  0  0
  5 11  1  0  0  0  0
  6  4  1  0  0  0  0
  7 10  1  0  0  0  0
  8  2  1  0  0  0  0
  8  4  1  0  0  0  0
  9  3  2  0  0  0  0
 10 12  1  0  0  0  0
 10  8  2  0  0  0  0
 12  6  2  0  0  0  0
 13  9  1  0  0  0  0
 13  7  2  0  0  0  0
 14  9  1  0  0  0  0
 15  2  1  0  0  0  0
 17 19  2  0  0  0  0
 19 18  1  0  0  0  0
 19 16  1  0  0  0  0
 20 15  2  0  0  0  0
 21 22  2  0  0  0  0
 21 17  1  0  0  0  0
 22 23  1  0  0  0  0
 23 18  2  0  0  0  0
 23 20  1  0  0  0  0
 24 21  1  0  0  0  0
 25 24  1  0  0  0  0
 26 25  1  0  0  0  0
M  END
>  <MODEL>
8

>  <REMARK>
 VINA RESULT:      -8.6      3.505      6.464
  Name = 
  4 active torsions:
  status: ('A' for Active; 'I' for Inactive)
    1  A    between atoms: C_2  and  N_4
    2  A    between atoms: N_4  and  N_10
    3  A    between atoms: C_13  and  C_23
    4  A    between atoms: C_17  and  C_23
                            x       y       z     vdW  Elec       q    Type
                         _______ _______ _______ _____ _____    ______ ____

>  <TORSDO>
F 4

$$$$
=
 OpenBabel10232407543D

 26 29  0  0  0  0  0  0  0  0999 V2000
  184.8600  178.6050  146.1630 C   0  0  0  0  0  3  0  0  0  0  0  0
  185.2990  178.4130  143.2780 C   0  0  0  0  0  0  0  0  0  0  0  0
  189.3720  177.1850  145.8320 C   0  0  0  0  0  3  0  0  0  0  0  0
  186.0730  178.3240  145.6950 C   0  0  0  0  0  0  0  0  0  0  0  0
  184.0710  178.7090  143.7270 C   0  0  0  0  0  3  0  0  0  0  0  0
  187.2200  177.9900  146.4670 N   0  0  0  0  0  2  0  0  0  0  0  0
  188.3830  177.3110  143.1780 C   0  0  0  0  0  3  0  0  0  0  0  0
  186.3510  178.1680  144.2900 C   0  0  0  0  0  0  0  0  0  0  0  0
  190.1780  176.7950  144.7510 C   0  0  0  0  0  0  0  0  0  0  0  0
  187.5990  177.7150  144.2580 C   0  0  0  0  0  0  0  0  0  0  0  0
  183.7040  178.8040  145.2020 C   0  0  0  0  0  3  0  0  0  0  0  0
  188.0800  177.6390  145.5640 C   0  0  0  0  0  0  0  0  0  0  0  0
  189.6840  176.8510  143.4340 C   0  0  0  0  0  3  0  0  0  0  0  0
  191.4700  176.3430  144.9840 O   0  0  0  0  0  1  0  0  0  0  0  0
  185.5260  178.4120  141.8660 N   0  0  0  0  0  2  0  0  0  0  0  0
  181.9320  175.6820  139.4960 C   0  0  0  0  0  1  0  0  0  0  0  0
  181.7460  177.9610  138.5760 N   0  0  0  0  0  0  0  0  0  0  0  0
  183.3830  177.5390  140.2150 N   0  0  0  0  0  0  0  0  0  0  0  0
  182.3660  177.1020  139.4280 C   0  0  0  0  0  0  0  0  0  0  0  0
  184.8690  179.2840  140.9910 N   0  0  0  0  0  2  0  0  0  0  0  0
  182.1270  179.2640  138.5010 C   0  0  0  0  0  0  0  0  0  0  0  0
  183.1730  179.7290  139.2980 C   0  0  0  0  0  3  0  0  0  0  0  0
  183.7970  178.8340  140.1660 C   0  0  0  0  0  0  0  0  0  0  0  0
  181.4480  180.1850  137.5460 C   0  0  0  0  0  2  0  0  0  0  0  0
  180.7270  181.3000  138.2850 C   0  0  0  0  0  2  0  0  0  0  0  0
  181.3820  182.5720  138.0330 N   0  0  0  0  0  1  0  0  0  0  0  0
  2  5  2  0  0  0  0
  2  8  1  0  0  0  0
  4  1  1  0  0  0  0
  4  6  1  0  0  0  0
  5 11  1  0  0  0  0
  7 13  2  0  0  0  0
  7 10  1  0  0  0  0
  8  4  2  0  0  0  0
  9 14  1  0  0  0  0
  9  3  2  0  0  0  0
 10  8  1  0  0  0  0
 10 12  2  0  0  0  0
 11  1  2  0  0  0  0
 12  3  1  0  0  0  0
 12  6  1  0  0  0  0
 13  9  1  0  0  0  0
 15  2  1  0  0  0  0
 17 19  2  0  0  0  0
 19 16  1  0  0  0  0
 19 18  1  0  0  0  0
 20 15  1  0  0  0  0
 21 17  1  0  0  0  0
 21 22  2  0  0  0  0
 22 23  1  0  0  0  0
 23 18  2  0  0  0  0
 23 20  1  0  0  0  0
 24 25  1  0  0  0  0
 24 21  1  0  0  0  0
 26 25  1  0  0  0  0
M  END
>  <MODEL>
9

>  <REMARK>
 VINA RESULT:      -8.4      4.491      7.231
  Name = 
  4 active torsions:
  status: ('A' for Active; 'I' for Inactive)
    1  A    between atoms: C_2  and  N_4
    2  A    between atoms: N_4  and  N_10
    3  A    between atoms: C_13  and  C_23
    4  A    between atoms: C_17  and  C_23
                            x       y       z     vdW  Elec       q    Type
                         _______ _______ _______ _____ _____    ______ ____

>  <TORSDO>
F 4

$$$$
