=
 OpenBabel10232407593D

 44 48  0  0  1  0  0  0  0  0999 V2000
  187.8930  178.5330  141.4690 C   0  0  0  0  0  1  0  0  0  0  0  0
  188.9900  177.7250  142.1490 C   0  0  1  0  0  3  0  0  0  0  0  0
  188.3610  176.6740  143.0200 C   0  0  0  0  0  0  0  0  0  0  0  0
  188.7620  175.5200  142.9880 O   0  0  0  0  0  0  0  0  0  0  0  0
  187.2160  177.0350  143.9110 C   0  0  0  0  0  2  0  0  0  0  0  0
  186.8880  178.0800  146.2220 C   0  0  0  0  0  0  0  0  0  0  0  0
  189.5180  177.3120  146.8990 C   0  0  0  0  0  0  0  0  0  0  0  0
  187.4030  178.3220  147.5050 C   0  0  0  0  0  3  0  0  0  0  0  0
  187.7100  177.4280  145.2690 C   0  0  0  0  0  0  0  0  0  0  0  0
  189.0130  177.0510  145.6180 C   0  0  0  0  0  3  0  0  0  0  0  0
  188.7050  177.9440  147.8390 C   0  0  0  0  0  3  0  0  0  0  0  0
  191.7630  176.4410  146.3290 C   0  0  0  0  0  1  0  0  0  0  0  0
  190.8180  176.9510  147.2620 O   0  0  0  0  0  0  0  0  0  0  0  0
  185.5050  178.5240  145.9300 C   0  0  0  0  0  0  0  0  0  0  0  0
  184.5400  177.9260  146.4790 O   0  0  0  0  0  0  0  0  0  0  0  0
  184.7740  179.6670  143.8840 C   0  0  0  0  0  3  0  0  0  0  0  0
  185.2720  179.6670  145.0870 N   0  0  0  0  0  0  0  0  0  0  0  0
  184.4030  178.4320  143.1270 C   0  0  0  0  0  2  0  0  0  0  0  0
  183.3180  178.7550  142.1180 C   0  0  0  0  0  2  0  0  0  0  0  0
  184.8070  179.5750  140.4530 O   0  0  0  0  0  1  0  0  0  0  0  0
  183.4320  177.8630  139.7930 O   0  0  0  0  0  0  0  0  0  0  0  0
  183.8890  178.7660  140.7450 C   0  0  0  0  0  0  0  0  0  0  0  0
  189.9520  177.1140  141.1200 C   0  0  2  0  0  3  0  0  0  0  0  0
  192.3400  177.6170  140.5400 O   0  0  0  0  0  0  0  0  0  0  0  0
  191.3800  177.3410  141.5080 C   0  0  0  0  0  0  0  0  0  0  0  0
  191.7150  177.2950  142.7210 O   0  0  0  0  0  1  0  0  0  0  0  0
  189.7140  177.6970  139.7300 C   0  0  0  0  0  2  0  0  0  0  0  0
  189.8110  176.6100  138.6760 C   0  0  0  0  0  2  0  0  0  0  0  0
  190.6160  176.3030  136.3450 C   0  0  2  0  0  3  0  0  0  0  0  0
  191.5450  175.7850  137.3490 C   0  0  0  0  0  2  0  0  0  0  0  0
  190.7770  177.0020  137.6530 N   0  0  0  0  0  0  0  0  0  0  0  0
  188.4600  175.8830  135.0960 C   0  0  1  0  0  3  0  0  0  0  0  0
  189.3380  175.4570  136.2040 C   0  0  1  0  0  0  0  0  0  0  0  0
  187.0740  174.9310  136.9060 C   0  0  0  0  0  2  0  0  0  0  0  0
  189.1930  174.6720  135.0460 O   0  0  0  0  0  0  0  0  0  0  0  0
  188.5000  175.0520  137.4000 C   0  0  0  0  0  2  0  0  0  0  0  0
  187.0130  175.6390  135.5510 C   0  0  2  0  0  0  0  0  0  0  0  0
  186.3500  174.7090  134.5410 C   0  0  0  0  0  1  0  0  0  0  0  0
  185.5150  177.1060  136.8700 C   0  0  0  0  0  2  0  0  0  0  0  0
  186.8670  178.9890  137.4980 O   0  0  0  0  0  0  0  0  0  0  0  0
  186.3680  177.7630  137.9600 C   0  0  0  0  0  2  0  0  0  0  0  0
  186.2700  176.9230  135.6130 N   0  0  0  0  0  0  0  0  0  0  0  0
  187.8060  178.6750  136.5040 C   0  0  0  0  0  2  0  0  0  0  0  0
  187.0890  178.1070  135.2750 C   0  0  0  0  0  2  0  0  0  0  0  0
  2  1  1  6  0  0  0
  2  3  1  0  0  0  0
  3  5  1  0  0  0  0
  4  3  2  0  0  0  0
  5  9  1  0  0  0  0
  6  8  1  0  0  0  0
  7 13  1  0  0  0  0
  7 11  1  0  0  0  0
  8 11  2  0  0  0  0
  9 10  1  0  0  0  0
  9  6  2  0  0  0  0
 10  7  2  0  0  0  0
 12 13  1  0  0  0  0
 14  6  1  0  0  0  0
 14 15  2  0  0  0  0
 16 17  2  0  0  0  0
 17 14  1  0  0  0  0
 18 16  1  0  0  0  0
 19 18  1  0  0  0  0
 20 22  1  0  0  0  0
 21 22  2  0  0  0  0
 22 19  1  0  0  0  0
 23 27  1  6  0  0  0
 23 25  1  0  0  0  0
 23  2  1  0  0  0  0
 24 25  2  0  0  0  0
 25 26  1  0  0  0  0
 28 27  1  0  0  0  0
 29 30  1  1  0  0  0
 29 31  1  0  0  0  0
 30 31  1  0  0  0  0
 31 28  1  0  0  0  0
 32 35  1  6  0  0  0
 32 37  1  0  0  0  0
 32 33  1  0  0  0  0
 33 29  1  0  0  0  0
 33 36  1  1  0  0  0
 34 36  1  0  0  0  0
 35 33  1  0  0  0  0
 37 38  1  6  0  0  0
 37 42  1  0  0  0  0
 37 34  1  0  0  0  0
 39 41  1  0  0  0  0
 40 41  1  0  0  0  0
 42 39  1  0  0  0  0
 43 40  1  0  0  0  0
 44 42  1  0  0  0  0
 44 43  1  0  0  0  0
M  END
>  <MODEL>
1

>  <REMARK>
 VINA RESULT:      -8.4      0.000      0.000
  Name = 
  16 active torsions:
  status: ('A' for Active; 'I' for Inactive)
    1  A    between atoms: C_1  and  C_21
    2  A    between atoms: C_4  and  C_37
    3  A    between atoms: C_4  and  C_43
    4  A    between atoms: C_6  and  C_27
    5  A    between atoms: C_7  and  C_9
    6  A    between atoms: C_8  and  O_33
    7  A    between atoms: N_17  and  C_34
    8  A    between atoms: C_19  and  C_43
    9  A    between atoms: C_21  and  N_23
   10  A    between atoms: C_24  and  C_28
   11  A    between atoms: C_24  and  C_43
   12  A    between atoms: C_25  and  C_38
   13  A    between atoms: C_27  and  C_36
   14  A    between atoms: C_28  and  C_38
   15  A    between atoms: N_31  and  C_37
   16  A    between atoms: C_36  and  C_40
                            x       y       z     vdW  Elec       q    Type
                         _______ _______ _______ _____ _____    ______ ____

>  <TORSDO>
F 16

$$$$
=
 OpenBabel10232407593D

 44 48  0  0  1  0  0  0  0  0999 V2000
  188.1250  178.2450  141.2380 C   0  0  0  0  0  1  0  0  0  0  0  0
  188.9920  177.6920  142.3600 C   0  0  1  0  0  3  0  0  0  0  0  0
  188.1830  176.7220  143.1770 C   0  0  0  0  0  0  0  0  0  0  0  0
  188.4200  175.5240  143.1300 O   0  0  0  0  0  0  0  0  0  0  0  0
  187.0630  177.2230  144.0310 C   0  0  0  0  0  2  0  0  0  0  0  0
  186.7510  178.1830  146.3800 C   0  0  0  0  0  0  0  0  0  0  0  0
  189.3030  177.2010  147.0780 C   0  0  0  0  0  0  0  0  0  0  0  0
  187.2490  178.3290  147.6840 C   0  0  0  0  0  3  0  0  0  0  0  0
  187.5490  177.5170  145.4160 C   0  0  0  0  0  0  0  0  0  0  0  0
  188.8130  177.0340  145.7760 C   0  0  0  0  0  3  0  0  0  0  0  0
  188.5120  177.8450  148.0290 C   0  0  0  0  0  3  0  0  0  0  0  0
  191.6400  176.6000  146.5300 C   0  0  0  0  0  1  0  0  0  0  0  0
  190.5650  176.7320  147.4530 O   0  0  0  0  0  0  0  0  0  0  0  0
  185.4110  178.7360  146.0800 C   0  0  0  0  0  0  0  0  0  0  0  0
  184.4110  178.3060  146.7170 O   0  0  0  0  0  0  0  0  0  0  0  0
  184.5600  179.7790  144.0260 C   0  0  0  0  0  3  0  0  0  0  0  0
  185.2620  179.8010  145.1220 N   0  0  0  0  0  0  0  0  0  0  0  0
  183.8110  178.5840  143.5300 C   0  0  0  0  0  2  0  0  0  0  0  0
  184.2520  178.2510  142.1180 C   0  0  0  0  0  2  0  0  0  0  0  0
  182.0210  178.8610  141.5600 O   0  0  0  0  0  1  0  0  0  0  0  0
  183.1780  177.7420  139.9280 O   0  0  0  0  0  0  0  0  0  0  0  0
  183.0850  178.2960  141.1980 C   0  0  0  0  0  0  0  0  0  0  0  0
  190.2720  177.0460  141.8100 C   0  0  2  0  0  3  0  0  0  0  0  0
  191.8600  178.3330  143.2630 O   0  0  0  0  0  1  0  0  0  0  0  0
  191.3850  177.1070  142.8100 C   0  0  0  0  0  0  0  0  0  0  0  0
  191.8870  176.0420  143.2540 O   0  0  0  0  0  0  0  0  0  0  0  0
  190.7210  177.7290  140.5210 C   0  0  0  0  0  2  0  0  0  0  0  0
  191.5310  176.7700  139.6680 C   0  0  0  0  0  2  0  0  0  0  0  0
  191.1960  175.2670  137.7180 C   0  0  2  0  0  3  0  0  0  0  0  0
  190.3830  176.4810  137.6560 C   0  0  0  0  0  2  0  0  0  0  0  0
  190.6310  175.8580  138.9650 N   0  0  0  0  0  0  0  0  0  0  0  0
  193.0720  175.6200  136.0630 C   0  0  1  0  0  3  0  0  0  0  0  0
  192.6960  175.5250  137.4870 C   0  0  1  0  0  0  0  0  0  0  0  0
  194.9750  174.7000  137.3420 C   0  0  0  0  0  2  0  0  0  0  0  0
  193.0710  176.7530  136.9130 O   0  0  0  0  0  0  0  0  0  0  0  0
  193.7710  174.7840  138.2570 C   0  0  0  0  0  2  0  0  0  0  0  0
  194.4820  175.0240  135.9310 C   0  0  2  0  0  0  0  0  0  0  0  0
  195.3910  176.0890  135.3250 C   0  0  0  0  0  1  0  0  0  0  0  0
  195.3300  172.7340  135.5150 C   0  0  0  0  0  2  0  0  0  0  0  0
  193.4510  171.2870  135.8890 O   0  0  0  0  0  0  0  0  0  0  0  0
  194.6090  171.7990  136.4910 C   0  0  0  0  0  2  0  0  0  0  0  0
  194.4540  173.8290  135.0500 N   0  0  0  0  0  0  0  0  0  0  0  0
  192.5660  172.3670  135.7700 C   0  0  0  0  0  2  0  0  0  0  0  0
  193.0920  173.3550  134.7240 C   0  0  0  0  0  2  0  0  0  0  0  0
  2  1  1  6  0  0  0
  2  3  1  0  0  0  0
  3  5  1  0  0  0  0
  4  3  2  0  0  0  0
  5  9  1  0  0  0  0
  6  8  1  0  0  0  0
  7 13  1  0  0  0  0
  7 11  1  0  0  0  0
  8 11  2  0  0  0  0
  9 10  1  0  0  0  0
  9  6  2  0  0  0  0
 10  7  2  0  0  0  0
 12 13  1  0  0  0  0
 14  6  1  0  0  0  0
 14 15  2  0  0  0  0
 16 17  2  0  0  0  0
 17 14  1  0  0  0  0
 18 16  1  0  0  0  0
 19 18  1  0  0  0  0
 21 22  2  0  0  0  0
 22 20  1  0  0  0  0
 22 19  1  0  0  0  0
 23 27  1  6  0  0  0
 23  2  1  0  0  0  0
 23 25  1  0  0  0  0
 25 26  2  0  0  0  0
 25 24  1  0  0  0  0
 28 27  1  0  0  0  0
 29 30  1  6  0  0  0
 29 31  1  0  0  0  0
 30 31  1  0  0  0  0
 31 28  1  0  0  0  0
 32 35  1  1  0  0  0
 32 33  1  0  0  0  0
 33 29  1  0  0  0  0
 33 36  1  1  0  0  0
 34 36  1  0  0  0  0
 35 33  1  0  0  0  0
 37 38  1  6  0  0  0
 37 32  1  0  0  0  0
 37 34  1  0  0  0  0
 39 41  1  0  0  0  0
 40 41  1  0  0  0  0
 42 39  1  0  0  0  0
 42 37  1  0  0  0  0
 43 40  1  0  0  0  0
 44 42  1  0  0  0  0
 44 43  1  0  0  0  0
M  END
>  <MODEL>
2

>  <REMARK>
 VINA RESULT:      -8.3      2.415      4.413
  Name = 
  16 active torsions:
  status: ('A' for Active; 'I' for Inactive)
    1  A    between atoms: C_1  and  C_21
    2  A    between atoms: C_4  and  C_37
    3  A    between atoms: C_4  and  C_43
    4  A    between atoms: C_6  and  C_27
    5  A    between atoms: C_7  and  C_9
    6  A    between atoms: C_8  and  O_33
    7  A    between atoms: N_17  and  C_34
    8  A    between atoms: C_19  and  C_43
    9  A    between atoms: C_21  and  N_23
   10  A    between atoms: C_24  and  C_28
   11  A    between atoms: C_24  and  C_43
   12  A    between atoms: C_25  and  C_38
   13  A    between atoms: C_27  and  C_36
   14  A    between atoms: C_28  and  C_38
   15  A    between atoms: N_31  and  C_37
   16  A    between atoms: C_36  and  C_40
                            x       y       z     vdW  Elec       q    Type
                         _______ _______ _______ _____ _____    ______ ____

>  <TORSDO>
F 16

$$$$
=
 OpenBabel10232407593D

 44 48  0  0  1  0  0  0  0  0999 V2000
  188.0340  178.7210  141.5850 C   0  0  0  0  0  1  0  0  0  0  0  0
  189.0550  177.7890  142.2220 C   0  0  1  0  0  3  0  0  0  0  0  0
  188.3340  176.7460  143.0310 C   0  0  0  0  0  0  0  0  0  0  0  0
  188.6710  175.5720  142.9720 O   0  0  0  0  0  0  0  0  0  0  0  0
  187.1780  177.1420  143.8920 C   0  0  0  0  0  2  0  0  0  0  0  0
  186.8220  178.1620  146.2100 C   0  0  0  0  0  0  0  0  0  0  0  0
  189.3950  177.2730  146.9540 C   0  0  0  0  0  0  0  0  0  0  0  0
  187.3060  178.3610  147.5120 C   0  0  0  0  0  3  0  0  0  0  0  0
  187.6460  177.4910  145.2710 C   0  0  0  0  0  0  0  0  0  0  0  0
  188.9200  177.0540  145.6530 C   0  0  0  0  0  3  0  0  0  0  0  0
  188.5790  177.9230  147.8800 C   0  0  0  0  0  3  0  0  0  0  0  0
  191.6470  176.3930  146.4260 C   0  0  0  0  0  1  0  0  0  0  0  0
  190.6670  176.8520  147.3500 O   0  0  0  0  0  0  0  0  0  0  0  0
  185.4690  178.6680  145.8830 C   0  0  0  0  0  0  0  0  0  0  0  0
  184.4710  178.1910  146.4920 O   0  0  0  0  0  0  0  0  0  0  0  0
  184.6240  179.7070  143.8250 C   0  0  0  0  0  3  0  0  0  0  0  0
  185.3020  179.7390  144.9360 N   0  0  0  0  0  0  0  0  0  0  0  0
  183.9280  178.4930  143.3000 C   0  0  0  0  0  2  0  0  0  0  0  0
  184.5510  178.0730  141.9820 C   0  0  0  0  0  2  0  0  0  0  0  0
  183.3390  179.2390  140.2990 O   0  0  0  0  0  0  0  0  0  0  0  0
  182.8380  177.0120  140.5160 O   0  0  0  0  0  1  0  0  0  0  0  0
  183.5400  178.1490  140.8950 C   0  0  0  0  0  0  0  0  0  0  0  0
  189.9710  177.1580  141.1630 C   0  0  2  0  0  3  0  0  0  0  0  0
  191.7690  176.9590  142.9000 O   0  0  0  0  0  1  0  0  0  0  0  0
  191.4080  177.2160  141.5820 C   0  0  0  0  0  0  0  0  0  0  0  0
  192.2970  177.4870  140.7340 O   0  0  0  0  0  0  0  0  0  0  0  0
  189.8160  177.8560  139.8150 C   0  0  0  0  0  2  0  0  0  0  0  0
  189.1260  176.9410  138.8210 C   0  0  0  0  0  2  0  0  0  0  0  0
  188.3440  177.0970  136.4680 C   0  0  2  0  0  3  0  0  0  0  0  0
  189.4530  176.1600  136.6450 C   0  0  0  0  0  2  0  0  0  0  0  0
  189.4200  177.3840  137.4600 N   0  0  0  0  0  0  0  0  0  0  0  0
  186.3530  175.5580  136.2430 C   0  0  1  0  0  3  0  0  0  0  0  0
  187.0170  176.5900  137.0620 C   0  0  1  0  0  0  0  0  0  0  0  0
  184.6350  176.8730  137.4360 C   0  0  0  0  0  2  0  0  0  0  0  0
  186.9560  175.2510  137.4870 O   0  0  0  0  0  0  0  0  0  0  0  0
  185.9830  177.5310  137.6470 C   0  0  0  0  0  2  0  0  0  0  0  0
  184.8390  175.7710  136.3960 C   0  0  2  0  0  0  0  0  0  0  0  0
  184.2300  174.4760  136.9260 C   0  0  0  0  0  1  0  0  0  0  0  0
  183.7150  174.9310  134.3540 C   0  0  0  0  0  2  0  0  0  0  0  0
  181.4580  175.7380  134.4980 O   0  0  0  0  0  0  0  0  0  0  0  0
  182.2640  174.6150  134.7320 C   0  0  0  0  0  2  0  0  0  0  0  0
  184.2320  176.1080  135.0830 N   0  0  0  0  0  0  0  0  0  0  0  0
  181.8350  176.6920  135.4540 C   0  0  0  0  0  2  0  0  0  0  0  0
  183.2450  177.2070  135.1430 C   0  0  0  0  0  2  0  0  0  0  0  0
  2  1  1  6  0  0  0
  2  3  1  0  0  0  0
  3  5  1  0  0  0  0
  4  3  2  0  0  0  0
  5  9  1  0  0  0  0
  6  8  1  0  0  0  0
  7 13  1  0  0  0  0
  7 11  1  0  0  0  0
  8 11  2  0  0  0  0
  9 10  1  0  0  0  0
  9  6  2  0  0  0  0
 10  7  2  0  0  0  0
 12 13  1  0  0  0  0
 14  6  1  0  0  0  0
 14 15  2  0  0  0  0
 16 17  2  0  0  0  0
 17 14  1  0  0  0  0
 18 16  1  0  0  0  0
 19 18  1  0  0  0  0
 20 22  2  0  0  0  0
 21 22  1  0  0  0  0
 22 19  1  0  0  0  0
 23 27  1  6  0  0  0
 23 25  1  0  0  0  0
 23  2  1  0  0  0  0
 25 24  1  0  0  0  0
 26 25  2  0  0  0  0
 28 27  1  0  0  0  0
 29 30  1  6  0  0  0
 29 33  1  0  0  0  0
 29 31  1  0  0  0  0
 30 31  1  0  0  0  0
 31 28  1  0  0  0  0
 32 37  1  0  0  0  0
 32 33  1  0  0  0  0
 32 35  1  1  0  0  0
 33 35  1  0  0  0  0
 33 36  1  1  0  0  0
 34 36  1  0  0  0  0
 37 38  1  1  0  0  0
 37 34  1  0  0  0  0
 39 41  1  0  0  0  0
 39 42  1  0  0  0  0
 40 41  1  0  0  0  0
 40 43  1  0  0  0  0
 42 44  1  0  0  0  0
 42 37  1  0  0  0  0
 44 43  1  0  0  0  0
M  END
>  <MODEL>
3

>  <REMARK>
 VINA RESULT:      -8.1      1.712      2.411
  Name = 
  16 active torsions:
  status: ('A' for Active; 'I' for Inactive)
    1  A    between atoms: C_1  and  C_21
    2  A    between atoms: C_4  and  C_37
    3  A    between atoms: C_4  and  C_43
    4  A    between atoms: C_6  and  C_27
    5  A    between atoms: C_7  and  C_9
    6  A    between atoms: C_8  and  O_33
    7  A    between atoms: N_17  and  C_34
    8  A    between atoms: C_19  and  C_43
    9  A    between atoms: C_21  and  N_23
   10  A    between atoms: C_24  and  C_28
   11  A    between atoms: C_24  and  C_43
   12  A    between atoms: C_25  and  C_38
   13  A    between atoms: C_27  and  C_36
   14  A    between atoms: C_28  and  C_38
   15  A    between atoms: N_31  and  C_37
   16  A    between atoms: C_36  and  C_40
                            x       y       z     vdW  Elec       q    Type
                         _______ _______ _______ _____ _____    ______ ____

>  <TORSDO>
F 16

$$$$
=
 OpenBabel10232407593D

 44 48  0  0  1  0  0  0  0  0999 V2000
  187.5250  178.9300  142.0160 C   0  0  0  0  0  1  0  0  0  0  0  0
  188.6490  177.9330  142.2640 C   0  0  1  0  0  3  0  0  0  0  0  0
  188.1240  176.7930  143.0910 C   0  0  0  0  0  0  0  0  0  0  0  0
  188.5780  175.6660  142.9540 O   0  0  0  0  0  0  0  0  0  0  0  0
  187.0190  177.0310  144.0690 C   0  0  0  0  0  2  0  0  0  0  0  0
  186.8170  178.1630  146.3530 C   0  0  0  0  0  0  0  0  0  0  0  0
  189.4170  177.2670  146.9850 C   0  0  0  0  0  0  0  0  0  0  0  0
  187.3800  178.4140  147.6140 C   0  0  0  0  0  3  0  0  0  0  0  0
  187.5730  177.4360  145.4000 C   0  0  0  0  0  0  0  0  0  0  0  0
  188.8610  176.9960  145.7260 C   0  0  0  0  0  3  0  0  0  0  0  0
  188.6680  177.9730  147.9250 C   0  0  0  0  0  3  0  0  0  0  0  0
  191.7060  176.5720  146.3510 C   0  0  0  0  0  1  0  0  0  0  0  0
  190.7040  176.8430  147.3250 O   0  0  0  0  0  0  0  0  0  0  0  0
  185.4530  178.6770  146.0840 C   0  0  0  0  0  0  0  0  0  0  0  0
  184.4800  178.2050  146.7340 O   0  0  0  0  0  0  0  0  0  0  0  0
  184.5430  179.7150  144.0540 C   0  0  0  0  0  3  0  0  0  0  0  0
  185.2530  179.7490  145.1450 N   0  0  0  0  0  0  0  0  0  0  0  0
  183.8400  178.4980  143.5460 C   0  0  0  0  0  2  0  0  0  0  0  0
  182.9540  178.8700  142.3720 C   0  0  0  0  0  2  0  0  0  0  0  0
  184.4190  179.3560  140.5620 O   0  0  0  0  0  1  0  0  0  0  0  0
  183.4260  177.2910  140.5040 O   0  0  0  0  0  0  0  0  0  0  0  0
  183.6330  178.5310  141.0940 C   0  0  0  0  0  0  0  0  0  0  0  0
  189.2640  177.4460  140.9440 C   0  0  2  0  0  3  0  0  0  0  0  0
  191.3970  177.5750  142.2570 O   0  0  0  0  0  1  0  0  0  0  0  0
  190.7500  177.3040  141.0560 C   0  0  0  0  0  0  0  0  0  0  0  0
  191.4200  176.9230  140.0600 O   0  0  0  0  0  0  0  0  0  0  0  0
  188.9390  178.4020  139.8000 C   0  0  0  0  0  2  0  0  0  0  0  0
  188.2760  177.6550  138.6580 C   0  0  0  0  0  2  0  0  0  0  0  0
  187.4840  178.0090  136.3290 C   0  0  2  0  0  3  0  0  0  0  0  0
  188.8030  178.5870  136.5830 C   0  0  0  0  0  2  0  0  0  0  0  0
  187.8000  178.6080  137.6580 N   0  0  0  0  0  0  0  0  0  0  0  0
  186.8630  175.9080  135.0700 C   0  0  1  0  0  3  0  0  0  0  0  0
  187.4910  176.4700  136.2820 C   0  0  1  0  0  0  0  0  0  0  0  0
  186.5390  174.3390  136.9510 C   0  0  0  0  0  2  0  0  0  0  0  0
  188.2620  175.8470  135.2830 O   0  0  0  0  0  0  0  0  0  0  0  0
  187.1380  175.6220  137.4870 C   0  0  0  0  0  2  0  0  0  0  0  0
  186.1790  174.5970  135.4860 C   0  0  2  0  0  0  0  0  0  0  0  0
  186.7530  173.4710  134.6330 C   0  0  0  0  0  1  0  0  0  0  0  0
  183.9210  173.9370  136.2630 C   0  0  0  0  0  2  0  0  0  0  0  0
  182.9330  175.9510  137.1200 O   0  0  0  0  0  0  0  0  0  0  0  0
  183.6030  174.7800  137.5020 C   0  0  0  0  0  2  0  0  0  0  0  0
  184.7120  174.6920  135.2700 N   0  0  0  0  0  0  0  0  0  0  0  0
  183.8770  176.7320  136.4370 C   0  0  0  0  0  2  0  0  0  0  0  0
  184.2190  176.0740  135.0960 C   0  0  0  0  0  2  0  0  0  0  0  0
  2  1  1  6  0  0  0
  2  3  1  0  0  0  0
  3  5  1  0  0  0  0
  4  3  2  0  0  0  0
  5  9  1  0  0  0  0
  6  8  1  0  0  0  0
  7 13  1  0  0  0  0
  7 11  1  0  0  0  0
  8 11  2  0  0  0  0
  9 10  1  0  0  0  0
  9  6  2  0  0  0  0
 10  7  2  0  0  0  0
 12 13  1  0  0  0  0
 14  6  1  0  0  0  0
 14 15  2  0  0  0  0
 16 17  2  0  0  0  0
 17 14  1  0  0  0  0
 18 16  1  0  0  0  0
 19 18  1  0  0  0  0
 20 22  1  0  0  0  0
 21 22  2  0  0  0  0
 22 19  1  0  0  0  0
 23 27  1  6  0  0  0
 23 25  1  0  0  0  0
 23  2  1  0  0  0  0
 25 24  1  0  0  0  0
 26 25  2  0  0  0  0
 28 27  1  0  0  0  0
 29 30  1  6  0  0  0
 29 31  1  0  0  0  0
 30 31  1  0  0  0  0
 31 28  1  0  0  0  0
 32 35  1  6  0  0  0
 32 37  1  0  0  0  0
 32 33  1  0  0  0  0
 33 29  1  0  0  0  0
 33 36  1  1  0  0  0
 34 36  1  0  0  0  0
 35 33  1  0  0  0  0
 37 38  1  6  0  0  0
 37 34  1  0  0  0  0
 39 41  1  0  0  0  0
 40 41  1  0  0  0  0
 42 37  1  0  0  0  0
 42 39  1  0  0  0  0
 43 40  1  0  0  0  0
 44 42  1  0  0  0  0
 44 43  1  0  0  0  0
M  END
>  <MODEL>
4

>  <REMARK>
 VINA RESULT:      -8.0      1.449      1.964
  Name = 
  16 active torsions:
  status: ('A' for Active; 'I' for Inactive)
    1  A    between atoms: C_1  and  C_21
    2  A    between atoms: C_4  and  C_37
    3  A    between atoms: C_4  and  C_43
    4  A    between atoms: C_6  and  C_27
    5  A    between atoms: C_7  and  C_9
    6  A    between atoms: C_8  and  O_33
    7  A    between atoms: N_17  and  C_34
    8  A    between atoms: C_19  and  C_43
    9  A    between atoms: C_21  and  N_23
   10  A    between atoms: C_24  and  C_28
   11  A    between atoms: C_24  and  C_43
   12  A    between atoms: C_25  and  C_38
   13  A    between atoms: C_27  and  C_36
   14  A    between atoms: C_28  and  C_38
   15  A    between atoms: N_31  and  C_37
   16  A    between atoms: C_36  and  C_40
                            x       y       z     vdW  Elec       q    Type
                         _______ _______ _______ _____ _____    ______ ____

>  <TORSDO>
F 16

$$$$
=
 OpenBabel10232407593D

 44 48  0  0  1  0  0  0  0  0999 V2000
  187.6730  178.6390  141.5440 C   0  0  0  0  0  1  0  0  0  0  0  0
  188.8460  177.8740  142.1390 C   0  0  1  0  0  3  0  0  0  0  0  0
  188.3230  176.7870  143.0370 C   0  0  0  0  0  0  0  0  0  0  0  0
  188.7020  175.6330  142.9010 O   0  0  0  0  0  0  0  0  0  0  0  0
  187.3090  177.1140  144.0860 C   0  0  0  0  0  2  0  0  0  0  0  0
  187.2850  178.0070  146.4830 C   0  0  0  0  0  0  0  0  0  0  0  0
  190.0130  177.3230  146.7230 C   0  0  0  0  0  0  0  0  0  0  0  0
  187.9720  178.1970  147.6910 C   0  0  0  0  0  3  0  0  0  0  0  0
  187.9820  177.4490  145.3810 C   0  0  0  0  0  0  0  0  0  0  0  0
  189.3350  177.1140  145.5140 C   0  0  0  0  0  3  0  0  0  0  0  0
  189.3220  177.8610  147.8090 C   0  0  0  0  0  3  0  0  0  0  0  0
  191.8040  175.7990  147.4900 C   0  0  0  0  0  1  0  0  0  0  0  0
  191.3640  177.0020  146.8710 O   0  0  0  0  0  0  0  0  0  0  0  0
  185.8590  178.4020  146.4220 C   0  0  0  0  0  0  0  0  0  0  0  0
  185.0080  177.7350  147.0730 O   0  0  0  0  0  0  0  0  0  0  0  0
  184.6650  179.6210  144.6560 C   0  0  0  0  0  3  0  0  0  0  0  0
  185.4600  179.5730  145.6870 N   0  0  0  0  0  0  0  0  0  0  0  0
  184.0580  178.4200  144.0060 C   0  0  0  0  0  2  0  0  0  0  0  0
  184.0200  178.6150  142.5020 C   0  0  0  0  0  2  0  0  0  0  0  0
  181.7100  179.0540  142.8660 O   0  0  0  0  0  1  0  0  0  0  0  0
  182.2960  178.5710  140.7030 O   0  0  0  0  0  0  0  0  0  0  0  0
  182.6120  178.7500  142.0440 C   0  0  0  0  0  0  0  0  0  0  0  0
  189.7630  177.3150  141.0410 C   0  0  2  0  0  3  0  0  0  0  0  0
  191.5910  177.5390  142.7440 O   0  0  0  0  0  1  0  0  0  0  0  0
  191.2070  177.4640  141.4090 C   0  0  0  0  0  0  0  0  0  0  0  0
  192.0820  177.5100  140.5060 O   0  0  0  0  0  0  0  0  0  0  0  0
  189.5130  178.0140  139.7080 C   0  0  0  0  0  2  0  0  0  0  0  0
  189.2200  176.9950  138.6230 C   0  0  0  0  0  2  0  0  0  0  0  0
  187.2800  176.4690  137.1610 C   0  0  2  0  0  3  0  0  0  0  0  0
  187.2680  177.8440  137.6620 C   0  0  0  0  0  2  0  0  0  0  0  0
  187.7780  176.7740  138.5340 N   0  0  0  0  0  0  0  0  0  0  0  0
  189.0890  174.9380  136.2870 C   0  0  1  0  0  3  0  0  0  0  0  0
  188.3710  176.2140  136.1060 C   0  0  1  0  0  0  0  0  0  0  0  0
  190.6200  176.5890  135.2710 C   0  0  0  0  0  2  0  0  0  0  0  0
  188.1860  175.1420  135.2140 O   0  0  0  0  0  0  0  0  0  0  0  0
  189.3400  177.2940  135.6680 C   0  0  0  0  0  2  0  0  0  0  0  0
  190.5410  175.1730  135.8450 C   0  0  2  0  0  0  0  0  0  0  0  0
  190.8670  174.1760  134.7370 C   0  0  0  0  0  1  0  0  0  0  0  0
  192.1990  173.6880  136.9320 C   0  0  0  0  0  2  0  0  0  0  0  0
  194.3060  174.8150  136.6980 O   0  0  0  0  0  0  0  0  0  0  0  0
  193.5050  173.8090  136.1400 C   0  0  0  0  0  2  0  0  0  0  0  0
  191.4660  174.9700  136.9890 N   0  0  0  0  0  0  0  0  0  0  0  0
  193.6540  176.0260  136.4250 C   0  0  0  0  0  2  0  0  0  0  0  0
  192.3640  176.1160  137.2460 C   0  0  0  0  0  2  0  0  0  0  0  0
  2  1  1  6  0  0  0
  2  3  1  0  0  0  0
  3  5  1  0  0  0  0
  4  3  2  0  0  0  0
  5  9  1  0  0  0  0
  6  8  1  0  0  0  0
  7 13  1  0  0  0  0
  7 11  1  0  0  0  0
  8 11  2  0  0  0  0
  9 10  1  0  0  0  0
  9  6  2  0  0  0  0
 10  7  2  0  0  0  0
 13 12  1  0  0  0  0
 14  6  1  0  0  0  0
 14 15  2  0  0  0  0
 16 17  2  0  0  0  0
 17 14  1  0  0  0  0
 18 16  1  0  0  0  0
 19 18  1  0  0  0  0
 21 22  2  0  0  0  0
 22 19  1  0  0  0  0
 22 20  1  0  0  0  0
 23 27  1  6  0  0  0
 23 25  1  0  0  0  0
 23  2  1  0  0  0  0
 25 24  1  0  0  0  0
 26 25  2  0  0  0  0
 28 27  1  0  0  0  0
 29 30  1  6  0  0  0
 29 31  1  0  0  0  0
 30 31  1  0  0  0  0
 31 28  1  0  0  0  0
 32 35  1  6  0  0  0
 33 36  1  6  0  0  0
 33 32  1  0  0  0  0
 33 29  1  0  0  0  0
 34 36  1  0  0  0  0
 34 37  1  0  0  0  0
 35 33  1  0  0  0  0
 37 38  1  6  0  0  0
 37 32  1  0  0  0  0
 37 42  1  0  0  0  0
 39 42  1  0  0  0  0
 41 40  1  0  0  0  0
 41 39  1  0  0  0  0
 42 44  1  0  0  0  0
 43 40  1  0  0  0  0
 43 44  1  0  0  0  0
M  END
>  <MODEL>
5

>  <REMARK>
 VINA RESULT:      -8.0      1.545      3.232
  Name = 
  16 active torsions:
  status: ('A' for Active; 'I' for Inactive)
    1  A    between atoms: C_1  and  C_21
    2  A    between atoms: C_4  and  C_37
    3  A    between atoms: C_4  and  C_43
    4  A    between atoms: C_6  and  C_27
    5  A    between atoms: C_7  and  C_9
    6  A    between atoms: C_8  and  O_33
    7  A    between atoms: N_17  and  C_34
    8  A    between atoms: C_19  and  C_43
    9  A    between atoms: C_21  and  N_23
   10  A    between atoms: C_24  and  C_28
   11  A    between atoms: C_24  and  C_43
   12  A    between atoms: C_25  and  C_38
   13  A    between atoms: C_27  and  C_36
   14  A    between atoms: C_28  and  C_38
   15  A    between atoms: N_31  and  C_37
   16  A    between atoms: C_36  and  C_40
                            x       y       z     vdW  Elec       q    Type
                         _______ _______ _______ _____ _____    ______ ____

>  <TORSDO>
F 16

$$$$
=
 OpenBabel10232407593D

 44 48  0  0  1  0  0  0  0  0999 V2000
  189.7240  178.5920  142.6680 C   0  0  0  0  0  1  0  0  0  0  0  0
  189.4120  177.1560  142.2700 C   0  0  1  0  0  3  0  0  0  0  0  0
  188.2140  176.6790  143.0430 C   0  0  0  0  0  0  0  0  0  0  0  0
  188.1010  175.5010  143.3470 O   0  0  0  0  0  0  0  0  0  0  0  0
  187.1370  177.6460  143.4180 C   0  0  0  0  0  2  0  0  0  0  0  0
  186.0750  178.5630  145.5550 C   0  0  0  0  0  0  0  0  0  0  0  0
  188.1510  177.3720  147.0510 C   0  0  0  0  0  0  0  0  0  0  0  0
  186.0880  178.6360  146.9570 C   0  0  0  0  0  3  0  0  0  0  0  0
  187.1200  177.8660  144.8980 C   0  0  0  0  0  0  0  0  0  0  0  0
  188.1430  177.2780  145.6530 C   0  0  0  0  0  3  0  0  0  0  0  0
  187.1160  178.0490  147.6970 C   0  0  0  0  0  3  0  0  0  0  0  0
  190.5430  176.8980  147.4690 C   0  0  0  0  0  1  0  0  0  0  0  0
  189.1680  176.7990  147.8190 O   0  0  0  0  0  0  0  0  0  0  0  0
  184.9640  179.2250  144.8330 C   0  0  0  0  0  0  0  0  0  0  0  0
  185.2230  179.9260  143.8160 O   0  0  0  0  0  0  0  0  0  0  0  0
  182.5740  178.7890  144.4770 C   0  0  0  0  0  3  0  0  0  0  0  0
  183.6010  179.0130  145.2450 N   0  0  0  0  0  0  0  0  0  0  0  0
  182.6290  178.7740  142.9830 C   0  0  0  0  0  2  0  0  0  0  0  0
  181.2540  179.0760  142.4160 C   0  0  0  0  0  2  0  0  0  0  0  0
  180.8300  177.4880  140.6950 O   0  0  0  0  0  1  0  0  0  0  0  0
  181.4980  179.5630  139.9840 O   0  0  0  0  0  0  0  0  0  0  0  0
  181.1900  178.6570  140.9910 C   0  0  0  0  0  0  0  0  0  0  0  0
  189.2000  177.0320  140.7540 C   0  0  2  0  0  3  0  0  0  0  0  0
  191.6230  177.5020  140.3080 O   0  0  0  0  0  1  0  0  0  0  0  0
  190.4880  176.7420  140.0470 C   0  0  0  0  0  0  0  0  0  0  0  0
  190.5490  175.7960  139.2190 O   0  0  0  0  0  0  0  0  0  0  0  0
  188.5900  178.3060  140.1770 C   0  0  0  0  0  2  0  0  0  0  0  0
  187.8760  178.0080  138.8720 C   0  0  0  0  0  2  0  0  0  0  0  0
  188.0260  178.6520  136.4770 C   0  0  2  0  0  3  0  0  0  0  0  0
  189.3280  178.5970  137.1410 C   0  0  0  0  0  2  0  0  0  0  0  0
  188.1600  179.0640  137.9040 N   0  0  0  0  0  0  0  0  0  0  0  0
  185.9310  177.2910  136.1010 C   0  0  1  0  0  3  0  0  0  0  0  0
  187.3990  177.2650  136.2480 C   0  0  1  0  0  0  0  0  0  0  0  0
  186.6030  175.1450  137.1240 C   0  0  0  0  0  2  0  0  0  0  0  0
  186.7870  177.0160  135.0060 O   0  0  0  0  0  0  0  0  0  0  0  0
  187.8170  176.0470  137.0490 C   0  0  0  0  0  2  0  0  0  0  0  0
  185.3950  175.9940  136.7260 C   0  0  2  0  0  0  0  0  0  0  0  0
  184.5990  175.2480  135.6600 C   0  0  0  0  0  1  0  0  0  0  0  0
  184.0870  177.7200  137.9300 C   0  0  0  0  0  2  0  0  0  0  0  0
  181.7870  177.1170  137.5970 O   0  0  0  0  0  0  0  0  0  0  0  0
  182.8040  177.9590  137.1270 C   0  0  0  0  0  2  0  0  0  0  0  0
  184.5140  176.3070  137.8810 N   0  0  0  0  0  0  0  0  0  0  0  0
  182.1580  175.8160  137.2250 C   0  0  0  0  0  2  0  0  0  0  0  0
  183.3780  175.3740  138.0390 C   0  0  0  0  0  2  0  0  0  0  0  0
  2  1  1  6  0  0  0
  2  3  1  0  0  0  0
  3  4  2  0  0  0  0
  3  5  1  0  0  0  0
  5  9  1  0  0  0  0
  6  8  1  0  0  0  0
  7 11  1  0  0  0  0
  7 13  1  0  0  0  0
  8 11  2  0  0  0  0
  9  6  2  0  0  0  0
  9 10  1  0  0  0  0
 10  7  2  0  0  0  0
 12 13  1  0  0  0  0
 14 17  1  0  0  0  0
 14  6  1  0  0  0  0
 15 14  2  0  0  0  0
 16 17  2  0  0  0  0
 18 16  1  0  0  0  0
 19 18  1  0  0  0  0
 20 22  1  0  0  0  0
 21 22  2  0  0  0  0
 22 19  1  0  0  0  0
 23 27  1  6  0  0  0
 23  2  1  0  0  0  0
 25 24  1  0  0  0  0
 25 23  1  0  0  0  0
 26 25  2  0  0  0  0
 28 27  1  0  0  0  0
 29 30  1  1  0  0  0
 29 31  1  0  0  0  0
 30 31  1  0  0  0  0
 31 28  1  0  0  0  0
 32 35  1  6  0  0  0
 32 33  1  0  0  0  0
 32 37  1  0  0  0  0
 33 29  1  0  0  0  0
 33 36  1  1  0  0  0
 35 33  1  0  0  0  0
 36 34  1  0  0  0  0
 37 38  1  6  0  0  0
 37 34  1  0  0  0  0
 37 42  1  0  0  0  0
 41 40  1  0  0  0  0
 41 39  1  0  0  0  0
 42 39  1  0  0  0  0
 42 44  1  0  0  0  0
 43 40  1  0  0  0  0
 43 44  1  0  0  0  0
M  END
>  <MODEL>
6

>  <REMARK>
 VINA RESULT:      -7.5      1.908      2.670
  Name = 
  16 active torsions:
  status: ('A' for Active; 'I' for Inactive)
    1  A    between atoms: C_1  and  C_21
    2  A    between atoms: C_4  and  C_37
    3  A    between atoms: C_4  and  C_43
    4  A    between atoms: C_6  and  C_27
    5  A    between atoms: C_7  and  C_9
    6  A    between atoms: C_8  and  O_33
    7  A    between atoms: N_17  and  C_34
    8  A    between atoms: C_19  and  C_43
    9  A    between atoms: C_21  and  N_23
   10  A    between atoms: C_24  and  C_28
   11  A    between atoms: C_24  and  C_43
   12  A    between atoms: C_25  and  C_38
   13  A    between atoms: C_27  and  C_36
   14  A    between atoms: C_28  and  C_38
   15  A    between atoms: N_31  and  C_37
   16  A    between atoms: C_36  and  C_40
                            x       y       z     vdW  Elec       q    Type
                         _______ _______ _______ _____ _____    ______ ____

>  <TORSDO>
F 16

$$$$
=
 OpenBabel10232407593D

 44 48  0  0  1  0  0  0  0  0999 V2000
  189.5490  178.6970  142.6080 C   0  0  0  0  0  1  0  0  0  0  0  0
  189.5450  177.2190  142.2460 C   0  0  1  0  0  3  0  0  0  0  0  0
  188.3460  176.5600  142.8700 C   0  0  0  0  0  0  0  0  0  0  0  0
  188.4310  175.4380  143.3470 O   0  0  0  0  0  0  0  0  0  0  0  0
  187.0300  177.2710  142.8820 C   0  0  0  0  0  2  0  0  0  0  0  0
  185.6430  178.6660  144.5150 C   0  0  0  0  0  0  0  0  0  0  0  0
  187.2210  177.6790  146.6370 C   0  0  0  0  0  0  0  0  0  0  0  0
  185.3680  179.0200  145.8450 C   0  0  0  0  0  3  0  0  0  0  0  0
  186.7240  177.7870  144.2530 C   0  0  0  0  0  0  0  0  0  0  0  0
  187.4980  177.3040  145.3150 C   0  0  0  0  0  3  0  0  0  0  0  0
  186.1490  178.5340  146.8940 C   0  0  0  0  0  3  0  0  0  0  0  0
  188.3320  178.0330  148.8190 C   0  0  0  0  0  1  0  0  0  0  0  0
  187.9880  177.2130  147.7080 O   0  0  0  0  0  0  0  0  0  0  0  0
  184.7840  179.2330  143.4500 C   0  0  0  0  0  0  0  0  0  0  0  0
  185.3060  179.9600  142.5610 O   0  0  0  0  0  0  0  0  0  0  0  0
  182.7370  178.4020  142.3770 C   0  0  0  0  0  3  0  0  0  0  0  0
  183.3840  178.9000  143.3910 N   0  0  0  0  0  0  0  0  0  0  0  0
  183.3470  178.1370  141.0390 C   0  0  0  0  0  2  0  0  0  0  0  0
  182.7450  179.0710  140.0060 C   0  0  0  0  0  2  0  0  0  0  0  0
  184.0880  180.6580  138.8470 O   0  0  0  0  0  1  0  0  0  0  0  0
  184.4130  178.4670  138.2560 O   0  0  0  0  0  0  0  0  0  0  0  0
  183.7750  179.4490  139.0020 C   0  0  0  0  0  0  0  0  0  0  0  0
  189.5800  177.0170  140.7230 C   0  0  2  0  0  3  0  0  0  0  0  0
  191.3020  175.9670  139.2330 O   0  0  0  0  0  0  0  0  0  0  0  0
  190.9850  176.8910  140.2230 C   0  0  0  0  0  0  0  0  0  0  0  0
  191.8860  177.6340  140.6920 O   0  0  0  0  0  1  0  0  0  0  0  0
  188.8950  178.1730  140.0000 C   0  0  0  0  0  2  0  0  0  0  0  0
  188.1310  177.6630  138.7920 C   0  0  0  0  0  2  0  0  0  0  0  0
  187.8380  178.5250  136.4800 C   0  0  2  0  0  3  0  0  0  0  0  0
  188.9540  179.1490  137.1910 C   0  0  0  0  0  2  0  0  0  0  0  0
  187.7440  178.7890  137.9450 N   0  0  0  0  0  0  0  0  0  0  0  0
  186.8850  176.2900  135.7890 C   0  0  1  0  0  3  0  0  0  0  0  0
  188.1070  177.0600  136.0900 C   0  0  1  0  0  0  0  0  0  0  0  0
  188.5890  174.7670  136.7280 C   0  0  0  0  0  2  0  0  0  0  0  0
  187.8030  176.6630  134.7760 O   0  0  0  0  0  0  0  0  0  0  0  0
  189.0920  176.1910  136.8460 C   0  0  0  0  0  2  0  0  0  0  0  0
  187.1340  174.8500  136.2620 C   0  0  2  0  0  0  0  0  0  0  0  0
  186.9480  173.9190  135.0680 C   0  0  0  0  0  1  0  0  0  0  0  0
  184.8880  175.2120  137.2420 C   0  0  0  0  0  2  0  0  0  0  0  0
  183.6820  173.1770  136.8270 O   0  0  0  0  0  0  0  0  0  0  0  0
  183.8810  174.4800  136.3490 C   0  0  0  0  0  2  0  0  0  0  0  0
  186.1720  174.4870  137.3340 N   0  0  0  0  0  0  0  0  0  0  0  0
  184.8800  172.4890  136.5860 C   0  0  0  0  0  2  0  0  0  0  0  0
  185.9820  173.0310  137.5020 C   0  0  0  0  0  2  0  0  0  0  0  0
  2  1  1  6  0  0  0
  2  3  1  0  0  0  0
  3  5  1  0  0  0  0
  3  4  2  0  0  0  0
  5  9  1  0  0  0  0
  6  8  1  0  0  0  0
  7 11  1  0  0  0  0
  7 13  1  0  0  0  0
  8 11  2  0  0  0  0
  9  6  2  0  0  0  0
  9 10  1  0  0  0  0
 10  7  2  0  0  0  0
 13 12  1  0  0  0  0
 14  6  1  0  0  0  0
 15 14  2  0  0  0  0
 16 17  2  0  0  0  0
 17 14  1  0  0  0  0
 18 16  1  0  0  0  0
 19 18  1  0  0  0  0
 20 22  1  0  0  0  0
 21 22  2  0  0  0  0
 22 19  1  0  0  0  0
 23 27  1  6  0  0  0
 23  2  1  0  0  0  0
 24 25  2  0  0  0  0
 25 26  1  0  0  0  0
 25 23  1  0  0  0  0
 28 27  1  0  0  0  0
 29 30  1  1  0  0  0
 29 31  1  0  0  0  0
 30 31  1  0  0  0  0
 31 28  1  0  0  0  0
 32 35  1  6  0  0  0
 32 33  1  0  0  0  0
 32 37  1  0  0  0  0
 33 29  1  0  0  0  0
 33 36  1  1  0  0  0
 34 36  1  0  0  0  0
 35 33  1  0  0  0  0
 37 38  1  6  0  0  0
 37 34  1  0  0  0  0
 37 42  1  0  0  0  0
 39 42  1  0  0  0  0
 41 40  1  0  0  0  0
 41 39  1  0  0  0  0
 42 44  1  0  0  0  0
 43 40  1  0  0  0  0
 43 44  1  0  0  0  0
M  END
>  <MODEL>
7

>  <REMARK>
 VINA RESULT:      -7.4      1.857      2.880
  Name = 
  16 active torsions:
  status: ('A' for Active; 'I' for Inactive)
    1  A    between atoms: C_1  and  C_21
    2  A    between atoms: C_4  and  C_37
    3  A    between atoms: C_4  and  C_43
    4  A    between atoms: C_6  and  C_27
    5  A    between atoms: C_7  and  C_9
    6  A    between atoms: C_8  and  O_33
    7  A    between atoms: N_17  and  C_34
    8  A    between atoms: C_19  and  C_43
    9  A    between atoms: C_21  and  N_23
   10  A    between atoms: C_24  and  C_28
   11  A    between atoms: C_24  and  C_43
   12  A    between atoms: C_25  and  C_38
   13  A    between atoms: C_27  and  C_36
   14  A    between atoms: C_28  and  C_38
   15  A    between atoms: N_31  and  C_37
   16  A    between atoms: C_36  and  C_40
                            x       y       z     vdW  Elec       q    Type
                         _______ _______ _______ _____ _____    ______ ____

>  <TORSDO>
F 16

$$$$
=
 OpenBabel10232407593D

 44 48  0  0  1  0  0  0  0  0999 V2000
  187.0070  176.8210  145.7790 C   0  0  0  0  0  1  0  0  0  0  0  0
  187.2060  178.0380  144.8870 C   0  0  1  0  0  3  0  0  0  0  0  0
  187.7840  177.5970  143.5710 C   0  0  0  0  0  0  0  0  0  0  0  0
  187.5930  176.4630  143.1580 O   0  0  0  0  0  0  0  0  0  0  0  0
  188.6250  178.5430  142.7750 C   0  0  0  0  0  2  0  0  0  0  0  0
  189.6940  177.3430  140.7860 C   0  0  0  0  0  0  0  0  0  0  0  0
  187.4770  178.0780  139.2010 C   0  0  0  0  0  0  0  0  0  0  0  0
  189.5910  176.9240  139.4510 C   0  0  0  0  0  3  0  0  0  0  0  0
  188.6540  178.1350  141.3350 C   0  0  0  0  0  0  0  0  0  0  0  0
  187.5600  178.4920  140.5380 C   0  0  0  0  0  3  0  0  0  0  0  0
  188.4960  177.2890  138.6660 C   0  0  0  0  0  3  0  0  0  0  0  0
  186.1710  177.8430  137.1130 C   0  0  0  0  0  1  0  0  0  0  0  0
  186.3970  178.4310  138.3890 O   0  0  0  0  0  0  0  0  0  0  0  0
  190.8920  176.9340  141.5550 C   0  0  0  0  0  0  0  0  0  0  0  0
  191.9390  177.6330  141.4790 O   0  0  0  0  0  0  0  0  0  0  0  0
  191.0210  175.7840  143.7210 C   0  0  0  0  0  3  0  0  0  0  0  0
  190.8390  175.7930  142.4310 N   0  0  0  0  0  0  0  0  0  0  0  0
  191.3860  176.9880  144.5270 C   0  0  0  0  0  2  0  0  0  0  0  0
  190.6730  176.9450  145.8660 C   0  0  0  0  0  2  0  0  0  0  0  0
  191.7370  177.2100  147.9780 O   0  0  0  0  0  1  0  0  0  0  0  0
  192.3530  175.3510  146.7860 O   0  0  0  0  0  0  0  0  0  0  0  0
  191.6200  176.5220  146.9310 C   0  0  0  0  0  0  0  0  0  0  0  0
  185.8930  178.8150  144.7020 C   0  0  2  0  0  3  0  0  0  0  0  0
  184.0520  178.4590  146.3680 O   0  0  0  0  0  0  0  0  0  0  0  0
  185.2380  179.0970  146.0180 C   0  0  0  0  0  0  0  0  0  0  0  0
  185.7690  179.9070  146.8220 O   0  0  0  0  0  1  0  0  0  0  0  0
  184.9190  178.0450  143.8140 C   0  0  0  0  0  2  0  0  0  0  0  0
  183.8910  178.9860  143.2170 C   0  0  0  0  0  2  0  0  0  0  0  0
  181.5860  178.3970  142.4990 C   0  0  2  0  0  3  0  0  0  0  0  0
  181.6580  179.6680  143.2190 C   0  0  0  0  0  2  0  0  0  0  0  0
  182.5500  178.5710  143.6230 N   0  0  0  0  0  0  0  0  0  0  0  0
  181.2040  178.6390  140.0130 C   0  0  1  0  0  3  0  0  0  0  0  0
  182.1990  178.4610  141.0890 C   0  0  1  0  0  0  0  0  0  0  0  0
  183.1160  177.3400  139.1400 C   0  0  0  0  0  2  0  0  0  0  0  0
  182.0990  179.6730  140.3820 O   0  0  0  0  0  0  0  0  0  0  0  0
  183.2850  177.5050  140.6350 C   0  0  0  0  0  2  0  0  0  0  0  0
  181.7220  177.8640  138.7910 C   0  0  2  0  0  0  0  0  0  0  0  0
  181.8430  178.8430  137.6270 C   0  0  0  0  0  1  0  0  0  0  0  0
  180.3180  176.8310  137.0310 C   0  0  0  0  0  2  0  0  0  0  0  0
  181.3830  174.7400  136.5210 O   0  0  0  0  0  0  0  0  0  0  0  0
  181.2580  176.0680  136.0910 C   0  0  0  0  0  2  0  0  0  0  0  0
  180.7770  176.7760  138.4340 N   0  0  0  0  0  0  0  0  0  0  0  0
  182.1040  174.7870  137.7230 C   0  0  0  0  0  2  0  0  0  0  0  0
  181.2440  175.4270  138.8170 C   0  0  0  0  0  2  0  0  0  0  0  0
  2  1  1  1  0  0  0
  3  2  1  0  0  0  0
  4  3  2  0  0  0  0
  5  3  1  0  0  0  0
  6  9  1  0  0  0  0
  6 14  1  0  0  0  0
  7 10  1  0  0  0  0
  8  6  2  0  0  0  0
  9  5  1  0  0  0  0
 10  9  2  0  0  0  0
 11  7  2  0  0  0  0
 11  8  1  0  0  0  0
 12 13  1  0  0  0  0
 13  7  1  0  0  0  0
 14 17  1  0  0  0  0
 15 14  2  0  0  0  0
 16 18  1  0  0  0  0
 17 16  2  0  0  0  0
 18 19  1  0  0  0  0
 19 22  1  0  0  0  0
 21 22  2  0  0  0  0
 22 20  1  0  0  0  0
 23 27  1  6  0  0  0
 23  2  1  0  0  0  0
 23 25  1  0  0  0  0
 25 24  2  0  0  0  0
 25 26  1  0  0  0  0
 28 31  1  0  0  0  0
 28 27  1  0  0  0  0
 29 30  1  6  0  0  0
 29 31  1  0  0  0  0
 30 31  1  0  0  0  0
 32 35  1  6  0  0  0
 32 33  1  0  0  0  0
 33 36  1  6  0  0  0
 33 29  1  0  0  0  0
 34 36  1  0  0  0  0
 35 33  1  0  0  0  0
 37 38  1  6  0  0  0
 37 34  1  0  0  0  0
 37 32  1  0  0  0  0
 39 42  1  0  0  0  0
 40 43  1  0  0  0  0
 41 40  1  0  0  0  0
 41 39  1  0  0  0  0
 42 37  1  0  0  0  0
 42 44  1  0  0  0  0
 43 44  1  0  0  0  0
M  END
>  <MODEL>
8

>  <REMARK>
 VINA RESULT:      -7.4      2.546      7.822
  Name = 
  16 active torsions:
  status: ('A' for Active; 'I' for Inactive)
    1  A    between atoms: C_1  and  C_21
    2  A    between atoms: C_4  and  C_37
    3  A    between atoms: C_4  and  C_43
    4  A    between atoms: C_6  and  C_27
    5  A    between atoms: C_7  and  C_9
    6  A    between atoms: C_8  and  O_33
    7  A    between atoms: N_17  and  C_34
    8  A    between atoms: C_19  and  C_43
    9  A    between atoms: C_21  and  N_23
   10  A    between atoms: C_24  and  C_28
   11  A    between atoms: C_24  and  C_43
   12  A    between atoms: C_25  and  C_38
   13  A    between atoms: C_27  and  C_36
   14  A    between atoms: C_28  and  C_38
   15  A    between atoms: N_31  and  C_37
   16  A    between atoms: C_36  and  C_40
                            x       y       z     vdW  Elec       q    Type
                         _______ _______ _______ _____ _____    ______ ____

>  <TORSDO>
F 16

$$$$
=
 OpenBabel10232407593D

 44 48  0  0  1  0  0  0  0  0999 V2000
  187.1270  178.4160  140.3730 C   0  0  0  0  0  1  0  0  0  0  0  0
  188.5210  178.3260  140.9770 C   0  0  1  0  0  3  0  0  0  0  0  0
  188.4050  178.0060  142.4420 C   0  0  0  0  0  0  0  0  0  0  0  0
  189.2910  178.3300  143.2200 O   0  0  0  0  0  0  0  0  0  0  0  0
  187.2120  177.2610  142.9480 C   0  0  0  0  0  2  0  0  0  0  0  0
  185.6870  178.6160  144.4900 C   0  0  0  0  0  0  0  0  0  0  0  0
  187.1620  177.6790  146.7070 C   0  0  0  0  0  0  0  0  0  0  0  0
  185.3210  178.9640  145.7990 C   0  0  0  0  0  3  0  0  0  0  0  0
  186.8080  177.7700  144.2960 C   0  0  0  0  0  0  0  0  0  0  0  0
  187.5300  177.3110  145.4050 C   0  0  0  0  0  3  0  0  0  0  0  0
  186.0520  178.5030  146.8960 C   0  0  0  0  0  3  0  0  0  0  0  0
  188.6180  178.1190  148.6580 C   0  0  0  0  0  1  0  0  0  0  0  0
  187.8750  177.2380  147.8230 O   0  0  0  0  0  0  0  0  0  0  0  0
  184.8780  179.1560  143.3730 C   0  0  0  0  0  0  0  0  0  0  0  0
  185.4290  179.9100  142.5240 O   0  0  0  0  0  0  0  0  0  0  0  0
  182.9260  178.3190  142.1410 C   0  0  0  0  0  3  0  0  0  0  0  0
  183.5010  178.7690  143.2190 N   0  0  0  0  0  0  0  0  0  0  0  0
  183.6110  178.1800  140.8190 C   0  0  0  0  0  2  0  0  0  0  0  0
  182.6910  178.6590  139.7120 C   0  0  0  0  0  2  0  0  0  0  0  0
  184.4400  180.1920  139.2100 O   0  0  0  0  0  1  0  0  0  0  0  0
  182.3560  180.7920  138.4670 O   0  0  0  0  0  0  0  0  0  0  0  0
  183.2140  179.9220  139.1280 C   0  0  0  0  0  0  0  0  0  0  0  0
  189.3850  177.2950  140.2350 C   0  0  2  0  0  3  0  0  0  0  0  0
  191.7100  177.5810  141.1310 O   0  0  0  0  0  0  0  0  0  0  0  0
  190.5350  176.8400  141.0790 C   0  0  0  0  0  0  0  0  0  0  0  0
  190.4330  175.7850  141.7590 O   0  0  0  0  0  1  0  0  0  0  0  0
  189.9240  177.8690  138.9270 C   0  0  0  0  0  2  0  0  0  0  0  0
  189.5910  176.9490  137.7680 C   0  0  0  0  0  2  0  0  0  0  0  0
  188.1470  175.0100  137.1930 C   0  0  2  0  0  3  0  0  0  0  0  0
  187.5310  176.2990  136.8830 C   0  0  0  0  0  2  0  0  0  0  0  0
  188.3820  176.1880  138.0770 N   0  0  0  0  0  0  0  0  0  0  0  0
  190.3670  173.8400  136.8920 C   0  0  1  0  0  3  0  0  0  0  0  0
  189.3120  174.6500  136.2520 C   0  0  1  0  0  0  0  0  0  0  0  0
  191.3840  175.2550  135.1410 C   0  0  0  0  0  2  0  0  0  0  0  0
  189.4940  173.2950  135.9190 O   0  0  0  0  0  0  0  0  0  0  0  0
  189.9360  175.6630  135.3140 C   0  0  0  0  0  2  0  0  0  0  0  0
  191.7030  174.2670  136.2650 C   0  0  2  0  0  0  0  0  0  0  0  0
  192.3580  173.0300  135.6590 C   0  0  0  0  0  1  0  0  0  0  0  0
  193.6810  173.9420  137.7200 C   0  0  0  0  0  2  0  0  0  0  0  0
  195.3580  175.4210  136.8450 O   0  0  0  0  0  0  0  0  0  0  0  0
  194.9230  174.0880  136.8350 C   0  0  0  0  0  2  0  0  0  0  0  0
  192.5940  174.8500  137.3000 N   0  0  0  0  0  0  0  0  0  0  0  0
  194.3840  176.1510  136.1500 C   0  0  0  0  0  2  0  0  0  0  0  0
  193.0910  176.2020  136.9700 C   0  0  0  0  0  2  0  0  0  0  0  0
  2  1  1  6  0  0  0
  2  3  1  0  0  0  0
  3  5  1  0  0  0  0
  3  4  2  0  0  0  0
  5  9  1  0  0  0  0
  6  8  1  0  0  0  0
  7 11  1  0  0  0  0
  7 13  1  0  0  0  0
  8 11  2  0  0  0  0
  9  6  2  0  0  0  0
  9 10  1  0  0  0  0
 10  7  2  0  0  0  0
 13 12  1  0  0  0  0
 14  6  1  0  0  0  0
 15 14  2  0  0  0  0
 16 17  2  0  0  0  0
 17 14  1  0  0  0  0
 18 16  1  0  0  0  0
 19 18  1  0  0  0  0
 21 22  2  0  0  0  0
 22 20  1  0  0  0  0
 22 19  1  0  0  0  0
 23 27  1  6  0  0  0
 23  2  1  0  0  0  0
 23 25  1  0  0  0  0
 25 24  2  0  0  0  0
 25 26  1  0  0  0  0
 28 31  1  0  0  0  0
 28 27  1  0  0  0  0
 29 30  1  6  0  0  0
 29 31  1  0  0  0  0
 30 31  1  0  0  0  0
 32 35  1  6  0  0  0
 33 36  1  6  0  0  0
 33 32  1  0  0  0  0
 33 29  1  0  0  0  0
 34 36  1  0  0  0  0
 34 37  1  0  0  0  0
 35 33  1  0  0  0  0
 37 38  1  6  0  0  0
 37 32  1  0  0  0  0
 37 42  1  0  0  0  0
 41 40  1  0  0  0  0
 41 39  1  0  0  0  0
 42 39  1  0  0  0  0
 43 40  1  0  0  0  0
 43 44  1  0  0  0  0
 44 42  1  0  0  0  0
M  END
>  <MODEL>
9

>  <REMARK>
 VINA RESULT:      -7.4      1.986      3.946
  Name = 
  16 active torsions:
  status: ('A' for Active; 'I' for Inactive)
    1  A    between atoms: C_1  and  C_21
    2  A    between atoms: C_4  and  C_37
    3  A    between atoms: C_4  and  C_43
    4  A    between atoms: C_6  and  C_27
    5  A    between atoms: C_7  and  C_9
    6  A    between atoms: C_8  and  O_33
    7  A    between atoms: N_17  and  C_34
    8  A    between atoms: C_19  and  C_43
    9  A    between atoms: C_21  and  N_23
   10  A    between atoms: C_24  and  C_28
   11  A    between atoms: C_24  and  C_43
   12  A    between atoms: C_25  and  C_38
   13  A    between atoms: C_27  and  C_36
   14  A    between atoms: C_28  and  C_38
   15  A    between atoms: N_31  and  C_37
   16  A    between atoms: C_36  and  C_40
                            x       y       z     vdW  Elec       q    Type
                         _______ _______ _______ _____ _____    ______ ____

>  <TORSDO>
F 16

$$$$
