=
 OpenBabel10232409053D

 28 31  0  0  1  0  0  0  0  0999 V2000
  188.2490  177.2890  143.0450 C   0  0  1  0  0  0  0  0  0  0  0  0
  188.2570  175.9180  142.7640 O   0  0  0  0  0  1  0  0  0  0  0  0
  185.8820  177.9020  142.5280 N   0  0  0  0  0  0  0  0  0  0  0  0
  186.8390  177.6880  143.4750 C   0  0  0  0  0  0  0  0  0  0  0  0
  183.6770  178.5040  141.8480 C   0  0  0  0  0  3  0  0  0  0  0  0
  184.2780  178.5240  144.2000 C   0  0  0  0  0  0  0  0  0  0  0  0
  182.0690  179.1270  143.5040 N   0  0  0  0  0  0  0  0  0  0  0  0
  182.3900  178.9190  142.1980 C   0  0  0  0  0  3  0  0  0  0  0  0
  186.5310  177.9130  144.8270 C   0  0  0  0  0  3  0  0  0  0  0  0
  184.6260  178.3040  142.8510 C   0  0  0  0  0  0  0  0  0  0  0  0
  184.9540  178.5470  146.6400 C   0  0  0  0  0  1  0  0  0  0  0  0
  185.2490  178.3240  145.1940 C   0  0  0  0  0  0  0  0  0  0  0  0
  182.9750  178.9410  144.5020 C   0  0  0  0  0  3  0  0  0  0  0  0
  192.1800  179.5830  144.3820 C   0  0  0  0  0  1  0  0  0  0  0  0
  191.3080  178.4510  143.8640 C   0  0  2  0  0  3  0  0  0  0  0  0
  190.2730  176.4220  144.3420 C   0  0  0  0  0  2  0  0  0  0  0  0
  189.9460  178.7720  143.9930 O   0  0  0  0  0  0  0  0  0  0  0  0
  191.5690  177.1300  144.5580 C   0  0  2  0  0  3  0  0  0  0  0  0
  189.2630  177.5510  144.1810 C   0  0  1  0  0  3  0  0  0  0  0  0
  191.7560  177.3140  145.9320 O   0  0  0  0  0  1  0  0  0  0  0  0
  188.7490  178.0180  141.7670 C   0  0  2  0  0  3  0  0  0  0  0  0
  188.0530  178.6340  139.5750 O   0  0  0  0  0  1  0  0  0  0  0  0
  188.0650  177.5740  140.4850 C   0  0  1  0  0  3  0  0  0  0  0  0
  189.4920  177.1140  140.7970 C   0  0  1  0  0  3  0  0  0  0  0  0
  190.4510  177.8670  140.0930 O   0  0  0  0  0  0  0  0  0  0  0  0
  191.3440  176.8480  138.1970 O   0  0  0  0  0  1  0  0  0  0  0  0
  191.4350  176.9890  139.5860 C   0  0  1  0  0  3  0  0  0  0  0  0
  192.8450  177.3850  140.0070 C   0  0  0  0  0  1  0  0  0  0  0  0
  1  2  1  6  0  0  0
  1  4  1  0  0  0  0
  3 10  2  0  0  0  0
  3  4  1  0  0  0  0
  4  9  2  0  0  0  0
  5  8  2  0  0  0  0
  5 10  1  0  0  0  0
  6 13  1  0  0  0  0
  6 12  2  0  0  0  0
  7 13  2  0  0  0  0
  8  7  1  0  0  0  0
  9 12  1  0  0  0  0
 10  6  1  0  0  0  0
 12 11  1  0  0  0  0
 15 17  1  0  0  0  0
 15 14  1  1  0  0  0
 15 18  1  0  0  0  0
 16 18  1  0  0  0  0
 17 19  1  0  0  0  0
 18 20  1  1  0  0  0
 19  1  1  6  0  0  0
 19 16  1  0  0  0  0
 21  1  1  1  0  0  0
 23 22  1  6  0  0  0
 23 24  1  0  0  0  0
 23 21  1  0  0  0  0
 24 25  1  6  0  0  0
 24 21  1  0  0  0  0
 26 27  1  0  0  0  0
 27 28  1  6  0  0  0
 27 25  1  0  0  0  0
M  END
>  <MODEL>
1

>  <REMARK>
 VINA RESULT:      -8.4      0.000      0.000
  Name = 
  5 active torsions:
  status: ('A' for Active; 'I' for Inactive)
    1  A    between atoms: C_2  and  C_8
    2  A    between atoms: C_5  and  O_12
    3  A    between atoms: C_6  and  C_8
    4  A    between atoms: C_8  and  C_22
    5  A    between atoms: O_12  and  C_18
                            x       y       z     vdW  Elec       q    Type
                         _______ _______ _______ _____ _____    ______ ____

>  <TORSDO>
F 5

$$$$
=
 OpenBabel10232409053D

 28 31  0  0  1  0  0  0  0  0999 V2000
  187.9720  177.7200  142.5320 C   0  0  1  0  0  0  0  0  0  0  0  0
  187.3580  176.5080  142.1950 O   0  0  0  0  0  1  0  0  0  0  0  0
  189.7920  177.1240  144.1370 N   0  0  0  0  0  0  0  0  0  0  0  0
  188.5300  177.6040  143.9480 C   0  0  0  0  0  0  0  0  0  0  0  0
  191.6200  176.4660  145.5200 C   0  0  0  0  0  3  0  0  0  0  0  0
  189.5590  177.2700  146.5200 C   0  0  0  0  0  0  0  0  0  0  0  0
  191.4010  176.6060  147.8970 N   0  0  0  0  0  0  0  0  0  0  0  0
  192.1480  176.2980  146.8020 C   0  0  0  0  0  3  0  0  0  0  0  0
  187.7390  177.9140  145.0660 C   0  0  0  0  0  3  0  0  0  0  0  0
  190.3210  176.9550  145.3760 C   0  0  0  0  0  0  0  0  0  0  0  0
  187.3860  178.1000  147.5190 C   0  0  0  0  0  1  0  0  0  0  0  0
  188.2520  177.7550  146.3550 C   0  0  0  0  0  0  0  0  0  0  0  0
  190.1320  177.0840  147.7850 C   0  0  0  0  0  3  0  0  0  0  0  0
  189.0970  178.6710  138.0230 C   0  0  0  0  0  1  0  0  0  0  0  0
  188.8490  177.8500  139.2770 C   0  0  2  0  0  3  0  0  0  0  0  0
  189.7990  176.7000  141.0640 C   0  0  0  0  0  2  0  0  0  0  0  0
  188.6370  178.6860  140.3860 O   0  0  0  0  0  0  0  0  0  0  0  0
  189.9770  176.8900  139.5940 C   0  0  2  0  0  3  0  0  0  0  0  0
  189.1070  177.9800  141.5160 C   0  0  1  0  0  3  0  0  0  0  0  0
  191.2220  177.4860  139.3660 O   0  0  0  0  0  1  0  0  0  0  0  0
  186.9020  178.8340  142.3640 C   0  0  2  0  0  3  0  0  0  0  0  0
  184.8700  179.6300  143.3180 O   0  0  0  0  0  1  0  0  0  0  0  0
  185.5300  178.4690  142.9060 C   0  0  1  0  0  3  0  0  0  0  0  0
  185.7860  178.4710  141.3960 C   0  0  1  0  0  3  0  0  0  0  0  0
  185.2980  179.6400  140.7830 O   0  0  0  0  0  0  0  0  0  0  0  0
  184.0100  180.3910  138.9910 O   0  0  0  0  0  1  0  0  0  0  0  0
  184.5170  179.2730  139.6640 C   0  0  1  0  0  3  0  0  0  0  0  0
  185.2600  178.3470  138.7100 C   0  0  0  0  0  1  0  0  0  0  0  0
  1  2  1  6  0  0  0
  1  4  1  0  0  0  0
  3 10  1  0  0  0  0
  4  3  2  0  0  0  0
  4  9  1  0  0  0  0
  5  8  1  0  0  0  0
  6 13  2  0  0  0  0
  8  7  2  0  0  0  0
  9 12  2  0  0  0  0
 10  5  2  0  0  0  0
 10  6  1  0  0  0  0
 12  6  1  0  0  0  0
 12 11  1  0  0  0  0
 13  7  1  0  0  0  0
 15 14  1  6  0  0  0
 15 18  1  0  0  0  0
 15 17  1  0  0  0  0
 16 19  1  0  0  0  0
 17 19  1  0  0  0  0
 18 20  1  1  0  0  0
 18 16  1  0  0  0  0
 19  1  1  1  0  0  0
 21  1  1  1  0  0  0
 21 23  1  0  0  0  0
 23 22  1  6  0  0  0
 24 25  1  6  0  0  0
 24 21  1  0  0  0  0
 24 23  1  0  0  0  0
 26 27  1  0  0  0  0
 27 28  1  6  0  0  0
 27 25  1  0  0  0  0
M  END
>  <MODEL>
2

>  <REMARK>
 VINA RESULT:      -7.8      2.784      5.829
  Name = 
  5 active torsions:
  status: ('A' for Active; 'I' for Inactive)
    1  A    between atoms: C_2  and  C_8
    2  A    between atoms: C_5  and  O_12
    3  A    between atoms: C_6  and  C_8
    4  A    between atoms: C_8  and  C_22
    5  A    between atoms: O_12  and  C_18
                            x       y       z     vdW  Elec       q    Type
                         _______ _______ _______ _____ _____    ______ ____

>  <TORSDO>
F 5

$$$$
=
 OpenBabel10232409053D

 28 31  0  0  1  0  0  0  0  0999 V2000
  187.5420  177.6150  143.4740 C   0  0  1  0  0  0  0  0  0  0  0  0
  187.5800  176.2170  143.5200 O   0  0  0  0  0  1  0  0  0  0  0  0
  185.1350  178.1660  143.8570 N   0  0  0  0  0  0  0  0  0  0  0  0
  186.1660  178.0470  142.9730 C   0  0  0  0  0  0  0  0  0  0  0  0
  182.8570  178.6170  144.4020 C   0  0  0  0  0  3  0  0  0  0  0  0
  183.6060  178.7270  142.0950 C   0  0  0  0  0  0  0  0  0  0  0  0
  181.3230  179.1760  142.6550 N   0  0  0  0  0  0  0  0  0  0  0  0
  181.5720  178.9610  143.9750 C   0  0  0  0  0  3  0  0  0  0  0  0
  185.9240  178.2510  141.6040 C   0  0  0  0  0  3  0  0  0  0  0  0
  183.8800  178.5010  143.4600 C   0  0  0  0  0  0  0  0  0  0  0  0
  184.4280  178.8140  139.7020 C   0  0  0  0  0  1  0  0  0  0  0  0
  184.6470  178.5980  141.1620 C   0  0  0  0  0  0  0  0  0  0  0  0
  182.3010  179.0680  141.7160 C   0  0  0  0  0  3  0  0  0  0  0  0
  190.1950  177.3010  147.3940 C   0  0  0  0  0  1  0  0  0  0  0  0
  189.0260  177.0620  146.4520 C   0  0  2  0  0  3  0  0  0  0  0  0
  186.8190  177.5820  145.9250 C   0  0  0  0  0  2  0  0  0  0  0  0
  189.1200  177.8900  145.3210 O   0  0  0  0  0  0  0  0  0  0  0  0
  187.6770  177.2780  147.1080 C   0  0  2  0  0  3  0  0  0  0  0  0
  187.7960  178.1480  144.9020 C   0  0  1  0  0  3  0  0  0  0  0  0
  187.7010  178.3970  147.9460 O   0  0  0  0  0  1  0  0  0  0  0  0
  188.7170  178.0720  142.5660 C   0  0  2  0  0  3  0  0  0  0  0  0
  189.3730  178.1910  140.2800 O   0  0  0  0  0  1  0  0  0  0  0  0
  188.7950  177.3480  141.2320 C   0  0  1  0  0  3  0  0  0  0  0  0
  189.7790  177.0050  142.3550 C   0  0  1  0  0  3  0  0  0  0  0  0
  191.0310  177.6200  142.1600 O   0  0  0  0  0  0  0  0  0  0  0  0
  191.8860  178.2980  144.2190 O   0  0  0  0  0  1  0  0  0  0  0  0
  191.8710  177.2920  143.2470 C   0  0  1  0  0  3  0  0  0  0  0  0
  191.5330  175.9400  143.8610 C   0  0  0  0  0  1  0  0  0  0  0  0
  1  2  1  1  0  0  0
  4  1  1  0  0  0  0
  4  3  2  0  0  0  0
  6 10  1  0  0  0  0
  7  8  2  0  0  0  0
  8  5  1  0  0  0  0
  9  4  1  0  0  0  0
 10  3  1  0  0  0  0
 10  5  2  0  0  0  0
 11 12  1  0  0  0  0
 12  9  2  0  0  0  0
 12  6  1  0  0  0  0
 13  6  2  0  0  0  0
 13  7  1  0  0  0  0
 15 18  1  0  0  0  0
 15 14  1  1  0  0  0
 16 18  1  0  0  0  0
 17 15  1  0  0  0  0
 18 20  1  1  0  0  0
 19  1  1  6  0  0  0
 19 17  1  0  0  0  0
 19 16  1  0  0  0  0
 21  1  1  1  0  0  0
 23 22  1  6  0  0  0
 23 24  1  0  0  0  0
 23 21  1  0  0  0  0
 24 25  1  6  0  0  0
 24 21  1  0  0  0  0
 25 27  1  0  0  0  0
 27 28  1  1  0  0  0
 27 26  1  0  0  0  0
M  END
>  <MODEL>
3

>  <REMARK>
 VINA RESULT:      -7.8      1.757      3.204
  Name = 
  5 active torsions:
  status: ('A' for Active; 'I' for Inactive)
    1  A    between atoms: C_2  and  C_8
    2  A    between atoms: C_5  and  O_12
    3  A    between atoms: C_6  and  C_8
    4  A    between atoms: C_8  and  C_22
    5  A    between atoms: O_12  and  C_18
                            x       y       z     vdW  Elec       q    Type
                         _______ _______ _______ _____ _____    ______ ____

>  <TORSDO>
F 5

$$$$
=
 OpenBabel10232409053D

 28 31  0  0  1  0  0  0  0  0999 V2000
  187.5030  177.5540  143.6380 C   0  0  1  0  0  0  0  0  0  0  0  0
  187.6160  176.1600  143.6710 O   0  0  0  0  0  1  0  0  0  0  0  0
  185.7600  177.9870  141.9010 N   0  0  0  0  0  0  0  0  0  0  0  0
  186.0790  177.9160  143.2250 C   0  0  0  0  0  0  0  0  0  0  0  0
  184.2390  178.4020  140.1120 C   0  0  0  0  0  3  0  0  0  0  0  0
  183.5210  178.6800  142.4140 C   0  0  0  0  0  0  0  0  0  0  0  0
  182.0050  179.0950  140.6090 N   0  0  0  0  0  0  0  0  0  0  0  0
  182.9610  178.7790  139.6930 C   0  0  0  0  0  3  0  0  0  0  0  0
  185.1100  178.2530  144.1840 C   0  0  0  0  0  3  0  0  0  0  0  0
  184.5220  178.3500  141.4770 C   0  0  0  0  0  0  0  0  0  0  0  0
  182.8200  178.9730  144.8300 C   0  0  0  0  0  1  0  0  0  0  0  0
  183.8270  178.6290  143.7830 C   0  0  0  0  0  0  0  0  0  0  0  0
  182.2540  179.0540  141.9460 C   0  0  0  0  0  3  0  0  0  0  0  0
  190.3750  177.3250  147.4070 C   0  0  0  0  0  1  0  0  0  0  0  0
  189.1660  177.0480  146.5290 C   0  0  2  0  0  3  0  0  0  0  0  0
  186.9170  177.4950  146.1240 C   0  0  0  0  0  2  0  0  0  0  0  0
  189.1710  177.8800  145.3970 O   0  0  0  0  0  0  0  0  0  0  0  0
  187.8480  177.2180  147.2580 C   0  0  2  0  0  3  0  0  0  0  0  0
  187.8180  178.0940  145.0510 C   0  0  1  0  0  3  0  0  0  0  0  0
  187.8800  178.3370  148.0970 O   0  0  0  0  0  1  0  0  0  0  0  0
  188.5950  178.0750  142.6630 C   0  0  2  0  0  3  0  0  0  0  0  0
  189.0790  178.2850  140.3400 O   0  0  0  0  0  1  0  0  0  0  0  0
  188.5960  177.3950  141.3040 C   0  0  1  0  0  3  0  0  0  0  0  0
  189.6690  177.0480  142.3400 C   0  0  1  0  0  3  0  0  0  0  0  0
  190.8850  177.7070  142.0760 O   0  0  0  0  0  0  0  0  0  0  0  0
  191.9190  178.3830  144.0520 O   0  0  0  0  0  1  0  0  0  0  0  0
  191.8110  177.3730  143.0890 C   0  0  1  0  0  3  0  0  0  0  0  0
  191.5110  176.0270  143.7360 C   0  0  0  0  0  1  0  0  0  0  0  0
  1  2  1  1  0  0  0
  3  4  1  0  0  0  0
  4  1  1  0  0  0  0
  4  9  2  0  0  0  0
  5 10  1  0  0  0  0
  6 12  2  0  0  0  0
  7 13  2  0  0  0  0
  8  5  2  0  0  0  0
  8  7  1  0  0  0  0
 10  3  2  0  0  0  0
 10  6  1  0  0  0  0
 12  9  1  0  0  0  0
 12 11  1  0  0  0  0
 13  6  1  0  0  0  0
 15 18  1  0  0  0  0
 15 14  1  1  0  0  0
 16 18  1  0  0  0  0
 17 15  1  0  0  0  0
 18 20  1  1  0  0  0
 19  1  1  6  0  0  0
 19 17  1  0  0  0  0
 19 16  1  0  0  0  0
 21  1  1  1  0  0  0
 23 22  1  6  0  0  0
 23 24  1  0  0  0  0
 23 21  1  0  0  0  0
 24 25  1  6  0  0  0
 24 21  1  0  0  0  0
 25 27  1  0  0  0  0
 27 28  1  1  0  0  0
 27 26  1  0  0  0  0
M  END
>  <MODEL>
4

>  <REMARK>
 VINA RESULT:      -7.7      1.806      2.813
  Name = 
  5 active torsions:
  status: ('A' for Active; 'I' for Inactive)
    1  A    between atoms: C_2  and  C_8
    2  A    between atoms: C_5  and  O_12
    3  A    between atoms: C_6  and  C_8
    4  A    between atoms: C_8  and  C_22
    5  A    between atoms: O_12  and  C_18
                            x       y       z     vdW  Elec       q    Type
                         _______ _______ _______ _____ _____    ______ ____

>  <TORSDO>
F 5

$$$$
=
 OpenBabel10232409053D

 28 31  0  0  1  0  0  0  0  0999 V2000
  187.8930  177.7350  142.5830 C   0  0  1  0  0  0  0  0  0  0  0  0
  187.3100  176.5110  142.2370 O   0  0  0  0  0  1  0  0  0  0  0  0
  187.5860  177.9660  145.0530 N   0  0  0  0  0  0  0  0  0  0  0  0
  188.4100  177.6380  144.0170 C   0  0  0  0  0  0  0  0  0  0  0  0
  187.1270  178.2820  147.3720 C   0  0  0  0  0  3  0  0  0  0  0  0
  189.3370  177.5840  146.6480 C   0  0  0  0  0  0  0  0  0  0  0  0
  188.8630  177.9060  148.9720 N   0  0  0  0  0  0  0  0  0  0  0  0
  187.5780  178.2550  148.6930 C   0  0  0  0  0  3  0  0  0  0  0  0
  189.7440  177.2900  144.2840 C   0  0  0  0  0  3  0  0  0  0  0  0
  188.0080  177.9440  146.3440 C   0  0  0  0  0  0  0  0  0  0  0  0
  191.6310  176.8730  145.8470 C   0  0  0  0  0  1  0  0  0  0  0  0
  190.2100  177.2540  145.5990 C   0  0  0  0  0  0  0  0  0  0  0  0
  189.7430  177.5730  147.9890 C   0  0  0  0  0  3  0  0  0  0  0  0
  189.1390  178.6730  138.1030 C   0  0  0  0  0  1  0  0  0  0  0  0
  188.8670  177.8570  139.3560 C   0  0  2  0  0  3  0  0  0  0  0  0
  189.7800  176.7350  141.1800 C   0  0  0  0  0  2  0  0  0  0  0  0
  188.6080  178.6970  140.4520 O   0  0  0  0  0  0  0  0  0  0  0  0
  190.0000  176.9180  139.7140 C   0  0  2  0  0  3  0  0  0  0  0  0
  189.0540  178.0070  141.6000 C   0  0  1  0  0  3  0  0  0  0  0  0
  191.2420  177.5320  139.5190 O   0  0  0  0  0  1  0  0  0  0  0  0
  186.8110  178.8300  142.3750 C   0  0  2  0  0  3  0  0  0  0  0  0
  184.7150  179.5710  143.2290 O   0  0  0  0  0  1  0  0  0  0  0  0
  185.4200  178.4300  142.8360 C   0  0  1  0  0  3  0  0  0  0  0  0
  185.7570  178.4620  141.3430 C   0  0  1  0  0  3  0  0  0  0  0  0
  185.2790  179.6320  140.7220 O   0  0  0  0  0  0  0  0  0  0  0  0
  184.0360  180.3830  138.8990 O   0  0  0  0  0  1  0  0  0  0  0  0
  184.5190  179.2650  139.5880 C   0  0  1  0  0  3  0  0  0  0  0  0
  185.2760  178.3300  138.6540 C   0  0  0  0  0  1  0  0  0  0  0  0
  1  2  1  6  0  0  0
  1  4  1  0  0  0  0
  3 10  1  0  0  0  0
  4  9  1  0  0  0  0
  4  3  2  0  0  0  0
  5  8  1  0  0  0  0
  6 13  2  0  0  0  0
  8  7  2  0  0  0  0
  9 12  2  0  0  0  0
 10  6  1  0  0  0  0
 10  5  2  0  0  0  0
 12 11  1  0  0  0  0
 12  6  1  0  0  0  0
 13  7  1  0  0  0  0
 15 14  1  6  0  0  0
 15 18  1  0  0  0  0
 15 17  1  0  0  0  0
 16 19  1  0  0  0  0
 17 19  1  0  0  0  0
 18 20  1  1  0  0  0
 18 16  1  0  0  0  0
 19  1  1  1  0  0  0
 21  1  1  1  0  0  0
 21 23  1  0  0  0  0
 23 22  1  6  0  0  0
 24 25  1  6  0  0  0
 24 21  1  0  0  0  0
 24 23  1  0  0  0  0
 26 27  1  0  0  0  0
 27 28  1  6  0  0  0
 27 25  1  0  0  0  0
M  END
>  <MODEL>
5

>  <REMARK>
 VINA RESULT:      -7.7      2.690      5.506
  Name = 
  5 active torsions:
  status: ('A' for Active; 'I' for Inactive)
    1  A    between atoms: C_2  and  C_8
    2  A    between atoms: C_5  and  O_12
    3  A    between atoms: C_6  and  C_8
    4  A    between atoms: C_8  and  C_22
    5  A    between atoms: O_12  and  C_18
                            x       y       z     vdW  Elec       q    Type
                         _______ _______ _______ _____ _____    ______ ____

>  <TORSDO>
F 5

$$$$
=
 OpenBabel10232409053D

 28 31  0  0  1  0  0  0  0  0999 V2000
  188.3230  177.4370  143.6050 C   0  0  1  0  0  0  0  0  0  0  0  0
  188.0790  176.0830  143.8570 O   0  0  0  0  0  1  0  0  0  0  0  0
  188.7750  177.6460  141.1560 N   0  0  0  0  0  0  0  0  0  0  0  0
  187.8790  177.7530  142.1790 C   0  0  0  0  0  0  0  0  0  0  0  0
  189.3960  177.8290  138.8610 C   0  0  0  0  0  3  0  0  0  0  0  0
  187.1520  178.4230  139.5690 C   0  0  0  0  0  0  0  0  0  0  0  0
  187.7890  178.6030  137.2690 N   0  0  0  0  0  0  0  0  0  0  0  0
  189.0430  178.1580  137.5500 C   0  0  0  0  0  3  0  0  0  0  0  0
  186.5840  178.2260  141.9110 C   0  0  0  0  0  3  0  0  0  0  0  0
  188.4480  177.9600  139.8760 C   0  0  0  0  0  0  0  0  0  0  0  0
  184.8270  179.0470  140.3560 C   0  0  0  0  0  1  0  0  0  0  0  0
  186.2140  178.5550  140.6060 C   0  0  0  0  0  0  0  0  0  0  0  0
  186.8450  178.7410  138.2400 C   0  0  0  0  0  3  0  0  0  0  0  0
  187.5490  178.4020  148.1850 C   0  0  0  0  0  1  0  0  0  0  0  0
  187.3560  177.7610  146.8210 C   0  0  2  0  0  3  0  0  0  0  0  0
  186.1110  177.7170  144.8540 C   0  0  0  0  0  2  0  0  0  0  0  0
  188.1890  178.3650  145.8640 O   0  0  0  0  0  0  0  0  0  0  0  0
  185.9230  177.8190  146.3320 C   0  0  2  0  0  3  0  0  0  0  0  0
  187.5140  178.2670  144.6270 C   0  0  1  0  0  3  0  0  0  0  0  0
  185.3420  179.0560  146.6270 O   0  0  0  0  0  1  0  0  0  0  0  0
  189.8350  177.6830  143.8650 C   0  0  2  0  0  3  0  0  0  0  0  0
  191.9890  177.1500  143.0010 O   0  0  0  0  0  1  0  0  0  0  0  0
  190.7480  176.5960  143.3230 C   0  0  1  0  0  3  0  0  0  0  0  0
  190.4620  176.6850  144.8250 C   0  0  1  0  0  3  0  0  0  0  0  0
  191.5170  177.3030  145.5230 O   0  0  0  0  0  0  0  0  0  0  0  0
  190.4040  176.5360  147.4220 O   0  0  0  0  0  1  0  0  0  0  0  0
  191.6430  176.6910  146.7900 C   0  0  1  0  0  3  0  0  0  0  0  0
  192.3970  175.3690  146.7290 C   0  0  0  0  0  1  0  0  0  0  0  0
  1  2  1  1  0  0  0
  3  4  1  0  0  0  0
  4  1  1  0  0  0  0
  5 10  1  0  0  0  0
  6 10  1  0  0  0  0
  6 12  2  0  0  0  0
  7  8  1  0  0  0  0
  7 13  2  0  0  0  0
  8  5  2  0  0  0  0
  9  4  2  0  0  0  0
 10  3  2  0  0  0  0
 11 12  1  0  0  0  0
 12  9  1  0  0  0  0
 13  6  1  0  0  0  0
 15 14  1  1  0  0  0
 16 18  1  0  0  0  0
 17 15  1  0  0  0  0
 18 20  1  6  0  0  0
 18 15  1  0  0  0  0
 19  1  1  6  0  0  0
 19 16  1  0  0  0  0
 19 17  1  0  0  0  0
 21  1  1  6  0  0  0
 21 24  1  0  0  0  0
 23 22  1  1  0  0  0
 23 21  1  0  0  0  0
 23 24  1  0  0  0  0
 24 25  1  1  0  0  0
 25 27  1  0  0  0  0
 27 28  1  6  0  0  0
 27 26  1  0  0  0  0
M  END
>  <MODEL>
6

>  <REMARK>
 VINA RESULT:      -7.5      2.724      5.452
  Name = 
  5 active torsions:
  status: ('A' for Active; 'I' for Inactive)
    1  A    between atoms: C_2  and  C_8
    2  A    between atoms: C_5  and  O_12
    3  A    between atoms: C_6  and  C_8
    4  A    between atoms: C_8  and  C_22
    5  A    between atoms: O_12  and  C_18
                            x       y       z     vdW  Elec       q    Type
                         _______ _______ _______ _____ _____    ______ ____

>  <TORSDO>
F 5

$$$$
=
 OpenBabel10232409053D

 28 31  0  0  1  0  0  0  0  0999 V2000
  188.3220  177.5250  143.7090 C   0  0  1  0  0  0  0  0  0  0  0  0
  188.0590  176.1710  143.9470 O   0  0  0  0  0  1  0  0  0  0  0  0
  186.6000  178.2420  142.0450 N   0  0  0  0  0  0  0  0  0  0  0  0
  187.8870  177.8600  142.2840 C   0  0  0  0  0  0  0  0  0  0  0  0
  184.8240  178.9010  140.5970 C   0  0  0  0  0  3  0  0  0  0  0  0
  187.0120  178.3790  139.6860 C   0  0  0  0  0  0  0  0  0  0  0  0
  185.2200  179.0400  138.2430 N   0  0  0  0  0  0  0  0  0  0  0  0
  184.3750  179.1670  139.3020 C   0  0  0  0  0  3  0  0  0  0  0  0
  188.7710  177.7090  141.2020 C   0  0  0  0  0  3  0  0  0  0  0  0
  186.1470  178.5060  140.7920 C   0  0  0  0  0  0  0  0  0  0  0  0
  189.3070  177.8100  138.7780 C   0  0  0  0  0  1  0  0  0  0  0  0
  188.3390  177.9740  139.9020 C   0  0  0  0  0  0  0  0  0  0  0  0
  186.5160  178.6560  138.4050 C   0  0  0  0  0  3  0  0  0  0  0  0
  187.5020  178.4140  148.2960 C   0  0  0  0  0  1  0  0  0  0  0  0
  187.3130  177.8070  146.9150 C   0  0  2  0  0  3  0  0  0  0  0  0
  186.0990  177.8400  144.9290 C   0  0  0  0  0  2  0  0  0  0  0  0
  188.1770  178.4080  145.9840 O   0  0  0  0  0  0  0  0  0  0  0  0
  185.8900  177.9150  146.4060 C   0  0  2  0  0  3  0  0  0  0  0  0
  187.5190  178.3550  144.7350 C   0  0  1  0  0  3  0  0  0  0  0  0
  185.3390  179.1620  146.7190 O   0  0  0  0  0  1  0  0  0  0  0  0
  189.8360  177.7480  143.9760 C   0  0  2  0  0  3  0  0  0  0  0  0
  191.9820  177.3070  143.0440 O   0  0  0  0  0  1  0  0  0  0  0  0
  190.7450  176.7210  143.3230 C   0  0  1  0  0  3  0  0  0  0  0  0
  190.4740  176.6640  144.8290 C   0  0  1  0  0  3  0  0  0  0  0  0
  191.5350  177.2150  145.5740 O   0  0  0  0  0  0  0  0  0  0  0  0
  190.1970  176.4410  147.3180 O   0  0  0  0  0  1  0  0  0  0  0  0
  191.5050  176.6700  146.8770 C   0  0  1  0  0  3  0  0  0  0  0  0
  192.3560  175.4130  147.0060 C   0  0  0  0  0  1  0  0  0  0  0  0
  1  2  1  1  0  0  0
  3  4  1  0  0  0  0
  4  1  1  0  0  0  0
  5 10  1  0  0  0  0
  6 12  2  0  0  0  0
  6 10  1  0  0  0  0
  7 13  2  0  0  0  0
  7  8  1  0  0  0  0
  8  5  2  0  0  0  0
  9  4  2  0  0  0  0
 10  3  2  0  0  0  0
 11 12  1  0  0  0  0
 12  9  1  0  0  0  0
 13  6  1  0  0  0  0
 15 14  1  1  0  0  0
 16 18  1  0  0  0  0
 17 15  1  0  0  0  0
 18 20  1  6  0  0  0
 18 15  1  0  0  0  0
 19  1  1  6  0  0  0
 19 16  1  0  0  0  0
 19 17  1  0  0  0  0
 21  1  1  6  0  0  0
 21 24  1  0  0  0  0
 23 22  1  1  0  0  0
 23 21  1  0  0  0  0
 23 24  1  0  0  0  0
 24 25  1  1  0  0  0
 25 27  1  0  0  0  0
 27 28  1  6  0  0  0
 27 26  1  0  0  0  0
M  END
>  <MODEL>
7

>  <REMARK>
 VINA RESULT:      -7.5      2.447      5.169
  Name = 
  5 active torsions:
  status: ('A' for Active; 'I' for Inactive)
    1  A    between atoms: C_2  and  C_8
    2  A    between atoms: C_5  and  O_12
    3  A    between atoms: C_6  and  C_8
    4  A    between atoms: C_8  and  C_22
    5  A    between atoms: O_12  and  C_18
                            x       y       z     vdW  Elec       q    Type
                         _______ _______ _______ _____ _____    ______ ____

>  <TORSDO>
F 5

$$$$
=
 OpenBabel10232409053D

 28 31  0  0  1  0  0  0  0  0999 V2000
  188.2890  178.1650  141.9700 C   0  0  1  0  0  0  0  0  0  0  0  0
  188.4390  179.5420  142.1690 O   0  0  0  0  0  1  0  0  0  0  0  0
  187.7590  178.2560  139.5290 N   0  0  0  0  0  0  0  0  0  0  0  0
  188.6120  177.8480  140.5120 C   0  0  0  0  0  0  0  0  0  0  0  0
  187.0750  178.4060  137.2500 C   0  0  0  0  0  3  0  0  0  0  0  0
  189.0980  177.2010  137.8410 C   0  0  0  0  0  0  0  0  0  0  0  0
  188.3990  177.3580  135.5570 N   0  0  0  0  0  0  0  0  0  0  0  0
  187.3080  178.0920  135.9090 C   0  0  0  0  0  3  0  0  0  0  0  0
  189.7350  177.0770  140.1690 C   0  0  0  0  0  3  0  0  0  0  0  0
  187.9720  177.9610  138.2210 C   0  0  0  0  0  0  0  0  0  0  0  0
  191.1920  175.9420  138.5060 C   0  0  0  0  0  1  0  0  0  0  0  0
  189.9860  176.7570  138.8340 C   0  0  0  0  0  0  0  0  0  0  0  0
  189.2900  176.9110  136.4840 C   0  0  0  0  0  3  0  0  0  0  0  0
  189.2650  176.9130  146.4400 C   0  0  0  0  0  1  0  0  0  0  0  0
  189.3060  177.7250  145.1560 C   0  0  2  0  0  3  0  0  0  0  0  0
  190.5070  178.2610  143.2360 C   0  0  0  0  0  2  0  0  0  0  0  0
  188.6330  177.0540  144.1210 O   0  0  0  0  0  0  0  0  0  0  0  0
  190.7140  178.0470  144.6990 C   0  0  2  0  0  3  0  0  0  0  0  0
  189.2670  177.4350  142.9180 C   0  0  1  0  0  3  0  0  0  0  0  0
  191.5620  176.9490  144.8770 O   0  0  0  0  0  1  0  0  0  0  0  0
  186.8390  177.7990  142.3890 C   0  0  2  0  0  3  0  0  0  0  0  0
  184.5750  178.0390  141.6880 O   0  0  0  0  0  1  0  0  0  0  0  0
  185.7750  178.7380  141.8450 C   0  0  1  0  0  3  0  0  0  0  0  0
  186.1940  178.8170  143.3170 C   0  0  1  0  0  3  0  0  0  0  0  0
  185.2720  178.1670  144.1590 O   0  0  0  0  0  0  0  0  0  0  0  0
  183.7310  179.1630  145.5960 O   0  0  0  0  0  1  0  0  0  0  0  0
  185.0860  178.9510  145.3190 C   0  0  1  0  0  3  0  0  0  0  0  0
  185.8120  178.3840  146.5320 C   0  0  0  0  0  1  0  0  0  0  0  0
  1  2  1  1  0  0  0
  3  4  1  0  0  0  0
  4  1  1  0  0  0  0
  5 10  1  0  0  0  0
  6 10  1  0  0  0  0
  6 12  2  0  0  0  0
  7  8  1  0  0  0  0
  7 13  2  0  0  0  0
  8  5  2  0  0  0  0
  9  4  2  0  0  0  0
 10  3  2  0  0  0  0
 11 12  1  0  0  0  0
 12  9  1  0  0  0  0
 13  6  1  0  0  0  0
 15 14  1  1  0  0  0
 16 18  1  0  0  0  0
 17 15  1  0  0  0  0
 18 20  1  6  0  0  0
 18 15  1  0  0  0  0
 19  1  1  6  0  0  0
 19 16  1  0  0  0  0
 19 17  1  0  0  0  0
 21  1  1  6  0  0  0
 21 24  1  0  0  0  0
 23 22  1  1  0  0  0
 23 21  1  0  0  0  0
 23 24  1  0  0  0  0
 24 25  1  1  0  0  0
 25 27  1  0  0  0  0
 27 26  1  0  0  0  0
 27 28  1  1  0  0  0
M  END
>  <MODEL>
8

>  <REMARK>
 VINA RESULT:      -7.3      2.895      6.213
  Name = 
  5 active torsions:
  status: ('A' for Active; 'I' for Inactive)
    1  A    between atoms: C_2  and  C_8
    2  A    between atoms: C_5  and  O_12
    3  A    between atoms: C_6  and  C_8
    4  A    between atoms: C_8  and  C_22
    5  A    between atoms: O_12  and  C_18
                            x       y       z     vdW  Elec       q    Type
                         _______ _______ _______ _____ _____    ______ ____

>  <TORSDO>
F 5

$$$$
=
 OpenBabel10232409053D

 28 31  0  0  1  0  0  0  0  0999 V2000
  189.0390  176.5050  142.4170 C   0  0  1  0  0  0  0  0  0  0  0  0
  188.9180  175.2160  142.9470 O   0  0  0  0  0  1  0  0  0  0  0  0
  187.3500  177.3350  144.0610 N   0  0  0  0  0  0  0  0  0  0  0  0
  187.7800  177.2950  142.7680 C   0  0  0  0  0  0  0  0  0  0  0  0
  185.8140  178.0010  145.7590 C   0  0  0  0  0  3  0  0  0  0  0  0
  185.4270  178.6320  143.4470 C   0  0  0  0  0  0  0  0  0  0  0  0
  183.8930  179.2940  145.1610 N   0  0  0  0  0  0  0  0  0  0  0  0
  184.6400  178.6700  146.1120 C   0  0  0  0  0  3  0  0  0  0  0  0
  187.0150  177.9200  141.7690 C   0  0  0  0  0  3  0  0  0  0  0  0
  186.2120  177.9820  144.4220 C   0  0  0  0  0  0  0  0  0  0  0  0
  185.0560  179.2540  141.0210 C   0  0  0  0  0  1  0  0  0  0  0  0
  185.8410  178.5960  142.1060 C   0  0  0  0  0  0  0  0  0  0  0  0
  184.2580  179.2890  143.8500 C   0  0  0  0  0  3  0  0  0  0  0  0
  191.8280  176.8610  146.2370 C   0  0  0  0  0  1  0  0  0  0  0  0
  190.7210  177.2070  145.2550 C   0  0  2  0  0  3  0  0  0  0  0  0
  190.0320  178.5890  143.5130 C   0  0  0  0  0  2  0  0  0  0  0  0
  190.7990  176.3960  144.1110 O   0  0  0  0  0  0  0  0  0  0  0  0
  190.7340  178.6610  144.8290 C   0  0  2  0  0  3  0  0  0  0  0  0
  190.2900  177.1640  143.0400 C   0  0  1  0  0  3  0  0  0  0  0  0
  192.0420  179.1090  144.6160 O   0  0  0  0  0  1  0  0  0  0  0  0
  189.2800  176.3480  140.8900 C   0  0  2  0  0  3  0  0  0  0  0  0
  191.0160  175.9790  139.3020 O   0  0  0  0  0  1  0  0  0  0  0  0
  190.6810  176.7220  140.4360 C   0  0  1  0  0  3  0  0  0  0  0  0
  189.5050  177.6660  140.1660 C   0  0  1  0  0  3  0  0  0  0  0  0
  189.0410  177.5590  138.8400 O   0  0  0  0  0  0  0  0  0  0  0  0
  188.8850  179.6420  137.8060 O   0  0  0  0  0  1  0  0  0  0  0  0
  188.2150  178.6690  138.5580 C   0  0  1  0  0  3  0  0  0  0  0  0
  186.9030  178.2690  137.8940 C   0  0  0  0  0  1  0  0  0  0  0  0
  1  4  1  0  0  0  0
  1  2  1  1  0  0  0
  3 10  1  0  0  0  0
  4  3  2  0  0  0  0
  5  8  1  0  0  0  0
  6 13  2  0  0  0  0
  6 10  1  0  0  0  0
  7  8  2  0  0  0  0
  9 12  2  0  0  0  0
  9  4  1  0  0  0  0
 10  5  2  0  0  0  0
 11 12  1  0  0  0  0
 12  6  1  0  0  0  0
 13  7  1  0  0  0  0
 15 14  1  1  0  0  0
 16 18  1  0  0  0  0
 17 15  1  0  0  0  0
 18 20  1  6  0  0  0
 18 15  1  0  0  0  0
 19  1  1  1  0  0  0
 19 16  1  0  0  0  0
 19 17  1  0  0  0  0
 21  1  1  1  0  0  0
 23 22  1  6  0  0  0
 23 21  1  0  0  0  0
 24 25  1  6  0  0  0
 24 23  1  0  0  0  0
 24 21  1  0  0  0  0
 26 27  1  0  0  0  0
 27 28  1  6  0  0  0
 27 25  1  0  0  0  0
M  END
>  <MODEL>
9

>  <REMARK>
 VINA RESULT:      -7.2      1.586      3.013
  Name = 
  5 active torsions:
  status: ('A' for Active; 'I' for Inactive)
    1  A    between atoms: C_2  and  C_8
    2  A    between atoms: C_5  and  O_12
    3  A    between atoms: C_6  and  C_8
    4  A    between atoms: C_8  and  C_22
    5  A    between atoms: O_12  and  C_18
                            x       y       z     vdW  Elec       q    Type
                         _______ _______ _______ _____ _____    ______ ____

>  <TORSDO>
F 5

$$$$
