=
 OpenBabel10232409333D

 33 38  0  0  1  0  0  0  0  0999 V2000
  191.5260  176.5130  144.5490 C   0  0  0  0  0  3  0  0  0  0  0  0
  186.9750  178.3880  141.5230 C   0  0  0  0  0  0  0  0  0  0  0  0
  185.5510  178.8030  142.3380 S   0  0  0  0  0  0  0  0  0  0  0  0
  189.8330  177.0090  146.6800 C   0  0  0  0  0  0  0  0  0  0  0  0
  187.5570  178.0080  143.7350 C   0  0  0  0  0  0  0  0  0  0  0  0
  188.0700  177.7370  145.0180 C   0  0  0  0  0  0  0  0  0  0  0  0
  187.3080  178.4070  140.1720 C   0  0  0  0  0  3  0  0  0  0  0  0
  186.2670  178.4370  143.8320 C   0  0  0  0  0  0  0  0  0  0  0  0
  191.9240  176.3050  145.8210 N   0  0  0  0  0  0  0  0  0  0  0  0
  186.9260  178.0680  145.9120 C   0  0  0  0  0  0  0  0  0  0  0  0
  190.2450  176.9870  144.3140 C   0  0  0  0  0  3  0  0  0  0  0  0
  187.8610  177.6210  148.1610 C   0  0  0  0  0  3  0  0  0  0  0  0
  188.6310  177.9870  140.0060 C   0  0  0  0  0  0  0  0  0  0  0  0
  187.9610  177.9840  142.3930 C   0  0  0  0  0  0  0  0  0  0  0  0
  189.3560  177.2550  145.3580 C   0  0  0  0  0  0  0  0  0  0  0  0
  189.1440  177.1890  147.8760 C   0  0  0  0  0  3  0  0  0  0  0  0
  191.1040  176.5450  146.8420 N   0  0  0  0  0  0  0  0  0  0  0  0
  189.3420  177.6240  141.5110 S   0  0  0  0  0  0  0  0  0  0  0  0
  186.8680  178.0110  147.2910 C   0  0  0  0  0  3  0  0  0  0  0  0
  185.8430  178.4900  145.1280 C   0  0  0  0  0  0  0  0  0  0  0  0
  183.4230  178.7080  144.8210 C   0  0  0  0  0  0  0  0  0  0  0  0
  184.4930  178.9280  145.5350 C   0  0  0  0  0  3  0  0  0  0  0  0
  182.3620  178.4860  144.0990 C   0  0  0  0  0  3  0  0  0  0  0  0
  181.9650  179.4580  143.0420 C   0  0  0  0  0  2  0  0  0  0  0  0
  180.1410  179.3930  141.4670 O   0  0  0  0  0  0  0  0  0  0  0  0
  181.3130  178.7360  141.8760 C   0  0  2  0  0  0  0  0  0  0  0  0
  179.9830  178.1280  142.0770 C   0  0  0  0  0  2  0  0  0  0  0  0
  182.1370  178.2920  140.6790 C   0  0  0  0  0  2  0  0  0  0  0  0
  182.5020  179.4410  139.8660 N   0  0  0  0  0  2  0  0  0  0  0  0
  183.6760  179.0570  139.1020 C   0  0  0  0  0  1  0  0  0  0  0  0
  189.3270  177.9200  138.6880 C   0  0  2  0  0  3  0  0  0  0  0  0
  189.0690  179.0760  137.9500 O   0  0  0  0  0  1  0  0  0  0  0  0
  188.8650  176.7040  137.9110 C   0  0  0  0  0  1  0  0  0  0  0  0
  1  9  1  0  0  0  0
  2  3  1  0  0  0  0
  2 14  2  0  0  0  0
  3  8  1  0  0  0  0
  4 17  1  0  0  0  0
  4 16  1  0  0  0  0
  5  8  1  0  0  0  0
  5  6  2  0  0  0  0
  6 15  1  0  0  0  0
  6 10  1  0  0  0  0
  7  2  1  0  0  0  0
  8 20  2  0  0  0  0
  9 17  2  0  0  0  0
 10 19  2  0  0  0  0
 11  1  2  0  0  0  0
 11 15  1  0  0  0  0
 13  7  2  0  0  0  0
 13 18  1  0  0  0  0
 14  5  1  0  0  0  0
 15  4  2  0  0  0  0
 16 12  2  0  0  0  0
 18 14  1  0  0  0  0
 19 12  1  0  0  0  0
 20 22  1  0  0  0  0
 20 10  1  0  0  0  0
 21 22  2  0  0  0  0
 23 21  2  0  0  0  0
 24 23  1  0  0  0  0
 25 26  1  0  0  0  0
 25 27  1  0  0  0  0
 26 28  1  6  0  0  0
 26 27  1  0  0  0  0
 26 24  1  0  0  0  0
 29 28  1  0  0  0  0
 30 29  1  0  0  0  0
 31 33  1  6  0  0  0
 31 13  1  0  0  0  0
 32 31  1  0  0  0  0
M  END
>  <MODEL>
1

>  <REMARK>
 VINA RESULT:     -10.3      0.000      0.000
  Name = 
  6 active torsions:
  status: ('A' for Active; 'I' for Inactive)
    1  A    between atoms: N_3  and  C_30
    2  A    between atoms: C_5  and  C_23
    3  A    between atoms: C_9  and  C_17
    4  A    between atoms: C_9  and  C_33
    5  A    between atoms: C_13  and  C_32
    6  A    between atoms: C_17  and  C_30
                            x       y       z     vdW  Elec       q    Type
                         _______ _______ _______ _____ _____    ______ ____

>  <TORSDO>
F 6

$$$$
=
 OpenBabel10232409333D

 33 38  0  0  1  0  0  0  0  0999 V2000
  189.8240  177.5390  141.2380 C   0  0  0  0  0  3  0  0  0  0  0  0
  187.6530  177.6040  146.5920 C   0  0  0  0  0  0  0  0  0  0  0  0
  186.0410  178.0610  146.8280 S   0  0  0  0  0  0  0  0  0  0  0  0
  187.2370  178.2720  140.5890 C   0  0  0  0  0  0  0  0  0  0  0  0
  186.9470  178.0160  144.4230 C   0  0  0  0  0  0  0  0  0  0  0  0
  186.6770  178.2150  143.0560 C   0  0  0  0  0  0  0  0  0  0  0  0
  188.6430  177.2060  147.4870 C   0  0  0  0  0  3  0  0  0  0  0  0
  185.8290  178.2790  145.1590 C   0  0  0  0  0  0  0  0  0  0  0  0
  189.4540  177.7380  139.9560 N   0  0  0  0  0  0  0  0  0  0  0  0
  185.2450  178.6230  143.0530 C   0  0  0  0  0  0  0  0  0  0  0  0
  188.8840  177.7050  142.2430 C   0  0  0  0  0  3  0  0  0  0  0  0
  184.7840  178.9310  140.6400 C   0  0  0  0  0  3  0  0  0  0  0  0
  189.8170  176.9080  146.7880 C   0  0  0  0  0  0  0  0  0  0  0  0
  187.9980  177.6230  145.2620 C   0  0  0  0  0  0  0  0  0  0  0  0
  187.5640  178.0710  141.9630 C   0  0  0  0  0  0  0  0  0  0  0  0
  186.0050  178.6430  140.0580 C   0  0  0  0  0  3  0  0  0  0  0  0
  188.2080  178.0900  139.6500 N   0  0  0  0  0  0  0  0  0  0  0  0
  189.5950  177.1280  145.1130 S   0  0  0  0  0  0  0  0  0  0  0  0
  184.4390  178.9260  141.9720 C   0  0  0  0  0  3  0  0  0  0  0  0
  184.7760  178.6500  144.3740 C   0  0  0  0  0  0  0  0  0  0  0  0
  182.3370  178.8070  144.2180 C   0  0  0  0  0  0  0  0  0  0  0  0
  183.4370  178.9850  144.8980 C   0  0  0  0  0  3  0  0  0  0  0  0
  181.2460  178.6270  143.5310 C   0  0  0  0  0  3  0  0  0  0  0  0
  180.7600  179.6970  142.6160 C   0  0  0  0  0  2  0  0  0  0  0  0
  181.3600  179.7410  140.2810 O   0  0  0  0  0  0  0  0  0  0  0  0
  180.5160  179.1360  141.2260 C   0  0  2  0  0  0  0  0  0  0  0  0
  179.9820  180.0360  140.1850 C   0  0  0  0  0  2  0  0  0  0  0  0
  180.4280  177.6350  140.9990 C   0  0  0  0  0  2  0  0  0  0  0  0
  181.5690  177.1770  140.2230 N   0  0  0  0  0  2  0  0  0  0  0  0
  181.1990  175.8930  139.6540 C   0  0  0  0  0  1  0  0  0  0  0  0
  191.0700  176.4170  147.4320 C   0  0  2  0  0  3  0  0  0  0  0  0
  191.6840  177.4520  148.1380 O   0  0  0  0  0  1  0  0  0  0  0  0
  192.0230  175.8770  146.3840 C   0  0  0  0  0  1  0  0  0  0  0  0
  1 11  1  0  0  0  0
  2  3  1  0  0  0  0
  2  7  1  0  0  0  0
  4 15  1  0  0  0  0
  5  8  1  0  0  0  0
  5 14  1  0  0  0  0
  6  5  2  0  0  0  0
  8  3  1  0  0  0  0
  9  1  2  0  0  0  0
 10  6  1  0  0  0  0
 10 20  1  0  0  0  0
 12 19  1  0  0  0  0
 13 31  1  0  0  0  0
 13  7  2  0  0  0  0
 14  2  2  0  0  0  0
 15 11  2  0  0  0  0
 15  6  1  0  0  0  0
 16  4  1  0  0  0  0
 16 12  2  0  0  0  0
 17  9  1  0  0  0  0
 17  4  2  0  0  0  0
 18 14  1  0  0  0  0
 18 13  1  0  0  0  0
 19 10  2  0  0  0  0
 20 22  1  0  0  0  0
 20  8  2  0  0  0  0
 21 22  2  0  0  0  0
 23 21  2  0  0  0  0
 24 23  1  0  0  0  0
 25 26  1  0  0  0  0
 26 28  1  6  0  0  0
 26 24  1  0  0  0  0
 27 25  1  0  0  0  0
 27 26  1  0  0  0  0
 29 28  1  0  0  0  0
 30 29  1  0  0  0  0
 31 33  1  6  0  0  0
 31 32  1  0  0  0  0
M  END
>  <MODEL>
2

>  <REMARK>
 VINA RESULT:     -10.0      2.933      5.167
  Name = 
  6 active torsions:
  status: ('A' for Active; 'I' for Inactive)
    1  A    between atoms: N_3  and  C_30
    2  A    between atoms: C_5  and  C_23
    3  A    between atoms: C_9  and  C_17
    4  A    between atoms: C_9  and  C_33
    5  A    between atoms: C_13  and  C_32
    6  A    between atoms: C_17  and  C_30
                            x       y       z     vdW  Elec       q    Type
                         _______ _______ _______ _____ _____    ______ ____

>  <TORSDO>
F 6

$$$$
=
 OpenBabel10232409333D

 33 38  0  0  1  0  0  0  0  0999 V2000
  185.4950  178.1130  146.6310 C   0  0  0  0  0  3  0  0  0  0  0  0
  190.6370  176.9860  144.2500 C   0  0  0  0  0  0  0  0  0  0  0  0
  190.8310  177.1520  142.5770 S   0  0  0  0  0  0  0  0  0  0  0  0
  184.8500  178.7520  144.0180 C   0  0  0  0  0  0  0  0  0  0  0  0
  188.5330  177.7000  143.5900 C   0  0  0  0  0  0  0  0  0  0  0  0
  187.2130  178.1310  143.3580 C   0  0  0  0  0  0  0  0  0  0  0  0
  191.5260  176.6080  145.2530 C   0  0  0  0  0  3  0  0  0  0  0  0
  189.2190  177.6540  142.4120 C   0  0  0  0  0  0  0  0  0  0  0  0
  184.2630  178.5540  146.3020 N   0  0  0  0  0  0  0  0  0  0  0  0
  187.1860  178.3540  141.8860 C   0  0  0  0  0  0  0  0  0  0  0  0
  186.4510  177.9830  145.6360 C   0  0  0  0  0  3  0  0  0  0  0  0
  184.8720  179.1470  141.5080 C   0  0  0  0  0  3  0  0  0  0  0  0
  190.8830  176.6470  146.4930 C   0  0  0  0  0  0  0  0  0  0  0  0
  189.3630  177.3130  144.6500 C   0  0  0  0  0  0  0  0  0  0  0  0
  186.1720  178.2960  144.3020 C   0  0  0  0  0  0  0  0  0  0  0  0
  184.3290  179.1170  142.7800 C   0  0  0  0  0  3  0  0  0  0  0  0
  183.9590  178.8600  145.0430 N   0  0  0  0  0  0  0  0  0  0  0  0
  189.2650  177.1530  146.3180 S   0  0  0  0  0  0  0  0  0  0  0  0
  186.1420  178.8060  141.1030 C   0  0  0  0  0  3  0  0  0  0  0  0
  188.4460  178.0400  141.3560 C   0  0  0  0  0  0  0  0  0  0  0  0
  188.2320  177.6670  138.9450 C   0  0  0  0  0  0  0  0  0  0  0  0
  188.9280  178.0980  139.9610 C   0  0  0  0  0  3  0  0  0  0  0  0
  187.5300  177.2330  137.9370 C   0  0  0  0  0  3  0  0  0  0  0  0
  187.6220  175.8030  137.5300 C   0  0  0  0  0  2  0  0  0  0  0  0
  188.1650  176.4700  135.2770 O   0  0  0  0  0  0  0  0  0  0  0  0
  188.5610  175.6490  136.3460 C   0  0  2  0  0  0  0  0  0  0  0  0
  188.0300  175.0760  135.0930 C   0  0  0  0  0  2  0  0  0  0  0  0
  190.0680  175.6910  136.5400 C   0  0  0  0  0  2  0  0  0  0  0  0
  190.4330  175.0330  137.7830 N   0  0  0  0  0  2  0  0  0  0  0  0
  191.4810  175.8350  138.3890 C   0  0  0  0  0  1  0  0  0  0  0  0
  191.5500  176.3350  147.7900 C   0  0  2  0  0  3  0  0  0  0  0  0
  191.9820  177.5120  148.4030 O   0  0  0  0  0  1  0  0  0  0  0  0
  192.7320  175.4130  147.5650 C   0  0  0  0  0  1  0  0  0  0  0  0
  2 14  2  0  0  0  0
  2  7  1  0  0  0  0
  3  2  1  0  0  0  0
  4 15  1  0  0  0  0
  4 17  1  0  0  0  0
  5 14  1  0  0  0  0
  6  5  1  0  0  0  0
  6 15  2  0  0  0  0
  7 13  2  0  0  0  0
  8  3  1  0  0  0  0
  8  5  2  0  0  0  0
  9  1  1  0  0  0  0
 10  6  1  0  0  0  0
 11  1  2  0  0  0  0
 12 16  1  0  0  0  0
 13 31  1  0  0  0  0
 14 18  1  0  0  0  0
 15 11  1  0  0  0  0
 16  4  2  0  0  0  0
 17  9  2  0  0  0  0
 18 13  1  0  0  0  0
 19 12  2  0  0  0  0
 19 10  1  0  0  0  0
 20 10  2  0  0  0  0
 20  8  1  0  0  0  0
 21 22  2  0  0  0  0
 22 20  1  0  0  0  0
 23 21  2  0  0  0  0
 24 23  1  0  0  0  0
 25 26  1  0  0  0  0
 26 28  1  1  0  0  0
 26 24  1  0  0  0  0
 27 25  1  0  0  0  0
 27 26  1  0  0  0  0
 28 29  1  0  0  0  0
 29 30  1  0  0  0  0
 31 33  1  6  0  0  0
 31 32  1  0  0  0  0
M  END
>  <MODEL>
3

>  <REMARK>
 VINA RESULT:      -9.9      3.468      7.298
  Name = 
  6 active torsions:
  status: ('A' for Active; 'I' for Inactive)
    1  A    between atoms: N_3  and  C_30
    2  A    between atoms: C_5  and  C_23
    3  A    between atoms: C_9  and  C_17
    4  A    between atoms: C_9  and  C_33
    5  A    between atoms: C_13  and  C_32
    6  A    between atoms: C_17  and  C_30
                            x       y       z     vdW  Elec       q    Type
                         _______ _______ _______ _____ _____    ______ ____

>  <TORSDO>
F 6

$$$$
=
 OpenBabel10232409333D

 33 38  0  0  1  0  0  0  0  0999 V2000
  191.6160  176.5050  145.6600 C   0  0  0  0  0  3  0  0  0  0  0  0
  188.1670  177.8450  141.2220 C   0  0  0  0  0  0  0  0  0  0  0  0
  186.5890  178.3750  141.5270 S   0  0  0  0  0  0  0  0  0  0  0  0
  189.4150  177.3230  147.1240 C   0  0  0  0  0  0  0  0  0  0  0  0
  188.0930  177.8260  143.5390 C   0  0  0  0  0  0  0  0  0  0  0  0
  188.2160  177.7660  144.9400 C   0  0  0  0  0  0  0  0  0  0  0  0
  188.8650  177.6510  140.0320 C   0  0  0  0  0  3  0  0  0  0  0  0
  186.8450  178.2570  143.2010 C   0  0  0  0  0  0  0  0  0  0  0  0
  191.6330  176.5050  147.0090 N   0  0  0  0  0  0  0  0  0  0  0  0
  186.8810  178.2280  145.4130 C   0  0  0  0  0  0  0  0  0  0  0  0
  190.4710  176.9280  145.0020 C   0  0  0  0  0  3  0  0  0  0  0  0
  187.1330  178.1500  147.8750 C   0  0  0  0  0  3  0  0  0  0  0  0
  190.1640  177.2180  140.3130 C   0  0  0  0  0  0  0  0  0  0  0  0
  188.8540  177.5920  142.3850 C   0  0  0  0  0  0  0  0  0  0  0  0
  189.3360  177.3520  145.6990 C   0  0  0  0  0  0  0  0  0  0  0  0
  188.4260  177.6860  148.0330 C   0  0  0  0  0  3  0  0  0  0  0  0
  190.5710  176.8990  147.7070 N   0  0  0  0  0  0  0  0  0  0  0  0
  190.4120  177.1040  141.9950 S   0  0  0  0  0  0  0  0  0  0  0  0
  186.4380  178.3910  146.7110 C   0  0  0  0  0  3  0  0  0  0  0  0
  186.0770  178.5120  144.3000 C   0  0  0  0  0  0  0  0  0  0  0  0
  183.8180  178.5800  143.3580 C   0  0  0  0  0  0  0  0  0  0  0  0
  184.6850  179.0010  144.2370 C   0  0  0  0  0  3  0  0  0  0  0  0
  182.9600  178.1550  142.4740 C   0  0  0  0  0  3  0  0  0  0  0  0
  182.8730  178.8200  141.1440 C   0  0  0  0  0  2  0  0  0  0  0  0
  181.5170  177.1590  140.0430 O   0  0  0  0  0  0  0  0  0  0  0  0
  181.5490  178.4940  140.4750 C   0  0  2  0  0  0  0  0  0  0  0  0
  181.5500  178.1520  139.0390 C   0  0  0  0  0  2  0  0  0  0  0  0
  180.2330  178.8920  141.1230 C   0  0  0  0  0  2  0  0  0  0  0  0
  180.2720  180.2880  141.5250 N   0  0  0  0  0  2  0  0  0  0  0  0
  179.9820  181.0740  140.3390 C   0  0  0  0  0  1  0  0  0  0  0  0
  191.1970  176.9470  139.2720 C   0  0  2  0  0  3  0  0  0  0  0  0
  191.1220  175.6170  138.8580 O   0  0  0  0  0  1  0  0  0  0  0  0
  192.5820  177.2350  139.8180 C   0  0  0  0  0  1  0  0  0  0  0  0
  1  9  1  0  0  0  0
  2  3  1  0  0  0  0
  2 14  2  0  0  0  0
  3  8  1  0  0  0  0
  4 17  1  0  0  0  0
  4 16  1  0  0  0  0
  5  6  2  0  0  0  0
  6 10  1  0  0  0  0
  6 15  1  0  0  0  0
  7 13  2  0  0  0  0
  7  2  1  0  0  0  0
  8  5  1  0  0  0  0
  8 20  2  0  0  0  0
  9 17  2  0  0  0  0
 10 19  2  0  0  0  0
 11  1  2  0  0  0  0
 11 15  1  0  0  0  0
 12 16  2  0  0  0  0
 13 18  1  0  0  0  0
 14  5  1  0  0  0  0
 15  4  2  0  0  0  0
 18 14  1  0  0  0  0
 19 12  1  0  0  0  0
 20 10  1  0  0  0  0
 21 22  2  0  0  0  0
 22 20  1  0  0  0  0
 23 21  2  0  0  0  0
 24 23  1  0  0  0  0
 25 26  1  0  0  0  0
 26 28  1  1  0  0  0
 26 24  1  0  0  0  0
 27 25  1  0  0  0  0
 27 26  1  0  0  0  0
 28 29  1  0  0  0  0
 30 29  1  0  0  0  0
 31 33  1  1  0  0  0
 31 13  1  0  0  0  0
 32 31  1  0  0  0  0
M  END
>  <MODEL>
4

>  <REMARK>
 VINA RESULT:      -9.9      1.654      1.970
  Name = 
  6 active torsions:
  status: ('A' for Active; 'I' for Inactive)
    1  A    between atoms: N_3  and  C_30
    2  A    between atoms: C_5  and  C_23
    3  A    between atoms: C_9  and  C_17
    4  A    between atoms: C_9  and  C_33
    5  A    between atoms: C_13  and  C_32
    6  A    between atoms: C_17  and  C_30
                            x       y       z     vdW  Elec       q    Type
                         _______ _______ _______ _____ _____    ______ ____

>  <TORSDO>
F 6

$$$$
=
 OpenBabel10232409333D

 33 38  0  0  1  0  0  0  0  0999 V2000
  185.3690  178.2640  146.6590 C   0  0  0  0  0  3  0  0  0  0  0  0
  190.4470  177.0090  144.2030 C   0  0  0  0  0  0  0  0  0  0  0  0
  190.6060  177.1240  142.5220 S   0  0  0  0  0  0  0  0  0  0  0  0
  184.6750  178.8330  144.0420 C   0  0  0  0  0  0  0  0  0  0  0  0
  188.3360  177.7280  143.5670 C   0  0  0  0  0  0  0  0  0  0  0  0
  187.0170  178.1680  143.3510 C   0  0  0  0  0  0  0  0  0  0  0  0
  191.3530  176.6510  145.1970 C   0  0  0  0  0  3  0  0  0  0  0  0
  188.9960  177.6390  142.3770 C   0  0  0  0  0  0  0  0  0  0  0  0
  184.1360  178.7090  146.3440 N   0  0  0  0  0  0  0  0  0  0  0  0
  186.9610  178.3470  141.8740 C   0  0  0  0  0  0  0  0  0  0  0  0
  186.3020  178.0940  145.6480 C   0  0  0  0  0  3  0  0  0  0  0  0
  184.6470  179.1550  141.5220 C   0  0  0  0  0  3  0  0  0  0  0  0
  190.7370  176.7330  146.4500 C   0  0  0  0  0  0  0  0  0  0  0  0
  189.1850  177.3620  144.6210 C   0  0  0  0  0  0  0  0  0  0  0  0
  185.9980  178.3710  144.3120 C   0  0  0  0  0  0  0  0  0  0  0  0
  184.1320  179.1680  142.8050 C   0  0  0  0  0  3  0  0  0  0  0  0
  183.8080  178.9810  145.0830 N   0  0  0  0  0  0  0  0  0  0  0  0
  189.1220  177.2530  146.2940 S   0  0  0  0  0  0  0  0  0  0  0  0
  185.9050  178.7880  141.1000 C   0  0  0  0  0  3  0  0  0  0  0  0
  188.2050  178.0040  141.3260 C   0  0  0  0  0  0  0  0  0  0  0  0
  187.8390  178.0370  138.9050 C   0  0  0  0  0  0  0  0  0  0  0  0
  188.6580  178.0150  139.9210 C   0  0  0  0  0  3  0  0  0  0  0  0
  187.0120  178.0560  137.8990 C   0  0  0  0  0  3  0  0  0  0  0  0
  186.4890  176.7770  137.3420 C   0  0  0  0  0  2  0  0  0  0  0  0
  184.5230  175.7320  136.4170 O   0  0  0  0  0  0  0  0  0  0  0  0
  185.0470  176.9440  136.8960 C   0  0  2  0  0  0  0  0  0  0  0  0
  184.7250  176.7580  135.4670 C   0  0  0  0  0  2  0  0  0  0  0  0
  184.0400  177.6660  137.7760 C   0  0  0  0  0  2  0  0  0  0  0  0
  183.4320  176.7340  138.7120 N   0  0  0  0  0  2  0  0  0  0  0  0
  182.2880  177.4130  139.2940 C   0  0  0  0  0  1  0  0  0  0  0  0
  191.4290  176.4520  147.7410 C   0  0  2  0  0  3  0  0  0  0  0  0
  191.9820  177.6250  148.2540 O   0  0  0  0  0  1  0  0  0  0  0  0
  192.5190  175.4190  147.5380 C   0  0  0  0  0  1  0  0  0  0  0  0
  2 14  2  0  0  0  0
  2  7  1  0  0  0  0
  3  2  1  0  0  0  0
  4 15  1  0  0  0  0
  4 17  1  0  0  0  0
  5 14  1  0  0  0  0
  6  5  1  0  0  0  0
  6 15  2  0  0  0  0
  7 13  2  0  0  0  0
  8  3  1  0  0  0  0
  8  5  2  0  0  0  0
  9  1  1  0  0  0  0
 10  6  1  0  0  0  0
 11  1  2  0  0  0  0
 12 16  1  0  0  0  0
 13 31  1  0  0  0  0
 14 18  1  0  0  0  0
 15 11  1  0  0  0  0
 16  4  2  0  0  0  0
 17  9  2  0  0  0  0
 18 13  1  0  0  0  0
 19 12  2  0  0  0  0
 19 10  1  0  0  0  0
 20 10  2  0  0  0  0
 20  8  1  0  0  0  0
 21 22  2  0  0  0  0
 22 20  1  0  0  0  0
 23 21  2  0  0  0  0
 24 23  1  0  0  0  0
 25 26  1  0  0  0  0
 26 24  1  1  0  0  0
 26 28  1  0  0  0  0
 27 25  1  0  0  0  0
 27 26  1  0  0  0  0
 28 29  1  0  0  0  0
 29 30  1  0  0  0  0
 31 33  1  6  0  0  0
 31 32  1  0  0  0  0
M  END
>  <MODEL>
5

>  <REMARK>
 VINA RESULT:      -9.6      3.252      6.398
  Name = 
  6 active torsions:
  status: ('A' for Active; 'I' for Inactive)
    1  A    between atoms: N_3  and  C_30
    2  A    between atoms: C_5  and  C_23
    3  A    between atoms: C_9  and  C_17
    4  A    between atoms: C_9  and  C_33
    5  A    between atoms: C_13  and  C_32
    6  A    between atoms: C_17  and  C_30
                            x       y       z     vdW  Elec       q    Type
                         _______ _______ _______ _____ _____    ______ ____

>  <TORSDO>
F 6

$$$$
=
 OpenBabel10232409333D

 33 38  0  0  1  0  0  0  0  0999 V2000
  191.6090  176.5430  145.9450 C   0  0  0  0  0  3  0  0  0  0  0  0
  188.7420  177.6090  141.0430 C   0  0  0  0  0  0  0  0  0  0  0  0
  187.1200  178.0860  141.1170 S   0  0  0  0  0  0  0  0  0  0  0  0
  189.2050  177.3190  147.0730 C   0  0  0  0  0  0  0  0  0  0  0  0
  188.3590  177.6580  143.3280 C   0  0  0  0  0  0  0  0  0  0  0  0
  188.2950  177.6470  144.7350 C   0  0  0  0  0  0  0  0  0  0  0  0
  189.5990  177.4060  139.9640 C   0  0  0  0  0  3  0  0  0  0  0  0
  187.1530  178.0300  142.8120 C   0  0  0  0  0  0  0  0  0  0  0  0
  191.4460  176.5850  147.2830 N   0  0  0  0  0  0  0  0  0  0  0  0
  186.8940  178.0700  145.0100 C   0  0  0  0  0  0  0  0  0  0  0  0
  190.5490  176.9000  145.1260 C   0  0  0  0  0  3  0  0  0  0  0  0
  186.8160  178.0790  147.4840 C   0  0  0  0  0  3  0  0  0  0  0  0
  190.8640  177.0330  140.4310 C   0  0  0  0  0  0  0  0  0  0  0  0
  189.2750  177.4180  142.2960 C   0  0  0  0  0  0  0  0  0  0  0  0
  189.3170  177.3010  145.6500 C   0  0  0  0  0  0  0  0  0  0  0  0
  188.0910  177.6710  147.8300 C   0  0  0  0  0  3  0  0  0  0  0  0
  190.2870  176.9590  147.8200 N   0  0  0  0  0  0  0  0  0  0  0  0
  190.8870  176.9810  142.1340 S   0  0  0  0  0  0  0  0  0  0  0  0
  186.2750  178.2560  146.2310 C   0  0  0  0  0  3  0  0  0  0  0  0
  186.2370  178.2880  143.7900 C   0  0  0  0  0  0  0  0  0  0  0  0
  184.1960  178.4040  142.4410 C   0  0  0  0  0  0  0  0  0  0  0  0
  184.8500  178.7200  143.5260 C   0  0  0  0  0  3  0  0  0  0  0  0
  183.5540  178.0850  141.3540 C   0  0  0  0  0  3  0  0  0  0  0  0
  183.6700  178.9450  140.1440 C   0  0  0  0  0  2  0  0  0  0  0  0
  182.4170  179.3250  138.1190 O   0  0  0  0  0  0  0  0  0  0  0  0
  182.9060  178.3320  138.9820 C   0  0  2  0  0  0  0  0  0  0  0  0
  181.4590  178.6040  138.8670 C   0  0  0  0  0  2  0  0  0  0  0  0
  183.4870  177.1650  138.2010 C   0  0  0  0  0  2  0  0  0  0  0  0
  184.9210  177.3350  138.0360 N   0  0  0  0  0  2  0  0  0  0  0  0
  185.1880  177.2730  136.6100 C   0  0  0  0  0  1  0  0  0  0  0  0
  192.0360  176.7710  139.5460 C   0  0  2  0  0  3  0  0  0  0  0  0
  193.0670  177.6630  139.8410 O   0  0  0  0  0  1  0  0  0  0  0  0
  191.6380  176.9120  138.0910 C   0  0  0  0  0  1  0  0  0  0  0  0
  1  9  1  0  0  0  0
  2  3  1  0  0  0  0
  2 14  2  0  0  0  0
  3  8  1  0  0  0  0
  4 17  1  0  0  0  0
  4 16  1  0  0  0  0
  5  6  2  0  0  0  0
  6 10  1  0  0  0  0
  6 15  1  0  0  0  0
  7 13  2  0  0  0  0
  7  2  1  0  0  0  0
  8  5  1  0  0  0  0
  8 20  2  0  0  0  0
  9 17  2  0  0  0  0
 10 19  2  0  0  0  0
 11 15  1  0  0  0  0
 11  1  2  0  0  0  0
 12 16  2  0  0  0  0
 13 18  1  0  0  0  0
 14  5  1  0  0  0  0
 15  4  2  0  0  0  0
 18 14  1  0  0  0  0
 19 12  1  0  0  0  0
 20 10  1  0  0  0  0
 21 22  2  0  0  0  0
 22 20  1  0  0  0  0
 23 21  2  0  0  0  0
 24 23  1  0  0  0  0
 25 27  1  0  0  0  0
 25 26  1  0  0  0  0
 26 28  1  6  0  0  0
 26 24  1  0  0  0  0
 27 26  1  0  0  0  0
 29 28  1  0  0  0  0
 30 29  1  0  0  0  0
 31 33  1  6  0  0  0
 31 32  1  0  0  0  0
 31 13  1  0  0  0  0
M  END
>  <MODEL>
6

>  <REMARK>
 VINA RESULT:      -9.2      1.970      2.393
  Name = 
  6 active torsions:
  status: ('A' for Active; 'I' for Inactive)
    1  A    between atoms: N_3  and  C_30
    2  A    between atoms: C_5  and  C_23
    3  A    between atoms: C_9  and  C_17
    4  A    between atoms: C_9  and  C_33
    5  A    between atoms: C_13  and  C_32
    6  A    between atoms: C_17  and  C_30
                            x       y       z     vdW  Elec       q    Type
                         _______ _______ _______ _____ _____    ______ ____

>  <TORSDO>
F 6

$$$$
=
 OpenBabel10232409333D

 33 38  0  0  1  0  0  0  0  0999 V2000
  187.1210  178.0460  147.7550 C   0  0  0  0  0  3  0  0  0  0  0  0
  185.9250  178.3570  142.1110 C   0  0  0  0  0  0  0  0  0  0  0  0
  187.1490  178.0430  140.9850 S   0  0  0  0  0  0  0  0  0  0  0  0
  189.6070  177.2950  146.7990 C   0  0  0  0  0  0  0  0  0  0  0  0
  187.7250  177.8560  143.4830 C   0  0  0  0  0  0  0  0  0  0  0  0
  188.7080  177.5720  144.4500 C   0  0  0  0  0  0  0  0  0  0  0  0
  184.5850  178.6980  141.9510 C   0  0  0  0  0  3  0  0  0  0  0  0
  188.2550  177.7300  142.2330 C   0  0  0  0  0  0  0  0  0  0  0  0
  188.1290  177.7350  148.5960 N   0  0  0  0  0  0  0  0  0  0  0  0
  189.9050  177.2440  143.6260 C   0  0  0  0  0  0  0  0  0  0  0  0
  187.3420  177.9840  146.3880 C   0  0  0  0  0  3  0  0  0  0  0  0
  191.6060  176.7120  145.3440 C   0  0  0  0  0  3  0  0  0  0  0  0
  183.9790  178.8310  143.2040 C   0  0  0  0  0  0  0  0  0  0  0  0
  186.3740  178.2180  143.4030 C   0  0  0  0  0  0  0  0  0  0  0  0
  188.5800  177.6070  145.8580 C   0  0  0  0  0  0  0  0  0  0  0  0
  190.9140  176.9040  146.5260 C   0  0  0  0  0  3  0  0  0  0  0  0
  189.3230  177.3740  148.1300 N   0  0  0  0  0  0  0  0  0  0  0  0
  185.0970  178.5140  144.4510 S   0  0  0  0  0  0  0  0  0  0  0  0
  191.1630  176.8640  144.0490 C   0  0  0  0  0  3  0  0  0  0  0  0
  189.5680  177.3620  142.2690 C   0  0  0  0  0  0  0  0  0  0  0  0
  190.0270  177.5040  139.8680 C   0  0  0  0  0  0  0  0  0  0  0  0
  190.3950  177.1410  141.0660 C   0  0  0  0  0  3  0  0  0  0  0  0
  189.6500  177.8700  138.6760 C   0  0  0  0  0  3  0  0  0  0  0  0
  188.8310  176.9470  137.8420 C   0  0  0  0  0  2  0  0  0  0  0  0
  189.7290  177.5340  135.6820 O   0  0  0  0  0  0  0  0  0  0  0  0
  189.6170  176.4970  136.6220 C   0  0  2  0  0  0  0  0  0  0  0  0
  188.9240  176.4310  135.3200 C   0  0  0  0  0  2  0  0  0  0  0  0
  190.9340  175.7550  136.7790 C   0  0  0  0  0  2  0  0  0  0  0  0
  190.7840  174.6560  137.7180 N   0  0  0  0  0  2  0  0  0  0  0  0
  190.2310  173.5400  136.9720 C   0  0  0  0  0  1  0  0  0  0  0  0
  182.5380  179.1570  143.4050 C   0  0  2  0  0  3  0  0  0  0  0  0
  182.0300  178.4380  144.4870 O   0  0  0  0  0  1  0  0  0  0  0  0
  181.7460  178.8270  142.1550 C   0  0  0  0  0  1  0  0  0  0  0  0
  1  9  1  0  0  0  0
  2 14  2  0  0  0  0
  3  2  1  0  0  0  0
  3  8  1  0  0  0  0
  4 17  1  0  0  0  0
  5  6  2  0  0  0  0
  6 15  1  0  0  0  0
  7  2  1  0  0  0  0
  7 13  2  0  0  0  0
  8 20  2  0  0  0  0
  8  5  1  0  0  0  0
 10 19  2  0  0  0  0
 10  6  1  0  0  0  0
 11  1  2  0  0  0  0
 12 16  2  0  0  0  0
 13 31  1  0  0  0  0
 13 18  1  0  0  0  0
 14  5  1  0  0  0  0
 14 18  1  0  0  0  0
 15 11  1  0  0  0  0
 15  4  2  0  0  0  0
 16  4  1  0  0  0  0
 17  9  2  0  0  0  0
 19 12  1  0  0  0  0
 20 10  1  0  0  0  0
 21 22  2  0  0  0  0
 22 20  1  0  0  0  0
 23 21  2  0  0  0  0
 24 23  1  0  0  0  0
 25 26  1  0  0  0  0
 26 28  1  1  0  0  0
 26 24  1  0  0  0  0
 27 25  1  0  0  0  0
 27 26  1  0  0  0  0
 28 29  1  0  0  0  0
 30 29  1  0  0  0  0
 31 33  1  6  0  0  0
 31 32  1  0  0  0  0
M  END
>  <MODEL>
7

>  <REMARK>
 VINA RESULT:      -9.1      2.409      6.560
  Name = 
  6 active torsions:
  status: ('A' for Active; 'I' for Inactive)
    1  A    between atoms: N_3  and  C_30
    2  A    between atoms: C_5  and  C_23
    3  A    between atoms: C_9  and  C_17
    4  A    between atoms: C_9  and  C_33
    5  A    between atoms: C_13  and  C_32
    6  A    between atoms: C_17  and  C_30
                            x       y       z     vdW  Elec       q    Type
                         _______ _______ _______ _____ _____    ______ ____

>  <TORSDO>
F 6

$$$$
=
 OpenBabel10232409333D

 33 38  0  0  1  0  0  0  0  0999 V2000
  190.5320  176.8920  145.6060 C   0  0  0  0  0  3  0  0  0  0  0  0
  189.2320  177.7970  140.0490 C   0  0  0  0  0  0  0  0  0  0  0  0
  187.6650  178.2780  139.6320 S   0  0  0  0  0  0  0  0  0  0  0  0
  187.9120  177.7070  145.9580 C   0  0  0  0  0  0  0  0  0  0  0  0
  188.1990  177.9230  142.1210 C   0  0  0  0  0  0  0  0  0  0  0  0
  187.7280  177.9580  143.4470 C   0  0  0  0  0  0  0  0  0  0  0  0
  190.3650  177.5570  139.2750 C   0  0  0  0  0  3  0  0  0  0  0  0
  187.2000  178.2780  141.2640 C   0  0  0  0  0  0  0  0  0  0  0  0
  189.9860  176.9780  146.8360 N   0  0  0  0  0  0  0  0  0  0  0  0
  186.3120  178.3920  143.2870 C   0  0  0  0  0  0  0  0  0  0  0  0
  189.7610  177.2220  144.5030 C   0  0  0  0  0  3  0  0  0  0  0  0
  185.5150  178.4830  145.6300 C   0  0  0  0  0  3  0  0  0  0  0  0
  191.4340  177.1990  140.1020 C   0  0  0  0  0  0  0  0  0  0  0  0
  189.3740  177.6480  141.4090 C   0  0  0  0  0  0  0  0  0  0  0  0
  188.4340  177.6420  144.6310 C   0  0  0  0  0  0  0  0  0  0  0  0
  186.6300  178.0860  146.3450 C   0  0  0  0  0  3  0  0  0  0  0  0
  188.7250  177.3710  146.9990 N   0  0  0  0  0  0  0  0  0  0  0  0
  190.9590  177.2030  141.7390 S   0  0  0  0  0  0  0  0  0  0  0  0
  185.3660  178.6190  144.2680 C   0  0  0  0  0  3  0  0  0  0  0  0
  186.0420  178.5700  141.9230 C   0  0  0  0  0  0  0  0  0  0  0  0
  183.7930  178.1900  141.0310 C   0  0  0  0  0  0  0  0  0  0  0  0
  184.7970  178.9940  141.2510 C   0  0  0  0  0  3  0  0  0  0  0  0
  182.7970  177.3790  140.8150 C   0  0  0  0  0  3  0  0  0  0  0  0
  182.7630  176.5610  139.5710 C   0  0  0  0  0  2  0  0  0  0  0  0
  180.4820  175.7810  139.4870 O   0  0  0  0  0  0  0  0  0  0  0  0
  181.4020  176.6670  138.9040 C   0  0  2  0  0  0  0  0  0  0  0  0
  180.8860  175.5000  138.1630 C   0  0  0  0  0  2  0  0  0  0  0  0
  180.7680  178.0240  138.6470 C   0  0  0  0  0  2  0  0  0  0  0  0
  181.6030  178.8090  137.7530 N   0  0  0  0  0  2  0  0  0  0  0  0
  180.7520  179.8360  137.1790 C   0  0  0  0  0  1  0  0  0  0  0  0
  192.8100  176.9050  139.6070 C   0  0  2  0  0  3  0  0  0  0  0  0
  193.6320  178.0180  139.7880 O   0  0  0  0  0  1  0  0  0  0  0  0
  192.7720  176.5320  138.1390 C   0  0  0  0  0  1  0  0  0  0  0  0
  1  9  1  0  0  0  0
  2 14  2  0  0  0  0
  3  2  1  0  0  0  0
  3  8  1  0  0  0  0
  4 16  1  0  0  0  0
  4 17  1  0  0  0  0
  5  6  2  0  0  0  0
  6 15  1  0  0  0  0
  7  2  1  0  0  0  0
  7 13  2  0  0  0  0
  8 20  2  0  0  0  0
  8  5  1  0  0  0  0
  9 17  2  0  0  0  0
 10  6  1  0  0  0  0
 10 19  2  0  0  0  0
 11 15  1  0  0  0  0
 11  1  2  0  0  0  0
 12 16  2  0  0  0  0
 13 18  1  0  0  0  0
 14 18  1  0  0  0  0
 14  5  1  0  0  0  0
 15  4  2  0  0  0  0
 19 12  1  0  0  0  0
 20 10  1  0  0  0  0
 21 22  2  0  0  0  0
 22 20  1  0  0  0  0
 23 21  2  0  0  0  0
 24 23  1  0  0  0  0
 26 28  1  6  0  0  0
 26 25  1  0  0  0  0
 26 24  1  0  0  0  0
 27 26  1  0  0  0  0
 27 25  1  0  0  0  0
 29 28  1  0  0  0  0
 30 29  1  0  0  0  0
 31 33  1  6  0  0  0
 31 32  1  0  0  0  0
 31 13  1  0  0  0  0
M  END
>  <MODEL>
8

>  <REMARK>
 VINA RESULT:      -9.0      2.246      3.158
  Name = 
  6 active torsions:
  status: ('A' for Active; 'I' for Inactive)
    1  A    between atoms: N_3  and  C_30
    2  A    between atoms: C_5  and  C_23
    3  A    between atoms: C_9  and  C_17
    4  A    between atoms: C_9  and  C_33
    5  A    between atoms: C_13  and  C_32
    6  A    between atoms: C_17  and  C_30
                            x       y       z     vdW  Elec       q    Type
                         _______ _______ _______ _____ _____    ______ ____

>  <TORSDO>
F 6

$$$$
=
 OpenBabel10232409333D

 33 38  0  0  1  0  0  0  0  0999 V2000
  185.8820  177.9930  146.5010 C   0  0  0  0  0  3  0  0  0  0  0  0
  184.1290  178.7920  141.0540 C   0  0  0  0  0  0  0  0  0  0  0  0
  185.2710  178.7850  139.8050 S   0  0  0  0  0  0  0  0  0  0  0  0
  188.3420  177.7120  145.2670 C   0  0  0  0  0  0  0  0  0  0  0  0
  186.1000  178.3900  142.2060 C   0  0  0  0  0  0  0  0  0  0  0  0
  187.1980  178.1340  143.0490 C   0  0  0  0  0  0  0  0  0  0  0  0
  182.7470  178.9600  141.0440 C   0  0  0  0  0  3  0  0  0  0  0  0
  186.5210  178.4850  140.9130 C   0  0  0  0  0  0  0  0  0  0  0  0
  186.9970  177.7280  147.2140 N   0  0  0  0  0  0  0  0  0  0  0  0
  188.3440  178.0750  142.0990 C   0  0  0  0  0  0  0  0  0  0  0  0
  185.9800  178.1220  145.1240 C   0  0  0  0  0  3  0  0  0  0  0  0
  190.2540  177.5880  143.5970 C   0  0  0  0  0  3  0  0  0  0  0  0
  182.2500  178.8600  142.3470 C   0  0  0  0  0  0  0  0  0  0  0  0
  184.7120  178.5670  142.2790 C   0  0  0  0  0  0  0  0  0  0  0  0
  187.2000  177.9860  144.4560 C   0  0  0  0  0  0  0  0  0  0  0  0
  189.6580  177.5420  144.8440 C   0  0  0  0  0  3  0  0  0  0  0  0
  188.1770  177.5950  146.6140 N   0  0  0  0  0  0  0  0  0  0  0  0
  183.5120  178.5570  143.4520 S   0  0  0  0  0  0  0  0  0  0  0  0
  189.6750  177.8270  142.3720 C   0  0  0  0  0  3  0  0  0  0  0  0
  187.8690  178.3020  140.8000 C   0  0  0  0  0  0  0  0  0  0  0  0
  188.2470  177.6460  138.4710 C   0  0  0  0  0  0  0  0  0  0  0  0
  188.6000  178.3410  139.5170 C   0  0  0  0  0  3  0  0  0  0  0  0
  187.8870  176.9460  137.4320 C   0  0  0  0  0  3  0  0  0  0  0  0
  188.3910  175.5550  137.2640 C   0  0  0  0  0  2  0  0  0  0  0  0
  189.7070  176.6840  135.5890 O   0  0  0  0  0  0  0  0  0  0  0  0
  189.6460  175.5460  136.4080 C   0  0  2  0  0  0  0  0  0  0  0  0
  189.5010  175.4450  134.9430 C   0  0  0  0  0  2  0  0  0  0  0  0
  191.0020  175.2400  137.0230 C   0  0  0  0  0  2  0  0  0  0  0  0
  190.9460  175.3960  138.4680 N   0  0  0  0  0  2  0  0  0  0  0  0
  191.7680  176.5460  138.7970 C   0  0  0  0  0  1  0  0  0  0  0  0
  180.8040  178.9560  142.6990 C   0  0  2  0  0  3  0  0  0  0  0  0
  180.3810  180.2830  142.6300 O   0  0  0  0  0  1  0  0  0  0  0  0
  180.5660  178.4160  144.0960 C   0  0  0  0  0  1  0  0  0  0  0  0
  1  9  1  0  0  0  0
  2 14  2  0  0  0  0
  3  8  1  0  0  0  0
  3  2  1  0  0  0  0
  4 17  1  0  0  0  0
  5 14  1  0  0  0  0
  5  6  2  0  0  0  0
  6 15  1  0  0  0  0
  7  2  1  0  0  0  0
  7 13  2  0  0  0  0
  8  5  1  0  0  0  0
 10 19  2  0  0  0  0
 10  6  1  0  0  0  0
 11  1  2  0  0  0  0
 12 16  2  0  0  0  0
 13 31  1  0  0  0  0
 13 18  1  0  0  0  0
 14 18  1  0  0  0  0
 15 11  1  0  0  0  0
 15  4  2  0  0  0  0
 16  4  1  0  0  0  0
 17  9  2  0  0  0  0
 19 12  1  0  0  0  0
 20  8  2  0  0  0  0
 20 10  1  0  0  0  0
 21 22  2  0  0  0  0
 22 20  1  0  0  0  0
 23 21  2  0  0  0  0
 24 23  1  0  0  0  0
 25 26  1  0  0  0  0
 26 28  1  1  0  0  0
 26 24  1  0  0  0  0
 27 25  1  0  0  0  0
 27 26  1  0  0  0  0
 28 29  1  0  0  0  0
 29 30  1  0  0  0  0
 31 33  1  1  0  0  0
 32 31  1  0  0  0  0
M  END
>  <MODEL>
9

>  <REMARK>
 VINA RESULT:      -8.9      2.452      6.972
  Name = 
  6 active torsions:
  status: ('A' for Active; 'I' for Inactive)
    1  A    between atoms: N_3  and  C_30
    2  A    between atoms: C_5  and  C_23
    3  A    between atoms: C_9  and  C_17
    4  A    between atoms: C_9  and  C_33
    5  A    between atoms: C_13  and  C_32
    6  A    between atoms: C_17  and  C_30
                            x       y       z     vdW  Elec       q    Type
                         _______ _______ _______ _____ _____    ______ ____

>  <TORSDO>
F 6

$$$$
