=
 OpenBabel10232412243D

 38 41  0  0  1  0  0  0  0  0999 V2000
  190.5480  176.1470  141.5210 O   0  0  0  0  0  0  0  0  0  0  0  0
  189.4550  176.3290  142.3910 C   0  0  0  0  0  2  0  0  0  0  0  0
  186.2440  176.3790  143.8800 C   0  0  0  0  0  1  0  0  0  0  0  0
  190.2360  176.7920  140.3000 C   0  0  1  0  0  3  0  0  0  0  0  0
  188.1260  177.5730  139.5330 O   0  0  0  0  0  1  0  0  0  0  0  0
  189.1070  177.7870  140.5020 C   0  0  1  0  0  3  0  0  0  0  0  0
  185.8560  178.8980  143.4600 C   0  0  2  0  0  3  0  0  0  0  0  0
  186.5540  179.0380  142.1480 C   0  0  0  0  0  2  0  0  0  0  0  0
  187.5690  177.9450  142.4430 C   0  0  0  0  0  0  0  0  0  0  0  0
  186.8430  177.7940  143.7710 C   0  0  2  0  0  0  0  0  0  0  0  0
  188.6110  177.3900  141.8170 C   0  0  0  0  0  0  0  0  0  0  0  0
  187.7670  178.2300  144.9310 C   0  0  2  0  0  3  0  0  0  0  0  0
  188.8580  177.2190  145.2570 C   0  0  2  0  0  3  0  0  0  0  0  0
  189.6420  177.9750  147.2390 C   0  0  1  0  0  3  0  0  0  0  0  0
  187.6330  177.3250  146.1460 C   0  0  1  0  0  3  0  0  0  0  0  0
  189.9460  177.8720  145.8700 O   0  0  0  0  0  0  0  0  0  0  0  0
  188.1390  178.0110  147.3800 C   0  0  0  0  0  2  0  0  0  0  0  0
  190.1570  176.8700  147.9230 O   0  0  0  0  0  0  0  0  0  0  0  0
  191.5270  176.8880  147.6530 C   0  0  0  0  0  2  0  0  0  0  0  0
  191.9990  175.4920  147.2680 C   0  0  0  0  0  2  0  0  0  0  0  0
  192.5830  174.3540  145.2810 O   0  0  0  0  0  0  0  0  0  0  0  0
  192.0700  175.3430  145.7810 C   0  0  0  0  0  3  0  0  0  0  0  0
  191.4160  177.4750  139.7910 N   0  0  0  0  0  2  0  0  0  0  0  0
  191.9910  176.6410  138.7490 C   0  0  0  0  0  2  0  0  0  0  0  0
  191.0850  176.5790  137.6130 N   0  0  0  0  0  2  0  0  0  0  0  0
  189.9530  174.4760  137.1600 C   0  0  0  0  0  1  0  0  0  0  0  0
  191.2410  175.2640  137.0150 C   0  0  0  0  0  2  0  0  0  0  0  0
  184.4140  178.4520  143.2280 C   0  0  0  0  0  2  0  0  0  0  0  0
  183.8090  179.0770  145.4530 O   0  0  0  0  0  1  0  0  0  0  0  0
  183.4640  179.2460  144.1120 C   0  0  2  0  0  3  0  0  0  0  0  0
  182.0310  178.7700  143.9010 C   0  0  0  0  0  2  0  0  0  0  0  0
  180.4210  180.2920  142.9620 O   0  0  0  0  0  1  0  0  0  0  0  0
  181.3930  179.3450  142.6340 C   0  0  2  0  0  3  0  0  0  0  0  0
  180.7850  178.2650  141.7450 C   0  0  0  0  0  2  0  0  0  0  0  0
  181.5030  178.1840  140.4060 C   0  0  0  0  0  2  0  0  0  0  0  0
  182.2510  179.3420  140.1900 O   0  0  0  0  0  0  0  0  0  0  0  0
  182.9130  179.1120  138.9860 C   0  0  0  0  0  2  0  0  0  0  0  0
  184.3440  178.7070  139.2660 C   0  0  0  0  0  1  0  0  0  0  0  0
  1  2  1  0  0  0  0
  4 23  1  1  0  0  0
  4  6  1  0  0  0  0
  4  1  1  0  0  0  0
  6  5  1  6  0  0  0
  6 11  1  0  0  0  0
  7 28  1  6  0  0  0
  7 10  1  0  0  0  0
  8  9  1  0  0  0  0
  8  7  1  0  0  0  0
  9 10  1  0  0  0  0
 10  3  1  1  0  0  0
 11  2  1  0  0  0  0
 11  9  2  0  0  0  0
 12 10  1  6  0  0  0
 12 13  1  0  0  0  0
 12 15  1  0  0  0  0
 13 16  1  1  0  0  0
 13 15  1  0  0  0  0
 14 17  1  0  0  0  0
 14 18  1  1  0  0  0
 15 17  1  1  0  0  0
 16 14  1  0  0  0  0
 19 18  1  0  0  0  0
 20 19  1  0  0  0  0
 21 22  2  0  0  0  0
 22 20  1  0  0  0  0
 24 23  1  0  0  0  0
 25 24  1  0  0  0  0
 27 26  1  0  0  0  0
 27 25  1  0  0  0  0
 28 30  1  0  0  0  0
 30 29  1  1  0  0  0
 31 30  1  0  0  0  0
 33 32  1  1  0  0  0
 33 31  1  0  0  0  0
 34 33  1  0  0  0  0
 35 34  1  0  0  0  0
 36 35  1  0  0  0  0
 37 38  1  0  0  0  0
 37 36  1  0  0  0  0
M  END
>  <MODEL>
1

>  <REMARK>
 VINA RESULT:      -5.9      0.000      0.000
  Name = 
  17 active torsions:
  status: ('A' for Active; 'I' for Inactive)
    1  A    between atoms: C_3  and  C_5
    2  A    between atoms: C_3  and  C_30
    3  A    between atoms: C_4  and  N_31
    4  A    between atoms: C_4  and  N_33
    5  A    between atoms: C_5  and  O_11
    6  A    between atoms: C_6  and  C_20
    7  A    between atoms: C_6  and  C_24
    8  A    between atoms: C_9  and  C_37
    9  A    between atoms: C_10  and  C_35
   10  A    between atoms: O_11  and  C_15
   11  A    between atoms: C_16  and  O_26
   12  A    between atoms: C_16  and  C_35
   13  A    between atoms: C_17  and  N_33
   14  A    between atoms: C_23  and  O_26
   15  A    between atoms: C_24  and  C_34
   16  A    between atoms: C_28  and  N_31
   17  A    between atoms: C_30  and  C_34
                            x       y       z     vdW  Elec       q    Type
                         _______ _______ _______ _____ _____    ______ ____

>  <TORSDO>
F 17

$$$$
=
 OpenBabel10232412243D

 38 41  0  0  1  0  0  0  0  0999 V2000
  184.2080  179.1790  139.3530 O   0  0  0  0  0  0  0  0  0  0  0  0
  185.5410  178.9660  138.9520 C   0  0  0  0  0  2  0  0  0  0  0  0
  188.5970  178.8530  137.1680 C   0  0  0  0  0  1  0  0  0  0  0  0
  183.3680  178.5640  138.3940 C   0  0  1  0  0  3  0  0  0  0  0  0
  183.9250  177.7870  136.2170 O   0  0  0  0  0  1  0  0  0  0  0  0
  184.1540  177.5550  137.5740 C   0  0  1  0  0  3  0  0  0  0  0  0
  188.4090  176.3430  136.5870 C   0  0  2  0  0  3  0  0  0  0  0  0
  186.9300  176.2430  136.4090 C   0  0  0  0  0  2  0  0  0  0  0  0
  186.6210  177.3350  137.4200 C   0  0  0  0  0  0  0  0  0  0  0  0
  188.1280  177.4460  137.5850 C   0  0  2  0  0  0  0  0  0  0  0  0
  185.5260  177.9140  137.9220 C   0  0  0  0  0  0  0  0  0  0  0  0
  188.5400  176.9870  139.0020 C   0  0  2  0  0  3  0  0  0  0  0  0
  188.5060  178.1000  140.0400 C   0  0  2  0  0  3  0  0  0  0  0  0
  189.6020  177.1680  141.7850 C   0  0  1  0  0  3  0  0  0  0  0  0
  189.8330  177.6390  139.4660 C   0  0  1  0  0  3  0  0  0  0  0  0
  188.3290  177.5490  141.3250 O   0  0  0  0  0  0  0  0  0  0  0  0
  190.4560  176.8540  140.5820 C   0  0  0  0  0  2  0  0  0  0  0  0
  190.1750  178.2150  142.5140 O   0  0  0  0  0  0  0  0  0  0  0  0
  189.5460  178.1710  143.7600 C   0  0  0  0  0  2  0  0  0  0  0  0
  190.0750  176.9940  144.5680 C   0  0  0  0  0  2  0  0  0  0  0  0
  191.8330  177.0020  146.1470 O   0  0  0  0  0  0  0  0  0  0  0  0
  191.4880  177.2330  144.9990 C   0  0  0  0  0  3  0  0  0  0  0  0
  182.2590  177.9030  139.0650 N   0  0  0  0  0  2  0  0  0  0  0  0
  181.8140  178.7750  140.1400 C   0  0  0  0  0  2  0  0  0  0  0  0
  181.5980  177.9970  141.3490 N   0  0  0  0  0  2  0  0  0  0  0  0
  183.4540  178.7790  142.7090 C   0  0  0  0  0  1  0  0  0  0  0  0
  181.9580  178.8450  142.4720 C   0  0  0  0  0  2  0  0  0  0  0  0
  189.0540  176.7850  135.2750 C   0  0  0  0  0  2  0  0  0  0  0  0
  189.9890  174.6570  134.7220 O   0  0  0  0  0  1  0  0  0  0  0  0
  190.3190  175.9810  135.0090 C   0  0  2  0  0  3  0  0  0  0  0  0
  191.2290  176.0160  136.2310 C   0  0  0  0  0  2  0  0  0  0  0  0
  191.1160  174.5100  138.1050 O   0  0  0  0  0  1  0  0  0  0  0  0
  191.5420  174.6220  136.7800 C   0  0  2  0  0  3  0  0  0  0  0  0
  193.0240  174.2750  136.6820 C   0  0  0  0  0  2  0  0  0  0  0  0
  193.8900  175.5220  136.7750 C   0  0  0  0  0  2  0  0  0  0  0  0
  194.4470  175.6270  138.0500 O   0  0  0  0  0  0  0  0  0  0  0  0
  194.9630  174.3590  138.3130 C   0  0  0  0  0  2  0  0  0  0  0  0
  195.9690  174.4480  139.4400 C   0  0  0  0  0  1  0  0  0  0  0  0
  2  1  1  0  0  0  0
  4 23  1  1  0  0  0
  4  1  1  0  0  0  0
  6  5  1  6  0  0  0
  6 11  1  0  0  0  0
  6  4  1  0  0  0  0
  7 28  1  6  0  0  0
  7 10  1  0  0  0  0
  8  7  1  0  0  0  0
  8  9  1  0  0  0  0
  9 10  1  0  0  0  0
  9 11  2  0  0  0  0
 10  3  1  6  0  0  0
 11  2  1  0  0  0  0
 12 10  1  6  0  0  0
 12 15  1  0  0  0  0
 12 13  1  0  0  0  0
 13 16  1  1  0  0  0
 14 18  1  6  0  0  0
 15 13  1  0  0  0  0
 15 17  1  1  0  0  0
 16 14  1  0  0  0  0
 17 14  1  0  0  0  0
 18 19  1  0  0  0  0
 19 20  1  0  0  0  0
 20 22  1  0  0  0  0
 22 21  2  0  0  0  0
 23 24  1  0  0  0  0
 24 25  1  0  0  0  0
 25 27  1  0  0  0  0
 27 26  1  0  0  0  0
 30 29  1  1  0  0  0
 30 28  1  0  0  0  0
 30 31  1  0  0  0  0
 31 33  1  0  0  0  0
 33 32  1  1  0  0  0
 34 35  1  0  0  0  0
 34 33  1  0  0  0  0
 35 36  1  0  0  0  0
 36 37  1  0  0  0  0
 37 38  1  0  0  0  0
M  END
>  <MODEL>
2

>  <REMARK>
 VINA RESULT:      -5.7      3.409      8.901
  Name = 
  17 active torsions:
  status: ('A' for Active; 'I' for Inactive)
    1  A    between atoms: C_3  and  C_5
    2  A    between atoms: C_3  and  C_30
    3  A    between atoms: C_4  and  N_31
    4  A    between atoms: C_4  and  N_33
    5  A    between atoms: C_5  and  O_11
    6  A    between atoms: C_6  and  C_20
    7  A    between atoms: C_6  and  C_24
    8  A    between atoms: C_9  and  C_37
    9  A    between atoms: C_10  and  C_35
   10  A    between atoms: O_11  and  C_15
   11  A    between atoms: C_16  and  O_26
   12  A    between atoms: C_16  and  C_35
   13  A    between atoms: C_17  and  N_33
   14  A    between atoms: C_23  and  O_26
   15  A    between atoms: C_24  and  C_34
   16  A    between atoms: C_28  and  N_31
   17  A    between atoms: C_30  and  C_34
                            x       y       z     vdW  Elec       q    Type
                         _______ _______ _______ _____ _____    ______ ____

>  <TORSDO>
F 17

$$$$
=
 OpenBabel10232412243D

 38 41  0  0  1  0  0  0  0  0999 V2000
  184.3260  178.4970  138.6790 O   0  0  0  0  0  0  0  0  0  0  0  0
  185.7300  178.4580  138.5860 C   0  0  0  0  0  2  0  0  0  0  0  0
  189.0910  178.6830  137.4930 C   0  0  0  0  0  1  0  0  0  0  0  0
  183.8040  177.7010  137.6320 C   0  0  1  0  0  3  0  0  0  0  0  0
  184.9210  176.8720  135.7030 O   0  0  0  0  0  1  0  0  0  0  0  0
  184.8760  176.7680  137.0940 C   0  0  1  0  0  3  0  0  0  0  0  0
  189.3650  176.1400  137.1320 C   0  0  2  0  0  3  0  0  0  0  0  0
  187.9880  175.8090  136.6620 C   0  0  0  0  0  2  0  0  0  0  0  0
  187.3240  176.9080  137.4760 C   0  0  0  0  0  0  0  0  0  0  0  0
  188.7310  177.2530  137.9380 C   0  0  2  0  0  0  0  0  0  0  0  0
  186.0790  177.3500  137.6820 C   0  0  0  0  0  0  0  0  0  0  0  0
  188.8790  176.9560  139.4480 C   0  0  2  0  0  3  0  0  0  0  0  0
  188.7330  178.1880  140.3310 C   0  0  2  0  0  3  0  0  0  0  0  0
  189.4760  177.4390  142.3310 C   0  0  1  0  0  3  0  0  0  0  0  0
  190.1110  177.6170  140.0470 C   0  0  1  0  0  3  0  0  0  0  0  0
  188.3180  177.8030  141.6220 O   0  0  0  0  0  0  0  0  0  0  0  0
  190.5000  176.9530  141.3340 C   0  0  0  0  0  2  0  0  0  0  0  0
  189.9760  178.5480  143.0220 O   0  0  0  0  0  0  0  0  0  0  0  0
  190.8570  178.0140  143.9660 C   0  0  0  0  0  2  0  0  0  0  0  0
  190.0750  177.3250  145.0750 C   0  0  0  0  0  2  0  0  0  0  0  0
  191.9600  176.2370  145.9980 O   0  0  0  0  0  0  0  0  0  0  0  0
  190.9780  176.9340  146.2030 C   0  0  0  0  0  3  0  0  0  0  0  0
  182.6720  176.9280  138.1200 N   0  0  0  0  0  2  0  0  0  0  0  0
  182.5920  177.1270  139.5580 C   0  0  0  0  0  2  0  0  0  0  0  0
  181.2340  177.4860  139.9310 N   0  0  0  0  0  2  0  0  0  0  0  0
  181.3420  178.8290  141.9530 C   0  0  0  0  0  1  0  0  0  0  0  0
  181.2770  178.8460  140.4390 C   0  0  0  0  0  2  0  0  0  0  0  0
  190.2180  176.5840  135.9460 C   0  0  0  0  0  2  0  0  0  0  0  0
  191.6480  174.8510  135.1320 O   0  0  0  0  0  1  0  0  0  0  0  0
  191.5940  175.9350  136.0080 C   0  0  2  0  0  3  0  0  0  0  0  0
  191.8790  175.4470  137.4230 C   0  0  0  0  0  2  0  0  0  0  0  0
  193.8270  176.8380  137.1740 O   0  0  0  0  0  1  0  0  0  0  0  0
  193.3070  175.7530  137.8830 C   0  0  2  0  0  3  0  0  0  0  0  0
  194.2350  174.5510  137.7450 C   0  0  0  0  0  2  0  0  0  0  0  0
  195.3420  174.8200  136.7370 C   0  0  0  0  0  2  0  0  0  0  0  0
  196.5870  174.5610  137.3100 O   0  0  0  0  0  0  0  0  0  0  0  0
  197.5080  174.9800  136.3510 C   0  0  0  0  0  2  0  0  0  0  0  0
  196.8340  175.9320  135.3870 C   0  0  0  0  0  1  0  0  0  0  0  0
  2  1  1  0  0  0  0
  4 23  1  1  0  0  0
  4  1  1  0  0  0  0
  6  5  1  6  0  0  0
  6  4  1  0  0  0  0
  6 11  1  0  0  0  0
  7 28  1  6  0  0  0
  7 10  1  0  0  0  0
  8  7  1  0  0  0  0
  8  9  1  0  0  0  0
  9 11  2  0  0  0  0
  9 10  1  0  0  0  0
 10  3  1  6  0  0  0
 11  2  1  0  0  0  0
 12 10  1  6  0  0  0
 12 15  1  0  0  0  0
 12 13  1  0  0  0  0
 13 16  1  1  0  0  0
 14 18  1  6  0  0  0
 15 13  1  0  0  0  0
 15 17  1  1  0  0  0
 16 14  1  0  0  0  0
 17 14  1  0  0  0  0
 18 19  1  0  0  0  0
 19 20  1  0  0  0  0
 20 22  1  0  0  0  0
 21 22  2  0  0  0  0
 23 24  1  0  0  0  0
 24 25  1  0  0  0  0
 25 27  1  0  0  0  0
 27 26  1  0  0  0  0
 28 30  1  0  0  0  0
 30 29  1  6  0  0  0
 30 31  1  0  0  0  0
 31 33  1  0  0  0  0
 33 32  1  6  0  0  0
 34 33  1  0  0  0  0
 35 36  1  0  0  0  0
 35 34  1  0  0  0  0
 37 36  1  0  0  0  0
 38 37  1  0  0  0  0
M  END
>  <MODEL>
3

>  <REMARK>
 VINA RESULT:      -5.6      3.774      9.247
  Name = 
  17 active torsions:
  status: ('A' for Active; 'I' for Inactive)
    1  A    between atoms: C_3  and  C_5
    2  A    between atoms: C_3  and  C_30
    3  A    between atoms: C_4  and  N_31
    4  A    between atoms: C_4  and  N_33
    5  A    between atoms: C_5  and  O_11
    6  A    between atoms: C_6  and  C_20
    7  A    between atoms: C_6  and  C_24
    8  A    between atoms: C_9  and  C_37
    9  A    between atoms: C_10  and  C_35
   10  A    between atoms: O_11  and  C_15
   11  A    between atoms: C_16  and  O_26
   12  A    between atoms: C_16  and  C_35
   13  A    between atoms: C_17  and  N_33
   14  A    between atoms: C_23  and  O_26
   15  A    between atoms: C_24  and  C_34
   16  A    between atoms: C_28  and  N_31
   17  A    between atoms: C_30  and  C_34
                            x       y       z     vdW  Elec       q    Type
                         _______ _______ _______ _____ _____    ______ ____

>  <TORSDO>
F 17

$$$$
=
 OpenBabel10232412243D

 38 41  0  0  1  0  0  0  0  0999 V2000
  184.2610  178.1740  138.0160 O   0  0  0  0  0  0  0  0  0  0  0  0
  185.6690  178.2070  138.0440 C   0  0  0  0  0  2  0  0  0  0  0  0
  189.0960  178.5900  137.2380 C   0  0  0  0  0  1  0  0  0  0  0  0
  183.8730  177.3350  136.9440 C   0  0  1  0  0  3  0  0  0  0  0  0
  185.1940  176.5350  135.1350 O   0  0  0  0  0  1  0  0  0  0  0  0
  185.0330  176.4520  136.5190 C   0  0  1  0  0  3  0  0  0  0  0  0
  189.5290  176.0600  136.9540 C   0  0  2  0  0  3  0  0  0  0  0  0
  188.2150  175.6500  136.3750 C   0  0  0  0  0  2  0  0  0  0  0  0
  187.4290  176.7250  137.1070 C   0  0  0  0  0  0  0  0  0  0  0  0
  188.7720  177.1500  137.6800 C   0  0  2  0  0  0  0  0  0  0  0  0
  186.1500  177.1050  137.1960 C   0  0  0  0  0  0  0  0  0  0  0  0
  188.8040  176.8850  139.2020 C   0  0  2  0  0  3  0  0  0  0  0  0
  188.7050  178.1500  140.0450 C   0  0  2  0  0  3  0  0  0  0  0  0
  189.2630  177.4020  142.1060 C   0  0  1  0  0  3  0  0  0  0  0  0
  190.0460  177.4630  139.8620 C   0  0  1  0  0  3  0  0  0  0  0  0
  188.1830  177.8360  141.3170 O   0  0  0  0  0  0  0  0  0  0  0  0
  190.3010  176.8070  141.1860 C   0  0  0  0  0  2  0  0  0  0  0  0
  189.8080  178.4860  142.8010 O   0  0  0  0  0  0  0  0  0  0  0  0
  189.8600  178.0690  144.1320 C   0  0  0  0  0  2  0  0  0  0  0  0
  191.3090  177.9360  144.5800 C   0  0  0  0  0  2  0  0  0  0  0  0
  191.8110  175.6570  144.2080 O   0  0  0  0  0  0  0  0  0  0  0  0
  191.6060  176.5390  145.0270 C   0  0  0  0  0  3  0  0  0  0  0  0
  182.7440  176.5130  137.3490 N   0  0  0  0  0  2  0  0  0  0  0  0
  182.2610  177.0260  138.6210 C   0  0  0  0  0  2  0  0  0  0  0  0
  182.0850  175.9290  139.5590 N   0  0  0  0  0  2  0  0  0  0  0  0
  180.0580  174.6770  139.0790 C   0  0  0  0  0  1  0  0  0  0  0  0
  180.6630  175.8370  139.8450 C   0  0  0  0  0  2  0  0  0  0  0  0
  190.4580  176.5290  135.8370 C   0  0  0  0  0  2  0  0  0  0  0  0
  191.7990  174.7080  135.0640 O   0  0  0  0  0  1  0  0  0  0  0  0
  191.7960  175.8080  135.9210 C   0  0  2  0  0  3  0  0  0  0  0  0
  192.0450  175.3310  137.3460 C   0  0  0  0  0  2  0  0  0  0  0  0
  193.8590  176.9120  137.2600 O   0  0  0  0  0  1  0  0  0  0  0  0
  193.4220  175.7400  137.8800 C   0  0  2  0  0  3  0  0  0  0  0  0
  194.4640  174.6410  137.7040 C   0  0  0  0  0  2  0  0  0  0  0  0
  195.3990  174.9470  136.5440 C   0  0  0  0  0  2  0  0  0  0  0  0
  196.6840  175.2100  137.0190 O   0  0  0  0  0  0  0  0  0  0  0  0
  196.9160  174.2190  137.9710 C   0  0  0  0  0  2  0  0  0  0  0  0
  198.1130  173.3900  137.5560 C   0  0  0  0  0  1  0  0  0  0  0  0
  1  2  1  0  0  0  0
  4 23  1  1  0  0  0
  4  1  1  0  0  0  0
  6  5  1  6  0  0  0
  6  4  1  0  0  0  0
  6 11  1  0  0  0  0
  7 28  1  6  0  0  0
  7 10  1  0  0  0  0
  8  7  1  0  0  0  0
  8  9  1  0  0  0  0
  9 11  2  0  0  0  0
  9 10  1  0  0  0  0
 10  3  1  6  0  0  0
 11  2  1  0  0  0  0
 12 10  1  6  0  0  0
 12 15  1  0  0  0  0
 12 13  1  0  0  0  0
 13 16  1  1  0  0  0
 14 18  1  6  0  0  0
 15 13  1  0  0  0  0
 15 17  1  1  0  0  0
 16 14  1  0  0  0  0
 17 14  1  0  0  0  0
 18 19  1  0  0  0  0
 19 20  1  0  0  0  0
 20 22  1  0  0  0  0
 21 22  2  0  0  0  0
 23 24  1  0  0  0  0
 24 25  1  0  0  0  0
 25 27  1  0  0  0  0
 26 27  1  0  0  0  0
 28 30  1  0  0  0  0
 30 29  1  6  0  0  0
 30 31  1  0  0  0  0
 31 33  1  0  0  0  0
 33 32  1  6  0  0  0
 34 33  1  0  0  0  0
 35 36  1  0  0  0  0
 35 34  1  0  0  0  0
 36 37  1  0  0  0  0
 38 37  1  0  0  0  0
M  END
>  <MODEL>
4

>  <REMARK>
 VINA RESULT:      -5.6      3.891      9.368
  Name = 
  17 active torsions:
  status: ('A' for Active; 'I' for Inactive)
    1  A    between atoms: C_3  and  C_5
    2  A    between atoms: C_3  and  C_30
    3  A    between atoms: C_4  and  N_31
    4  A    between atoms: C_4  and  N_33
    5  A    between atoms: C_5  and  O_11
    6  A    between atoms: C_6  and  C_20
    7  A    between atoms: C_6  and  C_24
    8  A    between atoms: C_9  and  C_37
    9  A    between atoms: C_10  and  C_35
   10  A    between atoms: O_11  and  C_15
   11  A    between atoms: C_16  and  O_26
   12  A    between atoms: C_16  and  C_35
   13  A    between atoms: C_17  and  N_33
   14  A    between atoms: C_23  and  O_26
   15  A    between atoms: C_24  and  C_34
   16  A    between atoms: C_28  and  N_31
   17  A    between atoms: C_30  and  C_34
                            x       y       z     vdW  Elec       q    Type
                         _______ _______ _______ _____ _____    ______ ____

>  <TORSDO>
F 17

$$$$
=
 OpenBabel10232412243D

 38 41  0  0  1  0  0  0  0  0999 V2000
  194.4020  174.7480  137.6030 O   0  0  0  0  0  0  0  0  0  0  0  0
  193.0110  174.9320  137.7240 C   0  0  0  0  0  2  0  0  0  0  0  0
  189.4920  174.7010  137.4030 C   0  0  0  0  0  1  0  0  0  0  0  0
  194.7390  174.9100  136.2380 C   0  0  1  0  0  3  0  0  0  0  0  0
  193.2970  174.9280  134.3470 O   0  0  0  0  0  1  0  0  0  0  0  0
  193.6270  175.6380  135.5020 C   0  0  1  0  0  3  0  0  0  0  0  0
  189.2740  176.8220  135.9450 C   0  0  2  0  0  3  0  0  0  0  0  0
  190.5430  176.7160  135.1660 C   0  0  0  0  0  2  0  0  0  0  0  0
  191.3030  176.0200  136.2840 C   0  0  0  0  0  0  0  0  0  0  0  0
  190.0030  176.1150  137.0670 C   0  0  2  0  0  0  0  0  0  0  0  0
  192.5410  175.5530  136.4740 C   0  0  0  0  0  0  0  0  0  0  0  0
  190.1770  177.0750  138.2650 C   0  0  2  0  0  3  0  0  0  0  0  0
  190.6020  176.3780  139.5510 C   0  0  2  0  0  3  0  0  0  0  0  0
  190.2770  177.9890  141.1050 C   0  0  1  0  0  3  0  0  0  0  0  0
  189.1600  176.8140  139.3650 C   0  0  1  0  0  3  0  0  0  0  0  0
  191.2680  177.2920  140.3920 O   0  0  0  0  0  0  0  0  0  0  0  0
  189.0250  178.0090  140.2610 C   0  0  0  0  0  2  0  0  0  0  0  0
  190.0220  177.3410  142.3180 O   0  0  0  0  0  0  0  0  0  0  0  0
  191.2730  177.2110  142.9240 C   0  0  0  0  0  2  0  0  0  0  0  0
  191.1380  177.3620  144.4330 C   0  0  0  0  0  2  0  0  0  0  0  0
  189.2230  177.7430  145.7630 O   0  0  0  0  0  0  0  0  0  0  0  0
  189.7370  177.0810  144.8750 C   0  0  0  0  0  3  0  0  0  0  0  0
  195.9830  175.6570  136.1250 N   0  0  0  0  0  2  0  0  0  0  0  0
  197.0650  174.7680  136.5160 C   0  0  0  0  0  2  0  0  0  0  0  0
  197.9960  175.4770  137.3790 N   0  0  0  0  0  2  0  0  0  0  0  0
  198.0050  175.2800  139.8020 C   0  0  0  0  0  1  0  0  0  0  0  0
  198.3100  174.5900  138.4860 C   0  0  0  0  0  2  0  0  0  0  0  0
  188.1790  176.0140  135.2530 C   0  0  0  0  0  2  0  0  0  0  0  0
  186.8880  177.9980  134.9220 O   0  0  0  0  0  1  0  0  0  0  0  0
  186.8280  176.6970  135.4210 C   0  0  2  0  0  3  0  0  0  0  0  0
  186.4450  176.7440  136.8950 C   0  0  0  0  0  2  0  0  0  0  0  0
  186.5760  178.9060  137.9460 O   0  0  0  0  0  1  0  0  0  0  0  0
  185.7140  178.0340  137.2790 C   0  0  2  0  0  3  0  0  0  0  0  0
  184.4790  177.7720  138.1340 C   0  0  0  0  0  2  0  0  0  0  0  0
  184.2670  178.8820  139.1530 C   0  0  0  0  0  2  0  0  0  0  0  0
  184.1580  178.3440  140.4350 O   0  0  0  0  0  0  0  0  0  0  0  0
  185.1620  178.9740  141.1660 C   0  0  0  0  0  2  0  0  0  0  0  0
  185.0460  178.5840  142.6240 C   0  0  0  0  0  1  0  0  0  0  0  0
  1  2  1  0  0  0  0
  4 23  1  1  0  0  0
  4  1  1  0  0  0  0
  6  5  1  6  0  0  0
  6  4  1  0  0  0  0
  6 11  1  0  0  0  0
  7 28  1  6  0  0  0
  7 10  1  0  0  0  0
  8  7  1  0  0  0  0
  8  9  1  0  0  0  0
  9 11  2  0  0  0  0
  9 10  1  0  0  0  0
 10  3  1  1  0  0  0
 11  2  1  0  0  0  0
 12 10  1  6  0  0  0
 12 15  1  0  0  0  0
 12 13  1  0  0  0  0
 13 16  1  1  0  0  0
 14 18  1  1  0  0  0
 15 13  1  0  0  0  0
 15 17  1  1  0  0  0
 16 14  1  0  0  0  0
 17 14  1  0  0  0  0
 18 19  1  0  0  0  0
 19 20  1  0  0  0  0
 20 22  1  0  0  0  0
 22 21  2  0  0  0  0
 23 24  1  0  0  0  0
 24 25  1  0  0  0  0
 25 27  1  0  0  0  0
 27 26  1  0  0  0  0
 28 30  1  0  0  0  0
 30 29  1  1  0  0  0
 30 31  1  0  0  0  0
 31 33  1  0  0  0  0
 33 32  1  1  0  0  0
 33 34  1  0  0  0  0
 34 35  1  0  0  0  0
 35 36  1  0  0  0  0
 36 37  1  0  0  0  0
 37 38  1  0  0  0  0
M  END
>  <MODEL>
5

>  <REMARK>
 VINA RESULT:      -5.4      3.416      6.745
  Name = 
  17 active torsions:
  status: ('A' for Active; 'I' for Inactive)
    1  A    between atoms: C_3  and  C_5
    2  A    between atoms: C_3  and  C_30
    3  A    between atoms: C_4  and  N_31
    4  A    between atoms: C_4  and  N_33
    5  A    between atoms: C_5  and  O_11
    6  A    between atoms: C_6  and  C_20
    7  A    between atoms: C_6  and  C_24
    8  A    between atoms: C_9  and  C_37
    9  A    between atoms: C_10  and  C_35
   10  A    between atoms: O_11  and  C_15
   11  A    between atoms: C_16  and  O_26
   12  A    between atoms: C_16  and  C_35
   13  A    between atoms: C_17  and  N_33
   14  A    between atoms: C_23  and  O_26
   15  A    between atoms: C_24  and  C_34
   16  A    between atoms: C_28  and  N_31
   17  A    between atoms: C_30  and  C_34
                            x       y       z     vdW  Elec       q    Type
                         _______ _______ _______ _____ _____    ______ ____

>  <TORSDO>
F 17

$$$$
=
 OpenBabel10232412243D

 38 41  0  0  1  0  0  0  0  0999 V2000
  182.8970  178.1120  141.2980 O   0  0  0  0  0  0  0  0  0  0  0  0
  184.0960  177.6990  141.9120 C   0  0  0  0  0  2  0  0  0  0  0  0
  186.5190  176.2280  144.0340 C   0  0  0  0  0  1  0  0  0  0  0  0
  182.1220  178.7810  142.2760 C   0  0  1  0  0  3  0  0  0  0  0  0
  182.4020  178.7890  144.6370 O   0  0  0  0  0  1  0  0  0  0  0  0
  182.9970  179.2020  143.4440 C   0  0  1  0  0  3  0  0  0  0  0  0
  187.0690  178.4240  145.2780 C   0  0  2  0  0  3  0  0  0  0  0  0
  185.7130  179.0480  145.2850 C   0  0  0  0  0  2  0  0  0  0  0  0
  185.2880  178.4090  143.9730 C   0  0  0  0  0  0  0  0  0  0  0  0
  186.6640  177.7610  143.9800 C   0  0  2  0  0  0  0  0  0  0  0  0
  184.2060  178.4230  143.1880 C   0  0  0  0  0  0  0  0  0  0  0  0
  187.5170  178.3200  142.8180 C   0  0  2  0  0  3  0  0  0  0  0  0
  187.1890  177.7020  141.4660 C   0  0  2  0  0  3  0  0  0  0  0  0
  188.9170  178.3990  140.1840 C   0  0  1  0  0  3  0  0  0  0  0  0
  188.4330  177.2650  142.2170 C   0  0  1  0  0  3  0  0  0  0  0  0
  187.5470  178.5940  140.4340 O   0  0  0  0  0  0  0  0  0  0  0  0
  189.5570  177.9050  141.4580 C   0  0  0  0  0  2  0  0  0  0  0  0
  189.0820  177.4500  139.1700 O   0  0  0  0  0  0  0  0  0  0  0  0
  190.3720  177.6700  138.6800 C   0  0  0  0  0  2  0  0  0  0  0  0
  191.1900  176.3900  138.7760 C   0  0  0  0  0  2  0  0  0  0  0  0
  193.5240  176.7340  138.6550 O   0  0  0  0  0  0  0  0  0  0  0  0
  192.4880  176.5280  138.0440 C   0  0  0  0  0  3  0  0  0  0  0  0
  181.4870  179.9480  141.6840 N   0  0  0  0  0  2  0  0  0  0  0  0
  180.7120  179.4940  140.5410 C   0  0  0  0  0  2  0  0  0  0  0  0
  180.3050  180.6350  139.7370 N   0  0  0  0  0  2  0  0  0  0  0  0
  181.7790  179.5930  138.1090 C   0  0  0  0  0  1  0  0  0  0  0  0
  181.3730  180.8890  138.7850 C   0  0  0  0  0  2  0  0  0  0  0  0
  187.2100  177.4940  146.4810 C   0  0  0  0  0  2  0  0  0  0  0  0
  188.8900  178.4570  147.8820 O   0  0  0  0  0  1  0  0  0  0  0  0
  188.6580  177.4460  146.9480 C   0  0  2  0  0  3  0  0  0  0  0  0
  189.5970  177.6360  145.7640 C   0  0  0  0  0  2  0  0  0  0  0  0
  191.6980  176.7630  144.9760 O   0  0  0  0  0  1  0  0  0  0  0  0
  191.0520  177.2920  146.0950 C   0  0  2  0  0  3  0  0  0  0  0  0
  191.1700  176.3230  147.2670 C   0  0  0  0  0  2  0  0  0  0  0  0
  192.3640  175.3950  147.0980 C   0  0  0  0  0  2  0  0  0  0  0  0
  193.4160  175.8110  147.9150 O   0  0  0  0  0  0  0  0  0  0  0  0
  192.7960  176.3040  149.0610 C   0  0  0  0  0  2  0  0  0  0  0  0
  193.8470  176.8180  150.0210 C   0  0  0  0  0  1  0  0  0  0  0  0
  1  2  1  0  0  0  0
  1  4  1  0  0  0  0
  2 11  1  0  0  0  0
  4 23  1  6  0  0  0
  4  6  1  0  0  0  0
  6  5  1  1  0  0  0
  7  8  1  0  0  0  0
  7 28  1  1  0  0  0
  9 10  1  0  0  0  0
  9  8  1  0  0  0  0
 10  3  1  1  0  0  0
 10  7  1  0  0  0  0
 11  6  1  0  0  0  0
 11  9  2  0  0  0  0
 12 10  1  1  0  0  0
 13 16  1  6  0  0  0
 13 15  1  0  0  0  0
 13 12  1  0  0  0  0
 14 18  1  6  0  0  0
 14 16  1  0  0  0  0
 14 17  1  0  0  0  0
 15 17  1  6  0  0  0
 15 12  1  0  0  0  0
 19 20  1  0  0  0  0
 19 18  1  0  0  0  0
 22 21  2  0  0  0  0
 22 20  1  0  0  0  0
 24 23  1  0  0  0  0
 25 24  1  0  0  0  0
 26 27  1  0  0  0  0
 27 25  1  0  0  0  0
 28 30  1  0  0  0  0
 30 29  1  1  0  0  0
 31 33  1  0  0  0  0
 31 30  1  0  0  0  0
 33 32  1  6  0  0  0
 33 34  1  0  0  0  0
 35 34  1  0  0  0  0
 35 36  1  0  0  0  0
 36 37  1  0  0  0  0
 37 38  1  0  0  0  0
M  END
>  <MODEL>
6

>  <REMARK>
 VINA RESULT:      -5.4      2.971      8.537
  Name = 
  17 active torsions:
  status: ('A' for Active; 'I' for Inactive)
    1  A    between atoms: C_3  and  C_5
    2  A    between atoms: C_3  and  C_30
    3  A    between atoms: C_4  and  N_31
    4  A    between atoms: C_4  and  N_33
    5  A    between atoms: C_5  and  O_11
    6  A    between atoms: C_6  and  C_20
    7  A    between atoms: C_6  and  C_24
    8  A    between atoms: C_9  and  C_37
    9  A    between atoms: C_10  and  C_35
   10  A    between atoms: O_11  and  C_15
   11  A    between atoms: C_16  and  O_26
   12  A    between atoms: C_16  and  C_35
   13  A    between atoms: C_17  and  N_33
   14  A    between atoms: C_23  and  O_26
   15  A    between atoms: C_24  and  C_34
   16  A    between atoms: C_28  and  N_31
   17  A    between atoms: C_30  and  C_34
                            x       y       z     vdW  Elec       q    Type
                         _______ _______ _______ _____ _____    ______ ____

>  <TORSDO>
F 17

$$$$
=
 OpenBabel10232412243D

 38 41  0  0  1  0  0  0  0  0999 V2000
  182.9610  178.4180  142.1650 O   0  0  0  0  0  0  0  0  0  0  0  0
  184.1990  177.8800  142.5660 C   0  0  0  0  0  2  0  0  0  0  0  0
  186.7750  176.0690  144.1850 C   0  0  0  0  0  1  0  0  0  0  0  0
  182.3680  179.0220  143.2990 C   0  0  1  0  0  3  0  0  0  0  0  0
  182.9540  178.7700  145.5900 O   0  0  0  0  0  1  0  0  0  0  0  0
  183.4140  179.2720  144.3720 C   0  0  1  0  0  3  0  0  0  0  0  0
  187.6300  178.0900  145.5470 C   0  0  2  0  0  3  0  0  0  0  0  0
  186.3320  178.7830  145.7990 C   0  0  0  0  0  2  0  0  0  0  0  0
  185.6970  178.3070  144.5020 C   0  0  0  0  0  0  0  0  0  0  0  0
  187.0150  177.5890  144.2590 C   0  0  2  0  0  0  0  0  0  0  0  0
  184.5240  178.4610  143.8790 C   0  0  0  0  0  0  0  0  0  0  0  0
  187.7440  178.2190  143.0500 C   0  0  2  0  0  3  0  0  0  0  0  0
  187.0470  177.9720  141.7190 C   0  0  2  0  0  3  0  0  0  0  0  0
  188.6240  178.6030  140.2250 C   0  0  1  0  0  3  0  0  0  0  0  0
  188.2800  177.1690  142.0900 C   0  0  1  0  0  3  0  0  0  0  0  0
  187.3990  178.9840  140.8020 O   0  0  0  0  0  0  0  0  0  0  0  0
  189.3610  177.7430  141.2220 C   0  0  0  0  0  2  0  0  0  0  0  0
  188.3890  177.8770  139.0520 O   0  0  0  0  0  0  0  0  0  0  0  0
  188.6330  178.7810  138.0160 C   0  0  0  0  0  2  0  0  0  0  0  0
  189.4050  178.0950  136.8980 C   0  0  0  0  0  2  0  0  0  0  0  0
  190.3430  175.9380  136.6710 O   0  0  0  0  0  0  0  0  0  0  0  0
  189.4120  176.6100  137.0860 C   0  0  0  0  0  3  0  0  0  0  0  0
  181.7410  180.2770  142.9140 N   0  0  0  0  0  2  0  0  0  0  0  0
  180.3120  180.0360  142.7990 C   0  0  0  0  0  2  0  0  0  0  0  0
  180.0080  179.4920  141.4860 N   0  0  0  0  0  2  0  0  0  0  0  0
  180.5870  180.0620  139.1950 C   0  0  0  0  0  1  0  0  0  0  0  0
  180.1130  180.5870  140.5360 C   0  0  0  0  0  2  0  0  0  0  0  0
  187.8650  177.0340  146.6240 C   0  0  0  0  0  2  0  0  0  0  0  0
  188.1990  178.7910  148.2100 O   0  0  0  0  0  1  0  0  0  0  0  0
  188.7400  177.5950  147.7360 C   0  0  2  0  0  3  0  0  0  0  0  0
  190.1470  177.8570  147.2140 C   0  0  0  0  0  2  0  0  0  0  0  0
  192.1100  176.9020  148.2290 O   0  0  0  0  0  1  0  0  0  0  0  0
  191.0660  176.6380  147.3400 C   0  0  2  0  0  3  0  0  0  0  0  0
  191.6300  176.1920  145.9960 C   0  0  0  0  0  2  0  0  0  0  0  0
  191.0240  176.9890  144.8500 C   0  0  0  0  0  2  0  0  0  0  0  0
  191.6390  176.6440  143.6460 O   0  0  0  0  0  0  0  0  0  0  0  0
  191.9830  177.8640  143.0670 C   0  0  0  0  0  2  0  0  0  0  0  0
  191.4630  178.9950  143.9270 C   0  0  0  0  0  1  0  0  0  0  0  0
  1  2  1  0  0  0  0
  1  4  1  0  0  0  0
  2 11  1  0  0  0  0
  4 23  1  6  0  0  0
  4  6  1  0  0  0  0
  6  5  1  1  0  0  0
  7  8  1  0  0  0  0
  7 28  1  1  0  0  0
  9  8  1  0  0  0  0
 10  3  1  6  0  0  0
 10  9  1  0  0  0  0
 10  7  1  0  0  0  0
 11  6  1  0  0  0  0
 11  9  2  0  0  0  0
 12 10  1  1  0  0  0
 13 16  1  6  0  0  0
 13 15  1  0  0  0  0
 13 12  1  0  0  0  0
 14 18  1  6  0  0  0
 14 16  1  0  0  0  0
 14 17  1  0  0  0  0
 15 17  1  6  0  0  0
 15 12  1  0  0  0  0
 19 18  1  0  0  0  0
 20 22  1  0  0  0  0
 20 19  1  0  0  0  0
 21 22  2  0  0  0  0
 24 23  1  0  0  0  0
 25 24  1  0  0  0  0
 26 27  1  0  0  0  0
 27 25  1  0  0  0  0
 28 30  1  0  0  0  0
 30 29  1  6  0  0  0
 31 33  1  0  0  0  0
 31 30  1  0  0  0  0
 33 32  1  1  0  0  0
 34 33  1  0  0  0  0
 35 34  1  0  0  0  0
 36 35  1  0  0  0  0
 37 36  1  0  0  0  0
 37 38  1  0  0  0  0
M  END
>  <MODEL>
7

>  <REMARK>
 VINA RESULT:      -5.4      3.118      8.406
  Name = 
  17 active torsions:
  status: ('A' for Active; 'I' for Inactive)
    1  A    between atoms: C_3  and  C_5
    2  A    between atoms: C_3  and  C_30
    3  A    between atoms: C_4  and  N_31
    4  A    between atoms: C_4  and  N_33
    5  A    between atoms: C_5  and  O_11
    6  A    between atoms: C_6  and  C_20
    7  A    between atoms: C_6  and  C_24
    8  A    between atoms: C_9  and  C_37
    9  A    between atoms: C_10  and  C_35
   10  A    between atoms: O_11  and  C_15
   11  A    between atoms: C_16  and  O_26
   12  A    between atoms: C_16  and  C_35
   13  A    between atoms: C_17  and  N_33
   14  A    between atoms: C_23  and  O_26
   15  A    between atoms: C_24  and  C_34
   16  A    between atoms: C_28  and  N_31
   17  A    between atoms: C_30  and  C_34
                            x       y       z     vdW  Elec       q    Type
                         _______ _______ _______ _____ _____    ______ ____

>  <TORSDO>
F 17

$$$$
=
 OpenBabel10232412243D

 38 41  0  0  1  0  0  0  0  0999 V2000
  193.3820  175.2400  137.7140 O   0  0  0  0  0  0  0  0  0  0  0  0
  192.0370  175.4820  138.0570 C   0  0  0  0  0  2  0  0  0  0  0  0
  188.4990  175.5240  138.1920 C   0  0  0  0  0  1  0  0  0  0  0  0
  193.5570  175.6280  136.3640 C   0  0  1  0  0  3  0  0  0  0  0  0
  191.8950  176.0790  134.7240 O   0  0  0  0  0  1  0  0  0  0  0  0
  192.4260  176.5440  135.9280 C   0  0  1  0  0  3  0  0  0  0  0  0
  188.2780  177.8850  137.1690 C   0  0  2  0  0  3  0  0  0  0  0  0
  189.4250  177.8480  136.2150 C   0  0  0  0  0  2  0  0  0  0  0  0
  190.2590  176.9150  137.0780 C   0  0  0  0  0  0  0  0  0  0  0  0
  189.0810  176.9430  138.0390 C   0  0  2  0  0  0  0  0  0  0  0  0
  191.4670  176.3470  137.0110 C   0  0  0  0  0  0  0  0  0  0  0  0
  189.4840  177.6550  139.3500 C   0  0  2  0  0  3  0  0  0  0  0  0
  189.9450  176.7040  140.4460 C   0  0  2  0  0  3  0  0  0  0  0  0
  189.9670  178.0430  142.2690 C   0  0  1  0  0  3  0  0  0  0  0  0
  188.5540  177.3100  140.5030 C   0  0  1  0  0  3  0  0  0  0  0  0
  190.7940  177.3840  141.3420 O   0  0  0  0  0  0  0  0  0  0  0  0
  188.6510  178.3370  141.5920 C   0  0  0  0  0  2  0  0  0  0  0  0
  189.7550  177.2220  143.3810 O   0  0  0  0  0  0  0  0  0  0  0  0
  189.3570  178.0920  144.3980 C   0  0  0  0  0  2  0  0  0  0  0  0
  189.6570  177.4750  145.7580 C   0  0  0  0  0  2  0  0  0  0  0  0
  191.9250  177.0760  146.2880 O   0  0  0  0  0  0  0  0  0  0  0  0
  190.9220  176.6780  145.7160 C   0  0  0  0  0  3  0  0  0  0  0  0
  194.8350  176.3080  136.2110 N   0  0  0  0  0  2  0  0  0  0  0  0
  195.8360  175.2960  135.9140 C   0  0  0  0  0  2  0  0  0  0  0  0
  196.7540  175.1690  137.0340 N   0  0  0  0  0  2  0  0  0  0  0  0
  195.9950  172.8770  137.3180 C   0  0  0  0  0  1  0  0  0  0  0  0
  197.1870  173.7820  137.0750 C   0  0  0  0  0  2  0  0  0  0  0  0
  187.0400  177.2840  136.5060 C   0  0  0  0  0  2  0  0  0  0  0  0
  184.6640  177.2400  136.7500 O   0  0  0  0  0  1  0  0  0  0  0  0
  185.8590  177.3100  137.4650 C   0  0  2  0  0  3  0  0  0  0  0  0
  185.8760  178.5960  138.2830 C   0  0  0  0  0  2  0  0  0  0  0  0
  184.4810  180.2300  139.3680 O   0  0  0  0  0  1  0  0  0  0  0  0
  184.5270  178.9020  138.9410 C   0  0  2  0  0  3  0  0  0  0  0  0
  184.2250  177.9710  140.1100 C   0  0  0  0  0  2  0  0  0  0  0  0
  184.5660  178.6260  141.4400 C   0  0  0  0  0  2  0  0  0  0  0  0
  185.3060  177.7480  142.2330 O   0  0  0  0  0  0  0  0  0  0  0  0
  185.2890  178.3220  143.5020 C   0  0  0  0  0  2  0  0  0  0  0  0
  184.6300  179.6830  143.4310 C   0  0  0  0  0  1  0  0  0  0  0  0
  1  2  1  0  0  0  0
  4 23  1  1  0  0  0
  4  1  1  0  0  0  0
  6  5  1  6  0  0  0
  6  4  1  0  0  0  0
  6 11  1  0  0  0  0
  7 28  1  6  0  0  0
  7 10  1  0  0  0  0
  8  9  1  0  0  0  0
  8  7  1  0  0  0  0
  9 10  1  0  0  0  0
 10  3  1  1  0  0  0
 11  9  2  0  0  0  0
 11  2  1  0  0  0  0
 12 10  1  6  0  0  0
 12 13  1  0  0  0  0
 12 15  1  0  0  0  0
 13 15  1  0  0  0  0
 13 16  1  1  0  0  0
 14 18  1  1  0  0  0
 15 17  1  1  0  0  0
 16 14  1  0  0  0  0
 17 14  1  0  0  0  0
 18 19  1  0  0  0  0
 19 20  1  0  0  0  0
 22 20  1  0  0  0  0
 22 21  2  0  0  0  0
 24 23  1  0  0  0  0
 24 25  1  0  0  0  0
 25 27  1  0  0  0  0
 27 26  1  0  0  0  0
 28 30  1  0  0  0  0
 30 29  1  6  0  0  0
 30 31  1  0  0  0  0
 31 33  1  0  0  0  0
 33 32  1  1  0  0  0
 33 34  1  0  0  0  0
 34 35  1  0  0  0  0
 35 36  1  0  0  0  0
 36 37  1  0  0  0  0
 38 37  1  0  0  0  0
M  END
>  <MODEL>
8

>  <REMARK>
 VINA RESULT:      -5.4      3.034      5.514
  Name = 
  17 active torsions:
  status: ('A' for Active; 'I' for Inactive)
    1  A    between atoms: C_3  and  C_5
    2  A    between atoms: C_3  and  C_30
    3  A    between atoms: C_4  and  N_31
    4  A    between atoms: C_4  and  N_33
    5  A    between atoms: C_5  and  O_11
    6  A    between atoms: C_6  and  C_20
    7  A    between atoms: C_6  and  C_24
    8  A    between atoms: C_9  and  C_37
    9  A    between atoms: C_10  and  C_35
   10  A    between atoms: O_11  and  C_15
   11  A    between atoms: C_16  and  O_26
   12  A    between atoms: C_16  and  C_35
   13  A    between atoms: C_17  and  N_33
   14  A    between atoms: C_23  and  O_26
   15  A    between atoms: C_24  and  C_34
   16  A    between atoms: C_28  and  N_31
   17  A    between atoms: C_30  and  C_34
                            x       y       z     vdW  Elec       q    Type
                         _______ _______ _______ _____ _____    ______ ____

>  <TORSDO>
F 17

$$$$
=
 OpenBabel10232412243D

 38 41  0  0  1  0  0  0  0  0999 V2000
  182.6700  177.8940  140.3290 O   0  0  0  0  0  0  0  0  0  0  0  0
  183.6820  177.6720  141.2830 C   0  0  0  0  0  2  0  0  0  0  0  0
  185.5370  176.6630  144.1250 C   0  0  0  0  0  1  0  0  0  0  0  0
  181.5990  178.5480  140.9830 C   0  0  1  0  0  3  0  0  0  0  0  0
  181.2090  178.7790  143.3180 O   0  0  0  0  0  1  0  0  0  0  0  0
  182.0740  179.1590  142.2910 C   0  0  1  0  0  3  0  0  0  0  0  0
  185.5270  179.0000  145.2240 C   0  0  2  0  0  3  0  0  0  0  0  0
  184.1730  179.4650  144.7980 C   0  0  0  0  0  2  0  0  0  0  0  0
  184.1880  178.6770  143.4980 C   0  0  0  0  0  0  0  0  0  0  0  0
  185.5580  178.1930  143.9450 C   0  0  2  0  0  0  0  0  0  0  0  0
  183.3690  178.5050  142.4550 C   0  0  0  0  0  0  0  0  0  0  0  0
  186.6490  178.7490  143.0010 C   0  0  2  0  0  3  0  0  0  0  0  0
  186.7130  178.0400  141.6550 C   0  0  2  0  0  3  0  0  0  0  0  0
  188.6710  178.7890  140.8070 C   0  0  1  0  0  3  0  0  0  0  0  0
  187.7450  177.7320  142.7250 C   0  0  1  0  0  3  0  0  0  0  0  0
  187.2750  178.8990  140.6890 O   0  0  0  0  0  0  0  0  0  0  0  0
  188.9890  178.4090  142.2330 C   0  0  0  0  0  2  0  0  0  0  0  0
  189.1440  177.8020  139.9360 O   0  0  0  0  0  0  0  0  0  0  0  0
  188.9860  178.3460  138.6590 C   0  0  0  0  0  2  0  0  0  0  0  0
  188.2760  177.3490  137.7540 C   0  0  0  0  0  2  0  0  0  0  0  0
  186.4090  178.7860  137.5730 O   0  0  0  0  0  0  0  0  0  0  0  0
  187.1590  178.0060  137.0070 C   0  0  0  0  0  3  0  0  0  0  0  0
  181.0550  179.5840  140.1190 N   0  0  0  0  0  2  0  0  0  0  0  0
  181.3490  179.2080  138.7450 C   0  0  0  0  0  2  0  0  0  0  0  0
  180.9640  180.2850  137.8480 N   0  0  0  0  0  2  0  0  0  0  0  0
  181.0950  182.6930  137.5410 C   0  0  0  0  0  1  0  0  0  0  0  0
  181.3800  181.5290  138.4710 C   0  0  0  0  0  2  0  0  0  0  0  0
  185.4080  178.1930  146.5150 C   0  0  0  0  0  2  0  0  0  0  0  0
  186.3590  179.9830  147.7820 O   0  0  0  0  0  1  0  0  0  0  0  0
  186.4790  178.6200  147.5080 C   0  0  2  0  0  3  0  0  0  0  0  0
  187.8640  178.3470  146.9350 C   0  0  0  0  0  2  0  0  0  0  0  0
  189.3650  178.3990  148.8160 O   0  0  0  0  0  1  0  0  0  0  0  0
  188.7580  177.5500  147.8890 C   0  0  2  0  0  3  0  0  0  0  0  0
  189.8200  176.7400  147.1540 C   0  0  0  0  0  2  0  0  0  0  0  0
  190.0530  177.2800  145.7510 C   0  0  0  0  0  2  0  0  0  0  0  0
  191.3890  177.6480  145.5920 O   0  0  0  0  0  0  0  0  0  0  0  0
  191.6260  177.5260  144.2240 C   0  0  0  0  0  2  0  0  0  0  0  0
  191.3280  176.1080  143.7850 C   0  0  0  0  0  1  0  0  0  0  0  0
  1  4  1  0  0  0  0
  1  2  1  0  0  0  0
  2 11  1  0  0  0  0
  4 23  1  6  0  0  0
  4  6  1  0  0  0  0
  6 11  1  0  0  0  0
  6  5  1  1  0  0  0
  7 28  1  1  0  0  0
  8  7  1  0  0  0  0
  9 10  1  0  0  0  0
  9  8  1  0  0  0  0
 10  3  1  1  0  0  0
 10  7  1  0  0  0  0
 11  9  2  0  0  0  0
 12 10  1  1  0  0  0
 13 16  1  6  0  0  0
 13 15  1  0  0  0  0
 13 12  1  0  0  0  0
 14 18  1  6  0  0  0
 14 17  1  0  0  0  0
 15 17  1  6  0  0  0
 15 12  1  0  0  0  0
 16 14  1  0  0  0  0
 19 18  1  0  0  0  0
 20 19  1  0  0  0  0
 22 21  2  0  0  0  0
 22 20  1  0  0  0  0
 24 23  1  0  0  0  0
 25 27  1  0  0  0  0
 25 24  1  0  0  0  0
 26 27  1  0  0  0  0
 28 30  1  0  0  0  0
 30 29  1  6  0  0  0
 31 30  1  0  0  0  0
 31 33  1  0  0  0  0
 33 32  1  1  0  0  0
 34 33  1  0  0  0  0
 35 34  1  0  0  0  0
 36 35  1  0  0  0  0
 37 36  1  0  0  0  0
 38 37  1  0  0  0  0
M  END
>  <MODEL>
9

>  <REMARK>
 VINA RESULT:      -5.3      3.099      7.992
  Name = 
  17 active torsions:
  status: ('A' for Active; 'I' for Inactive)
    1  A    between atoms: C_3  and  C_5
    2  A    between atoms: C_3  and  C_30
    3  A    between atoms: C_4  and  N_31
    4  A    between atoms: C_4  and  N_33
    5  A    between atoms: C_5  and  O_11
    6  A    between atoms: C_6  and  C_20
    7  A    between atoms: C_6  and  C_24
    8  A    between atoms: C_9  and  C_37
    9  A    between atoms: C_10  and  C_35
   10  A    between atoms: O_11  and  C_15
   11  A    between atoms: C_16  and  O_26
   12  A    between atoms: C_16  and  C_35
   13  A    between atoms: C_17  and  N_33
   14  A    between atoms: C_23  and  O_26
   15  A    between atoms: C_24  and  C_34
   16  A    between atoms: C_28  and  N_31
   17  A    between atoms: C_30  and  C_34
                            x       y       z     vdW  Elec       q    Type
                         _______ _______ _______ _____ _____    ______ ____

>  <TORSDO>
F 17

$$$$
