=
 OpenBabel10232409443D

 25 27  0  0  0  0  0  0  0  0999 V2000
  191.5030  177.6280  145.2480 C   0  0  0  0  0  3  0  0  0  0  0  0
  190.1830  177.2510  145.4870 C   0  0  0  0  0  0  0  0  0  0  0  0
  189.2270  177.4280  144.4740 C   0  0  0  0  0  0  0  0  0  0  0  0
  190.9410  178.3450  143.0860 N   0  0  0  0  0  0  0  0  0  0  0  0
  189.6390  177.9930  143.2510 C   0  0  0  0  0  0  0  0  0  0  0  0
  191.8460  178.1650  144.0500 N   0  0  0  0  0  0  0  0  0  0  0  0
  189.8250  176.6700  146.8160 C   0  0  0  0  0  2  0  0  0  0  0  0
  189.6640  177.6920  147.7530 O   0  0  0  0  0  1  0  0  0  0  0  0
  187.7940  177.0250  144.6980 C   0  0  0  0  0  2  0  0  0  0  0  0
  187.0180  178.0940  145.4640 C   0  0  0  0  0  2  0  0  0  0  0  0
  184.6110  178.7700  145.6380 C   0  0  0  0  0  3  0  0  0  0  0  0
  183.1790  178.8030  143.6830 C   0  0  0  0  0  0  0  0  0  0  0  0
  183.3590  178.9980  145.0570 C   0  0  0  0  0  3  0  0  0  0  0  0
  185.6860  178.3550  144.8440 C   0  0  0  0  0  0  0  0  0  0  0  0
  185.5070  178.1660  143.4690 C   0  0  0  0  0  3  0  0  0  0  0  0
  184.2550  178.3930  142.8890 C   0  0  0  0  0  3  0  0  0  0  0  0
  180.8390  178.7060  143.9490 O   0  0  0  0  0  1  0  0  0  0  0  0
  181.8530  179.0650  143.0620 C   0  0  0  0  0  2  0  0  0  0  0  0
  188.6730  178.2530  142.1390 C   0  0  0  0  0  2  0  0  0  0  0  0
  190.2960  176.8730  138.4440 C   0  0  0  0  0  3  0  0  0  0  0  0
  190.0620  176.6530  140.7980 C   0  0  0  0  0  3  0  0  0  0  0  0
  189.4660  177.9970  138.4450 C   0  0  0  0  0  3  0  0  0  0  0  0
  188.9290  178.4470  139.6520 C   0  0  0  0  0  3  0  0  0  0  0  0
  190.5750  176.2300  139.6100 N   0  0  0  0  0  0  0  0  0  0  0  0
  189.2230  177.7710  140.8390 C   0  0  0  0  0  0  0  0  0  0  0  0
  1  2  1  0  0  0  0
  2  7  1  0  0  0  0
  3  9  1  0  0  0  0
  3  2  2  0  0  0  0
  4  5  2  0  0  0  0
  4  6  1  0  0  0  0
  5  3  1  0  0  0  0
  6  1  2  0  0  0  0
  7  8  1  0  0  0  0
  9 10  1  0  0  0  0
 12 13  2  0  0  0  0
 13 11  1  0  0  0  0
 14 10  1  0  0  0  0
 14 11  2  0  0  0  0
 15 14  1  0  0  0  0
 16 15  2  0  0  0  0
 16 12  1  0  0  0  0
 18 12  1  0  0  0  0
 18 17  1  0  0  0  0
 19  5  1  0  0  0  0
 20 22  2  0  0  0  0
 20 24  1  0  0  0  0
 21 25  1  0  0  0  0
 22 23  1  0  0  0  0
 23 25  2  0  0  0  0
 24 21  2  0  0  0  0
 25 19  1  0  0  0  0
M  END
>  <MODEL>
1

>  <REMARK>
 VINA RESULT:      -8.5      0.000      0.000
  Name = 
  7 active torsions:
  status: ('A' for Active; 'I' for Inactive)
    1  A    between atoms: C_6  and  C_22
    2  A    between atoms: C_8  and  C_18
    3  A    between atoms: C_9  and  C_13
    4  A    between atoms: C_9  and  C_17
    5  A    between atoms: C_11  and  C_16
    6  A    between atoms: C_11  and  C_21
    7  A    between atoms: C_15  and  C_17
                            x       y       z     vdW  Elec       q    Type
                         _______ _______ _______ _____ _____    ______ ____

>  <TORSDO>
F 7

$$$$
=
 OpenBabel10232409443D

 25 27  0  0  0  0  0  0  0  0999 V2000
  190.0720  177.6750  146.8410 C   0  0  0  0  0  3  0  0  0  0  0  0
  188.6840  177.7920  146.8950 C   0  0  0  0  0  0  0  0  0  0  0  0
  187.9220  177.3910  145.7850 C   0  0  0  0  0  0  0  0  0  0  0  0
  189.9500  176.8110  144.6640 N   0  0  0  0  0  0  0  0  0  0  0  0
  188.5930  176.8930  144.6520 C   0  0  0  0  0  0  0  0  0  0  0  0
  190.6670  177.1850  145.7240 N   0  0  0  0  0  0  0  0  0  0  0  0
  188.0500  178.3420  148.1300 C   0  0  0  0  0  2  0  0  0  0  0  0
  187.7950  177.3110  149.0340 O   0  0  0  0  0  1  0  0  0  0  0  0
  186.4200  177.4990  145.8120 C   0  0  0  0  0  2  0  0  0  0  0  0
  185.9460  178.9030  145.4460 C   0  0  0  0  0  2  0  0  0  0  0  0
  183.4830  178.9290  144.9880 C   0  0  0  0  0  3  0  0  0  0  0  0
  182.6310  178.7470  142.7260 C   0  0  0  0  0  0  0  0  0  0  0  0
  182.4030  178.8750  144.1010 C   0  0  0  0  0  3  0  0  0  0  0  0
  184.7930  178.8640  144.5010 C   0  0  0  0  0  0  0  0  0  0  0  0
  185.0210  178.7420  143.1250 C   0  0  0  0  0  3  0  0  0  0  0  0
  183.9410  178.6870  142.2390 C   0  0  0  0  0  3  0  0  0  0  0  0
  180.6040  179.7530  142.0680 O   0  0  0  0  0  1  0  0  0  0  0  0
  181.4830  178.7100  141.7820 C   0  0  0  0  0  2  0  0  0  0  0  0
  187.8550  176.4850  143.4160 C   0  0  0  0  0  2  0  0  0  0  0  0
  189.9780  177.7850  139.9530 C   0  0  0  0  0  3  0  0  0  0  0  0
  189.7970  176.3480  141.8350 C   0  0  0  0  0  3  0  0  0  0  0  0
  188.7700  178.4040  140.2820 C   0  0  0  0  0  3  0  0  0  0  0  0
  188.0700  177.9770  141.4110 C   0  0  0  0  0  3  0  0  0  0  0  0
  190.4630  176.7780  140.7290 N   0  0  0  0  0  0  0  0  0  0  0  0
  188.5810  176.9380  142.1940 C   0  0  0  0  0  0  0  0  0  0  0  0
  1  2  1  0  0  0  0
  2  7  1  0  0  0  0
  3  9  1  0  0  0  0
  3  2  2  0  0  0  0
  4  6  1  0  0  0  0
  5  4  2  0  0  0  0
  5  3  1  0  0  0  0
  6  1  2  0  0  0  0
  7  8  1  0  0  0  0
 10  9  1  0  0  0  0
 12 13  1  0  0  0  0
 13 11  2  0  0  0  0
 14 11  1  0  0  0  0
 14 10  1  0  0  0  0
 15 14  2  0  0  0  0
 16 12  2  0  0  0  0
 16 15  1  0  0  0  0
 18 17  1  0  0  0  0
 18 12  1  0  0  0  0
 19  5  1  0  0  0  0
 20 22  2  0  0  0  0
 20 24  1  0  0  0  0
 21 25  1  0  0  0  0
 22 23  1  0  0  0  0
 23 25  2  0  0  0  0
 24 21  2  0  0  0  0
 25 19  1  0  0  0  0
M  END
>  <MODEL>
2

>  <REMARK>
 VINA RESULT:      -8.4      1.429      1.813
  Name = 
  7 active torsions:
  status: ('A' for Active; 'I' for Inactive)
    1  A    between atoms: C_6  and  C_22
    2  A    between atoms: C_8  and  C_18
    3  A    between atoms: C_9  and  C_13
    4  A    between atoms: C_9  and  C_17
    5  A    between atoms: C_11  and  C_16
    6  A    between atoms: C_11  and  C_21
    7  A    between atoms: C_15  and  C_17
                            x       y       z     vdW  Elec       q    Type
                         _______ _______ _______ _____ _____    ______ ____

>  <TORSDO>
F 7

$$$$
=
 OpenBabel10232409443D

 25 27  0  0  0  0  0  0  0  0999 V2000
  190.8010  176.4930  147.3300 C   0  0  0  0  0  3  0  0  0  0  0  0
  189.5250  176.9740  147.0420 C   0  0  0  0  0  0  0  0  0  0  0  0
  189.3410  177.7950  145.9180 C   0  0  0  0  0  0  0  0  0  0  0  0
  191.6800  177.6120  145.4640 N   0  0  0  0  0  0  0  0  0  0  0  0
  190.4620  178.1100  145.1250 C   0  0  0  0  0  0  0  0  0  0  0  0
  191.8450  176.8260  146.5290 N   0  0  0  0  0  0  0  0  0  0  0  0
  188.3910  176.6040  147.9420 C   0  0  0  0  0  2  0  0  0  0  0  0
  188.1730  177.6200  148.8730 O   0  0  0  0  0  1  0  0  0  0  0  0
  187.9750  178.3270  145.5770 C   0  0  0  0  0  2  0  0  0  0  0  0
  187.2110  177.3790  144.6560 C   0  0  0  0  0  2  0  0  0  0  0  0
  185.0260  178.4050  145.3310 C   0  0  0  0  0  3  0  0  0  0  0  0
  183.3070  178.8720  143.6880 C   0  0  0  0  0  0  0  0  0  0  0  0
  183.7530  178.8890  145.0150 C   0  0  0  0  0  3  0  0  0  0  0  0
  185.8590  177.9120  144.3200 C   0  0  0  0  0  0  0  0  0  0  0  0
  185.4140  177.9010  142.9930 C   0  0  0  0  0  3  0  0  0  0  0  0
  184.1410  178.3840  142.6780 C   0  0  0  0  0  3  0  0  0  0  0  0
  180.9890  178.7380  144.0940 O   0  0  0  0  0  1  0  0  0  0  0  0
  181.9600  179.4050  143.3500 C   0  0  0  0  0  2  0  0  0  0  0  0
  190.3560  179.0110  143.9350 C   0  0  0  0  0  2  0  0  0  0  0  0
  190.2700  176.7130  140.3440 C   0  0  0  0  0  3  0  0  0  0  0  0
  189.1360  177.9750  142.0060 C   0  0  0  0  0  3  0  0  0  0  0  0
  191.4930  176.9300  140.9830 C   0  0  0  0  0  3  0  0  0  0  0  0
  191.5250  177.6870  142.1560 C   0  0  0  0  0  3  0  0  0  0  0  0
  189.1260  177.2350  140.8630 N   0  0  0  0  0  0  0  0  0  0  0  0
  190.3400  178.2190  142.6720 C   0  0  0  0  0  0  0  0  0  0  0  0
  2  1  1  0  0  0  0
  2  7  1  0  0  0  0
  3  2  2  0  0  0  0
  4  6  1  0  0  0  0
  5  4  2  0  0  0  0
  5  3  1  0  0  0  0
  6  1  2  0  0  0  0
  7  8  1  0  0  0  0
  9  3  1  0  0  0  0
 10  9  1  0  0  0  0
 12 13  2  0  0  0  0
 13 11  1  0  0  0  0
 14 10  1  0  0  0  0
 14 11  2  0  0  0  0
 15 14  1  0  0  0  0
 16 15  2  0  0  0  0
 16 12  1  0  0  0  0
 18 12  1  0  0  0  0
 18 17  1  0  0  0  0
 19  5  1  0  0  0  0
 20 24  2  0  0  0  0
 20 22  1  0  0  0  0
 21 25  2  0  0  0  0
 22 23  2  0  0  0  0
 23 25  1  0  0  0  0
 24 21  1  0  0  0  0
 25 19  1  0  0  0  0
M  END
>  <MODEL>
3

>  <REMARK>
 VINA RESULT:      -8.4      1.309      1.913
  Name = 
  7 active torsions:
  status: ('A' for Active; 'I' for Inactive)
    1  A    between atoms: C_6  and  C_22
    2  A    between atoms: C_8  and  C_18
    3  A    between atoms: C_9  and  C_13
    4  A    between atoms: C_9  and  C_17
    5  A    between atoms: C_11  and  C_16
    6  A    between atoms: C_11  and  C_21
    7  A    between atoms: C_15  and  C_17
                            x       y       z     vdW  Elec       q    Type
                         _______ _______ _______ _____ _____    ______ ____

>  <TORSDO>
F 7

$$$$
=
 OpenBabel10232409443D

 25 27  0  0  0  0  0  0  0  0999 V2000
  189.4450  177.5570  147.7140 C   0  0  0  0  0  3  0  0  0  0  0  0
  190.0660  177.1750  146.5270 C   0  0  0  0  0  0  0  0  0  0  0  0
  189.2860  177.0110  145.3700 C   0  0  0  0  0  0  0  0  0  0  0  0
  187.3550  177.5970  146.6490 N   0  0  0  0  0  0  0  0  0  0  0  0
  187.8980  177.2320  145.4580 C   0  0  0  0  0  0  0  0  0  0  0  0
  188.1030  177.7590  147.7410 N   0  0  0  0  0  0  0  0  0  0  0  0
  191.5420  176.9480  146.5210 C   0  0  0  0  0  2  0  0  0  0  0  0
  192.0140  176.8560  147.8300 O   0  0  0  0  0  1  0  0  0  0  0  0
  189.9270  176.6040  144.0700 C   0  0  0  0  0  2  0  0  0  0  0  0
  190.3420  177.8150  143.2390 C   0  0  0  0  0  2  0  0  0  0  0  0
  190.4500  177.0780  140.8460 C   0  0  0  0  0  3  0  0  0  0  0  0
  188.7120  177.6910  139.2720 C   0  0  0  0  0  0  0  0  0  0  0  0
  189.9200  177.0400  139.5530 C   0  0  0  0  0  3  0  0  0  0  0  0
  189.7700  177.7590  141.8620 C   0  0  0  0  0  0  0  0  0  0  0  0
  188.5600  178.4040  141.5820 C   0  0  0  0  0  3  0  0  0  0  0  0
  188.0310  178.3670  140.2890 C   0  0  0  0  0  3  0  0  0  0  0  0
  187.7800  178.9150  137.4860 O   0  0  0  0  0  1  0  0  0  0  0  0
  188.1390  177.6330  137.9010 C   0  0  0  0  0  2  0  0  0  0  0  0
  186.9940  177.0370  144.2810 C   0  0  0  0  0  2  0  0  0  0  0  0
  183.5290  179.5000  144.6230 C   0  0  0  0  0  3  0  0  0  0  0  0
  185.2440  178.2100  145.6410 C   0  0  0  0  0  3  0  0  0  0  0  0
  184.0420  179.2200  143.3540 C   0  0  0  0  0  3  0  0  0  0  0  0
  185.1790  178.4190  143.2400 C   0  0  0  0  0  3  0  0  0  0  0  0
  184.1360  178.9940  145.7310 N   0  0  0  0  0  0  0  0  0  0  0  0
  185.7910  177.9120  144.3890 C   0  0  0  0  0  0  0  0  0  0  0  0
  1  6  1  0  0  0  0
  2  1  2  0  0  0  0
  3  5  2  0  0  0  0
  3  2  1  0  0  0  0
  4  6  2  0  0  0  0
  5  4  1  0  0  0  0
  7  2  1  0  0  0  0
  7  8  1  0  0  0  0
  9  3  1  0  0  0  0
 10  9  1  0  0  0  0
 11 14  1  0  0  0  0
 12 13  1  0  0  0  0
 12 16  2  0  0  0  0
 13 11  2  0  0  0  0
 14 10  1  0  0  0  0
 15 14  2  0  0  0  0
 16 15  1  0  0  0  0
 17 18  1  0  0  0  0
 18 12  1  0  0  0  0
 19 25  1  0  0  0  0
 19  5  1  0  0  0  0
 20 24  1  0  0  0  0
 21 24  2  0  0  0  0
 22 20  2  0  0  0  0
 23 22  1  0  0  0  0
 23 25  2  0  0  0  0
 25 21  1  0  0  0  0
M  END
>  <MODEL>
4

>  <REMARK>
 VINA RESULT:      -7.9      3.050      5.843
  Name = 
  7 active torsions:
  status: ('A' for Active; 'I' for Inactive)
    1  A    between atoms: C_6  and  C_22
    2  A    between atoms: C_8  and  C_18
    3  A    between atoms: C_9  and  C_13
    4  A    between atoms: C_9  and  C_17
    5  A    between atoms: C_11  and  C_16
    6  A    between atoms: C_11  and  C_21
    7  A    between atoms: C_15  and  C_17
                            x       y       z     vdW  Elec       q    Type
                         _______ _______ _______ _____ _____    ______ ____

>  <TORSDO>
F 7

$$$$
=
 OpenBabel10232409443D

 25 27  0  0  0  0  0  0  0  0999 V2000
  184.8040  179.1150  141.9160 C   0  0  0  0  0  3  0  0  0  0  0  0
  185.6090  178.4780  142.8590 C   0  0  0  0  0  0  0  0  0  0  0  0
  186.8880  178.0380  142.4800 C   0  0  0  0  0  0  0  0  0  0  0  0
  186.4700  178.8740  140.2820 N   0  0  0  0  0  0  0  0  0  0  0  0
  187.3060  178.2510  141.1520 C   0  0  0  0  0  0  0  0  0  0  0  0
  185.2600  179.2970  140.6510 N   0  0  0  0  0  0  0  0  0  0  0  0
  185.0850  178.2790  144.2430 C   0  0  0  0  0  2  0  0  0  0  0  0
  183.6980  178.4290  144.2520 O   0  0  0  0  0  1  0  0  0  0  0  0
  187.7840  177.3500  143.4760 C   0  0  0  0  0  2  0  0  0  0  0  0
  188.6410  178.3470  144.2500 C   0  0  0  0  0  2  0  0  0  0  0  0
  190.7740  177.0890  144.6330 C   0  0  0  0  0  3  0  0  0  0  0  0
  191.3910  176.3230  146.8480 C   0  0  0  0  0  0  0  0  0  0  0  0
  191.6690  176.4270  145.4800 C   0  0  0  0  0  3  0  0  0  0  0  0
  189.6060  177.6560  145.1540 C   0  0  0  0  0  0  0  0  0  0  0  0
  189.3320  177.5570  146.5230 C   0  0  0  0  0  3  0  0  0  0  0  0
  190.2260  176.8940  147.3690 C   0  0  0  0  0  3  0  0  0  0  0  0
  192.9540  176.5690  148.5960 O   0  0  0  0  0  1  0  0  0  0  0  0
  192.3530  175.6370  147.7510 C   0  0  0  0  0  2  0  0  0  0  0  0
  188.6370  177.7740  140.6600 C   0  0  0  0  0  2  0  0  0  0  0  0
  188.7740  177.6760  136.3990 C   0  0  0  0  0  3  0  0  0  0  0  0
  188.4280  176.5690  138.4720 C   0  0  0  0  0  3  0  0  0  0  0  0
  189.0310  178.8790  137.0600 C   0  0  0  0  0  3  0  0  0  0  0  0
  188.9810  178.9160  138.4550 C   0  0  0  0  0  3  0  0  0  0  0  0
  188.4800  176.5550  137.1120 N   0  0  0  0  0  0  0  0  0  0  0  0
  188.6730  177.7550  139.1700 C   0  0  0  0  0  0  0  0  0  0  0  0
  1  2  1  0  0  0  0
  2  7  1  0  0  0  0
  3  2  2  0  0  0  0
  3  9  1  0  0  0  0
  4  6  1  0  0  0  0
  4  5  2  0  0  0  0
  5  3  1  0  0  0  0
  6  1  2  0  0  0  0
  7  8  1  0  0  0  0
  9 10  1  0  0  0  0
 10 14  1  0  0  0  0
 11 14  2  0  0  0  0
 11 13  1  0  0  0  0
 12 16  1  0  0  0  0
 12 18  1  0  0  0  0
 13 12  2  0  0  0  0
 14 15  1  0  0  0  0
 15 16  2  0  0  0  0
 18 17  1  0  0  0  0
 19  5  1  0  0  0  0
 20 22  2  0  0  0  0
 20 24  1  0  0  0  0
 21 25  1  0  0  0  0
 22 23  1  0  0  0  0
 23 25  2  0  0  0  0
 24 21  2  0  0  0  0
 25 19  1  0  0  0  0
M  END
>  <MODEL>
5

>  <REMARK>
 VINA RESULT:      -7.9      2.448      6.099
  Name = 
  7 active torsions:
  status: ('A' for Active; 'I' for Inactive)
    1  A    between atoms: C_6  and  C_22
    2  A    between atoms: C_8  and  C_18
    3  A    between atoms: C_9  and  C_13
    4  A    between atoms: C_9  and  C_17
    5  A    between atoms: C_11  and  C_16
    6  A    between atoms: C_11  and  C_21
    7  A    between atoms: C_15  and  C_17
                            x       y       z     vdW  Elec       q    Type
                         _______ _______ _______ _____ _____    ______ ____

>  <TORSDO>
F 7

$$$$
=
 OpenBabel10232409443D

 25 27  0  0  0  0  0  0  0  0999 V2000
  185.4560  178.8030  146.3060 C   0  0  0  0  0  3  0  0  0  0  0  0
  185.1090  178.7830  144.9570 C   0  0  0  0  0  0  0  0  0  0  0  0
  185.8750  178.0120  144.0660 C   0  0  0  0  0  0  0  0  0  0  0  0
  187.2610  177.3610  145.8990 N   0  0  0  0  0  0  0  0  0  0  0  0
  186.9750  177.2930  144.5720 C   0  0  0  0  0  0  0  0  0  0  0  0
  186.5240  178.0880  146.7400 N   0  0  0  0  0  0  0  0  0  0  0  0
  183.9350  179.5840  144.4970 C   0  0  0  0  0  2  0  0  0  0  0  0
  182.7860  178.7930  144.5080 O   0  0  0  0  0  1  0  0  0  0  0  0
  185.5240  177.9650  142.6020 C   0  0  0  0  0  2  0  0  0  0  0  0
  186.1410  179.1300  141.8330 C   0  0  0  0  0  2  0  0  0  0  0  0
  186.1330  178.4460  139.4230 C   0  0  0  0  0  3  0  0  0  0  0  0
  188.1730  177.7490  138.3160 C   0  0  0  0  0  0  0  0  0  0  0  0
  186.7950  177.9930  138.2780 C   0  0  0  0  0  3  0  0  0  0  0  0
  186.8480  178.6640  140.6050 C   0  0  0  0  0  0  0  0  0  0  0  0
  188.2270  178.4260  140.6410 C   0  0  0  0  0  3  0  0  0  0  0  0
  188.8880  177.9720  139.4960 C   0  0  0  0  0  3  0  0  0  0  0  0
  190.2410  177.1460  137.3590 O   0  0  0  0  0  1  0  0  0  0  0  0
  188.8800  177.2860  137.0920 C   0  0  0  0  0  2  0  0  0  0  0  0
  187.8630  176.4840  143.6820 C   0  0  0  0  0  2  0  0  0  0  0  0
  191.8510  177.9950  143.7250 C   0  0  0  0  0  3  0  0  0  0  0  0
  190.3310  176.2130  143.3310 C   0  0  0  0  0  3  0  0  0  0  0  0
  190.8000  178.8380  144.0930 C   0  0  0  0  0  3  0  0  0  0  0  0
  189.4930  178.3480  144.0740 C   0  0  0  0  0  3  0  0  0  0  0  0
  191.5970  176.7100  143.3550 N   0  0  0  0  0  0  0  0  0  0  0  0
  189.2520  177.0270  143.6860 C   0  0  0  0  0  0  0  0  0  0  0  0
  1  6  1  0  0  0  0
  2  1  2  0  0  0  0
  3  5  2  0  0  0  0
  3  2  1  0  0  0  0
  4  6  2  0  0  0  0
  5  4  1  0  0  0  0
  7  8  1  0  0  0  0
  7  2  1  0  0  0  0
  9  3  1  0  0  0  0
 10  9  1  0  0  0  0
 11 14  1  0  0  0  0
 12 16  2  0  0  0  0
 13 12  1  0  0  0  0
 13 11  2  0  0  0  0
 14 15  2  0  0  0  0
 14 10  1  0  0  0  0
 16 15  1  0  0  0  0
 18 17  1  0  0  0  0
 18 12  1  0  0  0  0
 19 25  1  0  0  0  0
 19  5  1  0  0  0  0
 20 22  1  0  0  0  0
 21 24  1  0  0  0  0
 21 25  2  0  0  0  0
 23 22  2  0  0  0  0
 24 20  2  0  0  0  0
 25 23  1  0  0  0  0
M  END
>  <MODEL>
6

>  <REMARK>
 VINA RESULT:      -7.8      2.949      5.822
  Name = 
  7 active torsions:
  status: ('A' for Active; 'I' for Inactive)
    1  A    between atoms: C_6  and  C_22
    2  A    between atoms: C_8  and  C_18
    3  A    between atoms: C_9  and  C_13
    4  A    between atoms: C_9  and  C_17
    5  A    between atoms: C_11  and  C_16
    6  A    between atoms: C_11  and  C_21
    7  A    between atoms: C_15  and  C_17
                            x       y       z     vdW  Elec       q    Type
                         _______ _______ _______ _____ _____    ______ ____

>  <TORSDO>
F 7

$$$$
=
 OpenBabel10232409443D

 25 27  0  0  0  0  0  0  0  0999 V2000
  188.8220  177.3500  138.0780 C   0  0  0  0  0  3  0  0  0  0  0  0
  189.4530  177.2620  139.3170 C   0  0  0  0  0  0  0  0  0  0  0  0
  188.8060  177.7800  140.4520 C   0  0  0  0  0  0  0  0  0  0  0  0
  186.9860  178.4380  139.0530 N   0  0  0  0  0  0  0  0  0  0  0  0
  187.5420  178.3790  140.2910 C   0  0  0  0  0  0  0  0  0  0  0  0
  187.6020  177.9360  137.9810 N   0  0  0  0  0  0  0  0  0  0  0  0
  190.8000  176.6220  139.4010 C   0  0  0  0  0  2  0  0  0  0  0  0
  190.7600  175.3540  138.8220 O   0  0  0  0  0  1  0  0  0  0  0  0
  189.4590  177.6960  141.8060 C   0  0  0  0  0  2  0  0  0  0  0  0
  188.9150  176.5280  142.6260 C   0  0  0  0  0  2  0  0  0  0  0  0
  189.5520  177.1870  144.9580 C   0  0  0  0  0  3  0  0  0  0  0  0
  187.8600  177.7070  146.6150 C   0  0  0  0  0  0  0  0  0  0  0  0
  189.2070  177.5680  146.2590 C   0  0  0  0  0  3  0  0  0  0  0  0
  188.5500  176.9520  144.0090 C   0  0  0  0  0  0  0  0  0  0  0  0
  187.2040  177.0970  144.3640 C   0  0  0  0  0  3  0  0  0  0  0  0
  186.8600  177.4770  145.6640 C   0  0  0  0  0  3  0  0  0  0  0  0
  188.5980  177.9970  148.8350 O   0  0  0  0  0  1  0  0  0  0  0  0
  187.4950  178.1320  147.9920 C   0  0  0  0  0  2  0  0  0  0  0  0
  186.8090  178.9910  141.4430 C   0  0  0  0  0  2  0  0  0  0  0  0
  182.5910  178.7010  140.8800 C   0  0  0  0  0  3  0  0  0  0  0  0
  184.7480  179.2260  140.0340 C   0  0  0  0  0  3  0  0  0  0  0  0
  183.1390  178.3430  142.1150 C   0  0  0  0  0  3  0  0  0  0  0  0
  184.5200  178.4310  142.2990 C   0  0  0  0  0  3  0  0  0  0  0  0
  183.3990  179.1320  139.8740 N   0  0  0  0  0  0  0  0  0  0  0  0
  185.3350  178.8710  141.2530 C   0  0  0  0  0  0  0  0  0  0  0  0
  1  2  1  0  0  0  0
  2  7  1  0  0  0  0
  2  3  2  0  0  0  0
  3  9  1  0  0  0  0
  4  5  2  0  0  0  0
  5  3  1  0  0  0  0
  5 19  1  0  0  0  0
  6  1  2  0  0  0  0
  6  4  1  0  0  0  0
  8  7  1  0  0  0  0
  9 10  1  0  0  0  0
 10 14  1  0  0  0  0
 11 13  1  0  0  0  0
 12 18  1  0  0  0  0
 13 12  2  0  0  0  0
 14 15  1  0  0  0  0
 14 11  2  0  0  0  0
 15 16  2  0  0  0  0
 16 12  1  0  0  0  0
 18 17  1  0  0  0  0
 20 22  1  0  0  0  0
 21 25  2  0  0  0  0
 22 23  2  0  0  0  0
 24 21  1  0  0  0  0
 24 20  2  0  0  0  0
 25 19  1  0  0  0  0
 25 23  1  0  0  0  0
M  END
>  <MODEL>
7

>  <REMARK>
 VINA RESULT:      -7.8      3.029      6.055
  Name = 
  7 active torsions:
  status: ('A' for Active; 'I' for Inactive)
    1  A    between atoms: C_6  and  C_22
    2  A    between atoms: C_8  and  C_18
    3  A    between atoms: C_9  and  C_13
    4  A    between atoms: C_9  and  C_17
    5  A    between atoms: C_11  and  C_16
    6  A    between atoms: C_11  and  C_21
    7  A    between atoms: C_15  and  C_17
                            x       y       z     vdW  Elec       q    Type
                         _______ _______ _______ _____ _____    ______ ____

>  <TORSDO>
F 7

$$$$
=
 OpenBabel10232409443D

 25 27  0  0  0  0  0  0  0  0999 V2000
  187.0610  178.7620  140.4820 C   0  0  0  0  0  3  0  0  0  0  0  0
  188.2490  178.0420  140.5910 C   0  0  0  0  0  0  0  0  0  0  0  0
  188.5110  177.3290  141.7730 C   0  0  0  0  0  0  0  0  0  0  0  0
  186.4240  178.1030  142.6420 N   0  0  0  0  0  0  0  0  0  0  0  0
  187.5600  177.3770  142.8110 C   0  0  0  0  0  0  0  0  0  0  0  0
  186.1790  178.7700  141.5130 N   0  0  0  0  0  0  0  0  0  0  0  0
  189.2110  178.0530  139.4480 C   0  0  0  0  0  2  0  0  0  0  0  0
  188.9900  179.1780  138.6530 O   0  0  0  0  0  1  0  0  0  0  0  0
  189.7830  176.5370  141.9200 C   0  0  0  0  0  2  0  0  0  0  0  0
  190.8970  177.3670  142.5520 C   0  0  0  0  0  2  0  0  0  0  0  0
  191.2210  177.7290  145.0100 C   0  0  0  0  0  3  0  0  0  0  0  0
  191.9590  175.9250  146.4510 C   0  0  0  0  0  0  0  0  0  0  0  0
  191.5710  177.2590  146.2810 C   0  0  0  0  0  3  0  0  0  0  0  0
  191.2520  176.8640  143.9110 C   0  0  0  0  0  0  0  0  0  0  0  0
  191.6340  175.5280  144.0840 C   0  0  0  0  0  3  0  0  0  0  0  0
  191.9840  175.0600  145.3530 C   0  0  0  0  0  3  0  0  0  0  0  0
  193.0200  176.3980  148.5020 O   0  0  0  0  0  1  0  0  0  0  0  0
  192.3110  175.4210  147.8060 C   0  0  0  0  0  2  0  0  0  0  0  0
  187.7840  176.6780  144.1150 C   0  0  0  0  0  2  0  0  0  0  0  0
  186.0260  178.8230  147.3560 C   0  0  0  0  0  3  0  0  0  0  0  0
  187.8430  177.5900  146.4500 C   0  0  0  0  0  3  0  0  0  0  0  0
  185.3140  178.6920  146.1600 C   0  0  0  0  0  3  0  0  0  0  0  0
  185.8900  177.9960  145.0960 C   0  0  0  0  0  3  0  0  0  0  0  0
  187.2650  178.2730  147.4750 N   0  0  0  0  0  0  0  0  0  0  0  0
  187.1660  177.4430  145.2360 C   0  0  0  0  0  0  0  0  0  0  0  0
  1  2  2  0  0  0  0
  1  6  1  0  0  0  0
  2  3  1  0  0  0  0
  3  9  1  0  0  0  0
  3  5  2  0  0  0  0
  4  5  1  0  0  0  0
  5 19  1  0  0  0  0
  6  4  2  0  0  0  0
  7  2  1  0  0  0  0
  8  7  1  0  0  0  0
  9 10  1  0  0  0  0
 10 14  1  0  0  0  0
 11 13  1  0  0  0  0
 12 18  1  0  0  0  0
 13 12  2  0  0  0  0
 14 15  1  0  0  0  0
 14 11  2  0  0  0  0
 15 16  2  0  0  0  0
 16 12  1  0  0  0  0
 18 17  1  0  0  0  0
 19 25  1  0  0  0  0
 20 24  1  0  0  0  0
 21 24  2  0  0  0  0
 22 20  2  0  0  0  0
 23 25  2  0  0  0  0
 23 22  1  0  0  0  0
 25 21  1  0  0  0  0
M  END
>  <MODEL>
8

>  <REMARK>
 VINA RESULT:      -7.8      3.211      7.406
  Name = 
  7 active torsions:
  status: ('A' for Active; 'I' for Inactive)
    1  A    between atoms: C_6  and  C_22
    2  A    between atoms: C_8  and  C_18
    3  A    between atoms: C_9  and  C_13
    4  A    between atoms: C_9  and  C_17
    5  A    between atoms: C_11  and  C_16
    6  A    between atoms: C_11  and  C_21
    7  A    between atoms: C_15  and  C_17
                            x       y       z     vdW  Elec       q    Type
                         _______ _______ _______ _____ _____    ______ ____

>  <TORSDO>
F 7

$$$$
=
 OpenBabel10232409443D

 25 27  0  0  0  0  0  0  0  0999 V2000
  184.9080  179.1570  141.9710 C   0  0  0  0  0  3  0  0  0  0  0  0
  185.7370  178.4890  142.8700 C   0  0  0  0  0  0  0  0  0  0  0  0
  186.9760  178.0010  142.4240 C   0  0  0  0  0  0  0  0  0  0  0  0
  186.4720  178.8530  140.2500 N   0  0  0  0  0  0  0  0  0  0  0  0
  187.3300  178.1980  141.0750 C   0  0  0  0  0  0  0  0  0  0  0  0
  185.3010  179.3210  140.6830 N   0  0  0  0  0  0  0  0  0  0  0  0
  185.2810  178.3100  144.2820 C   0  0  0  0  0  2  0  0  0  0  0  0
  183.9370  178.6650  144.3950 O   0  0  0  0  0  1  0  0  0  0  0  0
  187.8980  177.2790  143.3710 C   0  0  0  0  0  2  0  0  0  0  0  0
  189.0180  178.1870  143.8740 C   0  0  0  0  0  2  0  0  0  0  0  0
  189.2980  177.5040  146.2690 C   0  0  0  0  0  3  0  0  0  0  0  0
  191.2970  176.3550  147.0130 C   0  0  0  0  0  0  0  0  0  0  0  0
  190.0430  176.9100  147.2920 C   0  0  0  0  0  3  0  0  0  0  0  0
  189.8020  177.5380  144.9640 C   0  0  0  0  0  0  0  0  0  0  0  0
  191.0540  176.9770  144.6850 C   0  0  0  0  0  3  0  0  0  0  0  0
  191.7990  176.3840  145.7080 C   0  0  0  0  0  3  0  0  0  0  0  0
  193.4340  175.7020  147.7660 O   0  0  0  0  0  1  0  0  0  0  0  0
  192.0800  175.7050  148.0980 C   0  0  0  0  0  2  0  0  0  0  0  0
  188.6130  177.6720  140.5140 C   0  0  0  0  0  2  0  0  0  0  0  0
  188.6180  178.0410  136.2650 C   0  0  0  0  0  3  0  0  0  0  0  0
  189.1330  178.9280  138.4070 C   0  0  0  0  0  3  0  0  0  0  0  0
  188.0950  176.8840  136.8460 C   0  0  0  0  0  3  0  0  0  0  0  0
  188.0970  176.7580  138.2370 C   0  0  0  0  0  3  0  0  0  0  0  0
  189.1230  179.0310  137.0500 N   0  0  0  0  0  0  0  0  0  0  0  0
  188.6240  177.7830  139.0270 C   0  0  0  0  0  0  0  0  0  0  0  0
  1  2  1  0  0  0  0
  2  7  1  0  0  0  0
  3  2  2  0  0  0  0
  3  9  1  0  0  0  0
  4  6  1  0  0  0  0
  4  5  2  0  0  0  0
  5  3  1  0  0  0  0
  6  1  2  0  0  0  0
  7  8  1  0  0  0  0
  9 10  1  0  0  0  0
 10 14  1  0  0  0  0
 11 13  1  0  0  0  0
 12 13  2  0  0  0  0
 12 18  1  0  0  0  0
 14 11  2  0  0  0  0
 15 14  1  0  0  0  0
 15 16  2  0  0  0  0
 16 12  1  0  0  0  0
 17 18  1  0  0  0  0
 19  5  1  0  0  0  0
 20 22  2  0  0  0  0
 20 24  1  0  0  0  0
 21 25  1  0  0  0  0
 22 23  1  0  0  0  0
 23 25  2  0  0  0  0
 24 21  2  0  0  0  0
 25 19  1  0  0  0  0
M  END
>  <MODEL>
9

>  <REMARK>
 VINA RESULT:      -7.7      2.563      6.102
  Name = 
  7 active torsions:
  status: ('A' for Active; 'I' for Inactive)
    1  A    between atoms: C_6  and  C_22
    2  A    between atoms: C_8  and  C_18
    3  A    between atoms: C_9  and  C_13
    4  A    between atoms: C_9  and  C_17
    5  A    between atoms: C_11  and  C_16
    6  A    between atoms: C_11  and  C_21
    7  A    between atoms: C_15  and  C_17
                            x       y       z     vdW  Elec       q    Type
                         _______ _______ _______ _____ _____    ______ ____

>  <TORSDO>
F 7

$$$$
