=
 OpenBabel10232409553D

 34 39  0  0  1  0  0  0  0  0999 V2000
  192.2020  175.4050  137.1390 C   0  0  0  0  0  0  0  0  0  0  0  0
  188.0350  178.7920  136.7150 C   0  0  0  0  0  2  0  0  0  0  0  0
  189.9670  174.6950  136.1600 N   0  0  0  0  0  2  0  0  0  0  0  0
  191.3950  174.7830  136.0670 C   0  0  0  0  0  0  0  0  0  0  0  0
  193.4940  174.2980  134.8260 C   0  0  0  0  0  2  0  0  0  0  0  0
  193.4950  175.6620  136.9420 C   0  0  0  0  0  3  0  0  0  0  0  0
  186.5550  176.0040  136.3050 C   0  0  0  0  0  0  0  0  0  0  0  0
  187.7150  175.2750  136.9050 C   0  0  2  0  0  3  0  0  0  0  0  0
  189.1300  175.6070  136.8370 N   0  0  2  0  0  0  0  0  0  0  0  0
  186.7130  178.3620  137.2160 C   0  0  0  0  0  2  0  0  0  0  0  0
  186.1640  177.2460  136.4460 N   0  0  0  0  0  0  0  0  0  0  0  0
  191.9980  174.2860  134.9820 C   0  0  0  0  0  3  0  0  0  0  0  0
  189.6500  176.8840  137.2380 C   0  0  2  0  0  3  0  0  0  0  0  0
  185.5950  175.0400  135.9010 N   0  0  0  0  0  0  0  0  0  0  0  0
  194.1180  175.2860  135.7090 N   0  0  0  0  0  0  0  0  0  0  0  0
  191.5710  175.7550  138.4390 C   0  0  0  0  0  2  0  0  0  0  0  0
  195.4980  175.6640  135.4740 C   0  0  0  0  0  1  0  0  0  0  0  0
  190.7050  177.0000  138.3120 C   0  0  2  0  0  3  0  0  0  0  0  0
  186.0370  173.8840  136.2620 C   0  0  0  0  0  3  0  0  0  0  0  0
  188.9480  177.9250  136.9490 C   0  0  0  0  0  2  0  0  0  0  0  0
  187.3600  173.9930  136.8680 C   0  0  0  0  0  2  0  0  0  0  0  0
  190.9880  177.6540  141.0270 S   0  0  0  0  0  0  0  0  0  0  0  0
  190.0990  177.3090  139.6440 C   0  0  0  0  0  0  0  0  0  0  0  0
  188.7680  177.3080  139.8890 N   0  0  0  0  0  0  0  0  0  0  0  0
  188.4870  177.5980  141.1880 C   0  0  0  0  0  3  0  0  0  0  0  0
  189.6120  177.8180  141.9770 C   0  0  0  0  0  0  0  0  0  0  0  0
  191.0250  177.2400  145.3460 N   0  0  0  0  0  0  0  0  0  0  0  0
  189.6200  178.1650  143.4290 C   0  0  1  0  0  3  0  0  0  0  0  0
  189.6210  176.6620  144.4470 S   0  0  0  0  0  0  0  0  0  0  0  0
  190.7830  178.9780  143.7560 N   0  0  0  0  0  2  0  0  0  0  0  0
  191.7350  178.1100  144.4290 C   0  0  0  0  0  2  0  0  0  0  0  0
  191.8860  176.0920  145.5840 C   0  0  0  0  0  2  0  0  0  0  0  0
  191.8730  176.9880  147.8470 N   0  0  0  0  0  1  0  0  0  0  0  0
  191.9300  175.7650  147.0680 C   0  0  0  0  0  2  0  0  0  0  0  0
  1 16  1  0  0  0  0
  2 20  1  0  0  0  0
  2 10  1  0  0  0  0
  4  3  1  0  0  0  0
  4  1  1  0  0  0  0
  5 12  1  0  0  0  0
  5 15  1  0  0  0  0
  6  1  2  0  0  0  0
  7 11  2  0  0  0  0
  7  8  1  0  0  0  0
  8 21  1  6  0  0  0
  9  3  1  6  0  0  0
  9  8  1  0  0  0  0
  9 13  1  0  0  0  0
 11 10  1  0  0  0  0
 12  4  2  0  0  0  0
 13 20  1  1  0  0  0
 13 18  1  0  0  0  0
 14 19  2  0  0  0  0
 14  7  1  0  0  0  0
 15  6  1  0  0  0  0
 17 15  1  0  0  0  0
 18 16  1  0  0  0  0
 18 23  1  1  0  0  0
 19 21  1  0  0  0  0
 22 26  1  0  0  0  0
 23 24  2  0  0  0  0
 23 22  1  0  0  0  0
 24 25  1  0  0  0  0
 25 26  2  0  0  0  0
 27 32  1  0  0  0  0
 28 26  1  6  0  0  0
 28 30  1  0  0  0  0
 28 29  1  0  0  0  0
 29 27  1  0  0  0  0
 30 31  1  0  0  0  0
 31 27  1  0  0  0  0
 32 34  1  0  0  0  0
 34 33  1  0  0  0  0
M  END
>  <MODEL>
1

>  <REMARK>
 VINA RESULT:      -7.4      0.000      0.000
  Name = 
  4 active torsions:
  status: ('A' for Active; 'I' for Inactive)
    1  A    between atoms: N_3  and  C_30
    2  A    between atoms: C_8  and  C_27
    3  A    between atoms: C_14  and  C_31
    4  A    between atoms: C_15  and  C_30
                            x       y       z     vdW  Elec       q    Type
                         _______ _______ _______ _____ _____    ______ ____

>  <TORSDO>
F 4

$$$$
=
 OpenBabel10232409553D

 34 39  0  0  1  0  0  0  0  0999 V2000
  190.8360  177.2120  140.1100 C   0  0  0  0  0  0  0  0  0  0  0  0
  189.4220  173.3420  136.6390 C   0  0  0  0  0  2  0  0  0  0  0  0
  188.9080  177.4880  138.4770 N   0  0  0  0  0  2  0  0  0  0  0  0
  189.4280  177.5510  139.8120 C   0  0  0  0  0  0  0  0  0  0  0  0
  189.0870  178.0650  142.2200 C   0  0  0  0  0  2  0  0  0  0  0  0
  191.2410  177.0780  141.3720 C   0  0  0  0  0  3  0  0  0  0  0  0
  187.8980  175.8340  135.3740 C   0  0  0  0  0  0  0  0  0  0  0  0
  188.7630  176.7810  136.1440 C   0  0  2  0  0  3  0  0  0  0  0  0
  189.3480  176.6080  137.4650 N   0  0  2  0  0  0  0  0  0  0  0  0
  189.2410  173.6930  135.2160 C   0  0  0  0  0  2  0  0  0  0  0  0
  188.1090  174.5950  135.0050 N   0  0  0  0  0  0  0  0  0  0  0  0
  188.6100  177.9290  140.8000 C   0  0  0  0  0  3  0  0  0  0  0  0
  190.1710  175.4840  137.8110 C   0  0  2  0  0  3  0  0  0  0  0  0
  186.9540  176.6010  134.6430 N   0  0  0  0  0  0  0  0  0  0  0  0
  190.3240  177.3160  142.4460 N   0  0  0  0  0  0  0  0  0  0  0  0
  191.8040  177.0100  138.9990 C   0  0  0  0  0  2  0  0  0  0  0  0
  190.7550  177.0660  143.8080 C   0  0  0  0  0  1  0  0  0  0  0  0
  191.5820  175.6690  138.3140 C   0  0  2  0  0  3  0  0  0  0  0  0
  187.2270  177.8440  134.8490 C   0  0  0  0  0  3  0  0  0  0  0  0
  189.8320  174.3350  137.3360 C   0  0  0  0  0  2  0  0  0  0  0  0
  188.3310  177.9900  135.7930 C   0  0  0  0  0  2  0  0  0  0  0  0
  193.9450  174.5380  137.3040 S   0  0  0  0  0  0  0  0  0  0  0  0
  192.5820  175.5160  137.2110 C   0  0  0  0  0  0  0  0  0  0  0  0
  192.5150  176.1760  136.0320 N   0  0  0  0  0  0  0  0  0  0  0  0
  193.5600  175.8730  135.2160 C   0  0  0  0  0  3  0  0  0  0  0  0
  194.4670  174.9720  135.7660 C   0  0  0  0  0  0  0  0  0  0  0  0
  198.0010  173.9270  136.0770 N   0  0  0  0  0  0  0  0  0  0  0  0
  195.7000  174.4450  135.1090 C   0  0  1  0  0  3  0  0  0  0  0  0
  197.1560  175.4040  135.6140 S   0  0  0  0  0  0  0  0  0  0  0  0
  195.8990  173.0410  135.4420 N   0  0  0  0  0  2  0  0  0  0  0  0
  196.9590  172.9850  136.4350 C   0  0  0  0  0  2  0  0  0  0  0  0
  198.7390  174.2170  137.2970 C   0  0  0  0  0  2  0  0  0  0  0  0
  198.3460  175.6500  139.2240 N   0  0  0  0  0  1  0  0  0  0  0  0
  197.7820  174.5820  138.4190 C   0  0  0  0  0  2  0  0  0  0  0  0
  1  6  2  0  0  0  0
  2 20  1  0  0  0  0
  3  4  1  0  0  0  0
  4  1  1  0  0  0  0
  4 12  2  0  0  0  0
  5 15  1  0  0  0  0
  6 15  1  0  0  0  0
  7  8  1  0  0  0  0
  8 21  1  1  0  0  0
  8  9  1  0  0  0  0
  9 13  1  0  0  0  0
  9  3  1  1  0  0  0
 10  2  1  0  0  0  0
 11 10  1  0  0  0  0
 11  7  2  0  0  0  0
 12  5  1  0  0  0  0
 13 20  1  6  0  0  0
 13 18  1  0  0  0  0
 14 19  2  0  0  0  0
 14  7  1  0  0  0  0
 15 17  1  0  0  0  0
 16  1  1  0  0  0  0
 18 23  1  6  0  0  0
 18 16  1  0  0  0  0
 19 21  1  0  0  0  0
 23 22  1  0  0  0  0
 24 23  2  0  0  0  0
 25 26  2  0  0  0  0
 25 24  1  0  0  0  0
 26 22  1  0  0  0  0
 27 31  1  0  0  0  0
 27 32  1  0  0  0  0
 28 30  1  0  0  0  0
 28 29  1  0  0  0  0
 28 26  1  1  0  0  0
 29 27  1  0  0  0  0
 30 31  1  0  0  0  0
 32 34  1  0  0  0  0
 34 33  1  0  0  0  0
M  END
>  <MODEL>
2

>  <REMARK>
 VINA RESULT:      -7.1      2.803      7.162
  Name = 
  4 active torsions:
  status: ('A' for Active; 'I' for Inactive)
    1  A    between atoms: N_3  and  C_30
    2  A    between atoms: C_8  and  C_27
    3  A    between atoms: C_14  and  C_31
    4  A    between atoms: C_15  and  C_30
                            x       y       z     vdW  Elec       q    Type
                         _______ _______ _______ _____ _____    ______ ____

>  <TORSDO>
F 4

$$$$
=
 OpenBabel10232409553D

 34 39  0  0  1  0  0  0  0  0999 V2000
  192.5220  174.6590  136.7890 C   0  0  0  0  0  0  0  0  0  0  0  0
  188.9100  178.6550  136.8800 C   0  0  0  0  0  2  0  0  0  0  0  0
  190.0830  174.3010  136.1730 N   0  0  0  0  0  2  0  0  0  0  0  0
  191.4770  174.1640  135.8680 C   0  0  0  0  0  0  0  0  0  0  0  0
  193.2660  173.3470  134.3460 C   0  0  0  0  0  2  0  0  0  0  0  0
  193.7950  174.7090  136.3960 C   0  0  0  0  0  3  0  0  0  0  0  0
  186.9740  176.1300  136.7790 C   0  0  0  0  0  0  0  0  0  0  0  0
  188.0850  175.2330  137.2230 C   0  0  2  0  0  3  0  0  0  0  0  0
  189.5070  175.3380  136.9370 N   0  0  2  0  0  0  0  0  0  0  0  0
  187.6280  178.4410  137.5840 C   0  0  0  0  0  2  0  0  0  0  0  0
  186.8040  177.4190  136.9380 N   0  0  0  0  0  0  0  0  0  0  0  0
  191.8260  173.5710  134.7210 C   0  0  0  0  0  3  0  0  0  0  0  0
  190.2720  176.5210  137.2180 C   0  0  2  0  0  3  0  0  0  0  0  0
  185.8270  175.3250  136.5500 N   0  0  0  0  0  0  0  0  0  0  0  0
  194.1600  174.2310  135.0960 N   0  0  0  0  0  0  0  0  0  0  0  0
  192.1550  175.1130  138.1570 C   0  0  0  0  0  2  0  0  0  0  0  0
  195.5310  174.3860  134.6490 C   0  0  0  0  0  1  0  0  0  0  0  0
  191.4820  176.4780  138.1200 C   0  0  2  0  0  3  0  0  0  0  0  0
  186.1350  174.1170  136.8780 C   0  0  0  0  0  3  0  0  0  0  0  0
  189.7040  177.6570  137.0030 C   0  0  0  0  0  2  0  0  0  0  0  0
  187.5360  174.0210  137.2780 C   0  0  0  0  0  2  0  0  0  0  0  0
  192.2680  177.3700  140.6640 S   0  0  0  0  0  0  0  0  0  0  0  0
  191.1370  176.8880  139.5170 C   0  0  0  0  0  0  0  0  0  0  0  0
  189.8820  176.8800  140.0210 N   0  0  0  0  0  0  0  0  0  0  0  0
  189.8500  177.2750  141.3220 C   0  0  0  0  0  3  0  0  0  0  0  0
  191.0990  177.5860  141.8520 C   0  0  0  0  0  0  0  0  0  0  0  0
  190.0260  177.7880  145.3850 N   0  0  0  0  0  0  0  0  0  0  0  0
  191.3790  178.0580  143.2410 C   0  0  1  0  0  3  0  0  0  0  0  0
  189.9020  178.8260  143.9660 S   0  0  0  0  0  0  0  0  0  0  0  0
  191.8150  176.9510  144.0800 N   0  0  0  0  0  2  0  0  0  0  0  0
  190.6900  176.5840  144.9230 C   0  0  0  0  0  2  0  0  0  0  0  0
  188.6730  177.4020  145.7560 C   0  0  0  0  0  2  0  0  0  0  0  0
  186.3760  177.3620  144.9530 N   0  0  0  0  0  1  0  0  0  0  0  0
  187.7660  177.4220  144.5380 C   0  0  0  0  0  2  0  0  0  0  0  0
  1 16  1  0  0  0  0
  2 20  1  0  0  0  0
  2 10  1  0  0  0  0
  4  3  1  0  0  0  0
  4  1  1  0  0  0  0
  5 12  1  0  0  0  0
  5 15  1  0  0  0  0
  6  1  2  0  0  0  0
  7 11  2  0  0  0  0
  7  8  1  0  0  0  0
  8 21  1  6  0  0  0
  9  3  1  6  0  0  0
  9 13  1  0  0  0  0
  9  8  1  0  0  0  0
 11 10  1  0  0  0  0
 12  4  2  0  0  0  0
 13 20  1  1  0  0  0
 13 18  1  0  0  0  0
 14  7  1  0  0  0  0
 14 19  2  0  0  0  0
 15  6  1  0  0  0  0
 17 15  1  0  0  0  0
 18 16  1  0  0  0  0
 18 23  1  1  0  0  0
 19 21  1  0  0  0  0
 22 26  1  0  0  0  0
 23 24  2  0  0  0  0
 23 22  1  0  0  0  0
 24 25  1  0  0  0  0
 25 26  2  0  0  0  0
 27 32  1  0  0  0  0
 28 26  1  6  0  0  0
 28 29  1  0  0  0  0
 28 30  1  0  0  0  0
 29 27  1  0  0  0  0
 30 31  1  0  0  0  0
 31 27  1  0  0  0  0
 34 33  1  0  0  0  0
 34 32  1  0  0  0  0
M  END
>  <MODEL>
3

>  <REMARK>
 VINA RESULT:      -6.9      1.424      1.880
  Name = 
  4 active torsions:
  status: ('A' for Active; 'I' for Inactive)
    1  A    between atoms: N_3  and  C_30
    2  A    between atoms: C_8  and  C_27
    3  A    between atoms: C_14  and  C_31
    4  A    between atoms: C_15  and  C_30
                            x       y       z     vdW  Elec       q    Type
                         _______ _______ _______ _____ _____    ______ ____

>  <TORSDO>
F 4

$$$$
=
 OpenBabel10232409553D

 34 39  0  0  1  0  0  0  0  0999 V2000
  181.0720  180.4500  137.4940 C   0  0  0  0  0  0  0  0  0  0  0  0
  184.9420  179.0310  140.9620 C   0  0  0  0  0  2  0  0  0  0  0  0
  180.6970  180.4080  140.0060 N   0  0  0  0  0  2  0  0  0  0  0  0
  180.6250  181.0920  138.7480 C   0  0  0  0  0  0  0  0  0  0  0  0
  179.9880  183.1080  137.4410 C   0  0  0  0  0  2  0  0  0  0  0  0
  181.1900  181.1690  136.3780 C   0  0  0  0  0  3  0  0  0  0  0  0
  182.3800  178.8210  142.8400 C   0  0  0  0  0  0  0  0  0  0  0  0
  181.4810  178.7760  141.6460 C   0  0  2  0  0  3  0  0  0  0  0  0
  181.6500  179.4280  140.3560 N   0  0  2  0  0  0  0  0  0  0  0  0
  184.6340  178.0260  142.0010 C   0  0  0  0  0  2  0  0  0  0  0  0
  183.6460  178.5100  142.9650 N   0  0  0  0  0  0  0  0  0  0  0  0
  180.1380  182.3370  138.7240 C   0  0  0  0  0  3  0  0  0  0  0  0
  182.8270  179.2640  139.5490 C   0  0  2  0  0  3  0  0  0  0  0  0
  181.5650  178.7980  144.0010 N   0  0  0  0  0  0  0  0  0  0  0  0
  180.8310  182.5550  136.3800 N   0  0  0  0  0  0  0  0  0  0  0  0
  181.4010  179.0000  137.4740 C   0  0  0  0  0  2  0  0  0  0  0  0
  181.0620  183.3440  135.1850 C   0  0  0  0  0  1  0  0  0  0  0  0
  182.7440  178.7330  138.1390 C   0  0  2  0  0  3  0  0  0  0  0  0
  180.3430  178.6740  143.6100 C   0  0  0  0  0  3  0  0  0  0  0  0
  183.9600  179.2160  140.1600 C   0  0  0  0  0  2  0  0  0  0  0  0
  180.2540  178.6790  142.1530 C   0  0  0  0  0  2  0  0  0  0  0  0
  183.8270  176.5010  136.8240 S   0  0  0  0  0  0  0  0  0  0  0  0
  183.0270  177.2640  138.0890 C   0  0  0  0  0  0  0  0  0  0  0  0
  182.6380  176.3860  139.0410 N   0  0  0  0  0  0  0  0  0  0  0  0
  183.0010  175.1110  138.7410 C   0  0  0  0  0  3  0  0  0  0  0  0
  183.6760  174.9830  137.5300 C   0  0  0  0  0  0  0  0  0  0  0  0
  186.4750  173.2000  135.8980 N   0  0  0  0  0  0  0  0  0  0  0  0
  184.2070  173.7170  136.9420 C   0  0  1  0  0  3  0  0  0  0  0  0
  185.0250  174.0430  135.3540 S   0  0  0  0  0  0  0  0  0  0  0  0
  185.1470  173.0820  137.8540 N   0  0  0  0  0  2  0  0  0  0  0  0
  186.4810  173.3410  137.3410 C   0  0  0  0  0  2  0  0  0  0  0  0
  187.6200  173.9470  135.4000 C   0  0  0  0  0  2  0  0  0  0  0  0
  188.0540  176.3410  135.3430 N   0  0  0  0  0  1  0  0  0  0  0  0
  187.8250  175.2090  136.2220 C   0  0  0  0  0  2  0  0  0  0  0  0
  1  4  1  0  0  0  0
  2 10  1  0  0  0  0
  4  3  1  0  0  0  0
  5 12  1  0  0  0  0
  6 15  1  0  0  0  0
  6  1  2  0  0  0  0
  7 11  2  0  0  0  0
  7 14  1  0  0  0  0
  8 21  1  1  0  0  0
  8  7  1  0  0  0  0
  9  3  1  1  0  0  0
  9  8  1  0  0  0  0
 10 11  1  0  0  0  0
 12  4  2  0  0  0  0
 13 20  1  1  0  0  0
 13  9  1  0  0  0  0
 15  5  1  0  0  0  0
 16  1  1  0  0  0  0
 16 18  1  0  0  0  0
 17 15  1  0  0  0  0
 18 23  1  1  0  0  0
 18 13  1  0  0  0  0
 19 14  2  0  0  0  0
 20  2  1  0  0  0  0
 21 19  1  0  0  0  0
 22 26  1  0  0  0  0
 22 23  1  0  0  0  0
 23 24  2  0  0  0  0
 25 24  1  0  0  0  0
 26 25  2  0  0  0  0
 27 31  1  0  0  0  0
 28 26  1  1  0  0  0
 28 30  1  0  0  0  0
 29 27  1  0  0  0  0
 29 28  1  0  0  0  0
 31 30  1  0  0  0  0
 32 27  1  0  0  0  0
 32 34  1  0  0  0  0
 33 34  1  0  0  0  0
M  END
>  <MODEL>
4

>  <REMARK>
 VINA RESULT:      -6.3      5.811     10.506
  Name = 
  4 active torsions:
  status: ('A' for Active; 'I' for Inactive)
    1  A    between atoms: N_3  and  C_30
    2  A    between atoms: C_8  and  C_27
    3  A    between atoms: C_14  and  C_31
    4  A    between atoms: C_15  and  C_30
                            x       y       z     vdW  Elec       q    Type
                         _______ _______ _______ _____ _____    ______ ____

>  <TORSDO>
F 4

$$$$
=
 OpenBabel10232409553D

 34 39  0  0  1  0  0  0  0  0999 V2000
  189.4890  177.6300  141.4290 C   0  0  0  0  0  0  0  0  0  0  0  0
  189.3570  178.9550  136.2090 C   0  0  0  0  0  2  0  0  0  0  0  0
  190.6080  176.2160  139.6390 N   0  0  0  0  0  2  0  0  0  0  0  0
  190.6650  176.9140  140.8890 C   0  0  0  0  0  0  0  0  0  0  0  0
  191.9450  177.5770  142.9150 C   0  0  0  0  0  2  0  0  0  0  0  0
  189.6190  178.4380  142.4800 C   0  0  0  0  0  3  0  0  0  0  0  0
  190.2770  175.9140  136.0080 C   0  0  0  0  0  0  0  0  0  0  0  0
  189.8020  175.6550  137.4020 C   0  0  2  0  0  3  0  0  0  0  0  0
  189.7910  176.5610  138.5410 N   0  0  2  0  0  0  0  0  0  0  0  0
  188.9580  177.9290  135.2230 C   0  0  0  0  0  2  0  0  0  0  0  0
  189.9220  176.8310  135.1430 N   0  0  0  0  0  0  0  0  0  0  0  0
  191.8130  176.9070  141.5740 C   0  0  0  0  0  3  0  0  0  0  0  0
  189.1610  177.8510  138.5040 C   0  0  2  0  0  3  0  0  0  0  0  0
  190.8600  174.7170  135.5160 N   0  0  0  0  0  0  0  0  0  0  0  0
  190.8920  178.5730  143.1240 N   0  0  0  0  0  0  0  0  0  0  0  0
  188.1550  177.4570  140.7930 C   0  0  0  0  0  2  0  0  0  0  0  0
  191.0370  179.5320  144.2010 C   0  0  0  0  0  1  0  0  0  0  0  0
  188.0700  178.2210  139.4790 C   0  0  2  0  0  3  0  0  0  0  0  0
  190.7050  173.8140  136.4230 C   0  0  0  0  0  3  0  0  0  0  0  0
  189.2700  178.5300  137.4140 C   0  0  0  0  0  2  0  0  0  0  0  0
  190.0710  174.3690  137.6150 C   0  0  0  0  0  2  0  0  0  0  0  0
  186.3470  176.8290  137.7550 S   0  0  0  0  0  0  0  0  0  0  0  0
  186.7120  178.0170  138.8860 C   0  0  0  0  0  0  0  0  0  0  0  0
  185.6380  178.7890  139.1690 N   0  0  0  0  0  0  0  0  0  0  0  0
  184.5330  178.4020  138.4760 C   0  0  0  0  0  3  0  0  0  0  0  0
  184.7450  177.3180  137.6290 C   0  0  0  0  0  0  0  0  0  0  0  0
  183.3780  174.2100  136.1640 N   0  0  0  0  0  0  0  0  0  0  0  0
  183.7250  176.6660  136.7550 C   0  0  1  0  0  3  0  0  0  0  0  0
  184.5080  175.4610  135.6460 S   0  0  0  0  0  0  0  0  0  0  0  0
  182.7090  176.0010  137.5600 N   0  0  0  0  0  2  0  0  0  0  0  0
  182.9910  174.5770  137.5130 C   0  0  0  0  0  2  0  0  0  0  0  0
  184.1280  172.9680  136.2670 C   0  0  0  0  0  2  0  0  0  0  0  0
  186.2160  172.7890  137.5040 N   0  0  0  0  0  1  0  0  0  0  0  0
  184.7720  172.8520  137.6390 C   0  0  0  0  0  2  0  0  0  0  0  0
  1  6  2  0  0  0  0
  2 20  1  0  0  0  0
  3  4  1  0  0  0  0
  4  1  1  0  0  0  0
  4 12  2  0  0  0  0
  5 15  1  0  0  0  0
  6 15  1  0  0  0  0
  7  8  1  0  0  0  0
  8 21  1  1  0  0  0
  8  9  1  0  0  0  0
  9  3  1  6  0  0  0
 10  2  1  0  0  0  0
 11 10  1  0  0  0  0
 11  7  2  0  0  0  0
 12  5  1  0  0  0  0
 13 20  1  6  0  0  0
 13  9  1  0  0  0  0
 13 18  1  0  0  0  0
 14  7  1  0  0  0  0
 14 19  2  0  0  0  0
 15 17  1  0  0  0  0
 16  1  1  0  0  0  0
 18 23  1  6  0  0  0
 18 16  1  0  0  0  0
 19 21  1  0  0  0  0
 22 23  1  0  0  0  0
 23 24  2  0  0  0  0
 25 24  1  0  0  0  0
 26 22  1  0  0  0  0
 26 25  2  0  0  0  0
 27 32  1  0  0  0  0
 27 31  1  0  0  0  0
 28 30  1  0  0  0  0
 28 26  1  1  0  0  0
 29 27  1  0  0  0  0
 29 28  1  0  0  0  0
 31 30  1  0  0  0  0
 32 34  1  0  0  0  0
 33 34  1  0  0  0  0
M  END
>  <MODEL>
5

>  <REMARK>
 VINA RESULT:      -6.2      2.929      7.193
  Name = 
  4 active torsions:
  status: ('A' for Active; 'I' for Inactive)
    1  A    between atoms: N_3  and  C_30
    2  A    between atoms: C_8  and  C_27
    3  A    between atoms: C_14  and  C_31
    4  A    between atoms: C_15  and  C_30
                            x       y       z     vdW  Elec       q    Type
                         _______ _______ _______ _____ _____    ______ ____

>  <TORSDO>
F 4

$$$$
=
 OpenBabel10232409553D

 34 39  0  0  1  0  0  0  0  0999 V2000
  190.2330  177.1380  139.7960 C   0  0  0  0  0  0  0  0  0  0  0  0
  188.5020  173.3090  136.4240 C   0  0  0  0  0  2  0  0  0  0  0  0
  188.3240  177.5250  138.1640 N   0  0  0  0  0  2  0  0  0  0  0  0
  188.8540  177.5790  139.4950 C   0  0  0  0  0  0  0  0  0  0  0  0
  188.5670  178.1750  141.8920 C   0  0  0  0  0  2  0  0  0  0  0  0
  190.6330  177.0030  141.0600 C   0  0  0  0  0  3  0  0  0  0  0  0
  187.1710  175.8830  135.1050 C   0  0  0  0  0  0  0  0  0  0  0  0
  188.1110  176.7770  135.8490 C   0  0  2  0  0  3  0  0  0  0  0  0
  188.6880  176.5910  137.1710 N   0  0  2  0  0  0  0  0  0  0  0  0
  188.3420  173.6400  134.9930 C   0  0  0  0  0  2  0  0  0  0  0  0
  187.2830  174.6230  134.7650 N   0  0  0  0  0  0  0  0  0  0  0  0
  188.0730  178.0440  140.4760 C   0  0  0  0  0  3  0  0  0  0  0  0
  189.4230  175.4140  137.5420 C   0  0  2  0  0  3  0  0  0  0  0  0
  186.2860  176.7030  134.3590 N   0  0  0  0  0  0  0  0  0  0  0  0
  189.7430  177.3370  142.1300 N   0  0  0  0  0  0  0  0  0  0  0  0
  191.1770  176.8350  138.6870 C   0  0  0  0  0  2  0  0  0  0  0  0
  190.1600  177.0870  143.4970 C   0  0  0  0  0  1  0  0  0  0  0  0
  190.8470  175.5000  138.0350 C   0  0  2  0  0  3  0  0  0  0  0  0
  186.6570  177.9260  134.5340 C   0  0  0  0  0  3  0  0  0  0  0  0
  188.9930  174.2840  137.0960 C   0  0  0  0  0  2  0  0  0  0  0  0
  187.7730  178.0080  135.4700 C   0  0  0  0  0  2  0  0  0  0  0  0
  192.9850  174.0280  136.9660 S   0  0  0  0  0  0  0  0  0  0  0  0
  191.8250  175.2430  136.9330 C   0  0  0  0  0  0  0  0  0  0  0  0
  191.9060  175.9840  135.8040 N   0  0  0  0  0  0  0  0  0  0  0  0
  192.8960  175.5530  134.9780 C   0  0  0  0  0  3  0  0  0  0  0  0
  193.6110  174.4640  135.4690 C   0  0  0  0  0  0  0  0  0  0  0  0
  196.2680  171.8950  135.6020 N   0  0  0  0  0  0  0  0  0  0  0  0
  194.7410  173.7670  134.7860 C   0  0  1  0  0  3  0  0  0  0  0  0
  196.1730  173.6320  135.8930 S   0  0  0  0  0  0  0  0  0  0  0  0
  194.3350  172.4380  134.3480 N   0  0  0  0  0  2  0  0  0  0  0  0
  194.9150  171.4860  135.2800 C   0  0  0  0  0  2  0  0  0  0  0  0
  196.6040  171.2640  136.8690 C   0  0  0  0  0  2  0  0  0  0  0  0
  195.1780  170.8830  138.8040 N   0  0  0  0  0  1  0  0  0  0  0  0
  195.4050  170.5110  137.4190 C   0  0  0  0  0  2  0  0  0  0  0  0
  1  6  2  0  0  0  0
  2 20  1  0  0  0  0
  3  4  1  0  0  0  0
  4  1  1  0  0  0  0
  4 12  2  0  0  0  0
  5 15  1  0  0  0  0
  6 15  1  0  0  0  0
  7  8  1  0  0  0  0
  8 21  1  1  0  0  0
  8  9  1  0  0  0  0
  9 13  1  0  0  0  0
  9  3  1  1  0  0  0
 10  2  1  0  0  0  0
 11 10  1  0  0  0  0
 11  7  2  0  0  0  0
 12  5  1  0  0  0  0
 13 20  1  6  0  0  0
 13 18  1  0  0  0  0
 14 19  2  0  0  0  0
 14  7  1  0  0  0  0
 15 17  1  0  0  0  0
 16  1  1  0  0  0  0
 18 23  1  6  0  0  0
 18 16  1  0  0  0  0
 19 21  1  0  0  0  0
 23 22  1  0  0  0  0
 24 23  2  0  0  0  0
 25 26  2  0  0  0  0
 25 24  1  0  0  0  0
 26 22  1  0  0  0  0
 27 29  1  0  0  0  0
 27 32  1  0  0  0  0
 28 26  1  1  0  0  0
 28 29  1  0  0  0  0
 30 28  1  0  0  0  0
 30 31  1  0  0  0  0
 31 27  1  0  0  0  0
 32 34  1  0  0  0  0
 34 33  1  0  0  0  0
M  END
>  <MODEL>
6

>  <REMARK>
 VINA RESULT:      -6.1      2.870      7.279
  Name = 
  4 active torsions:
  status: ('A' for Active; 'I' for Inactive)
    1  A    between atoms: N_3  and  C_30
    2  A    between atoms: C_8  and  C_27
    3  A    between atoms: C_14  and  C_31
    4  A    between atoms: C_15  and  C_30
                            x       y       z     vdW  Elec       q    Type
                         _______ _______ _______ _____ _____    ______ ____

>  <TORSDO>
F 4

$$$$
=
 OpenBabel10232409553D

 34 39  0  0  1  0  0  0  0  0999 V2000
  192.6390  175.8460  136.7130 C   0  0  0  0  0  0  0  0  0  0  0  0
  187.6110  177.7100  136.1960 C   0  0  0  0  0  2  0  0  0  0  0  0
  190.7140  174.3710  135.9550 N   0  0  0  0  0  2  0  0  0  0  0  0
  192.0390  174.8830  135.7640 C   0  0  0  0  0  0  0  0  0  0  0  0
  194.1510  174.9240  134.4530 C   0  0  0  0  0  2  0  0  0  0  0  0
  193.7810  176.4630  136.4100 C   0  0  0  0  0  3  0  0  0  0  0  0
  187.0680  174.5730  136.1740 C   0  0  0  0  0  0  0  0  0  0  0  0
  188.4130  174.3140  136.7730 C   0  0  2  0  0  3  0  0  0  0  0  0
  189.6510  175.0550  136.5830 N   0  0  2  0  0  0  0  0  0  0  0  0
  186.5040  176.9560  136.8210 C   0  0  0  0  0  2  0  0  0  0  0  0
  186.3120  175.6420  136.2070 N   0  0  0  0  0  0  0  0  0  0  0  0
  192.7380  174.4700  134.7020 C   0  0  0  0  0  3  0  0  0  0  0  0
  189.7560  176.4680  136.8140 C   0  0  2  0  0  3  0  0  0  0  0  0
  186.4480  173.3190  135.9330 N   0  0  0  0  0  0  0  0  0  0  0  0
  194.4580  176.1530  135.1870 N   0  0  0  0  0  0  0  0  0  0  0  0
  191.9650  176.1370  138.0060 C   0  0  0  0  0  2  0  0  0  0  0  0
  195.6440  176.9070  134.8280 C   0  0  0  0  0  1  0  0  0  0  0  0
  190.7490  177.0310  137.8020 C   0  0  2  0  0  3  0  0  0  0  0  0
  187.2390  172.4070  136.3850 C   0  0  0  0  0  3  0  0  0  0  0  0
  188.7560  177.2000  136.4620 C   0  0  0  0  0  2  0  0  0  0  0  0
  188.4770  172.9900  136.8930 C   0  0  0  0  0  2  0  0  0  0  0  0
  190.6710  176.6640  140.5850 S   0  0  0  0  0  0  0  0  0  0  0  0
  190.1120  177.2940  139.1300 C   0  0  0  0  0  0  0  0  0  0  0  0
  188.9960  178.0390  139.3010 N   0  0  0  0  0  0  0  0  0  0  0  0
  188.6150  178.0990  140.6040 C   0  0  0  0  0  3  0  0  0  0  0  0
  189.4360  177.3820  141.4700 C   0  0  0  0  0  0  0  0  0  0  0  0
  187.2260  177.5970  144.4270 N   0  0  0  0  0  0  0  0  0  0  0  0
  189.2790  177.2710  142.9510 C   0  0  1  0  0  3  0  0  0  0  0  0
  188.3430  178.6840  143.6030 S   0  0  0  0  0  0  0  0  0  0  0  0
  188.6020  176.0320  143.3030 N   0  0  0  0  0  2  0  0  0  0  0  0
  187.2320  176.3760  143.6450 C   0  0  0  0  0  2  0  0  0  0  0  0
  185.8940  178.1690  144.2980 C   0  0  0  0  0  2  0  0  0  0  0  0
  184.7490  178.5770  146.4070 N   0  0  0  0  0  1  0  0  0  0  0  0
  185.6360  179.1630  145.4190 C   0  0  0  0  0  2  0  0  0  0  0  0
  1 16  1  0  0  0  0
  2 20  1  0  0  0  0
  2 10  1  0  0  0  0
  4  3  1  0  0  0  0
  4  1  1  0  0  0  0
  5 12  1  0  0  0  0
  5 15  1  0  0  0  0
  6  1  2  0  0  0  0
  7 11  2  0  0  0  0
  7  8  1  0  0  0  0
  8 21  1  6  0  0  0
  9  3  1  6  0  0  0
  9  8  1  0  0  0  0
  9 13  1  0  0  0  0
 11 10  1  0  0  0  0
 12  4  2  0  0  0  0
 13 20  1  1  0  0  0
 13 18  1  0  0  0  0
 14  7  1  0  0  0  0
 14 19  2  0  0  0  0
 15  6  1  0  0  0  0
 17 15  1  0  0  0  0
 18 16  1  0  0  0  0
 18 23  1  1  0  0  0
 19 21  1  0  0  0  0
 22 26  1  0  0  0  0
 23 24  2  0  0  0  0
 23 22  1  0  0  0  0
 24 25  1  0  0  0  0
 25 26  2  0  0  0  0
 28 26  1  6  0  0  0
 28 30  1  0  0  0  0
 28 29  1  0  0  0  0
 29 27  1  0  0  0  0
 30 31  1  0  0  0  0
 31 27  1  0  0  0  0
 32 27  1  0  0  0  0
 32 34  1  0  0  0  0
 34 33  1  0  0  0  0
M  END
>  <MODEL>
7

>  <REMARK>
 VINA RESULT:      -6.1      2.092      2.685
  Name = 
  4 active torsions:
  status: ('A' for Active; 'I' for Inactive)
    1  A    between atoms: N_3  and  C_30
    2  A    between atoms: C_8  and  C_27
    3  A    between atoms: C_14  and  C_31
    4  A    between atoms: C_15  and  C_30
                            x       y       z     vdW  Elec       q    Type
                         _______ _______ _______ _____ _____    ______ ____

>  <TORSDO>
F 4

$$$$
=
 OpenBabel10232409553D

 34 39  0  0  1  0  0  0  0  0999 V2000
  187.5710  171.6900  136.2200 C   0  0  0  0  0  0  0  0  0  0  0  0
  187.7750  176.7470  134.3730 C   0  0  0  0  0  2  0  0  0  0  0  0
  185.5180  173.1850  136.1190 N   0  0  0  0  0  2  0  0  0  0  0  0
  186.1680  171.9410  135.8250 C   0  0  0  0  0  0  0  0  0  0  0  0
  186.0700  169.6470  134.8730 C   0  0  0  0  0  2  0  0  0  0  0  0
  188.2160  170.6190  135.7600 C   0  0  0  0  0  3  0  0  0  0  0  0
  184.9630  176.7910  135.8640 C   0  0  0  0  0  0  0  0  0  0  0  0
  185.3280  175.5640  136.6360 C   0  0  2  0  0  3  0  0  0  0  0  0
  186.1530  174.4410  136.2200 N   0  0  2  0  0  0  0  0  0  0  0  0
  187.1720  177.8260  135.1830 C   0  0  0  0  0  2  0  0  0  0  0  0
  185.7190  177.6930  135.2900 N   0  0  0  0  0  0  0  0  0  0  0  0
  185.4770  170.9950  135.1810 C   0  0  0  0  0  3  0  0  0  0  0  0
  187.4930  174.5990  135.7270 C   0  0  2  0  0  3  0  0  0  0  0  0
  183.6380  177.1550  136.2220 N   0  0  0  0  0  0  0  0  0  0  0  0
  187.5330  169.6790  134.9230 N   0  0  0  0  0  0  0  0  0  0  0  0
  188.2700  172.6390  137.1270 C   0  0  0  0  0  2  0  0  0  0  0  0
  188.2790  168.5750  134.3500 C   0  0  0  0  0  1  0  0  0  0  0  0
  188.6610  173.9140  136.3920 C   0  0  2  0  0  3  0  0  0  0  0  0
  183.2510  176.3370  137.1400 C   0  0  0  0  0  3  0  0  0  0  0  0
  187.7250  175.6110  134.9640 C   0  0  0  0  0  2  0  0  0  0  0  0
  184.2680  175.3240  137.4050 C   0  0  0  0  0  2  0  0  0  0  0  0
  188.6340  176.1420  138.0990 S   0  0  0  0  0  0  0  0  0  0  0  0
  189.3620  174.8280  137.3460 C   0  0  0  0  0  0  0  0  0  0  0  0
  190.6690  174.7190  137.6790 N   0  0  0  0  0  0  0  0  0  0  0  0
  191.0600  175.6900  138.5460 C   0  0  0  0  0  3  0  0  0  0  0  0
  190.0490  176.5830  138.8910 C   0  0  0  0  0  0  0  0  0  0  0  0
  188.9910  178.2170  142.0360 N   0  0  0  0  0  0  0  0  0  0  0  0
  190.1720  177.7410  139.8270 C   0  0  1  0  0  3  0  0  0  0  0  0
  188.5320  178.3290  140.3370 S   0  0  0  0  0  0  0  0  0  0  0  0
  190.9460  177.3700  141.0030 N   0  0  0  0  0  2  0  0  0  0  0  0
  190.0030  177.1800  142.0920 C   0  0  0  0  0  2  0  0  0  0  0  0
  187.8360  177.7140  142.7630 C   0  0  0  0  0  2  0  0  0  0  0  0
  187.3750  177.0360  145.0540 N   0  0  0  0  0  1  0  0  0  0  0  0
  188.2810  176.8550  143.9350 C   0  0  0  0  0  2  0  0  0  0  0  0
  1 16  1  0  0  0  0
  2 20  1  0  0  0  0
  2 10  1  0  0  0  0
  4  3  1  0  0  0  0
  4  1  1  0  0  0  0
  5 15  1  0  0  0  0
  5 12  1  0  0  0  0
  6  1  2  0  0  0  0
  7 14  1  0  0  0  0
  7  8  1  0  0  0  0
  8 21  1  6  0  0  0
  9  3  1  6  0  0  0
  9  8  1  0  0  0  0
 10 11  1  0  0  0  0
 11  7  2  0  0  0  0
 12  4  2  0  0  0  0
 13 20  1  1  0  0  0
 13  9  1  0  0  0  0
 13 18  1  0  0  0  0
 14 19  2  0  0  0  0
 15  6  1  0  0  0  0
 17 15  1  0  0  0  0
 18 16  1  0  0  0  0
 18 23  1  1  0  0  0
 19 21  1  0  0  0  0
 22 26  1  0  0  0  0
 23 24  2  0  0  0  0
 23 22  1  0  0  0  0
 24 25  1  0  0  0  0
 25 26  2  0  0  0  0
 27 31  1  0  0  0  0
 27 32  1  0  0  0  0
 28 26  1  6  0  0  0
 28 29  1  0  0  0  0
 28 30  1  0  0  0  0
 29 27  1  0  0  0  0
 30 31  1  0  0  0  0
 32 34  1  0  0  0  0
 34 33  1  0  0  0  0
M  END
>  <MODEL>
8

>  <REMARK>
 VINA RESULT:      -6.0      2.829      4.887
  Name = 
  4 active torsions:
  status: ('A' for Active; 'I' for Inactive)
    1  A    between atoms: N_3  and  C_30
    2  A    between atoms: C_8  and  C_27
    3  A    between atoms: C_14  and  C_31
    4  A    between atoms: C_15  and  C_30
                            x       y       z     vdW  Elec       q    Type
                         _______ _______ _______ _____ _____    ______ ____

>  <TORSDO>
F 4

$$$$
=
 OpenBabel10232409553D

 34 39  0  0  1  0  0  0  0  0999 V2000
  189.3390  177.5920  141.3430 C   0  0  0  0  0  0  0  0  0  0  0  0
  189.2290  178.8530  136.1070 C   0  0  0  0  0  2  0  0  0  0  0  0
  190.4780  176.1640  139.5770 N   0  0  0  0  0  2  0  0  0  0  0  0
  190.5230  176.8770  140.8190 C   0  0  0  0  0  0  0  0  0  0  0  0
  191.7860  177.5740  142.8440 C   0  0  0  0  0  2  0  0  0  0  0  0
  189.4580  178.4130  142.3850 C   0  0  0  0  0  3  0  0  0  0  0  0
  190.1710  175.8160  135.9480 C   0  0  0  0  0  0  0  0  0  0  0  0
  189.6890  175.5710  137.3430 C   0  0  2  0  0  3  0  0  0  0  0  0
  189.6650  176.4900  138.4700 N   0  0  2  0  0  0  0  0  0  0  0  0
  188.8430  177.8120  135.1310 C   0  0  0  0  0  2  0  0  0  0  0  0
  189.8150  176.7200  135.0710 N   0  0  0  0  0  0  0  0  0  0  0  0
  191.6670  176.8870  141.5110 C   0  0  0  0  0  3  0  0  0  0  0  0
  189.0270  177.7750  138.4140 C   0  0  2  0  0  3  0  0  0  0  0  0
  190.7650  174.6170  135.4740 N   0  0  0  0  0  0  0  0  0  0  0  0
  190.7250  178.5640  143.0350 N   0  0  0  0  0  0  0  0  0  0  0  0
  188.0100  177.4020  140.7020 C   0  0  0  0  0  2  0  0  0  0  0  0
  190.8570  179.5380  144.1010 C   0  0  0  0  0  1  0  0  0  0  0  0
  187.9280  178.1500  139.3780 C   0  0  2  0  0  3  0  0  0  0  0  0
  190.6100  173.7240  136.3910 C   0  0  0  0  0  3  0  0  0  0  0  0
  189.1380  178.4420  137.3170 C   0  0  0  0  0  2  0  0  0  0  0  0
  189.9660  174.2890  137.5730 C   0  0  0  0  0  2  0  0  0  0  0  0
  185.1510  178.5600  139.4100 S   0  0  0  0  0  0  0  0  0  0  0  0
  186.5750  177.9290  138.7790 C   0  0  0  0  0  0  0  0  0  0  0  0
  186.3470  177.1680  137.6850 N   0  0  0  0  0  0  0  0  0  0  0  0
  185.0260  177.1140  137.3640 C   0  0  0  0  0  3  0  0  0  0  0  0
  184.2040  177.8340  138.2260 C   0  0  0  0  0  0  0  0  0  0  0  0
  180.9810  178.5170  139.9080 N   0  0  0  0  0  0  0  0  0  0  0  0
  182.7200  177.9720  138.1250 C   0  0  1  0  0  3  0  0  0  0  0  0
  181.9000  177.0760  139.4730 S   0  0  0  0  0  0  0  0  0  0  0  0
  182.3310  179.3750  138.1630 N   0  0  0  0  0  2  0  0  0  0  0  0
  181.8040  179.6360  139.4910 C   0  0  0  0  0  2  0  0  0  0  0  0
  180.9160  178.5640  141.3610 C   0  0  0  0  0  2  0  0  0  0  0  0
  182.1960  179.1640  143.3430 N   0  0  0  0  0  1  0  0  0  0  0  0
  182.3020  178.7890  141.9440 C   0  0  0  0  0  2  0  0  0  0  0  0
  1  6  2  0  0  0  0
  2 20  1  0  0  0  0
  3  4  1  0  0  0  0
  4  1  1  0  0  0  0
  4 12  2  0  0  0  0
  5 15  1  0  0  0  0
  6 15  1  0  0  0  0
  7  8  1  0  0  0  0
  8 21  1  1  0  0  0
  8  9  1  0  0  0  0
  9  3  1  6  0  0  0
 10  2  1  0  0  0  0
 11 10  1  0  0  0  0
 11  7  2  0  0  0  0
 12  5  1  0  0  0  0
 13 20  1  6  0  0  0
 13  9  1  0  0  0  0
 13 18  1  0  0  0  0
 14  7  1  0  0  0  0
 14 19  2  0  0  0  0
 15 17  1  0  0  0  0
 16  1  1  0  0  0  0
 18 23  1  6  0  0  0
 18 16  1  0  0  0  0
 19 21  1  0  0  0  0
 23 22  1  0  0  0  0
 24 23  2  0  0  0  0
 25 24  1  0  0  0  0
 25 26  2  0  0  0  0
 26 22  1  0  0  0  0
 27 32  1  0  0  0  0
 28 30  1  0  0  0  0
 28 26  1  1  0  0  0
 28 29  1  0  0  0  0
 29 27  1  0  0  0  0
 30 31  1  0  0  0  0
 31 27  1  0  0  0  0
 32 34  1  0  0  0  0
 34 33  1  0  0  0  0
M  END
>  <MODEL>
9

>  <REMARK>
 VINA RESULT:      -5.9      3.635      6.904
  Name = 
  4 active torsions:
  status: ('A' for Active; 'I' for Inactive)
    1  A    between atoms: N_3  and  C_30
    2  A    between atoms: C_8  and  C_27
    3  A    between atoms: C_14  and  C_31
    4  A    between atoms: C_15  and  C_30
                            x       y       z     vdW  Elec       q    Type
                         _______ _______ _______ _____ _____    ______ ____

>  <TORSDO>
F 4

$$$$
