=
 OpenBabel10232412313D

 29 32  0  0  1  0  0  0  0  0999 V2000
  189.0620  177.6060  145.0200 C   0  0  1  0  0  3  0  0  0  0  0  0
  185.4050  178.7330  146.9010 N   0  0  0  0  0  0  0  0  0  0  0  0
  187.7160  178.1710  147.0900 C   0  0  0  0  0  3  0  0  0  0  0  0
  186.6320  178.1930  144.9340 C   0  0  0  0  0  3  0  0  0  0  0  0
  185.4310  178.5670  145.5470 C   0  0  0  0  0  0  0  0  0  0  0  0
  187.7790  177.9890  145.7040 C   0  0  0  0  0  0  0  0  0  0  0  0
  186.5070  178.5450  147.6750 C   0  0  0  0  0  3  0  0  0  0  0  0
  184.1890  178.8040  144.7720 C   0  0  0  0  0  0  0  0  0  0  0  0
  183.1510  179.1490  145.3960 O   0  0  0  0  0  0  0  0  0  0  0  0
  184.0980  178.6630  143.3450 N   0  0  0  0  0  2  0  0  0  0  0  0
  185.1600  178.2140  142.4600 C   0  0  0  0  0  1  0  0  0  0  0  0
  189.8190  176.6470  147.1890 N   0  0  0  0  0  2  0  0  0  0  0  0
  191.1590  176.7790  147.6560 N   0  0  0  0  0  0  0  0  0  0  0  0
  189.8350  176.4780  145.7280 C   0  0  2  0  0  3  0  0  0  0  0  0
  191.2490  176.4830  145.3880 C   0  0  0  0  0  0  0  0  0  0  0  0
  192.0050  176.6590  146.5450 N   0  0  0  0  0  0  0  0  0  0  0  0
  191.7400  176.3290  144.2400 O   0  0  0  0  0  0  0  0  0  0  0  0
  189.3840  177.8790  142.6420 C   0  0  0  0  0  0  0  0  0  0  0  0
  188.8230  177.2720  143.6320 N   0  0  0  0  0  0  0  0  0  0  0  0
  190.3330  179.0260  142.8550 C   0  0  0  0  0  1  0  0  0  0  0  0
  188.9710  178.3320  139.0440 C   0  0  1  0  0  3  0  0  0  0  0  0
  190.2500  177.5330  139.2250 C   0  0  2  0  0  3  0  0  0  0  0  0
  190.2770  176.4590  138.1490 C   0  0  1  0  0  3  0  0  0  0  0  0
  191.2070  175.3910  138.4780 N   0  0  0  0  0  1  0  0  0  0  0  0
  188.8760  175.9190  138.0100 C   0  0  0  0  0  2  0  0  0  0  0  0
  187.7540  177.3410  138.1070 S   0  0  0  0  0  0  0  0  0  0  0  0
  188.4640  178.5660  140.4400 C   0  0  0  0  0  2  0  0  0  0  0  0
  189.0560  177.4360  141.2520 C   0  0  1  0  0  3  0  0  0  0  0  0
  190.2500  176.9510  140.5680 N   0  0  0  0  0  2  0  0  0  0  0  0
  1 19  1  6  0  0  0
  1  6  1  0  0  0  0
  2  7  1  0  0  0  0
  3  7  2  0  0  0  0
  4  5  1  0  0  0  0
  4  6  2  0  0  0  0
  5  2  2  0  0  0  0
  6  3  1  0  0  0  0
  8  9  2  0  0  0  0
  8  5  1  0  0  0  0
 10  8  1  0  0  0  0
 11 10  1  0  0  0  0
 12 13  1  0  0  0  0
 14  1  1  6  0  0  0
 14 12  1  0  0  0  0
 15 14  1  0  0  0  0
 15 16  1  0  0  0  0
 16 13  2  0  0  0  0
 17 15  2  0  0  0  0
 18 20  1  0  0  0  0
 18 19  2  0  0  0  0
 21 22  1  0  0  0  0
 21 27  1  1  0  0  0
 22 29  1  1  0  0  0
 23 24  1  1  0  0  0
 23 22  1  0  0  0  0
 25 26  1  0  0  0  0
 25 23  1  0  0  0  0
 26 21  1  0  0  0  0
 27 28  1  0  0  0  0
 28 18  1  1  0  0  0
 29 28  1  0  0  0  0
M  END
>  <MODEL>
1

>  <REMARK>
 VINA RESULT:      -8.7      0.000      0.000
  Name = 
  5 active torsions:
  status: ('A' for Active; 'I' for Inactive)
    1  A    between atoms: C_6  and  C_29
    2  A    between atoms: C_9  and  C_11
    3  A    between atoms: C_12  and  C_26
    4  A    between atoms: N_14  and  C_29
    5  A    between atoms: C_19  and  C_29
                            x       y       z     vdW  Elec       q    Type
                         _______ _______ _______ _____ _____    ______ ____

>  <TORSDO>
F 5

$$$$
=
 OpenBabel10232412313D

 29 32  0  0  1  0  0  0  0  0999 V2000
  191.1320  176.3300  136.9850 C   0  0  1  0  0  3  0  0  0  0  0  0
  195.2680  175.3680  136.5910 N   0  0  0  0  0  0  0  0  0  0  0  0
  193.2810  176.2900  135.6440 C   0  0  0  0  0  3  0  0  0  0  0  0
  193.2640  175.3730  137.8770 C   0  0  0  0  0  3  0  0  0  0  0  0
  194.6230  175.0600  137.7530 C   0  0  0  0  0  0  0  0  0  0  0  0
  192.5860  175.9860  136.8210 C   0  0  0  0  0  0  0  0  0  0  0  0
  194.6340  175.9680  135.5480 C   0  0  0  0  0  3  0  0  0  0  0  0
  195.3880  174.4190  138.8490 C   0  0  0  0  0  0  0  0  0  0  0  0
  195.8220  175.1470  139.7810 O   0  0  0  0  0  0  0  0  0  0  0  0
  195.6670  173.0110  138.9130 N   0  0  0  0  0  2  0  0  0  0  0  0
  195.3120  172.0230  137.9080 C   0  0  0  0  0  1  0  0  0  0  0  0
  189.0770  176.3280  135.5780 N   0  0  0  0  0  2  0  0  0  0  0  0
  187.8470  175.7640  136.0240 N   0  0  0  0  0  0  0  0  0  0  0  0
  190.1910  175.5110  136.0830 C   0  0  2  0  0  3  0  0  0  0  0  0
  189.5360  174.4320  136.8060 C   0  0  0  0  0  0  0  0  0  0  0  0
  188.1550  174.6060  136.7530 N   0  0  0  0  0  0  0  0  0  0  0  0
  190.1050  173.4670  137.3790 O   0  0  0  0  0  0  0  0  0  0  0  0
  190.0260  177.1120  138.9840 C   0  0  0  0  0  0  0  0  0  0  0  0
  190.7340  176.2240  138.3730 N   0  0  0  0  0  0  0  0  0  0  0  0
  189.5690  178.3690  138.2960 C   0  0  0  0  0  1  0  0  0  0  0  0
  190.1420  177.8220  142.5620 C   0  0  1  0  0  3  0  0  0  0  0  0
  188.7770  178.2850  142.0840 C   0  0  2  0  0  3  0  0  0  0  0  0
  187.7600  177.8830  143.1400 C   0  0  1  0  0  3  0  0  0  0  0  0
  186.4050  177.8840  142.6100 N   0  0  0  0  0  1  0  0  0  0  0  0
  188.1350  176.5080  143.6340 C   0  0  0  0  0  2  0  0  0  0  0  0
  189.9420  176.4850  143.7920 S   0  0  0  0  0  0  0  0  0  0  0  0
  190.8160  177.2810  141.3330 C   0  0  0  0  0  2  0  0  0  0  0  0
  189.6780  176.8830  140.4210 C   0  0  1  0  0  3  0  0  0  0  0  0
  188.4960  177.6520  140.7940 N   0  0  0  0  0  2  0  0  0  0  0  0
  1 19  1  1  0  0  0
  2  5  1  0  0  0  0
  3  6  2  0  0  0  0
  5  4  2  0  0  0  0
  5  8  1  0  0  0  0
  6  1  1  0  0  0  0
  6  4  1  0  0  0  0
  7  3  1  0  0  0  0
  7  2  2  0  0  0  0
  8 10  1  0  0  0  0
  8  9  2  0  0  0  0
 11 10  1  0  0  0  0
 12 13  1  0  0  0  0
 12 14  1  0  0  0  0
 13 16  2  0  0  0  0
 14 15  1  0  0  0  0
 14  1  1  1  0  0  0
 15 17  2  0  0  0  0
 16 15  1  0  0  0  0
 19 18  2  0  0  0  0
 20 18  1  0  0  0  0
 21 27  1  6  0  0  0
 21 26  1  0  0  0  0
 22 29  1  6  0  0  0
 22 21  1  0  0  0  0
 22 23  1  0  0  0  0
 23 24  1  6  0  0  0
 23 25  1  0  0  0  0
 25 26  1  0  0  0  0
 28 18  1  6  0  0  0
 28 29  1  0  0  0  0
 28 27  1  0  0  0  0
M  END
>  <MODEL>
2

>  <REMARK>
 VINA RESULT:      -8.2      4.184      9.574
  Name = 
  5 active torsions:
  status: ('A' for Active; 'I' for Inactive)
    1  A    between atoms: C_6  and  C_29
    2  A    between atoms: C_9  and  C_11
    3  A    between atoms: C_12  and  C_26
    4  A    between atoms: N_14  and  C_29
    5  A    between atoms: C_19  and  C_29
                            x       y       z     vdW  Elec       q    Type
                         _______ _______ _______ _____ _____    ______ ____

>  <TORSDO>
F 5

$$$$
=
 OpenBabel10232412313D

 29 32  0  0  1  0  0  0  0  0999 V2000
  188.4600  178.1650  141.5960 C   0  0  1  0  0  3  0  0  0  0  0  0
  184.2440  178.7310  141.9090 N   0  0  0  0  0  0  0  0  0  0  0  0
  186.3220  178.1970  142.9550 C   0  0  0  0  0  3  0  0  0  0  0  0
  186.2300  178.6960  140.5950 C   0  0  0  0  0  3  0  0  0  0  0  0
  184.8470  178.8870  140.6950 C   0  0  0  0  0  0  0  0  0  0  0  0
  186.9730  178.3460  141.7240 C   0  0  0  0  0  0  0  0  0  0  0  0
  184.9430  178.3940  143.0260 C   0  0  0  0  0  3  0  0  0  0  0  0
  184.0170  179.2690  139.5260 C   0  0  0  0  0  0  0  0  0  0  0  0
  184.1250  180.4390  139.0720 O   0  0  0  0  0  0  0  0  0  0  0  0
  183.0910  178.3810  138.8780 N   0  0  0  0  0  2  0  0  0  0  0  0
  182.7780  177.0220  139.2900 C   0  0  0  0  0  1  0  0  0  0  0  0
  190.5260  178.3880  142.9690 N   0  0  0  0  0  2  0  0  0  0  0  0
  191.4580  177.3220  143.1230 N   0  0  0  0  0  0  0  0  0  0  0  0
  189.1640  177.8330  142.9240 C   0  0  2  0  0  3  0  0  0  0  0  0
  189.3620  176.4020  143.0980 C   0  0  0  0  0  0  0  0  0  0  0  0
  190.7230  176.1310  143.2160 N   0  0  0  0  0  0  0  0  0  0  0  0
  188.4600  175.5270  143.1610 O   0  0  0  0  0  0  0  0  0  0  0  0
  189.1430  177.4680  139.3880 C   0  0  0  0  0  0  0  0  0  0  0  0
  188.7700  177.1750  140.5870 N   0  0  0  0  0  0  0  0  0  0  0  0
  189.2630  178.8930  138.9240 C   0  0  0  0  0  1  0  0  0  0  0  0
  189.8870  176.0230  136.1200 C   0  0  1  0  0  3  0  0  0  0  0  0
  191.1870  175.9860  136.9030 C   0  0  2  0  0  3  0  0  0  0  0  0
  191.8610  174.6550  136.6130 C   0  0  1  0  0  3  0  0  0  0  0  0
  192.8660  174.3300  137.6120 N   0  0  0  0  0  1  0  0  0  0  0  0
  190.7850  173.5980  136.5800 C   0  0  0  0  0  2  0  0  0  0  0  0
  189.3690  174.3200  135.7060 S   0  0  0  0  0  0  0  0  0  0  0  0
  188.8900  176.6400  137.0600 C   0  0  0  0  0  2  0  0  0  0  0  0
  189.4400  176.3510  138.4390 C   0  0  1  0  0  3  0  0  0  0  0  0
  190.8780  176.1360  138.3270 N   0  0  0  0  0  2  0  0  0  0  0  0
  1 19  1  6  0  0  0
  1  6  1  0  0  0  0
  2  7  1  0  0  0  0
  3  7  2  0  0  0  0
  4  5  1  0  0  0  0
  4  6  2  0  0  0  0
  5  2  2  0  0  0  0
  6  3  1  0  0  0  0
  8  5  1  0  0  0  0
  9  8  2  0  0  0  0
 10 11  1  0  0  0  0
 10  8  1  0  0  0  0
 12 13  1  0  0  0  0
 13 16  2  0  0  0  0
 14  1  1  6  0  0  0
 14 12  1  0  0  0  0
 14 15  1  0  0  0  0
 15 17  2  0  0  0  0
 15 16  1  0  0  0  0
 18 19  2  0  0  0  0
 20 18  1  0  0  0  0
 21 22  1  0  0  0  0
 21 27  1  1  0  0  0
 22 29  1  1  0  0  0
 23 22  1  0  0  0  0
 23 24  1  1  0  0  0
 25 23  1  0  0  0  0
 26 21  1  0  0  0  0
 26 25  1  0  0  0  0
 27 28  1  0  0  0  0
 28 18  1  1  0  0  0
 29 28  1  0  0  0  0
M  END
>  <MODEL>
3

>  <REMARK>
 VINA RESULT:      -8.2      2.955      4.022
  Name = 
  5 active torsions:
  status: ('A' for Active; 'I' for Inactive)
    1  A    between atoms: C_6  and  C_29
    2  A    between atoms: C_9  and  C_11
    3  A    between atoms: C_12  and  C_26
    4  A    between atoms: N_14  and  C_29
    5  A    between atoms: C_19  and  C_29
                            x       y       z     vdW  Elec       q    Type
                         _______ _______ _______ _____ _____    ______ ____

>  <TORSDO>
F 5

$$$$
=
 OpenBabel10232412313D

 29 32  0  0  1  0  0  0  0  0999 V2000
  190.7140  176.0890  137.7140 C   0  0  1  0  0  3  0  0  0  0  0  0
  194.7980  175.4090  136.6890 N   0  0  0  0  0  0  0  0  0  0  0  0
  192.6320  176.1910  136.0620 C   0  0  0  0  0  3  0  0  0  0  0  0
  193.0170  175.2820  138.2650 C   0  0  0  0  0  3  0  0  0  0  0  0
  194.3590  175.0610  137.9330 C   0  0  0  0  0  0  0  0  0  0  0  0
  192.1460  175.8440  137.3280 C   0  0  0  0  0  0  0  0  0  0  0  0
  193.9740  175.9610  135.7590 C   0  0  0  0  0  3  0  0  0  0  0  0
  195.3240  174.4760  138.8970 C   0  0  0  0  0  0  0  0  0  0  0  0
  195.8170  175.2280  139.7790 O   0  0  0  0  0  0  0  0  0  0  0  0
  195.7320  173.0990  138.8840 N   0  0  0  0  0  2  0  0  0  0  0  0
  195.3280  172.0970  137.9110 C   0  0  0  0  0  1  0  0  0  0  0  0
  190.3980  173.6660  137.2370 N   0  0  0  0  0  2  0  0  0  0  0  0
  190.3650  173.1460  135.9110 N   0  0  0  0  0  0  0  0  0  0  0  0
  189.7460  174.9840  137.2530 C   0  0  2  0  0  3  0  0  0  0  0  0
  189.3070  175.1760  135.8790 C   0  0  0  0  0  0  0  0  0  0  0  0
  189.6830  174.0760  135.1120 N   0  0  0  0  0  0  0  0  0  0  0  0
  188.6640  176.1620  135.4330 O   0  0  0  0  0  0  0  0  0  0  0  0
  189.9260  177.2800  139.6600 C   0  0  0  0  0  0  0  0  0  0  0  0
  190.5990  176.3110  139.1400 N   0  0  0  0  0  0  0  0  0  0  0  0
  189.2120  178.2940  138.8090 C   0  0  0  0  0  1  0  0  0  0  0  0
  188.5650  176.6280  142.9840 C   0  0  1  0  0  3  0  0  0  0  0  0
  189.8300  175.7960  142.8760 C   0  0  2  0  0  3  0  0  0  0  0  0
  190.5580  175.8910  144.2070 C   0  0  1  0  0  3  0  0  0  0  0  0
  191.9550  175.5050  144.0860 N   0  0  0  0  0  1  0  0  0  0  0  0
  190.4410  177.3150  144.6900 C   0  0  0  0  0  2  0  0  0  0  0  0
  188.7460  177.8510  144.3300 S   0  0  0  0  0  0  0  0  0  0  0  0
  188.4590  177.3400  141.6640 C   0  0  0  0  0  2  0  0  0  0  0  0
  189.8800  177.3990  141.1510 C   0  0  1  0  0  3  0  0  0  0  0  0
  190.6430  176.3240  141.7780 N   0  0  0  0  0  2  0  0  0  0  0  0
  1 19  1  1  0  0  0
  2  5  1  0  0  0  0
  3  6  2  0  0  0  0
  5  4  2  0  0  0  0
  5  8  1  0  0  0  0
  6  1  1  0  0  0  0
  6  4  1  0  0  0  0
  7  3  1  0  0  0  0
  7  2  2  0  0  0  0
  8  9  2  0  0  0  0
 10  8  1  0  0  0  0
 11 10  1  0  0  0  0
 12 14  1  0  0  0  0
 13 12  1  0  0  0  0
 14  1  1  6  0  0  0
 15 14  1  0  0  0  0
 16 15  1  0  0  0  0
 16 13  2  0  0  0  0
 17 15  2  0  0  0  0
 19 18  2  0  0  0  0
 20 18  1  0  0  0  0
 21 27  1  6  0  0  0
 21 26  1  0  0  0  0
 22 29  1  6  0  0  0
 22 21  1  0  0  0  0
 22 23  1  0  0  0  0
 23 24  1  6  0  0  0
 23 25  1  0  0  0  0
 26 25  1  0  0  0  0
 28 18  1  6  0  0  0
 28 27  1  0  0  0  0
 28 29  1  0  0  0  0
M  END
>  <MODEL>
4

>  <REMARK>
 VINA RESULT:      -8.0      4.211      9.463
  Name = 
  5 active torsions:
  status: ('A' for Active; 'I' for Inactive)
    1  A    between atoms: C_6  and  C_29
    2  A    between atoms: C_9  and  C_11
    3  A    between atoms: C_12  and  C_26
    4  A    between atoms: N_14  and  C_29
    5  A    between atoms: C_19  and  C_29
                            x       y       z     vdW  Elec       q    Type
                         _______ _______ _______ _____ _____    ______ ____

>  <TORSDO>
F 5

$$$$
=
 OpenBabel10232412313D

 29 32  0  0  1  0  0  0  0  0999 V2000
  188.2850  178.2190  141.7160 C   0  0  1  0  0  3  0  0  0  0  0  0
  184.2360  178.8130  142.9150 N   0  0  0  0  0  0  0  0  0  0  0  0
  185.8430  178.6030  141.1630 C   0  0  0  0  0  3  0  0  0  0  0  0
  186.5240  178.4690  143.4750 C   0  0  0  0  0  3  0  0  0  0  0  0
  185.1960  178.6590  143.8720 C   0  0  0  0  0  0  0  0  0  0  0  0
  186.8550  178.4450  142.1180 C   0  0  0  0  0  0  0  0  0  0  0  0
  184.5270  178.7890  141.5870 C   0  0  0  0  0  3  0  0  0  0  0  0
  184.7950  178.6830  145.3000 C   0  0  0  0  0  0  0  0  0  0  0  0
  183.6690  179.1630  145.5960 O   0  0  0  0  0  0  0  0  0  0  0  0
  185.6170  178.1910  146.3700 N   0  0  0  0  0  2  0  0  0  0  0  0
  186.9660  177.6630  146.2390 C   0  0  0  0  0  1  0  0  0  0  0  0
  190.6060  178.1260  142.6130 N   0  0  0  0  0  2  0  0  0  0  0  0
  191.3790  176.9300  142.6080 N   0  0  0  0  0  0  0  0  0  0  0  0
  189.1990  177.7870  142.8770 C   0  0  2  0  0  3  0  0  0  0  0  0
  189.2130  176.3440  143.0580 C   0  0  0  0  0  0  0  0  0  0  0  0
  190.5110  175.8670  142.8960 N   0  0  0  0  0  0  0  0  0  0  0  0
  188.2240  175.6200  143.3420 O   0  0  0  0  0  0  0  0  0  0  0  0
  188.6870  177.6070  139.4150 C   0  0  0  0  0  0  0  0  0  0  0  0
  188.3670  177.2770  140.6190 N   0  0  0  0  0  0  0  0  0  0  0  0
  188.9830  179.0330  139.0380 C   0  0  0  0  0  1  0  0  0  0  0  0
  189.1120  176.3210  136.0260 C   0  0  1  0  0  3  0  0  0  0  0  0
  190.3720  175.9410  136.7820 C   0  0  2  0  0  3  0  0  0  0  0  0
  190.7470  174.5270  136.3700 C   0  0  1  0  0  3  0  0  0  0  0  0
  191.6580  173.9120  137.3230 N   0  0  0  0  0  1  0  0  0  0  0  0
  189.4710  173.7300  136.2670 C   0  0  0  0  0  2  0  0  0  0  0  0
  188.2430  174.8080  135.4800 S   0  0  0  0  0  0  0  0  0  0  0  0
  188.2670  177.0540  137.0310 C   0  0  0  0  0  2  0  0  0  0  0  0
  188.7400  176.5370  138.3710 C   0  0  1  0  0  3  0  0  0  0  0  0
  190.1000  176.0320  138.2170 N   0  0  0  0  0  2  0  0  0  0  0  0
  1 19  1  6  0  0  0
  1  6  1  0  0  0  0
  2  5  1  0  0  0  0
  3  7  1  0  0  0  0
  3  6  2  0  0  0  0
  4  5  2  0  0  0  0
  5  8  1  0  0  0  0
  6  4  1  0  0  0  0
  7  2  2  0  0  0  0
  8  9  2  0  0  0  0
  8 10  1  0  0  0  0
 11 10  1  0  0  0  0
 12 14  1  0  0  0  0
 13 12  1  0  0  0  0
 13 16  2  0  0  0  0
 14  1  1  6  0  0  0
 14 15  1  0  0  0  0
 15 17  2  0  0  0  0
 16 15  1  0  0  0  0
 18 19  2  0  0  0  0
 20 18  1  0  0  0  0
 21 22  1  0  0  0  0
 21 27  1  1  0  0  0
 22 29  1  1  0  0  0
 23 22  1  0  0  0  0
 23 24  1  1  0  0  0
 25 23  1  0  0  0  0
 26 21  1  0  0  0  0
 26 25  1  0  0  0  0
 27 28  1  0  0  0  0
 28 18  1  1  0  0  0
 29 28  1  0  0  0  0
M  END
>  <MODEL>
5

>  <REMARK>
 VINA RESULT:      -7.9      2.213      3.610
  Name = 
  5 active torsions:
  status: ('A' for Active; 'I' for Inactive)
    1  A    between atoms: C_6  and  C_29
    2  A    between atoms: C_9  and  C_11
    3  A    between atoms: C_12  and  C_26
    4  A    between atoms: N_14  and  C_29
    5  A    between atoms: C_19  and  C_29
                            x       y       z     vdW  Elec       q    Type
                         _______ _______ _______ _____ _____    ______ ____

>  <TORSDO>
F 5

$$$$
=
 OpenBabel10232412313D

 29 32  0  0  1  0  0  0  0  0999 V2000
  190.3090  176.9350  138.3500 C   0  0  1  0  0  3  0  0  0  0  0  0
  190.3360  177.4810  142.5800 N   0  0  0  0  0  0  0  0  0  0  0  0
  191.5270  177.4430  140.5130 C   0  0  0  0  0  3  0  0  0  0  0  0
  189.1580  176.9840  140.5710 C   0  0  0  0  0  3  0  0  0  0  0  0
  189.1630  177.1670  141.9590 C   0  0  0  0  0  0  0  0  0  0  0  0
  190.3420  177.1170  139.8420 C   0  0  0  0  0  0  0  0  0  0  0  0
  191.5030  177.6210  141.8960 C   0  0  0  0  0  3  0  0  0  0  0  0
  187.9290  177.0460  142.7750 C   0  0  0  0  0  0  0  0  0  0  0  0
  187.8970  176.1750  143.6840 O   0  0  0  0  0  0  0  0  0  0  0  0
  186.7640  177.8650  142.5890 N   0  0  0  0  0  2  0  0  0  0  0  0
  186.5830  178.8730  141.5570 C   0  0  0  0  0  1  0  0  0  0  0  0
  188.7430  178.8700  138.4080 N   0  0  0  0  0  2  0  0  0  0  0  0
  187.4770  178.8480  137.7550 N   0  0  0  0  0  0  0  0  0  0  0  0
  189.7190  178.1360  137.5890 C   0  0  2  0  0  3  0  0  0  0  0  0
  188.9580  177.7250  136.4190 C   0  0  0  0  0  0  0  0  0  0  0  0
  187.6410  178.1610  136.5440 N   0  0  0  0  0  0  0  0  0  0  0  0
  189.4030  177.0960  135.4240 O   0  0  0  0  0  0  0  0  0  0  0  0
  191.9270  175.4550  137.3400 C   0  0  0  0  0  0  0  0  0  0  0  0
  191.6240  176.6020  137.8460 N   0  0  0  0  0  0  0  0  0  0  0  0
  190.9230  174.3390  137.2560 C   0  0  0  0  0  1  0  0  0  0  0  0
  194.4480  174.4610  134.8950 C   0  0  1  0  0  3  0  0  0  0  0  0
  194.4710  175.9780  134.9310 C   0  0  2  0  0  3  0  0  0  0  0  0
  195.9250  176.4170  134.8730 C   0  0  1  0  0  3  0  0  0  0  0  0
  196.0930  177.7880  135.3270 N   0  0  0  0  0  1  0  0  0  0  0  0
  196.7220  175.4720  135.7370 C   0  0  0  0  0  2  0  0  0  0  0  0
  196.0690  173.8070  135.4300 S   0  0  0  0  0  0  0  0  0  0  0  0
  193.3910  174.0680  135.8910 C   0  0  0  0  0  2  0  0  0  0  0  0
  193.3230  175.2360  136.8490 C   0  0  1  0  0  3  0  0  0  0  0  0
  193.8220  176.4250  136.1660 N   0  0  0  0  0  2  0  0  0  0  0  0
  1 19  1  6  0  0  0
  1  6  1  0  0  0  0
  3  7  1  0  0  0  0
  4  5  2  0  0  0  0
  5  2  1  0  0  0  0
  5  8  1  0  0  0  0
  6  3  2  0  0  0  0
  6  4  1  0  0  0  0
  7  2  2  0  0  0  0
  8  9  2  0  0  0  0
 10  8  1  0  0  0  0
 11 10  1  0  0  0  0
 13 12  1  0  0  0  0
 14  1  1  1  0  0  0
 14 12  1  0  0  0  0
 15 16  1  0  0  0  0
 15 14  1  0  0  0  0
 16 13  2  0  0  0  0
 17 15  2  0  0  0  0
 18 19  2  0  0  0  0
 20 18  1  0  0  0  0
 21 22  1  0  0  0  0
 21 26  1  0  0  0  0
 21 27  1  1  0  0  0
 22 29  1  1  0  0  0
 23 22  1  0  0  0  0
 23 24  1  1  0  0  0
 23 25  1  0  0  0  0
 26 25  1  0  0  0  0
 27 28  1  0  0  0  0
 28 18  1  6  0  0  0
 29 28  1  0  0  0  0
M  END
>  <MODEL>
6

>  <REMARK>
 VINA RESULT:      -7.7      4.251      7.306
  Name = 
  5 active torsions:
  status: ('A' for Active; 'I' for Inactive)
    1  A    between atoms: C_6  and  C_29
    2  A    between atoms: C_9  and  C_11
    3  A    between atoms: C_12  and  C_26
    4  A    between atoms: N_14  and  C_29
    5  A    between atoms: C_19  and  C_29
                            x       y       z     vdW  Elec       q    Type
                         _______ _______ _______ _____ _____    ______ ____

>  <TORSDO>
F 5

$$$$
=
 OpenBabel10232412313D

 29 32  0  0  1  0  0  0  0  0999 V2000
  190.3590  177.6520  141.7090 C   0  0  1  0  0  3  0  0  0  0  0  0
  186.5140  177.0660  143.4570 N   0  0  0  0  0  0  0  0  0  0  0  0
  188.7620  176.3240  143.1600 C   0  0  0  0  0  3  0  0  0  0  0  0
  187.9800  178.3330  142.0730 C   0  0  0  0  0  3  0  0  0  0  0  0
  186.7180  178.1460  142.6480 C   0  0  0  0  0  0  0  0  0  0  0  0
  189.0070  177.4200  142.3230 C   0  0  0  0  0  0  0  0  0  0  0  0
  187.4960  176.1640  143.7210 C   0  0  0  0  0  3  0  0  0  0  0  0
  185.5990  179.0930  142.4200 C   0  0  0  0  0  0  0  0  0  0  0  0
  185.4200  179.5380  141.2560 O   0  0  0  0  0  0  0  0  0  0  0  0
  184.7030  179.5360  143.4520 N   0  0  0  0  0  2  0  0  0  0  0  0
  184.7840  179.1890  144.8620 C   0  0  0  0  0  1  0  0  0  0  0  0
  191.8030  176.3500  143.2660 N   0  0  0  0  0  2  0  0  0  0  0  0
  191.6070  176.3600  144.6760 N   0  0  0  0  0  0  0  0  0  0  0  0
  191.5100  177.6890  142.7310 C   0  0  2  0  0  3  0  0  0  0  0  0
  191.1730  178.4730  143.9100 C   0  0  0  0  0  0  0  0  0  0  0  0
  191.2410  177.6640  145.0410 N   0  0  0  0  0  0  0  0  0  0  0  0
  190.8860  179.6980  143.9330 O   0  0  0  0  0  0  0  0  0  0  0  0
  190.3670  176.8740  139.4230 C   0  0  0  0  0  0  0  0  0  0  0  0
  190.6250  176.6780  140.6710 N   0  0  0  0  0  0  0  0  0  0  0  0
  189.7320  178.1470  138.9380 C   0  0  0  0  0  1  0  0  0  0  0  0
  190.3170  175.2490  136.1550 C   0  0  1  0  0  3  0  0  0  0  0  0
  191.7180  175.8070  136.3270 C   0  0  2  0  0  3  0  0  0  0  0  0
  192.6940  174.7700  135.7960 C   0  0  1  0  0  3  0  0  0  0  0  0
  194.0430  174.9970  136.2900 N   0  0  0  0  0  1  0  0  0  0  0  0
  192.1940  173.4130  136.2230 C   0  0  0  0  0  2  0  0  0  0  0  0
  190.3930  173.4280  136.0100 S   0  0  0  0  0  0  0  0  0  0  0  0
  189.5960  175.6250  137.4200 C   0  0  0  0  0  2  0  0  0  0  0  0
  190.6930  175.7880  138.4470 C   0  0  1  0  0  3  0  0  0  0  0  0
  191.9410  176.0790  137.7490 N   0  0  0  0  0  2  0  0  0  0  0  0
  1 19  1  6  0  0  0
  1  6  1  0  0  0  0
  2  7  1  0  0  0  0
  3  7  2  0  0  0  0
  4  6  2  0  0  0  0
  4  5  1  0  0  0  0
  5  2  2  0  0  0  0
  6  3  1  0  0  0  0
  8  5  1  0  0  0  0
  8 10  1  0  0  0  0
  9  8  2  0  0  0  0
 10 11  1  0  0  0  0
 12 13  1  0  0  0  0
 13 16  2  0  0  0  0
 14  1  1  6  0  0  0
 14 12  1  0  0  0  0
 14 15  1  0  0  0  0
 15 17  2  0  0  0  0
 15 16  1  0  0  0  0
 18 19  2  0  0  0  0
 20 18  1  0  0  0  0
 21 22  1  0  0  0  0
 21 27  1  1  0  0  0
 22 29  1  1  0  0  0
 23 25  1  0  0  0  0
 23 24  1  1  0  0  0
 23 22  1  0  0  0  0
 26 21  1  0  0  0  0
 26 25  1  0  0  0  0
 27 28  1  0  0  0  0
 28 18  1  1  0  0  0
 29 28  1  0  0  0  0
M  END
>  <MODEL>
7

>  <REMARK>
 VINA RESULT:      -7.6      2.426      3.710
  Name = 
  5 active torsions:
  status: ('A' for Active; 'I' for Inactive)
    1  A    between atoms: C_6  and  C_29
    2  A    between atoms: C_9  and  C_11
    3  A    between atoms: C_12  and  C_26
    4  A    between atoms: N_14  and  C_29
    5  A    between atoms: C_19  and  C_29
                            x       y       z     vdW  Elec       q    Type
                         _______ _______ _______ _____ _____    ______ ____

>  <TORSDO>
F 5

$$$$
=
 OpenBabel10232412313D

 29 32  0  0  1  0  0  0  0  0999 V2000
  189.8190  177.1660  138.1120 C   0  0  1  0  0  3  0  0  0  0  0  0
  188.3910  173.4020  136.7040 N   0  0  0  0  0  0  0  0  0  0  0  0
  190.2240  174.8760  137.1070 C   0  0  0  0  0  3  0  0  0  0  0  0
  187.9680  175.5520  137.6350 C   0  0  0  0  0  3  0  0  0  0  0  0
  187.4960  174.3160  137.1780 C   0  0  0  0  0  0  0  0  0  0  0  0
  189.3340  175.8390  137.5970 C   0  0  0  0  0  0  0  0  0  0  0  0
  189.7270  173.6520  136.6590 C   0  0  0  0  0  3  0  0  0  0  0  0
  186.0560  173.9620  137.2070 C   0  0  0  0  0  0  0  0  0  0  0  0
  185.6550  173.1610  138.0930 O   0  0  0  0  0  0  0  0  0  0  0  0
  185.0860  174.4770  136.2810 N   0  0  0  0  0  2  0  0  0  0  0  0
  185.3610  175.3550  135.1550 C   0  0  0  0  0  1  0  0  0  0  0  0
  188.1930  179.0380  137.8790 N   0  0  0  0  0  2  0  0  0  0  0  0
  187.0980  178.9900  136.9690 N   0  0  0  0  0  0  0  0  0  0  0  0
  189.3530  178.3690  137.2710 C   0  0  2  0  0  3  0  0  0  0  0  0
  188.8790  177.9690  135.9550 C   0  0  0  0  0  0  0  0  0  0  0  0
  187.5480  178.3510  135.8040 N   0  0  0  0  0  0  0  0  0  0  0  0
  189.5530  177.3910  135.0640 O   0  0  0  0  0  0  0  0  0  0  0  0
  190.3130  177.4100  140.4620 C   0  0  0  0  0  0  0  0  0  0  0  0
  189.4550  177.3390  139.5030 N   0  0  0  0  0  0  0  0  0  0  0  0
  191.7910  177.2890  140.2120 C   0  0  0  0  0  1  0  0  0  0  0  0
  188.5260  176.4150  143.4850 C   0  0  1  0  0  3  0  0  0  0  0  0
  190.0040  176.2880  143.8080 C   0  0  2  0  0  3  0  0  0  0  0  0
  190.2130  176.8110  145.2200 C   0  0  1  0  0  3  0  0  0  0  0  0
  191.6070  177.1360  145.4730 N   0  0  0  0  0  1  0  0  0  0  0  0
  189.3450  178.0340  145.3850 C   0  0  0  0  0  2  0  0  0  0  0  0
  187.7620  177.6640  144.5790 S   0  0  0  0  0  0  0  0  0  0  0  0
  188.4840  176.8960  142.0610 C   0  0  0  0  0  2  0  0  0  0  0  0
  189.8100  177.5950  141.8590 C   0  0  1  0  0  3  0  0  0  0  0  0
  190.7640  177.0640  142.8270 N   0  0  0  0  0  2  0  0  0  0  0  0
  1 19  1  1  0  0  0
  2  5  1  0  0  0  0
  3  6  2  0  0  0  0
  5  8  1  0  0  0  0
  5  4  2  0  0  0  0
  6  4  1  0  0  0  0
  6  1  1  0  0  0  0
  7  2  2  0  0  0  0
  7  3  1  0  0  0  0
  8  9  2  0  0  0  0
 10  8  1  0  0  0  0
 11 10  1  0  0  0  0
 13 12  1  0  0  0  0
 14 12  1  0  0  0  0
 14  1  1  1  0  0  0
 15 14  1  0  0  0  0
 16 15  1  0  0  0  0
 16 13  2  0  0  0  0
 17 15  2  0  0  0  0
 19 18  2  0  0  0  0
 20 18  1  0  0  0  0
 21 27  1  6  0  0  0
 21 22  1  0  0  0  0
 21 26  1  0  0  0  0
 22 29  1  6  0  0  0
 22 23  1  0  0  0  0
 23 25  1  0  0  0  0
 23 24  1  6  0  0  0
 26 25  1  0  0  0  0
 28 18  1  6  0  0  0
 28 27  1  0  0  0  0
 28 29  1  0  0  0  0
M  END
>  <MODEL>
8

>  <REMARK>
 VINA RESULT:      -7.5      3.893      8.151
  Name = 
  5 active torsions:
  status: ('A' for Active; 'I' for Inactive)
    1  A    between atoms: C_6  and  C_29
    2  A    between atoms: C_9  and  C_11
    3  A    between atoms: C_12  and  C_26
    4  A    between atoms: N_14  and  C_29
    5  A    between atoms: C_19  and  C_29
                            x       y       z     vdW  Elec       q    Type
                         _______ _______ _______ _____ _____    ______ ____

>  <TORSDO>
F 5

$$$$
=
 OpenBabel10232412313D

 29 32  0  0  1  0  0  0  0  0999 V2000
  186.8930  178.0210  143.5010 C   0  0  1  0  0  3  0  0  0  0  0  0
  182.7920  179.1800  143.3270 N   0  0  0  0  0  0  0  0  0  0  0  0
  184.8310  179.0420  144.5600 C   0  0  0  0  0  3  0  0  0  0  0  0
  184.7040  178.1980  142.3020 C   0  0  0  0  0  3  0  0  0  0  0  0
  183.3600  178.5820  142.2400 C   0  0  0  0  0  0  0  0  0  0  0  0
  185.4450  178.4230  143.4650 C   0  0  0  0  0  0  0  0  0  0  0  0
  183.4900  179.4150  144.4710 C   0  0  0  0  0  3  0  0  0  0  0  0
  182.5350  178.3730  141.0250 C   0  0  0  0  0  0  0  0  0  0  0  0
  181.4510  177.7400  141.1390 O   0  0  0  0  0  0  0  0  0  0  0  0
  182.8980  178.8500  139.7200 N   0  0  0  0  0  2  0  0  0  0  0  0
  184.1320  179.5380  139.3740 C   0  0  0  0  0  1  0  0  0  0  0  0
  186.3840  177.2890  145.8260 N   0  0  0  0  0  2  0  0  0  0  0  0
  187.1950  177.6570  146.9370 N   0  0  0  0  0  0  0  0  0  0  0  0
  187.2460  177.0650  144.6550 C   0  0  2  0  0  3  0  0  0  0  0  0
  188.5910  177.2880  145.1610 C   0  0  0  0  0  0  0  0  0  0  0  0
  188.5300  177.6330  146.5090 N   0  0  0  0  0  0  0  0  0  0  0  0
  189.6620  177.1700  144.5100 O   0  0  0  0  0  0  0  0  0  0  0  0
  188.2380  177.9620  141.4970 C   0  0  0  0  0  0  0  0  0  0  0  0
  187.3010  177.4630  142.2290 N   0  0  0  0  0  0  0  0  0  0  0  0
  188.9810  179.2050  141.9020 C   0  0  0  0  0  1  0  0  0  0  0  0
  188.7380  177.8180  137.8840 C   0  0  1  0  0  3  0  0  0  0  0  0
  190.1230  177.7790  138.5030 C   0  0  2  0  0  3  0  0  0  0  0  0
  190.9470  176.7670  137.7240 C   0  0  1  0  0  3  0  0  0  0  0  0
  192.1180  176.3360  138.4700 N   0  0  0  0  0  1  0  0  0  0  0  0
  190.0520  175.5930  137.4150 C   0  0  0  0  0  2  0  0  0  0  0  0
  188.4350  176.2740  136.9550 S   0  0  0  0  0  0  0  0  0  0  0  0
  187.7960  177.8970  139.0540 C   0  0  0  0  0  2  0  0  0  0  0  0
  188.5690  177.2890  140.2020 C   0  0  1  0  0  3  0  0  0  0  0  0
  189.9940  177.4000  139.9110 N   0  0  0  0  0  2  0  0  0  0  0  0
  1 19  1  6  0  0  0
  2  7  1  0  0  0  0
  4  6  2  0  0  0  0
  5  4  1  0  0  0  0
  5  2  2  0  0  0  0
  6  1  1  0  0  0  0
  6  3  1  0  0  0  0
  7  3  2  0  0  0  0
  8  9  2  0  0  0  0
  8  5  1  0  0  0  0
 10  8  1  0  0  0  0
 11 10  1  0  0  0  0
 12 13  1  0  0  0  0
 14  1  1  6  0  0  0
 14 15  1  0  0  0  0
 14 12  1  0  0  0  0
 15 16  1  0  0  0  0
 16 13  2  0  0  0  0
 17 15  2  0  0  0  0
 18 20  1  0  0  0  0
 18 19  2  0  0  0  0
 21 22  1  0  0  0  0
 21 27  1  1  0  0  0
 22 29  1  1  0  0  0
 23 24  1  1  0  0  0
 23 22  1  0  0  0  0
 25 23  1  0  0  0  0
 26 25  1  0  0  0  0
 26 21  1  0  0  0  0
 27 28  1  0  0  0  0
 28 18  1  1  0  0  0
 29 28  1  0  0  0  0
M  END
>  <MODEL>
9

>  <REMARK>
 VINA RESULT:      -7.4      1.989      2.967
  Name = 
  5 active torsions:
  status: ('A' for Active; 'I' for Inactive)
    1  A    between atoms: C_6  and  C_29
    2  A    between atoms: C_9  and  C_11
    3  A    between atoms: C_12  and  C_26
    4  A    between atoms: N_14  and  C_29
    5  A    between atoms: C_19  and  C_29
                            x       y       z     vdW  Elec       q    Type
                         _______ _______ _______ _____ _____    ______ ____

>  <TORSDO>
F 5

$$$$
