=
 OpenBabel10222421323D

 34 38  0  0  1  0  0  0  0  0999 V2000
  188.3390  178.7370  138.3270 C   0  0  0  0  0  3  0  0  0  0  0  0
  190.2520  176.6840  138.3430 C   0  0  0  0  0  0  0  0  0  0  0  0
  190.2300  176.6450  135.9100 C   0  0  0  0  0  0  0  0  0  0  0  0
  189.7780  177.2130  139.5650 C   0  0  0  0  0  0  0  0  0  0  0  0
  191.1570  175.6500  135.9320 N   0  0  0  0  0  0  0  0  0  0  0  0
  188.8200  178.2510  139.5460 C   0  0  0  0  0  0  0  0  0  0  0  0
  189.7540  177.1860  137.1170 C   0  0  0  0  0  0  0  0  0  0  0  0
  191.6520  175.1540  137.0970 C   0  0  0  0  0  3  0  0  0  0  0  0
  188.8000  178.2110  137.1220 C   0  0  0  0  0  3  0  0  0  0  0  0
  191.2090  175.6590  138.3190 C   0  0  0  0  0  3  0  0  0  0  0  0
  189.7450  177.1170  134.6550 N   0  0  0  0  0  1  0  0  0  0  0  0
  190.2980  176.6850  140.8720 C   0  0  0  0  0  2  0  0  0  0  0  0
  191.4930  177.4990  141.3320 C   0  0  0  0  0  2  0  0  0  0  0  0
  191.9620  177.0030  142.6870 C   0  0  0  0  0  2  0  0  0  0  0  0
  191.0700  176.7610  144.9610 C   0  0  2  0  0  3  0  0  0  0  0  0
  191.9790  177.8400  144.9250 O   0  0  0  0  0  0  0  0  0  0  0  0
  191.1640  177.6700  143.7930 C   0  0  1  0  0  3  0  0  0  0  0  0
  187.6290  177.7090  147.3860 C   0  0  0  0  0  3  0  0  0  0  0  0
  189.8810  177.1120  145.8150 C   0  0  0  0  0  0  0  0  0  0  0  0
  191.2720  177.1530  147.8560 N   0  0  0  0  0  1  0  0  0  0  0  0
  188.4390  177.0070  143.8950 F   0  0  0  0  0  0  0  0  0  0  0  0
  188.8860  177.5960  147.9830 C   0  0  0  0  0  3  0  0  0  0  0  0
  190.0080  177.2870  147.2100 C   0  0  0  0  0  0  0  0  0  0  0  0
  188.6040  177.2050  145.2280 C   0  0  0  0  0  0  0  0  0  0  0  0
  187.4890  177.5090  146.0110 C   0  0  0  0  0  3  0  0  0  0  0  0
  188.2860  178.8470  140.8130 C   0  0  0  0  0  2  0  0  0  0  0  0
  186.1960  178.5270  142.1930 N   0  0  0  0  0  2  0  0  0  0  0  0
  184.7940  178.3460  142.4420 C   0  0  0  0  0  0  0  0  0  0  0  0
  186.1240  178.6080  139.8500 O   0  0  0  0  0  0  0  0  0  0  0  0
  183.9380  178.4130  141.4740 N   0  0  0  0  0  2  0  0  0  0  0  0
  186.8110  178.6500  140.9060 C   0  0  0  0  0  0  0  0  0  0  0  0
  184.8260  179.4280  144.6470 C   0  0  0  0  0  2  0  0  0  0  0  0
  183.3900  179.4240  144.1800 C   0  0  0  0  0  2  0  0  0  0  0  0
  184.2950  178.2520  143.8470 C   0  0  0  0  0  3  0  0  0  0  0  0
  1  6  1  0  0  0  0
  2  4  1  0  0  0  0
  3  5  2  0  0  0  0
  3  7  1  0  0  0  0
  4 12  1  0  0  0  0
  5  8  1  0  0  0  0
  6  4  2  0  0  0  0
  6 26  1  0  0  0  0
  7  9  1  0  0  0  0
  7  2  2  0  0  0  0
  8 10  2  0  0  0  0
  9  1  2  0  0  0  0
 10  2  1  0  0  0  0
 11  3  1  0  0  0  0
 12 13  1  0  0  0  0
 13 14  1  0  0  0  0
 15 19  1  1  0  0  0
 16 15  1  0  0  0  0
 17 14  1  6  0  0  0
 17 16  1  0  0  0  0
 17 15  1  0  0  0  0
 18 22  1  0  0  0  0
 19 23  1  0  0  0  0
 21 24  1  0  0  0  0
 23 20  1  0  0  0  0
 23 22  2  0  0  0  0
 24 19  2  0  0  0  0
 24 25  1  0  0  0  0
 25 18  2  0  0  0  0
 26 31  1  0  0  0  0
 27 28  1  0  0  0  0
 28 34  1  0  0  0  0
 29 31  2  0  0  0  0
 30 28  2  0  0  0  0
 31 27  1  0  0  0  0
 33 32  1  0  0  0  0
 34 33  1  0  0  0  0
 34 32  1  0  0  0  0
M  END
>  <MODEL>
1

>  <REMARK>
 VINA RESULT:      -9.1      0.000      0.000
  Name = 
  8 active torsions:
  status: ('A' for Active; 'I' for Inactive)
    1  A    between atoms: C_1  and  C_8
    2  A    between atoms: C_9  and  C_11
    3  A    between atoms: C_9  and  C_14
    4  A    between atoms: C_11  and  C_26
    5  A    between atoms: C_16  and  C_17
    6  A    between atoms: C_17  and  C_28
    7  A    between atoms: C_20  and  C_26
    8  A    between atoms: C_21  and  C_33
                            x       y       z     vdW  Elec       q    Type
                         _______ _______ _______ _____ _____    ______ ____

>  <TORSDO>
F 8

$$$$
=
 OpenBabel10222421323D

 34 38  0  0  1  0  0  0  0  0999 V2000
  189.9270  176.7350  144.2970 C   0  0  0  0  0  3  0  0  0  0  0  0
  188.3990  177.5160  146.5180 C   0  0  0  0  0  0  0  0  0  0  0  0
  190.4160  177.5990  147.8770 C   0  0  0  0  0  0  0  0  0  0  0  0
  187.7640  177.2720  145.2790 C   0  0  0  0  0  0  0  0  0  0  0  0
  189.6630  177.9770  148.9450 N   0  0  0  0  0  0  0  0  0  0  0  0
  188.5430  176.8860  144.1660 C   0  0  0  0  0  0  0  0  0  0  0  0
  189.8010  177.3600  146.6360 C   0  0  0  0  0  0  0  0  0  0  0  0
  188.3170  178.1370  148.8550 C   0  0  0  0  0  3  0  0  0  0  0  0
  190.5520  176.9700  145.5210 C   0  0  0  0  0  3  0  0  0  0  0  0
  187.6620  177.9090  147.6440 C   0  0  0  0  0  3  0  0  0  0  0  0
  191.8250  177.4420  148.0370 N   0  0  0  0  0  1  0  0  0  0  0  0
  186.2770  177.4330  145.1450 C   0  0  0  0  0  2  0  0  0  0  0  0
  185.8880  178.8910  145.3000 C   0  0  0  0  0  2  0  0  0  0  0  0
  184.3790  179.0320  145.2260 C   0  0  0  0  0  2  0  0  0  0  0  0
  183.3950  178.3980  143.0690 C   0  0  2  0  0  3  0  0  0  0  0  0
  182.5780  179.3650  143.6930 O   0  0  0  0  0  0  0  0  0  0  0  0
  183.9650  179.5220  143.8500 C   0  0  1  0  0  3  0  0  0  0  0  0
  183.7150  179.1340  138.8290 C   0  0  0  0  0  3  0  0  0  0  0  0
  183.4910  178.6740  141.5920 C   0  0  0  0  0  0  0  0  0  0  0  0
  181.0480  178.4300  141.3180 N   0  0  0  0  0  1  0  0  0  0  0  0
  185.8840  178.8400  141.7530 F   0  0  0  0  0  0  0  0  0  0  0  0
  182.4600  178.9170  139.4010 C   0  0  0  0  0  3  0  0  0  0  0  0
  182.3420  178.6740  140.7720 C   0  0  0  0  0  0  0  0  0  0  0  0
  184.7540  178.8710  141.0000 C   0  0  0  0  0  0  0  0  0  0  0  0
  184.8600  179.1060  139.6280 C   0  0  0  0  0  3  0  0  0  0  0  0
  187.9210  176.6150  142.8300 C   0  0  0  0  0  2  0  0  0  0  0  0
  188.6660  177.6190  140.6360 N   0  0  0  0  0  2  0  0  0  0  0  0
  189.5440  177.8590  139.5250 C   0  0  0  0  0  0  0  0  0  0  0  0
  190.0110  176.1020  141.8170 O   0  0  0  0  0  0  0  0  0  0  0  0
  190.7430  177.3750  139.5160 N   0  0  0  0  0  2  0  0  0  0  0  0
  188.9310  176.7480  141.7410 C   0  0  0  0  0  0  0  0  0  0  0  0
  189.3830  178.1760  137.0950 C   0  0  0  0  0  2  0  0  0  0  0  0
  187.9780  178.2560  137.6420 C   0  0  0  0  0  2  0  0  0  0  0  0
  189.1360  178.8130  138.4500 C   0  0  0  0  0  3  0  0  0  0  0  0
  1  9  1  0  0  0  0
  2  7  1  0  0  0  0
  2 10  1  0  0  0  0
  3 11  1  0  0  0  0
  3  5  2  0  0  0  0
  4  2  2  0  0  0  0
  6  1  2  0  0  0  0
  6  4  1  0  0  0  0
  7  3  1  0  0  0  0
  8  5  1  0  0  0  0
  9  7  2  0  0  0  0
 10  8  2  0  0  0  0
 12  4  1  0  0  0  0
 12 13  1  0  0  0  0
 14 13  1  0  0  0  0
 15 19  1  6  0  0  0
 15 16  1  0  0  0  0
 15 17  1  0  0  0  0
 16 17  1  0  0  0  0
 17 14  1  1  0  0  0
 18 22  2  0  0  0  0
 18 25  1  0  0  0  0
 22 23  1  0  0  0  0
 23 20  1  0  0  0  0
 23 19  2  0  0  0  0
 24 19  1  0  0  0  0
 24 21  1  0  0  0  0
 25 24  2  0  0  0  0
 26  6  1  0  0  0  0
 27 31  1  0  0  0  0
 28 27  1  0  0  0  0
 30 28  2  0  0  0  0
 31 29  2  0  0  0  0
 31 26  1  0  0  0  0
 32 33  1  0  0  0  0
 32 34  1  0  0  0  0
 33 34  1  0  0  0  0
 34 28  1  0  0  0  0
M  END
>  <MODEL>
2

>  <REMARK>
 VINA RESULT:      -9.1      2.343      8.443
  Name = 
  8 active torsions:
  status: ('A' for Active; 'I' for Inactive)
    1  A    between atoms: C_1  and  C_8
    2  A    between atoms: C_9  and  C_11
    3  A    between atoms: C_9  and  C_14
    4  A    between atoms: C_11  and  C_26
    5  A    between atoms: C_16  and  C_17
    6  A    between atoms: C_17  and  C_28
    7  A    between atoms: C_20  and  C_26
    8  A    between atoms: C_21  and  C_33
                            x       y       z     vdW  Elec       q    Type
                         _______ _______ _______ _____ _____    ______ ____

>  <TORSDO>
F 8

$$$$
=
 OpenBabel10222421323D

 34 38  0  0  1  0  0  0  0  0999 V2000
  187.7140  177.6510  144.1980 C   0  0  0  0  0  3  0  0  0  0  0  0
  190.2780  176.8880  145.0460 C   0  0  0  0  0  0  0  0  0  0  0  0
  189.6460  177.3300  147.3550 C   0  0  0  0  0  0  0  0  0  0  0  0
  189.9560  176.8640  143.6700 C   0  0  0  0  0  0  0  0  0  0  0  0
  190.8930  176.9580  147.7510 N   0  0  0  0  0  0  0  0  0  0  0  0
  188.6600  177.2430  143.2550 C   0  0  0  0  0  0  0  0  0  0  0  0
  189.3090  177.3040  145.9900 C   0  0  0  0  0  0  0  0  0  0  0  0
  191.8390  176.5520  146.8640 C   0  0  0  0  0  3  0  0  0  0  0  0
  188.0330  177.6820  145.5550 C   0  0  0  0  0  3  0  0  0  0  0  0
  191.5500  176.5110  145.5000 C   0  0  0  0  0  3  0  0  0  0  0  0
  188.7000  177.7520  148.3350 N   0  0  0  0  0  1  0  0  0  0  0  0
  190.9790  176.4270  142.6600 C   0  0  0  0  0  2  0  0  0  0  0  0
  191.6340  177.6350  142.0160 C   0  0  0  0  0  2  0  0  0  0  0  0
  191.9730  177.3260  140.5700 C   0  0  0  0  0  2  0  0  0  0  0  0
  191.0130  176.9400  138.3440 C   0  0  2  0  0  3  0  0  0  0  0  0
  190.8810  175.7710  139.1230 O   0  0  0  0  0  0  0  0  0  0  0  0
  190.7110  176.9930  139.7960 C   0  0  1  0  0  3  0  0  0  0  0  0
  187.4630  177.6540  135.9960 C   0  0  0  0  0  3  0  0  0  0  0  0
  189.7660  177.1680  137.5320 C   0  0  0  0  0  0  0  0  0  0  0  0
  190.1350  175.0840  136.2570 N   0  0  0  0  0  1  0  0  0  0  0  0
  189.3790  179.2530  138.6630 F   0  0  0  0  0  0  0  0  0  0  0  0
  188.2190  176.5010  135.7760 C   0  0  0  0  0  3  0  0  0  0  0  0
  189.3720  176.2580  136.5260 C   0  0  0  0  0  0  0  0  0  0  0  0
  189.0090  178.3390  137.7300 C   0  0  0  0  0  0  0  0  0  0  0  0
  187.8620  178.5730  136.9690 C   0  0  0  0  0  3  0  0  0  0  0  0
  188.2680  177.2340  141.8080 C   0  0  0  0  0  2  0  0  0  0  0  0
  185.9490  177.9550  142.5010 N   0  0  0  0  0  2  0  0  0  0  0  0
  184.7200  178.6940  142.4280 C   0  0  0  0  0  0  0  0  0  0  0  0
  187.0090  178.8610  140.6140 O   0  0  0  0  0  0  0  0  0  0  0  0
  184.5720  179.6450  141.5630 N   0  0  0  0  0  2  0  0  0  0  0  0
  187.0480  178.0640  141.5900 C   0  0  0  0  0  0  0  0  0  0  0  0
  184.3080  178.5010  144.8410 C   0  0  0  0  0  2  0  0  0  0  0  0
  183.5360  179.7060  144.3590 C   0  0  0  0  0  2  0  0  0  0  0  0
  183.6660  178.4850  143.4660 C   0  0  0  0  0  3  0  0  0  0  0  0
  1  9  1  0  0  0  0
  2 10  1  0  0  0  0
  2  7  1  0  0  0  0
  3  5  2  0  0  0  0
  3 11  1  0  0  0  0
  4  2  2  0  0  0  0
  6  4  1  0  0  0  0
  6  1  2  0  0  0  0
  7  3  1  0  0  0  0
  8  5  1  0  0  0  0
  9  7  2  0  0  0  0
 10  8  2  0  0  0  0
 12  4  1  0  0  0  0
 13 12  1  0  0  0  0
 14 13  1  0  0  0  0
 15 19  1  6  0  0  0
 15 16  1  0  0  0  0
 15 17  1  0  0  0  0
 16 17  1  0  0  0  0
 17 14  1  1  0  0  0
 18 25  1  0  0  0  0
 19 24  1  0  0  0  0
 20 23  1  0  0  0  0
 22 18  2  0  0  0  0
 22 23  1  0  0  0  0
 23 19  2  0  0  0  0
 24 21  1  0  0  0  0
 25 24  2  0  0  0  0
 26  6  1  0  0  0  0
 28 27  1  0  0  0  0
 28 34  1  0  0  0  0
 29 31  2  0  0  0  0
 30 28  2  0  0  0  0
 31 26  1  0  0  0  0
 31 27  1  0  0  0  0
 33 32  1  0  0  0  0
 34 33  1  0  0  0  0
 34 32  1  0  0  0  0
M  END
>  <MODEL>
3

>  <REMARK>
 VINA RESULT:      -8.7      1.855      7.221
  Name = 
  8 active torsions:
  status: ('A' for Active; 'I' for Inactive)
    1  A    between atoms: C_1  and  C_8
    2  A    between atoms: C_9  and  C_11
    3  A    between atoms: C_9  and  C_14
    4  A    between atoms: C_11  and  C_26
    5  A    between atoms: C_16  and  C_17
    6  A    between atoms: C_17  and  C_28
    7  A    between atoms: C_20  and  C_26
    8  A    between atoms: C_21  and  C_33
                            x       y       z     vdW  Elec       q    Type
                         _______ _______ _______ _____ _____    ______ ____

>  <TORSDO>
F 8

$$$$
=
 OpenBabel10222421323D

 34 38  0  0  1  0  0  0  0  0999 V2000
  185.1960  178.9880  143.0040 C   0  0  0  0  0  3  0  0  0  0  0  0
  187.2540  177.7270  144.4360 C   0  0  0  0  0  0  0  0  0  0  0  0
  186.1730  178.3400  146.5290 C   0  0  0  0  0  0  0  0  0  0  0  0
  187.2860  177.7400  143.0230 C   0  0  0  0  0  0  0  0  0  0  0  0
  187.1780  177.7250  147.2100 N   0  0  0  0  0  0  0  0  0  0  0  0
  186.2420  178.3720  142.3120 C   0  0  0  0  0  0  0  0  0  0  0  0
  186.1870  178.3550  145.1240 C   0  0  0  0  0  0  0  0  0  0  0  0
  188.2100  177.1120  146.5720 C   0  0  0  0  0  3  0  0  0  0  0  0
  185.1670  178.9810  144.3980 C   0  0  0  0  0  3  0  0  0  0  0  0
  188.2670  177.1030  145.1790 C   0  0  0  0  0  3  0  0  0  0  0  0
  185.1220  178.9710  147.2570 N   0  0  0  0  0  1  0  0  0  0  0  0
  188.4150  177.0790  142.2850 C   0  0  0  0  0  2  0  0  0  0  0  0
  189.6190  178.0010  142.2250 C   0  0  0  0  0  2  0  0  0  0  0  0
  190.5520  177.5570  141.1140 C   0  0  0  0  0  2  0  0  0  0  0  0
  190.4170  177.2160  138.6870 C   0  0  2  0  0  3  0  0  0  0  0  0
  190.5510  175.9680  139.3310 O   0  0  0  0  0  0  0  0  0  0  0  0
  189.7580  176.9270  139.9840 C   0  0  1  0  0  3  0  0  0  0  0  0
  187.5540  176.8740  135.4760 C   0  0  0  0  0  3  0  0  0  0  0  0
  189.4300  177.1140  137.5540 C   0  0  0  0  0  0  0  0  0  0  0  0
  188.8700  179.5130  137.7360 N   0  0  0  0  0  1  0  0  0  0  0  0
  189.8500  174.7550  137.3680 F   0  0  0  0  0  0  0  0  0  0  0  0
  187.7710  178.1130  136.0810 C   0  0  0  0  0  3  0  0  0  0  0  0
  188.6930  178.2380  137.1230 C   0  0  0  0  0  0  0  0  0  0  0  0
  189.1860  175.8640  136.9530 C   0  0  0  0  0  0  0  0  0  0  0  0
  188.2580  175.7500  135.9160 C   0  0  0  0  0  3  0  0  0  0  0  0
  186.2280  178.4140  140.8140 C   0  0  0  0  0  2  0  0  0  0  0  0
  183.7680  177.9410  140.4950 N   0  0  0  0  0  2  0  0  0  0  0  0
  182.4180  178.1980  140.0790 C   0  0  0  0  0  0  0  0  0  0  0  0
  184.7470  179.9370  139.7450 O   0  0  0  0  0  0  0  0  0  0  0  0
  182.0830  179.3520  139.6010 N   0  0  0  0  0  2  0  0  0  0  0  0
  184.8840  178.8200  140.3120 C   0  0  0  0  0  0  0  0  0  0  0  0
  180.2650  177.3070  139.3030 C   0  0  0  0  0  2  0  0  0  0  0  0
  181.2600  176.1740  139.2310 C   0  0  0  0  0  2  0  0  0  0  0  0
  181.3510  177.1890  140.3570 C   0  0  0  0  0  3  0  0  0  0  0  0
  1  9  1  0  0  0  0
  2  7  1  0  0  0  0
  2 10  1  0  0  0  0
  3  5  2  0  0  0  0
  3 11  1  0  0  0  0
  4  2  2  0  0  0  0
  6  1  2  0  0  0  0
  6  4  1  0  0  0  0
  7  3  1  0  0  0  0
  8  5  1  0  0  0  0
  9  7  2  0  0  0  0
 10  8  2  0  0  0  0
 12  4  1  0  0  0  0
 13 12  1  0  0  0  0
 14 13  1  0  0  0  0
 15 19  1  6  0  0  0
 15 16  1  0  0  0  0
 15 17  1  0  0  0  0
 16 17  1  0  0  0  0
 17 14  1  1  0  0  0
 18 25  2  0  0  0  0
 18 22  1  0  0  0  0
 22 23  2  0  0  0  0
 23 19  1  0  0  0  0
 23 20  1  0  0  0  0
 24 21  1  0  0  0  0
 24 19  2  0  0  0  0
 25 24  1  0  0  0  0
 26  6  1  0  0  0  0
 28 34  1  0  0  0  0
 28 27  1  0  0  0  0
 29 31  2  0  0  0  0
 30 28  2  0  0  0  0
 31 27  1  0  0  0  0
 31 26  1  0  0  0  0
 32 34  1  0  0  0  0
 33 32  1  0  0  0  0
 33 34  1  0  0  0  0
M  END
>  <MODEL>
4

>  <REMARK>
 VINA RESULT:      -8.7      2.904      7.565
  Name = 
  8 active torsions:
  status: ('A' for Active; 'I' for Inactive)
    1  A    between atoms: C_1  and  C_8
    2  A    between atoms: C_9  and  C_11
    3  A    between atoms: C_9  and  C_14
    4  A    between atoms: C_11  and  C_26
    5  A    between atoms: C_16  and  C_17
    6  A    between atoms: C_17  and  C_28
    7  A    between atoms: C_20  and  C_26
    8  A    between atoms: C_21  and  C_33
                            x       y       z     vdW  Elec       q    Type
                         _______ _______ _______ _____ _____    ______ ____

>  <TORSDO>
F 8

$$$$
=
 OpenBabel10222421323D

 34 38  0  0  1  0  0  0  0  0999 V2000
  186.2220  178.0320  145.3910 C   0  0  0  0  0  3  0  0  0  0  0  0
  188.9230  177.2730  145.4130 C   0  0  0  0  0  0  0  0  0  0  0  0
  189.0120  177.6590  147.8140 C   0  0  0  0  0  0  0  0  0  0  0  0
  188.2040  177.2760  144.1960 C   0  0  0  0  0  0  0  0  0  0  0  0
  190.3220  177.2890  147.8100 N   0  0  0  0  0  0  0  0  0  0  0  0
  186.8420  177.6530  144.1970 C   0  0  0  0  0  0  0  0  0  0  0  0
  188.2810  177.6600  146.6140 C   0  0  0  0  0  0  0  0  0  0  0  0
  190.9580  176.9100  146.6700 C   0  0  0  0  0  3  0  0  0  0  0  0
  186.9330  178.0370  146.5900 C   0  0  0  0  0  3  0  0  0  0  0  0
  190.2730  176.8970  145.4550 C   0  0  0  0  0  3  0  0  0  0  0  0
  188.4030  178.0530  149.0420 N   0  0  0  0  0  1  0  0  0  0  0  0
  188.8770  176.8690  142.9170 C   0  0  0  0  0  2  0  0  0  0  0  0
  189.8990  177.9120  142.5040 C   0  0  0  0  0  2  0  0  0  0  0  0
  190.6990  177.4070  141.3170 C   0  0  0  0  0  2  0  0  0  0  0  0
  189.9720  177.6960  138.9910 C   0  0  2  0  0  3  0  0  0  0  0  0
  190.5170  176.4050  139.1560 O   0  0  0  0  0  0  0  0  0  0  0  0
  189.7640  176.9080  140.2300 C   0  0  1  0  0  3  0  0  0  0  0  0
  186.4630  177.5910  136.4810 C   0  0  0  0  0  3  0  0  0  0  0  0
  188.7520  177.6360  138.1100 C   0  0  0  0  0  0  0  0  0  0  0  0
  190.0970  176.8760  136.1820 N   0  0  0  0  0  1  0  0  0  0  0  0
  187.3830  178.4560  139.9080 F   0  0  0  0  0  0  0  0  0  0  0  0
  187.7000  177.2120  135.9570 C   0  0  0  0  0  3  0  0  0  0  0  0
  188.8450  177.2440  136.7570 C   0  0  0  0  0  0  0  0  0  0  0  0
  187.5030  178.0380  138.6220 C   0  0  0  0  0  0  0  0  0  0  0  0
  186.3670  178.0080  137.8100 C   0  0  0  0  0  3  0  0  0  0  0  0
  186.0340  177.6720  142.9360 C   0  0  0  0  0  2  0  0  0  0  0  0
  183.6170  178.1850  143.4550 N   0  0  0  0  0  2  0  0  0  0  0  0
  182.4460  179.0010  143.6170 C   0  0  0  0  0  0  0  0  0  0  0  0
  185.1170  179.8620  142.7920 O   0  0  0  0  0  0  0  0  0  0  0  0
  182.5210  180.2890  143.5230 N   0  0  0  0  0  2  0  0  0  0  0  0
  184.9100  178.6450  143.0460 C   0  0  0  0  0  0  0  0  0  0  0  0
  180.0100  179.2950  143.7100 C   0  0  0  0  0  2  0  0  0  0  0  0
  180.2720  178.0580  142.8840 C   0  0  0  0  0  2  0  0  0  0  0  0
  181.1650  178.3790  144.0690 C   0  0  0  0  0  3  0  0  0  0  0  0
  1  9  1  0  0  0  0
  2 10  1  0  0  0  0
  2  7  1  0  0  0  0
  3 11  1  0  0  0  0
  4  6  1  0  0  0  0
  4  2  2  0  0  0  0
  5  3  2  0  0  0  0
  6  1  2  0  0  0  0
  7  3  1  0  0  0  0
  8  5  1  0  0  0  0
  9  7  2  0  0  0  0
 10  8  2  0  0  0  0
 12  4  1  0  0  0  0
 13 12  1  0  0  0  0
 14 13  1  0  0  0  0
 15 19  1  6  0  0  0
 15 16  1  0  0  0  0
 15 17  1  0  0  0  0
 16 17  1  0  0  0  0
 17 14  1  1  0  0  0
 18 25  1  0  0  0  0
 19 24  1  0  0  0  0
 20 23  1  0  0  0  0
 22 18  2  0  0  0  0
 22 23  1  0  0  0  0
 23 19  2  0  0  0  0
 24 21  1  0  0  0  0
 25 24  2  0  0  0  0
 26 31  1  0  0  0  0
 26  6  1  0  0  0  0
 27 28  1  0  0  0  0
 28 34  1  0  0  0  0
 29 31  2  0  0  0  0
 30 28  2  0  0  0  0
 31 27  1  0  0  0  0
 32 34  1  0  0  0  0
 33 32  1  0  0  0  0
 33 34  1  0  0  0  0
M  END
>  <MODEL>
5

>  <REMARK>
 VINA RESULT:      -8.6      2.152      7.487
  Name = 
  8 active torsions:
  status: ('A' for Active; 'I' for Inactive)
    1  A    between atoms: C_1  and  C_8
    2  A    between atoms: C_9  and  C_11
    3  A    between atoms: C_9  and  C_14
    4  A    between atoms: C_11  and  C_26
    5  A    between atoms: C_16  and  C_17
    6  A    between atoms: C_17  and  C_28
    7  A    between atoms: C_20  and  C_26
    8  A    between atoms: C_21  and  C_33
                            x       y       z     vdW  Elec       q    Type
                         _______ _______ _______ _____ _____    ______ ____

>  <TORSDO>
F 8

$$$$
=
 OpenBabel10222421323D

 34 38  0  0  1  0  0  0  0  0999 V2000
  190.0580  176.5580  144.2290 C   0  0  0  0  0  3  0  0  0  0  0  0
  188.3330  177.4570  146.2530 C   0  0  0  0  0  0  0  0  0  0  0  0
  190.2170  177.6230  147.7840 C   0  0  0  0  0  0  0  0  0  0  0  0
  187.8150  177.1410  144.9760 C   0  0  0  0  0  0  0  0  0  0  0  0
  189.3700  178.0580  148.7560 N   0  0  0  0  0  0  0  0  0  0  0  0
  188.6920  176.6960  143.9630 C   0  0  0  0  0  0  0  0  0  0  0  0
  189.7180  177.3120  146.5080 C   0  0  0  0  0  0  0  0  0  0  0  0
  188.0370  178.2070  148.5330 C   0  0  0  0  0  3  0  0  0  0  0  0
  190.5680  176.8630  145.4900 C   0  0  0  0  0  3  0  0  0  0  0  0
  187.4970  177.9090  147.2830 C   0  0  0  0  0  3  0  0  0  0  0  0
  191.6050  177.4800  148.0820 N   0  0  0  0  0  1  0  0  0  0  0  0
  186.3470  177.2880  144.6970 C   0  0  0  0  0  2  0  0  0  0  0  0
  186.0300  178.7120  144.2770 C   0  0  0  0  0  2  0  0  0  0  0  0
  184.6790  178.7560  143.5880 C   0  0  0  0  0  2  0  0  0  0  0  0
  184.1540  178.9910  141.2020 C   0  0  2  0  0  3  0  0  0  0  0  0
  185.5520  178.8980  141.3690 O   0  0  0  0  0  0  0  0  0  0  0  0
  184.7660  178.1030  142.2210 C   0  0  1  0  0  3  0  0  0  0  0  0
  182.8550  176.7600  137.7440 C   0  0  0  0  0  3  0  0  0  0  0  0
  183.7210  178.1990  139.9970 C   0  0  0  0  0  0  0  0  0  0  0  0
  185.7880  178.7910  138.7800 N   0  0  0  0  0  1  0  0  0  0  0  0
  181.6440  177.6480  141.0730 F   0  0  0  0  0  0  0  0  0  0  0  0
  184.0950  177.4000  137.7290 C   0  0  0  0  0  3  0  0  0  0  0  0
  184.5280  178.1280  138.8400 C   0  0  0  0  0  0  0  0  0  0  0  0
  182.4610  177.5690  139.9920 C   0  0  0  0  0  0  0  0  0  0  0  0
  182.0380  176.8490  138.8730 C   0  0  0  0  0  3  0  0  0  0  0  0
  188.1950  176.3490  142.5930 C   0  0  0  0  0  2  0  0  0  0  0  0
  188.9660  176.9960  140.2770 N   0  0  0  0  0  2  0  0  0  0  0  0
  189.3660  177.8800  139.2190 C   0  0  0  0  0  0  0  0  0  0  0  0
  188.6070  178.6010  141.9500 O   0  0  0  0  0  0  0  0  0  0  0  0
  189.2980  179.1630  139.3690 N   0  0  0  0  0  2  0  0  0  0  0  0
  188.6020  177.3890  141.6050 C   0  0  0  0  0  0  0  0  0  0  0  0
  189.1180  175.9260  137.7510 C   0  0  0  0  0  2  0  0  0  0  0  0
  188.4410  177.0850  137.0580 C   0  0  0  0  0  2  0  0  0  0  0  0
  189.7000  177.3230  137.8730 C   0  0  0  0  0  3  0  0  0  0  0  0
  1  9  1  0  0  0  0
  2  7  1  0  0  0  0
  2 10  1  0  0  0  0
  3 11  1  0  0  0  0
  3  5  2  0  0  0  0
  4  2  2  0  0  0  0
  6  1  2  0  0  0  0
  6  4  1  0  0  0  0
  7  3  1  0  0  0  0
  8  5  1  0  0  0  0
  9  7  2  0  0  0  0
 10  8  2  0  0  0  0
 12  4  1  0  0  0  0
 13 12  1  0  0  0  0
 14 13  1  0  0  0  0
 15 19  1  6  0  0  0
 15 16  1  0  0  0  0
 15 17  1  0  0  0  0
 16 17  1  0  0  0  0
 17 14  1  1  0  0  0
 18 25  1  0  0  0  0
 20 23  1  0  0  0  0
 22 18  2  0  0  0  0
 22 23  1  0  0  0  0
 23 19  2  0  0  0  0
 24 19  1  0  0  0  0
 24 21  1  0  0  0  0
 25 24  2  0  0  0  0
 26  6  1  0  0  0  0
 27 31  1  0  0  0  0
 28 30  2  0  0  0  0
 28 27  1  0  0  0  0
 31 29  2  0  0  0  0
 31 26  1  0  0  0  0
 32 34  1  0  0  0  0
 33 32  1  0  0  0  0
 33 34  1  0  0  0  0
 34 28  1  0  0  0  0
M  END
>  <MODEL>
6

>  <REMARK>
 VINA RESULT:      -8.6      2.690      8.466
  Name = 
  8 active torsions:
  status: ('A' for Active; 'I' for Inactive)
    1  A    between atoms: C_1  and  C_8
    2  A    between atoms: C_9  and  C_11
    3  A    between atoms: C_9  and  C_14
    4  A    between atoms: C_11  and  C_26
    5  A    between atoms: C_16  and  C_17
    6  A    between atoms: C_17  and  C_28
    7  A    between atoms: C_20  and  C_26
    8  A    between atoms: C_21  and  C_33
                            x       y       z     vdW  Elec       q    Type
                         _______ _______ _______ _____ _____    ______ ____

>  <TORSDO>
F 8

$$$$
=
 OpenBabel10222421323D

 34 38  0  0  1  0  0  0  0  0999 V2000
  186.4300  176.4860  137.0840 C   0  0  0  0  0  3  0  0  0  0  0  0
  189.0840  176.2350  137.9640 C   0  0  0  0  0  0  0  0  0  0  0  0
  189.2220  174.0410  136.9200 C   0  0  0  0  0  0  0  0  0  0  0  0
  188.3460  177.4000  138.2750 C   0  0  0  0  0  0  0  0  0  0  0  0
  190.5080  173.9330  137.3530 N   0  0  0  0  0  0  0  0  0  0  0  0
  187.0140  177.5190  137.8220 C   0  0  0  0  0  0  0  0  0  0  0  0
  188.4790  175.1970  137.2160 C   0  0  0  0  0  0  0  0  0  0  0  0
  191.1100  174.9180  138.0690 C   0  0  0  0  0  3  0  0  0  0  0  0
  187.1540  175.3330  136.7830 C   0  0  0  0  0  3  0  0  0  0  0  0
  190.4110  176.0830  138.3870 C   0  0  0  0  0  3  0  0  0  0  0  0
  188.6440  172.9690  136.1780 N   0  0  0  0  0  1  0  0  0  0  0  0
  188.9780  178.5070  139.0700 C   0  0  0  0  0  2  0  0  0  0  0  0
  188.5830  178.3990  140.5320 C   0  0  0  0  0  2  0  0  0  0  0  0
  189.6550  177.6480  141.3000 C   0  0  0  0  0  2  0  0  0  0  0  0
  189.9780  176.9180  143.6210 C   0  0  2  0  0  3  0  0  0  0  0  0
  190.9370  177.9010  143.3000 O   0  0  0  0  0  0  0  0  0  0  0  0
  189.6540  178.0780  142.7560 C   0  0  1  0  0  3  0  0  0  0  0  0
  188.4500  177.4830  147.6170 C   0  0  0  0  0  3  0  0  0  0  0  0
  189.4600  177.1340  145.0180 C   0  0  0  0  0  0  0  0  0  0  0  0
  191.7310  176.9200  145.9670 N   0  0  0  0  0  1  0  0  0  0  0  0
  187.2070  177.2670  144.1890 F   0  0  0  0  0  0  0  0  0  0  0  0
  189.8210  177.3080  147.4180 C   0  0  0  0  0  3  0  0  0  0  0  0
  190.3290  177.1220  146.1310 C   0  0  0  0  0  0  0  0  0  0  0  0
  188.0760  177.2870  145.2320 C   0  0  0  0  0  0  0  0  0  0  0  0
  187.5790  177.4670  146.5250 C   0  0  0  0  0  3  0  0  0  0  0  0
  186.1890  178.7330  138.1240 C   0  0  0  0  0  2  0  0  0  0  0  0
  185.2250  178.9780  140.4450 N   0  0  0  0  0  2  0  0  0  0  0  0
  184.2850  178.7750  141.5110 C   0  0  0  0  0  0  0  0  0  0  0  0
  184.1730  177.6700  138.8050 O   0  0  0  0  0  0  0  0  0  0  0  0
  183.1760  178.1430  141.3030 N   0  0  0  0  0  2  0  0  0  0  0  0
  185.1350  178.4170  139.1300 C   0  0  0  0  0  0  0  0  0  0  0  0
  183.3170  179.1640  143.7350 C   0  0  0  0  0  2  0  0  0  0  0  0
  184.6150  178.4210  143.9440 C   0  0  0  0  0  2  0  0  0  0  0  0
  184.5030  179.4450  142.8300 C   0  0  0  0  0  3  0  0  0  0  0  0
  1  6  1  0  0  0  0
  2  4  1  0  0  0  0
  2 10  1  0  0  0  0
  3  7  1  0  0  0  0
  3  5  2  0  0  0  0
  4 12  1  0  0  0  0
  5  8  1  0  0  0  0
  6 26  1  0  0  0  0
  6  4  2  0  0  0  0
  7  2  2  0  0  0  0
  8 10  2  0  0  0  0
  9  1  2  0  0  0  0
  9  7  1  0  0  0  0
 11  3  1  0  0  0  0
 12 13  1  0  0  0  0
 13 14  1  0  0  0  0
 15 19  1  1  0  0  0
 16 15  1  0  0  0  0
 17 14  1  6  0  0  0
 17 16  1  0  0  0  0
 17 15  1  0  0  0  0
 19 24  2  0  0  0  0
 19 23  1  0  0  0  0
 20 23  1  0  0  0  0
 21 24  1  0  0  0  0
 22 18  1  0  0  0  0
 23 22  2  0  0  0  0
 24 25  1  0  0  0  0
 25 18  2  0  0  0  0
 26 31  1  0  0  0  0
 27 28  1  0  0  0  0
 28 34  1  0  0  0  0
 29 31  2  0  0  0  0
 30 28  2  0  0  0  0
 31 27  1  0  0  0  0
 32 33  1  0  0  0  0
 34 32  1  0  0  0  0
 34 33  1  0  0  0  0
M  END
>  <MODEL>
7

>  <REMARK>
 VINA RESULT:      -8.6      1.723      2.173
  Name = 
  8 active torsions:
  status: ('A' for Active; 'I' for Inactive)
    1  A    between atoms: C_1  and  C_8
    2  A    between atoms: C_9  and  C_11
    3  A    between atoms: C_9  and  C_14
    4  A    between atoms: C_11  and  C_26
    5  A    between atoms: C_16  and  C_17
    6  A    between atoms: C_17  and  C_28
    7  A    between atoms: C_20  and  C_26
    8  A    between atoms: C_21  and  C_33
                            x       y       z     vdW  Elec       q    Type
                         _______ _______ _______ _____ _____    ______ ____

>  <TORSDO>
F 8

$$$$
=
 OpenBabel10222421323D

 34 38  0  0  1  0  0  0  0  0999 V2000
  185.9810  178.0390  145.3860 C   0  0  0  0  0  3  0  0  0  0  0  0
  188.6830  177.2800  145.3530 C   0  0  0  0  0  0  0  0  0  0  0  0
  188.8170  177.6560  147.7540 C   0  0  0  0  0  0  0  0  0  0  0  0
  187.9400  177.2880  144.1510 C   0  0  0  0  0  0  0  0  0  0  0  0
  190.1260  177.2860  147.7230 N   0  0  0  0  0  0  0  0  0  0  0  0
  186.5790  177.6650  144.1790 C   0  0  0  0  0  0  0  0  0  0  0  0
  188.0630  177.6610  146.5680 C   0  0  0  0  0  0  0  0  0  0  0  0
  190.7410  176.9120  146.5700 C   0  0  0  0  0  3  0  0  0  0  0  0
  186.7150  178.0380  146.5710 C   0  0  0  0  0  3  0  0  0  0  0  0
  190.0330  176.9040  145.3680 C   0  0  0  0  0  3  0  0  0  0  0  0
  188.2310  178.0430  148.9950 N   0  0  0  0  0  1  0  0  0  0  0  0
  188.5890  176.8880  142.8570 C   0  0  0  0  0  2  0  0  0  0  0  0
  189.3330  178.0650  142.2530 C   0  0  0  0  0  2  0  0  0  0  0  0
  188.5320  178.6430  141.1010 C   0  0  0  0  0  2  0  0  0  0  0  0
  189.3540  178.4660  138.7950 C   0  0  2  0  0  3  0  0  0  0  0  0
  190.0030  177.5060  139.6000 O   0  0  0  0  0  0  0  0  0  0  0  0
  188.6470  177.7460  139.8820 C   0  0  1  0  0  3  0  0  0  0  0  0
  188.3910  176.7060  134.9740 C   0  0  0  0  0  3  0  0  0  0  0  0
  189.0120  177.8740  137.4530 C   0  0  0  0  0  0  0  0  0  0  0  0
  186.7200  178.7900  137.5580 N   0  0  0  0  0  1  0  0  0  0  0  0
  191.1930  176.8730  137.3100 F   0  0  0  0  0  0  0  0  0  0  0  0
  187.4330  177.4670  135.6470 C   0  0  0  0  0  3  0  0  0  0  0  0
  187.7300  178.0410  136.8860 C   0  0  0  0  0  0  0  0  0  0  0  0
  189.9630  177.0850  136.7770 C   0  0  0  0  0  0  0  0  0  0  0  0
  189.6520  176.5120  135.5420 C   0  0  0  0  0  3  0  0  0  0  0  0
  185.7470  177.6900  142.9330 C   0  0  0  0  0  2  0  0  0  0  0  0
  183.3190  178.2020  142.4660 N   0  0  0  0  0  2  0  0  0  0  0  0
  182.0800  178.9220  142.5600 C   0  0  0  0  0  0  0  0  0  0  0  0
  184.6180  179.5640  143.8660 O   0  0  0  0  0  0  0  0  0  0  0  0
  181.9520  179.9100  143.3860 N   0  0  0  0  0  2  0  0  0  0  0  0
  184.5430  178.5500  143.1210 C   0  0  0  0  0  0  0  0  0  0  0  0
  180.2320  179.5800  141.0820 C   0  0  0  0  0  2  0  0  0  0  0  0
  181.0580  178.5640  140.3280 C   0  0  0  0  0  2  0  0  0  0  0  0
  180.8750  178.4250  141.8290 C   0  0  0  0  0  3  0  0  0  0  0  0
  1  9  1  0  0  0  0
  2 10  1  0  0  0  0
  2  7  1  0  0  0  0
  3 11  1  0  0  0  0
  4  6  1  0  0  0  0
  4  2  2  0  0  0  0
  5  3  2  0  0  0  0
  6  1  2  0  0  0  0
  7  9  2  0  0  0  0
  7  3  1  0  0  0  0
  8  5  1  0  0  0  0
 10  8  2  0  0  0  0
 12  4  1  0  0  0  0
 13 12  1  0  0  0  0
 14 13  1  0  0  0  0
 15 19  1  6  0  0  0
 15 16  1  0  0  0  0
 15 17  1  0  0  0  0
 16 17  1  0  0  0  0
 17 14  1  1  0  0  0
 18 25  2  0  0  0  0
 18 22  1  0  0  0  0
 22 23  2  0  0  0  0
 23 19  1  0  0  0  0
 23 20  1  0  0  0  0
 24 21  1  0  0  0  0
 24 19  2  0  0  0  0
 25 24  1  0  0  0  0
 26 31  1  0  0  0  0
 26  6  1  0  0  0  0
 27 28  1  0  0  0  0
 27 31  1  0  0  0  0
 28 30  2  0  0  0  0
 31 29  2  0  0  0  0
 32 34  1  0  0  0  0
 33 32  1  0  0  0  0
 33 34  1  0  0  0  0
 34 28  1  0  0  0  0
M  END
>  <MODEL>
8

>  <REMARK>
 VINA RESULT:      -8.5      2.559      7.887
  Name = 
  8 active torsions:
  status: ('A' for Active; 'I' for Inactive)
    1  A    between atoms: C_1  and  C_8
    2  A    between atoms: C_9  and  C_11
    3  A    between atoms: C_9  and  C_14
    4  A    between atoms: C_11  and  C_26
    5  A    between atoms: C_16  and  C_17
    6  A    between atoms: C_17  and  C_28
    7  A    between atoms: C_20  and  C_26
    8  A    between atoms: C_21  and  C_33
                            x       y       z     vdW  Elec       q    Type
                         _______ _______ _______ _____ _____    ______ ____

>  <TORSDO>
F 8

$$$$
=
 OpenBabel10222421323D

 34 38  0  0  1  0  0  0  0  0999 V2000
  185.9720  178.4160  138.2900 C   0  0  0  0  0  3  0  0  0  0  0  0
  185.9970  178.4390  141.0970 C   0  0  0  0  0  0  0  0  0  0  0  0
  183.5640  178.4610  141.1180 C   0  0  0  0  0  0  0  0  0  0  0  0
  187.2170  178.4300  140.3820 C   0  0  0  0  0  0  0  0  0  0  0  0
  183.5910  178.4720  142.4790 N   0  0  0  0  0  0  0  0  0  0  0  0
  187.1930  178.4110  138.9700 C   0  0  0  0  0  0  0  0  0  0  0  0
  184.7680  178.4440  140.3940 C   0  0  0  0  0  0  0  0  0  0  0  0
  184.7590  178.4640  143.1740 C   0  0  0  0  0  3  0  0  0  0  0  0
  184.7690  178.4330  138.9940 C   0  0  0  0  0  3  0  0  0  0  0  0
  185.9780  178.4490  142.4980 C   0  0  0  0  0  3  0  0  0  0  0  0
  182.3060  178.4770  140.4460 N   0  0  0  0  0  1  0  0  0  0  0  0
  188.5260  178.4270  141.1190 C   0  0  0  0  0  2  0  0  0  0  0  0
  188.9790  177.0030  141.3840 C   0  0  0  0  0  2  0  0  0  0  0  0
  190.2900  177.0140  142.1480 C   0  0  0  0  0  2  0  0  0  0  0  0
  190.2160  176.6430  144.5730 C   0  0  2  0  0  3  0  0  0  0  0  0
  191.2740  177.5240  144.2640 O   0  0  0  0  0  0  0  0  0  0  0  0
  190.1000  177.6660  143.5050 C   0  0  1  0  0  3  0  0  0  0  0  0
  188.1510  177.8900  148.1520 C   0  0  0  0  0  3  0  0  0  0  0  0
  189.5100  177.0970  145.8240 C   0  0  0  0  0  0  0  0  0  0  0  0
  191.6090  177.0040  147.1230 N   0  0  0  0  0  1  0  0  0  0  0  0
  187.4090  177.1310  144.6570 F   0  0  0  0  0  0  0  0  0  0  0  0
  189.5270  177.6610  148.1910 C   0  0  0  0  0  3  0  0  0  0  0  0
  190.2080  177.2540  147.0410 C   0  0  0  0  0  0  0  0  0  0  0  0
  188.1180  177.3080  145.8010 C   0  0  0  0  0  0  0  0  0  0  0  0
  187.4470  177.7090  146.9590 C   0  0  0  0  0  3  0  0  0  0  0  0
  188.4570  178.4000  138.1650 C   0  0  0  0  0  2  0  0  0  0  0  0
  190.3340  176.7260  137.9410 N   0  0  0  0  0  2  0  0  0  0  0  0
  190.9360  175.4360  137.7560 C   0  0  0  0  0  0  0  0  0  0  0  0
  188.0840  176.0820  137.7830 O   0  0  0  0  0  0  0  0  0  0  0  0
  190.2080  174.3680  137.7060 N   0  0  0  0  0  2  0  0  0  0  0  0
  188.9290  177.0020  137.9460 C   0  0  0  0  0  0  0  0  0  0  0  0
  192.8590  174.2810  136.7550 C   0  0  0  0  0  2  0  0  0  0  0  0
  193.0430  175.7560  136.4850 C   0  0  0  0  0  2  0  0  0  0  0  0
  192.4240  175.2990  137.7940 C   0  0  0  0  0  3  0  0  0  0  0  0
  1  6  2  0  0  0  0
  1  9  1  0  0  0  0
  2 10  1  0  0  0  0
  3  5  2  0  0  0  0
  4  2  2  0  0  0  0
  4 12  1  0  0  0  0
  5  8  1  0  0  0  0
  6  4  1  0  0  0  0
  7  2  1  0  0  0  0
  7  3  1  0  0  0  0
  9  7  2  0  0  0  0
 10  8  2  0  0  0  0
 11  3  1  0  0  0  0
 12 13  1  0  0  0  0
 13 14  1  0  0  0  0
 15 19  1  1  0  0  0
 16 15  1  0  0  0  0
 17 14  1  6  0  0  0
 17 16  1  0  0  0  0
 17 15  1  0  0  0  0
 18 22  1  0  0  0  0
 19 23  1  0  0  0  0
 21 24  1  0  0  0  0
 23 20  1  0  0  0  0
 23 22  2  0  0  0  0
 24 19  2  0  0  0  0
 24 25  1  0  0  0  0
 25 18  2  0  0  0  0
 26  6  1  0  0  0  0
 27 31  1  0  0  0  0
 28 34  1  0  0  0  0
 28 27  1  0  0  0  0
 29 31  2  0  0  0  0
 30 28  2  0  0  0  0
 31 26  1  0  0  0  0
 32 34  1  0  0  0  0
 33 32  1  0  0  0  0
 33 34  1  0  0  0  0
M  END
>  <MODEL>
9

>  <REMARK>
 VINA RESULT:      -8.4      1.535      5.926
  Name = 
  8 active torsions:
  status: ('A' for Active; 'I' for Inactive)
    1  A    between atoms: C_1  and  C_8
    2  A    between atoms: C_9  and  C_11
    3  A    between atoms: C_9  and  C_14
    4  A    between atoms: C_11  and  C_26
    5  A    between atoms: C_16  and  C_17
    6  A    between atoms: C_17  and  C_28
    7  A    between atoms: C_20  and  C_26
    8  A    between atoms: C_21  and  C_33
                            x       y       z     vdW  Elec       q    Type
                         _______ _______ _______ _____ _____    ______ ____

>  <TORSDO>
F 8

$$$$
