=
 OpenBabel10232409313D

 53 58  0  0  1  0  0  0  0  0999 V2000
  182.1850  176.7460  137.8860 C   0  0  1  0  0  3  0  0  0  0  0  0
  187.4250  175.9600  134.7450 C   0  0  0  0  0  2  0  0  0  0  0  0
  181.8080  176.5060  136.4320 C   0  0  0  0  0  0  0  0  0  0  0  0
  184.2970  173.7550  135.3120 C   0  0  2  0  0  3  0  0  0  0  0  0
  183.5490  176.5280  138.2010 O   0  0  0  0  0  0  0  0  0  0  0  0
  180.8170  177.1160  135.9440 O   0  0  0  0  0  0  0  0  0  0  0  0
  186.3710  175.2010  135.5320 C   0  0  0  0  0  2  0  0  0  0  0  0
  185.3950  174.5310  134.5780 C   0  0  0  0  0  2  0  0  0  0  0  0
  185.3810  178.0620  138.3850 C   0  0  0  0  0  2  0  0  0  0  0  0
  182.2760  175.4970  134.3460 O   0  0  0  0  0  0  0  0  0  0  0  0
  188.3580  177.9800  135.9360 C   0  0  0  0  0  2  0  0  0  0  0  0
  188.4940  176.4750  135.7040 C   0  0  2  0  0  3  0  0  0  0  0  0
  184.3370  177.4380  137.4750 C   0  0  0  0  0  2  0  0  0  0  0  0
  187.0070  178.3770  136.5160 C   0  0  0  0  0  2  0  0  0  0  0  0
  183.4860  174.6400  136.1400 N   0  0  0  0  0  2  0  0  0  0  0  0
  182.5250  175.5360  135.5820 C   0  0  0  0  0  0  0  0  0  0  0  0
  186.7810  177.7480  137.8820 C   0  0  0  0  0  2  0  0  0  0  0  0
  180.9000  179.2910  140.4280 C   0  0  0  0  0  0  0  0  0  0  0  0
  181.5460  179.1910  137.7090 C   0  0  0  0  0  3  0  0  0  0  0  0
  181.1150  180.3900  138.2790 C   0  0  0  0  0  3  0  0  0  0  0  0
  181.4740  176.9740  140.6310 F   0  0  0  0  0  0  0  0  0  0  0  0
  180.7970  180.4410  139.6370 C   0  0  0  0  0  3  0  0  0  0  0  0
  181.6500  178.0260  138.4890 C   0  0  0  0  0  0  0  0  0  0  0  0
  181.3350  178.0820  139.8560 C   0  0  0  0  0  0  0  0  0  0  0  0
  180.6120  179.3870  141.8870 C   0  0  0  0  0  2  0  0  0  0  0  0
  181.7020  180.0810  142.5540 N   0  0  0  0  0  2  0  0  0  0  0  0
  181.8120  178.1650  144.3830 O   0  0  0  0  0  0  0  0  0  0  0  0
  183.1920  177.9130  142.3720 O   0  0  0  0  0  0  0  0  0  0  0  0
  182.6590  178.8960  143.3770 S   0  0  0  0  0  0  0  0  0  0  0  0
  184.0220  179.6930  144.2040 C   0  0  0  0  0  2  0  0  0  0  0  0
  186.8610  177.3410  144.6360 C   0  0  0  0  0  2  0  0  0  0  0  0
  185.3300  179.3280  146.1070 C   0  0  0  0  0  2  0  0  0  0  0  0
  184.8420  178.7020  144.8780 N   0  0  0  0  0  0  0  0  0  0  0  0
  186.3210  178.4340  146.8080 C   0  0  0  0  0  3  0  0  0  0  0  0
  187.0560  177.5480  146.1170 C   0  0  0  0  0  3  0  0  0  0  0  0
  185.9990  178.4470  144.0210 C   0  0  0  0  0  2  0  0  0  0  0  0
  182.5930  172.0620  136.7650 O   0  0  0  0  0  1  0  0  0  0  0  0
  184.6980  172.7530  137.6360 C   0  0  0  0  0  2  0  0  0  0  0  0
  184.8530  172.5960  136.1430 C   0  0  1  0  0  0  0  0  0  0  0  0
  183.9220  171.6640  136.9010 C   0  0  2  0  0  3  0  0  0  0  0  0
  186.0860  172.0470  135.7870 O   0  0  0  0  0  1  0  0  0  0  0  0
  189.8800  176.2040  135.1460 C   0  0  0  0  0  2  0  0  0  0  0  0
  194.1130  174.8900  137.6450 C   0  0  0  0  0  0  0  0  0  0  0  0
  190.6410  174.9120  137.0190 O   0  0  0  0  0  0  0  0  0  0  0  0
  195.2770  174.7400  137.9770 O   0  0  0  0  0  0  0  0  0  0  0  0
  192.5510  176.2800  136.2920 C   0  0  0  0  0  2  0  0  0  0  0  0
  192.5200  173.7540  136.2370 O   0  0  0  0  0  0  0  0  0  0  0  0
  193.2100  173.6970  137.4680 C   0  0  0  0  0  2  0  0  0  0  0  0
  193.5360  176.2640  137.4700 C   0  0  1  0  0  3  0  0  0  0  0  0
  191.7790  174.9540  136.1960 C   0  0  1  0  0  0  0  0  0  0  0  0
  190.4120  174.8580  135.6250 C   0  0  2  0  0  3  0  0  0  0  0  0
  192.8570  176.6930  138.7350 C   0  0  0  0  0  3  0  0  0  0  0  0
  193.4590  177.3340  139.5790 O   0  0  0  0  0  0  0  0  0  0  0  0
  1  5  1  0  0  0  0
  1 23  1  6  0  0  0
  2  7  1  0  0  0  0
  2 12  1  0  0  0  0
  3  1  1  0  0  0  0
  4  8  1  1  0  0  0
  4 15  1  0  0  0  0
  4 39  1  0  0  0  0
  6  3  2  0  0  0  0
  8  7  1  0  0  0  0
 10 16  2  0  0  0  0
 11 14  1  0  0  0  0
 12 42  1  6  0  0  0
 12 11  1  0  0  0  0
 13  5  1  0  0  0  0
 13  9  1  0  0  0  0
 14 17  1  0  0  0  0
 16 15  1  0  0  0  0
 16  3  1  0  0  0  0
 17  9  1  0  0  0  0
 18 25  1  0  0  0  0
 19 20  2  0  0  0  0
 19 23  1  0  0  0  0
 20 22  1  0  0  0  0
 22 18  2  0  0  0  0
 23 24  2  0  0  0  0
 24 18  1  0  0  0  0
 24 21  1  0  0  0  0
 25 26  1  0  0  0  0
 26 29  1  0  0  0  0
 28 29  2  0  0  0  0
 29 30  1  0  0  0  0
 29 27  2  0  0  0  0
 30 33  1  0  0  0  0
 31 35  1  0  0  0  0
 32 34  1  0  0  0  0
 33 32  1  0  0  0  0
 35 34  2  0  0  0  0
 36 31  1  0  0  0  0
 36 33  1  0  0  0  0
 39 41  1  6  0  0  0
 39 40  1  0  0  0  0
 39 38  1  0  0  0  0
 40 37  1  6  0  0  0
 40 38  1  0  0  0  0
 43 45  2  0  0  0  0
 46 49  1  0  0  0  0
 47 48  1  0  0  0  0
 48 43  1  0  0  0  0
 49 43  1  0  0  0  0
 49 52  1  1  0  0  0
 50 47  1  0  0  0  0
 50 46  1  6  0  0  0
 50 44  1  0  0  0  0
 51 42  1  6  0  0  0
 51 50  1  0  0  0  0
 51 44  1  0  0  0  0
 52 53  2  0  0  0  0
M  END
>  <MODEL>
1

>  <REMARK>
 VINA RESULT:      -7.2      0.000      0.000
  Name = 
  10 active torsions:
  status: ('A' for Active; 'I' for Inactive)
    1  A    between atoms: C_2  and  C_51
    2  A    between atoms: C_3  and  C_52
    3  A    between atoms: C_11  and  C_28
    4  A    between atoms: C_15  and  C_39
    5  A    between atoms: N_27  and  C_42
    6  A    between atoms: N_31  and  S_40
    7  A    between atoms: N_31  and  C_51
    8  A    between atoms: C_33  and  C_46
    9  A    between atoms: C_35  and  C_46
   10  A    between atoms: S_40  and  C_42
                            x       y       z     vdW  Elec       q    Type
                         _______ _______ _______ _____ _____    ______ ____

>  <TORSDO>
F 10

$$$$
=
 OpenBabel10232409313D

 53 58  0  0  1  0  0  0  0  0999 V2000
  188.5750  177.1250  141.0880 C   0  0  1  0  0  3  0  0  0  0  0  0
  191.5470  176.6880  135.7100 C   0  0  0  0  0  2  0  0  0  0  0  0
  187.9540  178.1450  140.1450 C   0  0  0  0  0  0  0  0  0  0  0  0
  187.8460  176.2690  136.7560 C   0  0  2  0  0  3  0  0  0  0  0  0
  189.4820  176.2190  140.4850 O   0  0  0  0  0  0  0  0  0  0  0  0
  187.5600  179.2510  140.6080 O   0  0  0  0  0  0  0  0  0  0  0  0
  190.3640  176.1250  136.4780 C   0  0  0  0  0  2  0  0  0  0  0  0
  189.0790  176.7890  136.0100 C   0  0  0  0  0  2  0  0  0  0  0  0
  191.8750  176.2500  140.3530 C   0  0  0  0  0  2  0  0  0  0  0  0
  187.3740  178.8010  137.9490 O   0  0  0  0  0  0  0  0  0  0  0  0
  193.7200  176.6780  136.9930 C   0  0  0  0  0  2  0  0  0  0  0  0
  192.8000  175.8910  136.0620 C   0  0  2  0  0  3  0  0  0  0  0  0
  190.5750  176.9390  139.9730 C   0  0  0  0  0  2  0  0  0  0  0  0
  193.0540  177.0650  138.3070 C   0  0  0  0  0  2  0  0  0  0  0  0
  187.9320  176.5530  138.1830 N   0  0  0  0  0  2  0  0  0  0  0  0
  187.7400  177.8650  138.7120 C   0  0  0  0  0  0  0  0  0  0  0  0
  192.6420  175.8390  139.1060 C   0  0  0  0  0  2  0  0  0  0  0  0
  188.9490  177.8820  144.8130 C   0  0  0  0  0  0  0  0  0  0  0  0
  190.3040  178.4080  142.4230 C   0  0  0  0  0  3  0  0  0  0  0  0
  190.8220  178.8700  143.6340 C   0  0  0  0  0  3  0  0  0  0  0  0
  187.2820  176.6790  143.5820 F   0  0  0  0  0  0  0  0  0  0  0  0
  190.1480  178.6050  144.8270 C   0  0  0  0  0  3  0  0  0  0  0  0
  189.0980  177.6860  142.3910 C   0  0  0  0  0  0  0  0  0  0  0  0
  188.4260  177.4150  143.5940 C   0  0  0  0  0  0  0  0  0  0  0  0
  188.2810  177.5610  146.1050 C   0  0  0  0  0  2  0  0  0  0  0  0
  186.8920  177.2060  145.8600 N   0  0  0  0  0  2  0  0  0  0  0  0
  184.6550  177.9260  147.0880 O   0  0  0  0  0  0  0  0  0  0  0  0
  186.6730  179.2540  147.5070 O   0  0  0  0  0  0  0  0  0  0  0  0
  185.9030  178.4910  146.4650 S   0  0  0  0  0  0  0  0  0  0  0  0
  185.4650  179.5910  145.1320 C   0  0  0  0  0  2  0  0  0  0  0  0
  182.2950  178.8620  143.3430 C   0  0  0  0  0  2  0  0  0  0  0  0
  185.1500  179.1300  142.8610 C   0  0  0  0  0  2  0  0  0  0  0  0
  184.5890  178.9100  144.1950 N   0  0  0  0  0  0  0  0  0  0  0  0
  184.2290  178.5950  141.7950 C   0  0  0  0  0  3  0  0  0  0  0  0
  182.9060  178.5130  142.0090 C   0  0  0  0  0  3  0  0  0  0  0  0
  183.2950  179.5890  144.2470 C   0  0  0  0  0  2  0  0  0  0  0  0
  186.1960  175.3930  134.6600 O   0  0  0  0  0  1  0  0  0  0  0  0
  186.1860  174.3180  136.7840 C   0  0  0  0  0  2  0  0  0  0  0  0
  187.5980  174.7780  136.5140 C   0  0  1  0  0  0  0  0  0  0  0  0
  186.7290  174.3100  135.3580 C   0  0  2  0  0  3  0  0  0  0  0  0
  188.5540  173.8600  136.9500 O   0  0  0  0  0  1  0  0  0  0  0  0
  193.5790  175.5490  134.8030 C   0  0  0  0  0  2  0  0  0  0  0  0
  196.9310  172.2610  136.7630 C   0  0  0  0  0  0  0  0  0  0  0  0
  193.7090  173.4340  135.9290 O   0  0  0  0  0  0  0  0  0  0  0  0
  197.9600  171.6920  137.0850 O   0  0  0  0  0  0  0  0  0  0  0  0
  195.9480  174.4430  136.0750 C   0  0  0  0  0  2  0  0  0  0  0  0
  195.4480  172.2840  134.8630 O   0  0  0  0  0  0  0  0  0  0  0  0
  195.8680  171.5330  135.9820 C   0  0  0  0  0  2  0  0  0  0  0  0
  196.6690  173.6760  137.1920 C   0  0  1  0  0  3  0  0  0  0  0  0
  194.9710  173.5320  135.3160 C   0  0  1  0  0  0  0  0  0  0  0  0
  193.7440  174.0410  134.6520 C   0  0  2  0  0  3  0  0  0  0  0  0
  195.8560  173.6810  138.4500 C   0  0  0  0  0  3  0  0  0  0  0  0
  195.2830  172.6720  138.8250 O   0  0  0  0  0  0  0  0  0  0  0  0
  1 23  1  1  0  0  0
  2 12  1  0  0  0  0
  2  7  1  0  0  0  0
  3  6  2  0  0  0  0
  3  1  1  0  0  0  0
  4  8  1  6  0  0  0
  4 15  1  0  0  0  0
  5  1  1  0  0  0  0
  8  7  1  0  0  0  0
 10 16  2  0  0  0  0
 11 14  1  0  0  0  0
 12 42  1  6  0  0  0
 12 11  1  0  0  0  0
 13  9  1  0  0  0  0
 13  5  1  0  0  0  0
 14 17  1  0  0  0  0
 15 16  1  0  0  0  0
 16  3  1  0  0  0  0
 17  9  1  0  0  0  0
 18 22  1  0  0  0  0
 18 25  1  0  0  0  0
 19 20  1  0  0  0  0
 20 22  2  0  0  0  0
 21 24  1  0  0  0  0
 23 19  2  0  0  0  0
 23 24  1  0  0  0  0
 24 18  2  0  0  0  0
 26 25  1  0  0  0  0
 26 29  1  0  0  0  0
 29 27  2  0  0  0  0
 29 28  2  0  0  0  0
 30 29  1  0  0  0  0
 31 36  1  0  0  0  0
 32 33  1  0  0  0  0
 33 36  1  0  0  0  0
 33 30  1  0  0  0  0
 34 35  2  0  0  0  0
 34 32  1  0  0  0  0
 35 31  1  0  0  0  0
 39  4  1  0  0  0  0
 39 38  1  0  0  0  0
 39 41  1  1  0  0  0
 40 37  1  6  0  0  0
 40 39  1  0  0  0  0
 40 38  1  0  0  0  0
 43 45  2  0  0  0  0
 43 49  1  0  0  0  0
 46 49  1  0  0  0  0
 47 50  1  0  0  0  0
 47 48  1  0  0  0  0
 48 43  1  0  0  0  0
 49 52  1  1  0  0  0
 50 44  1  0  0  0  0
 50 46  1  1  0  0  0
 51 42  1  1  0  0  0
 51 50  1  0  0  0  0
 51 44  1  0  0  0  0
 52 53  2  0  0  0  0
M  END
>  <MODEL>
2

>  <REMARK>
 VINA RESULT:      -6.9      3.153      5.867
  Name = 
  10 active torsions:
  status: ('A' for Active; 'I' for Inactive)
    1  A    between atoms: C_2  and  C_51
    2  A    between atoms: C_3  and  C_52
    3  A    between atoms: C_11  and  C_28
    4  A    between atoms: C_15  and  C_39
    5  A    between atoms: N_27  and  C_42
    6  A    between atoms: N_31  and  S_40
    7  A    between atoms: N_31  and  C_51
    8  A    between atoms: C_33  and  C_46
    9  A    between atoms: C_35  and  C_46
   10  A    between atoms: S_40  and  C_42
                            x       y       z     vdW  Elec       q    Type
                         _______ _______ _______ _____ _____    ______ ____

>  <TORSDO>
F 10

$$$$
=
 OpenBabel10232409313D

 53 58  0  0  1  0  0  0  0  0999 V2000
  187.4780  177.1430  138.7070 C   0  0  1  0  0  3  0  0  0  0  0  0
  192.1750  175.7550  134.9720 C   0  0  0  0  0  2  0  0  0  0  0  0
  187.2570  177.8990  137.4040 C   0  0  0  0  0  0  0  0  0  0  0  0
  188.3380  175.3410  134.7020 C   0  0  2  0  0  3  0  0  0  0  0  0
  188.5230  176.1880  138.6820 O   0  0  0  0  0  0  0  0  0  0  0  0
  186.7450  179.0520  137.4410 O   0  0  0  0  0  0  0  0  0  0  0  0
  190.7850  175.2960  135.3740 C   0  0  0  0  0  2  0  0  0  0  0  0
  189.7670  175.7650  134.3470 C   0  0  0  0  0  2  0  0  0  0  0  0
  190.8040  176.3390  139.4030 C   0  0  0  0  0  2  0  0  0  0  0  0
  187.5180  178.0340  135.0590 O   0  0  0  0  0  0  0  0  0  0  0  0
  193.7410  176.1540  136.9100 C   0  0  0  0  0  2  0  0  0  0  0  0
  193.2020  175.1300  135.9120 C   0  0  2  0  0  3  0  0  0  0  0  0
  189.7410  176.8480  138.4450 C   0  0  0  0  0  2  0  0  0  0  0  0
  192.6550  176.7700  137.7820 C   0  0  0  0  0  2  0  0  0  0  0  0
  187.9110  175.9270  135.9670 N   0  0  0  0  0  2  0  0  0  0  0  0
  187.5670  177.3070  136.0890 C   0  0  0  0  0  0  0  0  0  0  0  0
  191.9600  175.7190  138.6330 C   0  0  0  0  0  2  0  0  0  0  0  0
  186.3410  179.1050  141.7820 C   0  0  0  0  0  0  0  0  0  0  0  0
  188.7340  178.3700  140.5330 C   0  0  0  0  0  3  0  0  0  0  0  0
  188.7640  179.1060  141.7200 C   0  0  0  0  0  3  0  0  0  0  0  0
  185.1170  177.9740  140.0600 F   0  0  0  0  0  0  0  0  0  0  0  0
  187.5700  179.4690  142.3450 C   0  0  0  0  0  3  0  0  0  0  0  0
  187.5080  178.0010  139.9530 C   0  0  0  0  0  0  0  0  0  0  0  0
  186.3090  178.3630  140.5870 C   0  0  0  0  0  0  0  0  0  0  0  0
  185.0830  179.4530  142.5000 C   0  0  0  0  0  2  0  0  0  0  0  0
  184.6770  178.3370  143.3400 N   0  0  0  0  0  2  0  0  0  0  0  0
  185.5760  180.1410  145.0620 O   0  0  0  0  0  0  0  0  0  0  0  0
  183.4700  179.0040  145.5870 O   0  0  0  0  0  0  0  0  0  0  0  0
  184.8390  178.8310  144.9910 S   0  0  0  0  0  0  0  0  0  0  0  0
  185.7300  177.5890  145.9070 C   0  0  0  0  0  2  0  0  0  0  0  0
  189.1480  177.8480  147.3320 C   0  0  0  0  0  2  0  0  0  0  0  0
  187.7720  177.0820  144.8870 C   0  0  0  0  0  2  0  0  0  0  0  0
  187.1470  177.9050  145.9230 N   0  0  0  0  0  0  0  0  0  0  0  0
  189.2730  177.2190  144.9250 C   0  0  0  0  0  3  0  0  0  0  0  0
  189.9050  177.5320  146.0670 C   0  0  0  0  0  3  0  0  0  0  0  0
  187.6710  177.4620  147.2150 C   0  0  0  0  0  2  0  0  0  0  0  0
  185.8050  174.1640  134.4220 O   0  0  0  0  0  1  0  0  0  0  0  0
  187.4260  173.2830  135.9270 C   0  0  0  0  0  2  0  0  0  0  0  0
  188.1650  173.8200  134.7240 C   0  0  1  0  0  0  0  0  0  0  0  0
  186.7950  173.1890  134.5400 C   0  0  2  0  0  3  0  0  0  0  0  0
  189.2450  173.0170  134.3560 O   0  0  0  0  0  1  0  0  0  0  0  0
  194.3750  174.5770  135.1200 C   0  0  0  0  0  2  0  0  0  0  0  0
  198.5810  172.5330  137.1240 C   0  0  0  0  0  0  0  0  0  0  0  0
  195.1170  173.1710  136.9180 O   0  0  0  0  0  0  0  0  0  0  0  0
  199.7320  172.1790  137.3180 O   0  0  0  0  0  0  0  0  0  0  0  0
  197.1360  174.1770  135.9370 C   0  0  0  0  0  2  0  0  0  0  0  0
  196.6540  171.6970  135.9430 O   0  0  0  0  0  0  0  0  0  0  0  0
  197.4670  171.5200  137.0830 C   0  0  0  0  0  2  0  0  0  0  0  0
  198.2390  173.9880  136.9890 C   0  0  1  0  0  3  0  0  0  0  0  0
  196.1370  173.0100  135.9640 C   0  0  1  0  0  0  0  0  0  0  0  0
  194.7140  173.1580  135.5620 C   0  0  2  0  0  3  0  0  0  0  0  0
  197.8050  174.5310  138.3160 C   0  0  0  0  0  3  0  0  0  0  0  0
  198.3110  175.5430  138.7700 O   0  0  0  0  0  0  0  0  0  0  0  0
  1 23  1  1  0  0  0
  2  7  1  0  0  0  0
  2 12  1  0  0  0  0
  3  6  2  0  0  0  0
  3  1  1  0  0  0  0
  4  8  1  1  0  0  0
  4 39  1  0  0  0  0
  4 15  1  0  0  0  0
  5  1  1  0  0  0  0
  8  7  1  0  0  0  0
 10 16  2  0  0  0  0
 11 14  1  0  0  0  0
 12 42  1  6  0  0  0
 12 11  1  0  0  0  0
 13  5  1  0  0  0  0
 13  9  1  0  0  0  0
 14 17  1  0  0  0  0
 15 16  1  0  0  0  0
 16  3  1  0  0  0  0
 17  9  1  0  0  0  0
 18 22  1  0  0  0  0
 18 25  1  0  0  0  0
 19 20  1  0  0  0  0
 20 22  2  0  0  0  0
 21 24  1  0  0  0  0
 23 19  2  0  0  0  0
 23 24  1  0  0  0  0
 24 18  2  0  0  0  0
 25 26  1  0  0  0  0
 26 29  1  0  0  0  0
 29 27  2  0  0  0  0
 29 28  2  0  0  0  0
 29 30  1  0  0  0  0
 30 33  1  0  0  0  0
 32 34  1  0  0  0  0
 32 33  1  0  0  0  0
 33 36  1  0  0  0  0
 34 35  2  0  0  0  0
 35 31  1  0  0  0  0
 36 31  1  0  0  0  0
 39 41  1  6  0  0  0
 39 38  1  0  0  0  0
 40 37  1  1  0  0  0
 40 39  1  0  0  0  0
 40 38  1  0  0  0  0
 43 45  2  0  0  0  0
 46 49  1  0  0  0  0
 47 50  1  0  0  0  0
 47 48  1  0  0  0  0
 48 43  1  0  0  0  0
 49 43  1  0  0  0  0
 49 52  1  1  0  0  0
 50 46  1  6  0  0  0
 50 44  1  0  0  0  0
 51 42  1  6  0  0  0
 51 50  1  0  0  0  0
 51 44  1  0  0  0  0
 52 53  2  0  0  0  0
M  END
>  <MODEL>
3

>  <REMARK>
 VINA RESULT:      -6.8      3.311      4.948
  Name = 
  10 active torsions:
  status: ('A' for Active; 'I' for Inactive)
    1  A    between atoms: C_2  and  C_51
    2  A    between atoms: C_3  and  C_52
    3  A    between atoms: C_11  and  C_28
    4  A    between atoms: C_15  and  C_39
    5  A    between atoms: N_27  and  C_42
    6  A    between atoms: N_31  and  S_40
    7  A    between atoms: N_31  and  C_51
    8  A    between atoms: C_33  and  C_46
    9  A    between atoms: C_35  and  C_46
   10  A    between atoms: S_40  and  C_42
                            x       y       z     vdW  Elec       q    Type
                         _______ _______ _______ _____ _____    ______ ____

>  <TORSDO>
F 10

$$$$
=
 OpenBabel10232409313D

 53 58  0  0  1  0  0  0  0  0999 V2000
  184.7560  177.8820  143.5350 C   0  0  1  0  0  3  0  0  0  0  0  0
  186.5940  178.8170  137.7300 C   0  0  0  0  0  2  0  0  0  0  0  0
  183.9060  179.0110  142.9680 C   0  0  0  0  0  0  0  0  0  0  0  0
  183.2070  177.8570  139.3360 C   0  0  2  0  0  3  0  0  0  0  0  0
  185.5660  177.2040  142.5910 O   0  0  0  0  0  0  0  0  0  0  0  0
  183.5600  179.9590  143.7250 O   0  0  0  0  0  0  0  0  0  0  0  0
  185.6200  178.0030  138.5650 C   0  0  0  0  0  2  0  0  0  0  0  0
  184.2360  178.6280  138.5020 C   0  0  0  0  0  2  0  0  0  0  0  0
  187.8780  177.4820  142.0220 C   0  0  0  0  0  2  0  0  0  0  0  0
  182.8610  180.0400  141.1150 O   0  0  0  0  0  0  0  0  0  0  0  0
  188.9790  178.7480  138.5490 C   0  0  0  0  0  2  0  0  0  0  0  0
  187.9300  178.0830  137.6590 C   0  0  2  0  0  3  0  0  0  0  0  0
  186.4950  178.1100  142.0510 C   0  0  0  0  0  2  0  0  0  0  0  0
  188.5750  178.7980  140.0170 C   0  0  0  0  0  2  0  0  0  0  0  0
  183.5670  177.8520  140.7490 N   0  0  0  0  0  2  0  0  0  0  0  0
  183.4200  179.0080  141.5750 C   0  0  0  0  0  0  0  0  0  0  0  0
  188.3960  177.4030  140.5940 C   0  0  0  0  0  2  0  0  0  0  0  0
  187.2730  177.7170  146.4030 C   0  0  0  0  0  0  0  0  0  0  0  0
  185.2350  179.4070  145.5010 C   0  0  0  0  0  3  0  0  0  0  0  0
  185.9690  179.7470  146.6380 C   0  0  0  0  0  3  0  0  0  0  0  0
  186.8350  176.2390  144.5690 F   0  0  0  0  0  0  0  0  0  0  0  0
  186.9890  178.9060  147.0860 C   0  0  0  0  0  3  0  0  0  0  0  0
  185.5040  178.2140  144.8070 C   0  0  0  0  0  0  0  0  0  0  0  0
  186.5350  177.3730  145.2570 C   0  0  0  0  0  0  0  0  0  0  0  0
  188.4050  176.8670  146.8670 C   0  0  0  0  0  2  0  0  0  0  0  0
  189.6380  177.6390  146.8360 N   0  0  0  0  0  2  0  0  0  0  0  0
  191.8520  177.2340  148.2370 O   0  0  0  0  0  0  0  0  0  0  0  0
  190.3760  175.3170  147.8450 O   0  0  0  0  0  0  0  0  0  0  0  0
  190.9400  176.5720  147.2400 S   0  0  0  0  0  0  0  0  0  0  0  0
  191.8570  176.1580  145.7690 C   0  0  0  0  0  2  0  0  0  0  0  0
  191.2400  179.1190  143.6170 C   0  0  0  0  0  2  0  0  0  0  0  0
  191.9270  176.2990  143.4360 C   0  0  0  0  0  2  0  0  0  0  0  0
  191.3310  176.8940  144.6320 N   0  0  0  0  0  0  0  0  0  0  0  0
  191.5670  177.0920  142.2050 C   0  0  0  0  0  3  0  0  0  0  0  0
  191.2920  178.4030  142.2900 C   0  0  0  0  0  3  0  0  0  0  0  0
  191.8320  178.2640  144.7410 C   0  0  0  0  0  2  0  0  0  0  0  0
  180.7590  177.0740  138.2070 O   0  0  0  0  0  1  0  0  0  0  0  0
  181.9980  175.6160  139.6240 C   0  0  0  0  0  2  0  0  0  0  0  0
  182.9910  176.4290  138.8280 C   0  0  1  0  0  0  0  0  0  0  0  0
  181.6740  176.0210  138.1890 C   0  0  2  0  0  3  0  0  0  0  0  0
  184.1010  175.6820  138.4330 O   0  0  0  0  0  1  0  0  0  0  0  0
  188.4530  178.0760  136.2330 C   0  0  0  0  0  2  0  0  0  0  0  0
  191.2010  173.8980  135.2910 C   0  0  0  0  0  0  0  0  0  0  0  0
  188.3700  175.6840  136.4080 O   0  0  0  0  0  0  0  0  0  0  0  0
  192.0700  173.1300  134.9150 O   0  0  0  0  0  0  0  0  0  0  0  0
  190.7010  176.2660  135.8790 C   0  0  0  0  0  2  0  0  0  0  0  0
  189.2090  174.8950  134.3690 O   0  0  0  0  0  0  0  0  0  0  0  0
  189.7690  173.6990  134.8660 C   0  0  0  0  0  2  0  0  0  0  0  0
  191.5240  175.0190  136.2350 C   0  0  1  0  0  3  0  0  0  0  0  0
  189.3010  175.8820  135.3740 C   0  0  1  0  0  0  0  0  0  0  0  0
  188.1180  176.7650  135.5320 C   0  0  2  0  0  3  0  0  0  0  0  0
  191.2510  174.5890  137.6440 C   0  0  0  0  0  3  0  0  0  0  0  0
  190.9990  175.4110  138.5090 O   0  0  0  0  0  0  0  0  0  0  0  0
  1 23  1  1  0  0  0
  2  7  1  0  0  0  0
  3  1  1  0  0  0  0
  3  6  2  0  0  0  0
  4  8  1  6  0  0  0
  4 15  1  0  0  0  0
  5  1  1  0  0  0  0
  8  7  1  0  0  0  0
  9 13  1  0  0  0  0
 10 16  2  0  0  0  0
 11 14  1  0  0  0  0
 12 42  1  6  0  0  0
 12  2  1  0  0  0  0
 12 11  1  0  0  0  0
 13  5  1  0  0  0  0
 14 17  1  0  0  0  0
 15 16  1  0  0  0  0
 16  3  1  0  0  0  0
 17  9  1  0  0  0  0
 18 25  1  0  0  0  0
 18 22  1  0  0  0  0
 19 20  1  0  0  0  0
 20 22  2  0  0  0  0
 21 24  1  0  0  0  0
 23 24  1  0  0  0  0
 23 19  2  0  0  0  0
 24 18  2  0  0  0  0
 26 25  1  0  0  0  0
 26 29  1  0  0  0  0
 29 28  2  0  0  0  0
 29 27  2  0  0  0  0
 30 29  1  0  0  0  0
 31 36  1  0  0  0  0
 32 33  1  0  0  0  0
 33 36  1  0  0  0  0
 33 30  1  0  0  0  0
 34 35  2  0  0  0  0
 34 32  1  0  0  0  0
 35 31  1  0  0  0  0
 39 41  1  6  0  0  0
 39  4  1  0  0  0  0
 39 38  1  0  0  0  0
 40 37  1  1  0  0  0
 40 39  1  0  0  0  0
 40 38  1  0  0  0  0
 43 49  1  0  0  0  0
 45 43  2  0  0  0  0
 46 49  1  0  0  0  0
 47 48  1  0  0  0  0
 47 50  1  0  0  0  0
 48 43  1  0  0  0  0
 49 52  1  1  0  0  0
 50 51  1  0  0  0  0
 50 46  1  1  0  0  0
 50 44  1  0  0  0  0
 51 42  1  1  0  0  0
 51 44  1  0  0  0  0
 52 53  2  0  0  0  0
M  END
>  <MODEL>
4

>  <REMARK>
 VINA RESULT:      -6.4      3.449      6.266
  Name = 
  10 active torsions:
  status: ('A' for Active; 'I' for Inactive)
    1  A    between atoms: C_2  and  C_51
    2  A    between atoms: C_3  and  C_52
    3  A    between atoms: C_11  and  C_28
    4  A    between atoms: C_15  and  C_39
    5  A    between atoms: N_27  and  C_42
    6  A    between atoms: N_31  and  S_40
    7  A    between atoms: N_31  and  C_51
    8  A    between atoms: C_33  and  C_46
    9  A    between atoms: C_35  and  C_46
   10  A    between atoms: S_40  and  C_42
                            x       y       z     vdW  Elec       q    Type
                         _______ _______ _______ _____ _____    ______ ____

>  <TORSDO>
F 10

$$$$
=
 OpenBabel10232409313D

 53 58  0  0  1  0  0  0  0  0999 V2000
  189.0400  176.5850  139.8770 C   0  0  1  0  0  3  0  0  0  0  0  0
  192.5900  175.8900  134.8910 C   0  0  0  0  0  2  0  0  0  0  0  0
  188.3300  177.2710  138.7180 C   0  0  0  0  0  0  0  0  0  0  0  0
  188.9580  174.8650  135.7460 C   0  0  2  0  0  3  0  0  0  0  0  0
  190.1680  175.8080  139.5190 O   0  0  0  0  0  0  0  0  0  0  0  0
  187.6760  178.3280  138.9360 O   0  0  0  0  0  0  0  0  0  0  0  0
  191.4700  175.2230  135.6700 C   0  0  0  0  0  2  0  0  0  0  0  0
  190.1340  175.5040  135.0000 C   0  0  0  0  0  2  0  0  0  0  0  0
  192.5070  176.3330  139.5440 C   0  0  0  0  0  2  0  0  0  0  0  0
  187.8660  177.4000  136.4040 O   0  0  0  0  0  0  0  0  0  0  0  0
  194.5730  176.5700  136.2960 C   0  0  0  0  0  2  0  0  0  0  0  0
  193.9330  175.4540  135.4710 C   0  0  2  0  0  3  0  0  0  0  0  0
  191.1430  176.6490  138.9550 C   0  0  0  0  0  2  0  0  0  0  0  0
  193.7070  177.0220  137.4650 C   0  0  0  0  0  2  0  0  0  0  0  0
  188.8350  175.4000  137.0970 N   0  0  0  0  0  2  0  0  0  0  0  0
  188.3290  176.7110  137.3530 C   0  0  0  0  0  0  0  0  0  0  0  0
  193.4680  175.8900  138.4520 C   0  0  0  0  0  2  0  0  0  0  0  0
  190.4220  177.8430  143.2080 C   0  0  0  0  0  0  0  0  0  0  0  0
  188.7850  178.7680  141.1380 C   0  0  0  0  0  3  0  0  0  0  0  0
  189.0780  179.6010  142.2190 C   0  0  0  0  0  3  0  0  0  0  0  0
  190.6690  175.7570  142.0560 F   0  0  0  0  0  0  0  0  0  0  0  0
  189.8980  179.1410  143.2510 C   0  0  0  0  0  3  0  0  0  0  0  0
  189.2990  177.4610  141.0830 C   0  0  0  0  0  0  0  0  0  0  0  0
  190.1290  177.0030  142.1190 C   0  0  0  0  0  0  0  0  0  0  0  0
  191.3430  177.3980  144.2910 C   0  0  0  0  0  2  0  0  0  0  0  0
  191.0610  178.1430  145.5080 N   0  0  0  0  0  2  0  0  0  0  0  0
  191.7790  175.7830  146.4790 O   0  0  0  0  0  0  0  0  0  0  0  0
  191.5420  177.6480  148.0530 O   0  0  0  0  0  0  0  0  0  0  0  0
  190.9760  177.0110  146.8150 S   0  0  0  0  0  0  0  0  0  0  0  0
  189.2770  176.5560  147.1080 C   0  0  0  0  0  2  0  0  0  0  0  0
  186.7610  177.9560  144.7650 C   0  0  0  0  0  2  0  0  0  0  0  0
  187.4280  177.9010  147.5950 C   0  0  0  0  0  2  0  0  0  0  0  0
  188.3910  177.5610  146.5470 N   0  0  0  0  0  0  0  0  0  0  0  0
  186.3620  178.8250  147.0650 C   0  0  0  0  0  3  0  0  0  0  0  0
  186.0290  178.8160  145.7640 C   0  0  0  0  0  3  0  0  0  0  0  0
  187.6530  176.9230  145.4580 C   0  0  0  0  0  2  0  0  0  0  0  0
  186.6660  173.2800  135.4070 O   0  0  0  0  0  1  0  0  0  0  0  0
  188.3700  172.6870  136.9610 C   0  0  0  0  0  2  0  0  0  0  0  0
  189.0420  173.3370  135.7750 C   0  0  1  0  0  0  0  0  0  0  0  0
  187.8020  172.4850  135.5590 C   0  0  2  0  0  3  0  0  0  0  0  0
  190.2500  172.7250  135.4410 O   0  0  0  0  0  1  0  0  0  0  0  0
  194.8930  175.0790  134.3550 C   0  0  0  0  0  2  0  0  0  0  0  0
  199.0780  172.6950  135.9950 C   0  0  0  0  0  0  0  0  0  0  0  0
  195.6050  173.2690  135.7610 O   0  0  0  0  0  0  0  0  0  0  0  0
  200.2320  172.3340  136.1560 O   0  0  0  0  0  0  0  0  0  0  0  0
  197.6250  174.5540  135.1990 C   0  0  0  0  0  2  0  0  0  0  0  0
  197.2480  172.1490  134.5250 O   0  0  0  0  0  0  0  0  0  0  0  0
  198.0110  171.6980  135.6240 C   0  0  0  0  0  2  0  0  0  0  0  0
  198.6810  174.1240  136.2270 C   0  0  1  0  0  3  0  0  0  0  0  0
  196.6760  173.3940  134.8590 C   0  0  1  0  0  0  0  0  0  0  0  0
  195.2700  173.6040  134.4280 C   0  0  2  0  0  3  0  0  0  0  0  0
  198.1600  174.2850  137.6220 C   0  0  0  0  0  3  0  0  0  0  0  0
  197.2650  175.0770  137.8650 O   0  0  0  0  0  0  0  0  0  0  0  0
  1 23  1  1  0  0  0
  2 12  1  0  0  0  0
  2  7  1  0  0  0  0
  3  6  2  0  0  0  0
  3  1  1  0  0  0  0
  4  8  1  1  0  0  0
  4 39  1  0  0  0  0
  4 15  1  0  0  0  0
  5  1  1  0  0  0  0
  8  7  1  0  0  0  0
 10 16  2  0  0  0  0
 11 14  1  0  0  0  0
 12 42  1  6  0  0  0
 12 11  1  0  0  0  0
 13  5  1  0  0  0  0
 13  9  1  0  0  0  0
 14 17  1  0  0  0  0
 15 16  1  0  0  0  0
 16  3  1  0  0  0  0
 17  9  1  0  0  0  0
 18 22  1  0  0  0  0
 18 25  1  0  0  0  0
 19 20  1  0  0  0  0
 20 22  2  0  0  0  0
 21 24  1  0  0  0  0
 23 19  2  0  0  0  0
 23 24  1  0  0  0  0
 24 18  2  0  0  0  0
 25 26  1  0  0  0  0
 26 29  1  0  0  0  0
 27 29  2  0  0  0  0
 29 30  1  0  0  0  0
 29 28  2  0  0  0  0
 31 36  1  0  0  0  0
 31 35  1  0  0  0  0
 33 30  1  0  0  0  0
 33 32  1  0  0  0  0
 34 32  1  0  0  0  0
 35 34  2  0  0  0  0
 36 33  1  0  0  0  0
 39 41  1  6  0  0  0
 39 38  1  0  0  0  0
 40 37  1  1  0  0  0
 40 39  1  0  0  0  0
 40 38  1  0  0  0  0
 43 45  2  0  0  0  0
 43 49  1  0  0  0  0
 46 49  1  0  0  0  0
 47 50  1  0  0  0  0
 47 48  1  0  0  0  0
 48 43  1  0  0  0  0
 49 52  1  1  0  0  0
 50 46  1  1  0  0  0
 50 44  1  0  0  0  0
 51 42  1  1  0  0  0
 51 50  1  0  0  0  0
 51 44  1  0  0  0  0
 52 53  2  0  0  0  0
M  END
>  <MODEL>
5

>  <REMARK>
 VINA RESULT:      -6.0      4.695      6.596
  Name = 
  10 active torsions:
  status: ('A' for Active; 'I' for Inactive)
    1  A    between atoms: C_2  and  C_51
    2  A    between atoms: C_3  and  C_52
    3  A    between atoms: C_11  and  C_28
    4  A    between atoms: C_15  and  C_39
    5  A    between atoms: N_27  and  C_42
    6  A    between atoms: N_31  and  S_40
    7  A    between atoms: N_31  and  C_51
    8  A    between atoms: C_33  and  C_46
    9  A    between atoms: C_35  and  C_46
   10  A    between atoms: S_40  and  C_42
                            x       y       z     vdW  Elec       q    Type
                         _______ _______ _______ _____ _____    ______ ____

>  <TORSDO>
F 10

$$$$
=
 OpenBabel10232409313D

 53 58  0  0  1  0  0  0  0  0999 V2000
  192.4560  174.4890  137.9150 C   0  0  1  0  0  3  0  0  0  0  0  0
  187.7480  178.4460  138.2650 C   0  0  0  0  0  2  0  0  0  0  0  0
  193.0480  175.8810  138.0840 C   0  0  0  0  0  0  0  0  0  0  0  0
  190.6660  177.5520  140.6430 C   0  0  2  0  0  3  0  0  0  0  0  0
  191.0520  174.4040  138.0880 O   0  0  0  0  0  0  0  0  0  0  0  0
  194.1250  176.1680  137.4920 O   0  0  0  0  0  0  0  0  0  0  0  0
  188.6370  177.5590  139.1190 C   0  0  0  0  0  2  0  0  0  0  0  0
  189.7260  178.3930  139.7740 C   0  0  0  0  0  2  0  0  0  0  0  0
  189.2720  174.4020  136.4840 C   0  0  0  0  0  2  0  0  0  0  0  0
  192.8760  178.0770  138.9420 O   0  0  0  0  0  0  0  0  0  0  0  0
  186.7140  177.2810  136.2800 C   0  0  0  0  0  2  0  0  0  0  0  0
  186.5620  177.6300  137.7600 C   0  0  2  0  0  3  0  0  0  0  0  0
  190.4220  175.1790  137.0990 C   0  0  0  0  0  2  0  0  0  0  0  0
  187.9710  176.4740  135.9810 C   0  0  0  0  0  2  0  0  0  0  0  0
  191.3690  176.5520  139.8490 N   0  0  0  0  0  2  0  0  0  0  0  0
  192.4380  176.8940  138.9660 C   0  0  0  0  0  0  0  0  0  0  0  0
  187.9570  175.1350  136.7020 C   0  0  0  0  0  2  0  0  0  0  0  0
  194.3730  172.0330  135.7050 C   0  0  0  0  0  0  0  0  0  0  0  0
  192.2950  173.8890  135.4590 C   0  0  0  0  0  3  0  0  0  0  0  0
  192.6940  173.1380  134.3510 C   0  0  0  0  0  3  0  0  0  0  0  0
  194.5700  172.5890  138.0270 F   0  0  0  0  0  0  0  0  0  0  0  0
  193.7280  172.2090  134.4750 C   0  0  0  0  0  3  0  0  0  0  0  0
  192.9360  173.7270  136.6990 C   0  0  0  0  0  0  0  0  0  0  0  0
  193.9730  172.7870  136.8220 C   0  0  0  0  0  0  0  0  0  0  0  0
  195.4330  170.9930  135.8260 C   0  0  0  0  0  2  0  0  0  0  0  0
  196.5680  171.3550  134.9920 N   0  0  0  0  0  2  0  0  0  0  0  0
  197.6420  170.7810  137.3470 O   0  0  0  0  0  0  0  0  0  0  0  0
  199.0080  170.4180  135.3440 O   0  0  0  0  0  0  0  0  0  0  0  0
  197.9860  171.3170  135.9840 S   0  0  0  0  0  0  0  0  0  0  0  0
  198.6590  172.9610  136.1370 C   0  0  0  0  0  2  0  0  0  0  0  0
  199.8740  174.6810  139.1930 C   0  0  0  0  0  2  0  0  0  0  0  0
  197.4230  174.1610  137.7170 C   0  0  0  0  0  2  0  0  0  0  0  0
  198.6430  173.3760  137.5280 N   0  0  0  0  0  0  0  0  0  0  0  0
  197.3860  174.7740  139.0940 C   0  0  0  0  0  3  0  0  0  0  0  0
  198.5220  175.0500  139.7530 C   0  0  0  0  0  3  0  0  0  0  0  0
  199.7810  174.2750  137.7200 C   0  0  0  0  0  2  0  0  0  0  0  0
  191.6170  177.8440  143.2680 O   0  0  0  0  0  1  0  0  0  0  0  0
  190.7110  175.7820  142.4950 C   0  0  0  0  0  2  0  0  0  0  0  0
  189.9450  176.8970  141.8240 C   0  0  1  0  0  0  0  0  0  0  0  0
  190.4470  177.0850  143.2450 C   0  0  2  0  0  3  0  0  0  0  0  0
  188.5830  176.6160  141.7050 O   0  0  0  0  0  1  0  0  0  0  0  0
  185.2710  178.4130  137.9320 C   0  0  0  0  0  2  0  0  0  0  0  0
  180.8860  179.8630  140.0680 C   0  0  0  0  0  0  0  0  0  0  0  0
  183.0500  177.6330  138.3950 O   0  0  0  0  0  0  0  0  0  0  0  0
  180.0280  180.4850  140.6710 O   0  0  0  0  0  0  0  0  0  0  0  0
  183.0510  180.0500  138.8510 C   0  0  0  0  0  2  0  0  0  0  0  0
  182.6250  178.2820  140.6040 O   0  0  0  0  0  0  0  0  0  0  0  0
  181.2300  178.4510  140.4670 C   0  0  0  0  0  2  0  0  0  0  0  0
  181.5720  180.4620  138.8740 C   0  0  1  0  0  3  0  0  0  0  0  0
  183.2380  178.6190  139.3790 C   0  0  1  0  0  0  0  0  0  0  0  0
  184.3500  177.7370  138.9410 C   0  0  2  0  0  3  0  0  0  0  0  0
  180.8800  180.0240  137.6200 C   0  0  0  0  0  3  0  0  0  0  0  0
  181.1160  180.5700  136.5560 O   0  0  0  0  0  0  0  0  0  0  0  0
  1 23  1  6  0  0  0
  1  3  1  0  0  0  0
  1  5  1  0  0  0  0
  2  7  1  0  0  0  0
  3 16  1  0  0  0  0
  4  8  1  6  0  0  0
  4 39  1  0  0  0  0
  6  3  2  0  0  0  0
  7  8  1  0  0  0  0
  9 17  1  0  0  0  0
  9 13  1  0  0  0  0
 10 16  2  0  0  0  0
 11 12  1  0  0  0  0
 12 42  1  6  0  0  0
 12  2  1  0  0  0  0
 13  5  1  0  0  0  0
 14 11  1  0  0  0  0
 14 17  1  0  0  0  0
 15  4  1  0  0  0  0
 16 15  1  0  0  0  0
 18 25  1  0  0  0  0
 18 24  1  0  0  0  0
 19 23  1  0  0  0  0
 20 22  1  0  0  0  0
 20 19  2  0  0  0  0
 22 18  2  0  0  0  0
 23 24  2  0  0  0  0
 24 21  1  0  0  0  0
 26 25  1  0  0  0  0
 26 29  1  0  0  0  0
 28 29  2  0  0  0  0
 29 30  1  0  0  0  0
 29 27  2  0  0  0  0
 30 33  1  0  0  0  0
 31 35  1  0  0  0  0
 32 34  1  0  0  0  0
 33 32  1  0  0  0  0
 33 36  1  0  0  0  0
 34 35  2  0  0  0  0
 36 31  1  0  0  0  0
 38 40  1  0  0  0  0
 39 41  1  6  0  0  0
 39 38  1  0  0  0  0
 39 40  1  0  0  0  0
 40 37  1  6  0  0  0
 43 48  1  0  0  0  0
 43 45  2  0  0  0  0
 44 51  1  0  0  0  0
 44 50  1  0  0  0  0
 46 49  1  0  0  0  0
 48 47  1  0  0  0  0
 49 52  1  6  0  0  0
 49 43  1  0  0  0  0
 50 46  1  6  0  0  0
 50 47  1  0  0  0  0
 51 42  1  6  0  0  0
 51 50  1  0  0  0  0
 53 52  2  0  0  0  0
M  END
>  <MODEL>
6

>  <REMARK>
 VINA RESULT:      -6.0      5.279     12.318
  Name = 
  10 active torsions:
  status: ('A' for Active; 'I' for Inactive)
    1  A    between atoms: C_2  and  C_51
    2  A    between atoms: C_3  and  C_52
    3  A    between atoms: C_11  and  C_28
    4  A    between atoms: C_15  and  C_39
    5  A    between atoms: N_27  and  C_42
    6  A    between atoms: N_31  and  S_40
    7  A    between atoms: N_31  and  C_51
    8  A    between atoms: C_33  and  C_46
    9  A    between atoms: C_35  and  C_46
   10  A    between atoms: S_40  and  C_42
                            x       y       z     vdW  Elec       q    Type
                         _______ _______ _______ _____ _____    ______ ____

>  <TORSDO>
F 10

$$$$
=
 OpenBabel10232409313D

 53 58  0  0  1  0  0  0  0  0999 V2000
  182.0880  176.5100  139.8240 C   0  0  1  0  0  3  0  0  0  0  0  0
  185.8660  176.5440  134.9590 C   0  0  0  0  0  2  0  0  0  0  0  0
  181.2210  176.4030  138.5780 C   0  0  0  0  0  0  0  0  0  0  0  0
  183.2480  174.0250  136.2880 C   0  0  2  0  0  3  0  0  0  0  0  0
  183.4810  176.3780  139.6040 O   0  0  0  0  0  0  0  0  0  0  0  0
  180.0970  176.9760  138.5600 O   0  0  0  0  0  0  0  0  0  0  0  0
  185.2000  175.6110  135.9560 C   0  0  0  0  0  2  0  0  0  0  0  0
  183.9730  174.9710  135.3260 C   0  0  0  0  0  2  0  0  0  0  0  0
  185.1910  178.0360  139.3370 C   0  0  0  0  0  2  0  0  0  0  0  0
  180.9440  175.6810  136.3450 O   0  0  0  0  0  0  0  0  0  0  0  0
  187.0830  178.4900  136.0070 C   0  0  0  0  0  2  0  0  0  0  0  0
  187.1880  177.0390  135.5400 C   0  0  2  0  0  3  0  0  0  0  0  0
  183.9160  177.4300  138.7790 C   0  0  0  0  0  2  0  0  0  0  0  0
  186.0180  178.7000  137.0760 C   0  0  0  0  0  2  0  0  0  0  0  0
  182.7560  174.7360  137.4610 N   0  0  0  0  0  2  0  0  0  0  0  0
  181.6220  175.6020  137.4060 C   0  0  0  0  0  0  0  0  0  0  0  0
  186.3270  177.9040  138.3340 C   0  0  0  0  0  2  0  0  0  0  0  0
  182.3520  179.1170  142.6040 C   0  0  0  0  0  0  0  0  0  0  0  0
  180.6170  178.4540  140.5130 C   0  0  0  0  0  3  0  0  0  0  0  0
  180.3430  179.5580  141.3220 C   0  0  0  0  0  3  0  0  0  0  0  0
  183.7580  177.2740  141.9970 F   0  0  0  0  0  0  0  0  0  0  0  0
  181.2110  179.8910  142.3630 C   0  0  0  0  0  3  0  0  0  0  0  0
  181.7550  177.6630  140.7450 C   0  0  0  0  0  0  0  0  0  0  0  0
  182.6300  178.0040  141.7900 C   0  0  0  0  0  0  0  0  0  0  0  0
  183.2930  179.5280  143.6830 C   0  0  0  0  0  2  0  0  0  0  0  0
  184.3480  178.5360  143.8140 N   0  0  0  0  0  2  0  0  0  0  0  0
  185.6040  180.0680  145.5750 O   0  0  0  0  0  0  0  0  0  0  0  0
  183.9420  178.4750  146.4190 O   0  0  0  0  0  0  0  0  0  0  0  0
  185.0260  178.6900  145.3990 S   0  0  0  0  0  0  0  0  0  0  0  0
  186.3040  177.4680  145.6290 C   0  0  0  0  0  2  0  0  0  0  0  0
  189.8210  178.0340  144.5860 C   0  0  0  0  0  2  0  0  0  0  0  0
  187.4350  176.5750  143.7870 C   0  0  0  0  0  2  0  0  0  0  0  0
  187.3970  177.7140  144.7050 N   0  0  0  0  0  0  0  0  0  0  0  0
  188.6370  176.6550  142.8810 C   0  0  0  0  0  3  0  0  0  0  0  0
  189.7510  177.2940  143.2730 C   0  0  0  0  0  3  0  0  0  0  0  0
  188.6330  177.6920  145.4880 C   0  0  0  0  0  2  0  0  0  0  0  0
  183.5530  171.7990  134.6050 O   0  0  0  0  0  1  0  0  0  0  0  0
  183.3510  171.5550  136.9640 C   0  0  0  0  0  2  0  0  0  0  0  0
  184.1140  172.8320  136.7020 C   0  0  1  0  0  0  0  0  0  0  0  0
  184.3000  171.6440  135.7720 C   0  0  2  0  0  3  0  0  0  0  0  0
  185.1450  173.0380  137.6190 O   0  0  0  0  0  1  0  0  0  0  0  0
  188.2880  176.9550  134.4970 C   0  0  0  0  0  2  0  0  0  0  0  0
  192.1140  175.7120  137.6130 C   0  0  0  0  0  0  0  0  0  0  0  0
  189.0140  175.2300  135.9990 O   0  0  0  0  0  0  0  0  0  0  0  0
  193.1730  175.6980  138.2180 O   0  0  0  0  0  0  0  0  0  0  0  0
  190.5080  177.1490  136.3640 C   0  0  0  0  0  2  0  0  0  0  0  0
  191.2780  174.9020  135.5020 O   0  0  0  0  0  0  0  0  0  0  0  0
  191.6840  174.5200  136.7990 C   0  0  0  0  0  2  0  0  0  0  0  0
  191.1860  176.8870  137.7170 C   0  0  1  0  0  3  0  0  0  0  0  0
  190.2250  175.8340  135.6210 C   0  0  1  0  0  0  0  0  0  0  0  0
  189.1030  175.6770  134.6600 C   0  0  2  0  0  3  0  0  0  0  0  0
  190.1630  176.6310  138.7820 C   0  0  0  0  0  3  0  0  0  0  0  0
  189.9510  177.4570  139.6530 O   0  0  0  0  0  0  0  0  0  0  0  0
  1 23  1  6  0  0  0
  2 12  1  0  0  0  0
  2  7  1  0  0  0  0
  3  1  1  0  0  0  0
  4  8  1  6  0  0  0
  4 39  1  0  0  0  0
  4 15  1  0  0  0  0
  5  1  1  0  0  0  0
  6  3  2  0  0  0  0
  8  7  1  0  0  0  0
 10 16  2  0  0  0  0
 11 14  1  0  0  0  0
 12 42  1  6  0  0  0
 12 11  1  0  0  0  0
 13  9  1  0  0  0  0
 13  5  1  0  0  0  0
 14 17  1  0  0  0  0
 16 15  1  0  0  0  0
 16  3  1  0  0  0  0
 17  9  1  0  0  0  0
 18 25  1  0  0  0  0
 19 23  2  0  0  0  0
 19 20  1  0  0  0  0
 20 22  2  0  0  0  0
 22 18  1  0  0  0  0
 23 24  1  0  0  0  0
 24 21  1  0  0  0  0
 24 18  2  0  0  0  0
 25 26  1  0  0  0  0
 26 29  1  0  0  0  0
 29 27  2  0  0  0  0
 29 30  1  0  0  0  0
 29 28  2  0  0  0  0
 31 36  1  0  0  0  0
 32 33  1  0  0  0  0
 33 36  1  0  0  0  0
 33 30  1  0  0  0  0
 34 35  2  0  0  0  0
 34 32  1  0  0  0  0
 35 31  1  0  0  0  0
 39 38  1  0  0  0  0
 39 41  1  1  0  0  0
 40 37  1  6  0  0  0
 40 39  1  0  0  0  0
 40 38  1  0  0  0  0
 43 49  1  0  0  0  0
 43 45  2  0  0  0  0
 46 49  1  0  0  0  0
 47 50  1  0  0  0  0
 47 48  1  0  0  0  0
 48 43  1  0  0  0  0
 49 52  1  1  0  0  0
 50 44  1  0  0  0  0
 50 46  1  1  0  0  0
 51 42  1  1  0  0  0
 51 50  1  0  0  0  0
 51 44  1  0  0  0  0
 52 53  2  0  0  0  0
M  END
>  <MODEL>
7

>  <REMARK>
 VINA RESULT:      -6.0      1.896      2.542
  Name = 
  10 active torsions:
  status: ('A' for Active; 'I' for Inactive)
    1  A    between atoms: C_2  and  C_51
    2  A    between atoms: C_3  and  C_52
    3  A    between atoms: C_11  and  C_28
    4  A    between atoms: C_15  and  C_39
    5  A    between atoms: N_27  and  C_42
    6  A    between atoms: N_31  and  S_40
    7  A    between atoms: N_31  and  C_51
    8  A    between atoms: C_33  and  C_46
    9  A    between atoms: C_35  and  C_46
   10  A    between atoms: S_40  and  C_42
                            x       y       z     vdW  Elec       q    Type
                         _______ _______ _______ _____ _____    ______ ____

>  <TORSDO>
F 10

$$$$
=
 OpenBabel10232409313D

 53 58  0  0  1  0  0  0  0  0999 V2000
  184.3310  177.9420  142.0100 C   0  0  1  0  0  3  0  0  0  0  0  0
  187.1580  178.4780  136.5640 C   0  0  0  0  0  2  0  0  0  0  0  0
  183.4790  178.8630  141.1480 C   0  0  0  0  0  0  0  0  0  0  0  0
  183.6630  177.2190  137.6450 C   0  0  2  0  0  3  0  0  0  0  0  0
  185.3890  177.2880  141.3330 O   0  0  0  0  0  0  0  0  0  0  0  0
  182.8760  179.8290  141.6910 O   0  0  0  0  0  0  0  0  0  0  0  0
  186.1450  177.6300  137.3130 C   0  0  0  0  0  2  0  0  0  0  0  0
  184.7350  178.0330  136.9130 C   0  0  0  0  0  2  0  0  0  0  0  0
  187.7160  177.8360  141.1610 C   0  0  0  0  0  2  0  0  0  0  0  0
  182.7060  179.5140  139.0120 O   0  0  0  0  0  0  0  0  0  0  0  0
  189.3230  178.8520  137.8060 C   0  0  0  0  0  2  0  0  0  0  0  0
  188.5620  177.9450  136.8400 C   0  0  2  0  0  3  0  0  0  0  0  0
  186.2890  178.2540  140.8510 C   0  0  0  0  0  2  0  0  0  0  0  0
  188.6320  179.0070  139.1540 C   0  0  0  0  0  2  0  0  0  0  0  0
  183.7330  177.4250  139.0860 N   0  0  0  0  0  2  0  0  0  0  0  0
  183.2840  178.6320  139.7040 C   0  0  0  0  0  0  0  0  0  0  0  0
  188.5140  177.6740  139.8760 C   0  0  0  0  0  2  0  0  0  0  0  0
  186.0660  178.3500  145.3890 C   0  0  0  0  0  0  0  0  0  0  0  0
  184.3960  179.8280  143.7000 C   0  0  0  0  0  3  0  0  0  0  0  0
  184.8500  180.3870  144.8970 C   0  0  0  0  0  3  0  0  0  0  0  0
  186.0110  176.5360  143.8250 F   0  0  0  0  0  0  0  0  0  0  0  0
  185.6860  179.6510  145.7370 C   0  0  0  0  0  3  0  0  0  0  0  0
  184.7640  178.5200  143.3390 C   0  0  0  0  0  0  0  0  0  0  0  0
  185.6110  177.7840  144.1840 C   0  0  0  0  0  0  0  0  0  0  0  0
  187.0070  177.6080  146.2740 C   0  0  0  0  0  2  0  0  0  0  0  0
  188.2990  178.2770  146.2800 N   0  0  0  0  0  2  0  0  0  0  0  0
  189.5820  178.3680  148.5980 O   0  0  0  0  0  0  0  0  0  0  0  0
  188.6070  176.2270  147.9100 O   0  0  0  0  0  0  0  0  0  0  0  0
  189.3100  177.4640  147.4260 S   0  0  0  0  0  0  0  0  0  0  0  0
  190.8490  177.0040  146.6520 C   0  0  0  0  0  2  0  0  0  0  0  0
  191.2330  178.6260  143.3350 C   0  0  0  0  0  2  0  0  0  0  0  0
  191.5130  176.0370  144.6290 C   0  0  0  0  0  2  0  0  0  0  0  0
  190.7360  177.1330  145.2100 N   0  0  0  0  0  0  0  0  0  0  0  0
  191.5910  176.1690  143.1300 C   0  0  0  0  0  3  0  0  0  0  0  0
  191.5030  177.3720  142.5410 C   0  0  0  0  0  3  0  0  0  0  0  0
  191.3940  178.3850  144.8380 C   0  0  0  0  0  2  0  0  0  0  0  0
  182.2660  176.1630  135.4500 O   0  0  0  0  0  1  0  0  0  0  0  0
  182.4350  174.9750  137.5060 C   0  0  0  0  0  2  0  0  0  0  0  0
  183.7290  175.7270  137.3080 C   0  0  1  0  0  0  0  0  0  0  0  0
  182.9950  175.1680  136.1000 C   0  0  2  0  0  3  0  0  0  0  0  0
  184.8430  174.9940  137.7200 O   0  0  0  0  0  1  0  0  0  0  0  0
  189.3550  177.8550  135.5480 C   0  0  0  0  0  2  0  0  0  0  0  0
  192.3630  173.7640  135.8830 C   0  0  0  0  0  0  0  0  0  0  0  0
  189.2890  175.4940  135.9740 O   0  0  0  0  0  0  0  0  0  0  0  0
  193.3210  173.0110  135.8500 O   0  0  0  0  0  0  0  0  0  0  0  0
  191.6600  176.1490  136.0310 C   0  0  0  0  0  2  0  0  0  0  0  0
  190.6770  174.5430  134.3460 O   0  0  0  0  0  0  0  0  0  0  0  0
  191.1090  173.4390  135.1130 C   0  0  0  0  0  2  0  0  0  0  0  0
  192.3840  174.9960  136.7410 C   0  0  1  0  0  3  0  0  0  0  0  0
  190.4630  175.6340  135.2140 C   0  0  1  0  0  0  0  0  0  0  0  0
  189.2600  176.4600  134.9410 C   0  0  2  0  0  3  0  0  0  0  0  0
  191.7450  174.7030  138.0630 C   0  0  0  0  0  3  0  0  0  0  0  0
  191.1440  175.5720  138.6710 O   0  0  0  0  0  0  0  0  0  0  0  0
  1 23  1  1  0  0  0
  2 12  1  0  0  0  0
  2  7  1  0  0  0  0
  3  6  2  0  0  0  0
  3  1  1  0  0  0  0
  4  8  1  6  0  0  0
  4 15  1  0  0  0  0
  5  1  1  0  0  0  0
  8  7  1  0  0  0  0
 10 16  2  0  0  0  0
 11 14  1  0  0  0  0
 12 42  1  6  0  0  0
 12 11  1  0  0  0  0
 13  9  1  0  0  0  0
 13  5  1  0  0  0  0
 14 17  1  0  0  0  0
 15 16  1  0  0  0  0
 16  3  1  0  0  0  0
 17  9  1  0  0  0  0
 18 22  1  0  0  0  0
 18 25  1  0  0  0  0
 19 20  1  0  0  0  0
 20 22  2  0  0  0  0
 21 24  1  0  0  0  0
 23 19  2  0  0  0  0
 23 24  1  0  0  0  0
 24 18  2  0  0  0  0
 25 26  1  0  0  0  0
 26 29  1  0  0  0  0
 29 28  2  0  0  0  0
 29 27  2  0  0  0  0
 30 29  1  0  0  0  0
 31 36  1  0  0  0  0
 32 33  1  0  0  0  0
 33 30  1  0  0  0  0
 34 32  1  0  0  0  0
 35 34  2  0  0  0  0
 35 31  1  0  0  0  0
 36 33  1  0  0  0  0
 39 38  1  0  0  0  0
 39  4  1  0  0  0  0
 39 41  1  1  0  0  0
 40 37  1  6  0  0  0
 40 39  1  0  0  0  0
 40 38  1  0  0  0  0
 43 49  1  0  0  0  0
 45 43  2  0  0  0  0
 46 49  1  0  0  0  0
 47 48  1  0  0  0  0
 47 50  1  0  0  0  0
 48 43  1  0  0  0  0
 49 52  1  1  0  0  0
 50 44  1  0  0  0  0
 50 46  1  1  0  0  0
 51 50  1  0  0  0  0
 51 42  1  1  0  0  0
 51 44  1  0  0  0  0
 52 53  2  0  0  0  0
M  END
>  <MODEL>
8

>  <REMARK>
 VINA RESULT:      -5.8      3.217      5.078
  Name = 
  10 active torsions:
  status: ('A' for Active; 'I' for Inactive)
    1  A    between atoms: C_2  and  C_51
    2  A    between atoms: C_3  and  C_52
    3  A    between atoms: C_11  and  C_28
    4  A    between atoms: C_15  and  C_39
    5  A    between atoms: N_27  and  C_42
    6  A    between atoms: N_31  and  S_40
    7  A    between atoms: N_31  and  C_51
    8  A    between atoms: C_33  and  C_46
    9  A    between atoms: C_35  and  C_46
   10  A    between atoms: S_40  and  C_42
                            x       y       z     vdW  Elec       q    Type
                         _______ _______ _______ _____ _____    ______ ____

>  <TORSDO>
F 10

$$$$
=
 OpenBabel10232409313D

 53 58  0  0  1  0  0  0  0  0999 V2000
  190.9800  174.1670  136.2110 C   0  0  1  0  0  3  0  0  0  0  0  0
  185.2210  176.1730  135.3450 C   0  0  0  0  0  2  0  0  0  0  0  0
  191.0550  175.3600  135.2700 C   0  0  0  0  0  0  0  0  0  0  0  0
  188.4370  177.8110  136.7380 C   0  0  2  0  0  3  0  0  0  0  0  0
  189.7140  173.9440  136.8060 O   0  0  0  0  0  0  0  0  0  0  0  0
  191.9140  175.3630  134.3460 O   0  0  0  0  0  0  0  0  0  0  0  0
  186.4270  176.3400  136.2520 C   0  0  0  0  0  2  0  0  0  0  0  0
  187.1990  177.5910  135.8640 C   0  0  0  0  0  2  0  0  0  0  0  0
  187.9330  172.4610  136.1950 C   0  0  0  0  0  2  0  0  0  0  0  0
  190.1860  177.4320  134.5360 O   0  0  0  0  0  0  0  0  0  0  0  0
  184.5170  173.7770  134.9800 C   0  0  0  0  0  2  0  0  0  0  0  0
  184.3630  175.0190  135.8560 C   0  0  2  0  0  3  0  0  0  0  0  0
  188.7780  173.6590  135.7960 C   0  0  0  0  0  2  0  0  0  0  0  0
  185.9520  173.2690  134.9060 C   0  0  0  0  0  2  0  0  0  0  0  0
  189.3850  176.7120  136.6000 N   0  0  0  0  0  2  0  0  0  0  0  0
  190.1950  176.5480  135.4360 C   0  0  0  0  0  0  0  0  0  0  0  0
  186.4650  172.8500  136.2750 C   0  0  0  0  0  2  0  0  0  0  0  0
  193.4100  171.2600  135.7230 C   0  0  0  0  0  0  0  0  0  0  0  0
  190.9010  172.0700  134.7910 C   0  0  0  0  0  3  0  0  0  0  0  0
  191.4480  170.8610  134.3570 C   0  0  0  0  0  3  0  0  0  0  0  0
  193.5320  173.2420  137.0630 F   0  0  0  0  0  0  0  0  0  0  0  0
  192.6990  170.4550  134.8250 C   0  0  0  0  0  3  0  0  0  0  0  0
  191.6050  172.8920  135.6870 C   0  0  0  0  0  0  0  0  0  0  0  0
  192.8610  172.4780  136.1610 C   0  0  0  0  0  0  0  0  0  0  0  0
  194.7150  170.7760  136.2530 C   0  0  0  0  0  2  0  0  0  0  0  0
  195.7950  171.2620  135.4090 N   0  0  0  0  0  2  0  0  0  0  0  0
  196.9690  170.7310  137.7260 O   0  0  0  0  0  0  0  0  0  0  0  0
  198.1350  170.0750  135.6710 O   0  0  0  0  0  0  0  0  0  0  0  0
  197.2700  171.1280  136.3050 S   0  0  0  0  0  0  0  0  0  0  0  0
  198.1290  172.6890  136.2860 C   0  0  0  0  0  2  0  0  0  0  0  0
  195.6780  175.4640  136.0220 C   0  0  0  0  0  2  0  0  0  0  0  0
  198.2490  174.6120  134.9620 C   0  0  0  0  0  2  0  0  0  0  0  0
  197.3190  173.6940  135.6200 N   0  0  0  0  0  0  0  0  0  0  0  0
  197.5130  175.7870  134.3680 C   0  0  0  0  0  3  0  0  0  0  0  0
  196.3470  176.2010  134.8880 C   0  0  0  0  0  3  0  0  0  0  0  0
  196.6210  174.4430  136.6640 C   0  0  0  0  0  2  0  0  0  0  0  0
  190.4400  178.1100  138.6830 O   0  0  0  0  0  1  0  0  0  0  0  0
  188.4410  176.8980  139.1320 C   0  0  0  0  0  2  0  0  0  0  0  0
  188.0840  178.0390  138.2110 C   0  0  1  0  0  0  0  0  0  0  0  0
  189.1730  178.2320  139.2520 C   0  0  2  0  0  3  0  0  0  0  0  0
  186.8520  178.6150  138.5230 O   0  0  0  0  0  1  0  0  0  0  0  0
  182.8970  175.4150  135.8660 C   0  0  0  0  0  2  0  0  0  0  0  0
  181.8000  178.1420  140.0180 C   0  0  0  0  0  0  0  0  0  0  0  0
  181.1130  175.8770  137.4020 O   0  0  0  0  0  0  0  0  0  0  0  0
  181.8770  178.8640  140.9980 O   0  0  0  0  0  0  0  0  0  0  0  0
  182.8720  177.5360  137.8540 C   0  0  0  0  0  2  0  0  0  0  0  0
  182.1010  175.8030  139.5230 O   0  0  0  0  0  0  0  0  0  0  0  0
  181.2510  176.7450  140.1410 C   0  0  0  0  0  2  0  0  0  0  0  0
  182.1860  178.6490  138.6590 C   0  0  1  0  0  3  0  0  0  0  0  0
  182.2560  176.1630  138.1680 C   0  0  1  0  0  0  0  0  0  0  0  0
  182.2370  175.0460  137.1890 C   0  0  2  0  0  3  0  0  0  0  0  0
  180.9710  179.1510  137.9420 C   0  0  0  0  0  3  0  0  0  0  0  0
  180.9450  179.2080  136.7240 O   0  0  0  0  0  0  0  0  0  0  0  0
  1 23  1  6  0  0  0
  1  5  1  0  0  0  0
  2 12  1  0  0  0  0
  2  7  1  0  0  0  0
  3 16  1  0  0  0  0
  3  1  1  0  0  0  0
  4  8  1  6  0  0  0
  4 39  1  0  0  0  0
  6  3  2  0  0  0  0
  8  7  1  0  0  0  0
  9 17  1  0  0  0  0
 10 16  2  0  0  0  0
 11 12  1  0  0  0  0
 12 42  1  6  0  0  0
 13  9  1  0  0  0  0
 13  5  1  0  0  0  0
 14 11  1  0  0  0  0
 14 17  1  0  0  0  0
 15  4  1  0  0  0  0
 16 15  1  0  0  0  0
 18 24  1  0  0  0  0
 18 25  1  0  0  0  0
 19 23  1  0  0  0  0
 20 19  2  0  0  0  0
 20 22  1  0  0  0  0
 22 18  2  0  0  0  0
 23 24  2  0  0  0  0
 24 21  1  0  0  0  0
 26 25  1  0  0  0  0
 26 29  1  0  0  0  0
 28 29  2  0  0  0  0
 29 27  2  0  0  0  0
 30 29  1  0  0  0  0
 31 36  1  0  0  0  0
 32 33  1  0  0  0  0
 33 30  1  0  0  0  0
 33 36  1  0  0  0  0
 34 35  2  0  0  0  0
 34 32  1  0  0  0  0
 35 31  1  0  0  0  0
 38 40  1  0  0  0  0
 39 41  1  1  0  0  0
 39 38  1  0  0  0  0
 39 40  1  0  0  0  0
 40 37  1  6  0  0  0
 43 48  1  0  0  0  0
 43 45  2  0  0  0  0
 44 50  1  0  0  0  0
 46 49  1  0  0  0  0
 47 48  1  0  0  0  0
 49 52  1  6  0  0  0
 49 43  1  0  0  0  0
 50 46  1  6  0  0  0
 50 47  1  0  0  0  0
 51 42  1  6  0  0  0
 51 44  1  0  0  0  0
 51 50  1  0  0  0  0
 53 52  2  0  0  0  0
M  END
>  <MODEL>
9

>  <REMARK>
 VINA RESULT:      -5.8      4.823     11.718
  Name = 
  10 active torsions:
  status: ('A' for Active; 'I' for Inactive)
    1  A    between atoms: C_2  and  C_51
    2  A    between atoms: C_3  and  C_52
    3  A    between atoms: C_11  and  C_28
    4  A    between atoms: C_15  and  C_39
    5  A    between atoms: N_27  and  C_42
    6  A    between atoms: N_31  and  S_40
    7  A    between atoms: N_31  and  C_51
    8  A    between atoms: C_33  and  C_46
    9  A    between atoms: C_35  and  C_46
   10  A    between atoms: S_40  and  C_42
                            x       y       z     vdW  Elec       q    Type
                         _______ _______ _______ _____ _____    ______ ____

>  <TORSDO>
F 10

$$$$
