=
 OpenBabel10232408373D

 28 30  0  0  1  0  0  0  0  0999 V2000
  191.5440  176.4420  146.2880 C   0  0  0  0  0  0  0  0  0  0  0  0
  189.1210  177.5740  145.4430 C   0  0  0  0  0  0  0  0  0  0  0  0
  191.4290  176.9620  144.9980 C   0  0  0  0  0  3  0  0  0  0  0  0
  190.2330  177.5520  144.5730 C   0  0  0  0  0  0  0  0  0  0  0  0
  192.7130  175.8900  146.6940 F   0  0  0  0  0  0  0  0  0  0  0  0
  190.4580  176.4940  147.1620 C   0  0  0  0  0  3  0  0  0  0  0  0
  189.2500  177.0510  146.7400 C   0  0  0  0  0  3  0  0  0  0  0  0
  190.2250  175.9930  142.0950 O   0  0  0  0  0  0  0  0  0  0  0  0
  190.3800  177.2430  142.0580 C   0  0  0  0  0  0  0  0  0  0  0  0
  190.1550  178.0390  143.2270 N   0  0  0  0  0  2  0  0  0  0  0  0
  192.4010  176.5950  139.4370 C   0  0  0  0  0  3  0  0  0  0  0  0
  187.5980  177.9090  138.6200 C   0  0  0  0  0  2  0  0  0  0  0  0
  188.6110  178.1830  139.7040 C   0  0  0  0  0  3  0  0  0  0  0  0
  192.1640  177.4130  140.4220 N   0  0  0  0  0  0  0  0  0  0  0  0
  189.8220  177.6200  139.6930 C   0  0  0  0  0  0  0  0  0  0  0  0
  190.1430  176.6190  138.6650 C   0  0  0  0  0  0  0  0  0  0  0  0
  191.3450  176.1430  138.5750 N   0  0  0  0  0  0  0  0  0  0  0  0
  190.8230  177.8900  140.7850 C   0  0  1  0  0  3  0  0  0  0  0  0
  189.1060  176.1420  137.8020 N   0  0  0  0  0  0  0  0  0  0  0  0
  187.9270  176.6910  137.7900 C   0  0  0  0  0  3  0  0  0  0  0  0
  187.8610  178.0860  144.9910 N   0  0  0  0  0  2  0  0  0  0  0  0
  186.8420  177.2830  144.3330 C   0  0  0  0  0  2  0  0  0  0  0  0
  186.6880  177.7340  142.8890 C   0  0  0  0  0  2  0  0  0  0  0  0
  185.4550  178.6240  142.7320 C   0  0  2  0  0  3  0  0  0  0  0  0
  183.7700  179.5200  144.2130 C   0  0  0  0  0  1  0  0  0  0  0  0
  184.4090  178.3050  143.7110 N   0  0  0  0  0  2  0  0  0  0  0  0
  185.1440  179.6130  140.5890 O   0  0  0  0  0  0  0  0  0  0  0  0
  184.9300  178.6580  141.3210 C   0  0  0  0  0  3  0  0  0  0  0  0
  1  5  1  0  0  0  0
  1  6  1  0  0  0  0
  2  7  1  0  0  0  0
  3  1  2  0  0  0  0
  4  3  1  0  0  0  0
  4  2  2  0  0  0  0
  7  6  2  0  0  0  0
  9  8  2  0  0  0  0
  9 10  1  0  0  0  0
 10  4  1  0  0  0  0
 11 14  2  0  0  0  0
 12 13  1  0  0  0  0
 14 18  1  0  0  0  0
 15 13  2  0  0  0  0
 15 18  1  0  0  0  0
 16 15  1  0  0  0  0
 17 16  2  0  0  0  0
 17 11  1  0  0  0  0
 18  9  1  1  0  0  0
 19 16  1  0  0  0  0
 20 19  2  0  0  0  0
 20 12  1  0  0  0  0
 21  2  1  0  0  0  0
 22 21  1  0  0  0  0
 23 22  1  0  0  0  0
 24 28  1  6  0  0  0
 24 23  1  0  0  0  0
 24 26  1  0  0  0  0
 26 25  1  0  0  0  0
 27 28  2  0  0  0  0
M  END
>  <MODEL>
1

>  <REMARK>
 VINA RESULT:      -7.5      0.000      0.000
  Name = 
  8 active torsions:
  status: ('A' for Active; 'I' for Inactive)
    1  A    between atoms: C_1  and  C_10
    2  A    between atoms: C_1  and  N_16
    3  A    between atoms: C_6  and  N_16
    4  A    between atoms: C_10  and  CA_25
    5  A    between atoms: C_11  and  N_28
    6  A    between atoms: C_17  and  C_22
    7  A    between atoms: N_21  and  CA_25
    8  A    between atoms: C_24  and  CA_25
                            x       y       z     vdW  Elec       q    Type
                         _______ _______ _______ _____ _____    ______ ____

>  <TORSDO>
F 8

$$$$
=
 OpenBabel10232408373D

 28 30  0  0  1  0  0  0  0  0999 V2000
  191.4280  176.5140  146.3020 C   0  0  0  0  0  0  0  0  0  0  0  0
  188.9990  177.6260  145.4480 C   0  0  0  0  0  0  0  0  0  0  0  0
  191.3080  177.0170  145.0060 C   0  0  0  0  0  3  0  0  0  0  0  0
  190.1100  177.5970  144.5760 C   0  0  0  0  0  0  0  0  0  0  0  0
  192.6010  175.9720  146.7120 F   0  0  0  0  0  0  0  0  0  0  0  0
  190.3440  176.5740  147.1780 C   0  0  0  0  0  3  0  0  0  0  0  0
  189.1330  177.1210  146.7510 C   0  0  0  0  0  3  0  0  0  0  0  0
  190.1700  176.0110  142.1160 O   0  0  0  0  0  0  0  0  0  0  0  0
  190.2850  177.2640  142.0650 C   0  0  0  0  0  0  0  0  0  0  0  0
  190.0260  178.0660  143.2240 N   0  0  0  0  0  2  0  0  0  0  0  0
  192.2550  176.5990  139.4100 C   0  0  0  0  0  3  0  0  0  0  0  0
  187.4590  177.9860  138.6760 C   0  0  0  0  0  2  0  0  0  0  0  0
  188.4930  178.2400  139.7440 C   0  0  0  0  0  3  0  0  0  0  0  0
  192.0450  177.4160  140.4020 N   0  0  0  0  0  0  0  0  0  0  0  0
  189.6950  177.6600  139.7110 C   0  0  0  0  0  0  0  0  0  0  0  0
  189.9850  176.6590  138.6740 C   0  0  0  0  0  0  0  0  0  0  0  0
  191.1790  176.1670  138.5630 N   0  0  0  0  0  0  0  0  0  0  0  0
  190.7170  177.9110  140.7890 C   0  0  1  0  0  3  0  0  0  0  0  0
  188.9290  176.2010  137.8250 N   0  0  0  0  0  0  0  0  0  0  0  0
  187.7570  176.7660  137.8350 C   0  0  0  0  0  3  0  0  0  0  0  0
  187.7360  178.1280  144.9930 N   0  0  0  0  0  2  0  0  0  0  0  0
  186.7050  177.3050  144.3780 C   0  0  0  0  0  2  0  0  0  0  0  0
  186.0670  178.0610  143.2240 C   0  0  0  0  0  2  0  0  0  0  0  0
  184.5940  178.3450  143.5150 C   0  0  2  0  0  3  0  0  0  0  0  0
  184.7310  178.8010  141.1460 C   0  0  0  0  0  1  0  0  0  0  0  0
  183.8450  178.7030  142.3050 N   0  0  0  0  0  2  0  0  0  0  0  0
  183.9360  179.0000  145.7070 O   0  0  0  0  0  0  0  0  0  0  0  0
  184.3960  179.3410  144.6280 C   0  0  0  0  0  3  0  0  0  0  0  0
  1  5  1  0  0  0  0
  1  6  1  0  0  0  0
  2  7  1  0  0  0  0
  3  1  2  0  0  0  0
  4  3  1  0  0  0  0
  4  2  2  0  0  0  0
  7  6  2  0  0  0  0
  9  8  2  0  0  0  0
  9 10  1  0  0  0  0
 10  4  1  0  0  0  0
 11 14  2  0  0  0  0
 12 13  1  0  0  0  0
 14 18  1  0  0  0  0
 15 13  2  0  0  0  0
 15 18  1  0  0  0  0
 16 15  1  0  0  0  0
 17 16  2  0  0  0  0
 17 11  1  0  0  0  0
 18  9  1  1  0  0  0
 19 20  2  0  0  0  0
 19 16  1  0  0  0  0
 20 12  1  0  0  0  0
 21  2  1  0  0  0  0
 22 21  1  0  0  0  0
 23 22  1  0  0  0  0
 24 23  1  6  0  0  0
 24 28  1  0  0  0  0
 25 26  1  0  0  0  0
 26 24  1  0  0  0  0
 28 27  2  0  0  0  0
M  END
>  <MODEL>
2

>  <REMARK>
 VINA RESULT:      -7.4      1.096      1.408
  Name = 
  8 active torsions:
  status: ('A' for Active; 'I' for Inactive)
    1  A    between atoms: C_1  and  C_10
    2  A    between atoms: C_1  and  N_16
    3  A    between atoms: C_6  and  N_16
    4  A    between atoms: C_10  and  CA_25
    5  A    between atoms: C_11  and  N_28
    6  A    between atoms: C_17  and  C_22
    7  A    between atoms: N_21  and  CA_25
    8  A    between atoms: C_24  and  CA_25
                            x       y       z     vdW  Elec       q    Type
                         _______ _______ _______ _____ _____    ______ ____

>  <TORSDO>
F 8

$$$$
=
 OpenBabel10232408373D

 28 30  0  0  1  0  0  0  0  0999 V2000
  190.3600  177.3440  145.8030 C   0  0  0  0  0  0  0  0  0  0  0  0
  187.8840  177.5340  144.4980 C   0  0  0  0  0  0  0  0  0  0  0  0
  190.3120  177.5920  144.4300 C   0  0  0  0  0  3  0  0  0  0  0  0
  189.0830  177.7130  143.7720 C   0  0  0  0  0  0  0  0  0  0  0  0
  191.5570  177.2470  146.4320 F   0  0  0  0  0  0  0  0  0  0  0  0
  189.1780  177.2020  146.5290 C   0  0  0  0  0  3  0  0  0  0  0  0
  187.9460  177.2890  145.8790 C   0  0  0  0  0  3  0  0  0  0  0  0
  190.1280  175.9470  141.6840 O   0  0  0  0  0  0  0  0  0  0  0  0
  189.8110  177.1350  141.4100 C   0  0  0  0  0  0  0  0  0  0  0  0
  189.0870  177.9320  142.3560 N   0  0  0  0  0  2  0  0  0  0  0  0
  191.7080  176.3300  138.7400 C   0  0  0  0  0  3  0  0  0  0  0  0
  186.9060  177.7240  138.0620 C   0  0  0  0  0  2  0  0  0  0  0  0
  187.9680  178.0180  139.0910 C   0  0  0  0  0  3  0  0  0  0  0  0
  191.5300  177.1940  139.6980 N   0  0  0  0  0  0  0  0  0  0  0  0
  189.1650  177.4270  139.0550 C   0  0  0  0  0  0  0  0  0  0  0  0
  189.4210  176.3760  138.0590 C   0  0  0  0  0  0  0  0  0  0  0  0
  190.6080  175.8680  137.9410 N   0  0  0  0  0  0  0  0  0  0  0  0
  190.2160  177.7180  140.0940 C   0  0  1  0  0  3  0  0  0  0  0  0
  188.3400  175.8880  137.2590 N   0  0  0  0  0  0  0  0  0  0  0  0
  187.1730  176.4640  137.2710 C   0  0  0  0  0  3  0  0  0  0  0  0
  186.6210  177.5590  143.8220 N   0  0  0  0  0  2  0  0  0  0  0  0
  185.8130  178.7570  143.6460 C   0  0  0  0  0  2  0  0  0  0  0  0
  184.3490  178.3720  143.5110 C   0  0  0  0  0  2  0  0  0  0  0  0
  183.7220  179.0560  142.2970 C   0  0  2  0  0  3  0  0  0  0  0  0
  181.6470  178.8520  143.5170 C   0  0  0  0  0  1  0  0  0  0  0  0
  182.2790  178.8080  142.2000 N   0  0  0  0  0  2  0  0  0  0  0  0
  185.0400  179.6230  140.3970 O   0  0  0  0  0  0  0  0  0  0  0  0
  184.4450  178.7500  141.0110 C   0  0  0  0  0  3  0  0  0  0  0  0
  1  5  1  0  0  0  0
  1  6  1  0  0  0  0
  2  7  1  0  0  0  0
  3  1  2  0  0  0  0
  4  3  1  0  0  0  0
  4  2  2  0  0  0  0
  7  6  2  0  0  0  0
  9  8  2  0  0  0  0
  9 10  1  0  0  0  0
 10  4  1  0  0  0  0
 11 14  2  0  0  0  0
 12 13  1  0  0  0  0
 14 18  1  0  0  0  0
 15 13  2  0  0  0  0
 15 18  1  0  0  0  0
 16 15  1  0  0  0  0
 17 16  2  0  0  0  0
 17 11  1  0  0  0  0
 18  9  1  1  0  0  0
 19 20  2  0  0  0  0
 19 16  1  0  0  0  0
 20 12  1  0  0  0  0
 21  2  1  0  0  0  0
 22 21  1  0  0  0  0
 23 22  1  0  0  0  0
 24 28  1  6  0  0  0
 24 23  1  0  0  0  0
 26 24  1  0  0  0  0
 26 25  1  0  0  0  0
 27 28  2  0  0  0  0
M  END
>  <MODEL>
3

>  <REMARK>
 VINA RESULT:      -6.8      1.229      1.447
  Name = 
  8 active torsions:
  status: ('A' for Active; 'I' for Inactive)
    1  A    between atoms: C_1  and  C_10
    2  A    between atoms: C_1  and  N_16
    3  A    between atoms: C_6  and  N_16
    4  A    between atoms: C_10  and  CA_25
    5  A    between atoms: C_11  and  N_28
    6  A    between atoms: C_17  and  C_22
    7  A    between atoms: N_21  and  CA_25
    8  A    between atoms: C_24  and  CA_25
                            x       y       z     vdW  Elec       q    Type
                         _______ _______ _______ _____ _____    ______ ____

>  <TORSDO>
F 8

$$$$
=
 OpenBabel10232408373D

 28 30  0  0  1  0  0  0  0  0999 V2000
  185.2700  178.3700  145.5310 C   0  0  0  0  0  0  0  0  0  0  0  0
  186.7460  177.8940  143.1930 C   0  0  0  0  0  0  0  0  0  0  0  0
  184.8860  178.9680  144.3290 C   0  0  0  0  0  3  0  0  0  0  0  0
  185.6000  178.7180  143.1510 C   0  0  0  0  0  0  0  0  0  0  0  0
  184.5600  178.6060  146.6610 F   0  0  0  0  0  0  0  0  0  0  0  0
  186.3810  177.5270  145.5690 C   0  0  0  0  0  3  0  0  0  0  0  0
  187.1200  177.2960  144.4070 C   0  0  0  0  0  3  0  0  0  0  0  0
  183.7360  177.7520  141.1110 O   0  0  0  0  0  0  0  0  0  0  0  0
  184.4500  178.7670  140.8890 C   0  0  0  0  0  0  0  0  0  0  0  0
  185.1870  179.3840  141.9510 N   0  0  0  0  0  2  0  0  0  0  0  0
  185.5080  177.8000  137.8360 C   0  0  0  0  0  3  0  0  0  0  0  0
  180.8240  179.5900  138.4030 C   0  0  0  0  0  2  0  0  0  0  0  0
  182.1400  179.7970  139.1120 C   0  0  0  0  0  3  0  0  0  0  0  0
  185.6580  178.6790  138.7860 N   0  0  0  0  0  0  0  0  0  0  0  0
  183.2340  179.1070  138.7790 C   0  0  0  0  0  0  0  0  0  0  0  0
  183.1340  178.0370  137.7750 C   0  0  0  0  0  0  0  0  0  0  0  0
  184.2040  177.4310  137.3630 N   0  0  0  0  0  0  0  0  0  0  0  0
  184.5400  179.3110  139.4990 C   0  0  1  0  0  3  0  0  0  0  0  0
  181.8450  177.6390  137.2980 N   0  0  0  0  0  0  0  0  0  0  0  0
  180.7730  178.3100  137.6010 C   0  0  0  0  0  3  0  0  0  0  0  0
  187.5430  177.7060  142.0180 N   0  0  0  0  0  2  0  0  0  0  0  0
  188.8480  178.3170  141.8100 C   0  0  0  0  0  2  0  0  0  0  0  0
  189.9320  177.2570  141.9190 C   0  0  0  0  0  2  0  0  0  0  0  0
  191.0420  177.7190  142.8620 C   0  0  2  0  0  3  0  0  0  0  0  0
  191.4430  176.5050  144.9120 C   0  0  0  0  0  1  0  0  0  0  0  0
  191.7490  176.5930  143.4850 N   0  0  0  0  0  2  0  0  0  0  0  0
  191.1710  179.7840  144.0400 O   0  0  0  0  0  0  0  0  0  0  0  0
  190.5720  178.7320  143.8730 C   0  0  0  0  0  3  0  0  0  0  0  0
  1  6  1  0  0  0  0
  1  5  1  0  0  0  0
  2  7  1  0  0  0  0
  3  1  2  0  0  0  0
  4  2  2  0  0  0  0
  4  3  1  0  0  0  0
  7  6  2  0  0  0  0
  9  8  2  0  0  0  0
  9 10  1  0  0  0  0
 10  4  1  0  0  0  0
 11 14  2  0  0  0  0
 12 13  1  0  0  0  0
 14 18  1  0  0  0  0
 15 13  2  0  0  0  0
 15 18  1  0  0  0  0
 16 15  1  0  0  0  0
 17 16  2  0  0  0  0
 17 11  1  0  0  0  0
 18  9  1  1  0  0  0
 19 20  2  0  0  0  0
 19 16  1  0  0  0  0
 20 12  1  0  0  0  0
 21  2  1  0  0  0  0
 22 23  1  0  0  0  0
 22 21  1  0  0  0  0
 24 23  1  1  0  0  0
 24 26  1  0  0  0  0
 24 28  1  0  0  0  0
 26 25  1  0  0  0  0
 28 27  2  0  0  0  0
M  END
>  <MODEL>
4

>  <REMARK>
 VINA RESULT:      -6.8      3.446      6.315
  Name = 
  8 active torsions:
  status: ('A' for Active; 'I' for Inactive)
    1  A    between atoms: C_1  and  C_10
    2  A    between atoms: C_1  and  N_16
    3  A    between atoms: C_6  and  N_16
    4  A    between atoms: C_10  and  CA_25
    5  A    between atoms: C_11  and  N_28
    6  A    between atoms: C_17  and  C_22
    7  A    between atoms: N_21  and  CA_25
    8  A    between atoms: C_24  and  CA_25
                            x       y       z     vdW  Elec       q    Type
                         _______ _______ _______ _____ _____    ______ ____

>  <TORSDO>
F 8

$$$$
=
 OpenBabel10232408373D

 28 30  0  0  1  0  0  0  0  0999 V2000
  185.3480  178.3540  145.3340 C   0  0  0  0  0  0  0  0  0  0  0  0
  186.9470  177.9880  143.0590 C   0  0  0  0  0  0  0  0  0  0  0  0
  184.9770  178.9350  144.1200 C   0  0  0  0  0  3  0  0  0  0  0  0
  185.7530  178.7390  142.9720 C   0  0  0  0  0  0  0  0  0  0  0  0
  184.5780  178.5370  146.4340 F   0  0  0  0  0  0  0  0  0  0  0  0
  186.5070  177.5830  145.4150 C   0  0  0  0  0  3  0  0  0  0  0  0
  187.3070  177.4060  144.2840 C   0  0  0  0  0  3  0  0  0  0  0  0
  183.7340  177.8490  141.0480 O   0  0  0  0  0  0  0  0  0  0  0  0
  184.5210  178.7880  140.7530 C   0  0  0  0  0  0  0  0  0  0  0  0
  185.3490  179.3850  141.7580 N   0  0  0  0  0  2  0  0  0  0  0  0
  185.4360  177.6270  137.7220 C   0  0  0  0  0  3  0  0  0  0  0  0
  180.8750  179.6970  138.3290 C   0  0  0  0  0  2  0  0  0  0  0  0
  182.2190  179.8630  138.9920 C   0  0  0  0  0  3  0  0  0  0  0  0
  185.6610  178.5380  138.6260 N   0  0  0  0  0  0  0  0  0  0  0  0
  183.2640  179.0990  138.6630 C   0  0  0  0  0  0  0  0  0  0  0  0
  183.0770  177.9910  137.7140 C   0  0  0  0  0  0  0  0  0  0  0  0
  184.1000  177.3090  137.3030 N   0  0  0  0  0  0  0  0  0  0  0  0
  184.6000  179.2630  139.3380 C   0  0  1  0  0  3  0  0  0  0  0  0
  181.7560  177.6440  137.2900 N   0  0  0  0  0  0  0  0  0  0  0  0
  180.7300  178.3870  137.5890 C   0  0  0  0  0  3  0  0  0  0  0  0
  187.8020  177.8590  141.9170 N   0  0  0  0  0  2  0  0  0  0  0  0
  188.9170  176.9270  141.8340 C   0  0  0  0  0  2  0  0  0  0  0  0
  189.9400  177.4410  140.8330 C   0  0  0  0  0  2  0  0  0  0  0  0
  189.6160  176.9410  139.4270 C   0  0  2  0  0  3  0  0  0  0  0  0
  190.1560  175.3190  137.7190 C   0  0  0  0  0  1  0  0  0  0  0  0
  190.6280  176.0060  138.9200 N   0  0  0  0  0  2  0  0  0  0  0  0
  188.9820  179.1620  138.8480 O   0  0  0  0  0  0  0  0  0  0  0  0
  189.3280  178.0570  138.4570 C   0  0  0  0  0  3  0  0  0  0  0  0
  1  6  1  0  0  0  0
  1  5  1  0  0  0  0
  2  7  1  0  0  0  0
  3  1  2  0  0  0  0
  4  2  2  0  0  0  0
  4  3  1  0  0  0  0
  7  6  2  0  0  0  0
  9  8  2  0  0  0  0
  9 10  1  0  0  0  0
 10  4  1  0  0  0  0
 11 14  2  0  0  0  0
 12 13  1  0  0  0  0
 14 18  1  0  0  0  0
 15 13  2  0  0  0  0
 15 18  1  0  0  0  0
 16 15  1  0  0  0  0
 17 16  2  0  0  0  0
 17 11  1  0  0  0  0
 18  9  1  1  0  0  0
 19 20  2  0  0  0  0
 19 16  1  0  0  0  0
 20 12  1  0  0  0  0
 21  2  1  0  0  0  0
 22 21  1  0  0  0  0
 23 22  1  0  0  0  0
 24 28  1  6  0  0  0
 24 23  1  0  0  0  0
 25 26  1  0  0  0  0
 26 24  1  0  0  0  0
 28 27  2  0  0  0  0
M  END
>  <MODEL>
5

>  <REMARK>
 VINA RESULT:      -6.7      3.434      6.322
  Name = 
  8 active torsions:
  status: ('A' for Active; 'I' for Inactive)
    1  A    between atoms: C_1  and  C_10
    2  A    between atoms: C_1  and  N_16
    3  A    between atoms: C_6  and  N_16
    4  A    between atoms: C_10  and  CA_25
    5  A    between atoms: C_11  and  N_28
    6  A    between atoms: C_17  and  C_22
    7  A    between atoms: N_21  and  CA_25
    8  A    between atoms: C_24  and  CA_25
                            x       y       z     vdW  Elec       q    Type
                         _______ _______ _______ _____ _____    ______ ____

>  <TORSDO>
F 8

$$$$
=
 OpenBabel10232408373D

 28 30  0  0  1  0  0  0  0  0999 V2000
  190.5110  177.0790  139.7140 C   0  0  0  0  0  0  0  0  0  0  0  0
  188.1990  178.4080  140.5840 C   0  0  0  0  0  0  0  0  0  0  0  0
  189.9960  176.8240  140.9860 C   0  0  0  0  0  3  0  0  0  0  0  0
  188.8290  177.4620  141.4220 C   0  0  0  0  0  0  0  0  0  0  0  0
  191.6310  176.4410  139.2970 F   0  0  0  0  0  0  0  0  0  0  0  0
  189.8710  177.9870  138.8700 C   0  0  0  0  0  3  0  0  0  0  0  0
  188.7240  178.6530  139.3050 C   0  0  0  0  0  3  0  0  0  0  0  0
  189.9610  178.4030  143.9520 O   0  0  0  0  0  0  0  0  0  0  0  0
  189.0860  177.4970  143.9470 C   0  0  0  0  0  0  0  0  0  0  0  0
  188.3610  177.1930  142.7500 N   0  0  0  0  0  2  0  0  0  0  0  0
  190.3090  177.2210  147.0780 C   0  0  0  0  0  3  0  0  0  0  0  0
  185.3860  178.0830  146.3880 C   0  0  0  0  0  2  0  0  0  0  0  0
  186.4720  177.4020  145.5940 C   0  0  0  0  0  3  0  0  0  0  0  0
  190.0670  176.5820  145.9700 N   0  0  0  0  0  0  0  0  0  0  0  0
  187.7430  177.3950  146.0040 C   0  0  0  0  0  0  0  0  0  0  0  0
  188.1200  178.1630  147.2000 C   0  0  0  0  0  0  0  0  0  0  0  0
  189.3240  178.0800  147.6720 N   0  0  0  0  0  0  0  0  0  0  0  0
  188.8240  176.7220  145.1990 C   0  0  1  0  0  3  0  0  0  0  0  0
  187.1620  179.0370  147.8040 N   0  0  0  0  0  0  0  0  0  0  0  0
  185.9170  179.0450  147.4260 C   0  0  0  0  0  3  0  0  0  0  0  0
  187.0600  179.1410  141.0510 N   0  0  0  0  0  2  0  0  0  0  0  0
  185.6800  178.7290  140.8390 C   0  0  0  0  0  2  0  0  0  0  0  0
  185.0240  178.4270  142.1760 C   0  0  0  0  0  2  0  0  0  0  0  0
  183.5090  178.3100  142.0180 C   0  0  2  0  0  3  0  0  0  0  0  0
  181.6190  178.7570  140.5810 C   0  0  0  0  0  1  0  0  0  0  0  0
  183.0690  178.5820  140.6450 N   0  0  0  0  0  2  0  0  0  0  0  0
  183.2880  179.5260  144.0540 O   0  0  0  0  0  0  0  0  0  0  0  0
  182.7480  179.1190  143.0360 C   0  0  0  0  0  3  0  0  0  0  0  0
  1  3  1  0  0  0  0
  2 21  1  0  0  0  0
  2  4  1  0  0  0  0
  3  4  2  0  0  0  0
  4 10  1  0  0  0  0
  5  1  1  0  0  0  0
  6  7  1  0  0  0  0
  6  1  2  0  0  0  0
  7  2  2  0  0  0  0
  9  8  2  0  0  0  0
 10  9  1  0  0  0  0
 11 17  1  0  0  0  0
 12 20  1  0  0  0  0
 13 15  2  0  0  0  0
 13 12  1  0  0  0  0
 14 11  2  0  0  0  0
 15 16  1  0  0  0  0
 16 17  2  0  0  0  0
 16 19  1  0  0  0  0
 18  9  1  6  0  0  0
 18 14  1  0  0  0  0
 18 15  1  0  0  0  0
 20 19  2  0  0  0  0
 22 21  1  0  0  0  0
 22 23  1  0  0  0  0
 24 23  1  6  0  0  0
 24 28  1  0  0  0  0
 25 26  1  0  0  0  0
 26 24  1  0  0  0  0
 28 27  2  0  0  0  0
M  END
>  <MODEL>
6

>  <REMARK>
 VINA RESULT:      -6.6      2.768      6.142
  Name = 
  8 active torsions:
  status: ('A' for Active; 'I' for Inactive)
    1  A    between atoms: C_1  and  C_10
    2  A    between atoms: C_1  and  N_16
    3  A    between atoms: C_6  and  N_16
    4  A    between atoms: C_10  and  CA_25
    5  A    between atoms: C_11  and  N_28
    6  A    between atoms: C_17  and  C_22
    7  A    between atoms: N_21  and  CA_25
    8  A    between atoms: C_24  and  CA_25
                            x       y       z     vdW  Elec       q    Type
                         _______ _______ _______ _____ _____    ______ ____

>  <TORSDO>
F 8

$$$$
=
 OpenBabel10232408373D

 28 30  0  0  1  0  0  0  0  0999 V2000
  184.7890  178.4420  145.6340 C   0  0  0  0  0  0  0  0  0  0  0  0
  186.6110  177.7750  143.6080 C   0  0  0  0  0  0  0  0  0  0  0  0
  186.1000  178.0930  145.9620 C   0  0  0  0  0  3  0  0  0  0  0  0
  187.0250  177.7820  144.9590 C   0  0  0  0  0  0  0  0  0  0  0  0
  183.9080  178.7580  146.6140 F   0  0  0  0  0  0  0  0  0  0  0  0
  184.3860  178.4700  144.2990 C   0  0  0  0  0  3  0  0  0  0  0  0
  185.2910  178.1320  143.2910 C   0  0  0  0  0  3  0  0  0  0  0  0
  188.3010  178.1230  147.5720 O   0  0  0  0  0  0  0  0  0  0  0  0
  188.9870  177.7900  146.5700 C   0  0  0  0  0  0  0  0  0  0  0  0
  188.3490  177.3960  145.3490 N   0  0  0  0  0  2  0  0  0  0  0  0
  191.5570  175.7250  147.2840 C   0  0  0  0  0  3  0  0  0  0  0  0
  191.5740  178.3310  142.9630 C   0  0  0  0  0  2  0  0  0  0  0  0
  190.9860  178.5430  144.3350 C   0  0  0  0  0  3  0  0  0  0  0  0
  190.9520  176.8290  147.6200 N   0  0  0  0  0  0  0  0  0  0  0  0
  191.0810  177.6150  145.2910 C   0  0  0  0  0  0  0  0  0  0  0  0
  191.6720  176.3080  144.9720 C   0  0  0  0  0  0  0  0  0  0  0  0
  191.8700  175.4370  145.9120 N   0  0  0  0  0  0  0  0  0  0  0  0
  190.4800  177.8310  146.6550 C   0  0  1  0  0  3  0  0  0  0  0  0
  191.9800  175.9890  143.6120 N   0  0  0  0  0  0  0  0  0  0  0  0
  191.9080  176.8860  142.6720 C   0  0  0  0  0  3  0  0  0  0  0  0
  187.5180  177.3660  142.5780 N   0  0  0  0  0  2  0  0  0  0  0  0
  188.2970  178.2870  141.7630 C   0  0  0  0  0  2  0  0  0  0  0  0
  187.6650  178.4130  140.3860 C   0  0  0  0  0  2  0  0  0  0  0  0
  188.5990  177.8560  139.3120 C   0  0  2  0  0  3  0  0  0  0  0  0
  190.3970  176.3110  138.8500 C   0  0  0  0  0  1  0  0  0  0  0  0
  189.7040  177.0770  139.8830 N   0  0  0  0  0  2  0  0  0  0  0  0
  188.4590  179.1540  137.3210 O   0  0  0  0  0  0  0  0  0  0  0  0
  189.0770  178.9080  138.3460 C   0  0  0  0  0  3  0  0  0  0  0  0
  1  3  1  0  0  0  0
  1  5  1  0  0  0  0
  2  4  1  0  0  0  0
  4 10  1  0  0  0  0
  4  3  2  0  0  0  0
  6  1  2  0  0  0  0
  7  2  2  0  0  0  0
  7  6  1  0  0  0  0
  9  8  2  0  0  0  0
 10  9  1  0  0  0  0
 11 14  2  0  0  0  0
 12 13  1  0  0  0  0
 13 15  2  0  0  0  0
 15 18  1  0  0  0  0
 16 15  1  0  0  0  0
 16 17  2  0  0  0  0
 17 11  1  0  0  0  0
 18  9  1  6  0  0  0
 18 14  1  0  0  0  0
 19 16  1  0  0  0  0
 20 12  1  0  0  0  0
 20 19  2  0  0  0  0
 21  2  1  0  0  0  0
 22 21  1  0  0  0  0
 23 22  1  0  0  0  0
 24 28  1  1  0  0  0
 24 26  1  0  0  0  0
 24 23  1  0  0  0  0
 25 26  1  0  0  0  0
 27 28  2  0  0  0  0
M  END
>  <MODEL>
7

>  <REMARK>
 VINA RESULT:      -6.6      2.893      5.914
  Name = 
  8 active torsions:
  status: ('A' for Active; 'I' for Inactive)
    1  A    between atoms: C_1  and  C_10
    2  A    between atoms: C_1  and  N_16
    3  A    between atoms: C_6  and  N_16
    4  A    between atoms: C_10  and  CA_25
    5  A    between atoms: C_11  and  N_28
    6  A    between atoms: C_17  and  C_22
    7  A    between atoms: N_21  and  CA_25
    8  A    between atoms: C_24  and  CA_25
                            x       y       z     vdW  Elec       q    Type
                         _______ _______ _______ _____ _____    ______ ____

>  <TORSDO>
F 8

$$$$
=
 OpenBabel10232408373D

 28 30  0  0  1  0  0  0  0  0999 V2000
  190.5010  176.5450  144.6570 C   0  0  0  0  0  0  0  0  0  0  0  0
  188.8930  177.4270  142.5340 C   0  0  0  0  0  0  0  0  0  0  0  0
  190.8490  176.2340  143.3410 C   0  0  0  0  0  3  0  0  0  0  0  0
  190.0690  176.6900  142.2730 C   0  0  0  0  0  0  0  0  0  0  0  0
  191.2750  176.1130  145.6820 F   0  0  0  0  0  0  0  0  0  0  0  0
  189.3600  177.3040  144.9170 C   0  0  0  0  0  3  0  0  0  0  0  0
  188.5560  177.7370  143.8620 C   0  0  0  0  0  3  0  0  0  0  0  0
  192.3440  177.6660  140.7100 O   0  0  0  0  0  0  0  0  0  0  0  0
  191.4370  176.9890  140.1550 C   0  0  0  0  0  0  0  0  0  0  0  0
  190.4490  176.3140  140.9430 N   0  0  0  0  0  2  0  0  0  0  0  0
  191.2160  174.6610  137.7260 C   0  0  0  0  0  3  0  0  0  0  0  0
  187.9450  178.5020  137.8070 C   0  0  0  0  0  2  0  0  0  0  0  0
  189.3650  178.2990  138.2720 C   0  0  0  0  0  3  0  0  0  0  0  0
  191.9380  175.6320  138.2070 N   0  0  0  0  0  0  0  0  0  0  0  0
  189.9700  177.1110  138.1860 C   0  0  0  0  0  0  0  0  0  0  0  0
  189.2020  175.9420  137.7340 C   0  0  0  0  0  0  0  0  0  0  0  0
  189.8000  174.8070  137.5420 N   0  0  0  0  0  0  0  0  0  0  0  0
  191.3850  176.9150  138.6630 C   0  0  1  0  0  3  0  0  0  0  0  0
  187.7870  176.0560  137.5560 N   0  0  0  0  0  0  0  0  0  0  0  0
  187.1860  177.2080  137.6210 C   0  0  0  0  0  3  0  0  0  0  0  0
  188.0320  177.8180  141.4580 N   0  0  0  0  0  2  0  0  0  0  0  0
  186.9640  178.8000  141.5820 C   0  0  0  0  0  2  0  0  0  0  0  0
  185.6440  178.0910  141.8360 C   0  0  0  0  0  2  0  0  0  0  0  0
  184.4700  179.0430  141.6120 C   0  0  2  0  0  3  0  0  0  0  0  0
  183.7960  178.8560  143.9240 C   0  0  0  0  0  1  0  0  0  0  0  0
  183.3570  178.7830  142.5320 N   0  0  0  0  0  2  0  0  0  0  0  0
  184.5020  179.9130  139.3950 O   0  0  0  0  0  0  0  0  0  0  0  0
  184.0250  179.1000  140.1740 C   0  0  0  0  0  3  0  0  0  0  0  0
  1  6  1  0  0  0  0
  1  5  1  0  0  0  0
  2  7  1  0  0  0  0
  3  1  2  0  0  0  0
  4  2  2  0  0  0  0
  4  3  1  0  0  0  0
  7  6  2  0  0  0  0
  9  8  2  0  0  0  0
  9 10  1  0  0  0  0
 10  4  1  0  0  0  0
 11 14  2  0  0  0  0
 12 13  1  0  0  0  0
 14 18  1  0  0  0  0
 15 13  2  0  0  0  0
 15 18  1  0  0  0  0
 16 15  1  0  0  0  0
 17 11  1  0  0  0  0
 17 16  2  0  0  0  0
 18  9  1  1  0  0  0
 19 20  2  0  0  0  0
 19 16  1  0  0  0  0
 20 12  1  0  0  0  0
 21 22  1  0  0  0  0
 21  2  1  0  0  0  0
 22 23  1  0  0  0  0
 24 28  1  6  0  0  0
 24 23  1  0  0  0  0
 24 26  1  0  0  0  0
 26 25  1  0  0  0  0
 27 28  2  0  0  0  0
M  END
>  <MODEL>
8

>  <REMARK>
 VINA RESULT:      -6.5      1.683      2.209
  Name = 
  8 active torsions:
  status: ('A' for Active; 'I' for Inactive)
    1  A    between atoms: C_1  and  C_10
    2  A    between atoms: C_1  and  N_16
    3  A    between atoms: C_6  and  N_16
    4  A    between atoms: C_10  and  CA_25
    5  A    between atoms: C_11  and  N_28
    6  A    between atoms: C_17  and  C_22
    7  A    between atoms: N_21  and  CA_25
    8  A    between atoms: C_24  and  CA_25
                            x       y       z     vdW  Elec       q    Type
                         _______ _______ _______ _____ _____    ______ ____

>  <TORSDO>
F 8

$$$$
=
 OpenBabel10232408373D

 28 30  0  0  1  0  0  0  0  0999 V2000
  190.3030  177.2390  137.3930 C   0  0  0  0  0  0  0  0  0  0  0  0
  187.9460  177.9930  138.7130 C   0  0  0  0  0  0  0  0  0  0  0  0
  190.0770  176.8270  138.7070 C   0  0  0  0  0  3  0  0  0  0  0  0
  188.8940  177.1760  139.3680 C   0  0  0  0  0  0  0  0  0  0  0  0
  191.4450  176.8800  136.7580 F   0  0  0  0  0  0  0  0  0  0  0  0
  189.3530  178.0170  136.7310 C   0  0  0  0  0  3  0  0  0  0  0  0
  188.1830  178.3980  137.3900 C   0  0  0  0  0  3  0  0  0  0  0  0
  190.5630  177.8510  141.6760 O   0  0  0  0  0  0  0  0  0  0  0  0
  189.6980  176.9400  141.7640 C   0  0  0  0  0  0  0  0  0  0  0  0
  188.7250  176.7580  140.7280 N   0  0  0  0  0  2  0  0  0  0  0  0
  191.6050  176.3010  144.4720 C   0  0  0  0  0  3  0  0  0  0  0  0
  186.6880  177.2740  145.0540 C   0  0  0  0  0  2  0  0  0  0  0  0
  187.5360  176.6790  143.9580 C   0  0  0  0  0  3  0  0  0  0  0  0
  191.0890  175.7940  143.3880 N   0  0  0  0  0  0  0  0  0  0  0  0
  188.8670  176.6150  144.0550 C   0  0  0  0  0  0  0  0  0  0  0  0
  189.5370  177.2400  145.2050 C   0  0  0  0  0  0  0  0  0  0  0  0
  190.8140  177.0950  145.3700 N   0  0  0  0  0  0  0  0  0  0  0  0
  189.7070  176.0300  142.9510 C   0  0  1  0  0  3  0  0  0  0  0  0
  188.7760  178.0480  146.1080 N   0  0  0  0  0  0  0  0  0  0  0  0
  187.4780  178.1080  146.0350 C   0  0  0  0  0  3  0  0  0  0  0  0
  186.7750  178.4380  139.4070 N   0  0  0  0  0  2  0  0  0  0  0  0
  185.4380  178.4510  138.8300 C   0  0  0  0  0  2  0  0  0  0  0  0
  184.4740  179.1350  139.7870 C   0  0  0  0  0  2  0  0  0  0  0  0
  183.9930  178.1560  140.8560 C   0  0  2  0  0  3  0  0  0  0  0  0
  181.8180  179.1320  140.4650 C   0  0  0  0  0  1  0  0  0  0  0  0
  182.5490  177.9050  140.7740 N   0  0  0  0  0  2  0  0  0  0  0  0
  185.1620  179.5010  142.4350 O   0  0  0  0  0  0  0  0  0  0  0  0
  184.4310  178.5400  142.2450 C   0  0  0  0  0  3  0  0  0  0  0  0
  1  3  1  0  0  0  0
  2  4  1  0  0  0  0
  2 21  1  0  0  0  0
  3  4  2  0  0  0  0
  4 10  1  0  0  0  0
  5  1  1  0  0  0  0
  6  7  1  0  0  0  0
  6  1  2  0  0  0  0
  7  2  2  0  0  0  0
  8  9  2  0  0  0  0
 10  9  1  0  0  0  0
 11 17  1  0  0  0  0
 12 20  1  0  0  0  0
 13 15  2  0  0  0  0
 13 12  1  0  0  0  0
 14 11  2  0  0  0  0
 15 16  1  0  0  0  0
 16 17  2  0  0  0  0
 16 19  1  0  0  0  0
 18  9  1  6  0  0  0
 18 14  1  0  0  0  0
 18 15  1  0  0  0  0
 20 19  2  0  0  0  0
 22 21  1  0  0  0  0
 22 23  1  0  0  0  0
 24 23  1  6  0  0  0
 24 28  1  0  0  0  0
 25 26  1  0  0  0  0
 26 24  1  0  0  0  0
 28 27  2  0  0  0  0
M  END
>  <MODEL>
9

>  <REMARK>
 VINA RESULT:      -6.5      2.681      5.998
  Name = 
  8 active torsions:
  status: ('A' for Active; 'I' for Inactive)
    1  A    between atoms: C_1  and  C_10
    2  A    between atoms: C_1  and  N_16
    3  A    between atoms: C_6  and  N_16
    4  A    between atoms: C_10  and  CA_25
    5  A    between atoms: C_11  and  N_28
    6  A    between atoms: C_17  and  C_22
    7  A    between atoms: N_21  and  CA_25
    8  A    between atoms: C_24  and  CA_25
                            x       y       z     vdW  Elec       q    Type
                         _______ _______ _______ _____ _____    ______ ____

>  <TORSDO>
F 8

$$$$
