=
 OpenBabel10232411443D

 27 32  0  0  1  0  0  0  0  0999 V2000
  191.5160  176.1810  142.9260 C   0  0  0  0  0  2  0  0  0  0  0  0
  190.3980  175.8140  143.9270 C   0  0  0  0  0  2  0  0  0  0  0  0
  189.2620  176.8080  143.8080 C   0  0  1  0  0  3  0  0  0  0  0  0
  188.7880  176.6850  142.4220 N   0  0  2  0  0  0  0  0  0  0  0  0
  189.0870  178.0440  141.9660 C   0  0  1  0  0  3  0  0  0  0  0  0
  190.5700  178.1180  141.5240 C   0  0  0  0  0  2  0  0  0  0  0  0
  191.5940  177.6870  142.5960 C   0  0  0  0  0  2  0  0  0  0  0  0
  187.9080  176.3580  143.5840 C   0  0  2  0  0  3  0  0  0  0  0  0
  186.6170  177.8820  145.2110 C   0  0  0  0  0  0  0  0  0  0  0  0
  184.7010  179.1450  144.3800 C   0  0  0  0  0  3  0  0  0  0  0  0
  184.9450  178.6810  143.0910 C   0  0  0  0  0  3  0  0  0  0  0  0
  185.5160  178.7280  145.4310 C   0  0  0  0  0  3  0  0  0  0  0  0
  186.8740  177.4200  143.8890 C   0  0  0  0  0  0  0  0  0  0  0  0
  186.0060  177.8080  142.8570 C   0  0  0  0  0  3  0  0  0  0  0  0
  187.3350  177.3280  146.4260 C   0  0  1  0  0  3  0  0  0  0  0  0
  187.8280  177.7090  148.8620 N   0  0  0  0  0  2  0  0  0  0  0  0
  189.0760  178.0070  148.2900 N   0  0  2  0  0  0  0  0  0  0  0  0
  188.4570  178.2280  146.9470 C   0  0  1  0  0  0  0  0  0  0  0  0
  187.1140  178.1190  147.6740 C   0  0  1  0  0  0  0  0  0  0  0  0
  186.5520  179.5370  147.7120 C   0  0  0  0  0  1  0  0  0  0  0  0
  189.3900  177.1160  147.2000 C   0  0  0  0  0  2  0  0  0  0  0  0
  188.1890  178.4440  140.7920 C   0  0  0  0  0  2  0  0  0  0  0  0
  188.8740  178.3290  139.4340 C   0  0  0  0  0  2  0  0  0  0  0  0
  187.1870  177.5140  137.7610 C   0  0  0  0  0  0  0  0  0  0  0  0
  186.6910  176.5640  137.1000 O   0  0  0  0  0  0  0  0  0  0  0  0
  186.6750  178.7970  137.6150 O   0  0  0  0  0  1  0  0  0  0  0  0
  188.2700  177.2630  138.6520 N   0  0  0  0  0  2  0  0  0  0  0  0
  1  2  1  0  0  0  0
  3  2  1  6  0  0  0
  4  8  1  0  0  0  0
  4  3  1  0  0  0  0
  5  4  1  0  0  0  0
  6  5  1  0  0  0  0
  6  7  1  0  0  0  0
  7  1  1  0  0  0  0
  8  3  1  0  0  0  0
  8 13  1  0  0  0  0
  9 12  1  0  0  0  0
  9 15  1  0  0  0  0
 10 12  2  0  0  0  0
 11 10  1  0  0  0  0
 13  9  2  0  0  0  0
 14 11  2  0  0  0  0
 14 13  1  0  0  0  0
 15 18  1  0  0  0  0
 15 19  1  0  0  0  0
 17 16  1  0  0  0  0
 18 21  1  0  0  0  0
 18 19  1  0  0  0  0
 18 17  1  0  0  0  0
 19 20  1  0  0  0  0
 19 16  1  0  0  0  0
 21 17  1  0  0  0  0
 22  5  1  0  0  0  0
 23 22  1  0  0  0  0
 24 27  1  0  0  0  0
 25 24  2  0  0  0  0
 26 24  1  0  0  0  0
 27 23  1  0  0  0  0
M  END
>  <MODEL>
1

>  <REMARK>
 VINA RESULT:      -8.6      0.000      0.000
  Name = 
  5 active torsions:
  status: ('A' for Active; 'I' for Inactive)
    1  A    between atoms: C_1  and  C_6
    2  A    between atoms: C_2  and  C_14
    3  A    between atoms: C_2  and  N_20
    4  A    between atoms: C_14  and  C_19
    5  A    between atoms: C_17  and  C_27
                            x       y       z     vdW  Elec       q    Type
                         _______ _______ _______ _____ _____    ______ ____

>  <TORSDO>
F 5

$$$$
=
 OpenBabel10232411443D

 27 32  0  0  1  0  0  0  0  0999 V2000
  190.0150  176.7600  140.5720 C   0  0  0  0  0  2  0  0  0  0  0  0
  189.8570  176.1180  141.9680 C   0  0  0  0  0  2  0  0  0  0  0  0
  188.9750  176.9930  142.8330 C   0  0  1  0  0  3  0  0  0  0  0  0
  187.6840  177.0480  142.1310 N   0  0  2  0  0  0  0  0  0  0  0  0
  187.6420  178.4870  141.8640 C   0  0  1  0  0  3  0  0  0  0  0  0
  188.4360  178.7880  140.5690 C   0  0  0  0  0  2  0  0  0  0  0  0
  189.9000  178.2990  140.5710 C   0  0  0  0  0  2  0  0  0  0  0  0
  187.8120  176.4450  143.4930 C   0  0  2  0  0  3  0  0  0  0  0  0
  187.9800  177.4820  145.8440 C   0  0  0  0  0  0  0  0  0  0  0  0
  186.0710  178.7190  146.7300 C   0  0  0  0  0  3  0  0  0  0  0  0
  185.3960  178.5540  145.5250 C   0  0  0  0  0  3  0  0  0  0  0  0
  187.3410  178.1670  146.8930 C   0  0  0  0  0  3  0  0  0  0  0  0
  187.2930  177.3270  144.6070 C   0  0  0  0  0  0  0  0  0  0  0  0
  185.9940  177.8430  144.4860 C   0  0  0  0  0  3  0  0  0  0  0  0
  189.2720  176.7540  146.1600 C   0  0  1  0  0  3  0  0  0  0  0  0
  191.1740  176.5770  147.7950 N   0  0  0  0  0  2  0  0  0  0  0  0
  191.8160  177.1930  146.7090 N   0  0  2  0  0  0  0  0  0  0  0  0
  190.5100  177.6510  146.1400 C   0  0  1  0  0  0  0  0  0  0  0  0
  189.8960  177.1620  147.4550 C   0  0  1  0  0  0  0  0  0  0  0  0
  189.5330  178.4240  148.2320 C   0  0  0  0  0  1  0  0  0  0  0  0
  191.3580  176.6650  145.4480 C   0  0  0  0  0  2  0  0  0  0  0  0
  186.1990  178.9770  141.6990 C   0  0  0  0  0  2  0  0  0  0  0  0
  185.5900  178.6280  140.3450 C   0  0  0  0  0  2  0  0  0  0  0  0
  183.5320  179.5540  139.2400 C   0  0  0  0  0  0  0  0  0  0  0  0
  182.8880  180.5480  138.8140 O   0  0  0  0  0  0  0  0  0  0  0  0
  182.9920  178.2800  139.1210 O   0  0  0  0  0  1  0  0  0  0  0  0
  184.8110  179.7470  139.8390 N   0  0  0  0  0  2  0  0  0  0  0  0
  1  2  1  0  0  0  0
  3  2  1  6  0  0  0
  3  8  1  0  0  0  0
  4  3  1  0  0  0  0
  4  8  1  0  0  0  0
  5  4  1  0  0  0  0
  6  7  1  0  0  0  0
  6  5  1  0  0  0  0
  7  1  1  0  0  0  0
  8 13  1  0  0  0  0
  9 15  1  0  0  0  0
  9 12  1  0  0  0  0
 10 12  2  0  0  0  0
 11 10  1  0  0  0  0
 13  9  2  0  0  0  0
 14 13  1  0  0  0  0
 14 11  2  0  0  0  0
 15 19  1  0  0  0  0
 17 16  1  0  0  0  0
 18 15  1  0  0  0  0
 18 17  1  0  0  0  0
 18 19  1  0  0  0  0
 19 16  1  0  0  0  0
 19 20  1  0  0  0  0
 21 18  1  0  0  0  0
 21 17  1  0  0  0  0
 22  5  1  0  0  0  0
 23 22  1  0  0  0  0
 24 27  1  0  0  0  0
 25 24  2  0  0  0  0
 26 24  1  0  0  0  0
 27 23  1  0  0  0  0
M  END
>  <MODEL>
2

>  <REMARK>
 VINA RESULT:      -8.5      2.173      2.861
  Name = 
  5 active torsions:
  status: ('A' for Active; 'I' for Inactive)
    1  A    between atoms: C_1  and  C_6
    2  A    between atoms: C_2  and  C_14
    3  A    between atoms: C_2  and  N_20
    4  A    between atoms: C_14  and  C_19
    5  A    between atoms: C_17  and  C_27
                            x       y       z     vdW  Elec       q    Type
                         _______ _______ _______ _____ _____    ______ ____

>  <TORSDO>
F 5

$$$$
=
 OpenBabel10232411443D

 27 32  0  0  1  0  0  0  0  0999 V2000
  191.4220  177.0330  145.2470 C   0  0  0  0  0  2  0  0  0  0  0  0
  189.8960  176.9340  145.4650 C   0  0  0  0  0  2  0  0  0  0  0  0
  189.1730  177.5290  144.2760 C   0  0  1  0  0  3  0  0  0  0  0  0
  189.5930  176.7150  143.1260 N   0  0  2  0  0  0  0  0  0  0  0  0
  190.2590  177.7630  142.3480 C   0  0  1  0  0  3  0  0  0  0  0  0
  191.7150  177.9230  142.8530 C   0  0  0  0  0  2  0  0  0  0  0  0
  191.8540  178.2220  144.3610 C   0  0  0  0  0  2  0  0  0  0  0  0
  188.1670  176.7700  143.5690 C   0  0  2  0  0  3  0  0  0  0  0  0
  186.0470  178.1690  143.1450 C   0  0  0  0  0  0  0  0  0  0  0  0
  185.5650  178.9300  140.8770 C   0  0  0  0  0  3  0  0  0  0  0  0
  186.7680  178.3910  140.4330 C   0  0  0  0  0  3  0  0  0  0  0  0
  185.2000  178.7980  142.2160 C   0  0  0  0  0  3  0  0  0  0  0  0
  187.2840  177.6310  142.6920 C   0  0  0  0  0  0  0  0  0  0  0  0
  187.6040  177.7270  141.3290 C   0  0  0  0  0  3  0  0  0  0  0  0
  185.4960  177.9000  144.5320 C   0  0  1  0  0  3  0  0  0  0  0  0
  183.9620  178.7640  146.3280 N   0  0  0  0  0  2  0  0  0  0  0  0
  185.2160  179.0270  146.9030 N   0  0  2  0  0  0  0  0  0  0  0  0
  185.8920  178.9510  145.5710 C   0  0  1  0  0  0  0  0  0  0  0  0
  184.4780  178.8970  144.9840 C   0  0  1  0  0  0  0  0  0  0  0  0
  184.2530  180.2590  144.3340 C   0  0  0  0  0  1  0  0  0  0  0  0
  186.1580  177.9680  146.6360 C   0  0  0  0  0  2  0  0  0  0  0  0
  190.2760  177.4170  140.8560 C   0  0  0  0  0  2  0  0  0  0  0  0
  191.6810  177.3270  140.2680 C   0  0  0  0  0  2  0  0  0  0  0  0
  192.7740  176.4800  138.1700 C   0  0  0  0  0  0  0  0  0  0  0  0
  192.6810  176.1480  136.9600 O   0  0  0  0  0  0  0  0  0  0  0  0
  194.0040  176.4030  138.8130 O   0  0  0  0  0  1  0  0  0  0  0  0
  191.6180  176.9340  138.8700 N   0  0  0  0  0  2  0  0  0  0  0  0
  1  2  1  0  0  0  0
  3  2  1  1  0  0  0
  4  8  1  0  0  0  0
  4  3  1  0  0  0  0
  5  6  1  0  0  0  0
  5  4  1  0  0  0  0
  6  7  1  0  0  0  0
  7  1  1  0  0  0  0
  8  3  1  0  0  0  0
  9 15  1  0  0  0  0
 10 12  1  0  0  0  0
 11 10  2  0  0  0  0
 11 14  1  0  0  0  0
 12  9  2  0  0  0  0
 13  9  1  0  0  0  0
 13  8  1  0  0  0  0
 14 13  2  0  0  0  0
 15 19  1  0  0  0  0
 15 18  1  0  0  0  0
 16 17  1  0  0  0  0
 18 21  1  0  0  0  0
 18 17  1  0  0  0  0
 19 18  1  0  0  0  0
 19 16  1  0  0  0  0
 20 19  1  0  0  0  0
 21 17  1  0  0  0  0
 22  5  1  0  0  0  0
 23 22  1  0  0  0  0
 24 26  1  0  0  0  0
 24 27  1  0  0  0  0
 25 24  2  0  0  0  0
 27 23  1  0  0  0  0
M  END
>  <MODEL>
3

>  <REMARK>
 VINA RESULT:      -8.1      2.673      3.450
  Name = 
  5 active torsions:
  status: ('A' for Active; 'I' for Inactive)
    1  A    between atoms: C_1  and  C_6
    2  A    between atoms: C_2  and  C_14
    3  A    between atoms: C_2  and  N_20
    4  A    between atoms: C_14  and  C_19
    5  A    between atoms: C_17  and  C_27
                            x       y       z     vdW  Elec       q    Type
                         _______ _______ _______ _____ _____    ______ ____

>  <TORSDO>
F 5

$$$$
=
 OpenBabel10232411443D

 27 32  0  0  1  0  0  0  0  0999 V2000
  191.4510  177.0410  142.5150 C   0  0  0  0  0  2  0  0  0  0  0  0
  191.3990  177.3320  140.9990 C   0  0  0  0  0  2  0  0  0  0  0  0
  189.9860  177.1420  140.4920 C   0  0  1  0  0  3  0  0  0  0  0  0
  189.1760  178.1130  141.2430 N   0  0  2  0  0  0  0  0  0  0  0  0
  188.2980  177.1730  141.9420 C   0  0  1  0  0  3  0  0  0  0  0  0
  189.0080  176.6720  143.2240 C   0  0  0  0  0  2  0  0  0  0  0  0
  190.3910  176.0260  142.9960 C   0  0  0  0  0  2  0  0  0  0  0  0
  189.3180  178.1910  139.7570 C   0  0  2  0  0  3  0  0  0  0  0  0
  188.1620  176.6100  138.0840 C   0  0  0  0  0  0  0  0  0  0  0  0
  185.8720  177.0930  137.3900 C   0  0  0  0  0  3  0  0  0  0  0  0
  185.8230  178.1670  138.2720 C   0  0  0  0  0  3  0  0  0  0  0  0
  187.0400  176.3380  137.2820 C   0  0  0  0  0  3  0  0  0  0  0  0
  188.1050  177.7010  138.9970 C   0  0  0  0  0  0  0  0  0  0  0  0
  186.9390  178.4800  139.0470 C   0  0  0  0  0  3  0  0  0  0  0  0
  189.4480  175.8680  137.7740 C   0  0  1  0  0  3  0  0  0  0  0  0
  191.3860  175.7110  136.1800 N   0  0  0  0  0  2  0  0  0  0  0  0
  190.6640  174.5570  135.8340 N   0  0  2  0  0  0  0  0  0  0  0  0
  189.4160  175.0980  136.4540 C   0  0  1  0  0  0  0  0  0  0  0  0
  190.1910  176.4110  136.5960 C   0  0  1  0  0  0  0  0  0  0  0  0
  189.5960  177.3540  135.5560 C   0  0  0  0  0  1  0  0  0  0  0  0
  190.1010  173.9110  136.9940 C   0  0  0  0  0  2  0  0  0  0  0  0
  186.9700  177.8350  142.3240 C   0  0  0  0  0  2  0  0  0  0  0  0
  186.6660  177.7720  143.8170 C   0  0  0  0  0  2  0  0  0  0  0  0
  184.9100  178.8000  145.2920 C   0  0  0  0  0  0  0  0  0  0  0  0
  183.7110  179.1340  145.4730 O   0  0  0  0  0  0  0  0  0  0  0  0
  185.8520  179.0440  146.2840 O   0  0  0  0  0  1  0  0  0  0  0  0
  185.2920  178.1740  144.0700 N   0  0  0  0  0  2  0  0  0  0  0  0
  1  7  1  0  0  0  0
  2  1  1  0  0  0  0
  3  2  1  1  0  0  0
  3  4  1  0  0  0  0
  4  5  1  0  0  0  0
  5 22  1  0  0  0  0
  5  6  1  0  0  0  0
  7  6  1  0  0  0  0
  8  3  1  0  0  0  0
  8  4  1  0  0  0  0
  9 13  1  0  0  0  0
 10 11  2  0  0  0  0
 11 14  1  0  0  0  0
 12 10  1  0  0  0  0
 12  9  2  0  0  0  0
 13 14  2  0  0  0  0
 13  8  1  0  0  0  0
 15  9  1  0  0  0  0
 16 19  1  0  0  0  0
 17 16  1  0  0  0  0
 17 18  1  0  0  0  0
 17 21  1  0  0  0  0
 18 19  1  0  0  0  0
 18 21  1  0  0  0  0
 18 15  1  0  0  0  0
 19 15  1  0  0  0  0
 20 19  1  0  0  0  0
 22 23  1  0  0  0  0
 23 27  1  0  0  0  0
 24 25  2  0  0  0  0
 24 26  1  0  0  0  0
 27 24  1  0  0  0  0
M  END
>  <MODEL>
4

>  <REMARK>
 VINA RESULT:      -7.9      3.374      7.612
  Name = 
  5 active torsions:
  status: ('A' for Active; 'I' for Inactive)
    1  A    between atoms: C_1  and  C_6
    2  A    between atoms: C_2  and  C_14
    3  A    between atoms: C_2  and  N_20
    4  A    between atoms: C_14  and  C_19
    5  A    between atoms: C_17  and  C_27
                            x       y       z     vdW  Elec       q    Type
                         _______ _______ _______ _____ _____    ______ ____

>  <TORSDO>
F 5

$$$$
=
 OpenBabel10232411443D

 27 32  0  0  1  0  0  0  0  0999 V2000
  190.9920  176.7300  142.3880 C   0  0  0  0  0  2  0  0  0  0  0  0
  190.6280  177.3420  141.0180 C   0  0  0  0  0  2  0  0  0  0  0  0
  189.1230  177.3640  140.8540 C   0  0  1  0  0  3  0  0  0  0  0  0
  188.6300  178.2050  141.9540 N   0  0  2  0  0  0  0  0  0  0  0  0
  187.8310  177.2010  142.6580 C   0  0  1  0  0  3  0  0  0  0  0  0
  188.7520  176.3880  143.6020 C   0  0  0  0  0  2  0  0  0  0  0  0
  189.9580  175.7120  142.9160 C   0  0  0  0  0  2  0  0  0  0  0  0
  188.4330  178.5900  140.5230 C   0  0  2  0  0  3  0  0  0  0  0  0
  186.7570  177.6330  138.8180 C   0  0  0  0  0  0  0  0  0  0  0  0
  184.4090  178.2810  138.9770 C   0  0  0  0  0  3  0  0  0  0  0  0
  184.6790  179.0010  140.1360 C   0  0  0  0  0  3  0  0  0  0  0  0
  185.4450  177.6240  138.3130 C   0  0  0  0  0  3  0  0  0  0  0  0
  187.0280  178.3590  140.0120 C   0  0  0  0  0  0  0  0  0  0  0  0
  185.9810  179.0580  140.6310 C   0  0  0  0  0  3  0  0  0  0  0  0
  187.8530  177.0570  137.9430 C   0  0  1  0  0  3  0  0  0  0  0  0
  189.3610  177.5160  135.9840 N   0  0  0  0  0  2  0  0  0  0  0  0
  188.4600  176.6020  135.4150 N   0  0  2  0  0  0  0  0  0  0  0  0
  187.4460  176.8710  136.4810 C   0  0  1  0  0  0  0  0  0  0  0  0
  188.3720  178.0110  136.9150 C   0  0  1  0  0  0  0  0  0  0  0  0
  187.6670  179.2960  136.4930 C   0  0  0  0  0  1  0  0  0  0  0  0
  188.1000  175.5590  136.3430 C   0  0  0  0  0  2  0  0  0  0  0  0
  186.7160  177.8560  143.4790 C   0  0  0  0  0  2  0  0  0  0  0  0
  186.5490  177.2520  144.8700 C   0  0  0  0  0  2  0  0  0  0  0  0
  185.6300  178.9230  146.5060 C   0  0  0  0  0  0  0  0  0  0  0  0
  185.8330  179.8010  147.3850 O   0  0  0  0  0  1  0  0  0  0  0  0
  184.3280  178.5970  146.1450 O   0  0  0  0  0  0  0  0  0  0  0  0
  186.7370  178.2720  145.8890 N   0  0  0  0  0  2  0  0  0  0  0  0
  1  7  1  0  0  0  0
  2  1  1  0  0  0  0
  3  2  1  1  0  0  0
  3  4  1  0  0  0  0
  4  5  1  0  0  0  0
  5 22  1  0  0  0  0
  5  6  1  0  0  0  0
  7  6  1  0  0  0  0
  8  3  1  0  0  0  0
  8  4  1  0  0  0  0
  9 13  1  0  0  0  0
 10 11  2  0  0  0  0
 11 14  1  0  0  0  0
 12  9  2  0  0  0  0
 12 10  1  0  0  0  0
 13  8  1  0  0  0  0
 13 14  2  0  0  0  0
 15  9  1  0  0  0  0
 16 19  1  0  0  0  0
 17 16  1  0  0  0  0
 17 21  1  0  0  0  0
 17 18  1  0  0  0  0
 18 19  1  0  0  0  0
 18 15  1  0  0  0  0
 19 15  1  0  0  0  0
 20 19  1  0  0  0  0
 21 18  1  0  0  0  0
 22 23  1  0  0  0  0
 23 27  1  0  0  0  0
 24 25  1  0  0  0  0
 26 24  2  0  0  0  0
 27 24  1  0  0  0  0
M  END
>  <MODEL>
5

>  <REMARK>
 VINA RESULT:      -7.8      3.128      7.398
  Name = 
  5 active torsions:
  status: ('A' for Active; 'I' for Inactive)
    1  A    between atoms: C_1  and  C_6
    2  A    between atoms: C_2  and  C_14
    3  A    between atoms: C_2  and  N_20
    4  A    between atoms: C_14  and  C_19
    5  A    between atoms: C_17  and  C_27
                            x       y       z     vdW  Elec       q    Type
                         _______ _______ _______ _____ _____    ______ ____

>  <TORSDO>
F 5

$$$$
=
 OpenBabel10232411443D

 27 32  0  0  1  0  0  0  0  0999 V2000
  189.0490  177.4100  141.6160 C   0  0  0  0  0  2  0  0  0  0  0  0
  187.8810  178.0750  140.8560 C   0  0  0  0  0  2  0  0  0  0  0  0
  186.6280  178.0270  141.7040 C   0  0  1  0  0  3  0  0  0  0  0  0
  186.9610  178.7820  142.9210 N   0  0  2  0  0  0  0  0  0  0  0  0
  186.8120  177.7000  143.8970 C   0  0  1  0  0  3  0  0  0  0  0  0
  188.1300  176.8870  143.9600 C   0  0  0  0  0  2  0  0  0  0  0  0
  188.6080  176.3130  142.6090 C   0  0  0  0  0  2  0  0  0  0  0  0
  185.8820  179.2310  141.9880 C   0  0  2  0  0  3  0  0  0  0  0  0
  183.5270  178.2220  141.7300 C   0  0  0  0  0  0  0  0  0  0  0  0
  181.8100  178.7940  143.3680 C   0  0  0  0  0  3  0  0  0  0  0  0
  182.7410  179.5220  144.1010 C   0  0  0  0  0  3  0  0  0  0  0  0
  182.1970  178.1710  142.1820 C   0  0  0  0  0  3  0  0  0  0  0  0
  184.4820  178.9560  142.4900 C   0  0  0  0  0  0  0  0  0  0  0  0
  184.0560  179.6200  143.6500 C   0  0  0  0  0  3  0  0  0  0  0  0
  183.8230  177.6830  140.3440 C   0  0  1  0  0  3  0  0  0  0  0  0
  183.7120  178.1900  137.8840 N   0  0  0  0  0  2  0  0  0  0  0  0
  182.6810  177.2450  138.0060 N   0  0  2  0  0  0  0  0  0  0  0  0
  182.5790  177.4810  139.4790 C   0  0  1  0  0  0  0  0  0  0  0  0
  183.5370  178.6520  139.2430 C   0  0  1  0  0  0  0  0  0  0  0  0
  182.6900  179.9110  139.3960 C   0  0  0  0  0  1  0  0  0  0  0  0
  183.0280  176.1910  138.9270 C   0  0  0  0  0  2  0  0  0  0  0  0
  186.4910  178.2520  145.2900 C   0  0  0  0  0  2  0  0  0  0  0  0
  186.8400  177.2890  146.4210 C   0  0  0  0  0  2  0  0  0  0  0  0
  188.8530  177.7750  147.8430 C   0  0  0  0  0  0  0  0  0  0  0  0
  189.3790  178.4140  148.7910 O   0  0  0  0  0  1  0  0  0  0  0  0
  189.6100  176.8540  147.1290 O   0  0  0  0  0  0  0  0  0  0  0  0
  187.4870  178.0040  147.5090 N   0  0  0  0  0  2  0  0  0  0  0  0
  1  7  1  0  0  0  0
  2  1  1  0  0  0  0
  3  2  1  6  0  0  0
  3  8  1  0  0  0  0
  3  4  1  0  0  0  0
  4  5  1  0  0  0  0
  5  6  1  0  0  0  0
  5 22  1  0  0  0  0
  7  6  1  0  0  0  0
  8 13  1  0  0  0  0
  8  4  1  0  0  0  0
  9 12  2  0  0  0  0
  9 13  1  0  0  0  0
 10 11  2  0  0  0  0
 12 10  1  0  0  0  0
 13 14  2  0  0  0  0
 14 11  1  0  0  0  0
 15  9  1  0  0  0  0
 16 17  1  0  0  0  0
 16 19  1  0  0  0  0
 17 21  1  0  0  0  0
 17 18  1  0  0  0  0
 18 15  1  0  0  0  0
 19 20  1  0  0  0  0
 19 18  1  0  0  0  0
 19 15  1  0  0  0  0
 21 18  1  0  0  0  0
 22 23  1  0  0  0  0
 23 27  1  0  0  0  0
 24 25  1  0  0  0  0
 26 24  2  0  0  0  0
 27 24  1  0  0  0  0
M  END
>  <MODEL>
6

>  <REMARK>
 VINA RESULT:      -7.5      3.958      7.179
  Name = 
  5 active torsions:
  status: ('A' for Active; 'I' for Inactive)
    1  A    between atoms: C_1  and  C_6
    2  A    between atoms: C_2  and  C_14
    3  A    between atoms: C_2  and  N_20
    4  A    between atoms: C_14  and  C_19
    5  A    between atoms: C_17  and  C_27
                            x       y       z     vdW  Elec       q    Type
                         _______ _______ _______ _____ _____    ______ ____

>  <TORSDO>
F 5

$$$$
=
 OpenBabel10232411443D

 27 32  0  0  1  0  0  0  0  0999 V2000
  184.7070  178.4300  143.8200 C   0  0  0  0  0  2  0  0  0  0  0  0
  185.3730  178.0980  142.4670 C   0  0  0  0  0  2  0  0  0  0  0  0
  186.8760  178.0430  142.6390 C   0  0  1  0  0  3  0  0  0  0  0  0
  187.1100  176.9710  143.6180 N   0  0  2  0  0  0  0  0  0  0  0  0
  187.7270  177.7720  144.6770 C   0  0  1  0  0  3  0  0  0  0  0  0
  186.6140  178.4130  145.5440 C   0  0  0  0  0  2  0  0  0  0  0  0
  185.5920  179.2700  144.7660 C   0  0  0  0  0  2  0  0  0  0  0  0
  187.6260  176.8820  142.2180 C   0  0  2  0  0  3  0  0  0  0  0  0
  189.6950  177.6720  140.9040 C   0  0  0  0  0  0  0  0  0  0  0  0
  191.9130  177.2880  141.8480 C   0  0  0  0  0  3  0  0  0  0  0  0
  191.3390  176.7640  143.0020 C   0  0  0  0  0  3  0  0  0  0  0  0
  191.0960  177.7150  140.8010 C   0  0  0  0  0  3  0  0  0  0  0  0
  189.1090  177.1490  142.0910 C   0  0  0  0  0  0  0  0  0  0  0  0
  189.9520  176.6740  143.1080 C   0  0  0  0  0  3  0  0  0  0  0  0
  188.8860  177.9750  139.6580 C   0  0  1  0  0  3  0  0  0  0  0  0
  188.2760  177.1500  137.3620 N   0  0  0  0  0  2  0  0  0  0  0  0
  189.1290  178.2190  137.0410 N   0  0  2  0  0  0  0  0  0  0  0  0
  189.7370  178.2030  138.4070 C   0  0  1  0  0  0  0  0  0  0  0  0
  188.9510  176.9050  138.6170 C   0  0  1  0  0  0  0  0  0  0  0  0
  189.9900  175.7880  138.5880 C   0  0  0  0  0  1  0  0  0  0  0  0
  188.9350  179.3410  137.9250 C   0  0  0  0  0  2  0  0  0  0  0  0
  188.6290  176.9120  145.5680 C   0  0  0  0  0  2  0  0  0  0  0  0
  189.2030  177.6670  146.7620 C   0  0  0  0  0  2  0  0  0  0  0  0
  191.4580  176.6310  147.1600 C   0  0  0  0  0  0  0  0  0  0  0  0
  192.1960  175.8760  147.8450 O   0  0  0  0  0  1  0  0  0  0  0  0
  191.9820  177.2880  146.0530 O   0  0  0  0  0  0  0  0  0  0  0  0
  190.0910  176.8040  147.5250 N   0  0  0  0  0  2  0  0  0  0  0  0
  1  7  1  0  0  0  0
  2  1  1  0  0  0  0
  3  2  1  6  0  0  0
  3  4  1  0  0  0  0
  4  5  1  0  0  0  0
  5  6  1  0  0  0  0
  5 22  1  0  0  0  0
  7  6  1  0  0  0  0
  8  3  1  0  0  0  0
  8  4  1  0  0  0  0
  9 13  1  0  0  0  0
 10 11  2  0  0  0  0
 11 14  1  0  0  0  0
 12  9  2  0  0  0  0
 12 10  1  0  0  0  0
 13  8  1  0  0  0  0
 13 14  2  0  0  0  0
 15  9  1  0  0  0  0
 16 19  1  0  0  0  0
 17 16  1  0  0  0  0
 17 21  1  0  0  0  0
 17 18  1  0  0  0  0
 18 19  1  0  0  0  0
 18 15  1  0  0  0  0
 19 15  1  0  0  0  0
 20 19  1  0  0  0  0
 21 18  1  0  0  0  0
 22 23  1  0  0  0  0
 23 27  1  0  0  0  0
 24 27  1  0  0  0  0
 24 25  1  0  0  0  0
 26 24  2  0  0  0  0
M  END
>  <MODEL>
7

>  <REMARK>
 VINA RESULT:      -7.5      3.305      7.661
  Name = 
  5 active torsions:
  status: ('A' for Active; 'I' for Inactive)
    1  A    between atoms: C_1  and  C_6
    2  A    between atoms: C_2  and  C_14
    3  A    between atoms: C_2  and  N_20
    4  A    between atoms: C_14  and  C_19
    5  A    between atoms: C_17  and  C_27
                            x       y       z     vdW  Elec       q    Type
                         _______ _______ _______ _____ _____    ______ ____

>  <TORSDO>
F 5

$$$$
=
 OpenBabel10232411443D

 27 32  0  0  1  0  0  0  0  0999 V2000
  183.6490  178.7890  142.1640 C   0  0  0  0  0  2  0  0  0  0  0  0
  184.1870  178.1780  143.4770 C   0  0  0  0  0  2  0  0  0  0  0  0
  185.6010  177.6820  143.2640 C   0  0  1  0  0  3  0  0  0  0  0  0
  186.3730  178.8740  142.8850 N   0  0  2  0  0  0  0  0  0  0  0  0
  186.7780  178.4550  141.5420 C   0  0  1  0  0  3  0  0  0  0  0  0
  185.6430  178.7880  140.5410 C   0  0  0  0  0  2  0  0  0  0  0  0
  184.2670  178.1800  140.8880 C   0  0  0  0  0  2  0  0  0  0  0  0
  186.6730  178.1110  144.1340 C   0  0  2  0  0  3  0  0  0  0  0  0
  188.9170  177.2240  145.0340 C   0  0  0  0  0  0  0  0  0  0  0  0
  190.2960  175.8170  143.5930 C   0  0  0  0  0  3  0  0  0  0  0  0
  189.3080  175.8380  142.6140 C   0  0  0  0  0  3  0  0  0  0  0  0
  190.1100  176.5250  144.7800 C   0  0  0  0  0  3  0  0  0  0  0  0
  187.9010  177.2320  144.0370 C   0  0  0  0  0  0  0  0  0  0  0  0
  188.1340  176.5600  142.8280 C   0  0  0  0  0  3  0  0  0  0  0  0
  188.8700  178.1170  146.2590 C   0  0  1  0  0  3  0  0  0  0  0  0
  189.7190  178.4170  148.6070 N   0  0  0  0  0  2  0  0  0  0  0  0
  188.3870  178.0480  148.8530 N   0  0  2  0  0  0  0  0  0  0  0  0
  188.2540  177.4490  147.4890 C   0  0  1  0  0  0  0  0  0  0  0  0
  189.7650  177.6700  147.3700 C   0  0  1  0  0  0  0  0  0  0  0  0
  190.3910  176.2830  147.4710 C   0  0  0  0  0  1  0  0  0  0  0  0
  187.4840  178.6370  147.8950 C   0  0  0  0  0  2  0  0  0  0  0  0
  188.0620  179.1660  141.1040 C   0  0  0  0  0  2  0  0  0  0  0  0
  188.8260  178.4240  140.0120 C   0  0  0  0  0  2  0  0  0  0  0  0
  187.9780  178.3930  137.6470 C   0  0  0  0  0  0  0  0  0  0  0  0
  187.8170  178.9850  136.5480 O   0  0  0  0  0  0  0  0  0  0  0  0
  187.5290  177.0880  137.7990 O   0  0  0  0  0  1  0  0  0  0  0  0
  188.6200  179.0690  138.7250 N   0  0  0  0  0  2  0  0  0  0  0  0
  1  2  1  0  0  0  0
  3  2  1  1  0  0  0
  3  8  1  0  0  0  0
  4  3  1  0  0  0  0
  4  8  1  0  0  0  0
  5  4  1  0  0  0  0
  6  7  1  0  0  0  0
  6  5  1  0  0  0  0
  7  1  1  0  0  0  0
  9 15  1  0  0  0  0
 10 12  2  0  0  0  0
 11 14  2  0  0  0  0
 11 10  1  0  0  0  0
 12  9  1  0  0  0  0
 13  8  1  0  0  0  0
 13  9  2  0  0  0  0
 14 13  1  0  0  0  0
 15 19  1  0  0  0  0
 15 18  1  0  0  0  0
 16 17  1  0  0  0  0
 18 21  1  0  0  0  0
 18 17  1  0  0  0  0
 19 20  1  0  0  0  0
 19 18  1  0  0  0  0
 19 16  1  0  0  0  0
 21 17  1  0  0  0  0
 22  5  1  0  0  0  0
 23 22  1  0  0  0  0
 24 26  1  0  0  0  0
 24 27  1  0  0  0  0
 25 24  2  0  0  0  0
 27 23  1  0  0  0  0
M  END
>  <MODEL>
8

>  <REMARK>
 VINA RESULT:      -7.0      1.424      3.881
  Name = 
  5 active torsions:
  status: ('A' for Active; 'I' for Inactive)
    1  A    between atoms: C_1  and  C_6
    2  A    between atoms: C_2  and  C_14
    3  A    between atoms: C_2  and  N_20
    4  A    between atoms: C_14  and  C_19
    5  A    between atoms: C_17  and  C_27
                            x       y       z     vdW  Elec       q    Type
                         _______ _______ _______ _____ _____    ______ ____

>  <TORSDO>
F 5

$$$$
=
 OpenBabel10232411443D

 27 32  0  0  1  0  0  0  0  0999 V2000
  188.2300  178.4870  138.2910 C   0  0  0  0  0  2  0  0  0  0  0  0
  186.9060  178.3220  137.5130 C   0  0  0  0  0  2  0  0  0  0  0  0
  185.7840  178.0050  138.4790 C   0  0  1  0  0  3  0  0  0  0  0  0
  185.7210  179.1620  139.3840 N   0  0  2  0  0  0  0  0  0  0  0  0
  186.0430  178.4770  140.6380 C   0  0  1  0  0  3  0  0  0  0  0  0
  187.5820  178.3670  140.7760 C   0  0  0  0  0  2  0  0  0  0  0  0
  188.2970  177.6700  139.5990 C   0  0  0  0  0  2  0  0  0  0  0  0
  184.5770  178.7980  138.4930 C   0  0  2  0  0  3  0  0  0  0  0  0
  183.0660  176.7660  138.9600 C   0  0  0  0  0  0  0  0  0  0  0  0
  181.0800  177.0630  140.3480 C   0  0  0  0  0  3  0  0  0  0  0  0
  181.4310  178.3890  140.5790 C   0  0  0  0  0  3  0  0  0  0  0  0
  181.8790  176.2690  139.5260 C   0  0  0  0  0  3  0  0  0  0  0  0
  183.4310  178.1190  139.2100 C   0  0  0  0  0  0  0  0  0  0  0  0
  182.5820  178.9150  139.9940 C   0  0  0  0  0  3  0  0  0  0  0  0
  183.7730  175.9030  137.9340 C   0  0  1  0  0  3  0  0  0  0  0  0
  183.8480  175.2570  135.5050 N   0  0  0  0  0  2  0  0  0  0  0  0
  183.3010  174.0950  136.0700 N   0  0  2  0  0  0  0  0  0  0  0  0
  182.8800  174.8370  137.2980 C   0  0  1  0  0  0  0  0  0  0  0  0
  183.2850  176.1010  136.5350 C   0  0  1  0  0  0  0  0  0  0  0  0
  181.9770  176.7930  136.1650 C   0  0  0  0  0  1  0  0  0  0  0  0
  183.9080  173.7820  137.3410 C   0  0  0  0  0  2  0  0  0  0  0  0
  185.4790  179.2350  141.8430 C   0  0  0  0  0  2  0  0  0  0  0  0
  184.8760  178.3230  142.9070 C   0  0  0  0  0  2  0  0  0  0  0  0
  184.9580  178.8700  145.3580 C   0  0  0  0  0  0  0  0  0  0  0  0
  185.6240  178.9720  146.4220 O   0  0  0  0  0  1  0  0  0  0  0  0
  183.6000  179.1610  145.3640 O   0  0  0  0  0  0  0  0  0  0  0  0
  185.6060  178.4560  144.1580 N   0  0  0  0  0  2  0  0  0  0  0  0
  1  7  1  0  0  0  0
  2  1  1  0  0  0  0
  3  2  1  6  0  0  0
  3  8  1  0  0  0  0
  3  4  1  0  0  0  0
  4  5  1  0  0  0  0
  5  6  1  0  0  0  0
  5 22  1  0  0  0  0
  7  6  1  0  0  0  0
  8 13  1  0  0  0  0
  8  4  1  0  0  0  0
  9 13  2  0  0  0  0
  9 12  1  0  0  0  0
 10 11  1  0  0  0  0
 12 10  2  0  0  0  0
 13 14  1  0  0  0  0
 14 11  2  0  0  0  0
 15  9  1  0  0  0  0
 16 17  1  0  0  0  0
 16 19  1  0  0  0  0
 17 18  1  0  0  0  0
 17 21  1  0  0  0  0
 18 21  1  0  0  0  0
 18 15  1  0  0  0  0
 19 18  1  0  0  0  0
 19 15  1  0  0  0  0
 20 19  1  0  0  0  0
 22 23  1  0  0  0  0
 23 27  1  0  0  0  0
 24 26  2  0  0  0  0
 24 25  1  0  0  0  0
 27 24  1  0  0  0  0
M  END
>  <MODEL>
9

>  <REMARK>
 VINA RESULT:      -7.0      4.344      8.233
  Name = 
  5 active torsions:
  status: ('A' for Active; 'I' for Inactive)
    1  A    between atoms: C_1  and  C_6
    2  A    between atoms: C_2  and  C_14
    3  A    between atoms: C_2  and  N_20
    4  A    between atoms: C_14  and  C_19
    5  A    between atoms: C_17  and  C_27
                            x       y       z     vdW  Elec       q    Type
                         _______ _______ _______ _____ _____    ______ ____

>  <TORSDO>
F 5

$$$$
