=
 OpenBabel10232408373D

 28 29  0  0  1  0  0  0  0  0999 V2000
  190.8010  177.7320  144.7970 C   0  0  1  0  0  3  0  0  0  0  0  0
  190.4920  177.3520  143.3820 C   0  0  0  0  0  0  0  0  0  0  0  0
  189.3850  177.8350  140.2110 C   0  0  0  0  0  0  0  0  0  0  0  0
  189.9590  178.1650  142.5230 N   0  0  0  0  0  0  0  0  0  0  0  0
  190.7760  176.0560  142.8530 N   0  0  0  0  0  0  0  0  0  0  0  0
  188.9060  178.2810  139.0860 C   0  0  0  0  0  3  0  0  0  0  0  0
  190.3670  176.0770  141.5180 N   0  0  0  0  0  0  0  0  0  0  0  0
  189.8650  177.3890  141.3380 C   0  0  0  0  0  0  0  0  0  0  0  0
  186.7750  177.7360  137.9080 C   0  0  0  0  0  0  0  0  0  0  0  0
  188.1250  177.4260  138.2550 N   0  0  0  0  0  2  0  0  0  0  0  0
  186.2210  178.7790  138.3450 O   0  0  0  0  0  0  0  0  0  0  0  0
  186.0030  176.7970  137.0500 C   0  0  0  0  0  2  0  0  0  0  0  0
  184.5980  177.1630  137.0650 N   0  0  0  0  0  1  0  0  0  0  0  0
  189.5510  178.0630  145.5400 C   0  0  0  0  0  3  0  0  0  0  0  0
  188.4360  177.4770  145.2420 N   0  0  0  0  0  0  0  0  0  0  0  0
  187.1740  177.7130  147.1900 O   0  0  0  0  0  0  0  0  0  0  0  0
  187.2110  177.7580  145.9280 C   0  0  0  0  0  0  0  0  0  0  0  0
  185.9970  178.1000  145.1480 C   0  0  0  0  0  0  0  0  0  0  0  0
  182.6120  179.0390  142.8270 N   0  0  0  0  0  1  0  0  0  0  0  0
  186.0450  177.9930  143.7500 C   0  0  0  0  0  3  0  0  0  0  0  0
  184.7880  178.5290  145.7410 C   0  0  0  0  0  0  0  0  0  0  0  0
  184.9300  178.3010  142.9740 C   0  0  0  0  0  3  0  0  0  0  0  0
  183.7150  178.8230  144.9570 N   0  0  0  0  0  0  0  0  0  0  0  0
  184.6590  178.6620  147.1530 N   0  0  0  0  0  1  0  0  0  0  0  0
  183.7590  178.7200  143.6030 C   0  0  0  0  0  0  0  0  0  0  0  0
  191.5370  176.6100  145.5160 C   0  0  0  0  0  2  0  0  0  0  0  0
  192.5910  175.6490  147.7280 C   0  0  0  0  0  1  0  0  0  0  0  0
  191.0920  176.5700  147.2800 S   0  0  0  0  0  0  0  0  0  0  0  0
  1 26  1  1  0  0  0
  1 14  1  0  0  0  0
  2  1  1  0  0  0  0
  3  8  2  0  0  0  0
  4  2  2  0  0  0  0
  5  2  1  0  0  0  0
  6  3  2  0  0  0  0
  7  5  2  0  0  0  0
  8  7  1  0  0  0  0
  8  4  1  0  0  0  0
  9 10  1  0  0  0  0
  9 11  2  0  0  0  0
 10  6  1  0  0  0  0
 12 13  1  0  0  0  0
 12  9  1  0  0  0  0
 15 14  2  0  0  0  0
 15 17  1  0  0  0  0
 17 16  2  0  0  0  0
 18 21  1  0  0  0  0
 18 17  1  0  0  0  0
 19 25  1  0  0  0  0
 20 18  2  0  0  0  0
 21 24  1  0  0  0  0
 22 25  2  0  0  0  0
 22 20  1  0  0  0  0
 23 21  2  0  0  0  0
 25 23  1  0  0  0  0
 26 28  1  0  0  0  0
 28 27  1  0  0  0  0
M  END
>  <MODEL>
1

>  <REMARK>
 VINA RESULT:      -8.2      0.000      0.000
  Name = 
  8 active torsions:
  status: ('A' for Active; 'I' for Inactive)
    1  A    between atoms: C_1  and  C_5
    2  A    between atoms: C_2  and  C_9
    3  A    between atoms: C_3  and  C_25
    4  A    between atoms: C_7  and  C_9
    5  A    between atoms: C_7  and  S_27
    6  A    between atoms: C_8  and  C_9
    7  A    between atoms: C_19  and  N_21
    8  A    between atoms: N_20  and  C_25
                            x       y       z     vdW  Elec       q    Type
                         _______ _______ _______ _____ _____    ______ ____

>  <TORSDO>
F 8

$$$$
=
 OpenBabel10232408373D

 28 29  0  0  1  0  0  0  0  0999 V2000
  189.9500  177.4410  140.5690 C   0  0  1  0  0  3  0  0  0  0  0  0
  188.5370  177.9280  140.4780 C   0  0  0  0  0  0  0  0  0  0  0  0
  185.4630  178.7630  141.6470 C   0  0  0  0  0  0  0  0  0  0  0  0
  187.7410  178.0060  141.5000 N   0  0  0  0  0  0  0  0  0  0  0  0
  187.9500  178.3660  139.2520 N   0  0  0  0  0  0  0  0  0  0  0  0
  184.3900  179.0060  142.3440 C   0  0  0  0  0  3  0  0  0  0  0  0
  186.6430  178.7530  139.5560 N   0  0  0  0  0  0  0  0  0  0  0  0
  186.5370  178.5210  140.9490 C   0  0  0  0  0  0  0  0  0  0  0  0
  181.9120  178.8270  142.5670 C   0  0  0  0  0  0  0  0  0  0  0  0
  183.1040  178.7480  141.7860 N   0  0  0  0  0  2  0  0  0  0  0  0
  181.9630  179.1150  143.7930 O   0  0  0  0  0  0  0  0  0  0  0  0
  180.5980  178.5310  141.9350 C   0  0  0  0  0  2  0  0  0  0  0  0
  180.8060  177.8140  140.6890 N   0  0  0  0  0  1  0  0  0  0  0  0
  190.1610  176.6620  141.8230 C   0  0  0  0  0  3  0  0  0  0  0  0
  190.8170  177.1780  142.8130 N   0  0  0  0  0  0  0  0  0  0  0  0
  191.8710  175.5190  144.0700 O   0  0  0  0  0  0  0  0  0  0  0  0
  191.0410  176.4710  144.0380 C   0  0  0  0  0  0  0  0  0  0  0  0
  190.2950  176.8650  145.2570 C   0  0  0  0  0  0  0  0  0  0  0  0
  188.0750  178.0040  148.6490 N   0  0  0  0  0  1  0  0  0  0  0  0
  188.9630  177.2820  145.1240 C   0  0  0  0  0  3  0  0  0  0  0  0
  190.8580  176.8420  146.5540 C   0  0  0  0  0  0  0  0  0  0  0  0
  188.2200  177.6610  146.2400 C   0  0  0  0  0  3  0  0  0  0  0  0
  190.1080  177.2170  147.6260 N   0  0  0  0  0  0  0  0  0  0  0  0
  192.2040  176.4290  146.7720 N   0  0  0  0  0  1  0  0  0  0  0  0
  188.8170  177.6210  147.4980 C   0  0  0  0  0  0  0  0  0  0  0  0
  190.3090  176.5780  139.3670 C   0  0  0  0  0  2  0  0  0  0  0  0
  192.0220  175.3630  137.7810 C   0  0  0  0  0  1  0  0  0  0  0  0
  192.0700  176.7560  138.9450 S   0  0  0  0  0  0  0  0  0  0  0  0
  1 26  1  6  0  0  0
  1 14  1  0  0  0  0
  2  1  1  0  0  0  0
  2  4  2  0  0  0  0
  3  6  2  0  0  0  0
  5  7  2  0  0  0  0
  5  2  1  0  0  0  0
  7  8  1  0  0  0  0
  8  4  1  0  0  0  0
  8  3  2  0  0  0  0
  9 11  2  0  0  0  0
 10  6  1  0  0  0  0
 10  9  1  0  0  0  0
 12  9  1  0  0  0  0
 13 12  1  0  0  0  0
 14 15  2  0  0  0  0
 15 17  1  0  0  0  0
 17 16  2  0  0  0  0
 17 18  1  0  0  0  0
 18 21  1  0  0  0  0
 20 18  2  0  0  0  0
 20 22  1  0  0  0  0
 21 24  1  0  0  0  0
 21 23  2  0  0  0  0
 22 25  2  0  0  0  0
 25 23  1  0  0  0  0
 25 19  1  0  0  0  0
 27 28  1  0  0  0  0
 28 26  1  0  0  0  0
M  END
>  <MODEL>
2

>  <REMARK>
 VINA RESULT:      -7.8      3.171      5.900
  Name = 
  8 active torsions:
  status: ('A' for Active; 'I' for Inactive)
    1  A    between atoms: C_1  and  C_5
    2  A    between atoms: C_2  and  C_9
    3  A    between atoms: C_3  and  C_25
    4  A    between atoms: C_7  and  C_9
    5  A    between atoms: C_7  and  S_27
    6  A    between atoms: C_8  and  C_9
    7  A    between atoms: C_19  and  N_21
    8  A    between atoms: N_20  and  C_25
                            x       y       z     vdW  Elec       q    Type
                         _______ _______ _______ _____ _____    ______ ____

>  <TORSDO>
F 8

$$$$
=
 OpenBabel10232408373D

 28 29  0  0  1  0  0  0  0  0999 V2000
  189.0530  177.8160  145.6120 C   0  0  1  0  0  3  0  0  0  0  0  0
  189.1780  177.3180  144.2040 C   0  0  0  0  0  0  0  0  0  0  0  0
  190.3500  177.2800  141.0210 C   0  0  0  0  0  0  0  0  0  0  0  0
  189.9420  177.8730  143.3150 N   0  0  0  0  0  0  0  0  0  0  0  0
  188.4720  176.1720  143.7280 N   0  0  0  0  0  0  0  0  0  0  0  0
  190.9490  177.4880  139.8840 C   0  0  0  0  0  3  0  0  0  0  0  0
  188.8440  176.0080  142.3910 N   0  0  0  0  0  0  0  0  0  0  0  0
  189.7510  177.0710  142.1600 C   0  0  0  0  0  0  0  0  0  0  0  0
  189.2670  178.1870  138.1790 C   0  0  0  0  0  0  0  0  0  0  0  0
  190.2500  177.2710  138.6600 N   0  0  0  0  0  2  0  0  0  0  0  0
  188.9700  179.2190  138.8380 O   0  0  0  0  0  0  0  0  0  0  0  0
  188.5580  177.8990  136.9030 C   0  0  0  0  0  2  0  0  0  0  0  0
  187.5890  178.9470  136.6340 N   0  0  0  0  0  1  0  0  0  0  0  0
  187.6200  177.9090  146.0140 C   0  0  0  0  0  3  0  0  0  0  0  0
  186.7680  178.5300  145.2640 N   0  0  0  0  0  0  0  0  0  0  0  0
  185.0370  178.7020  146.8180 O   0  0  0  0  0  0  0  0  0  0  0  0
  185.3820  178.6430  145.6050 C   0  0  0  0  0  0  0  0  0  0  0  0
  184.3650  178.6900  144.5270 C   0  0  0  0  0  0  0  0  0  0  0  0
  181.3890  178.8460  141.5510 N   0  0  0  0  0  1  0  0  0  0  0  0
  183.0240  178.9060  144.8760 C   0  0  0  0  0  3  0  0  0  0  0  0
  184.6770  178.5280  143.1570 C   0  0  0  0  0  0  0  0  0  0  0  0
  182.0320  178.9590  143.8990 C   0  0  0  0  0  3  0  0  0  0  0  0
  183.6870  178.5860  142.2250 N   0  0  0  0  0  0  0  0  0  0  0  0
  186.0150  178.3070  142.7210 N   0  0  0  0  0  1  0  0  0  0  0  0
  182.3870  178.7950  142.5620 C   0  0  0  0  0  0  0  0  0  0  0  0
  189.7950  176.9050  146.5810 C   0  0  0  0  0  2  0  0  0  0  0  0
  191.9820  175.8730  147.6190 C   0  0  0  0  0  1  0  0  0  0  0  0
  191.5200  176.6680  146.0530 S   0  0  0  0  0  0  0  0  0  0  0  0
  1 14  1  1  0  0  0
  1 26  1  0  0  0  0
  2  1  1  0  0  0  0
  3  8  2  0  0  0  0
  4  2  2  0  0  0  0
  5  2  1  0  0  0  0
  6  3  2  0  0  0  0
  7  5  2  0  0  0  0
  8  7  1  0  0  0  0
  8  4  1  0  0  0  0
  9 10  1  0  0  0  0
  9 11  2  0  0  0  0
 10  6  1  0  0  0  0
 12  9  1  0  0  0  0
 13 12  1  0  0  0  0
 15 17  1  0  0  0  0
 15 14  2  0  0  0  0
 17 16  2  0  0  0  0
 18 20  1  0  0  0  0
 18 17  1  0  0  0  0
 19 25  1  0  0  0  0
 21 18  2  0  0  0  0
 22 20  2  0  0  0  0
 23 25  2  0  0  0  0
 23 21  1  0  0  0  0
 24 21  1  0  0  0  0
 25 22  1  0  0  0  0
 28 26  1  0  0  0  0
 28 27  1  0  0  0  0
M  END
>  <MODEL>
3

>  <REMARK>
 VINA RESULT:      -7.8      1.813      2.344
  Name = 
  8 active torsions:
  status: ('A' for Active; 'I' for Inactive)
    1  A    between atoms: C_1  and  C_5
    2  A    between atoms: C_2  and  C_9
    3  A    between atoms: C_3  and  C_25
    4  A    between atoms: C_7  and  C_9
    5  A    between atoms: C_7  and  S_27
    6  A    between atoms: C_8  and  C_9
    7  A    between atoms: C_19  and  N_21
    8  A    between atoms: N_20  and  C_25
                            x       y       z     vdW  Elec       q    Type
                         _______ _______ _______ _____ _____    ______ ____

>  <TORSDO>
F 8

$$$$
=
 OpenBabel10232408373D

 28 29  0  0  1  0  0  0  0  0999 V2000
  189.7030  177.2720  140.3600 C   0  0  1  0  0  3  0  0  0  0  0  0
  191.0750  177.1180  139.7790 C   0  0  0  0  0  0  0  0  0  0  0  0
  193.3720  176.2480  137.4380 C   0  0  0  0  0  0  0  0  0  0  0  0
  191.3030  176.5930  138.6150 N   0  0  0  0  0  0  0  0  0  0  0  0
  192.2530  177.5560  140.4580 N   0  0  0  0  0  0  0  0  0  0  0  0
  194.0280  175.8290  136.3940 C   0  0  0  0  0  3  0  0  0  0  0  0
  193.3270  177.2620  139.6140 N   0  0  0  0  0  0  0  0  0  0  0  0
  192.7150  176.6670  138.4830 C   0  0  0  0  0  0  0  0  0  0  0  0
  196.4930  175.7600  136.0190 C   0  0  0  0  0  0  0  0  0  0  0  0
  195.2960  175.1980  136.5550 N   0  0  0  0  0  2  0  0  0  0  0  0
  196.4630  176.8360  135.3650 O   0  0  0  0  0  0  0  0  0  0  0  0
  197.7870  175.0480  136.2040 C   0  0  0  0  0  2  0  0  0  0  0  0
  198.2160  175.1660  137.5860 N   0  0  0  0  0  1  0  0  0  0  0  0
  189.7770  177.5180  141.8290 C   0  0  0  0  0  3  0  0  0  0  0  0
  189.5070  176.5700  142.6670 N   0  0  0  0  0  0  0  0  0  0  0  0
  190.6390  176.5120  144.7060 O   0  0  0  0  0  0  0  0  0  0  0  0
  189.5670  176.7570  144.0860 C   0  0  0  0  0  0  0  0  0  0  0  0
  188.3660  177.2380  144.8120 C   0  0  0  0  0  0  0  0  0  0  0  0
  184.8920  178.5920  146.7670 N   0  0  0  0  0  1  0  0  0  0  0  0
  187.1700  177.3990  144.0990 C   0  0  0  0  0  3  0  0  0  0  0  0
  188.3640  177.5430  146.1920 C   0  0  0  0  0  0  0  0  0  0  0  0
  186.0150  177.8460  144.7370 C   0  0  0  0  0  3  0  0  0  0  0  0
  187.2200  177.9780  146.7880 N   0  0  0  0  0  0  0  0  0  0  0  0
  189.5390  177.4050  146.9860 N   0  0  0  0  0  1  0  0  0  0  0  0
  186.0600  178.1340  146.0990 C   0  0  0  0  0  0  0  0  0  0  0  0
  188.9510  178.4130  139.6900 C   0  0  0  0  0  2  0  0  0  0  0  0
  188.7990  178.7630  137.0860 C   0  0  0  0  0  1  0  0  0  0  0  0
  187.9080  177.7920  138.3340 S   0  0  0  0  0  0  0  0  0  0  0  0
  1 26  1  6  0  0  0
  1 14  1  0  0  0  0
  2  1  1  0  0  0  0
  2  5  1  0  0  0  0
  3  8  2  0  0  0  0
  4  2  2  0  0  0  0
  6 10  1  0  0  0  0
  6  3  2  0  0  0  0
  7  5  2  0  0  0  0
  8  4  1  0  0  0  0
  8  7  1  0  0  0  0
  9 12  1  0  0  0  0
  9 10  1  0  0  0  0
 11  9  2  0  0  0  0
 12 13  1  0  0  0  0
 14 15  2  0  0  0  0
 15 17  1  0  0  0  0
 17 16  2  0  0  0  0
 17 18  1  0  0  0  0
 18 21  1  0  0  0  0
 20 22  1  0  0  0  0
 20 18  2  0  0  0  0
 21 23  2  0  0  0  0
 21 24  1  0  0  0  0
 22 25  2  0  0  0  0
 25 19  1  0  0  0  0
 25 23  1  0  0  0  0
 27 28  1  0  0  0  0
 28 26  1  0  0  0  0
M  END
>  <MODEL>
4

>  <REMARK>
 VINA RESULT:      -7.7      4.864      6.541
  Name = 
  8 active torsions:
  status: ('A' for Active; 'I' for Inactive)
    1  A    between atoms: C_1  and  C_5
    2  A    between atoms: C_2  and  C_9
    3  A    between atoms: C_3  and  C_25
    4  A    between atoms: C_7  and  C_9
    5  A    between atoms: C_7  and  S_27
    6  A    between atoms: C_8  and  C_9
    7  A    between atoms: C_19  and  N_21
    8  A    between atoms: N_20  and  C_25
                            x       y       z     vdW  Elec       q    Type
                         _______ _______ _______ _____ _____    ______ ____

>  <TORSDO>
F 8

$$$$
=
 OpenBabel10232408373D

 28 29  0  0  1  0  0  0  0  0999 V2000
  188.6900  178.0910  140.3960 C   0  0  1  0  0  3  0  0  0  0  0  0
  187.2610  178.5370  140.4610 C   0  0  0  0  0  0  0  0  0  0  0  0
  184.1400  179.1300  139.2710 C   0  0  0  0  0  0  0  0  0  0  0  0
  186.4560  178.5080  139.4440 N   0  0  0  0  0  0  0  0  0  0  0  0
  186.6590  179.0180  141.6630 N   0  0  0  0  0  0  0  0  0  0  0  0
  183.0480  179.2580  138.5730 C   0  0  0  0  0  3  0  0  0  0  0  0
  185.3340  179.3230  141.3450 N   0  0  0  0  0  0  0  0  0  0  0  0
  185.2330  179.0010  139.9700 C   0  0  0  0  0  0  0  0  0  0  0  0
  181.2180  180.7840  137.8330 C   0  0  0  0  0  0  0  0  0  0  0  0
  182.1860  180.3710  138.7980 N   0  0  0  0  0  2  0  0  0  0  0  0
  181.1070  180.1800  136.7330 O   0  0  0  0  0  0  0  0  0  0  0  0
  180.3560  181.9630  138.1160 C   0  0  0  0  0  2  0  0  0  0  0  0
  181.0200  183.1740  137.6690 N   0  0  0  0  0  1  0  0  0  0  0  0
  189.0070  177.1660  141.5220 C   0  0  0  0  0  3  0  0  0  0  0  0
  189.7360  177.5670  142.5140 N   0  0  0  0  0  0  0  0  0  0  0  0
  190.7780  175.6930  143.4340 O   0  0  0  0  0  0  0  0  0  0  0  0
  190.0630  176.7180  143.6190 C   0  0  0  0  0  0  0  0  0  0  0  0
  189.5580  177.0520  144.9730 C   0  0  0  0  0  0  0  0  0  0  0  0
  188.0060  178.0040  148.7700 N   0  0  0  0  0  1  0  0  0  0  0  0
  188.1850  177.2820  145.1400 C   0  0  0  0  0  3  0  0  0  0  0  0
  190.3910  177.1510  146.1110 C   0  0  0  0  0  0  0  0  0  0  0  0
  187.6610  177.5970  146.3920 C   0  0  0  0  0  3  0  0  0  0  0  0
  189.8520  177.4600  147.3210 N   0  0  0  0  0  0  0  0  0  0  0  0
  191.7960  176.9310  146.0250 N   0  0  0  0  0  1  0  0  0  0  0  0
  188.5210  177.6830  147.4840 C   0  0  0  0  0  0  0  0  0  0  0  0
  188.9860  177.4000  139.0720 C   0  0  0  0  0  2  0  0  0  0  0  0
  190.7010  176.6800  137.2090 C   0  0  0  0  0  1  0  0  0  0  0  0
  190.7080  176.8110  139.0200 S   0  0  0  0  0  0  0  0  0  0  0  0
  1 26  1  6  0  0  0
  1  2  1  0  0  0  0
  1 14  1  0  0  0  0
  2  5  1  0  0  0  0
  3  8  2  0  0  0  0
  4  8  1  0  0  0  0
  4  2  2  0  0  0  0
  6 10  1  0  0  0  0
  6  3  2  0  0  0  0
  7  5  2  0  0  0  0
  8  7  1  0  0  0  0
  9 12  1  0  0  0  0
  9 10  1  0  0  0  0
 11  9  2  0  0  0  0
 13 12  1  0  0  0  0
 14 15  2  0  0  0  0
 15 17  1  0  0  0  0
 16 17  2  0  0  0  0
 17 18  1  0  0  0  0
 18 20  2  0  0  0  0
 18 21  1  0  0  0  0
 20 22  1  0  0  0  0
 21 23  2  0  0  0  0
 22 25  2  0  0  0  0
 23 25  1  0  0  0  0
 24 21  1  0  0  0  0
 25 19  1  0  0  0  0
 27 28  1  0  0  0  0
 28 26  1  0  0  0  0
M  END
>  <MODEL>
5

>  <REMARK>
 VINA RESULT:      -7.6      3.814      6.059
  Name = 
  8 active torsions:
  status: ('A' for Active; 'I' for Inactive)
    1  A    between atoms: C_1  and  C_5
    2  A    between atoms: C_2  and  C_9
    3  A    between atoms: C_3  and  C_25
    4  A    between atoms: C_7  and  C_9
    5  A    between atoms: C_7  and  S_27
    6  A    between atoms: C_8  and  C_9
    7  A    between atoms: C_19  and  N_21
    8  A    between atoms: N_20  and  C_25
                            x       y       z     vdW  Elec       q    Type
                         _______ _______ _______ _____ _____    ______ ____

>  <TORSDO>
F 8

$$$$
=
 OpenBabel10232408373D

 28 29  0  0  1  0  0  0  0  0999 V2000
  190.5270  177.7220  144.7670 C   0  0  1  0  0  3  0  0  0  0  0  0
  190.7410  177.5750  143.2910 C   0  0  0  0  0  0  0  0  0  0  0  0
  189.8560  177.5520  140.0160 C   0  0  0  0  0  0  0  0  0  0  0  0
  189.7940  177.7080  142.4150 N   0  0  0  0  0  0  0  0  0  0  0  0
  192.0200  177.2890  142.7240 N   0  0  0  0  0  0  0  0  0  0  0  0
  189.2620  177.6050  138.8590 C   0  0  0  0  0  3  0  0  0  0  0  0
  191.8350  177.2380  141.3400 N   0  0  0  0  0  0  0  0  0  0  0  0
  190.4520  177.4980  141.1740 C   0  0  0  0  0  0  0  0  0  0  0  0
  189.4510  177.0160  136.4420 C   0  0  0  0  0  0  0  0  0  0  0  0
  189.6360  176.7010  137.8220 N   0  0  0  0  0  2  0  0  0  0  0  0
  188.9300  178.1090  136.0950 O   0  0  0  0  0  0  0  0  0  0  0  0
  189.8470  176.0260  135.4040 C   0  0  0  0  0  2  0  0  0  0  0  0
  188.7370  175.1290  135.1360 N   0  0  0  0  0  1  0  0  0  0  0  0
  189.1320  177.3500  145.1370 C   0  0  0  0  0  3  0  0  0  0  0  0
  188.2000  178.2480  145.1730 N   0  0  0  0  0  0  0  0  0  0  0  0
  186.5830  177.4610  146.6590 O   0  0  0  0  0  0  0  0  0  0  0  0
  186.8460  177.9380  145.5200 C   0  0  0  0  0  0  0  0  0  0  0  0
  185.7650  178.1820  144.5340 C   0  0  0  0  0  0  0  0  0  0  0  0
  182.7730  178.8370  141.6450 N   0  0  0  0  0  1  0  0  0  0  0  0
  186.0310  177.9570  143.1760 C   0  0  0  0  0  3  0  0  0  0  0  0
  184.4730  178.6310  144.8940 C   0  0  0  0  0  0  0  0  0  0  0  0
  185.0470  178.1710  142.2130 C   0  0  0  0  0  3  0  0  0  0  0  0
  183.5330  178.8310  143.9300 N   0  0  0  0  0  0  0  0  0  0  0  0
  184.1240  178.8810  146.2520 N   0  0  0  0  0  1  0  0  0  0  0  0
  183.7890  178.6130  142.6140 C   0  0  0  0  0  0  0  0  0  0  0  0
  191.5090  176.8620  145.5500 C   0  0  0  0  0  2  0  0  0  0  0  0
  192.4440  175.7210  147.7300 C   0  0  0  0  0  1  0  0  0  0  0  0
  190.9470  176.6380  147.2660 S   0  0  0  0  0  0  0  0  0  0  0  0
  1 14  1  6  0  0  0
  1 26  1  0  0  0  0
  2  1  1  0  0  0  0
  3  8  2  0  0  0  0
  4  2  2  0  0  0  0
  5  2  1  0  0  0  0
  6  3  2  0  0  0  0
  7  5  2  0  0  0  0
  8  7  1  0  0  0  0
  8  4  1  0  0  0  0
  9 10  1  0  0  0  0
 10  6  1  0  0  0  0
 11  9  2  0  0  0  0
 12  9  1  0  0  0  0
 13 12  1  0  0  0  0
 14 15  2  0  0  0  0
 15 17  1  0  0  0  0
 17 16  2  0  0  0  0
 18 21  1  0  0  0  0
 18 17  1  0  0  0  0
 19 25  1  0  0  0  0
 20 18  2  0  0  0  0
 21 24  1  0  0  0  0
 22 25  2  0  0  0  0
 22 20  1  0  0  0  0
 23 21  2  0  0  0  0
 25 23  1  0  0  0  0
 26 28  1  0  0  0  0
 28 27  1  0  0  0  0
M  END
>  <MODEL>
6

>  <REMARK>
 VINA RESULT:      -7.6      1.671      1.760
  Name = 
  8 active torsions:
  status: ('A' for Active; 'I' for Inactive)
    1  A    between atoms: C_1  and  C_5
    2  A    between atoms: C_2  and  C_9
    3  A    between atoms: C_3  and  C_25
    4  A    between atoms: C_7  and  C_9
    5  A    between atoms: C_7  and  S_27
    6  A    between atoms: C_8  and  C_9
    7  A    between atoms: C_19  and  N_21
    8  A    between atoms: N_20  and  C_25
                            x       y       z     vdW  Elec       q    Type
                         _______ _______ _______ _____ _____    ______ ____

>  <TORSDO>
F 8

$$$$
=
 OpenBabel10232408373D

 28 29  0  0  1  0  0  0  0  0999 V2000
  188.8650  177.2320  140.8080 C   0  0  1  0  0  3  0  0  0  0  0  0
  189.7180  177.0220  139.5940 C   0  0  0  0  0  0  0  0  0  0  0  0
  192.1660  175.5880  137.7340 C   0  0  0  0  0  0  0  0  0  0  0  0
  190.6750  176.1490  139.5350 N   0  0  0  0  0  0  0  0  0  0  0  0
  189.5340  177.7630  138.3860 N   0  0  0  0  0  0  0  0  0  0  0  0
  193.1470  174.8820  137.2500 C   0  0  0  0  0  3  0  0  0  0  0  0
  190.4910  177.2900  137.4850 N   0  0  0  0  0  0  0  0  0  0  0  0
  191.1840  176.2950  138.2170 C   0  0  0  0  0  0  0  0  0  0  0  0
  195.4670  175.0800  136.3540 C   0  0  0  0  0  0  0  0  0  0  0  0
  194.0990  175.4860  136.3780 N   0  0  0  0  0  2  0  0  0  0  0  0
  195.8840  174.1750  137.1250 O   0  0  0  0  0  0  0  0  0  0  0  0
  196.4190  175.7590  135.4340 C   0  0  0  0  0  2  0  0  0  0  0  0
  197.6060  176.1610  136.1670 N   0  0  0  0  0  1  0  0  0  0  0  0
  189.7110  177.3920  142.0250 C   0  0  0  0  0  3  0  0  0  0  0  0
  189.7660  176.4520  142.9130 N   0  0  0  0  0  0  0  0  0  0  0  0
  191.8070  176.3320  144.0380 O   0  0  0  0  0  0  0  0  0  0  0  0
  190.5650  176.5570  144.0970 C   0  0  0  0  0  0  0  0  0  0  0  0
  189.9250  176.9290  145.3810 C   0  0  0  0  0  0  0  0  0  0  0  0
  187.9980  178.0020  148.9690 N   0  0  0  0  0  1  0  0  0  0  0  0
  188.5750  177.3070  145.3750 C   0  0  0  0  0  3  0  0  0  0  0  0
  190.6070  176.9220  146.6200 C   0  0  0  0  0  0  0  0  0  0  0  0
  187.9280  177.6640  146.5560 C   0  0  0  0  0  3  0  0  0  0  0  0
  189.9490  177.2750  147.7580 N   0  0  0  0  0  0  0  0  0  0  0  0
  191.9780  176.5490  146.7110 N   0  0  0  0  0  1  0  0  0  0  0  0
  188.6410  177.6410  147.7530 C   0  0  0  0  0  0  0  0  0  0  0  0
  187.9740  178.4550  140.6440 C   0  0  0  0  0  2  0  0  0  0  0  0
  185.3700  178.8360  140.7200 C   0  0  0  0  0  1  0  0  0  0  0  0
  186.6830  178.4920  141.9260 S   0  0  0  0  0  0  0  0  0  0  0  0
  1 26  1  6  0  0  0
  1 14  1  0  0  0  0
  2  1  1  0  0  0  0
  3  8  2  0  0  0  0
  4  2  2  0  0  0  0
  5  2  1  0  0  0  0
  6  3  2  0  0  0  0
  7  8  1  0  0  0  0
  7  5  2  0  0  0  0
  8  4  1  0  0  0  0
  9 10  1  0  0  0  0
  9 11  2  0  0  0  0
 10  6  1  0  0  0  0
 12 13  1  0  0  0  0
 12  9  1  0  0  0  0
 14 15  2  0  0  0  0
 15 17  1  0  0  0  0
 16 17  2  0  0  0  0
 17 18  1  0  0  0  0
 18 21  1  0  0  0  0
 20 18  2  0  0  0  0
 20 22  1  0  0  0  0
 21 24  1  0  0  0  0
 21 23  2  0  0  0  0
 22 25  2  0  0  0  0
 25 23  1  0  0  0  0
 25 19  1  0  0  0  0
 26 28  1  0  0  0  0
 27 28  1  0  0  0  0
M  END
>  <MODEL>
7

>  <REMARK>
 VINA RESULT:      -7.4      4.606      6.706
  Name = 
  8 active torsions:
  status: ('A' for Active; 'I' for Inactive)
    1  A    between atoms: C_1  and  C_5
    2  A    between atoms: C_2  and  C_9
    3  A    between atoms: C_3  and  C_25
    4  A    between atoms: C_7  and  C_9
    5  A    between atoms: C_7  and  S_27
    6  A    between atoms: C_8  and  C_9
    7  A    between atoms: C_19  and  N_21
    8  A    between atoms: N_20  and  C_25
                            x       y       z     vdW  Elec       q    Type
                         _______ _______ _______ _____ _____    ______ ____

>  <TORSDO>
F 8

$$$$
=
 OpenBabel10232408373D

 28 29  0  0  1  0  0  0  0  0999 V2000
  185.1590  178.5110  142.6160 C   0  0  1  0  0  3  0  0  0  0  0  0
  184.5230  178.9200  141.3230 C   0  0  0  0  0  0  0  0  0  0  0  0
  181.9850  179.3380  139.1110 C   0  0  0  0  0  0  0  0  0  0  0  0
  183.2620  178.7610  141.0650 N   0  0  0  0  0  0  0  0  0  0  0  0
  185.2580  179.5380  140.2650 N   0  0  0  0  0  0  0  0  0  0  0  0
  180.8550  179.3840  138.4660 C   0  0  0  0  0  3  0  0  0  0  0  0
  184.3410  179.7830  139.2400 N   0  0  0  0  0  0  0  0  0  0  0  0
  183.1160  179.2940  139.7570 C   0  0  0  0  0  0  0  0  0  0  0  0
  180.7720  180.2280  136.1190 C   0  0  0  0  0  0  0  0  0  0  0  0
  180.8280  179.1550  137.0590 N   0  0  0  0  0  2  0  0  0  0  0  0
  180.7270  181.4250  136.5100 O   0  0  0  0  0  0  0  0  0  0  0  0
  180.7290  179.9280  134.6630 C   0  0  0  0  0  2  0  0  0  0  0  0
  180.8580  178.4960  134.4550 N   0  0  0  0  0  1  0  0  0  0  0  0
  186.6320  178.3440  142.4500 C   0  0  0  0  0  3  0  0  0  0  0  0
  187.2730  177.4600  143.1450 N   0  0  0  0  0  0  0  0  0  0  0  0
  189.2100  177.1920  141.8720 O   0  0  0  0  0  0  0  0  0  0  0  0
  188.6860  177.2600  143.0190 C   0  0  0  0  0  0  0  0  0  0  0  0
  189.5180  177.1330  144.2400 C   0  0  0  0  0  0  0  0  0  0  0  0
  191.7810  176.7990  147.7750 N   0  0  0  0  0  1  0  0  0  0  0  0
  188.9210  177.3640  145.4870 C   0  0  0  0  0  3  0  0  0  0  0  0
  190.8900  176.7890  144.2130 C   0  0  0  0  0  0  0  0  0  0  0  0
  189.6610  177.2550  146.6630 C   0  0  0  0  0  3  0  0  0  0  0  0
  191.5870  176.6910  145.3770 N   0  0  0  0  0  0  0  0  0  0  0  0
  191.5680  176.5390  142.9850 N   0  0  0  0  0  1  0  0  0  0  0  0
  191.0100  176.9140  146.5870 C   0  0  0  0  0  0  0  0  0  0  0  0
  184.8830  179.5360  143.7080 C   0  0  0  0  0  2  0  0  0  0  0  0
  185.4050  178.6800  146.1420 C   0  0  0  0  0  1  0  0  0  0  0  0
  183.9410  178.7880  145.0730 S   0  0  0  0  0  0  0  0  0  0  0  0
  1 14  1  6  0  0  0
  1 26  1  0  0  0  0
  2  1  1  0  0  0  0
  3  8  2  0  0  0  0
  4  2  2  0  0  0  0
  5  2  1  0  0  0  0
  6  3  2  0  0  0  0
  7  8  1  0  0  0  0
  7  5  2  0  0  0  0
  8  4  1  0  0  0  0
  9 11  2  0  0  0  0
  9 10  1  0  0  0  0
 10  6  1  0  0  0  0
 12  9  1  0  0  0  0
 13 12  1  0  0  0  0
 14 15  2  0  0  0  0
 16 17  2  0  0  0  0
 17 15  1  0  0  0  0
 17 18  1  0  0  0  0
 18 20  1  0  0  0  0
 20 22  2  0  0  0  0
 21 18  2  0  0  0  0
 21 23  1  0  0  0  0
 23 25  2  0  0  0  0
 24 21  1  0  0  0  0
 25 22  1  0  0  0  0
 25 19  1  0  0  0  0
 26 28  1  0  0  0  0
 28 27  1  0  0  0  0
M  END
>  <MODEL>
8

>  <REMARK>
 VINA RESULT:      -7.3      3.794      6.775
  Name = 
  8 active torsions:
  status: ('A' for Active; 'I' for Inactive)
    1  A    between atoms: C_1  and  C_5
    2  A    between atoms: C_2  and  C_9
    3  A    between atoms: C_3  and  C_25
    4  A    between atoms: C_7  and  C_9
    5  A    between atoms: C_7  and  S_27
    6  A    between atoms: C_8  and  C_9
    7  A    between atoms: C_19  and  N_21
    8  A    between atoms: N_20  and  C_25
                            x       y       z     vdW  Elec       q    Type
                         _______ _______ _______ _____ _____    ______ ____

>  <TORSDO>
F 8

$$$$
=
 OpenBabel10232408373D

 28 29  0  0  1  0  0  0  0  0999 V2000
  189.3530  177.8410  139.2040 C   0  0  1  0  0  3  0  0  0  0  0  0
  187.8970  177.9270  138.8620 C   0  0  0  0  0  0  0  0  0  0  0  0
  184.6790  178.9360  139.2300 C   0  0  0  0  0  0  0  0  0  0  0  0
  187.0380  178.6070  139.5570 N   0  0  0  0  0  0  0  0  0  0  0  0
  187.3340  177.2750  137.7220 N   0  0  0  0  0  0  0  0  0  0  0  0
  183.5450  179.4610  139.5950 C   0  0  0  0  0  3  0  0  0  0  0  0
  185.9730  177.5890  137.7220 N   0  0  0  0  0  0  0  0  0  0  0  0
  185.8140  178.4110  138.8640 C   0  0  0  0  0  0  0  0  0  0  0  0
  181.5320  178.3630  140.5780 C   0  0  0  0  0  0  0  0  0  0  0  0
  182.3370  178.7170  139.4540 N   0  0  0  0  0  2  0  0  0  0  0  0
  181.8770  178.6870  141.7460 O   0  0  0  0  0  0  0  0  0  0  0  0
  180.2890  177.5720  140.3710 C   0  0  0  0  0  2  0  0  0  0  0  0
  180.2030  177.1500  138.9850 N   0  0  0  0  0  1  0  0  0  0  0  0
  189.5710  176.9220  140.3580 C   0  0  0  0  0  3  0  0  0  0  0  0
  189.5570  177.3770  141.5700 N   0  0  0  0  0  0  0  0  0  0  0  0
  190.4110  175.4600  142.5900 O   0  0  0  0  0  0  0  0  0  0  0  0
  189.7570  176.5340  142.7100 C   0  0  0  0  0  0  0  0  0  0  0  0
  189.1930  176.9330  144.0220 C   0  0  0  0  0  0  0  0  0  0  0  0
  187.4750  178.0430  147.7030 N   0  0  0  0  0  1  0  0  0  0  0  0
  187.7990  176.9430  144.1790 C   0  0  0  0  0  3  0  0  0  0  0  0
  189.9890  177.3040  145.1300 C   0  0  0  0  0  0  0  0  0  0  0  0
  187.2220  177.3090  145.3930 C   0  0  0  0  0  3  0  0  0  0  0  0
  189.3970  177.6570  146.3030 N   0  0  0  0  0  0  0  0  0  0  0  0
  191.4110  177.3180  145.0510 N   0  0  0  0  0  1  0  0  0  0  0  0
  188.0470  177.6670  146.4570 C   0  0  0  0  0  0  0  0  0  0  0  0
  190.1670  177.3600  138.0100 C   0  0  0  0  0  2  0  0  0  0  0  0
  192.6610  176.5330  138.1670 C   0  0  0  0  0  1  0  0  0  0  0  0
  191.0160  175.7980  138.3940 S   0  0  0  0  0  0  0  0  0  0  0  0
  1 26  1  6  0  0  0
  1 14  1  0  0  0  0
  2  1  1  0  0  0  0
  2  4  2  0  0  0  0
  3  6  2  0  0  0  0
  5  7  2  0  0  0  0
  5  2  1  0  0  0  0
  7  8  1  0  0  0  0
  8  3  2  0  0  0  0
  8  4  1  0  0  0  0
  9 11  2  0  0  0  0
 10  6  1  0  0  0  0
 10  9  1  0  0  0  0
 12  9  1  0  0  0  0
 13 12  1  0  0  0  0
 14 15  2  0  0  0  0
 15 17  1  0  0  0  0
 16 17  2  0  0  0  0
 17 18  1  0  0  0  0
 18 20  2  0  0  0  0
 18 21  1  0  0  0  0
 20 22  1  0  0  0  0
 21 23  2  0  0  0  0
 22 25  2  0  0  0  0
 23 25  1  0  0  0  0
 24 21  1  0  0  0  0
 25 19  1  0  0  0  0
 26 28  1  0  0  0  0
 27 28  1  0  0  0  0
M  END
>  <MODEL>
9

>  <REMARK>
 VINA RESULT:      -7.3      3.287      5.830
  Name = 
  8 active torsions:
  status: ('A' for Active; 'I' for Inactive)
    1  A    between atoms: C_1  and  C_5
    2  A    between atoms: C_2  and  C_9
    3  A    between atoms: C_3  and  C_25
    4  A    between atoms: C_7  and  C_9
    5  A    between atoms: C_7  and  S_27
    6  A    between atoms: C_8  and  C_9
    7  A    between atoms: C_19  and  N_21
    8  A    between atoms: N_20  and  C_25
                            x       y       z     vdW  Elec       q    Type
                         _______ _______ _______ _____ _____    ______ ____

>  <TORSDO>
F 8

$$$$
