=
 OpenBabel10232411333D

 27 29  0  0  1  0  0  0  0  0999 V2000
  189.4360  177.4840  143.9230 C   0  0  2  0  0  3  0  0  0  0  0  0
  186.9510  177.9530  143.8770 C   0  0  0  0  0  3  0  0  0  0  0  0
  186.8590  177.8780  146.6600 C   0  0  0  0  0  3  0  0  0  0  0  0
  188.0700  177.6690  145.9990 C   0  0  0  0  0  3  0  0  0  0  0  0
  185.6940  178.1240  145.9300 C   0  0  0  0  0  3  0  0  0  0  0  0
  185.7280  178.1650  144.5310 C   0  0  0  0  0  0  0  0  0  0  0  0
  188.1220  177.7070  144.6080 C   0  0  0  0  0  0  0  0  0  0  0  0
  184.4910  178.4030  143.7550 C   0  0  0  0  0  0  0  0  0  0  0  0
  182.1770  178.8600  142.2720 C   0  0  0  0  0  3  0  0  0  0  0  0
  182.1420  179.0100  143.6580 C   0  0  0  0  0  3  0  0  0  0  0  0
  183.3350  178.4960  141.6540 N   0  0  0  0  0  0  0  0  0  0  0  0
  184.4760  178.2680  142.3570 C   0  0  0  0  0  3  0  0  0  0  0  0
  183.3040  178.7790  144.3970 C   0  0  0  0  0  3  0  0  0  0  0  0
  190.6680  177.6330  144.8380 C   0  0  2  0  0  3  0  0  0  0  0  0
  191.6380  179.0720  144.2980 S   0  0  0  0  0  1  0  0  0  0  0  0
  191.4840  176.5010  144.7970 O   0  0  0  0  0  0  0  0  0  0  0  0
  191.8420  176.2700  146.1300 C   0  0  0  0  0  1  0  0  0  0  0  0
  189.4920  178.2480  142.5860 C   0  0  0  0  0  2  0  0  0  0  0  0
  190.7860  176.2510  139.7970 O   0  0  0  0  0  0  0  0  0  0  0  0
  190.7600  176.9190  140.8660 C   0  0  0  0  0  0  0  0  0  0  0  0
  189.5130  177.3920  141.4020 N   0  0  0  0  0  0  0  0  0  0  0  0
  191.9540  177.1970  141.5140 O   0  0  0  0  0  1  0  0  0  0  0  0
  188.2910  177.3100  140.6120 C   0  0  0  0  0  2  0  0  0  0  0  0
  187.9280  176.6260  138.0450 O   0  0  0  0  0  1  0  0  0  0  0  0
  186.9560  178.4680  138.9960 O   0  0  0  0  0  0  0  0  0  0  0  0
  188.0140  178.0150  138.1850 C   0  0  1  0  0  3  0  0  0  0  0  0
  188.2300  178.4490  139.5990 C   0  0  2  0  0  3  0  0  0  0  0  0
  1 18  1  6  0  0  0
  1  7  1  0  0  0  0
  1 14  1  0  0  0  0
  2  6  2  0  0  0  0
  2  7  1  0  0  0  0
  4  3  1  0  0  0  0
  5  3  2  0  0  0  0
  6  5  1  0  0  0  0
  7  4  2  0  0  0  0
  8 13  1  0  0  0  0
  8  6  1  0  0  0  0
  9 10  1  0  0  0  0
 10 13  2  0  0  0  0
 11  9  2  0  0  0  0
 11 12  1  0  0  0  0
 12  8  2  0  0  0  0
 14 15  1  6  0  0  0
 16 14  1  0  0  0  0
 16 17  1  0  0  0  0
 19 20  2  0  0  0  0
 20 21  1  0  0  0  0
 20 22  1  0  0  0  0
 21 18  1  0  0  0  0
 23 21  1  0  0  0  0
 25 27  1  0  0  0  0
 26 24  1  1  0  0  0
 26 25  1  0  0  0  0
 26 27  1  0  0  0  0
 27 23  1  1  0  0  0
M  END
>  <MODEL>
1

>  <REMARK>
 VINA RESULT:      -8.2      0.000      0.000
  Name = 
  8 active torsions:
  status: ('A' for Active; 'I' for Inactive)
    1  A    between atoms: C_1  and  N_17
    2  A    between atoms: C_1  and  C_26
    3  A    between atoms: O_5  and  C_8
    4  A    between atoms: C_6  and  C_22
    5  A    between atoms: C_8  and  C_24
    6  A    between atoms: C_14  and  N_17
    7  A    between atoms: C_14  and  C_24
    8  A    between atoms: C_24  and  C_27
                            x       y       z     vdW  Elec       q    Type
                         _______ _______ _______ _____ _____    ______ ____

>  <TORSDO>
F 8

$$$$
=
 OpenBabel10232411333D

 27 29  0  0  1  0  0  0  0  0999 V2000
  188.8570  177.2130  143.0010 C   0  0  2  0  0  3  0  0  0  0  0  0
  186.4280  177.8570  143.2980 C   0  0  0  0  0  3  0  0  0  0  0  0
  186.7850  178.0300  146.0550 C   0  0  0  0  0  3  0  0  0  0  0  0
  187.8580  177.6770  145.2370 C   0  0  0  0  0  3  0  0  0  0  0  0
  185.5330  178.2980  145.4950 C   0  0  0  0  0  3  0  0  0  0  0  0
  185.3430  178.2140  144.1100 C   0  0  0  0  0  0  0  0  0  0  0  0
  187.6860  177.5900  143.8570 C   0  0  0  0  0  0  0  0  0  0  0  0
  184.0120  178.4740  143.5180 C   0  0  0  0  0  0  0  0  0  0  0  0
  181.5190  178.9750  142.3790 C   0  0  0  0  0  3  0  0  0  0  0  0
  181.6590  179.0220  143.7650 C   0  0  0  0  0  3  0  0  0  0  0  0
  182.5950  178.6890  141.5930 N   0  0  0  0  0  0  0  0  0  0  0  0
  183.8210  178.4420  142.1270 C   0  0  0  0  0  3  0  0  0  0  0  0
  182.9110  178.7700  144.3320 C   0  0  0  0  0  3  0  0  0  0  0  0
  190.1180  176.8020  143.7860 C   0  0  2  0  0  3  0  0  0  0  0  0
  191.3910  178.0810  143.5750 S   0  0  0  0  0  1  0  0  0  0  0  0
  190.6300  175.5810  143.3420 O   0  0  0  0  0  0  0  0  0  0  0  0
  191.8540  175.4440  144.0070 C   0  0  0  0  0  1  0  0  0  0  0  0
  189.0680  178.2470  141.8780 C   0  0  0  0  0  2  0  0  0  0  0  0
  187.7280  177.4190  138.5670 O   0  0  0  0  0  0  0  0  0  0  0  0
  187.8400  177.9620  139.6990 C   0  0  0  0  0  0  0  0  0  0  0  0
  188.9850  177.6950  140.5270 N   0  0  0  0  0  0  0  0  0  0  0  0
  186.8400  178.8160  140.1380 O   0  0  0  0  0  1  0  0  0  0  0  0
  189.9140  176.6280  140.1810 C   0  0  0  0  0  2  0  0  0  0  0  0
  191.1060  175.0270  138.3890 O   0  0  0  0  0  1  0  0  0  0  0  0
  190.8600  177.2830  138.0800 O   0  0  0  0  0  0  0  0  0  0  0  0
  191.7530  176.2640  138.4630 C   0  0  1  0  0  3  0  0  0  0  0  0
  191.1350  177.1910  139.4590 C   0  0  2  0  0  3  0  0  0  0  0  0
  1 18  1  1  0  0  0
  1 14  1  0  0  0  0
  1  7  1  0  0  0  0
  2  7  2  0  0  0  0
  2  6  1  0  0  0  0
  4  3  2  0  0  0  0
  5  3  1  0  0  0  0
  6  5  2  0  0  0  0
  7  4  1  0  0  0  0
  8  6  1  0  0  0  0
  8 13  1  0  0  0  0
  9 10  1  0  0  0  0
 10 13  2  0  0  0  0
 11 12  1  0  0  0  0
 11  9  2  0  0  0  0
 12  8  2  0  0  0  0
 14 15  1  6  0  0  0
 16 14  1  0  0  0  0
 16 17  1  0  0  0  0
 19 20  2  0  0  0  0
 20 22  1  0  0  0  0
 20 21  1  0  0  0  0
 21 18  1  0  0  0  0
 23 21  1  0  0  0  0
 25 26  1  0  0  0  0
 25 27  1  0  0  0  0
 26 24  1  1  0  0  0
 26 27  1  0  0  0  0
 27 23  1  1  0  0  0
M  END
>  <MODEL>
2

>  <REMARK>
 VINA RESULT:      -7.9      1.225      2.240
  Name = 
  8 active torsions:
  status: ('A' for Active; 'I' for Inactive)
    1  A    between atoms: C_1  and  N_17
    2  A    between atoms: C_1  and  C_26
    3  A    between atoms: O_5  and  C_8
    4  A    between atoms: C_6  and  C_22
    5  A    between atoms: C_8  and  C_24
    6  A    between atoms: C_14  and  N_17
    7  A    between atoms: C_14  and  C_24
    8  A    between atoms: C_24  and  C_27
                            x       y       z     vdW  Elec       q    Type
                         _______ _______ _______ _____ _____    ______ ____

>  <TORSDO>
F 8

$$$$
=
 OpenBabel10232411333D

 27 29  0  0  1  0  0  0  0  0999 V2000
  185.4040  179.0210  141.5700 C   0  0  2  0  0  3  0  0  0  0  0  0
  186.2070  178.5160  143.9160 C   0  0  0  0  0  3  0  0  0  0  0  0
  183.6570  179.0120  144.9220 C   0  0  0  0  0  3  0  0  0  0  0  0
  183.8990  179.1340  143.5540 C   0  0  0  0  0  3  0  0  0  0  0  0
  184.6890  178.6410  145.7880 C   0  0  0  0  0  3  0  0  0  0  0  0
  185.9740  178.3890  145.2930 C   0  0  0  0  0  0  0  0  0  0  0  0
  185.1720  178.8860  143.0450 C   0  0  0  0  0  0  0  0  0  0  0  0
  187.0740  178.0180  146.2110 C   0  0  0  0  0  0  0  0  0  0  0  0
  189.1510  177.2980  147.9230 C   0  0  0  0  0  3  0  0  0  0  0  0
  188.0180  177.9190  148.4470 C   0  0  0  0  0  3  0  0  0  0  0  0
  189.2360  177.0450  146.5870 N   0  0  0  0  0  0  0  0  0  0  0  0
  188.2340  177.3870  145.7330 C   0  0  0  0  0  3  0  0  0  0  0  0
  186.9790  178.2790  147.5850 C   0  0  0  0  0  3  0  0  0  0  0  0
  184.1230  179.2220  140.7370 C   0  0  2  0  0  3  0  0  0  0  0  0
  183.4870  177.5990  140.2240 S   0  0  0  0  0  1  0  0  0  0  0  0
  184.3630  179.9910  139.5960 O   0  0  0  0  0  0  0  0  0  0  0  0
  183.1670  179.9370  138.8710 C   0  0  0  0  0  1  0  0  0  0  0  0
  186.3720  177.9330  141.0690 C   0  0  0  0  0  2  0  0  0  0  0  0
  188.9470  178.9410  138.6610 O   0  0  0  0  0  1  0  0  0  0  0  0
  187.8310  178.5810  139.1220 C   0  0  0  0  0  0  0  0  0  0  0  0
  187.6340  178.4450  140.5400 N   0  0  0  0  0  0  0  0  0  0  0  0
  186.7950  178.3080  138.2410 O   0  0  0  0  0  0  0  0  0  0  0  0
  188.7710  178.4970  141.4510 C   0  0  0  0  0  2  0  0  0  0  0  0
  191.1250  177.4290  140.7380 O   0  0  0  0  0  1  0  0  0  0  0  0
  190.2210  177.1810  142.8280 O   0  0  0  0  0  0  0  0  0  0  0  0
  190.4160  176.5630  141.5770 C   0  0  1  0  0  3  0  0  0  0  0  0
  189.0880  177.1080  141.9940 C   0  0  2  0  0  3  0  0  0  0  0  0
  1 18  1  6  0  0  0
  1  7  1  0  0  0  0
  2  6  1  0  0  0  0
  3  5  1  0  0  0  0
  4  3  2  0  0  0  0
  6  5  2  0  0  0  0
  6  8  1  0  0  0  0
  7  4  1  0  0  0  0
  7  2  2  0  0  0  0
  8 13  1  0  0  0  0
  9 10  1  0  0  0  0
 11  9  2  0  0  0  0
 12  8  2  0  0  0  0
 12 11  1  0  0  0  0
 13 10  2  0  0  0  0
 14 15  1  6  0  0  0
 14  1  1  0  0  0  0
 16 14  1  0  0  0  0
 17 16  1  0  0  0  0
 19 20  1  0  0  0  0
 20 21  1  0  0  0  0
 21 18  1  0  0  0  0
 21 23  1  0  0  0  0
 22 20  2  0  0  0  0
 26 24  1  6  0  0  0
 26 27  1  0  0  0  0
 26 25  1  0  0  0  0
 27 23  1  6  0  0  0
 27 25  1  0  0  0  0
M  END
>  <MODEL>
3

>  <REMARK>
 VINA RESULT:      -7.8      2.602      5.715
  Name = 
  8 active torsions:
  status: ('A' for Active; 'I' for Inactive)
    1  A    between atoms: C_1  and  N_17
    2  A    between atoms: C_1  and  C_26
    3  A    between atoms: O_5  and  C_8
    4  A    between atoms: C_6  and  C_22
    5  A    between atoms: C_8  and  C_24
    6  A    between atoms: C_14  and  N_17
    7  A    between atoms: C_14  and  C_24
    8  A    between atoms: C_24  and  C_27
                            x       y       z     vdW  Elec       q    Type
                         _______ _______ _______ _____ _____    ______ ____

>  <TORSDO>
F 8

$$$$
=
 OpenBabel10232411333D

 27 29  0  0  1  0  0  0  0  0999 V2000
  188.0350  178.3250  139.9730 C   0  0  2  0  0  3  0  0  0  0  0  0
  186.6820  178.3890  142.1100 C   0  0  0  0  0  3  0  0  0  0  0  0
  184.3520  178.8370  140.6510 C   0  0  0  0  0  3  0  0  0  0  0  0
  185.5710  178.6990  139.9870 C   0  0  0  0  0  3  0  0  0  0  0  0
  184.2970  178.7500  142.0440 C   0  0  0  0  0  3  0  0  0  0  0  0
  185.4620  178.5250  142.7870 C   0  0  0  0  0  0  0  0  0  0  0  0
  186.7390  178.4740  140.7110 C   0  0  0  0  0  0  0  0  0  0  0  0
  185.4090  178.4560  144.2640 C   0  0  0  0  0  0  0  0  0  0  0  0
  185.2940  178.3520  147.0460 C   0  0  0  0  0  3  0  0  0  0  0  0
  186.4220  177.8610  146.3900 C   0  0  0  0  0  3  0  0  0  0  0  0
  184.2620  178.8790  146.3300 N   0  0  0  0  0  0  0  0  0  0  0  0
  184.2970  178.9410  144.9720 C   0  0  0  0  0  3  0  0  0  0  0  0
  186.4750  177.9150  144.9950 C   0  0  0  0  0  3  0  0  0  0  0  0
  187.9030  178.3450  138.4370 C   0  0  2  0  0  3  0  0  0  0  0  0
  188.0070  176.6420  137.8110 S   0  0  0  0  0  1  0  0  0  0  0  0
  188.9100  179.1050  137.8390 O   0  0  0  0  0  0  0  0  0  0  0  0
  189.2150  178.4260  136.6540 C   0  0  0  0  0  1  0  0  0  0  0  0
  188.8710  177.1730  140.5630 C   0  0  0  0  0  2  0  0  0  0  0  0
  192.5160  177.5530  140.6650 O   0  0  0  0  0  1  0  0  0  0  0  0
  191.3630  177.2900  140.2290 C   0  0  0  0  0  0  0  0  0  0  0  0
  190.2000  177.5680  141.0270 N   0  0  0  0  0  0  0  0  0  0  0  0
  191.2320  176.7200  138.9720 O   0  0  0  0  0  0  0  0  0  0  0  0
  190.3370  177.9410  142.4280 C   0  0  0  0  0  2  0  0  0  0  0  0
  190.0040  178.2670  145.0700 O   0  0  0  0  0  1  0  0  0  0  0  0
  189.2790  176.4130  143.9380 O   0  0  0  0  0  0  0  0  0  0  0  0
  190.2940  176.9340  144.7630 C   0  0  1  0  0  3  0  0  0  0  0  0
  190.5020  176.7010  143.3010 C   0  0  2  0  0  3  0  0  0  0  0  0
  1 18  1  6  0  0  0
  1  7  1  0  0  0  0
  2  6  1  0  0  0  0
  3  5  1  0  0  0  0
  4  3  2  0  0  0  0
  4  7  1  0  0  0  0
  5  6  2  0  0  0  0
  6  8  1  0  0  0  0
  7  2  2  0  0  0  0
  8 12  2  0  0  0  0
  8 13  1  0  0  0  0
 10  9  1  0  0  0  0
 11  9  2  0  0  0  0
 12 11  1  0  0  0  0
 13 10  2  0  0  0  0
 14 15  1  6  0  0  0
 14  1  1  0  0  0  0
 16 14  1  0  0  0  0
 17 16  1  0  0  0  0
 18 21  1  0  0  0  0
 20 19  1  0  0  0  0
 20 21  1  0  0  0  0
 21 23  1  0  0  0  0
 22 20  2  0  0  0  0
 25 26  1  0  0  0  0
 26 24  1  6  0  0  0
 27 23  1  6  0  0  0
 27 25  1  0  0  0  0
 27 26  1  0  0  0  0
M  END
>  <MODEL>
4

>  <REMARK>
 VINA RESULT:      -7.6      2.252      5.136
  Name = 
  8 active torsions:
  status: ('A' for Active; 'I' for Inactive)
    1  A    between atoms: C_1  and  N_17
    2  A    between atoms: C_1  and  C_26
    3  A    between atoms: O_5  and  C_8
    4  A    between atoms: C_6  and  C_22
    5  A    between atoms: C_8  and  C_24
    6  A    between atoms: C_14  and  N_17
    7  A    between atoms: C_14  and  C_24
    8  A    between atoms: C_24  and  C_27
                            x       y       z     vdW  Elec       q    Type
                         _______ _______ _______ _____ _____    ______ ____

>  <TORSDO>
F 8

$$$$
=
 OpenBabel10232411333D

 27 29  0  0  1  0  0  0  0  0999 V2000
  188.3330  177.9960  144.6550 C   0  0  2  0  0  3  0  0  0  0  0  0
  186.3310  178.3980  143.1610 C   0  0  0  0  0  3  0  0  0  0  0  0
  184.6650  178.5390  145.3890 C   0  0  0  0  0  3  0  0  0  0  0  0
  186.0300  178.3100  145.5560 C   0  0  0  0  0  3  0  0  0  0  0  0
  184.1320  178.6990  144.1070 C   0  0  0  0  0  3  0  0  0  0  0  0
  184.9600  178.6310  142.9800 C   0  0  0  0  0  0  0  0  0  0  0  0
  186.8690  178.2390  144.4470 C   0  0  0  0  0  0  0  0  0  0  0  0
  184.3940  178.7770  141.6210 C   0  0  0  0  0  0  0  0  0  0  0  0
  183.3470  179.0720  139.0560 C   0  0  0  0  0  3  0  0  0  0  0  0
  182.5020  178.7020  140.1010 C   0  0  0  0  0  3  0  0  0  0  0  0
  184.6720  179.2890  139.2930 N   0  0  0  0  0  0  0  0  0  0  0  0
  185.2040  179.1510  140.5370 C   0  0  0  0  0  3  0  0  0  0  0  0
  183.0310  178.5540  141.3850 C   0  0  0  0  0  3  0  0  0  0  0  0
  189.1470  177.8380  143.3560 C   0  0  2  0  0  3  0  0  0  0  0  0
  189.5970  176.0900  143.1470 S   0  0  0  0  0  1  0  0  0  0  0  0
  190.3150  178.6030  143.3800 O   0  0  0  0  0  0  0  0  0  0  0  0
  191.3080  177.7540  142.8770 C   0  0  0  0  0  1  0  0  0  0  0  0
  188.5590  176.9150  145.7290 C   0  0  0  0  0  2  0  0  0  0  0  0
  189.5950  178.3220  148.9530 O   0  0  0  0  0  1  0  0  0  0  0  0
  188.8520  177.8830  148.0340 C   0  0  0  0  0  0  0  0  0  0  0  0
  189.4200  177.3320  146.8340 N   0  0  0  0  0  0  0  0  0  0  0  0
  187.4760  177.9460  148.1950 O   0  0  0  0  0  0  0  0  0  0  0  0
  190.8430  177.4780  146.5570 C   0  0  0  0  0  2  0  0  0  0  0  0
  192.6150  176.7880  148.4480 O   0  0  0  0  0  1  0  0  0  0  0  0
  191.1460  175.3020  147.5090 O   0  0  0  0  0  0  0  0  0  0  0  0
  192.4740  175.7700  147.4990 C   0  0  1  0  0  3  0  0  0  0  0  0
  191.5050  176.1110  146.4130 C   0  0  2  0  0  3  0  0  0  0  0  0
  1 18  1  1  0  0  0
  2  7  1  0  0  0  0
  3  4  1  0  0  0  0
  5  3  2  0  0  0  0
  6  2  2  0  0  0  0
  6  5  1  0  0  0  0
  7  1  1  0  0  0  0
  7  4  2  0  0  0  0
  8  6  1  0  0  0  0
  9 11  2  0  0  0  0
  9 10  1  0  0  0  0
 10 13  2  0  0  0  0
 11 12  1  0  0  0  0
 12  8  2  0  0  0  0
 13  8  1  0  0  0  0
 14 15  1  1  0  0  0
 14 16  1  0  0  0  0
 14  1  1  0  0  0  0
 17 16  1  0  0  0  0
 18 21  1  0  0  0  0
 20 22  2  0  0  0  0
 20 19  1  0  0  0  0
 21 20  1  0  0  0  0
 23 21  1  0  0  0  0
 26 25  1  0  0  0  0
 26 24  1  1  0  0  0
 27 23  1  1  0  0  0
 27 26  1  0  0  0  0
 27 25  1  0  0  0  0
M  END
>  <MODEL>
5

>  <REMARK>
 VINA RESULT:      -7.5      2.797      5.498
  Name = 
  8 active torsions:
  status: ('A' for Active; 'I' for Inactive)
    1  A    between atoms: C_1  and  N_17
    2  A    between atoms: C_1  and  C_26
    3  A    between atoms: O_5  and  C_8
    4  A    between atoms: C_6  and  C_22
    5  A    between atoms: C_8  and  C_24
    6  A    between atoms: C_14  and  N_17
    7  A    between atoms: C_14  and  C_24
    8  A    between atoms: C_24  and  C_27
                            x       y       z     vdW  Elec       q    Type
                         _______ _______ _______ _____ _____    ______ ____

>  <TORSDO>
F 8

$$$$
=
 OpenBabel10232411333D

 27 29  0  0  1  0  0  0  0  0999 V2000
  188.2540  177.6980  145.1000 C   0  0  2  0  0  3  0  0  0  0  0  0
  186.3770  178.1140  143.4550 C   0  0  0  0  0  3  0  0  0  0  0  0
  184.6200  178.6340  145.5530 C   0  0  0  0  0  3  0  0  0  0  0  0
  185.9480  178.3050  145.8250 C   0  0  0  0  0  3  0  0  0  0  0  0
  184.1700  178.7040  144.2330 C   0  0  0  0  0  3  0  0  0  0  0  0
  185.0450  178.4450  143.1700 C   0  0  0  0  0  0  0  0  0  0  0  0
  186.8310  178.0450  144.7800 C   0  0  0  0  0  0  0  0  0  0  0  0
  184.5640  178.4960  141.7720 C   0  0  0  0  0  0  0  0  0  0  0  0
  183.6750  178.6170  139.1340 C   0  0  0  0  0  3  0  0  0  0  0  0
  182.8350  178.0910  140.1150 C   0  0  0  0  0  3  0  0  0  0  0  0
  184.9160  179.0690  139.4680 N   0  0  0  0  0  0  0  0  0  0  0  0
  185.3710  179.0200  140.7480 C   0  0  0  0  0  3  0  0  0  0  0  0
  183.2850  178.0320  141.4360 C   0  0  0  0  0  3  0  0  0  0  0  0
  188.6060  177.7580  146.5990 C   0  0  2  0  0  3  0  0  0  0  0  0
  190.2120  176.9500  146.8640 S   0  0  0  0  0  1  0  0  0  0  0  0
  187.6450  177.1170  147.3840 O   0  0  0  0  0  0  0  0  0  0  0  0
  187.9220  177.5270  148.6930 C   0  0  0  0  0  1  0  0  0  0  0  0
  189.2210  178.4280  144.1490 C   0  0  0  0  0  2  0  0  0  0  0  0
  192.1640  176.8790  142.6050 O   0  0  0  0  0  0  0  0  0  0  0  0
  191.4650  177.5800  143.3850 C   0  0  0  0  0  0  0  0  0  0  0  0
  190.0290  177.5430  143.3130 N   0  0  0  0  0  0  0  0  0  0  0  0
  192.1000  178.3960  144.3090 O   0  0  0  0  0  1  0  0  0  0  0  0
  189.3630  176.8790  142.2010 C   0  0  0  0  0  2  0  0  0  0  0  0
  190.5570  176.2150  139.8930 O   0  0  0  0  0  1  0  0  0  0  0  0
  188.4870  177.1890  139.9930 O   0  0  0  0  0  0  0  0  0  0  0  0
  189.8570  177.4190  139.7660 C   0  0  1  0  0  3  0  0  0  0  0  0
  189.1820  177.8410  141.0310 C   0  0  2  0  0  3  0  0  0  0  0  0
  1 18  1  6  0  0  0
  1 14  1  0  0  0  0
  2  7  1  0  0  0  0
  3  4  1  0  0  0  0
  5  3  2  0  0  0  0
  6  2  2  0  0  0  0
  6  5  1  0  0  0  0
  7  1  1  0  0  0  0
  7  4  2  0  0  0  0
  8  6  1  0  0  0  0
  9 11  2  0  0  0  0
  9 10  1  0  0  0  0
 10 13  2  0  0  0  0
 11 12  1  0  0  0  0
 12  8  2  0  0  0  0
 13  8  1  0  0  0  0
 14 15  1  6  0  0  0
 14 16  1  0  0  0  0
 16 17  1  0  0  0  0
 19 20  2  0  0  0  0
 20 22  1  0  0  0  0
 21 20  1  0  0  0  0
 21 18  1  0  0  0  0
 23 21  1  0  0  0  0
 25 27  1  0  0  0  0
 26 24  1  1  0  0  0
 26 25  1  0  0  0  0
 26 27  1  0  0  0  0
 27 23  1  1  0  0  0
M  END
>  <MODEL>
6

>  <REMARK>
 VINA RESULT:      -7.2      1.922      2.746
  Name = 
  8 active torsions:
  status: ('A' for Active; 'I' for Inactive)
    1  A    between atoms: C_1  and  N_17
    2  A    between atoms: C_1  and  C_26
    3  A    between atoms: O_5  and  C_8
    4  A    between atoms: C_6  and  C_22
    5  A    between atoms: C_8  and  C_24
    6  A    between atoms: C_14  and  N_17
    7  A    between atoms: C_14  and  C_24
    8  A    between atoms: C_24  and  C_27
                            x       y       z     vdW  Elec       q    Type
                         _______ _______ _______ _____ _____    ______ ____

>  <TORSDO>
F 8

$$$$
=
 OpenBabel10232411333D

 27 29  0  0  1  0  0  0  0  0999 V2000
  189.1610  177.4290  140.7010 C   0  0  2  0  0  3  0  0  0  0  0  0
  187.4810  177.9180  142.5280 C   0  0  0  0  0  3  0  0  0  0  0  0
  185.6700  178.8770  140.6410 C   0  0  0  0  0  3  0  0  0  0  0  0
  186.9180  178.4100  140.2310 C   0  0  0  0  0  3  0  0  0  0  0  0
  185.3250  178.8640  141.9950 C   0  0  0  0  0  3  0  0  0  0  0  0
  186.2270  178.3830  142.9520 C   0  0  0  0  0  0  0  0  0  0  0  0
  187.8280  177.9290  141.1690 C   0  0  0  0  0  0  0  0  0  0  0  0
  185.8730  178.3900  144.3890 C   0  0  0  0  0  0  0  0  0  0  0  0
  185.1880  178.4260  147.0890 C   0  0  0  0  0  3  0  0  0  0  0  0
  186.4730  178.0350  146.7150 C   0  0  0  0  0  3  0  0  0  0  0  0
  184.2800  178.7880  146.1390 N   0  0  0  0  0  0  0  0  0  0  0  0
  184.5930  178.7790  144.8160 C   0  0  0  0  0  3  0  0  0  0  0  0
  186.8120  178.0180  145.3600 C   0  0  0  0  0  3  0  0  0  0  0  0
  190.1760  177.1590  141.8300 C   0  0  2  0  0  3  0  0  0  0  0  0
  191.8340  177.6410  141.2640 S   0  0  0  0  0  1  0  0  0  0  0  0
  190.2000  175.8110  142.1940 O   0  0  0  0  0  0  0  0  0  0  0  0
  190.7450  175.7990  143.4820 C   0  0  0  0  0  1  0  0  0  0  0  0
  189.6750  178.2730  139.5190 C   0  0  0  0  0  2  0  0  0  0  0  0
  188.8600  177.6210  136.0040 O   0  0  0  0  0  0  0  0  0  0  0  0
  188.9900  178.2350  137.0970 C   0  0  0  0  0  0  0  0  0  0  0  0
  189.6140  177.5970  138.2240 N   0  0  0  0  0  0  0  0  0  0  0  0
  188.5140  179.5330  137.2000 O   0  0  0  0  0  1  0  0  0  0  0  0
  189.8980  176.1680  138.2000 C   0  0  0  0  0  2  0  0  0  0  0  0
  190.5490  173.7040  137.3640 O   0  0  0  0  0  1  0  0  0  0  0  0
  191.4910  175.6050  136.5010 O   0  0  0  0  0  0  0  0  0  0  0  0
  191.6740  174.5340  137.3970 C   0  0  1  0  0  3  0  0  0  0  0  0
  191.3670  175.9190  137.8700 C   0  0  2  0  0  3  0  0  0  0  0  0
  1 18  1  6  0  0  0
  1  7  1  0  0  0  0
  1 14  1  0  0  0  0
  2  6  1  0  0  0  0
  3  5  1  0  0  0  0
  4  3  2  0  0  0  0
  4  7  1  0  0  0  0
  5  6  2  0  0  0  0
  6  8  1  0  0  0  0
  7  2  2  0  0  0  0
  8 12  2  0  0  0  0
  8 13  1  0  0  0  0
 10  9  1  0  0  0  0
 11  9  2  0  0  0  0
 12 11  1  0  0  0  0
 13 10  2  0  0  0  0
 14 15  1  6  0  0  0
 14 16  1  0  0  0  0
 16 17  1  0  0  0  0
 19 20  2  0  0  0  0
 20 22  1  0  0  0  0
 20 21  1  0  0  0  0
 21 18  1  0  0  0  0
 23 21  1  0  0  0  0
 25 26  1  0  0  0  0
 25 27  1  0  0  0  0
 26 24  1  6  0  0  0
 26 27  1  0  0  0  0
 27 23  1  6  0  0  0
M  END
>  <MODEL>
7

>  <REMARK>
 VINA RESULT:      -7.1      2.353      4.132
  Name = 
  8 active torsions:
  status: ('A' for Active; 'I' for Inactive)
    1  A    between atoms: C_1  and  N_17
    2  A    between atoms: C_1  and  C_26
    3  A    between atoms: O_5  and  C_8
    4  A    between atoms: C_6  and  C_22
    5  A    between atoms: C_8  and  C_24
    6  A    between atoms: C_14  and  N_17
    7  A    between atoms: C_14  and  C_24
    8  A    between atoms: C_24  and  C_27
                            x       y       z     vdW  Elec       q    Type
                         _______ _______ _______ _____ _____    ______ ____

>  <TORSDO>
F 8

$$$$
=
 OpenBabel10232411333D

 27 29  0  0  1  0  0  0  0  0999 V2000
  188.4790  177.7920  143.2690 C   0  0  2  0  0  3  0  0  0  0  0  0
  186.0200  178.2420  142.8850 C   0  0  0  0  0  3  0  0  0  0  0  0
  186.5080  178.7500  140.1900 C   0  0  0  0  0  3  0  0  0  0  0  0
  187.5650  178.4130  141.0350 C   0  0  0  0  0  3  0  0  0  0  0  0
  185.2070  178.8330  140.6910 C   0  0  0  0  0  3  0  0  0  0  0  0
  184.9490  178.5790  142.0440 C   0  0  0  0  0  0  0  0  0  0  0  0
  187.3270  178.1570  142.3840 C   0  0  0  0  0  0  0  0  0  0  0  0
  183.5750  178.6890  142.5810 C   0  0  0  0  0  0  0  0  0  0  0  0
  180.9790  178.9110  143.5680 C   0  0  0  0  0  3  0  0  0  0  0  0
  182.0510  178.8930  144.4600 C   0  0  0  0  0  3  0  0  0  0  0  0
  181.2050  178.8230  142.2270 N   0  0  0  0  0  0  0  0  0  0  0  0
  182.4630  178.7150  141.7230 C   0  0  0  0  0  3  0  0  0  0  0  0
  183.3510  178.7810  143.9610 C   0  0  0  0  0  3  0  0  0  0  0  0
  189.7630  177.3890  142.5160 C   0  0  2  0  0  3  0  0  0  0  0  0
  190.2060  175.6860  142.9690 S   0  0  0  0  0  1  0  0  0  0  0  0
  190.8330  178.2300  142.8290 O   0  0  0  0  0  0  0  0  0  0  0  0
  191.9520  177.3900  142.8500 C   0  0  0  0  0  1  0  0  0  0  0  0
  188.0260  176.8370  144.3900 C   0  0  0  0  0  2  0  0  0  0  0  0
  187.4940  178.3230  147.6990 O   0  0  0  0  0  1  0  0  0  0  0  0
  187.2440  177.8300  146.5660 C   0  0  0  0  0  0  0  0  0  0  0  0
  188.3040  177.3180  145.7420 N   0  0  0  0  0  0  0  0  0  0  0  0
  185.9310  177.7950  146.1230 O   0  0  0  0  0  0  0  0  0  0  0  0
  189.6970  177.5640  146.0920 C   0  0  0  0  0  2  0  0  0  0  0  0
  191.9820  176.1630  145.9860 O   0  0  0  0  0  1  0  0  0  0  0  0
  191.2920  177.2870  147.8580 O   0  0  0  0  0  0  0  0  0  0  0  0
  191.3690  176.0270  147.2350 C   0  0  1  0  0  3  0  0  0  0  0  0
  190.0820  176.7800  147.3430 C   0  0  2  0  0  3  0  0  0  0  0  0
  1 18  1  6  0  0  0
  3  5  2  0  0  0  0
  3  4  1  0  0  0  0
  4  7  2  0  0  0  0
  5  6  1  0  0  0  0
  6  8  1  0  0  0  0
  6  2  2  0  0  0  0
  7  2  1  0  0  0  0
  7  1  1  0  0  0  0
  8 13  1  0  0  0  0
  9 10  1  0  0  0  0
 11  9  2  0  0  0  0
 12 11  1  0  0  0  0
 12  8  2  0  0  0  0
 13 10  2  0  0  0  0
 14 16  1  0  0  0  0
 14 15  1  1  0  0  0
 14  1  1  0  0  0  0
 16 17  1  0  0  0  0
 18 21  1  0  0  0  0
 20 19  1  0  0  0  0
 21 23  1  0  0  0  0
 21 20  1  0  0  0  0
 22 20  2  0  0  0  0
 26 24  1  6  0  0  0
 26 27  1  0  0  0  0
 26 25  1  0  0  0  0
 27 23  1  6  0  0  0
 27 25  1  0  0  0  0
M  END
>  <MODEL>
8

>  <REMARK>
 VINA RESULT:      -7.1      2.415      5.277
  Name = 
  8 active torsions:
  status: ('A' for Active; 'I' for Inactive)
    1  A    between atoms: C_1  and  N_17
    2  A    between atoms: C_1  and  C_26
    3  A    between atoms: O_5  and  C_8
    4  A    between atoms: C_6  and  C_22
    5  A    between atoms: C_8  and  C_24
    6  A    between atoms: C_14  and  N_17
    7  A    between atoms: C_14  and  C_24
    8  A    between atoms: C_24  and  C_27
                            x       y       z     vdW  Elec       q    Type
                         _______ _______ _______ _____ _____    ______ ____

>  <TORSDO>
F 8

$$$$
=
 OpenBabel10232411333D

 27 29  0  0  1  0  0  0  0  0999 V2000
  187.6240  178.0310  140.9570 C   0  0  2  0  0  3  0  0  0  0  0  0
  188.2310  177.7640  143.3990 C   0  0  0  0  0  3  0  0  0  0  0  0
  190.4130  176.1750  142.7090 C   0  0  0  0  0  3  0  0  0  0  0  0
  189.5850  176.6900  141.7110 C   0  0  0  0  0  3  0  0  0  0  0  0
  190.1500  176.4540  144.0520 C   0  0  0  0  0  3  0  0  0  0  0  0
  189.0570  177.2530  144.4100 C   0  0  0  0  0  0  0  0  0  0  0  0
  188.4940  177.4860  142.0490 C   0  0  0  0  0  0  0  0  0  0  0  0
  188.7640  177.5300  145.8340 C   0  0  0  0  0  0  0  0  0  0  0  0
  188.2320  178.0330  148.5220 C   0  0  0  0  0  3  0  0  0  0  0  0
  187.2050  178.1590  147.5870 C   0  0  0  0  0  3  0  0  0  0  0  0
  189.4810  177.6660  148.1200 N   0  0  0  0  0  0  0  0  0  0  0  0
  189.7630  177.4150  146.8140 C   0  0  0  0  0  3  0  0  0  0  0  0
  187.4770  177.9060  146.2400 C   0  0  0  0  0  3  0  0  0  0  0  0
  188.3780  178.4150  139.6690 C   0  0  2  0  0  3  0  0  0  0  0  0
  187.5770  177.6100  138.2500 S   0  0  0  0  0  1  0  0  0  0  0  0
  189.7170  178.0180  139.7140 O   0  0  0  0  0  0  0  0  0  0  0  0
  190.0580  177.7630  138.3810 C   0  0  0  0  0  1  0  0  0  0  0  0
  186.6510  179.0890  141.5110 C   0  0  0  0  0  2  0  0  0  0  0  0
  183.1370  178.8700  140.4870 O   0  0  0  0  0  1  0  0  0  0  0  0
  184.3660  179.1480  140.4560 C   0  0  0  0  0  0  0  0  0  0  0  0
  185.2460  178.6850  141.4940 N   0  0  0  0  0  0  0  0  0  0  0  0
  184.8570  179.9140  139.4100 O   0  0  0  0  0  0  0  0  0  0  0  0
  184.7060  178.0890  142.7090 C   0  0  0  0  0  2  0  0  0  0  0  0
  182.3410  178.7910  143.7610 O   0  0  0  0  0  1  0  0  0  0  0  0
  184.2270  178.4810  145.0220 O   0  0  0  0  0  0  0  0  0  0  0  0
  183.3930  179.4400  144.4160 C   0  0  1  0  0  3  0  0  0  0  0  0
  184.7350  179.0910  143.8580 C   0  0  2  0  0  3  0  0  0  0  0  0
  1 18  1  1  0  0  0
  1  7  1  0  0  0  0
  2  6  1  0  0  0  0
  3  5  1  0  0  0  0
  4  7  1  0  0  0  0
  4  3  2  0  0  0  0
  5  6  2  0  0  0  0
  6  8  1  0  0  0  0
  7  2  2  0  0  0  0
  8 13  2  0  0  0  0
  8 12  1  0  0  0  0
 10  9  2  0  0  0  0
 11  9  1  0  0  0  0
 12 11  2  0  0  0  0
 13 10  1  0  0  0  0
 14 15  1  6  0  0  0
 14 16  1  0  0  0  0
 14  1  1  0  0  0  0
 17 16  1  0  0  0  0
 20 19  1  0  0  0  0
 20 21  1  0  0  0  0
 21 18  1  0  0  0  0
 21 23  1  0  0  0  0
 22 20  2  0  0  0  0
 26 24  1  6  0  0  0
 26 25  1  0  0  0  0
 27 23  1  6  0  0  0
 27 26  1  0  0  0  0
 27 25  1  0  0  0  0
M  END
>  <MODEL>
9

>  <REMARK>
 VINA RESULT:      -7.1      3.101      6.132
  Name = 
  8 active torsions:
  status: ('A' for Active; 'I' for Inactive)
    1  A    between atoms: C_1  and  N_17
    2  A    between atoms: C_1  and  C_26
    3  A    between atoms: O_5  and  C_8
    4  A    between atoms: C_6  and  C_22
    5  A    between atoms: C_8  and  C_24
    6  A    between atoms: C_14  and  N_17
    7  A    between atoms: C_14  and  C_24
    8  A    between atoms: C_24  and  C_27
                            x       y       z     vdW  Elec       q    Type
                         _______ _______ _______ _____ _____    ______ ____

>  <TORSDO>
F 8

$$$$
