=
 OpenBabel10232409413D

 35 38  0  0  1  0  0  0  0  0999 V2000
  189.0430  177.5490  144.2320 C   0  0  0  0  0  0  0  0  0  0  0  0
  189.3920  177.6550  142.8610 C   0  0  0  0  0  0  0  0  0  0  0  0
  192.3010  177.3780  140.7090 O   0  0  0  0  0  0  0  0  0  0  0  0
  188.7370  178.1390  140.5350 C   0  0  0  0  0  3  0  0  0  0  0  0
  191.3150  176.8430  144.7040 C   0  0  0  0  0  3  0  0  0  0  0  0
  190.0290  177.5960  139.9850 C   0  0  1  0  0  3  0  0  0  0  0  0
  190.0250  177.1360  145.1410 C   0  0  0  0  0  3  0  0  0  0  0  0
  188.4390  178.1340  141.8370 C   0  0  0  0  0  3  0  0  0  0  0  0
  191.0880  177.4520  141.0460 C   0  0  0  0  0  0  0  0  0  0  0  0
  191.6280  176.9540  143.3880 N   0  0  0  0  0  0  0  0  0  0  0  0
  190.7080  177.3430  142.4650 C   0  0  0  0  0  0  0  0  0  0  0  0
  187.9140  175.3820  135.3080 O   0  0  0  0  0  0  0  0  0  0  0  0
  189.7750  176.3020  139.3650 N   0  0  0  0  0  2  0  0  0  0  0  0
  189.9030  177.0880  137.1270 N   0  0  0  0  0  0  0  0  0  0  0  0
  189.2780  175.3160  135.6250 C   0  0  2  0  0  3  0  0  0  0  0  0
  187.7650  176.5590  134.5610 C   0  0  0  0  0  2  0  0  0  0  0  0
  188.7740  177.5700  135.0530 C   0  0  0  0  0  2  0  0  0  0  0  0
  189.4960  174.5010  137.2410 S   0  0  0  0  0  0  0  0  0  0  0  0
  189.8230  176.7330  135.7230 C   0  0  1  0  0  3  0  0  0  0  0  0
  189.7780  176.1050  137.9500 C   0  0  0  0  0  0  0  0  0  0  0  0
  186.6010  178.0450  143.8480 N   0  0  0  0  0  2  0  0  0  0  0  0
  185.2470  178.3350  144.2150 C   0  0  0  0  0  0  0  0  0  0  0  0
  187.4880  177.9480  146.0030 O   0  0  0  0  0  0  0  0  0  0  0  0
  187.6880  177.8530  144.7630 C   0  0  0  0  0  0  0  0  0  0  0  0
  184.9090  178.4400  145.4250 O   0  0  0  0  0  0  0  0  0  0  0  0
  184.2320  178.5500  143.1500 C   0  0  0  0  0  2  0  0  0  0  0  0
  184.7850  178.0870  141.8170 C   0  0  0  0  0  2  0  0  0  0  0  0
  183.8640  178.5460  140.6990 C   0  0  0  0  0  2  0  0  0  0  0  0
  184.6370  179.0290  139.4650 C   0  0  1  0  0  3  0  0  0  0  0  0
  183.7790  176.9530  138.5310 O   0  0  0  0  0  1  0  0  0  0  0  0
  184.5550  178.0830  138.2590 C   0  0  2  0  0  3  0  0  0  0  0  0
  185.9270  177.6890  137.7240 C   0  0  0  0  0  2  0  0  0  0  0  0
  186.7880  178.7890  137.6960 O   0  0  0  0  0  1  0  0  0  0  0  0
  182.8840  180.2240  138.8270 C   0  0  0  0  0  1  0  0  0  0  0  0
  184.2480  180.3220  139.1050 O   0  0  0  0  0  0  0  0  0  0  0  0
  1 24  1  0  0  0  0
  1  7  1  0  0  0  0
  2  1  2  0  0  0  0
  3  9  2  0  0  0  0
  4  8  2  0  0  0  0
  5  7  2  0  0  0  0
  6 13  1  1  0  0  0
  6  4  1  0  0  0  0
  6  9  1  0  0  0  0
  8  2  1  0  0  0  0
  9 11  1  0  0  0  0
 10  5  1  0  0  0  0
 11  2  1  0  0  0  0
 11 10  2  0  0  0  0
 14 20  2  0  0  0  0
 15 12  1  1  0  0  0
 15 19  1  0  0  0  0
 15 18  1  0  0  0  0
 16 17  1  0  0  0  0
 16 12  1  0  0  0  0
 18 20  1  0  0  0  0
 19 17  1  6  0  0  0
 19 14  1  0  0  0  0
 20 13  1  0  0  0  0
 21 22  1  0  0  0  0
 21 24  1  0  0  0  0
 22 25  2  0  0  0  0
 24 23  2  0  0  0  0
 26 22  1  0  0  0  0
 27 26  1  0  0  0  0
 28 27  1  0  0  0  0
 29 28  1  1  0  0  0
 31 30  1  1  0  0  0
 31 29  1  0  0  0  0
 32 31  1  0  0  0  0
 33 32  1  0  0  0  0
 34 35  1  0  0  0  0
 35 29  1  0  0  0  0
M  END
>  <MODEL>
1

>  <REMARK>
 VINA RESULT:      -8.0      0.000      0.000
  Name = 
  9 active torsions:
  status: ('A' for Active; 'I' for Inactive)
    1  A    between atoms: C_1  and  C_24
    2  A    between atoms: C_6  and  C_10
    3  A    between atoms: C_6  and  C_12
    4  A    between atoms: N_8  and  C_17
    5  A    between atoms: C_10  and  C_19
    6  A    between atoms: C_11  and  C_12
    7  A    between atoms: C_11  and  C_32
    8  A    between atoms: C_11  and  O_35
    9  A    between atoms: C_13  and  C_32
                            x       y       z     vdW  Elec       q    Type
                         _______ _______ _______ _____ _____    ______ ____

>  <TORSDO>
F 9

$$$$
=
 OpenBabel10232409413D

 35 38  0  0  1  0  0  0  0  0999 V2000
  191.0630  176.9160  138.9150 C   0  0  0  0  0  0  0  0  0  0  0  0
  189.8330  177.2940  138.3200 C   0  0  0  0  0  0  0  0  0  0  0  0
  188.2120  177.3190  135.0730 O   0  0  0  0  0  0  0  0  0  0  0  0
  187.5950  178.3060  138.5300 C   0  0  0  0  0  3  0  0  0  0  0  0
  191.7540  175.9940  136.7810 C   0  0  0  0  0  3  0  0  0  0  0  0
  187.1720  177.8190  137.1700 C   0  0  1  0  0  3  0  0  0  0  0  0
  192.0140  176.2600  138.1240 C   0  0  0  0  0  3  0  0  0  0  0  0
  188.7910  178.0370  139.0610 C   0  0  0  0  0  3  0  0  0  0  0  0
  188.3410  177.3890  136.3250 C   0  0  0  0  0  0  0  0  0  0  0  0
  190.5710  176.3680  136.2310 N   0  0  0  0  0  0  0  0  0  0  0  0
  189.6130  176.9990  136.9600 C   0  0  0  0  0  0  0  0  0  0  0  0
  182.4430  176.4790  139.8330 O   0  0  0  0  0  0  0  0  0  0  0  0
  186.2440  176.7070  137.3310 N   0  0  0  0  0  2  0  0  0  0  0  0
  184.3480  178.0520  137.8160 N   0  0  0  0  0  0  0  0  0  0  0  0
  182.5080  176.6360  138.4410 C   0  0  2  0  0  3  0  0  0  0  0  0
  182.1100  177.7460  140.3330 C   0  0  0  0  0  2  0  0  0  0  0  0
  182.7150  178.7920  139.4250 C   0  0  0  0  0  2  0  0  0  0  0  0
  183.7540  175.5000  137.7500 S   0  0  0  0  0  0  0  0  0  0  0  0
  182.9320  178.0640  138.1330 C   0  0  1  0  0  3  0  0  0  0  0  0
  184.8520  176.8880  137.5970 C   0  0  0  0  0  0  0  0  0  0  0  0
  190.4420  176.8780  141.3590 N   0  0  0  0  0  2  0  0  0  0  0  0
  190.6350  177.0700  142.7660 C   0  0  0  0  0  0  0  0  0  0  0  0
  192.5240  177.6590  140.6550 O   0  0  0  0  0  0  0  0  0  0  0  0
  191.4050  177.1760  140.3390 C   0  0  0  0  0  0  0  0  0  0  0  0
  191.7180  177.5310  143.2160 O   0  0  0  0  0  0  0  0  0  0  0  0
  189.5260  176.7520  143.7030 C   0  0  0  0  0  2  0  0  0  0  0  0
  188.2530  176.4980  142.9230 C   0  0  0  0  0  2  0  0  0  0  0  0
  187.4510  177.7850  142.8300 C   0  0  0  0  0  2  0  0  0  0  0  0
  186.1250  177.7060  143.5970 C   0  0  1  0  0  3  0  0  0  0  0  0
  186.5590  177.3700  145.9670 O   0  0  0  0  0  1  0  0  0  0  0  0
  186.1750  178.3110  145.0070 C   0  0  2  0  0  3  0  0  0  0  0  0
  184.8700  178.9940  145.4020 C   0  0  0  0  0  2  0  0  0  0  0  0
  184.4290  178.5490  146.6510 O   0  0  0  0  0  1  0  0  0  0  0  0
  185.6880  178.7600  141.6980 C   0  0  0  0  0  1  0  0  0  0  0  0
  185.0820  178.2690  142.8560 O   0  0  0  0  0  0  0  0  0  0  0  0
  1 24  1  0  0  0  0
  2  1  1  0  0  0  0
  2  8  1  0  0  0  0
  3  9  2  0  0  0  0
  4  8  2  0  0  0  0
  5  7  1  0  0  0  0
  6 13  1  1  0  0  0
  6  4  1  0  0  0  0
  7  1  2  0  0  0  0
  9 11  1  0  0  0  0
  9  6  1  0  0  0  0
 10  5  2  0  0  0  0
 10 11  1  0  0  0  0
 11  2  2  0  0  0  0
 12 16  1  0  0  0  0
 13 20  1  0  0  0  0
 14 19  1  0  0  0  0
 15 18  1  1  0  0  0
 15 12  1  0  0  0  0
 17 16  1  0  0  0  0
 19 15  1  0  0  0  0
 19 17  1  1  0  0  0
 20 18  1  0  0  0  0
 20 14  2  0  0  0  0
 21 22  1  0  0  0  0
 22 25  2  0  0  0  0
 22 26  1  0  0  0  0
 24 23  2  0  0  0  0
 24 21  1  0  0  0  0
 27 26  1  0  0  0  0
 28 27  1  0  0  0  0
 29 28  1  6  0  0  0
 29 31  1  0  0  0  0
 31 32  1  0  0  0  0
 31 30  1  1  0  0  0
 32 33  1  0  0  0  0
 34 35  1  0  0  0  0
 35 29  1  0  0  0  0
M  END
>  <MODEL>
2

>  <REMARK>
 VINA RESULT:      -7.3      2.182      6.177
  Name = 
  9 active torsions:
  status: ('A' for Active; 'I' for Inactive)
    1  A    between atoms: C_1  and  C_24
    2  A    between atoms: C_6  and  C_10
    3  A    between atoms: C_6  and  C_12
    4  A    between atoms: N_8  and  C_17
    5  A    between atoms: C_10  and  C_19
    6  A    between atoms: C_11  and  C_12
    7  A    between atoms: C_11  and  C_32
    8  A    between atoms: C_11  and  O_35
    9  A    between atoms: C_13  and  C_32
                            x       y       z     vdW  Elec       q    Type
                         _______ _______ _______ _____ _____    ______ ____

>  <TORSDO>
F 9

$$$$
=
 OpenBabel10232409413D

 35 38  0  0  1  0  0  0  0  0999 V2000
  189.2180  177.4600  144.0930 C   0  0  0  0  0  0  0  0  0  0  0  0
  189.4270  177.6460  142.7030 C   0  0  0  0  0  0  0  0  0  0  0  0
  192.0690  177.3620  140.2310 O   0  0  0  0  0  0  0  0  0  0  0  0
  188.5630  178.3360  140.5000 C   0  0  0  0  0  3  0  0  0  0  0  0
  191.4770  176.5940  144.2650 C   0  0  0  0  0  3  0  0  0  0  0  0
  189.7520  177.7610  139.7770 C   0  0  1  0  0  3  0  0  0  0  0  0
  190.2620  176.9260  144.8600 C   0  0  0  0  0  3  0  0  0  0  0  0
  188.4040  178.2520  141.8240 C   0  0  0  0  0  3  0  0  0  0  0  0
  190.9060  177.4800  140.7030 C   0  0  0  0  0  0  0  0  0  0  0  0
  191.6560  176.7820  142.9330 N   0  0  0  0  0  0  0  0  0  0  0  0
  190.6710  177.2890  142.1450 C   0  0  0  0  0  0  0  0  0  0  0  0
  186.4140  175.9750  135.6640 O   0  0  0  0  0  0  0  0  0  0  0  0
  189.3510  176.5320  139.1040 N   0  0  0  0  0  2  0  0  0  0  0  0
  188.8150  177.5660  137.0330 N   0  0  0  0  0  0  0  0  0  0  0  0
  187.8130  175.9430  135.5700 C   0  0  2  0  0  3  0  0  0  0  0  0
  186.0370  177.2180  135.1370 C   0  0  0  0  0  2  0  0  0  0  0  0
  187.1290  178.2170  135.4400 C   0  0  0  0  0  2  0  0  0  0  0  0
  188.5010  174.9650  136.9450 S   0  0  0  0  0  0  0  0  0  0  0  0
  188.3400  177.3650  135.6770 C   0  0  1  0  0  3  0  0  0  0  0  0
  188.9490  176.4940  137.7330 C   0  0  0  0  0  0  0  0  0  0  0  0
  186.7450  177.9490  144.0240 N   0  0  0  0  0  2  0  0  0  0  0  0
  185.4550  178.2670  144.5580 C   0  0  0  0  0  0  0  0  0  0  0  0
  187.9220  177.9660  146.0380 O   0  0  0  0  0  0  0  0  0  0  0  0
  187.9490  177.8010  144.7890 C   0  0  0  0  0  0  0  0  0  0  0  0
  185.2880  178.4410  145.7950 O   0  0  0  0  0  0  0  0  0  0  0  0
  184.3030  178.4280  143.6320 C   0  0  0  0  0  2  0  0  0  0  0  0
  184.7490  178.1640  142.2090 C   0  0  0  0  0  2  0  0  0  0  0  0
  183.8330  178.8990  141.2450 C   0  0  0  0  0  2  0  0  0  0  0  0
  182.9970  177.9430  140.3860 C   0  0  1  0  0  3  0  0  0  0  0  0
  180.6960  177.7620  139.6200 O   0  0  0  0  0  1  0  0  0  0  0  0
  181.5070  177.9040  140.7490 C   0  0  2  0  0  3  0  0  0  0  0  0
  181.0730  179.1020  141.5880 C   0  0  0  0  0  2  0  0  0  0  0  0
  180.5200  180.1020  140.7840 O   0  0  0  0  0  1  0  0  0  0  0  0
  183.6940  179.5060  138.9790 C   0  0  0  0  0  1  0  0  0  0  0  0
  183.1660  178.2150  139.0250 O   0  0  0  0  0  0  0  0  0  0  0  0
  1 24  1  0  0  0  0
  1  7  1  0  0  0  0
  2  1  2  0  0  0  0
  3  9  2  0  0  0  0
  4  8  2  0  0  0  0
  5  7  2  0  0  0  0
  6 13  1  1  0  0  0
  6  4  1  0  0  0  0
  6  9  1  0  0  0  0
  8  2  1  0  0  0  0
  9 11  1  0  0  0  0
 10  5  1  0  0  0  0
 11  2  1  0  0  0  0
 11 10  2  0  0  0  0
 14 20  2  0  0  0  0
 15 12  1  1  0  0  0
 15 19  1  0  0  0  0
 15 18  1  0  0  0  0
 16 17  1  0  0  0  0
 16 12  1  0  0  0  0
 18 20  1  0  0  0  0
 19 17  1  1  0  0  0
 19 14  1  0  0  0  0
 20 13  1  0  0  0  0
 21 22  1  0  0  0  0
 21 24  1  0  0  0  0
 22 25  2  0  0  0  0
 24 23  2  0  0  0  0
 26 22  1  0  0  0  0
 27 26  1  0  0  0  0
 28 27  1  0  0  0  0
 29 31  1  0  0  0  0
 29 28  1  1  0  0  0
 31 30  1  6  0  0  0
 31 32  1  0  0  0  0
 33 32  1  0  0  0  0
 34 35  1  0  0  0  0
 35 29  1  0  0  0  0
M  END
>  <MODEL>
3

>  <REMARK>
 VINA RESULT:      -7.3      1.378      2.080
  Name = 
  9 active torsions:
  status: ('A' for Active; 'I' for Inactive)
    1  A    between atoms: C_1  and  C_24
    2  A    between atoms: C_6  and  C_10
    3  A    between atoms: C_6  and  C_12
    4  A    between atoms: N_8  and  C_17
    5  A    between atoms: C_10  and  C_19
    6  A    between atoms: C_11  and  C_12
    7  A    between atoms: C_11  and  C_32
    8  A    between atoms: C_11  and  O_35
    9  A    between atoms: C_13  and  C_32
                            x       y       z     vdW  Elec       q    Type
                         _______ _______ _______ _____ _____    ______ ____

>  <TORSDO>
F 9

$$$$
=
 OpenBabel10232409413D

 35 38  0  0  1  0  0  0  0  0999 V2000
  190.7600  176.8740  138.7050 C   0  0  0  0  0  0  0  0  0  0  0  0
  189.4900  177.3120  138.2490 C   0  0  0  0  0  0  0  0  0  0  0  0
  187.6020  177.6220  135.1660 O   0  0  0  0  0  0  0  0  0  0  0  0
  187.2950  178.3240  138.7330 C   0  0  0  0  0  3  0  0  0  0  0  0
  191.2530  176.1260  136.4510 C   0  0  0  0  0  3  0  0  0  0  0  0
  186.7500  177.9560  137.3780 C   0  0  1  0  0  3  0  0  0  0  0  0
  191.6300  176.2770  137.7830 C   0  0  0  0  0  3  0  0  0  0  0  0
  188.5270  178.0010  139.1350 C   0  0  0  0  0  3  0  0  0  0  0  0
  187.8370  177.5860  136.4040 C   0  0  0  0  0  0  0  0  0  0  0  0
  190.0340  176.5560  136.0360 N   0  0  0  0  0  0  0  0  0  0  0  0
  189.1510  177.1330  136.8940 C   0  0  0  0  0  0  0  0  0  0  0  0
  181.9640  176.6260  139.9410 O   0  0  0  0  0  0  0  0  0  0  0  0
  185.8220  176.8420  137.5260 N   0  0  0  0  0  2  0  0  0  0  0  0
  183.9120  178.1880  137.9570 N   0  0  0  0  0  0  0  0  0  0  0  0
  182.0600  176.7730  138.5490 C   0  0  2  0  0  3  0  0  0  0  0  0
  181.6170  177.8960  140.4230 C   0  0  0  0  0  2  0  0  0  0  0  0
  182.2400  178.9360  139.5220 C   0  0  0  0  0  2  0  0  0  0  0  0
  183.3240  175.6340  137.8970 S   0  0  0  0  0  0  0  0  0  0  0  0
  182.4890  178.1990  138.2400 C   0  0  1  0  0  3  0  0  0  0  0  0
  184.4230  177.0230  137.7580 C   0  0  0  0  0  0  0  0  0  0  0  0
  190.3890  176.5410  141.1770 N   0  0  0  0  0  2  0  0  0  0  0  0
  190.7090  176.6010  142.5720 C   0  0  0  0  0  0  0  0  0  0  0  0
  192.3380  177.5410  140.3730 O   0  0  0  0  0  0  0  0  0  0  0  0
  191.2250  177.0120  140.1100 C   0  0  0  0  0  0  0  0  0  0  0  0
  191.8000  177.0920  142.9680 O   0  0  0  0  0  0  0  0  0  0  0  0
  189.7220  176.1090  143.5680 C   0  0  0  0  0  2  0  0  0  0  0  0
  189.9110  176.8410  144.8800 C   0  0  0  0  0  2  0  0  0  0  0  0
  188.9690  178.0320  144.9360 C   0  0  0  0  0  2  0  0  0  0  0  0
  187.9450  177.9170  146.0720 C   0  0  1  0  0  3  0  0  0  0  0  0
  186.4760  177.2270  144.2610 O   0  0  0  0  0  1  0  0  0  0  0  0
  186.5160  177.6070  145.6060 C   0  0  2  0  0  3  0  0  0  0  0  0
  185.5450  178.7500  145.8810 C   0  0  0  0  0  2  0  0  0  0  0  0
  184.8820  178.5610  147.0960 O   0  0  0  0  0  1  0  0  0  0  0  0
  188.4800  177.7230  148.2130 C   0  0  0  0  0  1  0  0  0  0  0  0
  188.3630  176.9900  147.0310 O   0  0  0  0  0  0  0  0  0  0  0  0
  1 24  1  0  0  0  0
  2  1  1  0  0  0  0
  2  8  1  0  0  0  0
  3  9  2  0  0  0  0
  4  8  2  0  0  0  0
  5  7  1  0  0  0  0
  6 13  1  1  0  0  0
  6  4  1  0  0  0  0
  7  1  2  0  0  0  0
  9 11  1  0  0  0  0
  9  6  1  0  0  0  0
 10  5  2  0  0  0  0
 10 11  1  0  0  0  0
 11  2  2  0  0  0  0
 12 16  1  0  0  0  0
 13 20  1  0  0  0  0
 14 19  1  0  0  0  0
 15 18  1  1  0  0  0
 15 12  1  0  0  0  0
 17 16  1  0  0  0  0
 19 15  1  0  0  0  0
 19 17  1  1  0  0  0
 20 18  1  0  0  0  0
 20 14  2  0  0  0  0
 21 22  1  0  0  0  0
 22 25  2  0  0  0  0
 22 26  1  0  0  0  0
 24 23  2  0  0  0  0
 24 21  1  0  0  0  0
 26 27  1  0  0  0  0
 27 28  1  0  0  0  0
 29 28  1  6  0  0  0
 29 35  1  0  0  0  0
 31 30  1  6  0  0  0
 31 32  1  0  0  0  0
 31 29  1  0  0  0  0
 32 33  1  0  0  0  0
 35 34  1  0  0  0  0
M  END
>  <MODEL>
4

>  <REMARK>
 VINA RESULT:      -7.2      2.358      6.946
  Name = 
  9 active torsions:
  status: ('A' for Active; 'I' for Inactive)
    1  A    between atoms: C_1  and  C_24
    2  A    between atoms: C_6  and  C_10
    3  A    between atoms: C_6  and  C_12
    4  A    between atoms: N_8  and  C_17
    5  A    between atoms: C_10  and  C_19
    6  A    between atoms: C_11  and  C_12
    7  A    between atoms: C_11  and  C_32
    8  A    between atoms: C_11  and  O_35
    9  A    between atoms: C_13  and  C_32
                            x       y       z     vdW  Elec       q    Type
                         _______ _______ _______ _____ _____    ______ ____

>  <TORSDO>
F 9

$$$$
=
 OpenBabel10232409413D

 35 38  0  0  1  0  0  0  0  0999 V2000
  188.8830  177.4320  144.1870 C   0  0  0  0  0  0  0  0  0  0  0  0
  189.2540  177.6080  142.8290 C   0  0  0  0  0  0  0  0  0  0  0  0
  192.1820  177.3710  140.6990 O   0  0  0  0  0  0  0  0  0  0  0  0
  188.6450  178.2460  140.5280 C   0  0  0  0  0  3  0  0  0  0  0  0
  191.1270  176.6340  144.6440 C   0  0  0  0  0  3  0  0  0  0  0  0
  189.9280  177.6970  139.9630 C   0  0  1  0  0  3  0  0  0  0  0  0
  189.8400  176.9380  145.0820 C   0  0  0  0  0  3  0  0  0  0  0  0
  188.3290  178.1730  141.8240 C   0  0  0  0  0  3  0  0  0  0  0  0
  190.9680  177.4610  141.0260 C   0  0  0  0  0  0  0  0  0  0  0  0
  191.4610  176.8120  143.3410 N   0  0  0  0  0  0  0  0  0  0  0  0
  190.5650  177.2810  142.4320 C   0  0  0  0  0  0  0  0  0  0  0  0
  186.9730  175.7310  135.6440 O   0  0  0  0  0  0  0  0  0  0  0  0
  189.6450  176.4490  139.2650 N   0  0  0  0  0  2  0  0  0  0  0  0
  189.1820  177.4580  137.1640 N   0  0  0  0  0  0  0  0  0  0  0  0
  188.3740  175.7830  135.6390 C   0  0  2  0  0  3  0  0  0  0  0  0
  186.5560  176.9520  135.0940 C   0  0  0  0  0  2  0  0  0  0  0  0
  187.5640  178.0140  135.4670 C   0  0  0  0  0  2  0  0  0  0  0  0
  189.0300  174.8430  137.0560 S   0  0  0  0  0  0  0  0  0  0  0  0
  188.8070  177.2350  135.7810 C   0  0  1  0  0  3  0  0  0  0  0  0
  189.3340  176.3930  137.8710 C   0  0  0  0  0  0  0  0  0  0  0  0
  186.4740  178.0730  143.8060 N   0  0  0  0  0  2  0  0  0  0  0  0
  185.1250  178.3870  144.1730 C   0  0  0  0  0  0  0  0  0  0  0  0
  187.3050  177.7310  145.9590 O   0  0  0  0  0  0  0  0  0  0  0  0
  187.5300  177.7450  144.7190 C   0  0  0  0  0  0  0  0  0  0  0  0
  184.7650  178.3910  145.3810 O   0  0  0  0  0  0  0  0  0  0  0  0
  184.1470  178.7480  143.1140 C   0  0  0  0  0  2  0  0  0  0  0  0
  184.5360  178.0830  141.8100 C   0  0  0  0  0  2  0  0  0  0  0  0
  184.7910  179.1450  140.7550 C   0  0  0  0  0  2  0  0  0  0  0  0
  183.8810  178.9860  139.5310 C   0  0  1  0  0  3  0  0  0  0  0  0
  184.3240  177.4310  137.7140 O   0  0  0  0  0  1  0  0  0  0  0  0
  183.7840  177.5500  138.9970 C   0  0  2  0  0  3  0  0  0  0  0  0
  182.3650  176.9960  139.0480 C   0  0  0  0  0  2  0  0  0  0  0  0
  182.3670  175.6410  139.3880 O   0  0  0  0  0  1  0  0  0  0  0  0
  182.4180  180.4830  138.8040 C   0  0  0  0  0  1  0  0  0  0  0  0
  182.6080  179.5050  139.7820 O   0  0  0  0  0  0  0  0  0  0  0  0
  1 24  1  0  0  0  0
  1  7  1  0  0  0  0
  2  1  2  0  0  0  0
  3  9  2  0  0  0  0
  4  8  2  0  0  0  0
  5  7  2  0  0  0  0
  6 13  1  1  0  0  0
  6  4  1  0  0  0  0
  6  9  1  0  0  0  0
  8  2  1  0  0  0  0
  9 11  1  0  0  0  0
 10  5  1  0  0  0  0
 11  2  1  0  0  0  0
 11 10  2  0  0  0  0
 14 20  2  0  0  0  0
 15 12  1  1  0  0  0
 15 19  1  0  0  0  0
 15 18  1  0  0  0  0
 16 17  1  0  0  0  0
 16 12  1  0  0  0  0
 18 20  1  0  0  0  0
 19 17  1  1  0  0  0
 19 14  1  0  0  0  0
 20 13  1  0  0  0  0
 21 22  1  0  0  0  0
 21 24  1  0  0  0  0
 22 25  2  0  0  0  0
 24 23  2  0  0  0  0
 26 22  1  0  0  0  0
 27 26  1  0  0  0  0
 28 27  1  0  0  0  0
 29 35  1  0  0  0  0
 29 28  1  1  0  0  0
 31 30  1  6  0  0  0
 31 32  1  0  0  0  0
 31 29  1  0  0  0  0
 32 33  1  0  0  0  0
 34 35  1  0  0  0  0
M  END
>  <MODEL>
5

>  <REMARK>
 VINA RESULT:      -7.1      0.937      1.363
  Name = 
  9 active torsions:
  status: ('A' for Active; 'I' for Inactive)
    1  A    between atoms: C_1  and  C_24
    2  A    between atoms: C_6  and  C_10
    3  A    between atoms: C_6  and  C_12
    4  A    between atoms: N_8  and  C_17
    5  A    between atoms: C_10  and  C_19
    6  A    between atoms: C_11  and  C_12
    7  A    between atoms: C_11  and  C_32
    8  A    between atoms: C_11  and  O_35
    9  A    between atoms: C_13  and  C_32
                            x       y       z     vdW  Elec       q    Type
                         _______ _______ _______ _____ _____    ______ ____

>  <TORSDO>
F 9

$$$$
=
 OpenBabel10232409413D

 35 38  0  0  1  0  0  0  0  0999 V2000
  189.3850  177.2730  137.4200 C   0  0  0  0  0  0  0  0  0  0  0  0
  190.5610  176.5050  137.2190 C   0  0  0  0  0  0  0  0  0  0  0  0
  192.0820  174.3640  134.7150 O   0  0  0  0  0  0  0  0  0  0  0  0
  192.7040  175.6400  138.0760 C   0  0  0  0  0  3  0  0  0  0  0  0
  188.7210  176.7590  135.1450 C   0  0  0  0  0  3  0  0  0  0  0  0
  193.1310  175.1570  136.7150 C   0  0  1  0  0  3  0  0  0  0  0  0
  188.4750  177.3910  136.3630 C   0  0  0  0  0  3  0  0  0  0  0  0
  191.5510  176.2800  138.2930 C   0  0  0  0  0  3  0  0  0  0  0  0
  191.9820  175.0840  135.7450 C   0  0  0  0  0  0  0  0  0  0  0  0
  189.8510  176.0260  134.9760 N   0  0  0  0  0  0  0  0  0  0  0  0
  190.7680  175.8890  135.9690 C   0  0  0  0  0  0  0  0  0  0  0  0
  198.6620  175.4050  135.9390 O   0  0  0  0  0  0  0  0  0  0  0  0
  194.1580  176.0510  136.1950 N   0  0  0  0  0  2  0  0  0  0  0  0
  195.6790  174.3300  135.5890 N   0  0  0  0  0  0  0  0  0  0  0  0
  197.7530  175.3170  134.8750 C   0  0  2  0  0  3  0  0  0  0  0  0
  198.9840  174.0780  136.2600 C   0  0  0  0  0  2  0  0  0  0  0  0
  197.7770  173.2120  135.9850 C   0  0  0  0  0  2  0  0  0  0  0  0
  196.5790  176.7080  134.9520 S   0  0  0  0  0  0  0  0  0  0  0  0
  196.9720  174.0180  135.0090 C   0  0  1  0  0  3  0  0  0  0  0  0
  195.3710  175.5800  135.6040 C   0  0  0  0  0  0  0  0  0  0  0  0
  188.8970  177.1920  139.8930 N   0  0  0  0  0  2  0  0  0  0  0  0
  188.5920  177.7210  141.1890 C   0  0  0  0  0  0  0  0  0  0  0  0
  188.9240  179.2170  138.7340 O   0  0  0  0  0  0  0  0  0  0  0  0
  189.0610  177.9650  138.6960 C   0  0  0  0  0  0  0  0  0  0  0  0
  188.4460  178.9600  141.3670 O   0  0  0  0  0  0  0  0  0  0  0  0
  188.4100  176.7890  142.3330 C   0  0  0  0  0  2  0  0  0  0  0  0
  188.1730  177.5790  143.6030 C   0  0  0  0  0  2  0  0  0  0  0  0
  189.0200  177.0020  144.7250 C   0  0  0  0  0  2  0  0  0  0  0  0
  190.3620  177.7280  144.8800 C   0  0  1  0  0  3  0  0  0  0  0  0
  191.4850  175.8600  143.8000 O   0  0  0  0  0  1  0  0  0  0  0  0
  191.5890  176.8070  144.8230 C   0  0  2  0  0  3  0  0  0  0  0  0
  191.8870  176.1390  146.1600 C   0  0  0  0  0  2  0  0  0  0  0  0
  191.6210  177.0050  147.2230 O   0  0  0  0  0  1  0  0  0  0  0  0
  191.7830  179.2420  144.1080 C   0  0  0  0  0  1  0  0  0  0  0  0
  190.4810  178.7650  143.9500 O   0  0  0  0  0  0  0  0  0  0  0  0
  1 24  1  0  0  0  0
  2  1  1  0  0  0  0
  2  8  1  0  0  0  0
  3  9  2  0  0  0  0
  4  8  2  0  0  0  0
  5  7  1  0  0  0  0
  6 13  1  6  0  0  0
  6  4  1  0  0  0  0
  7  1  2  0  0  0  0
  9 11  1  0  0  0  0
  9  6  1  0  0  0  0
 10  5  2  0  0  0  0
 10 11  1  0  0  0  0
 11  2  2  0  0  0  0
 12 16  1  0  0  0  0
 14 20  2  0  0  0  0
 15 18  1  1  0  0  0
 15 19  1  0  0  0  0
 15 12  1  0  0  0  0
 17 16  1  0  0  0  0
 18 20  1  0  0  0  0
 19 14  1  0  0  0  0
 19 17  1  1  0  0  0
 20 13  1  0  0  0  0
 21 22  1  0  0  0  0
 22 25  2  0  0  0  0
 22 26  1  0  0  0  0
 24 23  2  0  0  0  0
 24 21  1  0  0  0  0
 26 27  1  0  0  0  0
 27 28  1  0  0  0  0
 29 28  1  6  0  0  0
 31 30  1  6  0  0  0
 31 29  1  0  0  0  0
 31 32  1  0  0  0  0
 32 33  1  0  0  0  0
 35 34  1  0  0  0  0
 35 29  1  0  0  0  0
M  END
>  <MODEL>
6

>  <REMARK>
 VINA RESULT:      -7.0      4.362      7.717
  Name = 
  9 active torsions:
  status: ('A' for Active; 'I' for Inactive)
    1  A    between atoms: C_1  and  C_24
    2  A    between atoms: C_6  and  C_10
    3  A    between atoms: C_6  and  C_12
    4  A    between atoms: N_8  and  C_17
    5  A    between atoms: C_10  and  C_19
    6  A    between atoms: C_11  and  C_12
    7  A    between atoms: C_11  and  C_32
    8  A    between atoms: C_11  and  O_35
    9  A    between atoms: C_13  and  C_32
                            x       y       z     vdW  Elec       q    Type
                         _______ _______ _______ _____ _____    ______ ____

>  <TORSDO>
F 9

$$$$
=
 OpenBabel10232409413D

 35 38  0  0  1  0  0  0  0  0999 V2000
  189.5310  175.2140  136.8010 C   0  0  0  0  0  0  0  0  0  0  0  0
  189.3780  176.1970  137.8130 C   0  0  0  0  0  0  0  0  0  0  0  0
  187.0130  178.7320  138.8850 O   0  0  0  0  0  0  0  0  0  0  0  0
  190.2860  177.3860  139.7720 C   0  0  0  0  0  3  0  0  0  0  0  0
  187.2940  175.7380  136.0260 C   0  0  0  0  0  3  0  0  0  0  0  0
  188.9590  178.0220  140.0870 C   0  0  1  0  0  3  0  0  0  0  0  0
  188.4690  174.9980  135.9150 C   0  0  0  0  0  3  0  0  0  0  0  0
  190.4640  176.5330  138.7590 C   0  0  0  0  0  3  0  0  0  0  0  0
  187.9960  177.9440  138.9310 C   0  0  0  0  0  0  0  0  0  0  0  0
  187.1700  176.6750  137.0000 N   0  0  0  0  0  0  0  0  0  0  0  0
  188.1700  176.9170  137.8890 C   0  0  0  0  0  0  0  0  0  0  0  0
  190.3070  176.4750  145.2860 O   0  0  0  0  0  0  0  0  0  0  0  0
  188.3820  177.3670  141.2540 N   0  0  0  0  0  2  0  0  0  0  0  0
  189.7730  178.4540  142.8430 N   0  0  0  0  0  0  0  0  0  0  0  0
  189.3900  177.5020  145.0170 C   0  0  2  0  0  3  0  0  0  0  0  0
  191.5540  177.1090  145.3840 C   0  0  0  0  0  2  0  0  0  0  0  0
  191.5600  178.2980  144.4520 C   0  0  0  0  0  2  0  0  0  0  0  0
  188.0330  176.8600  143.9840 S   0  0  0  0  0  0  0  0  0  0  0  0
  190.1050  178.6010  144.2470 C   0  0  1  0  0  3  0  0  0  0  0  0
  188.7900  177.6610  142.5910 C   0  0  0  0  0  0  0  0  0  0  0  0
  191.8510  174.9230  135.8560 N   0  0  0  0  0  2  0  0  0  0  0  0
  193.0930  174.2540  135.6090 C   0  0  0  0  0  0  0  0  0  0  0  0
  190.8510  173.2490  137.1370 O   0  0  0  0  0  0  0  0  0  0  0  0
  190.7600  174.3970  136.6250 C   0  0  0  0  0  0  0  0  0  0  0  0
  193.3180  173.1070  136.0800 O   0  0  0  0  0  0  0  0  0  0  0  0
  194.1180  174.9110  134.7550 C   0  0  0  0  0  2  0  0  0  0  0  0
  194.8900  175.9260  135.5730 C   0  0  0  0  0  2  0  0  0  0  0  0
  196.3230  175.4510  135.7490 C   0  0  0  0  0  2  0  0  0  0  0  0
  196.4900  174.5300  136.9630 C   0  0  1  0  0  3  0  0  0  0  0  0
  198.3630  175.5020  138.1720 O   0  0  0  0  0  1  0  0  0  0  0  0
  197.9380  174.3830  137.4500 C   0  0  2  0  0  3  0  0  0  0  0  0
  198.9100  174.0580  136.3210 C   0  0  0  0  0  2  0  0  0  0  0  0
  199.7630  175.1350  136.0680 O   0  0  0  0  0  1  0  0  0  0  0  0
  195.4470  173.7670  138.7620 C   0  0  0  0  0  1  0  0  0  0  0  0
  195.6550  174.9260  138.0120 O   0  0  0  0  0  0  0  0  0  0  0  0
  1  2  1  0  0  0  0
  2 11  2  0  0  0  0
  2  8  1  0  0  0  0
  3  9  2  0  0  0  0
  4  6  1  0  0  0  0
  5 10  2  0  0  0  0
  6 13  1  1  0  0  0
  7  5  1  0  0  0  0
  7  1  2  0  0  0  0
  8  4  2  0  0  0  0
  9  6  1  0  0  0  0
 10 11  1  0  0  0  0
 11  9  1  0  0  0  0
 12 16  1  0  0  0  0
 13 20  1  0  0  0  0
 14 19  1  0  0  0  0
 15 18  1  6  0  0  0
 15 12  1  0  0  0  0
 17 16  1  0  0  0  0
 19 17  1  6  0  0  0
 19 15  1  0  0  0  0
 20 14  2  0  0  0  0
 20 18  1  0  0  0  0
 21 24  1  0  0  0  0
 22 21  1  0  0  0  0
 22 25  2  0  0  0  0
 24  1  1  0  0  0  0
 24 23  2  0  0  0  0
 26 27  1  0  0  0  0
 26 22  1  0  0  0  0
 27 28  1  0  0  0  0
 29 28  1  6  0  0  0
 29 31  1  0  0  0  0
 29 35  1  0  0  0  0
 31 30  1  6  0  0  0
 32 31  1  0  0  0  0
 33 32  1  0  0  0  0
 35 34  1  0  0  0  0
M  END
>  <MODEL>
7

>  <REMARK>
 VINA RESULT:      -6.7      4.404     10.019
  Name = 
  9 active torsions:
  status: ('A' for Active; 'I' for Inactive)
    1  A    between atoms: C_1  and  C_24
    2  A    between atoms: C_6  and  C_10
    3  A    between atoms: C_6  and  C_12
    4  A    between atoms: N_8  and  C_17
    5  A    between atoms: C_10  and  C_19
    6  A    between atoms: C_11  and  C_12
    7  A    between atoms: C_11  and  C_32
    8  A    between atoms: C_11  and  O_35
    9  A    between atoms: C_13  and  C_32
                            x       y       z     vdW  Elec       q    Type
                         _______ _______ _______ _____ _____    ______ ____

>  <TORSDO>
F 9

$$$$
=
 OpenBabel10232409413D

 35 38  0  0  1  0  0  0  0  0999 V2000
  187.1710  178.4490  140.7360 C   0  0  0  0  0  0  0  0  0  0  0  0
  186.5520  178.2470  139.4760 C   0  0  0  0  0  0  0  0  0  0  0  0
  187.4410  177.8070  135.9860 O   0  0  0  0  0  0  0  0  0  0  0  0
  184.4980  178.0380  138.1300 C   0  0  0  0  0  3  0  0  0  0  0  0
  189.3290  178.1830  139.6610 C   0  0  0  0  0  3  0  0  0  0  0  0
  185.2560  177.5420  136.9270 C   0  0  1  0  0  3  0  0  0  0  0  0
  188.5700  178.4090  140.8070 C   0  0  0  0  0  3  0  0  0  0  0  0
  185.0870  178.3250  139.2940 C   0  0  0  0  0  3  0  0  0  0  0  0
  186.7340  177.8090  137.0290 C   0  0  0  0  0  0  0  0  0  0  0  0
  188.7160  177.9950  138.4650 N   0  0  0  0  0  0  0  0  0  0  0  0
  187.3610  178.0160  138.3470 C   0  0  0  0  0  0  0  0  0  0  0  0
  181.0960  173.8080  136.9760 O   0  0  0  0  0  0  0  0  0  0  0  0
  185.0230  176.1110  136.7750 N   0  0  0  0  0  2  0  0  0  0  0  0
  182.7920  176.3210  135.9860 N   0  0  0  0  0  0  0  0  0  0  0  0
  181.8020  174.1370  135.8090 C   0  0  2  0  0  3  0  0  0  0  0  0
  180.0110  174.6940  137.0130 C   0  0  0  0  0  2  0  0  0  0  0  0
  180.4370  175.9990  136.3820 C   0  0  0  0  0  2  0  0  0  0  0  0
  183.5800  173.8230  136.0570 S   0  0  0  0  0  0  0  0  0  0  0  0
  181.6090  175.6190  135.5270 C   0  0  1  0  0  3  0  0  0  0  0  0
  183.8050  175.5740  136.2560 C   0  0  0  0  0  0  0  0  0  0  0  0
  186.7690  177.9760  143.1800 N   0  0  0  0  0  2  0  0  0  0  0  0
  186.1390  178.1210  144.4590 C   0  0  0  0  0  0  0  0  0  0  0  0
  185.4800  179.5410  142.0260 O   0  0  0  0  0  0  0  0  0  0  0  0
  186.4190  178.7030  141.9940 C   0  0  0  0  0  0  0  0  0  0  0  0
  185.1960  178.9390  144.6300 O   0  0  0  0  0  0  0  0  0  0  0  0
  186.5830  177.2660  145.5910 C   0  0  0  0  0  2  0  0  0  0  0  0
  187.9480  177.7170  146.0670 C   0  0  0  0  0  2  0  0  0  0  0  0
  189.0250  176.9160  145.3560 C   0  0  0  0  0  2  0  0  0  0  0  0
  190.3420  177.6910  145.2250 C   0  0  1  0  0  3  0  0  0  0  0  0
  191.5970  175.9320  144.1080 O   0  0  0  0  0  1  0  0  0  0  0  0
  191.5960  176.8060  145.1980 C   0  0  2  0  0  3  0  0  0  0  0  0
  191.8120  176.0520  146.5060 C   0  0  0  0  0  2  0  0  0  0  0  0
  191.7670  176.9200  147.5990 O   0  0  0  0  0  1  0  0  0  0  0  0
  191.5690  179.1540  144.1020 C   0  0  0  0  0  1  0  0  0  0  0  0
  190.3150  178.5410  144.1150 O   0  0  0  0  0  0  0  0  0  0  0  0
  1  7  1  0  0  0  0
  1 24  1  0  0  0  0
  2  1  2  0  0  0  0
  3  9  2  0  0  0  0
  4  8  2  0  0  0  0
  5  7  2  0  0  0  0
  6 13  1  1  0  0  0
  6  9  1  0  0  0  0
  6  4  1  0  0  0  0
  8  2  1  0  0  0  0
  9 11  1  0  0  0  0
 10  5  1  0  0  0  0
 11 10  2  0  0  0  0
 11  2  1  0  0  0  0
 12 16  1  0  0  0  0
 14 20  2  0  0  0  0
 15 18  1  1  0  0  0
 15 12  1  0  0  0  0
 17 16  1  0  0  0  0
 18 20  1  0  0  0  0
 19 15  1  0  0  0  0
 19 14  1  0  0  0  0
 19 17  1  1  0  0  0
 20 13  1  0  0  0  0
 21 22  1  0  0  0  0
 22 25  2  0  0  0  0
 22 26  1  0  0  0  0
 24 23  2  0  0  0  0
 24 21  1  0  0  0  0
 26 27  1  0  0  0  0
 28 27  1  0  0  0  0
 29 28  1  6  0  0  0
 31 30  1  6  0  0  0
 31 29  1  0  0  0  0
 31 32  1  0  0  0  0
 32 33  1  0  0  0  0
 34 35  1  0  0  0  0
 35 29  1  0  0  0  0
M  END
>  <MODEL>
8

>  <REMARK>
 VINA RESULT:      -6.7      3.188      6.727
  Name = 
  9 active torsions:
  status: ('A' for Active; 'I' for Inactive)
    1  A    between atoms: C_1  and  C_24
    2  A    between atoms: C_6  and  C_10
    3  A    between atoms: C_6  and  C_12
    4  A    between atoms: N_8  and  C_17
    5  A    between atoms: C_10  and  C_19
    6  A    between atoms: C_11  and  C_12
    7  A    between atoms: C_11  and  C_32
    8  A    between atoms: C_11  and  O_35
    9  A    between atoms: C_13  and  C_32
                            x       y       z     vdW  Elec       q    Type
                         _______ _______ _______ _____ _____    ______ ____

>  <TORSDO>
F 9

$$$$
=
 OpenBabel10232409413D

 35 38  0  0  1  0  0  0  0  0999 V2000
  189.6110  175.3000  135.9800 C   0  0  0  0  0  0  0  0  0  0  0  0
  189.8390  176.1210  137.1140 C   0  0  0  0  0  0  0  0  0  0  0  0
  188.9070  179.3760  138.4170 O   0  0  0  0  0  0  0  0  0  0  0  0
  190.9710  176.4920  139.2720 C   0  0  0  0  0  3  0  0  0  0  0  0
  188.0260  176.9480  135.1700 C   0  0  0  0  0  3  0  0  0  0  0  0
  190.0980  177.6720  139.6050 C   0  0  1  0  0  3  0  0  0  0  0  0
  188.6930  175.7340  135.0150 C   0  0  0  0  0  3  0  0  0  0  0  0
  190.8280  175.7710  138.1560 C   0  0  0  0  0  3  0  0  0  0  0  0
  189.3660  178.2020  138.4010 C   0  0  0  0  0  0  0  0  0  0  0  0
  188.2620  177.7180  136.2630 N   0  0  0  0  0  0  0  0  0  0  0  0
  189.1370  177.3370  137.2300 C   0  0  0  0  0  0  0  0  0  0  0  0
  189.8360  176.5400  145.0730 O   0  0  0  0  0  0  0  0  0  0  0  0
  189.1400  177.2800  140.6310 N   0  0  0  0  0  2  0  0  0  0  0  0
  190.3160  178.2740  142.4400 N   0  0  0  0  0  0  0  0  0  0  0  0
  189.2440  177.6790  144.5080 C   0  0  2  0  0  3  0  0  0  0  0  0
  191.1300  176.9390  145.4380 C   0  0  0  0  0  2  0  0  0  0  0  0
  191.6020  177.9860  144.4560 C   0  0  0  0  0  2  0  0  0  0  0  0
  188.0630  177.1800  143.2120 S   0  0  0  0  0  0  0  0  0  0  0  0
  190.3330  178.5260  143.8680 C   0  0  1  0  0  3  0  0  0  0  0  0
  189.2760  177.6530  142.0040 C   0  0  0  0  0  0  0  0  0  0  0  0
  191.6880  173.9880  135.4120 N   0  0  0  0  0  2  0  0  0  0  0  0
  192.4750  172.8150  135.1730 C   0  0  0  0  0  0  0  0  0  0  0  0
  189.6630  172.9140  135.8480 O   0  0  0  0  0  0  0  0  0  0  0  0
  190.2940  173.9990  135.7520 C   0  0  0  0  0  0  0  0  0  0  0  0
  191.9680  171.6640  135.2540 O   0  0  0  0  0  0  0  0  0  0  0  0
  193.9040  172.9610  134.7890 C   0  0  0  0  0  2  0  0  0  0  0  0
  194.7890  172.4880  135.9230 C   0  0  0  0  0  2  0  0  0  0  0  0
  196.0420  173.3450  135.9800 C   0  0  0  0  0  2  0  0  0  0  0  0
  195.8110  174.6740  136.7100 C   0  0  1  0  0  3  0  0  0  0  0  0
  194.2490  175.6310  138.3100 O   0  0  0  0  0  1  0  0  0  0  0  0
  195.0810  174.5380  138.0540 C   0  0  2  0  0  3  0  0  0  0  0  0
  196.0330  174.2880  139.2190 C   0  0  0  0  0  2  0  0  0  0  0  0
  196.0940  175.4000  140.0620 O   0  0  0  0  0  1  0  0  0  0  0  0
  197.7870  175.0110  135.7680 C   0  0  0  0  0  1  0  0  0  0  0  0
  197.0100  175.3740  136.8690 O   0  0  0  0  0  0  0  0  0  0  0  0
  1  2  1  0  0  0  0
  2 11  2  0  0  0  0
  2  8  1  0  0  0  0
  4  6  1  0  0  0  0
  5 10  2  0  0  0  0
  6 13  1  1  0  0  0
  7  5  1  0  0  0  0
  7  1  2  0  0  0  0
  8  4  2  0  0  0  0
  9  3  2  0  0  0  0
  9  6  1  0  0  0  0
 10 11  1  0  0  0  0
 11  9  1  0  0  0  0
 12 16  1  0  0  0  0
 13 20  1  0  0  0  0
 14 19  1  0  0  0  0
 15 18  1  6  0  0  0
 15 12  1  0  0  0  0
 17 16  1  0  0  0  0
 19 17  1  1  0  0  0
 19 15  1  0  0  0  0
 20 14  2  0  0  0  0
 20 18  1  0  0  0  0
 21 24  1  0  0  0  0
 22 25  2  0  0  0  0
 22 21  1  0  0  0  0
 24 23  2  0  0  0  0
 24  1  1  0  0  0  0
 26 22  1  0  0  0  0
 26 27  1  0  0  0  0
 27 28  1  0  0  0  0
 29 28  1  1  0  0  0
 29 35  1  0  0  0  0
 29 31  1  0  0  0  0
 31 30  1  1  0  0  0
 31 32  1  0  0  0  0
 32 33  1  0  0  0  0
 34 35  1  0  0  0  0
M  END
>  <MODEL>
9

>  <REMARK>
 VINA RESULT:      -6.7      3.874      9.829
  Name = 
  9 active torsions:
  status: ('A' for Active; 'I' for Inactive)
    1  A    between atoms: C_1  and  C_24
    2  A    between atoms: C_6  and  C_10
    3  A    between atoms: C_6  and  C_12
    4  A    between atoms: N_8  and  C_17
    5  A    between atoms: C_10  and  C_19
    6  A    between atoms: C_11  and  C_12
    7  A    between atoms: C_11  and  C_32
    8  A    between atoms: C_11  and  O_35
    9  A    between atoms: C_13  and  C_32
                            x       y       z     vdW  Elec       q    Type
                         _______ _______ _______ _____ _____    ______ ____

>  <TORSDO>
F 9

$$$$
