=
 OpenBabel10232409353D

 33 36  0  0  1  0  0  0  0  0999 V2000
  184.4520  179.0230  143.2160 C   0  0  0  0  0  3  0  0  0  0  0  0
  186.7300  177.9840  141.0790 C   0  0  0  0  0  2  0  0  0  0  0  0
  187.7410  178.0890  142.2230 C   0  0  1  0  0  3  0  0  0  0  0  0
  185.4070  178.4600  143.8930 C   0  0  0  0  0  0  0  0  0  0  0  0
  187.3580  177.1790  143.3930 C   0  0  0  0  0  2  0  0  0  0  0  0
  186.4700  177.8870  144.3740 C   0  0  0  0  0  0  0  0  0  0  0  0
  184.4230  178.8090  141.7350 C   0  0  0  0  0  2  0  0  0  0  0  0
  185.7570  179.1670  141.0700 C   0  0  0  0  0  2  0  0  0  0  0  0
  190.1220  177.5750  142.5400 N   0  0  0  0  0  0  0  0  0  0  0  0
  191.3080  177.3130  141.7290 C   0  0  0  0  0  3  0  0  0  0  0  0
  189.5150  177.6560  140.3590 C   0  0  0  0  0  0  0  0  0  0  0  0
  189.1190  177.7590  141.7500 C   0  0  2  0  0  3  0  0  0  0  0  0
  190.8070  177.3860  140.3170 C   0  0  0  0  0  3  0  0  0  0  0  0
  188.6150  176.5150  138.3810 C   0  0  0  0  0  3  0  0  0  0  0  0
  187.3470  178.6880  136.6210 C   0  0  0  0  0  3  0  0  0  0  0  0
  187.8670  176.3460  137.2940 C   0  0  0  0  0  3  0  0  0  0  0  0
  188.5030  179.2970  137.2200 N   0  0  0  0  0  0  0  0  0  0  0  0
  188.6390  177.7900  139.1540 C   0  0  2  0  0  3  0  0  0  0  0  0
  187.0190  177.3860  136.6640 C   0  0  0  0  0  0  0  0  0  0  0  0
  189.1130  178.9210  138.3030 C   0  0  0  0  0  3  0  0  0  0  0  0
  185.8570  176.9880  135.9330 N   0  0  0  0  0  2  0  0  0  0  0  0
  184.5300  177.1590  136.4280 C   0  0  0  0  0  3  0  0  0  0  0  0
  184.2820  177.0190  137.7200 C   0  0  0  0  0  2  0  0  0  0  0  0
  185.7700  177.8870  146.6570 O   0  0  0  0  0  1  0  0  0  0  0  0
  186.8630  178.0970  145.8110 C   0  0  1  0  0  3  0  0  0  0  0  0
  188.7000  178.5650  148.0100 O   0  0  0  0  0  0  0  0  0  0  0  0
  188.8180  177.4990  147.3490 C   0  0  0  0  0  0  0  0  0  0  0  0
  187.9860  177.2490  146.2100 N   0  0  0  0  0  2  0  0  0  0  0  0
  189.7950  176.4680  147.7930 C   0  0  0  0  0  2  0  0  0  0  0  0
  192.3750  175.4300  146.2560 C   0  0  0  0  0  2  0  0  0  0  0  0
  191.1940  176.8580  147.3420 C   0  0  0  0  0  3  0  0  0  0  0  0
  192.1770  175.7670  147.7200 C   0  0  0  0  0  2  0  0  0  0  0  0
  191.3850  176.5160  145.8790 C   0  0  0  0  0  2  0  0  0  0  0  0
  1  4  2  0  0  0  0
  3  2  1  6  0  0  0
  3  5  1  0  0  0  0
  4  6  2  0  0  0  0
  5  6  1  0  0  0  0
  6 25  1  0  0  0  0
  7  1  1  0  0  0  0
  8  2  1  0  0  0  0
  8  7  1  0  0  0  0
 10  9  2  0  0  0  0
 12 11  1  6  0  0  0
 12  3  1  0  0  0  0
 12  9  1  0  0  0  0
 13 11  2  0  0  0  0
 13 10  1  0  0  0  0
 14 18  1  0  0  0  0
 15 19  2  0  0  0  0
 15 17  1  0  0  0  0
 16 14  2  0  0  0  0
 17 20  2  0  0  0  0
 18 11  1  1  0  0  0
 19 16  1  0  0  0  0
 20 18  1  0  0  0  0
 21 22  1  0  0  0  0
 21 19  1  0  0  0  0
 22 23  2  0  0  0  0
 25 28  1  0  0  0  0
 25 24  1  1  0  0  0
 27 29  1  0  0  0  0
 27 26  2  0  0  0  0
 28 27  1  0  0  0  0
 30 32  1  0  0  0  0
 31 32  1  0  0  0  0
 31 29  1  0  0  0  0
 33 30  1  0  0  0  0
 33 31  1  0  0  0  0
M  END
>  <MODEL>
1

>  <REMARK>
 VINA RESULT:      -8.6      0.000      0.000
  Name = 
  8 active torsions:
  status: ('A' for Active; 'I' for Inactive)
    1  A    between atoms: C_7  and  C_18
    2  A    between atoms: N_8  and  C_16
    3  A    between atoms: N_8  and  C_26
    4  A    between atoms: C_12  and  C_27
    5  A    between atoms: C_14  and  C_31
    6  A    between atoms: C_19  and  N_23
    7  A    between atoms: C_19  and  C_24
    8  A    between atoms: C_21  and  C_31
                            x       y       z     vdW  Elec       q    Type
                         _______ _______ _______ _____ _____    ______ ____

>  <TORSDO>
F 8

$$$$
=
 OpenBabel10232409353D

 33 36  0  0  1  0  0  0  0  0999 V2000
  184.5040  178.2670  146.1580 C   0  0  0  0  0  3  0  0  0  0  0  0
  187.1720  178.5600  144.2540 C   0  0  0  0  0  2  0  0  0  0  0  0
  186.2510  178.3160  143.0560 C   0  0  1  0  0  3  0  0  0  0  0  0
  184.1120  178.6440  144.9780 C   0  0  0  0  0  0  0  0  0  0  0  0
  185.1590  179.3840  142.9640 C   0  0  0  0  0  2  0  0  0  0  0  0
  183.9350  178.9880  143.7360 C   0  0  0  0  0  0  0  0  0  0  0  0
  185.9640  178.3590  146.4740 C   0  0  0  0  0  2  0  0  0  0  0  0
  186.8300  177.6430  145.4310 C   0  0  0  0  0  2  0  0  0  0  0  0
  186.5460  178.6050  140.6340 N   0  0  0  0  0  0  0  0  0  0  0  0
  187.5750  178.3980  139.6190 C   0  0  0  0  0  3  0  0  0  0  0  0
  188.3980  177.8040  141.6640 C   0  0  0  0  0  0  0  0  0  0  0  0
  187.0300  178.2710  141.7820 C   0  0  2  0  0  3  0  0  0  0  0  0
  188.7490  177.8740  140.3920 C   0  0  0  0  0  3  0  0  0  0  0  0
  190.1910  178.4600  143.2060 C   0  0  0  0  0  3  0  0  0  0  0  0
  191.2650  175.8670  144.4510 C   0  0  0  0  0  3  0  0  0  0  0  0
  191.0520  178.3380  144.2130 C   0  0  0  0  0  3  0  0  0  0  0  0
  190.9240  175.5360  143.0930 N   0  0  0  0  0  0  0  0  0  0  0  0
  189.3000  177.3480  142.7660 C   0  0  2  0  0  3  0  0  0  0  0  0
  191.2990  177.0970  144.9860 C   0  0  0  0  0  0  0  0  0  0  0  0
  190.0980  176.1700  142.3170 C   0  0  0  0  0  3  0  0  0  0  0  0
  191.7380  177.1990  146.3430 N   0  0  0  0  0  2  0  0  0  0  0  0
  190.9270  176.8220  147.4540 C   0  0  0  0  0  3  0  0  0  0  0  0
  189.6610  177.2040  147.5100 C   0  0  0  0  0  2  0  0  0  0  0  0
  181.7510  179.8880  143.3860 O   0  0  0  0  0  1  0  0  0  0  0  0
  182.5910  178.8120  143.0830 C   0  0  1  0  0  3  0  0  0  0  0  0
  180.5570  177.7430  141.3090 O   0  0  0  0  0  0  0  0  0  0  0  0
  181.6300  178.1670  140.8020 C   0  0  0  0  0  0  0  0  0  0  0  0
  182.6960  178.6390  141.6340 N   0  0  0  0  0  2  0  0  0  0  0  0
  181.7640  178.2290  139.3210 C   0  0  0  0  0  2  0  0  0  0  0  0
  182.7040  175.6770  137.6780 C   0  0  0  0  0  2  0  0  0  0  0  0
  182.9840  177.4330  138.8830 C   0  0  0  0  0  3  0  0  0  0  0  0
  182.7620  175.9590  139.1650 C   0  0  0  0  0  2  0  0  0  0  0  0
  182.9160  177.1510  137.3960 C   0  0  0  0  0  2  0  0  0  0  0  0
  1  7  1  0  0  0  0
  2  8  1  0  0  0  0
  3  5  1  6  0  0  0
  3  2  1  0  0  0  0
  4  1  2  0  0  0  0
  5  6  1  0  0  0  0
  6  4  2  0  0  0  0
  8  7  1  0  0  0  0
 10 13  1  0  0  0  0
 10  9  2  0  0  0  0
 11 12  1  0  0  0  0
 12  9  1  6  0  0  0
 12  3  1  0  0  0  0
 13 11  2  0  0  0  0
 14 16  2  0  0  0  0
 15 19  2  0  0  0  0
 16 19  1  0  0  0  0
 17 15  1  0  0  0  0
 18 11  1  6  0  0  0
 18 14  1  0  0  0  0
 19 21  1  0  0  0  0
 20 18  1  0  0  0  0
 20 17  2  0  0  0  0
 21 22  1  0  0  0  0
 22 23  2  0  0  0  0
 25 24  1  6  0  0  0
 25  6  1  0  0  0  0
 27 26  2  0  0  0  0
 27 28  1  0  0  0  0
 28 25  1  0  0  0  0
 29 27  1  0  0  0  0
 30 32  1  0  0  0  0
 31 32  1  0  0  0  0
 31 29  1  0  0  0  0
 33 30  1  0  0  0  0
 33 31  1  0  0  0  0
M  END
>  <MODEL>
2

>  <REMARK>
 VINA RESULT:      -8.5      2.703      7.773
  Name = 
  8 active torsions:
  status: ('A' for Active; 'I' for Inactive)
    1  A    between atoms: C_7  and  C_18
    2  A    between atoms: N_8  and  C_16
    3  A    between atoms: N_8  and  C_26
    4  A    between atoms: C_12  and  C_27
    5  A    between atoms: C_14  and  C_31
    6  A    between atoms: C_19  and  N_23
    7  A    between atoms: C_19  and  C_24
    8  A    between atoms: C_21  and  C_31
                            x       y       z     vdW  Elec       q    Type
                         _______ _______ _______ _____ _____    ______ ____

>  <TORSDO>
F 8

$$$$
=
 OpenBabel10232409353D

 33 36  0  0  1  0  0  0  0  0999 V2000
  184.5680  178.3880  139.4860 C   0  0  0  0  0  3  0  0  0  0  0  0
  183.5210  178.6190  142.5980 C   0  0  0  0  0  2  0  0  0  0  0  0
  184.9770  178.4130  143.0230 C   0  0  1  0  0  3  0  0  0  0  0  0
  185.5670  178.7870  140.2140 C   0  0  0  0  0  0  0  0  0  0  0  0
  185.8830  179.5140  142.4660 C   0  0  0  0  0  2  0  0  0  0  0  0
  186.4300  179.1480  141.1170 C   0  0  0  0  0  0  0  0  0  0  0  0
  183.1990  178.4330  140.0890 C   0  0  0  0  0  2  0  0  0  0  0  0
  183.1330  177.7020  141.4350 C   0  0  0  0  0  2  0  0  0  0  0  0
  184.1320  178.6400  145.3180 N   0  0  0  0  0  0  0  0  0  0  0  0
  184.6220  178.5170  146.6880 C   0  0  0  0  0  2  0  0  0  0  0  0
  186.3130  178.0340  145.2330 C   0  0  0  0  0  0  0  0  0  0  0  0
  185.0970  178.3580  144.5100 C   0  0  0  0  0  0  0  0  0  0  0  0
  186.0580  178.1150  146.5260 C   0  0  0  0  0  3  0  0  0  0  0  0
  187.4810  176.4500  143.7660 C   0  0  0  0  0  3  0  0  0  0  0  0
  190.4850  176.8590  144.2550 C   0  0  0  0  0  3  0  0  0  0  0  0
  188.4940  175.9280  143.0800 C   0  0  0  0  0  3  0  0  0  0  0  0
  189.8510  177.0560  145.5310 N   0  0  0  0  0  0  0  0  0  0  0  0
  187.6340  177.6400  144.6530 C   0  0  2  0  0  3  0  0  0  0  0  0
  189.9010  176.3910  143.1390 C   0  0  0  0  0  0  0  0  0  0  0  0
  188.6100  177.3660  145.7490 C   0  0  0  0  0  3  0  0  0  0  0  0
  190.7430  176.2090  141.9980 N   0  0  0  0  0  2  0  0  0  0  0  0
  191.8180  177.0880  141.6750 C   0  0  0  0  0  3  0  0  0  0  0  0
  192.0000  177.4810  140.4240 C   0  0  0  0  0  2  0  0  0  0  0  0
  188.6200  178.9830  142.0560 O   0  0  0  0  0  1  0  0  0  0  0  0
  187.9060  179.0170  140.8550 C   0  0  1  0  0  3  0  0  0  0  0  0
  188.9300  179.0160  138.1380 O   0  0  0  0  0  0  0  0  0  0  0  0
  188.7920  177.9100  138.7250 C   0  0  0  0  0  0  0  0  0  0  0  0
  188.2240  177.8450  140.0390 N   0  0  0  0  0  2  0  0  0  0  0  0
  189.2750  176.6670  138.0660 C   0  0  0  0  0  2  0  0  0  0  0  0
  186.6320  175.1800  137.1190 C   0  0  0  0  0  2  0  0  0  0  0  0
  188.4090  176.3570  136.8550 C   0  0  0  0  0  3  0  0  0  0  0  0
  188.0860  174.8760  136.8210 C   0  0  0  0  0  2  0  0  0  0  0  0
  186.9570  176.6600  137.1620 C   0  0  0  0  0  2  0  0  0  0  0  0
  1  7  1  0  0  0  0
  1  4  2  0  0  0  0
  2  3  1  0  0  0  0
  3 12  1  1  0  0  0
  4  6  2  0  0  0  0
  5  3  1  0  0  0  0
  6  5  1  0  0  0  0
  7  8  1  0  0  0  0
  8  2  1  0  0  0  0
  9 10  1  0  0  0  0
 11 13  2  0  0  0  0
 12 11  1  0  0  0  0
 12  9  2  0  0  0  0
 13 10  1  0  0  0  0
 14 18  1  0  0  0  0
 15 17  1  0  0  0  0
 16 19  1  0  0  0  0
 16 14  2  0  0  0  0
 17 20  2  0  0  0  0
 18 11  1  1  0  0  0
 18 20  1  0  0  0  0
 19 15  2  0  0  0  0
 21 19  1  0  0  0  0
 22 21  1  0  0  0  0
 23 22  2  0  0  0  0
 25  6  1  0  0  0  0
 25 24  1  1  0  0  0
 26 27  2  0  0  0  0
 27 28  1  0  0  0  0
 28 25  1  0  0  0  0
 29 27  1  0  0  0  0
 30 33  1  0  0  0  0
 31 33  1  0  0  0  0
 31 29  1  0  0  0  0
 32 31  1  0  0  0  0
 32 30  1  0  0  0  0
M  END
>  <MODEL>
3

>  <REMARK>
 VINA RESULT:      -8.2      2.470      7.197
  Name = 
  8 active torsions:
  status: ('A' for Active; 'I' for Inactive)
    1  A    between atoms: C_7  and  C_18
    2  A    between atoms: N_8  and  C_16
    3  A    between atoms: N_8  and  C_26
    4  A    between atoms: C_12  and  C_27
    5  A    between atoms: C_14  and  C_31
    6  A    between atoms: C_19  and  N_23
    7  A    between atoms: C_19  and  C_24
    8  A    between atoms: C_21  and  C_31
                            x       y       z     vdW  Elec       q    Type
                         _______ _______ _______ _____ _____    ______ ____

>  <TORSDO>
F 8

$$$$
=
 OpenBabel10232409353D

 33 36  0  0  1  0  0  0  0  0999 V2000
  187.4070  174.2960  137.3460 C   0  0  0  0  0  3  0  0  0  0  0  0
  184.2650  174.8780  136.5590 C   0  0  0  0  0  2  0  0  0  0  0  0
  184.4550  176.2770  137.1520 C   0  0  1  0  0  3  0  0  0  0  0  0
  187.2630  175.5790  137.2030 C   0  0  0  0  0  0  0  0  0  0  0  0
  185.5530  177.0500  136.4200 C   0  0  0  0  0  2  0  0  0  0  0  0
  186.9000  176.8170  137.0420 C   0  0  0  0  0  0  0  0  0  0  0  0
  186.3110  173.4080  136.8470 C   0  0  0  0  0  2  0  0  0  0  0  0
  184.9410  173.8020  137.4130 C   0  0  0  0  0  2  0  0  0  0  0  0
  182.3760  177.0660  136.1080 N   0  0  0  0  0  0  0  0  0  0  0  0
  181.2590  177.9540  136.4150 C   0  0  0  0  0  3  0  0  0  0  0  0
  182.7030  177.9130  138.1830 C   0  0  0  0  0  0  0  0  0  0  0  0
  183.1770  177.0500  137.1180 C   0  0  2  0  0  3  0  0  0  0  0  0
  181.5640  178.4580  137.7950 C   0  0  0  0  0  3  0  0  0  0  0  0
  182.3130  178.5000  140.5340 C   0  0  0  0  0  3  0  0  0  0  0  0
  185.0660  179.1080  141.7510 C   0  0  0  0  0  3  0  0  0  0  0  0
  182.6080  178.7030  141.8150 C   0  0  0  0  0  3  0  0  0  0  0  0
  185.1230  179.5890  140.3970 N   0  0  0  0  0  0  0  0  0  0  0  0
  183.3430  178.1470  139.5140 C   0  0  2  0  0  3  0  0  0  0  0  0
  183.9710  178.6760  142.3980 C   0  0  0  0  0  0  0  0  0  0  0  0
  184.3730  179.2210  139.4020 C   0  0  0  0  0  3  0  0  0  0  0  0
  184.1350  178.3090  143.7690 N   0  0  0  0  0  0  0  0  0  0  0  0
  184.7570  179.1550  144.7340 C   0  0  0  0  0  3  0  0  0  0  0  0
  185.1770  178.6530  145.8840 C   0  0  0  0  0  1  0  0  0  0  0  0
  187.3330  179.1650  137.0890 O   0  0  0  0  0  1  0  0  0  0  0  0
  187.7220  177.9330  137.6250 C   0  0  1  0  0  3  0  0  0  0  0  0
  189.9620  177.8970  139.4720 O   0  0  0  0  0  0  0  0  0  0  0  0
  188.8000  178.0170  139.9440 C   0  0  0  0  0  0  0  0  0  0  0  0
  187.6530  177.9690  139.0860 N   0  0  0  0  0  2  0  0  0  0  0  0
  188.6240  178.2660  141.4010 C   0  0  0  0  0  2  0  0  0  0  0  0
  188.7690  176.9990  144.3100 C   0  0  0  0  0  2  0  0  0  0  0  0
  188.7410  176.9550  142.1630 C   0  0  0  0  0  3  0  0  0  0  0  0
  189.8200  177.0730  143.2230 C   0  0  0  0  0  2  0  0  0  0  0  0
  187.6890  176.8900  143.2510 C   0  0  0  0  0  2  0  0  0  0  0  0
  2  3  1  0  0  0  0
  2  8  1  0  0  0  0
  3  5  1  6  0  0  0
  4  1  2  0  0  0  0
  5  6  1  0  0  0  0
  6  4  2  0  0  0  0
  6 25  1  0  0  0  0
  7  1  1  0  0  0  0
  7  8  1  0  0  0  0
  9 10  2  0  0  0  0
 10 13  1  0  0  0  0
 12  9  1  6  0  0  0
 12  3  1  0  0  0  0
 12 11  1  0  0  0  0
 13 11  2  0  0  0  0
 14 16  2  0  0  0  0
 15 19  2  0  0  0  0
 16 19  1  0  0  0  0
 17 15  1  0  0  0  0
 18 11  1  6  0  0  0
 18 14  1  0  0  0  0
 19 21  1  0  0  0  0
 20 18  1  0  0  0  0
 20 17  2  0  0  0  0
 21 22  2  0  0  0  0
 22 23  1  0  0  0  0
 25 24  1  6  0  0  0
 25 28  1  0  0  0  0
 26 27  2  0  0  0  0
 27 29  1  0  0  0  0
 28 27  1  0  0  0  0
 29 31  1  0  0  0  0
 31 32  1  0  0  0  0
 31 33  1  0  0  0  0
 32 30  1  0  0  0  0
 33 30  1  0  0  0  0
M  END
>  <MODEL>
4

>  <REMARK>
 VINA RESULT:      -8.2      3.175      7.361
  Name = 
  8 active torsions:
  status: ('A' for Active; 'I' for Inactive)
    1  A    between atoms: C_7  and  C_18
    2  A    between atoms: N_8  and  C_16
    3  A    between atoms: N_8  and  C_26
    4  A    between atoms: C_12  and  C_27
    5  A    between atoms: C_14  and  C_31
    6  A    between atoms: C_19  and  N_23
    7  A    between atoms: C_19  and  C_24
    8  A    between atoms: C_21  and  C_31
                            x       y       z     vdW  Elec       q    Type
                         _______ _______ _______ _____ _____    ______ ____

>  <TORSDO>
F 8

$$$$
=
 OpenBabel10232409353D

 33 36  0  0  1  0  0  0  0  0999 V2000
  191.9350  177.6480  142.2910 C   0  0  0  0  0  3  0  0  0  0  0  0
  188.8450  178.1110  143.3230 C   0  0  0  0  0  2  0  0  0  0  0  0
  188.4470  178.2070  141.8480 C   0  0  1  0  0  3  0  0  0  0  0  0
  191.1360  177.2650  141.3410 C   0  0  0  0  0  0  0  0  0  0  0  0
  188.7870  176.9210  141.0930 C   0  0  0  0  0  2  0  0  0  0  0  0
  190.1730  176.9680  140.5190 C   0  0  0  0  0  0  0  0  0  0  0  0
  191.3490  177.8820  143.6480 C   0  0  0  0  0  2  0  0  0  0  0  0
  190.1580  178.8460  143.6070 C   0  0  0  0  0  2  0  0  0  0  0  0
  186.4030  178.6790  140.5700 N   0  0  0  0  0  0  0  0  0  0  0  0
  185.0010  179.0020  140.8180 C   0  0  0  0  0  3  0  0  0  0  0  0
  186.0750  178.7150  142.8110 C   0  0  0  0  0  0  0  0  0  0  0  0
  186.9920  178.5140  141.7060 C   0  0  2  0  0  3  0  0  0  0  0  0
  184.8860  178.9990  142.3140 C   0  0  0  0  0  3  0  0  0  0  0  0
  186.5460  177.1630  144.6540 C   0  0  0  0  0  3  0  0  0  0  0  0
  186.3220  178.7930  147.2470 C   0  0  0  0  0  3  0  0  0  0  0  0
  186.8750  176.7810  145.8850 C   0  0  0  0  0  3  0  0  0  0  0  0
  185.3180  179.3240  146.3640 N   0  0  0  0  0  0  0  0  0  0  0  0
  186.3760  178.5950  144.2710 C   0  0  2  0  0  3  0  0  0  0  0  0
  187.0530  177.6850  147.0470 C   0  0  0  0  0  0  0  0  0  0  0  0
  185.2880  179.2350  145.0690 C   0  0  0  0  0  3  0  0  0  0  0  0
  187.9470  177.3020  148.0950 N   0  0  0  0  0  2  0  0  0  0  0  0
  189.3340  177.6350  148.0970 C   0  0  0  0  0  3  0  0  0  0  0  0
  190.1270  177.1700  147.1450 C   0  0  0  0  0  2  0  0  0  0  0  0
  191.0980  175.6690  138.7420 O   0  0  0  0  0  1  0  0  0  0  0  0
  190.4380  176.8650  139.0420 C   0  0  1  0  0  3  0  0  0  0  0  0
  189.1130  179.3250  138.2540 O   0  0  0  0  0  0  0  0  0  0  0  0
  188.6460  178.2330  137.8330 C   0  0  0  0  0  0  0  0  0  0  0  0
  189.2160  176.9850  138.2480 N   0  0  0  0  0  2  0  0  0  0  0  0
  187.5270  178.2450  136.8530 C   0  0  0  0  0  2  0  0  0  0  0  0
  184.7050  177.0030  136.0850 C   0  0  0  0  0  2  0  0  0  0  0  0
  186.5610  177.1120  137.1620 C   0  0  0  0  0  3  0  0  0  0  0  0
  185.1650  177.6710  137.3650 C   0  0  0  0  0  2  0  0  0  0  0  0
  186.1030  176.4530  135.8770 C   0  0  0  0  0  2  0  0  0  0  0  0
  1  7  1  0  0  0  0
  2  8  1  0  0  0  0
  3  5  1  6  0  0  0
  3  2  1  0  0  0  0
  4  1  2  0  0  0  0
  6  5  1  0  0  0  0
  6  4  2  0  0  0  0
  8  7  1  0  0  0  0
  9 10  2  0  0  0  0
 10 13  1  0  0  0  0
 12  9  1  6  0  0  0
 12  3  1  0  0  0  0
 12 11  1  0  0  0  0
 13 11  2  0  0  0  0
 14 16  2  0  0  0  0
 16 19  1  0  0  0  0
 17 15  1  0  0  0  0
 18 11  1  6  0  0  0
 18 14  1  0  0  0  0
 18 20  1  0  0  0  0
 19 15  2  0  0  0  0
 19 21  1  0  0  0  0
 20 17  2  0  0  0  0
 21 22  1  0  0  0  0
 23 22  2  0  0  0  0
 25 24  1  1  0  0  0
 25  6  1  0  0  0  0
 27 28  1  0  0  0  0
 27 26  2  0  0  0  0
 28 25  1  0  0  0  0
 29 31  1  0  0  0  0
 29 27  1  0  0  0  0
 30 32  1  0  0  0  0
 31 32  1  0  0  0  0
 33 30  1  0  0  0  0
 33 31  1  0  0  0  0
M  END
>  <MODEL>
5

>  <REMARK>
 VINA RESULT:      -7.9      2.862      8.579
  Name = 
  8 active torsions:
  status: ('A' for Active; 'I' for Inactive)
    1  A    between atoms: C_7  and  C_18
    2  A    between atoms: N_8  and  C_16
    3  A    between atoms: N_8  and  C_26
    4  A    between atoms: C_12  and  C_27
    5  A    between atoms: C_14  and  C_31
    6  A    between atoms: C_19  and  N_23
    7  A    between atoms: C_19  and  C_24
    8  A    between atoms: C_21  and  C_31
                            x       y       z     vdW  Elec       q    Type
                         _______ _______ _______ _____ _____    ______ ____

>  <TORSDO>
F 8

$$$$
=
 OpenBabel10232409353D

 33 36  0  0  1  0  0  0  0  0999 V2000
  184.5940  178.2720  144.1250 C   0  0  0  0  0  3  0  0  0  0  0  0
  187.8030  178.1010  143.4140 C   0  0  0  0  0  2  0  0  0  0  0  0
  187.3940  177.9770  141.9440 C   0  0  1  0  0  3  0  0  0  0  0  0
  184.7540  178.6790  142.9010 C   0  0  0  0  0  0  0  0  0  0  0  0
  186.6000  179.2000  141.4800 C   0  0  0  0  0  2  0  0  0  0  0  0
  185.1270  179.0180  141.7030 C   0  0  0  0  0  0  0  0  0  0  0  0
  185.8130  178.1410  144.9840 C   0  0  0  0  0  2  0  0  0  0  0  0
  186.8950  177.2750  144.3290 C   0  0  0  0  0  2  0  0  0  0  0  0
  188.5780  177.9550  139.7920 N   0  0  0  0  0  0  0  0  0  0  0  0
  189.9040  177.6370  139.2700 C   0  0  0  0  0  3  0  0  0  0  0  0
  189.8880  177.3310  141.5310 C   0  0  0  0  0  0  0  0  0  0  0  0
  188.5890  177.7830  141.0700 C   0  0  2  0  0  3  0  0  0  0  0  0
  190.6890  177.2420  140.4850 C   0  0  0  0  0  3  0  0  0  0  0  0
  190.8380  178.2690  143.5910 C   0  0  0  0  0  3  0  0  0  0  0  0
  191.5310  175.8850  145.3980 C   0  0  0  0  0  3  0  0  0  0  0  0
  191.2230  178.2990  144.8640 C   0  0  0  0  0  3  0  0  0  0  0  0
  191.7990  175.4470  144.0550 N   0  0  0  0  0  0  0  0  0  0  0  0
  190.2990  177.0400  142.9400 C   0  0  2  0  0  3  0  0  0  0  0  0
  191.2400  177.1370  145.7850 C   0  0  0  0  0  0  0  0  0  0  0  0
  191.3090  175.9400  142.9580 C   0  0  0  0  0  3  0  0  0  0  0  0
  191.0790  177.3590  147.1880 N   0  0  0  0  0  2  0  0  0  0  0  0
  189.8230  177.6680  147.7890 C   0  0  0  0  0  3  0  0  0  0  0  0
  188.7890  176.8610  147.6140 C   0  0  0  0  0  2  0  0  0  0  0  0
  184.5560  179.9050  139.5600 O   0  0  0  0  0  1  0  0  0  0  0  0
  184.1330  179.0400  140.5740 C   0  0  1  0  0  3  0  0  0  0  0  0
  181.6020  177.6150  140.5800 O   0  0  0  0  0  0  0  0  0  0  0  0
  182.5880  177.0810  140.0050 C   0  0  0  0  0  0  0  0  0  0  0  0
  183.8770  177.7050  140.0320 N   0  0  0  0  0  2  0  0  0  0  0  0
  182.3930  175.8180  139.2440 C   0  0  0  0  0  2  0  0  0  0  0  0
  182.9370  174.5590  136.3780 C   0  0  0  0  0  2  0  0  0  0  0  0
  183.4040  175.7400  138.1100 C   0  0  0  0  0  3  0  0  0  0  0  0
  183.6110  174.2920  137.7070 C   0  0  0  0  0  2  0  0  0  0  0  0
  182.7220  176.0040  136.7840 C   0  0  0  0  0  2  0  0  0  0  0  0
  1  7  1  0  0  0  0
  2  8  1  0  0  0  0
  3  5  1  6  0  0  0
  3  2  1  0  0  0  0
  4  1  2  0  0  0  0
  5  6  1  0  0  0  0
  6  4  2  0  0  0  0
  8  7  1  0  0  0  0
 10  9  2  0  0  0  0
 10 13  1  0  0  0  0
 12  9  1  6  0  0  0
 12 11  1  0  0  0  0
 12  3  1  0  0  0  0
 13 11  2  0  0  0  0
 14 16  2  0  0  0  0
 15 19  2  0  0  0  0
 16 19  1  0  0  0  0
 17 15  1  0  0  0  0
 18 11  1  6  0  0  0
 18 20  1  0  0  0  0
 18 14  1  0  0  0  0
 19 21  1  0  0  0  0
 20 17  2  0  0  0  0
 21 22  1  0  0  0  0
 23 22  2  0  0  0  0
 25 24  1  6  0  0  0
 25  6  1  0  0  0  0
 27 28  1  0  0  0  0
 27 26  2  0  0  0  0
 28 25  1  0  0  0  0
 29 27  1  0  0  0  0
 30 33  1  0  0  0  0
 30 32  1  0  0  0  0
 31 29  1  0  0  0  0
 32 31  1  0  0  0  0
 33 31  1  0  0  0  0
M  END
>  <MODEL>
6

>  <REMARK>
 VINA RESULT:      -7.9      2.878      7.952
  Name = 
  8 active torsions:
  status: ('A' for Active; 'I' for Inactive)
    1  A    between atoms: C_7  and  C_18
    2  A    between atoms: N_8  and  C_16
    3  A    between atoms: N_8  and  C_26
    4  A    between atoms: C_12  and  C_27
    5  A    between atoms: C_14  and  C_31
    6  A    between atoms: C_19  and  N_23
    7  A    between atoms: C_19  and  C_24
    8  A    between atoms: C_21  and  C_31
                            x       y       z     vdW  Elec       q    Type
                         _______ _______ _______ _____ _____    ______ ____

>  <TORSDO>
F 8

$$$$
=
 OpenBabel10232409353D

 33 36  0  0  1  0  0  0  0  0999 V2000
  191.2340  176.8240  143.1820 C   0  0  0  0  0  3  0  0  0  0  0  0
  189.0760  176.9110  145.6650 C   0  0  0  0  0  2  0  0  0  0  0  0
  188.1340  177.6620  144.7210 C   0  0  1  0  0  3  0  0  0  0  0  0
  190.0440  176.9310  142.6720 C   0  0  0  0  0  0  0  0  0  0  0  0
  187.8010  176.8260  143.4830 C   0  0  0  0  0  2  0  0  0  0  0  0
  188.7850  177.0650  142.3750 C   0  0  0  0  0  0  0  0  0  0  0  0
  191.3470  176.4610  144.6300 C   0  0  0  0  0  2  0  0  0  0  0  0
  190.5230  177.3920  145.5270 C   0  0  0  0  0  2  0  0  0  0  0  0
  186.7810  178.1860  146.7030 N   0  0  0  0  0  0  0  0  0  0  0  0
  185.4040  178.5420  147.0310 C   0  0  0  0  0  2  0  0  0  0  0  0
  185.6040  178.2970  144.7710 C   0  0  0  0  0  0  0  0  0  0  0  0
  186.8770  178.0580  145.4230 C   0  0  0  0  0  0  0  0  0  0  0  0
  184.7140  178.5930  145.7010 C   0  0  0  0  0  3  0  0  0  0  0  0
  185.7710  179.5220  142.6500 C   0  0  0  0  0  3  0  0  0  0  0  0
  184.0140  178.0160  140.6310 C   0  0  0  0  0  3  0  0  0  0  0  0
  185.6840  179.7250  141.3380 C   0  0  0  0  0  3  0  0  0  0  0  0
  183.3350  177.9100  141.8950 N   0  0  0  0  0  0  0  0  0  0  0  0
  185.3160  178.2610  143.3040 C   0  0  2  0  0  3  0  0  0  0  0  0
  185.0790  178.7880  140.3620 C   0  0  0  0  0  0  0  0  0  0  0  0
  183.8570  178.0390  143.0770 C   0  0  0  0  0  3  0  0  0  0  0  0
  185.5490  178.7910  139.0110 N   0  0  0  0  0  2  0  0  0  0  0  0
  185.1200  177.8430  138.0350 C   0  0  0  0  0  3  0  0  0  0  0  0
  185.9330  177.4910  137.0520 C   0  0  0  0  0  2  0  0  0  0  0  0
  188.5740  178.9950  140.9840 O   0  0  0  0  0  1  0  0  0  0  0  0
  188.3740  177.6120  141.0360 C   0  0  1  0  0  3  0  0  0  0  0  0
  188.9670  178.7530  138.4320 O   0  0  0  0  0  0  0  0  0  0  0  0
  189.3930  177.5950  138.6890 C   0  0  0  0  0  0  0  0  0  0  0  0
  189.0700  176.9550  139.9290 N   0  0  0  0  0  2  0  0  0  0  0  0
  190.2860  176.9120  137.7140 C   0  0  0  0  0  2  0  0  0  0  0  0
  192.9650  175.2400  137.3640 C   0  0  0  0  0  2  0  0  0  0  0  0
  191.3200  176.0820  138.4590 C   0  0  0  0  0  3  0  0  0  0  0  0
  191.5650  174.7820  137.7150 C   0  0  0  0  0  2  0  0  0  0  0  0
  192.7170  176.5430  138.0990 C   0  0  0  0  0  2  0  0  0  0  0  0
  1  7  1  0  0  0  0
  3 12  1  1  0  0  0
  3  2  1  0  0  0  0
  4  1  2  0  0  0  0
  5  3  1  0  0  0  0
  6  4  2  0  0  0  0
  6  5  1  0  0  0  0
  7  8  1  0  0  0  0
  8  2  1  0  0  0  0
  9 10  1  0  0  0  0
 11 12  1  0  0  0  0
 11 13  2  0  0  0  0
 12  9  2  0  0  0  0
 13 10  1  0  0  0  0
 14 18  1  0  0  0  0
 15 17  1  0  0  0  0
 16 14  2  0  0  0  0
 17 20  2  0  0  0  0
 18 11  1  1  0  0  0
 19 15  2  0  0  0  0
 19 16  1  0  0  0  0
 20 18  1  0  0  0  0
 21 19  1  0  0  0  0
 22 21  1  0  0  0  0
 23 22  2  0  0  0  0
 25 24  1  1  0  0  0
 25  6  1  0  0  0  0
 26 27  2  0  0  0  0
 27 28  1  0  0  0  0
 28 25  1  0  0  0  0
 29 31  1  0  0  0  0
 29 27  1  0  0  0  0
 30 32  1  0  0  0  0
 30 33  1  0  0  0  0
 32 31  1  0  0  0  0
 33 31  1  0  0  0  0
M  END
>  <MODEL>
7

>  <REMARK>
 VINA RESULT:      -7.8      2.849      6.530
  Name = 
  8 active torsions:
  status: ('A' for Active; 'I' for Inactive)
    1  A    between atoms: C_7  and  C_18
    2  A    between atoms: N_8  and  C_16
    3  A    between atoms: N_8  and  C_26
    4  A    between atoms: C_12  and  C_27
    5  A    between atoms: C_14  and  C_31
    6  A    between atoms: C_19  and  N_23
    7  A    between atoms: C_19  and  C_24
    8  A    between atoms: C_21  and  C_31
                            x       y       z     vdW  Elec       q    Type
                         _______ _______ _______ _____ _____    ______ ____

>  <TORSDO>
F 8

$$$$
=
 OpenBabel10232409353D

 33 36  0  0  1  0  0  0  0  0999 V2000
  191.5810  177.2970  141.9480 C   0  0  0  0  0  3  0  0  0  0  0  0
  189.9970  178.0220  139.1550 C   0  0  0  0  0  2  0  0  0  0  0  0
  188.6990  177.6770  139.8900 C   0  0  1  0  0  3  0  0  0  0  0  0
  190.3670  177.6420  142.2560 C   0  0  0  0  0  0  0  0  0  0  0  0
  188.4920  178.5770  141.1110 C   0  0  0  0  0  2  0  0  0  0  0  0
  189.1160  177.9880  142.3420 C   0  0  0  0  0  0  0  0  0  0  0  0
  192.0630  177.5920  140.5620 C   0  0  0  0  0  2  0  0  0  0  0  0
  191.1190  177.0360  139.4890 C   0  0  0  0  0  2  0  0  0  0  0  0
  186.5420  178.5940  139.1590 N   0  0  0  0  0  0  0  0  0  0  0  0
  185.5620  178.3870  138.0960 C   0  0  0  0  0  3  0  0  0  0  0  0
  187.3090  176.9470  137.8070 C   0  0  0  0  0  0  0  0  0  0  0  0
  187.5230  177.7780  138.9760 C   0  0  2  0  0  3  0  0  0  0  0  0
  186.1560  177.2910  137.2620 C   0  0  0  0  0  3  0  0  0  0  0  0
  188.9110  176.3920  136.0320 C   0  0  0  0  0  3  0  0  0  0  0  0
  189.3950  173.3640  136.2070 C   0  0  0  0  0  3  0  0  0  0  0  0
  189.8230  175.6760  135.3790 C   0  0  0  0  0  3  0  0  0  0  0  0
  188.0100  173.5590  136.5430 N   0  0  0  0  0  0  0  0  0  0  0  0
  188.2230  175.8970  137.2600 C   0  0  2  0  0  3  0  0  0  0  0  0
  190.2340  174.2930  135.7200 C   0  0  0  0  0  0  0  0  0  0  0  0
  187.4540  174.6500  136.9750 C   0  0  0  0  0  3  0  0  0  0  0  0
  191.5560  173.8580  135.3890 N   0  0  0  0  0  2  0  0  0  0  0  0
  192.5480  173.5660  136.3700 C   0  0  0  0  0  3  0  0  0  0  0  0
  192.7610  174.4080  137.3680 C   0  0  0  0  0  2  0  0  0  0  0  0
  187.4750  176.5450  143.3040 O   0  0  0  0  0  1  0  0  0  0  0  0
  188.3120  177.6350  143.5630 C   0  0  1  0  0  3  0  0  0  0  0  0
  187.5300  177.7950  146.3550 O   0  0  0  0  0  0  0  0  0  0  0  0
  188.6930  177.3940  146.0820 C   0  0  0  0  0  0  0  0  0  0  0  0
  189.1560  177.3630  144.7260 N   0  0  0  0  0  2  0  0  0  0  0  0
  189.5710  176.8970  147.1760 C   0  0  0  0  0  2  0  0  0  0  0  0
  192.3730  175.4150  146.9690 C   0  0  0  0  0  2  0  0  0  0  0  0
  191.0300  177.0810  146.7870 C   0  0  0  0  0  3  0  0  0  0  0  0
  191.9240  176.5350  147.8840 C   0  0  0  0  0  2  0  0  0  0  0  0
  191.4720  175.9550  145.8750 C   0  0  0  0  0  2  0  0  0  0  0  0
  1  4  2  0  0  0  0
  2  8  1  0  0  0  0
  3  2  1  6  0  0  0
  3  5  1  0  0  0  0
  4  6  2  0  0  0  0
  5  6  1  0  0  0  0
  6 25  1  0  0  0  0
  7  1  1  0  0  0  0
  8  7  1  0  0  0  0
 10  9  2  0  0  0  0
 12 11  1  1  0  0  0
 12  9  1  0  0  0  0
 12  3  1  0  0  0  0
 13 11  2  0  0  0  0
 13 10  1  0  0  0  0
 14 18  1  0  0  0  0
 15 17  1  0  0  0  0
 16 19  1  0  0  0  0
 16 14  2  0  0  0  0
 17 20  2  0  0  0  0
 18 11  1  6  0  0  0
 19 15  2  0  0  0  0
 20 18  1  0  0  0  0
 21 19  1  0  0  0  0
 21 22  1  0  0  0  0
 22 23  2  0  0  0  0
 25 24  1  6  0  0  0
 25 28  1  0  0  0  0
 27 26  2  0  0  0  0
 27 29  1  0  0  0  0
 28 27  1  0  0  0  0
 30 32  1  0  0  0  0
 31 29  1  0  0  0  0
 31 32  1  0  0  0  0
 33 31  1  0  0  0  0
 33 30  1  0  0  0  0
M  END
>  <MODEL>
8

>  <REMARK>
 VINA RESULT:      -7.8      2.454      4.644
  Name = 
  8 active torsions:
  status: ('A' for Active; 'I' for Inactive)
    1  A    between atoms: C_7  and  C_18
    2  A    between atoms: N_8  and  C_16
    3  A    between atoms: N_8  and  C_26
    4  A    between atoms: C_12  and  C_27
    5  A    between atoms: C_14  and  C_31
    6  A    between atoms: C_19  and  N_23
    7  A    between atoms: C_19  and  C_24
    8  A    between atoms: C_21  and  C_31
                            x       y       z     vdW  Elec       q    Type
                         _______ _______ _______ _____ _____    ______ ____

>  <TORSDO>
F 8

$$$$
=
 OpenBabel10232409353D

 33 36  0  0  1  0  0  0  0  0999 V2000
  188.2290  178.4220  141.1030 C   0  0  0  0  0  3  0  0  0  0  0  0
  186.5120  178.3500  138.2960 C   0  0  0  0  0  2  0  0  0  0  0  0
  185.2770  178.0430  139.1480 C   0  0  1  0  0  3  0  0  0  0  0  0
  186.9910  178.7000  141.3860 C   0  0  0  0  0  0  0  0  0  0  0  0
  185.0000  179.1630  140.1530 C   0  0  0  0  0  2  0  0  0  0  0  0
  185.7130  178.9260  141.4530 C   0  0  0  0  0  0  0  0  0  0  0  0
  188.6440  178.4530  139.6650 C   0  0  0  0  0  2  0  0  0  0  0  0
  187.7430  177.5810  138.7830 C   0  0  0  0  0  2  0  0  0  0  0  0
  183.0800  178.6350  138.2250 N   0  0  0  0  0  0  0  0  0  0  0  0
  182.0800  178.0760  137.3200 C   0  0  0  0  0  3  0  0  0  0  0  0
  183.8540  176.6480  137.4630 C   0  0  0  0  0  0  0  0  0  0  0  0
  184.0770  177.8200  138.2880 C   0  0  2  0  0  3  0  0  0  0  0  0
  182.6800  176.7760  136.8730 C   0  0  0  0  0  3  0  0  0  0  0  0
  185.1900  175.3940  135.8300 C   0  0  0  0  0  3  0  0  0  0  0  0
  186.0500  172.7930  137.2180 C   0  0  0  0  0  3  0  0  0  0  0  0
  186.0570  174.4850  135.3890 C   0  0  0  0  0  3  0  0  0  0  0  0
  184.7280  173.0780  137.7080 N   0  0  0  0  0  0  0  0  0  0  0  0
  184.7820  175.4920  137.2610 C   0  0  2  0  0  3  0  0  0  0  0  0
  186.6810  173.4210  136.2130 C   0  0  0  0  0  0  0  0  0  0  0  0
  184.1280  174.2290  137.7180 C   0  0  0  0  0  3  0  0  0  0  0  0
  187.9690  172.9230  135.8470 N   0  0  0  0  0  2  0  0  0  0  0  0
  189.1470  173.1730  136.6110 C   0  0  0  0  0  3  0  0  0  0  0  0
  189.4530  174.4090  136.9720 C   0  0  0  0  0  2  0  0  0  0  0  0
  183.7900  178.0590  142.5720 O   0  0  0  0  0  1  0  0  0  0  0  0
  184.9800  178.7690  142.7570 C   0  0  1  0  0  3  0  0  0  0  0  0
  184.7890  179.1510  145.6290 O   0  0  0  0  0  0  0  0  0  0  0  0
  185.6140  178.3050  145.1920 C   0  0  0  0  0  0  0  0  0  0  0  0
  185.8020  178.1270  143.7830 N   0  0  0  0  0  2  0  0  0  0  0  0
  186.3590  177.4470  146.1520 C   0  0  0  0  0  2  0  0  0  0  0  0
  189.2570  176.9170  147.3420 C   0  0  0  0  0  2  0  0  0  0  0  0
  187.6730  178.1160  146.5270 C   0  0  0  0  0  3  0  0  0  0  0  0
  188.0870  177.6850  147.9210 C   0  0  0  0  0  2  0  0  0  0  0  0
  188.8370  177.3400  145.9480 C   0  0  0  0  0  2  0  0  0  0  0  0
  1  4  2  0  0  0  0
  2  8  1  0  0  0  0
  3  2  1  6  0  0  0
  3  5  1  0  0  0  0
  4  6  2  0  0  0  0
  5  6  1  0  0  0  0
  6 25  1  0  0  0  0
  7  1  1  0  0  0  0
  8  7  1  0  0  0  0
  9 12  1  0  0  0  0
 10  9  2  0  0  0  0
 12 11  1  1  0  0  0
 12  3  1  0  0  0  0
 13 10  1  0  0  0  0
 13 11  2  0  0  0  0
 14 18  1  0  0  0  0
 15 17  1  0  0  0  0
 16 14  2  0  0  0  0
 16 19  1  0  0  0  0
 17 20  2  0  0  0  0
 18 11  1  6  0  0  0
 18 20  1  0  0  0  0
 19 15  2  0  0  0  0
 21 19  1  0  0  0  0
 21 22  1  0  0  0  0
 22 23  2  0  0  0  0
 25 24  1  6  0  0  0
 25 28  1  0  0  0  0
 27 26  2  0  0  0  0
 27 29  1  0  0  0  0
 28 27  1  0  0  0  0
 29 31  1  0  0  0  0
 30 32  1  0  0  0  0
 31 32  1  0  0  0  0
 33 31  1  0  0  0  0
 33 30  1  0  0  0  0
M  END
>  <MODEL>
9

>  <REMARK>
 VINA RESULT:      -7.7      2.426      5.221
  Name = 
  8 active torsions:
  status: ('A' for Active; 'I' for Inactive)
    1  A    between atoms: C_7  and  C_18
    2  A    between atoms: N_8  and  C_16
    3  A    between atoms: N_8  and  C_26
    4  A    between atoms: C_12  and  C_27
    5  A    between atoms: C_14  and  C_31
    6  A    between atoms: C_19  and  N_23
    7  A    between atoms: C_19  and  C_24
    8  A    between atoms: C_21  and  C_31
                            x       y       z     vdW  Elec       q    Type
                         _______ _______ _______ _____ _____    ______ ____

>  <TORSDO>
F 8

$$$$
