=
 OpenBabel10232411543D

 63 64  0  0  1  0  0  0  0  0999 V2000
  186.5620  177.8310  137.0550 C   0  0  2  0  0  3  0  0  0  0  0  0
  185.9990  179.0710  137.5810 N   0  0  0  0  0  2  0  0  0  0  0  0
  184.9840  179.0780  138.5860 C   0  0  0  0  0  0  0  0  0  0  0  0
  184.3380  177.8590  138.9670 N   0  0  0  0  0  2  0  0  0  0  0  0
  184.6580  180.1670  139.1240 O   0  0  0  0  0  0  0  0  0  0  0  0
  183.2770  177.8090  139.9590 C   0  0  2  0  0  3  0  0  0  0  0  0
  181.8440  178.6710  138.0480 N   0  0  0  0  0  2  0  0  0  0  0  0
  182.0740  178.5390  139.4490 C   0  0  0  0  0  0  0  0  0  0  0  0
  181.2590  179.0910  140.2840 N   0  0  0  0  0  1  0  0  0  0  0  0
  183.7570  178.3980  141.2020 N   0  0  0  0  0  2  0  0  0  0  0  0
  185.1590  178.3360  143.0610 C   0  0  0  0  0  3  0  0  0  0  0  0
  184.7000  177.7490  142.0060 N   0  0  0  0  0  0  0  0  0  0  0  0
  186.2830  178.1300  145.2930 N   0  0  0  0  0  2  0  0  0  0  0  0
  186.0870  177.6500  143.9590 C   0  0  0  0  0  0  0  0  0  0  0  0
  186.7590  176.6790  143.5250 O   0  0  0  0  0  0  0  0  0  0  0  0
  189.6680  177.1730  146.5070 N   0  0  0  0  0  0  0  0  0  0  0  0
  187.1530  178.1630  147.5770 C   0  0  0  0  0  2  0  0  0  0  0  0
  187.2700  177.5440  146.1860 C   0  0  2  0  0  3  0  0  0  0  0  0
  188.2860  177.6700  148.4770 C   0  0  0  0  0  2  0  0  0  0  0  0
  188.6700  177.8050  145.6370 C   0  0  0  0  0  2  0  0  0  0  0  0
  189.6320  177.8980  147.7850 C   0  0  0  0  0  2  0  0  0  0  0  0
  191.0010  177.3390  145.9030 C   0  0  1  0  0  3  0  0  0  0  0  0
  192.0090  176.3770  146.5350 C   0  0  0  0  0  1  0  0  0  0  0  0
  190.3390  175.7940  144.0250 C   0  0  0  0  0  1  0  0  0  0  0  0
  190.9610  177.1360  144.3750 C   0  0  1  0  0  3  0  0  0  0  0  0
  190.2620  178.1690  143.7390 O   0  0  0  0  0  0  0  0  0  0  0  0
  189.8860  177.6460  142.5000 C   0  0  0  0  0  2  0  0  0  0  0  0
  188.9980  178.5210  141.8700 O   0  0  0  0  0  1  0  0  0  0  0  0
  184.3830  177.4740  135.9100 O   0  0  0  0  0  1  0  0  0  0  0  0
  185.5060  175.6130  136.8780 C   0  0  0  0  0  3  0  0  0  0  0  0
  185.4590  176.9200  136.5980 C   0  0  0  0  0  0  0  0  0  0  0  0
  184.5100  173.9010  135.4320 C   0  0  0  0  0  0  0  0  0  0  0  0
  184.4460  174.6300  136.5670 C   0  0  0  0  0  0  0  0  0  0  0  0
  183.8180  170.3950  134.7860 C   0  0  0  0  0  3  0  0  0  0  0  0
  183.6220  171.6750  134.9390 C   0  0  0  0  0  0  0  0  0  0  0  0
  183.7460  169.4870  135.9620 C   0  0  0  0  0  1  0  0  0  0  0  0
  183.4230  172.9570  135.0970 C   0  0  0  0  0  3  0  0  0  0  0  0
  183.3830  174.4250  137.5100 N   0  0  0  0  0  2  0  0  0  0  0  0
  182.0990  175.0450  137.3790 C   0  0  0  0  0  0  0  0  0  0  0  0
  181.8220  175.7320  136.3590 O   0  0  0  0  0  0  0  0  0  0  0  0
  181.0650  174.8090  138.4310 C   0  0  1  0  0  3  0  0  0  0  0  0
  179.9830  175.8730  138.3540 C   0  0  0  0  0  1  0  0  0  0  0  0
  180.4770  173.4120  138.2780 C   0  0  0  0  0  2  0  0  0  0  0  0
  180.1620  173.1210  136.8210 C   0  0  0  0  0  1  0  0  0  0  0  0
  185.6460  174.0870  134.4600 C   0  0  0  0  0  2  0  0  0  0  0  0
  186.6460  172.9520  134.5960 C   0  0  0  0  0  2  0  0  0  0  0  0
  187.7350  173.3720  135.4570 N   0  0  0  0  0  1  0  0  0  0  0  0
  187.3770  177.1920  138.0810 N   0  0  0  0  0  2  0  0  0  0  0  0
  190.4970  176.3180  137.0420 N   0  0  0  0  0  0  0  0  0  0  0  0
  189.1310  178.3130  134.3920 F   0  0  0  0  0  0  0  0  0  0  0  0
  189.9640  176.4870  135.6860 C   0  0  0  0  0  2  0  0  0  0  0  0
  188.9070  178.5680  136.7450 C   0  0  0  0  0  2  0  0  0  0  0  0
  188.9120  177.6050  135.5600 C   0  0  1  0  0  3  0  0  0  0  0  0
  189.7500  176.7550  138.1970 C   0  0  0  0  0  0  0  0  0  0  0  0
  188.6990  177.8080  138.0550 C   0  0  2  0  0  3  0  0  0  0  0  0
  189.9140  176.1950  139.3110 O   0  0  0  0  0  0  0  0  0  0  0  0
  191.7340  174.1540  137.1990 C   0  0  0  0  0  0  0  0  0  0  0  0
  190.6730  173.4810  137.2970 O   0  0  0  0  0  0  0  0  0  0  0  0
  191.6870  175.5860  137.1830 N   0  0  0  0  0  2  0  0  0  0  0  0
  193.0450  173.4400  137.1910 C   0  0  1  0  0  3  0  0  0  0  0  0
  193.4590  173.0340  135.7840 C   0  0  0  0  0  1  0  0  0  0  0  0
  194.1390  174.2270  137.9150 C   0  0  0  0  0  2  0  0  0  0  0  0
  195.3460  174.5110  137.0360 C   0  0  0  0  0  1  0  0  0  0  0  0
  1 31  1  1  0  0  0
  1  2  1  0  0  0  0
  1 48  1  0  0  0  0
  2  3  1  0  0  0  0
  3  4  1  0  0  0  0
  3  5  2  0  0  0  0
  6  4  1  6  0  0  0
  6 10  1  0  0  0  0
  7  8  2  0  0  0  0
  8  6  1  0  0  0  0
  8  9  1  0  0  0  0
 10 12  1  0  0  0  0
 11 14  1  0  0  0  0
 12 11  2  0  0  0  0
 14 13  1  0  0  0  0
 15 14  2  0  0  0  0
 16 21  1  0  0  0  0
 17 19  1  0  0  0  0
 18 13  1  6  0  0  0
 18 17  1  0  0  0  0
 20 18  1  0  0  0  0
 20 16  1  0  0  0  0
 21 19  1  0  0  0  0
 22 16  1  0  0  0  0
 22 23  1  1  0  0  0
 25 24  1  1  0  0  0
 25 22  1  0  0  0  0
 26 25  1  0  0  0  0
 27 26  1  0  0  0  0
 28 27  1  0  0  0  0
 29 31  1  0  0  0  0
 31 30  2  0  0  0  0
 32 33  2  0  0  0  0
 33 30  1  0  0  0  0
 33 38  1  0  0  0  0
 34 35  2  0  0  0  0
 34 36  1  0  0  0  0
 35 37  2  0  0  0  0
 37 32  1  0  0  0  0
 39 38  1  0  0  0  0
 39 41  1  0  0  0  0
 40 39  2  0  0  0  0
 41 42  1  6  0  0  0
 43 41  1  0  0  0  0
 44 43  1  0  0  0  0
 45 46  1  0  0  0  0
 45 32  1  0  0  0  0
 46 47  1  0  0  0  0
 49 59  1  0  0  0  0
 49 54  1  0  0  0  0
 51 49  1  0  0  0  0
 52 55  1  0  0  0  0
 53 50  1  6  0  0  0
 53 51  1  0  0  0  0
 53 52  1  0  0  0  0
 54 56  2  0  0  0  0
 55 48  1  6  0  0  0
 55 54  1  0  0  0  0
 57 58  2  0  0  0  0
 59 57  1  0  0  0  0
 60 61  1  6  0  0  0
 60 57  1  0  0  0  0
 60 62  1  0  0  0  0
 63 62  1  0  0  0  0
M  END
>  <MODEL>
1

>  <REMARK>
 VINA RESULT:      -6.3      0.000      0.000
  Name = 
  24 active torsions:
  status: ('A' for Active; 'I' for Inactive)
    1  A    between atoms: N_2  and  C_57
    2  A    between atoms: C_4  and  O_42
    3  A    between atoms: C_5  and  C_32
    4  A    between atoms: C_6  and  N_20
    5  A    between atoms: C_6  and  C_30
    6  A    between atoms: N_7  and  N_58
    7  A    between atoms: N_8  and  C_38
    8  A    between atoms: C_9  and  C_32
    9  A    between atoms: C_9  and  C_63
   10  A    between atoms: C_10  and  C_34
   11  A    between atoms: C_10  and  C_47
   12  A    between atoms: C_11  and  C_18
   13  A    between atoms: C_13  and  C_16
   14  A    between atoms: C_15  and  C_23
   15  A    between atoms: C_18  and  N_31
   16  A    between atoms: C_18  and  N_40
   17  A    between atoms: C_23  and  C_43
   18  A    between atoms: N_25  and  C_60
   19  A    between atoms: C_30  and  O_42
   20  A    between atoms: C_36  and  N_37
   21  A    between atoms: N_37  and  C_57
   22  A    between atoms: N_40  and  N_46
   23  A    between atoms: C_44  and  C_60
   24  A    between atoms: C_57  and  C_61
                            x       y       z     vdW  Elec       q    Type
                         _______ _______ _______ _____ _____    ______ ____

>  <TORSDO>
F 24

$$$$
=
 OpenBabel10232411543D

 63 64  0  0  1  0  0  0  0  0999 V2000
  187.2310  178.1610  140.6210 C   0  0  2  0  0  3  0  0  0  0  0  0
  188.0790  178.7800  139.6070 N   0  0  0  0  0  2  0  0  0  0  0  0
  188.4740  178.0870  138.4220 C   0  0  0  0  0  0  0  0  0  0  0  0
  188.2160  176.6860  138.2860 N   0  0  0  0  0  2  0  0  0  0  0  0
  189.0590  178.7200  137.5060 O   0  0  0  0  0  0  0  0  0  0  0  0
  188.6240  175.9220  137.1180 C   0  0  2  0  0  3  0  0  0  0  0  0
  186.9300  174.2010  136.3310 N   0  0  0  0  0  1  0  0  0  0  0  0
  187.4170  175.5410  136.3190 C   0  0  0  0  0  0  0  0  0  0  0  0
  186.8370  176.4240  135.5770 N   0  0  0  0  0  2  0  0  0  0  0  0
  189.3580  174.7410  137.5520 N   0  0  0  0  0  2  0  0  0  0  0  0
  191.5460  175.4040  137.9940 C   0  0  0  0  0  3  0  0  0  0  0  0
  190.7380  174.6230  137.3600 N   0  0  0  0  0  0  0  0  0  0  0  0
  193.5410  174.1160  137.1880 N   0  0  0  0  0  2  0  0  0  0  0  0
  192.9950  175.2500  137.8700 C   0  0  0  0  0  0  0  0  0  0  0  0
  193.7530  176.0850  138.4260 O   0  0  0  0  0  0  0  0  0  0  0  0
  196.6660  172.1090  136.9620 N   0  0  0  0  0  0  0  0  0  0  0  0
  195.5860  174.6080  135.9440 C   0  0  0  0  0  2  0  0  0  0  0  0
  194.9720  173.8670  137.1300 C   0  0  2  0  0  3  0  0  0  0  0  0
  197.0580  174.2280  135.7820 C   0  0  0  0  0  2  0  0  0  0  0  0
  195.2220  172.3700  136.9700 C   0  0  0  0  0  2  0  0  0  0  0  0
  197.1950  172.7040  135.7270 C   0  0  0  0  0  2  0  0  0  0  0  0
  196.8860  170.6530  136.9210 C   0  0  1  0  0  3  0  0  0  0  0  0
  198.3070  170.3030  137.3710 C   0  0  0  0  0  1  0  0  0  0  0  0
  194.6830  169.4290  136.9430 C   0  0  0  0  0  1  0  0  0  0  0  0
  195.8570  169.8980  137.7860 C   0  0  1  0  0  3  0  0  0  0  0  0
  196.4420  168.8090  138.4440 O   0  0  0  0  0  0  0  0  0  0  0  0
  195.3760  168.1250  139.0340 C   0  0  0  0  0  2  0  0  0  0  0  0
  195.0250  168.7470  140.2330 O   0  0  0  0  0  1  0  0  0  0  0  0
  185.5490  179.9920  140.5320 O   0  0  0  0  0  1  0  0  0  0  0  0
  184.8290  177.7390  140.2790 C   0  0  0  0  0  3  0  0  0  0  0  0
  185.8120  178.6270  140.4580 C   0  0  0  0  0  0  0  0  0  0  0  0
  182.7210  178.4700  141.2980 C   0  0  0  0  0  0  0  0  0  0  0  0
  183.3880  178.0590  140.1980 C   0  0  0  0  0  0  0  0  0  0  0  0
  180.2820  180.8950  140.1340 C   0  0  0  0  0  3  0  0  0  0  0  0
  180.7760  179.8210  140.6810 C   0  0  0  0  0  0  0  0  0  0  0  0
  179.9850  180.9170  138.6770 C   0  0  0  0  0  1  0  0  0  0  0  0
  181.2700  178.7400  141.2260 C   0  0  0  0  0  3  0  0  0  0  0  0
  182.7240  177.9780  138.9270 N   0  0  0  0  0  2  0  0  0  0  0  0
  183.0350  176.9780  137.9510 C   0  0  0  0  0  0  0  0  0  0  0  0
  183.8550  176.0580  138.2180 O   0  0  0  0  0  0  0  0  0  0  0  0
  182.3240  176.9950  136.6380 C   0  0  1  0  0  3  0  0  0  0  0  0
  182.9770  176.0190  135.6730 C   0  0  0  0  0  1  0  0  0  0  0  0
  180.8510  176.6680  136.8400 C   0  0  0  0  0  2  0  0  0  0  0  0
  180.6520  175.1700  136.9990 C   0  0  0  0  0  1  0  0  0  0  0  0
  183.4260  178.5930  142.6240 C   0  0  0  0  0  2  0  0  0  0  0  0
  182.4440  179.0090  143.7050 C   0  0  0  0  0  2  0  0  0  0  0  0
  183.1320  179.0670  144.9820 N   0  0  0  0  0  1  0  0  0  0  0  0
  187.7390  178.4880  141.9480 N   0  0  0  0  0  2  0  0  0  0  0  0
  189.3320  177.5530  144.8050 N   0  0  0  0  0  0  0  0  0  0  0  0
  185.8380  177.5670  145.6190 F   0  0  0  0  0  0  0  0  0  0  0  0
  188.1620  178.1050  145.4970 C   0  0  0  0  0  2  0  0  0  0  0  0
  186.9190  176.8850  143.6150 C   0  0  0  0  0  2  0  0  0  0  0  0
  186.8370  177.9240  144.7320 C   0  0  1  0  0  3  0  0  0  0  0  0
  189.3320  177.3650  143.3740 C   0  0  0  0  0  0  0  0  0  0  0  0
  188.0390  177.2370  142.6360 C   0  0  2  0  0  3  0  0  0  0  0  0
  190.4110  177.3940  142.7290 O   0  0  0  0  0  0  0  0  0  0  0  0
  190.5080  177.3180  146.9950 C   0  0  0  0  0  0  0  0  0  0  0  0
  189.4910  177.6710  147.6510 O   0  0  0  0  0  0  0  0  0  0  0  0
  190.4970  177.3560  145.5630 N   0  0  0  0  0  2  0  0  0  0  0  0
  191.7520  176.9460  147.7330 C   0  0  1  0  0  3  0  0  0  0  0  0
  191.8080  177.5930  149.1090 C   0  0  0  0  0  1  0  0  0  0  0  0
  191.9610  175.4320  147.7920 C   0  0  0  0  0  2  0  0  0  0  0  0
  192.5150  174.8580  146.4970 C   0  0  0  0  0  1  0  0  0  0  0  0
  1  2  1  6  0  0  0
  1 48  1  0  0  0  0
  3  2  1  0  0  0  0
  4  3  1  0  0  0  0
  5  3  2  0  0  0  0
  6  8  1  1  0  0  0
  6 10  1  0  0  0  0
  6  4  1  0  0  0  0
  8  7  1  0  0  0  0
  9  8  2  0  0  0  0
 12 10  1  0  0  0  0
 12 11  2  0  0  0  0
 13 14  1  0  0  0  0
 14 11  1  0  0  0  0
 14 15  2  0  0  0  0
 16 20  1  0  0  0  0
 17 18  1  0  0  0  0
 18 13  1  6  0  0  0
 19 17  1  0  0  0  0
 20 18  1  0  0  0  0
 21 19  1  0  0  0  0
 21 16  1  0  0  0  0
 22 16  1  0  0  0  0
 22 23  1  1  0  0  0
 22 25  1  0  0  0  0
 25 24  1  6  0  0  0
 25 26  1  0  0  0  0
 26 27  1  0  0  0  0
 27 28  1  0  0  0  0
 30 31  2  0  0  0  0
 31 29  1  0  0  0  0
 31  1  1  0  0  0  0
 32 45  1  0  0  0  0
 33 30  1  0  0  0  0
 33 32  2  0  0  0  0
 34 35  2  0  0  0  0
 35 37  2  0  0  0  0
 36 34  1  0  0  0  0
 37 32  1  0  0  0  0
 38 33  1  0  0  0  0
 39 40  2  0  0  0  0
 39 38  1  0  0  0  0
 41 42  1  6  0  0  0
 41 43  1  0  0  0  0
 41 39  1  0  0  0  0
 43 44  1  0  0  0  0
 45 46  1  0  0  0  0
 46 47  1  0  0  0  0
 49 51  1  0  0  0  0
 49 59  1  0  0  0  0
 52 53  1  0  0  0  0
 53 51  1  0  0  0  0
 53 50  1  1  0  0  0
 54 49  1  0  0  0  0
 55 48  1  1  0  0  0
 55 54  1  0  0  0  0
 55 52  1  0  0  0  0
 56 54  2  0  0  0  0
 57 58  2  0  0  0  0
 57 60  1  0  0  0  0
 59 57  1  0  0  0  0
 60 62  1  0  0  0  0
 60 61  1  1  0  0  0
 63 62  1  0  0  0  0
M  END
>  <MODEL>
2

>  <REMARK>
 VINA RESULT:      -6.1      3.182      9.216
  Name = 
  24 active torsions:
  status: ('A' for Active; 'I' for Inactive)
    1  A    between atoms: N_2  and  C_57
    2  A    between atoms: C_4  and  O_42
    3  A    between atoms: C_5  and  C_32
    4  A    between atoms: C_6  and  N_20
    5  A    between atoms: C_6  and  C_30
    6  A    between atoms: N_7  and  N_58
    7  A    between atoms: N_8  and  C_38
    8  A    between atoms: C_9  and  C_32
    9  A    between atoms: C_9  and  C_63
   10  A    between atoms: C_10  and  C_34
   11  A    between atoms: C_10  and  C_47
   12  A    between atoms: C_11  and  C_18
   13  A    between atoms: C_13  and  C_16
   14  A    between atoms: C_15  and  C_23
   15  A    between atoms: C_18  and  N_31
   16  A    between atoms: C_18  and  N_40
   17  A    between atoms: C_23  and  C_43
   18  A    between atoms: N_25  and  C_60
   19  A    between atoms: C_30  and  O_42
   20  A    between atoms: C_36  and  N_37
   21  A    between atoms: N_37  and  C_57
   22  A    between atoms: N_40  and  N_46
   23  A    between atoms: C_44  and  C_60
   24  A    between atoms: C_57  and  C_61
                            x       y       z     vdW  Elec       q    Type
                         _______ _______ _______ _____ _____    ______ ____

>  <TORSDO>
F 24

$$$$
=
 OpenBabel10232411543D

 63 64  0  0  1  0  0  0  0  0999 V2000
  187.3250  178.6450  140.9910 C   0  0  2  0  0  3  0  0  0  0  0  0
  188.3410  179.2570  140.1400 N   0  0  0  0  0  2  0  0  0  0  0  0
  188.9280  178.5610  139.0390 C   0  0  0  0  0  0  0  0  0  0  0  0
  188.6850  177.1630  138.8560 N   0  0  0  0  0  2  0  0  0  0  0  0
  189.6680  179.1890  138.2390 O   0  0  0  0  0  0  0  0  0  0  0  0
  189.2800  176.3970  137.7740 C   0  0  2  0  0  3  0  0  0  0  0  0
  187.0960  175.1800  137.3300 N   0  0  0  0  0  1  0  0  0  0  0  0
  188.2090  175.9250  136.8410 C   0  0  0  0  0  0  0  0  0  0  0  0
  188.3160  176.1560  135.5760 N   0  0  0  0  0  2  0  0  0  0  0  0
  190.0190  175.2730  138.3340 N   0  0  0  0  0  2  0  0  0  0  0  0
  191.2030  173.9800  136.8020 C   0  0  0  0  0  3  0  0  0  0  0  0
  191.2210  174.8310  137.7730 N   0  0  0  0  0  0  0  0  0  0  0  0
  192.8560  172.1900  136.2040 N   0  0  0  0  0  2  0  0  0  0  0  0
  192.4410  173.5600  136.1470 C   0  0  0  0  0  0  0  0  0  0  0  0
  193.1680  174.4240  135.5950 O   0  0  0  0  0  0  0  0  0  0  0  0
  196.4760  171.3320  136.2090 N   0  0  0  0  0  0  0  0  0  0  0  0
  193.9890  170.3420  135.0750 C   0  0  0  0  0  2  0  0  0  0  0  0
  194.1280  171.7480  135.6580 C   0  0  2  0  0  3  0  0  0  0  0  0
  195.3540  169.8080  134.6420 C   0  0  0  0  0  2  0  0  0  0  0  0
  195.1780  171.7300  136.7650 C   0  0  0  0  0  2  0  0  0  0  0  0
  196.3460  169.9260  135.8010 C   0  0  0  0  0  2  0  0  0  0  0  0
  197.4970  171.4290  137.2660 C   0  0  1  0  0  3  0  0  0  0  0  0
  198.3610  170.1670  137.3070 C   0  0  0  0  0  1  0  0  0  0  0  0
  199.8150  172.2730  136.7480 C   0  0  0  0  0  1  0  0  0  0  0  0
  198.3880  172.6740  137.0810 C   0  0  1  0  0  3  0  0  0  0  0  0
  197.8830  173.5220  136.0880 O   0  0  0  0  0  0  0  0  0  0  0  0
  197.8220  174.7850  136.6830 C   0  0  0  0  0  2  0  0  0  0  0  0
  196.5220  175.0300  137.1320 O   0  0  0  0  0  1  0  0  0  0  0  0
  187.6300  176.3950  142.0060 O   0  0  0  0  0  1  0  0  0  0  0  0
  188.8410  178.2420  142.8900 C   0  0  0  0  0  3  0  0  0  0  0  0
  187.9760  177.7430  142.0010 C   0  0  0  0  0  0  0  0  0  0  0  0
  190.4870  176.6280  143.7250 C   0  0  0  0  0  0  0  0  0  0  0  0
  189.4760  177.4830  143.9880 C   0  0  0  0  0  0  0  0  0  0  0  0
  192.1310  176.9140  146.9500 C   0  0  0  0  0  3  0  0  0  0  0  0
  191.6110  176.3750  145.8840 C   0  0  0  0  0  0  0  0  0  0  0  0
  191.2720  177.2040  148.1290 C   0  0  0  0  0  1  0  0  0  0  0  0
  191.0860  175.8320  144.8170 C   0  0  0  0  0  3  0  0  0  0  0  0
  189.0400  177.7090  145.3380 N   0  0  0  0  0  2  0  0  0  0  0  0
  187.7310  177.3590  145.8000 C   0  0  0  0  0  0  0  0  0  0  0  0
  186.9310  176.7420  145.0450 O   0  0  0  0  0  0  0  0  0  0  0  0
  187.3480  177.6690  147.2100 C   0  0  1  0  0  3  0  0  0  0  0  0
  188.5890  177.9410  148.0450 C   0  0  0  0  0  1  0  0  0  0  0  0
  186.3940  178.8550  147.2400 C   0  0  0  0  0  2  0  0  0  0  0  0
  185.0010  178.4320  146.8050 C   0  0  0  0  0  1  0  0  0  0  0  0
  190.9710  176.4200  142.3140 C   0  0  0  0  0  2  0  0  0  0  0  0
  191.9130  177.5410  141.9100 C   0  0  0  0  0  2  0  0  0  0  0  0
  192.3670  177.3210  140.5510 N   0  0  0  0  0  1  0  0  0  0  0  0
  186.3770  177.9070  140.1660 N   0  0  0  0  0  2  0  0  0  0  0  0
  183.2580  177.7250  138.8180 N   0  0  0  0  0  0  0  0  0  0  0  0
  182.7550  178.4330  142.2990 F   0  0  0  0  0  0  0  0  0  0  0  0
  182.8250  177.3540  140.1700 C   0  0  0  0  0  2  0  0  0  0  0  0
  184.4270  179.2470  140.8180 C   0  0  0  0  0  2  0  0  0  0  0  0
  183.6220  178.0400  141.2950 C   0  0  1  0  0  3  0  0  0  0  0  0
  184.5890  178.2260  138.5730 C   0  0  0  0  0  0  0  0  0  0  0  0
  185.3710  178.8490  139.6840 C   0  0  2  0  0  3  0  0  0  0  0  0
  185.1330  178.0650  137.4510 O   0  0  0  0  0  0  0  0  0  0  0  0
  181.6320  178.4400  137.0630 C   0  0  0  0  0  0  0  0  0  0  0  0
  181.5640  179.6140  137.5130 O   0  0  0  0  0  0  0  0  0  0  0  0
  182.3840  177.4370  137.7570 N   0  0  0  0  0  2  0  0  0  0  0  0
  180.8460  178.0860  135.8440 C   0  0  1  0  0  3  0  0  0  0  0  0
  180.5290  179.3120  134.9990 C   0  0  0  0  0  1  0  0  0  0  0  0
  181.5060  176.9720  135.0290 C   0  0  0  0  0  2  0  0  0  0  0  0
  182.7950  177.4150  134.3540 C   0  0  0  0  0  1  0  0  0  0  0  0
  1  2  1  6  0  0  0
  1 31  1  0  0  0  0
  3  2  1  0  0  0  0
  4  3  1  0  0  0  0
  5  3  2  0  0  0  0
  6  8  1  6  0  0  0
  6 10  1  0  0  0  0
  6  4  1  0  0  0  0
  8  7  1  0  0  0  0
  9  8  2  0  0  0  0
 11 12  2  0  0  0  0
 12 10  1  0  0  0  0
 14 13  1  0  0  0  0
 14 11  1  0  0  0  0
 15 14  2  0  0  0  0
 16 20  1  0  0  0  0
 16 22  1  0  0  0  0
 17 18  1  0  0  0  0
 18 13  1  1  0  0  0
 18 20  1  0  0  0  0
 19 17  1  0  0  0  0
 19 21  1  0  0  0  0
 21 16  1  0  0  0  0
 22 23  1  6  0  0  0
 25 24  1  6  0  0  0
 25 22  1  0  0  0  0
 26 27  1  0  0  0  0
 26 25  1  0  0  0  0
 27 28  1  0  0  0  0
 30 33  1  0  0  0  0
 31 29  1  0  0  0  0
 31 30  2  0  0  0  0
 32 33  2  0  0  0  0
 32 37  1  0  0  0  0
 33 38  1  0  0  0  0
 34 36  1  0  0  0  0
 35 34  2  0  0  0  0
 37 35  2  0  0  0  0
 38 39  1  0  0  0  0
 39 41  1  0  0  0  0
 40 39  2  0  0  0  0
 41 43  1  0  0  0  0
 41 42  1  1  0  0  0
 44 43  1  0  0  0  0
 45 32  1  0  0  0  0
 46 45  1  0  0  0  0
 47 46  1  0  0  0  0
 48  1  1  0  0  0  0
 49 51  1  0  0  0  0
 51 53  1  0  0  0  0
 52 53  1  0  0  0  0
 53 50  1  1  0  0  0
 54 49  1  0  0  0  0
 54 55  1  0  0  0  0
 55 48  1  1  0  0  0
 55 52  1  0  0  0  0
 56 54  2  0  0  0  0
 57 58  2  0  0  0  0
 57 59  1  0  0  0  0
 59 49  1  0  0  0  0
 60 61  1  6  0  0  0
 60 57  1  0  0  0  0
 62 60  1  0  0  0  0
 63 62  1  0  0  0  0
M  END
>  <MODEL>
3

>  <REMARK>
 VINA RESULT:      -6.1      3.135     10.596
  Name = 
  24 active torsions:
  status: ('A' for Active; 'I' for Inactive)
    1  A    between atoms: N_2  and  C_57
    2  A    between atoms: C_4  and  O_42
    3  A    between atoms: C_5  and  C_32
    4  A    between atoms: C_6  and  N_20
    5  A    between atoms: C_6  and  C_30
    6  A    between atoms: N_7  and  N_58
    7  A    between atoms: N_8  and  C_38
    8  A    between atoms: C_9  and  C_32
    9  A    between atoms: C_9  and  C_63
   10  A    between atoms: C_10  and  C_34
   11  A    between atoms: C_10  and  C_47
   12  A    between atoms: C_11  and  C_18
   13  A    between atoms: C_13  and  C_16
   14  A    between atoms: C_15  and  C_23
   15  A    between atoms: C_18  and  N_31
   16  A    between atoms: C_18  and  N_40
   17  A    between atoms: C_23  and  C_43
   18  A    between atoms: N_25  and  C_60
   19  A    between atoms: C_30  and  O_42
   20  A    between atoms: C_36  and  N_37
   21  A    between atoms: N_37  and  C_57
   22  A    between atoms: N_40  and  N_46
   23  A    between atoms: C_44  and  C_60
   24  A    between atoms: C_57  and  C_61
                            x       y       z     vdW  Elec       q    Type
                         _______ _______ _______ _____ _____    ______ ____

>  <TORSDO>
F 24

$$$$
=
 OpenBabel10232411543D

 63 64  0  0  1  0  0  0  0  0999 V2000
  187.6210  178.6780  140.7290 C   0  0  2  0  0  3  0  0  0  0  0  0
  188.8550  178.8610  139.9720 N   0  0  0  0  0  2  0  0  0  0  0  0
  189.1870  178.0420  138.8500 C   0  0  0  0  0  0  0  0  0  0  0  0
  188.4110  176.8760  138.5540 N   0  0  0  0  0  2  0  0  0  0  0  0
  190.1730  178.3510  138.1330 O   0  0  0  0  0  0  0  0  0  0  0  0
  188.7200  175.9880  137.4460 C   0  0  2  0  0  3  0  0  0  0  0  0
  186.9850  176.0810  135.5930 N   0  0  0  0  0  2  0  0  0  0  0  0
  187.4510  175.5090  136.8140 C   0  0  0  0  0  0  0  0  0  0  0  0
  186.7480  174.5990  137.4020 N   0  0  0  0  0  1  0  0  0  0  0  0
  189.5150  174.8700  137.9370 N   0  0  0  0  0  2  0  0  0  0  0  0
  191.6550  174.3630  137.1730 C   0  0  0  0  0  3  0  0  0  0  0  0
  190.3820  174.1620  137.0990 N   0  0  0  0  0  0  0  0  0  0  0  0
  193.2660  172.4550  136.9330 N   0  0  0  0  0  2  0  0  0  0  0  0
  192.5880  173.5800  136.3630 C   0  0  0  0  0  0  0  0  0  0  0  0
  192.8400  173.9470  135.1870 O   0  0  0  0  0  0  0  0  0  0  0  0
  196.5990  170.9390  136.2720 N   0  0  0  0  0  0  0  0  0  0  0  0
  193.7870  170.2940  135.9190 C   0  0  0  0  0  2  0  0  0  0  0  0
  194.2780  171.7120  136.2000 C   0  0  2  0  0  3  0  0  0  0  0  0
  194.9020  169.4590  135.2890 C   0  0  0  0  0  2  0  0  0  0  0  0
  195.5580  171.6450  137.0280 C   0  0  0  0  0  2  0  0  0  0  0  0
  196.1610  169.5410  136.1560 C   0  0  0  0  0  2  0  0  0  0  0  0
  197.8560  170.9830  137.0370 C   0  0  1  0  0  3  0  0  0  0  0  0
  198.6240  169.6660  136.8990 C   0  0  0  0  0  1  0  0  0  0  0  0
  198.9270  172.1730  135.0920 C   0  0  0  0  0  1  0  0  0  0  0  0
  198.7470  172.1620  136.6000 C   0  0  1  0  0  3  0  0  0  0  0  0
  198.2220  173.3880  137.0300 O   0  0  0  0  0  0  0  0  0  0  0  0
  199.2340  173.9680  137.7980 C   0  0  0  0  0  2  0  0  0  0  0  0
  200.2300  173.0240  138.0540 O   0  0  0  0  0  1  0  0  0  0  0  0
  187.4730  176.6590  142.1750 O   0  0  0  0  0  1  0  0  0  0  0  0
  188.5500  178.6090  143.0090 C   0  0  0  0  0  3  0  0  0  0  0  0
  187.9120  177.9710  142.0220 C   0  0  0  0  0  0  0  0  0  0  0  0
  189.9410  177.3540  144.5920 C   0  0  0  0  0  0  0  0  0  0  0  0
  188.8140  178.0590  144.3560 C   0  0  0  0  0  0  0  0  0  0  0  0
  189.7710  178.0690  148.1480 C   0  0  0  0  0  3  0  0  0  0  0  0
  189.9760  177.4180  147.0380 C   0  0  0  0  0  0  0  0  0  0  0  0
  188.4270  178.0470  148.7840 C   0  0  0  0  0  1  0  0  0  0  0  0
  190.1780  176.7620  145.9260 C   0  0  0  0  0  3  0  0  0  0  0  0
  187.8850  178.3320  145.4170 N   0  0  0  0  0  2  0  0  0  0  0  0
  186.5910  177.7220  145.4920 C   0  0  0  0  0  0  0  0  0  0  0  0
  186.2540  176.8360  144.6600 O   0  0  0  0  0  0  0  0  0  0  0  0
  185.6730  178.0960  146.6080 C   0  0  1  0  0  3  0  0  0  0  0  0
  186.0280  179.4740  147.1430 C   0  0  0  0  0  1  0  0  0  0  0  0
  184.2280  178.0460  146.1310 C   0  0  0  0  0  2  0  0  0  0  0  0
  183.9380  179.1950  145.1800 C   0  0  0  0  0  1  0  0  0  0  0  0
  190.9360  177.1020  143.4890 C   0  0  0  0  0  2  0  0  0  0  0  0
  190.6160  175.7970  142.7810 C   0  0  0  0  0  2  0  0  0  0  0  0
  190.6640  176.0060  141.3460 N   0  0  0  0  0  1  0  0  0  0  0  0
  186.6630  177.9270  139.9270 N   0  0  0  0  0  2  0  0  0  0  0  0
  183.4580  177.6580  138.8200 N   0  0  0  0  0  0  0  0  0  0  0  0
  183.2010  178.3470  142.3310 F   0  0  0  0  0  0  0  0  0  0  0  0
  183.1390  177.2730  140.1990 C   0  0  0  0  0  2  0  0  0  0  0  0
  184.7320  179.2100  140.7300 C   0  0  0  0  0  2  0  0  0  0  0  0
  183.9990  177.9810  141.2620 C   0  0  1  0  0  3  0  0  0  0  0  0
  184.7510  178.1970  138.4760 C   0  0  0  0  0  0  0  0  0  0  0  0
  185.5980  178.8400  139.5260 C   0  0  2  0  0  3  0  0  0  0  0  0
  185.2120  178.0520  137.3150 O   0  0  0  0  0  0  0  0  0  0  0  0
  182.3510  176.0320  137.2800 C   0  0  0  0  0  0  0  0  0  0  0  0
  183.1980  175.1310  137.5200 O   0  0  0  0  0  0  0  0  0  0  0  0
  182.5140  177.3460  137.8270 N   0  0  0  0  0  2  0  0  0  0  0  0
  181.2250  175.7370  136.3450 C   0  0  1  0  0  3  0  0  0  0  0  0
  181.1670  176.7340  135.1970 C   0  0  0  0  0  1  0  0  0  0  0  0
  181.2410  174.2870  135.8570 C   0  0  0  0  0  2  0  0  0  0  0  0
  181.6010  174.1600  134.3850 C   0  0  0  0  0  1  0  0  0  0  0  0
  1 48  1  6  0  0  0
  1 31  1  0  0  0  0
  2  1  1  0  0  0  0
  3  2  1  0  0  0  0
  4  3  1  0  0  0  0
  5  3  2  0  0  0  0
  6  8  1  1  0  0  0
  6 10  1  0  0  0  0
  6  4  1  0  0  0  0
  7  8  2  0  0  0  0
  8  9  1  0  0  0  0
 12 11  2  0  0  0  0
 12 10  1  0  0  0  0
 14 13  1  0  0  0  0
 14 11  1  0  0  0  0
 15 14  2  0  0  0  0
 16 20  1  0  0  0  0
 16 22  1  0  0  0  0
 17 18  1  0  0  0  0
 18 13  1  1  0  0  0
 18 20  1  0  0  0  0
 19 17  1  0  0  0  0
 19 21  1  0  0  0  0
 21 16  1  0  0  0  0
 22 23  1  6  0  0  0
 25 24  1  6  0  0  0
 25 26  1  0  0  0  0
 25 22  1  0  0  0  0
 26 27  1  0  0  0  0
 27 28  1  0  0  0  0
 30 33  1  0  0  0  0
 31 29  1  0  0  0  0
 31 30  2  0  0  0  0
 32 37  1  0  0  0  0
 33 32  2  0  0  0  0
 33 38  1  0  0  0  0
 34 36  1  0  0  0  0
 35 34  2  0  0  0  0
 37 35  2  0  0  0  0
 38 39  1  0  0  0  0
 39 41  1  0  0  0  0
 40 39  2  0  0  0  0
 41 42  1  6  0  0  0
 43 41  1  0  0  0  0
 44 43  1  0  0  0  0
 45 32  1  0  0  0  0
 46 45  1  0  0  0  0
 47 46  1  0  0  0  0
 49 51  1  0  0  0  0
 51 53  1  0  0  0  0
 52 53  1  0  0  0  0
 53 50  1  1  0  0  0
 54 49  1  0  0  0  0
 54 55  1  0  0  0  0
 55 48  1  1  0  0  0
 55 52  1  0  0  0  0
 56 54  2  0  0  0  0
 57 58  2  0  0  0  0
 57 59  1  0  0  0  0
 59 49  1  0  0  0  0
 60 61  1  6  0  0  0
 60 57  1  0  0  0  0
 62 60  1  0  0  0  0
 63 62  1  0  0  0  0
M  END
>  <MODEL>
4

>  <REMARK>
 VINA RESULT:      -6.1      3.181     10.427
  Name = 
  24 active torsions:
  status: ('A' for Active; 'I' for Inactive)
    1  A    between atoms: N_2  and  C_57
    2  A    between atoms: C_4  and  O_42
    3  A    between atoms: C_5  and  C_32
    4  A    between atoms: C_6  and  N_20
    5  A    between atoms: C_6  and  C_30
    6  A    between atoms: N_7  and  N_58
    7  A    between atoms: N_8  and  C_38
    8  A    between atoms: C_9  and  C_32
    9  A    between atoms: C_9  and  C_63
   10  A    between atoms: C_10  and  C_34
   11  A    between atoms: C_10  and  C_47
   12  A    between atoms: C_11  and  C_18
   13  A    between atoms: C_13  and  C_16
   14  A    between atoms: C_15  and  C_23
   15  A    between atoms: C_18  and  N_31
   16  A    between atoms: C_18  and  N_40
   17  A    between atoms: C_23  and  C_43
   18  A    between atoms: N_25  and  C_60
   19  A    between atoms: C_30  and  O_42
   20  A    between atoms: C_36  and  N_37
   21  A    between atoms: N_37  and  C_57
   22  A    between atoms: N_40  and  N_46
   23  A    between atoms: C_44  and  C_60
   24  A    between atoms: C_57  and  C_61
                            x       y       z     vdW  Elec       q    Type
                         _______ _______ _______ _____ _____    ______ ____

>  <TORSDO>
F 24

$$$$
=
 OpenBabel10232411543D

 63 64  0  0  1  0  0  0  0  0999 V2000
  187.9770  178.4000  141.1120 C   0  0  2  0  0  3  0  0  0  0  0  0
  188.3170  179.0330  139.8420 N   0  0  0  0  0  2  0  0  0  0  0  0
  188.7440  178.2780  138.7070 C   0  0  0  0  0  0  0  0  0  0  0  0
  189.0500  176.8860  138.8410 N   0  0  0  0  0  2  0  0  0  0  0  0
  188.8580  178.8520  137.5940 O   0  0  0  0  0  0  0  0  0  0  0  0
  189.5190  176.0750  137.7300 C   0  0  2  0  0  3  0  0  0  0  0  0
  191.8090  176.8710  138.4890 N   0  0  0  0  0  1  0  0  0  0  0  0
  190.9580  176.3820  137.4540 C   0  0  0  0  0  0  0  0  0  0  0  0
  191.4230  176.2440  136.2580 N   0  0  0  0  0  2  0  0  0  0  0  0
  188.6940  176.3430  136.5600 N   0  0  0  0  0  2  0  0  0  0  0  0
  187.3720  174.4580  136.9110 C   0  0  0  0  0  3  0  0  0  0  0  0
  187.6240  175.5130  136.2110 N   0  0  0  0  0  0  0  0  0  0  0  0
  185.3990  173.1110  137.6760 N   0  0  0  0  0  2  0  0  0  0  0  0
  186.2140  173.6170  136.6130 C   0  0  0  0  0  0  0  0  0  0  0  0
  185.9820  173.2880  135.4210 O   0  0  0  0  0  0  0  0  0  0  0  0
  181.9160  172.0510  136.9060 N   0  0  0  0  0  0  0  0  0  0  0  0
  184.6410  171.2640  136.2670 C   0  0  0  0  0  2  0  0  0  0  0  0
  184.3020  172.1880  137.4350 C   0  0  2  0  0  3  0  0  0  0  0  0
  183.4330  170.3980  135.9060 C   0  0  0  0  0  2  0  0  0  0  0  0
  183.0390  172.9760  137.1010 C   0  0  0  0  0  2  0  0  0  0  0  0
  182.2080  171.2880  135.6850 C   0  0  0  0  0  2  0  0  0  0  0  0
  180.6860  172.8340  136.6970 C   0  0  1  0  0  3  0  0  0  0  0  0
  180.1190  173.3250  138.0320 C   0  0  0  0  0  1  0  0  0  0  0  0
  180.0500  173.9230  134.5160 C   0  0  0  0  0  1  0  0  0  0  0  0
  180.9260  174.0280  135.7530 C   0  0  1  0  0  3  0  0  0  0  0  0
  180.6960  175.2480  136.4020 O   0  0  0  0  0  0  0  0  0  0  0  0
  181.4560  176.1850  135.6970 C   0  0  0  0  0  2  0  0  0  0  0  0
  180.6320  177.2230  135.2580 O   0  0  0  0  0  1  0  0  0  0  0  0
  186.2390  180.1270  141.5440 O   0  0  0  0  0  1  0  0  0  0  0  0
  185.7040  177.8320  141.8730 C   0  0  0  0  0  3  0  0  0  0  0  0
  186.5810  178.7770  141.5170 C   0  0  0  0  0  0  0  0  0  0  0  0
  184.1500  178.6130  143.6020 C   0  0  0  0  0  0  0  0  0  0  0  0
  184.3360  178.0760  142.3770 C   0  0  0  0  0  0  0  0  0  0  0  0
  180.9200  180.0600  142.7880 C   0  0  0  0  0  3  0  0  0  0  0  0
  181.8500  179.4370  143.4550 C   0  0  0  0  0  0  0  0  0  0  0  0
  180.0560  179.3060  141.8410 C   0  0  0  0  0  1  0  0  0  0  0  0
  182.7810  178.8080  144.1240 C   0  0  0  0  0  3  0  0  0  0  0  0
  183.2150  177.7850  141.5260 N   0  0  0  0  0  2  0  0  0  0  0  0
  182.9600  178.4950  140.3090 C   0  0  0  0  0  0  0  0  0  0  0  0
  183.7800  179.3550  139.8870 O   0  0  0  0  0  0  0  0  0  0  0  0
  181.7470  178.1550  139.5080 C   0  0  1  0  0  3  0  0  0  0  0  0
  181.7930  178.8540  138.1590 C   0  0  0  0  0  1  0  0  0  0  0  0
  181.6400  176.6450  139.3430 C   0  0  0  0  0  2  0  0  0  0  0  0
  180.3870  176.1200  140.0220 C   0  0  0  0  0  1  0  0  0  0  0  0
  185.3260  178.9550  144.4780 C   0  0  0  0  0  2  0  0  0  0  0  0
  185.1760  178.2990  145.8400 C   0  0  0  0  0  2  0  0  0  0  0  0
  185.6510  179.2080  146.8660 N   0  0  0  0  0  1  0  0  0  0  0  0
  188.9410  178.7990  142.1300 N   0  0  0  0  0  2  0  0  0  0  0  0
  190.1380  177.2230  144.8970 N   0  0  0  0  0  0  0  0  0  0  0  0
  187.3050  175.2890  143.8460 F   0  0  0  0  0  0  0  0  0  0  0  0
  188.7660  176.7320  145.0650 C   0  0  0  0  0  2  0  0  0  0  0  0
  188.9620  176.3790  142.5340 C   0  0  0  0  0  2  0  0  0  0  0  0
  188.0290  176.4630  143.7400 C   0  0  1  0  0  3  0  0  0  0  0  0
  190.5500  177.8840  143.6820 C   0  0  0  0  0  0  0  0  0  0  0  0
  189.7980  177.6520  142.4120 C   0  0  2  0  0  3  0  0  0  0  0  0
  191.4850  178.7240  143.7010 O   0  0  0  0  0  0  0  0  0  0  0  0
  190.5210  176.9370  147.3480 C   0  0  0  0  0  0  0  0  0  0  0  0
  189.2910  176.9980  147.6120 O   0  0  0  0  0  0  0  0  0  0  0  0
  190.9890  177.1570  146.0120 N   0  0  0  0  0  2  0  0  0  0  0  0
  191.4910  176.7200  148.4630 C   0  0  1  0  0  3  0  0  0  0  0  0
  192.6790  175.8760  148.0230 C   0  0  0  0  0  1  0  0  0  0  0  0
  191.9200  178.0310  149.1230 C   0  0  0  0  0  2  0  0  0  0  0  0
  193.2470  177.9190  149.8580 C   0  0  0  0  0  1  0  0  0  0  0  0
  1  2  1  6  0  0  0
  1 31  1  0  0  0  0
  1 48  1  0  0  0  0
  3  4  1  0  0  0  0
  3  2  1  0  0  0  0
  5  3  2  0  0  0  0
  6 10  1  6  0  0  0
  6  4  1  0  0  0  0
  8  6  1  0  0  0  0
  8  7  1  0  0  0  0
  9  8  2  0  0  0  0
 12 10  1  0  0  0  0
 12 11  2  0  0  0  0
 14 11  1  0  0  0  0
 14 13  1  0  0  0  0
 15 14  2  0  0  0  0
 16 20  1  0  0  0  0
 17 18  1  0  0  0  0
 18 13  1  6  0  0  0
 19 17  1  0  0  0  0
 20 18  1  0  0  0  0
 21 19  1  0  0  0  0
 21 16  1  0  0  0  0
 22 16  1  0  0  0  0
 22 23  1  1  0  0  0
 25 24  1  6  0  0  0
 25 26  1  0  0  0  0
 25 22  1  0  0  0  0
 27 26  1  0  0  0  0
 28 27  1  0  0  0  0
 30 33  1  0  0  0  0
 31 29  1  0  0  0  0
 31 30  2  0  0  0  0
 32 37  1  0  0  0  0
 32 45  1  0  0  0  0
 33 32  2  0  0  0  0
 34 35  2  0  0  0  0
 35 37  2  0  0  0  0
 36 34  1  0  0  0  0
 38 33  1  0  0  0  0
 39 38  1  0  0  0  0
 40 39  2  0  0  0  0
 41 42  1  6  0  0  0
 41 39  1  0  0  0  0
 43 41  1  0  0  0  0
 43 44  1  0  0  0  0
 45 46  1  0  0  0  0
 46 47  1  0  0  0  0
 49 51  1  0  0  0  0
 49 59  1  0  0  0  0
 52 53  1  0  0  0  0
 53 50  1  1  0  0  0
 53 51  1  0  0  0  0
 54 56  2  0  0  0  0
 54 49  1  0  0  0  0
 55 48  1  1  0  0  0
 55 52  1  0  0  0  0
 55 54  1  0  0  0  0
 57 58  2  0  0  0  0
 57 60  1  0  0  0  0
 59 57  1  0  0  0  0
 60 61  1  6  0  0  0
 60 62  1  0  0  0  0
 62 63  1  0  0  0  0
M  END
>  <MODEL>
5

>  <REMARK>
 VINA RESULT:      -5.7      2.672      9.690
  Name = 
  24 active torsions:
  status: ('A' for Active; 'I' for Inactive)
    1  A    between atoms: N_2  and  C_57
    2  A    between atoms: C_4  and  O_42
    3  A    between atoms: C_5  and  C_32
    4  A    between atoms: C_6  and  N_20
    5  A    between atoms: C_6  and  C_30
    6  A    between atoms: N_7  and  N_58
    7  A    between atoms: N_8  and  C_38
    8  A    between atoms: C_9  and  C_32
    9  A    between atoms: C_9  and  C_63
   10  A    between atoms: C_10  and  C_34
   11  A    between atoms: C_10  and  C_47
   12  A    between atoms: C_11  and  C_18
   13  A    between atoms: C_13  and  C_16
   14  A    between atoms: C_15  and  C_23
   15  A    between atoms: C_18  and  N_31
   16  A    between atoms: C_18  and  N_40
   17  A    between atoms: C_23  and  C_43
   18  A    between atoms: N_25  and  C_60
   19  A    between atoms: C_30  and  O_42
   20  A    between atoms: C_36  and  N_37
   21  A    between atoms: N_37  and  C_57
   22  A    between atoms: N_40  and  N_46
   23  A    between atoms: C_44  and  C_60
   24  A    between atoms: C_57  and  C_61
                            x       y       z     vdW  Elec       q    Type
                         _______ _______ _______ _____ _____    ______ ____

>  <TORSDO>
F 24

$$$$
=
 OpenBabel10232411543D

 63 64  0  0  1  0  0  0  0  0999 V2000
  187.3480  178.2860  141.5200 C   0  0  2  0  0  3  0  0  0  0  0  0
  187.8730  176.9250  141.5710 N   0  0  0  0  0  2  0  0  0  0  0  0
  189.1120  176.6120  142.2080 C   0  0  0  0  0  0  0  0  0  0  0  0
  189.9840  177.6600  142.6430 N   0  0  0  0  0  2  0  0  0  0  0  0
  189.4330  175.4070  142.3720 O   0  0  0  0  0  0  0  0  0  0  0  0
  191.2710  177.4030  143.2680 C   0  0  2  0  0  3  0  0  0  0  0  0
  192.0720  179.5570  144.3490 N   0  0  0  0  0  2  0  0  0  0  0  0
  191.4360  178.2860  144.4650 C   0  0  0  0  0  0  0  0  0  0  0  0
  191.0380  177.8740  145.6230 N   0  0  0  0  0  1  0  0  0  0  0  0
  192.3290  177.6380  142.2950 N   0  0  0  0  0  2  0  0  0  0  0  0
  192.7840  177.5850  140.0120 C   0  0  0  0  0  3  0  0  0  0  0  0
  192.3570  176.9730  141.0650 N   0  0  0  0  0  0  0  0  0  0  0  0
  191.9850  175.8340  138.4030 N   0  0  0  0  0  2  0  0  0  0  0  0
  192.8960  176.8890  138.7310 C   0  0  0  0  0  0  0  0  0  0  0  0
  193.8400  177.1800  137.9520 O   0  0  0  0  0  0  0  0  0  0  0  0
  193.3470  173.1900  136.1680 N   0  0  0  0  0  0  0  0  0  0  0  0
  190.7880  174.3970  136.8310 C   0  0  0  0  0  2  0  0  0  0  0  0
  192.1230  175.0460  137.1890 C   0  0  2  0  0  3  0  0  0  0  0  0
  190.9590  173.4430  135.6490 C   0  0  0  0  0  2  0  0  0  0  0  0
  193.1690  173.9560  137.4060 C   0  0  0  0  0  2  0  0  0  0  0  0
  192.0940  172.4570  135.9410 C   0  0  0  0  0  2  0  0  0  0  0  0
  194.4380  172.2190  136.3620 C   0  0  1  0  0  3  0  0  0  0  0  0
  193.9260  170.7850  136.2010 C   0  0  0  0  0  1  0  0  0  0  0  0
  196.4440  173.6560  135.8510 C   0  0  0  0  0  1  0  0  0  0  0  0
  195.6070  172.4750  135.3900 C   0  0  1  0  0  3  0  0  0  0  0  0
  196.4140  171.3400  135.2490 O   0  0  0  0  0  0  0  0  0  0  0  0
  197.6610  171.7140  135.7550 C   0  0  0  0  0  2  0  0  0  0  0  0
  198.5870  171.7890  134.7130 O   0  0  0  0  0  1  0  0  0  0  0  0
  185.6250  177.3200  143.0330 O   0  0  0  0  0  1  0  0  0  0  0  0
  185.1330  179.3170  141.8370 C   0  0  0  0  0  3  0  0  0  0  0  0
  185.9850  178.3350  142.1500 C   0  0  0  0  0  0  0  0  0  0  0  0
  183.4820  179.6070  143.6270 C   0  0  0  0  0  0  0  0  0  0  0  0
  183.7380  179.4270  142.3130 C   0  0  0  0  0  0  0  0  0  0  0  0
  180.2810  177.9040  143.4340 C   0  0  0  0  0  3  0  0  0  0  0  0
  181.1820  178.7850  143.7670 C   0  0  0  0  0  0  0  0  0  0  0  0
  180.1180  176.6660  144.2420 C   0  0  0  0  0  1  0  0  0  0  0  0
  182.0850  179.6660  144.1070 C   0  0  0  0  0  3  0  0  0  0  0  0
  182.6670  179.3960  141.3560 N   0  0  0  0  0  2  0  0  0  0  0  0
  182.3570  178.2350  140.5780 C   0  0  0  0  0  0  0  0  0  0  0  0
  182.9670  177.1490  140.7780 O   0  0  0  0  0  0  0  0  0  0  0  0
  181.2530  178.3040  139.5740 C   0  0  1  0  0  3  0  0  0  0  0  0
  180.2540  179.3820  139.9640 C   0  0  0  0  0  1  0  0  0  0  0  0
  181.8270  178.5600  138.1870 C   0  0  0  0  0  2  0  0  0  0  0  0
  181.5610  179.9900  137.7530 C   0  0  0  0  0  1  0  0  0  0  0  0
  184.6070  179.6810  144.6260 C   0  0  0  0  0  2  0  0  0  0  0  0
  184.3220  178.7690  145.8070 C   0  0  0  0  0  2  0  0  0  0  0  0
  185.3820  178.9070  146.7870 N   0  0  0  0  0  1  0  0  0  0  0  0
  187.3000  178.7400  140.1360 N   0  0  0  0  0  2  0  0  0  0  0  0
  186.4790  177.9520  136.9300 N   0  0  0  0  0  0  0  0  0  0  0  0
  189.9850  178.7100  136.8600 F   0  0  0  0  0  0  0  0  0  0  0  0
  187.6170  178.7970  136.5560 C   0  0  0  0  0  2  0  0  0  0  0  0
  188.7190  177.5650  138.5150 C   0  0  0  0  0  2  0  0  0  0  0  0
  188.7890  178.7500  137.5540 C   0  0  1  0  0  3  0  0  0  0  0  0
  186.2570  177.5640  138.3020 C   0  0  0  0  0  0  0  0  0  0  0  0
  187.3920  177.5660  139.2740 C   0  0  2  0  0  3  0  0  0  0  0  0
  185.0960  177.3070  138.7100 O   0  0  0  0  0  0  0  0  0  0  0  0
  185.1110  176.3270  135.6170 C   0  0  0  0  0  0  0  0  0  0  0  0
  185.7240  175.3320  136.0880 O   0  0  0  0  0  0  0  0  0  0  0  0
  185.5360  177.6580  135.9310 N   0  0  0  0  0  2  0  0  0  0  0  0
  183.9910  176.0970  134.6560 C   0  0  1  0  0  3  0  0  0  0  0  0
  183.8020  174.6180  134.3510 C   0  0  0  0  0  1  0  0  0  0  0  0
  182.6930  176.7700  135.1050 C   0  0  0  0  0  2  0  0  0  0  0  0
  182.3970  178.0540  134.3480 C   0  0  0  0  0  1  0  0  0  0  0  0
  1 48  1  6  0  0  0
  1  2  1  0  0  0  0
  1 31  1  0  0  0  0
  2  3  1  0  0  0  0
  3  5  2  0  0  0  0
  3  4  1  0  0  0  0
  4  6  1  0  0  0  0
  6 10  1  6  0  0  0
  6  8  1  0  0  0  0
  7  8  2  0  0  0  0
  8  9  1  0  0  0  0
 11 12  2  0  0  0  0
 12 10  1  0  0  0  0
 13 14  1  0  0  0  0
 14 11  1  0  0  0  0
 15 14  2  0  0  0  0
 16 22  1  0  0  0  0
 16 20  1  0  0  0  0
 17 18  1  0  0  0  0
 18 20  1  0  0  0  0
 18 13  1  1  0  0  0
 19 21  1  0  0  0  0
 19 17  1  0  0  0  0
 21 16  1  0  0  0  0
 22 23  1  6  0  0  0
 25 24  1  1  0  0  0
 25 22  1  0  0  0  0
 26 25  1  0  0  0  0
 26 27  1  0  0  0  0
 28 27  1  0  0  0  0
 30 31  2  0  0  0  0
 30 33  1  0  0  0  0
 31 29  1  0  0  0  0
 32 37  1  0  0  0  0
 32 45  1  0  0  0  0
 33 32  2  0  0  0  0
 34 35  2  0  0  0  0
 34 36  1  0  0  0  0
 35 37  2  0  0  0  0
 38 33  1  0  0  0  0
 39 40  2  0  0  0  0
 39 38  1  0  0  0  0
 41 42  1  1  0  0  0
 41 39  1  0  0  0  0
 43 41  1  0  0  0  0
 44 43  1  0  0  0  0
 45 46  1  0  0  0  0
 46 47  1  0  0  0  0
 49 54  1  0  0  0  0
 51 49  1  0  0  0  0
 51 53  1  0  0  0  0
 52 55  1  0  0  0  0
 53 50  1  6  0  0  0
 53 52  1  0  0  0  0
 54 56  2  0  0  0  0
 54 55  1  0  0  0  0
 55 48  1  6  0  0  0
 57 59  1  0  0  0  0
 57 58  2  0  0  0  0
 59 49  1  0  0  0  0
 60 61  1  1  0  0  0
 60 62  1  0  0  0  0
 60 57  1  0  0  0  0
 63 62  1  0  0  0  0
M  END
>  <MODEL>
6

>  <REMARK>
 VINA RESULT:      -5.1      2.899      9.045
  Name = 
  24 active torsions:
  status: ('A' for Active; 'I' for Inactive)
    1  A    between atoms: N_2  and  C_57
    2  A    between atoms: C_4  and  O_42
    3  A    between atoms: C_5  and  C_32
    4  A    between atoms: C_6  and  N_20
    5  A    between atoms: C_6  and  C_30
    6  A    between atoms: N_7  and  N_58
    7  A    between atoms: N_8  and  C_38
    8  A    between atoms: C_9  and  C_32
    9  A    between atoms: C_9  and  C_63
   10  A    between atoms: C_10  and  C_34
   11  A    between atoms: C_10  and  C_47
   12  A    between atoms: C_11  and  C_18
   13  A    between atoms: C_13  and  C_16
   14  A    between atoms: C_15  and  C_23
   15  A    between atoms: C_18  and  N_31
   16  A    between atoms: C_18  and  N_40
   17  A    between atoms: C_23  and  C_43
   18  A    between atoms: N_25  and  C_60
   19  A    between atoms: C_30  and  O_42
   20  A    between atoms: C_36  and  N_37
   21  A    between atoms: N_37  and  C_57
   22  A    between atoms: N_40  and  N_46
   23  A    between atoms: C_44  and  C_60
   24  A    between atoms: C_57  and  C_61
                            x       y       z     vdW  Elec       q    Type
                         _______ _______ _______ _____ _____    ______ ____

>  <TORSDO>
F 24

$$$$
=
 OpenBabel10232411543D

 63 64  0  0  1  0  0  0  0  0999 V2000
  187.8220  178.0290  139.1460 C   0  0  2  0  0  3  0  0  0  0  0  0
  187.8790  176.9120  140.0830 N   0  0  0  0  0  2  0  0  0  0  0  0
  188.8940  176.8080  141.0820 C   0  0  0  0  0  0  0  0  0  0  0  0
  190.0140  177.6990  141.0660 N   0  0  0  0  0  2  0  0  0  0  0  0
  188.7980  175.9210  141.9670 O   0  0  0  0  0  0  0  0  0  0  0  0
  191.0930  177.6210  142.0370 C   0  0  2  0  0  3  0  0  0  0  0  0
  191.9920  179.1340  143.8670 N   0  0  0  0  0  1  0  0  0  0  0  0
  190.8900  178.6530  143.1010 C   0  0  0  0  0  0  0  0  0  0  0  0
  189.6990  179.0810  143.3580 N   0  0  0  0  0  2  0  0  0  0  0  0
  192.3650  177.8160  141.3540 N   0  0  0  0  0  2  0  0  0  0  0  0
  193.5040  176.5720  139.7490 C   0  0  0  0  0  3  0  0  0  0  0  0
  192.5600  177.4060  140.0310 N   0  0  0  0  0  0  0  0  0  0  0  0
  193.7350  174.6590  138.1440 N   0  0  0  0  0  2  0  0  0  0  0  0
  193.6800  176.0680  138.3870 C   0  0  0  0  0  0  0  0  0  0  0  0
  193.8500  176.8850  137.4460 O   0  0  0  0  0  0  0  0  0  0  0  0
  195.4540  172.5720  135.5870 N   0  0  0  0  0  0  0  0  0  0  0  0
  192.7630  173.4390  136.2620 C   0  0  0  0  0  2  0  0  0  0  0  0
  194.0110  174.1150  136.8240 C   0  0  2  0  0  3  0  0  0  0  0  0
  193.0870  172.7290  134.9480 C   0  0  0  0  0  2  0  0  0  0  0  0
  195.1360  173.0880  136.9240 C   0  0  0  0  0  2  0  0  0  0  0  0
  194.2850  171.7980  135.1460 C   0  0  0  0  0  2  0  0  0  0  0  0
  196.6140  171.6700  135.6880 C   0  0  1  0  0  3  0  0  0  0  0  0
  196.4820  170.5020  134.7070 C   0  0  0  0  0  1  0  0  0  0  0  0
  197.7760  173.4660  134.3560 C   0  0  0  0  0  1  0  0  0  0  0  0
  197.9390  172.4190  135.4440 C   0  0  1  0  0  3  0  0  0  0  0  0
  198.4120  173.0160  136.6190 O   0  0  0  0  0  0  0  0  0  0  0  0
  199.0290  174.1990  136.2030 C   0  0  0  0  0  2  0  0  0  0  0  0
  198.7550  175.2180  137.1170 O   0  0  0  0  0  1  0  0  0  0  0  0
  186.1390  179.5130  138.0710 O   0  0  0  0  0  1  0  0  0  0  0  0
  185.4050  177.8170  139.5700 C   0  0  0  0  0  3  0  0  0  0  0  0
  186.3950  178.4450  138.9270 C   0  0  0  0  0  0  0  0  0  0  0  0
  183.4150  178.8890  140.5210 C   0  0  0  0  0  0  0  0  0  0  0  0
  183.9750  178.1860  139.5130 C   0  0  0  0  0  0  0  0  0  0  0  0
  180.2530  178.2050  142.1710 C   0  0  0  0  0  3  0  0  0  0  0  0
  181.1120  178.7060  141.3280 C   0  0  0  0  0  0  0  0  0  0  0  0
  179.9990  178.8900  143.4660 C   0  0  0  0  0  1  0  0  0  0  0  0
  181.9730  179.2130  140.4850 C   0  0  0  0  0  3  0  0  0  0  0  0
  183.2080  177.8350  138.3500 N   0  0  0  0  0  2  0  0  0  0  0  0
  182.5370  176.5770  138.2140 C   0  0  0  0  0  0  0  0  0  0  0  0
  182.5210  175.7550  139.1700 O   0  0  0  0  0  0  0  0  0  0  0  0
  181.7970  176.2790  136.9520 C   0  0  1  0  0  3  0  0  0  0  0  0
  180.4740  177.0270  136.9280 C   0  0  0  0  0  1  0  0  0  0  0  0
  182.6560  176.6400  135.7470 C   0  0  0  0  0  2  0  0  0  0  0  0
  182.6550  175.5120  134.7310 C   0  0  0  0  0  1  0  0  0  0  0  0
  184.2290  179.2930  141.7220 C   0  0  0  0  0  2  0  0  0  0  0  0
  184.0140  178.3090  142.8590 C   0  0  0  0  0  2  0  0  0  0  0  0
  185.2750  178.0730  143.5350 N   0  0  0  0  0  1  0  0  0  0  0  0
  188.4530  177.6460  137.8890 N   0  0  0  0  0  2  0  0  0  0  0  0
  188.2660  174.9900  135.7720 N   0  0  0  0  0  0  0  0  0  0  0  0
  191.6960  176.0400  135.6870 F   0  0  0  0  0  0  0  0  0  0  0  0
  189.4240  175.5930  135.1030 C   0  0  0  0  0  2  0  0  0  0  0  0
  190.1880  175.9500  137.5230 C   0  0  0  0  0  2  0  0  0  0  0  0
  190.3920  176.3190  136.0560 C   0  0  1  0  0  3  0  0  0  0  0  0
  187.8090  175.4740  137.0520 C   0  0  0  0  0  0  0  0  0  0  0  0
  188.7450  176.2170  137.9500 C   0  0  2  0  0  3  0  0  0  0  0  0
  186.6030  175.3510  137.3840 O   0  0  0  0  0  0  0  0  0  0  0  0
  187.3440  172.6830  135.5150 C   0  0  0  0  0  0  0  0  0  0  0  0
  188.0050  172.2410  136.4930 O   0  0  0  0  0  0  0  0  0  0  0  0
  187.5360  174.0270  135.0570 N   0  0  0  0  0  2  0  0  0  0  0  0
  186.4260  171.7590  134.7860 C   0  0  1  0  0  3  0  0  0  0  0  0
  186.6590  170.3060  135.1760 C   0  0  0  0  0  1  0  0  0  0  0  0
  184.9590  172.1700  134.9230 C   0  0  0  0  0  2  0  0  0  0  0  0
  184.4550  172.1010  136.3560 C   0  0  0  0  0  1  0  0  0  0  0  0
  1 48  1  6  0  0  0
  1  2  1  0  0  0  0
  2  3  1  0  0  0  0
  3  5  2  0  0  0  0
  4  3  1  0  0  0  0
  6  4  1  6  0  0  0
  6  8  1  0  0  0  0
  8  9  2  0  0  0  0
  8  7  1  0  0  0  0
 10  6  1  0  0  0  0
 11 12  2  0  0  0  0
 12 10  1  0  0  0  0
 13 14  1  0  0  0  0
 14 11  1  0  0  0  0
 15 14  2  0  0  0  0
 16 22  1  0  0  0  0
 16 20  1  0  0  0  0
 17 18  1  0  0  0  0
 18 20  1  0  0  0  0
 18 13  1  1  0  0  0
 19 21  1  0  0  0  0
 19 17  1  0  0  0  0
 21 16  1  0  0  0  0
 22 23  1  6  0  0  0
 25 24  1  6  0  0  0
 25 22  1  0  0  0  0
 25 26  1  0  0  0  0
 27 26  1  0  0  0  0
 27 28  1  0  0  0  0
 29 31  1  0  0  0  0
 31  1  1  0  0  0  0
 31 30  2  0  0  0  0
 32 45  1  0  0  0  0
 33 30  1  0  0  0  0
 33 32  2  0  0  0  0
 34 36  1  0  0  0  0
 35 34  2  0  0  0  0
 37 32  1  0  0  0  0
 37 35  2  0  0  0  0
 38 33  1  0  0  0  0
 39 38  1  0  0  0  0
 39 40  2  0  0  0  0
 41 42  1  1  0  0  0
 41 39  1  0  0  0  0
 43 41  1  0  0  0  0
 44 43  1  0  0  0  0
 45 46  1  0  0  0  0
 46 47  1  0  0  0  0
 49 54  1  0  0  0  0
 51 49  1  0  0  0  0
 51 53  1  0  0  0  0
 52 55  1  0  0  0  0
 53 50  1  6  0  0  0
 53 52  1  0  0  0  0
 54 56  2  0  0  0  0
 54 55  1  0  0  0  0
 55 48  1  6  0  0  0
 57 58  2  0  0  0  0
 59 57  1  0  0  0  0
 59 49  1  0  0  0  0
 60 62  1  0  0  0  0
 60 61  1  1  0  0  0
 60 57  1  0  0  0  0
 62 63  1  0  0  0  0
M  END
>  <MODEL>
7

>  <REMARK>
 VINA RESULT:      -5.1      2.886      8.494
  Name = 
  24 active torsions:
  status: ('A' for Active; 'I' for Inactive)
    1  A    between atoms: N_2  and  C_57
    2  A    between atoms: C_4  and  O_42
    3  A    between atoms: C_5  and  C_32
    4  A    between atoms: C_6  and  N_20
    5  A    between atoms: C_6  and  C_30
    6  A    between atoms: N_7  and  N_58
    7  A    between atoms: N_8  and  C_38
    8  A    between atoms: C_9  and  C_32
    9  A    between atoms: C_9  and  C_63
   10  A    between atoms: C_10  and  C_34
   11  A    between atoms: C_10  and  C_47
   12  A    between atoms: C_11  and  C_18
   13  A    between atoms: C_13  and  C_16
   14  A    between atoms: C_15  and  C_23
   15  A    between atoms: C_18  and  N_31
   16  A    between atoms: C_18  and  N_40
   17  A    between atoms: C_23  and  C_43
   18  A    between atoms: N_25  and  C_60
   19  A    between atoms: C_30  and  O_42
   20  A    between atoms: C_36  and  N_37
   21  A    between atoms: N_37  and  C_57
   22  A    between atoms: N_40  and  N_46
   23  A    between atoms: C_44  and  C_60
   24  A    between atoms: C_57  and  C_61
                            x       y       z     vdW  Elec       q    Type
                         _______ _______ _______ _____ _____    ______ ____

>  <TORSDO>
F 24

$$$$
=
 OpenBabel10232411543D

 63 64  0  0  1  0  0  0  0  0999 V2000
  191.8610  175.5000  138.2120 C   0  0  2  0  0  3  0  0  0  0  0  0
  192.0220  176.9120  138.5430 N   0  0  0  0  0  2  0  0  0  0  0  0
  192.1010  177.3710  139.8930 C   0  0  0  0  0  0  0  0  0  0  0  0
  191.8210  176.4790  140.9760 N   0  0  0  0  0  2  0  0  0  0  0  0
  192.4100  178.5700  140.1180 O   0  0  0  0  0  0  0  0  0  0  0  0
  191.8550  176.8980  142.3670 C   0  0  2  0  0  3  0  0  0  0  0  0
  190.1100  175.0750  142.6540 N   0  0  0  0  0  2  0  0  0  0  0  0
  191.1330  175.8960  143.2130 C   0  0  0  0  0  0  0  0  0  0  0  0
  191.4090  175.8040  144.4710 N   0  0  0  0  0  1  0  0  0  0  0  0
  191.2460  178.2160  142.4840 N   0  0  0  0  0  2  0  0  0  0  0  0
  189.0460  178.0200  141.7470 C   0  0  0  0  0  3  0  0  0  0  0  0
  189.8700  178.3760  142.6740 N   0  0  0  0  0  0  0  0  0  0  0  0
  186.8280  179.0670  141.2250 N   0  0  0  0  0  2  0  0  0  0  0  0
  187.6010  178.1050  141.9500 C   0  0  0  0  0  0  0  0  0  0  0  0
  187.0570  177.3730  142.8170 O   0  0  0  0  0  0  0  0  0  0  0  0
  183.1710  178.7930  140.5920 N   0  0  0  0  0  0  0  0  0  0  0  0
  185.0260  178.6690  142.8270 C   0  0  0  0  0  2  0  0  0  0  0  0
  185.4080  179.2580  141.4710 C   0  0  2  0  0  3  0  0  0  0  0  0
  183.5100  178.7240  143.0240 C   0  0  0  0  0  2  0  0  0  0  0  0
  184.6040  178.5610  140.3760 C   0  0  0  0  0  2  0  0  0  0  0  0
  182.8100  178.0810  141.8250 C   0  0  0  0  0  2  0  0  0  0  0  0
  182.4200  178.2100  139.4670 C   0  0  1  0  0  3  0  0  0  0  0  0
  181.4890  177.0960  139.9520 C   0  0  0  0  0  1  0  0  0  0  0  0
  180.2380  178.7550  138.3310 C   0  0  0  0  0  1  0  0  0  0  0  0
  181.6120  179.2810  138.7070 C   0  0  1  0  0  3  0  0  0  0  0  0
  181.4880  180.4570  139.4590 O   0  0  0  0  0  0  0  0  0  0  0  0
  180.9770  181.4050  138.5690 C   0  0  0  0  0  2  0  0  0  0  0  0
  181.9420  182.3820  138.3190 O   0  0  0  0  0  1  0  0  0  0  0  0
  194.3320  175.4620  138.4970 O   0  0  0  0  0  1  0  0  0  0  0  0
  193.2970  173.8220  137.1200 C   0  0  0  0  0  3  0  0  0  0  0  0
  193.2010  174.8830  137.9280 C   0  0  0  0  0  0  0  0  0  0  0  0
  195.2760  173.7110  135.6760 C   0  0  0  0  0  0  0  0  0  0  0  0
  194.5580  173.1810  136.6900 C   0  0  0  0  0  0  0  0  0  0  0  0
  198.5960  174.3470  134.3490 C   0  0  0  0  0  3  0  0  0  0  0  0
  197.5530  173.6950  134.7790 C   0  0  0  0  0  0  0  0  0  0  0  0
  199.6390  174.7950  135.3100 C   0  0  0  0  0  1  0  0  0  0  0  0
  196.5090  173.0390  135.2140 C   0  0  0  0  0  3  0  0  0  0  0  0
  195.0320  172.0250  137.3980 N   0  0  0  0  0  2  0  0  0  0  0  0
  194.7900  170.6870  136.9500 C   0  0  0  0  0  0  0  0  0  0  0  0
  194.2200  170.4770  135.8450 O   0  0  0  0  0  0  0  0  0  0  0  0
  195.2840  169.5420  137.7720 C   0  0  1  0  0  3  0  0  0  0  0  0
  194.1140  168.7970  138.3930 C   0  0  0  0  0  1  0  0  0  0  0  0
  196.1350  168.6160  136.9140 C   0  0  0  0  0  2  0  0  0  0  0  0
  197.5850  169.0680  136.9150 C   0  0  0  0  0  1  0  0  0  0  0  0
  194.7990  174.9470  134.9590 C   0  0  0  0  0  2  0  0  0  0  0  0
  195.6100  176.1540  135.3970 C   0  0  0  0  0  2  0  0  0  0  0  0
  194.7190  177.2780  135.6140 N   0  0  0  0  0  1  0  0  0  0  0  0
  190.9710  175.3650  137.0660 N   0  0  0  0  0  2  0  0  0  0  0  0
  187.7270  175.1720  136.0610 N   0  0  0  0  0  0  0  0  0  0  0  0
  189.3080  172.2280  134.7560 F   0  0  0  0  0  0  0  0  0  0  0  0
  188.2410  174.3550  134.9570 C   0  0  0  0  0  2  0  0  0  0  0  0
  189.6350  173.3200  136.8430 C   0  0  0  0  0  2  0  0  0  0  0  0
  189.4480  173.4760  135.3360 C   0  0  1  0  0  3  0  0  0  0  0  0
  188.5640  175.5210  137.1840 C   0  0  0  0  0  0  0  0  0  0  0  0
  189.7590  174.6870  137.5140 C   0  0  2  0  0  3  0  0  0  0  0  0
  188.3460  176.5730  137.8370 O   0  0  0  0  0  0  0  0  0  0  0  0
  185.2450  174.9340  135.9210 C   0  0  0  0  0  0  0  0  0  0  0  0
  185.3050  173.6780  135.8490 O   0  0  0  0  0  0  0  0  0  0  0  0
  186.4420  175.7210  135.9160 N   0  0  0  0  0  2  0  0  0  0  0  0
  183.9060  175.5960  135.9210 C   0  0  1  0  0  3  0  0  0  0  0  0
  183.2380  175.5210  137.2870 C   0  0  0  0  0  1  0  0  0  0  0  0
  183.9640  177.0250  135.3790 C   0  0  0  0  0  2  0  0  0  0  0  0
  182.5900  177.6600  135.2330 C   0  0  0  0  0  1  0  0  0  0  0  0
  1 48  1  6  0  0  0
  1  2  1  0  0  0  0
  2  3  1  0  0  0  0
  3  5  2  0  0  0  0
  3  4  1  0  0  0  0
  6  4  1  6  0  0  0
  6 10  1  0  0  0  0
  6  8  1  0  0  0  0
  7  8  2  0  0  0  0
  8  9  1  0  0  0  0
 10 12  1  0  0  0  0
 11 14  1  0  0  0  0
 11 12  2  0  0  0  0
 13 14  1  0  0  0  0
 14 15  2  0  0  0  0
 16 21  1  0  0  0  0
 17 19  1  0  0  0  0
 18 13  1  6  0  0  0
 18 17  1  0  0  0  0
 20 16  1  0  0  0  0
 20 18  1  0  0  0  0
 21 19  1  0  0  0  0
 22 23  1  1  0  0  0
 22 16  1  0  0  0  0
 25 24  1  1  0  0  0
 25 26  1  0  0  0  0
 25 22  1  0  0  0  0
 27 26  1  0  0  0  0
 28 27  1  0  0  0  0
 30 31  2  0  0  0  0
 31  1  1  0  0  0  0
 31 29  1  0  0  0  0
 32 33  2  0  0  0  0
 33 30  1  0  0  0  0
 33 38  1  0  0  0  0
 34 35  2  0  0  0  0
 34 36  1  0  0  0  0
 35 37  2  0  0  0  0
 37 32  1  0  0  0  0
 39 38  1  0  0  0  0
 39 41  1  0  0  0  0
 40 39  2  0  0  0  0
 41 42  1  6  0  0  0
 43 44  1  0  0  0  0
 43 41  1  0  0  0  0
 45 46  1  0  0  0  0
 45 32  1  0  0  0  0
 46 47  1  0  0  0  0
 49 54  1  0  0  0  0
 51 53  1  0  0  0  0
 51 49  1  0  0  0  0
 52 55  1  0  0  0  0
 53 50  1  6  0  0  0
 53 52  1  0  0  0  0
 54 55  1  0  0  0  0
 54 56  2  0  0  0  0
 55 48  1  6  0  0  0
 58 57  2  0  0  0  0
 59 57  1  0  0  0  0
 59 49  1  0  0  0  0
 60 57  1  0  0  0  0
 60 61  1  1  0  0  0
 62 60  1  0  0  0  0
 63 62  1  0  0  0  0
M  END
>  <MODEL>
8

>  <REMARK>
 VINA RESULT:      -5.1      2.999      9.628
  Name = 
  24 active torsions:
  status: ('A' for Active; 'I' for Inactive)
    1  A    between atoms: N_2  and  C_57
    2  A    between atoms: C_4  and  O_42
    3  A    between atoms: C_5  and  C_32
    4  A    between atoms: C_6  and  N_20
    5  A    between atoms: C_6  and  C_30
    6  A    between atoms: N_7  and  N_58
    7  A    between atoms: N_8  and  C_38
    8  A    between atoms: C_9  and  C_32
    9  A    between atoms: C_9  and  C_63
   10  A    between atoms: C_10  and  C_34
   11  A    between atoms: C_10  and  C_47
   12  A    between atoms: C_11  and  C_18
   13  A    between atoms: C_13  and  C_16
   14  A    between atoms: C_15  and  C_23
   15  A    between atoms: C_18  and  N_31
   16  A    between atoms: C_18  and  N_40
   17  A    between atoms: C_23  and  C_43
   18  A    between atoms: N_25  and  C_60
   19  A    between atoms: C_30  and  O_42
   20  A    between atoms: C_36  and  N_37
   21  A    between atoms: N_37  and  C_57
   22  A    between atoms: N_40  and  N_46
   23  A    between atoms: C_44  and  C_60
   24  A    between atoms: C_57  and  C_61
                            x       y       z     vdW  Elec       q    Type
                         _______ _______ _______ _____ _____    ______ ____

>  <TORSDO>
F 24

$$$$
=
 OpenBabel10232411543D

 63 64  0  0  1  0  0  0  0  0999 V2000
  187.3170  177.3010  140.3620 C   0  0  2  0  0  3  0  0  0  0  0  0
  186.8340  178.6690  140.2080 N   0  0  0  0  0  2  0  0  0  0  0  0
  185.5180  179.0590  140.6040 C   0  0  0  0  0  0  0  0  0  0  0  0
  184.5550  178.0700  140.9800 N   0  0  0  0  0  2  0  0  0  0  0  0
  185.2140  180.2800  140.6080 O   0  0  0  0  0  0  0  0  0  0  0  0
  183.1930  178.4050  141.3610 C   0  0  2  0  0  3  0  0  0  0  0  0
  181.8910  178.9830  143.4640 N   0  0  0  0  0  2  0  0  0  0  0  0
  183.1330  178.6810  142.8310 C   0  0  0  0  0  0  0  0  0  0  0  0
  184.2220  178.6890  143.5250 N   0  0  0  0  0  1  0  0  0  0  0  0
  182.3110  177.3040  140.9990 N   0  0  0  0  0  2  0  0  0  0  0  0
  182.2700  176.9100  138.7050 C   0  0  0  0  0  3  0  0  0  0  0  0
  182.5670  176.4920  139.8890 N   0  0  0  0  0  0  0  0  0  0  0  0
  182.9220  174.7260  137.6570 N   0  0  0  0  0  2  0  0  0  0  0  0
  182.5970  176.1140  137.5220 C   0  0  0  0  0  0  0  0  0  0  0  0
  182.6560  176.6760  136.3990 O   0  0  0  0  0  0  0  0  0  0  0  0
  185.3110  173.2090  135.2420 N   0  0  0  0  0  0  0  0  0  0  0  0
  182.9180  172.4700  136.7170 C   0  0  0  0  0  2  0  0  0  0  0  0
  183.3530  173.9220  136.5260 C   0  0  2  0  0  3  0  0  0  0  0  0
  183.5010  171.5890  135.6120 C   0  0  0  0  0  2  0  0  0  0  0  0
  184.8740  173.9790  136.4120 C   0  0  0  0  0  2  0  0  0  0  0  0
  185.0150  171.7990  135.5300 C   0  0  0  0  0  2  0  0  0  0  0  0
  186.7670  173.3680  135.0840 C   0  0  1  0  0  3  0  0  0  0  0  0
  187.1860  174.8200  135.3330 C   0  0  0  0  0  1  0  0  0  0  0  0
  188.1020  171.2380  135.2520 C   0  0  0  0  0  1  0  0  0  0  0  0
  187.5460  172.4250  136.0210 C   0  0  1  0  0  3  0  0  0  0  0  0
  188.5830  173.0980  136.6800 O   0  0  0  0  0  0  0  0  0  0  0  0
  189.7240  172.8470  135.9140 C   0  0  0  0  0  2  0  0  0  0  0  0
  190.8630  173.2140  136.6340 O   0  0  0  0  0  1  0  0  0  0  0  0
  188.9340  176.0160  141.7490 O   0  0  0  0  0  1  0  0  0  0  0  0
  188.4890  178.2890  142.2900 C   0  0  0  0  0  3  0  0  0  0  0  0
  188.2860  177.2240  141.5070 C   0  0  0  0  0  0  0  0  0  0  0  0
  190.6860  178.3370  143.3780 C   0  0  0  0  0  0  0  0  0  0  0  0
  189.3410  178.3170  143.4980 C   0  0  0  0  0  0  0  0  0  0  0  0
  191.4800  176.3620  146.3200 C   0  0  0  0  0  3  0  0  0  0  0  0
  191.5060  177.3370  145.4560 C   0  0  0  0  0  0  0  0  0  0  0  0
  192.3570  175.1760  146.1280 C   0  0  0  0  0  1  0  0  0  0  0  0
  191.5370  178.3130  144.5870 C   0  0  0  0  0  3  0  0  0  0  0  0
  188.7200  178.3760  144.7920 N   0  0  0  0  0  2  0  0  0  0  0  0
  187.9830  177.2820  145.3490 C   0  0  0  0  0  0  0  0  0  0  0  0
  187.9330  176.1740  144.7500 O   0  0  0  0  0  0  0  0  0  0  0  0
  187.3340  177.4460  146.6840 C   0  0  1  0  0  3  0  0  0  0  0  0
  188.2730  176.9850  147.7870 C   0  0  0  0  0  1  0  0  0  0  0  0
  186.9190  178.8970  146.8850 C   0  0  0  0  0  2  0  0  0  0  0  0
  185.4080  179.0120  146.9880 C   0  0  0  0  0  1  0  0  0  0  0  0
  191.3380  178.3160  142.0200 C   0  0  0  0  0  2  0  0  0  0  0  0
  192.6170  177.4990  142.0640 C   0  0  0  0  0  2  0  0  0  0  0  0
  192.9380  177.0380  140.7260 N   0  0  0  0  0  1  0  0  0  0  0  0
  187.9390  176.8590  139.1210 N   0  0  0  0  0  2  0  0  0  0  0  0
  190.5710  176.7850  136.9660 N   0  0  0  0  0  0  0  0  0  0  0  0
  188.9550  179.9360  136.3930 F   0  0  0  0  0  0  0  0  0  0  0  0
  189.7750  177.7060  136.1490 C   0  0  0  0  0  2  0  0  0  0  0  0
  189.3150  178.7710  138.4340 C   0  0  0  0  0  2  0  0  0  0  0  0
  188.9040  178.6780  136.9660 C   0  0  1  0  0  3  0  0  0  0  0  0
  190.1820  176.4600  138.3170 C   0  0  0  0  0  0  0  0  0  0  0  0
  189.2990  177.3890  139.0860 C   0  0  2  0  0  3  0  0  0  0  0  0
  190.5100  175.3580  138.8260 O   0  0  0  0  0  0  0  0  0  0  0  0
  192.9750  176.1200  136.8500 C   0  0  0  0  0  0  0  0  0  0  0  0
  193.3020  176.8980  137.7860 O   0  0  0  0  0  0  0  0  0  0  0  0
  191.6370  176.1200  136.3380 N   0  0  0  0  0  2  0  0  0  0  0  0
  194.0250  175.2650  136.2210 C   0  0  1  0  0  3  0  0  0  0  0  0
  195.3430  176.0100  136.0640 C   0  0  0  0  0  1  0  0  0  0  0  0
  194.1950  173.9280  136.9450 C   0  0  0  0  0  2  0  0  0  0  0  0
  195.2220  173.9860  138.0650 C   0  0  0  0  0  1  0  0  0  0  0  0
  1 48  1  6  0  0  0
  1 31  1  0  0  0  0
  2  1  1  0  0  0  0
  2  3  1  0  0  0  0
  3  5  2  0  0  0  0
  3  4  1  0  0  0  0
  6  4  1  1  0  0  0
  6  8  1  0  0  0  0
  8  7  2  0  0  0  0
  8  9  1  0  0  0  0
 10  6  1  0  0  0  0
 11 12  2  0  0  0  0
 12 10  1  0  0  0  0
 14 13  1  0  0  0  0
 14 11  1  0  0  0  0
 15 14  2  0  0  0  0
 16 21  1  0  0  0  0
 16 20  1  0  0  0  0
 18 17  1  0  0  0  0
 18 13  1  1  0  0  0
 19 17  1  0  0  0  0
 20 18  1  0  0  0  0
 21 19  1  0  0  0  0
 22 16  1  0  0  0  0
 22 23  1  1  0  0  0
 22 25  1  0  0  0  0
 25 24  1  6  0  0  0
 25 26  1  0  0  0  0
 27 28  1  0  0  0  0
 27 26  1  0  0  0  0
 30 33  1  0  0  0  0
 31 29  1  0  0  0  0
 31 30  2  0  0  0  0
 32 33  2  0  0  0  0
 32 37  1  0  0  0  0
 33 38  1  0  0  0  0
 35 34  2  0  0  0  0
 36 34  1  0  0  0  0
 37 35  2  0  0  0  0
 38 39  1  0  0  0  0
 39 41  1  0  0  0  0
 40 39  2  0  0  0  0
 41 43  1  0  0  0  0
 41 42  1  1  0  0  0
 43 44  1  0  0  0  0
 45 46  1  0  0  0  0
 45 32  1  0  0  0  0
 47 46  1  0  0  0  0
 49 54  1  0  0  0  0
 51 49  1  0  0  0  0
 51 53  1  0  0  0  0
 52 55  1  0  0  0  0
 53 50  1  6  0  0  0
 53 52  1  0  0  0  0
 54 56  2  0  0  0  0
 54 55  1  0  0  0  0
 55 48  1  6  0  0  0
 57 58  2  0  0  0  0
 59 57  1  0  0  0  0
 59 49  1  0  0  0  0
 60 61  1  1  0  0  0
 60 57  1  0  0  0  0
 60 62  1  0  0  0  0
 62 63  1  0  0  0  0
M  END
>  <MODEL>
9

>  <REMARK>
 VINA RESULT:      -5.0      1.793      8.421
  Name = 
  24 active torsions:
  status: ('A' for Active; 'I' for Inactive)
    1  A    between atoms: N_2  and  C_57
    2  A    between atoms: C_4  and  O_42
    3  A    between atoms: C_5  and  C_32
    4  A    between atoms: C_6  and  N_20
    5  A    between atoms: C_6  and  C_30
    6  A    between atoms: N_7  and  N_58
    7  A    between atoms: N_8  and  C_38
    8  A    between atoms: C_9  and  C_32
    9  A    between atoms: C_9  and  C_63
   10  A    between atoms: C_10  and  C_34
   11  A    between atoms: C_10  and  C_47
   12  A    between atoms: C_11  and  C_18
   13  A    between atoms: C_13  and  C_16
   14  A    between atoms: C_15  and  C_23
   15  A    between atoms: C_18  and  N_31
   16  A    between atoms: C_18  and  N_40
   17  A    between atoms: C_23  and  C_43
   18  A    between atoms: N_25  and  C_60
   19  A    between atoms: C_30  and  O_42
   20  A    between atoms: C_36  and  N_37
   21  A    between atoms: N_37  and  C_57
   22  A    between atoms: N_40  and  N_46
   23  A    between atoms: C_44  and  C_60
   24  A    between atoms: C_57  and  C_61
                            x       y       z     vdW  Elec       q    Type
                         _______ _______ _______ _____ _____    ______ ____

>  <TORSDO>
F 24

$$$$
