=
 OpenBabel10222421573D

 40 43  0  0  1  0  0  0  0  0999 V2000
  186.1710  178.8750  146.1230 C   0  0  0  0  0  0  0  0  0  0  0  0
  190.6860  177.5970  140.3420 C   0  0  0  0  0  0  0  0  0  0  0  0
  186.3660  178.7890  144.8560 N   0  0  0  0  0  0  0  0  0  0  0  0
  187.3160  178.9120  147.0790 C   0  0  0  0  0  2  0  0  0  0  0  0
  184.8470  178.3930  143.0120 C   0  0  0  0  0  0  0  0  0  0  0  0
  188.8620  177.4350  144.8780 C   0  0  0  0  0  3  0  0  0  0  0  0
  187.8660  176.9470  148.2910 O   0  0  0  0  0  0  0  0  0  0  0  0
  185.9450  178.1370  142.1260 N   0  0  0  0  0  2  0  0  0  0  0  0
  188.7430  176.9290  146.1080 C   0  0  0  0  0  3  0  0  0  0  0  0
  184.1160  178.7180  145.4050 C   0  0  0  0  0  3  0  0  0  0  0  0
  190.4830  175.6580  144.1720 C   0  0  0  0  0  1  0  0  0  0  0  0
  189.6000  176.7710  143.8360 N   0  0  0  0  0  0  0  0  0  0  0  0
  189.4880  178.0520  139.7780 C   0  0  0  0  0  3  0  0  0  0  0  0
  188.3310  177.6780  141.8780 C   0  0  0  0  0  0  0  0  0  0  0  0
  184.7930  178.8410  146.5050 N   0  0  0  0  0  0  0  0  0  0  0  0
  189.5380  177.2280  142.4670 C   0  0  0  0  0  0  0  0  0  0  0  0
  185.0730  178.6520  144.3070 C   0  0  0  0  0  0  0  0  0  0  0  0
  190.7000  177.1880  141.6780 C   0  0  0  0  0  3  0  0  0  0  0  0
  187.9720  177.5640  147.2000 C   0  0  0  0  0  0  0  0  0  0  0  0
  188.3200  178.0910  140.5400 C   0  0  0  0  0  3  0  0  0  0  0  0
  187.1580  177.7060  142.6310 O   0  0  0  0  0  0  0  0  0  0  0  0
  191.9070  177.5420  139.5930 N   0  0  0  0  0  2  0  0  0  0  0  0
  191.4710  175.4330  138.4030 O   0  0  0  0  0  1  0  0  0  0  0  0
  192.2850  176.5320  138.6500 C   0  0  0  0  0  0  0  0  0  0  0  0
  193.3800  176.6360  138.0420 O   0  0  0  0  0  0  0  0  0  0  0  0
  183.1760  178.3200  142.3700 S   0  0  0  0  0  0  0  0  0  0  0  0
  183.7190  178.7770  140.6990 C   0  0  0  0  0  2  0  0  0  0  0  0
  184.1680  177.4990  138.5460 N   0  0  0  0  0  2  0  0  0  0  0  0
  183.4150  177.6680  139.7490 C   0  0  0  0  0  0  0  0  0  0  0  0
  182.4620  176.8860  140.0000 O   0  0  0  0  0  0  0  0  0  0  0  0
  185.2770  178.3740  138.1940 C   0  0  0  0  0  2  0  0  0  0  0  0
  188.7960  175.4900  135.8680 C   0  0  0  0  0  2  0  0  0  0  0  0
  187.8630  179.4450  137.0470 O   0  0  0  0  0  1  0  0  0  0  0  0
  187.8740  177.6860  135.5400 O   0  0  0  0  0  0  0  0  0  0  0  0
  187.3680  174.9460  135.8690 C   0  0  0  0  0  2  0  0  0  0  0  0
  188.8580  176.9690  136.2400 C   0  0  0  0  0  2  0  0  0  0  0  0
  187.1020  178.4230  136.4680 C   0  0  1  0  0  3  0  0  0  0  0  0
  186.7200  175.1880  137.1500 N   0  0  0  0  0  2  0  0  0  0  0  0
  185.7950  176.2980  136.9630 C   0  0  0  0  0  2  0  0  0  0  0  0
  186.3930  177.5730  137.5450 C   0  0  2  0  0  3  0  0  0  0  0  0
  1 15  1  0  0  0  0
  1  4  1  0  0  0  0
  2 18  1  0  0  0  0
  3  1  2  0  0  0  0
  4 19  1  0  0  0  0
  5 17  2  0  0  0  0
  6  9  2  0  0  0  0
  8 21  1  0  0  0  0
  8  5  1  0  0  0  0
  9 19  1  0  0  0  0
 10 15  2  0  0  0  0
 12 11  1  0  0  0  0
 12  6  1  0  0  0  0
 13  2  2  0  0  0  0
 13 20  1  0  0  0  0
 14 16  1  0  0  0  0
 14 21  1  0  0  0  0
 16 12  1  0  0  0  0
 17  3  1  0  0  0  0
 17 10  1  0  0  0  0
 18 16  2  0  0  0  0
 19  7  2  0  0  0  0
 20 14  2  0  0  0  0
 22  2  1  0  0  0  0
 23 24  1  0  0  0  0
 24 22  1  0  0  0  0
 25 24  2  0  0  0  0
 26  5  1  0  0  0  0
 27 26  1  0  0  0  0
 28 29  1  0  0  0  0
 29 30  2  0  0  0  0
 29 27  1  0  0  0  0
 31 28  1  0  0  0  0
 32 35  1  0  0  0  0
 32 36  1  0  0  0  0
 34 36  1  0  0  0  0
 34 37  1  0  0  0  0
 35 38  1  0  0  0  0
 37 33  1  1  0  0  0
 37 40  1  0  0  0  0
 39 38  1  0  0  0  0
 39 40  1  0  0  0  0
 40 31  1  6  0  0  0
M  END
>  <MODEL>
1

>  <REMARK>
 VINA RESULT:      -8.6      0.000      0.000
  Name = 
  6 active torsions:
  status: ('A' for Active; 'I' for Inactive)
    1  A    between atoms: C_1  and  N_10
    2  A    between atoms: C_1  and  C_34
    3  A    between atoms: C_3  and  N_4
    4  A    between atoms: C_9  and  S_11
    5  A    between atoms: S_11  and  C_37
    6  A    between atoms: C_18  and  C_37
                            x       y       z     vdW  Elec       q    Type
                         _______ _______ _______ _____ _____    ______ ____

>  <TORSDO>
F 6

$$$$
=
 OpenBabel10222421573D

 40 43  0  0  1  0  0  0  0  0999 V2000
  182.8050  177.4860  139.9560 C   0  0  0  0  0  0  0  0  0  0  0  0
  190.2030  177.2970  139.1400 C   0  0  0  0  0  0  0  0  0  0  0  0
  183.9850  177.6440  140.4370 N   0  0  0  0  0  0  0  0  0  0  0  0
  182.5880  176.7920  138.6530 C   0  0  0  0  0  2  0  0  0  0  0  0
  184.8070  178.9470  142.3060 C   0  0  0  0  0  0  0  0  0  0  0  0
  185.4580  177.6670  138.0100 C   0  0  0  0  0  3  0  0  0  0  0  0
  182.1360  178.0910  136.7190 O   0  0  0  0  0  0  0  0  0  0  0  0
  186.1610  178.7820  141.8620 N   0  0  0  0  0  2  0  0  0  0  0  0
  184.4330  177.9970  137.2200 C   0  0  0  0  0  3  0  0  0  0  0  0
  182.3650  178.6750  141.7330 C   0  0  0  0  0  3  0  0  0  0  0  0
  187.1500  178.5660  136.3930 C   0  0  0  0  0  1  0  0  0  0  0  0
  186.8140  178.0470  137.7170 N   0  0  0  0  0  0  0  0  0  0  0  0
  189.9900  177.5310  140.5040 C   0  0  0  0  0  3  0  0  0  0  0  0
  187.6740  178.1100  140.0670 C   0  0  0  0  0  0  0  0  0  0  0  0
  181.7720  178.1040  140.7310 N   0  0  0  0  0  0  0  0  0  0  0  0
  187.8700  177.8630  138.6860 C   0  0  0  0  0  0  0  0  0  0  0  0
  183.7960  178.4390  141.5880 C   0  0  0  0  0  0  0  0  0  0  0  0
  189.1440  177.4660  138.2450 C   0  0  0  0  0  3  0  0  0  0  0  0
  183.0210  177.6500  137.4970 C   0  0  0  0  0  0  0  0  0  0  0  0
  188.7370  177.9350  140.9630 C   0  0  0  0  0  3  0  0  0  0  0  0
  186.4270  178.5270  140.5290 O   0  0  0  0  0  0  0  0  0  0  0  0
  191.4760  176.8810  138.6290 N   0  0  0  0  0  2  0  0  0  0  0  0
  190.8610  174.5700  138.0510 O   0  0  0  0  0  1  0  0  0  0  0  0
  191.7990  175.5950  138.0870 C   0  0  0  0  0  0  0  0  0  0  0  0
  192.9570  175.3860  137.6450 O   0  0  0  0  0  0  0  0  0  0  0  0
  184.4910  179.8740  143.8060 S   0  0  0  0  0  0  0  0  0  0  0  0
  184.3790  178.3620  144.8050 C   0  0  0  0  0  2  0  0  0  0  0  0
  186.4860  178.0620  146.1970 N   0  0  0  0  0  2  0  0  0  0  0  0
  185.1440  178.5380  146.0730 C   0  0  0  0  0  0  0  0  0  0  0  0
  184.5890  179.0920  147.0560 O   0  0  0  0  0  0  0  0  0  0  0  0
  187.1830  177.4070  145.1000 C   0  0  0  0  0  2  0  0  0  0  0  0
  192.0060  176.2630  146.3430 C   0  0  0  0  0  2  0  0  0  0  0  0
  188.1020  176.7370  147.9030 O   0  0  0  0  0  1  0  0  0  0  0  0
  190.2150  177.5100  147.3510 O   0  0  0  0  0  0  0  0  0  0  0  0
  191.8130  177.1030  145.0810 C   0  0  0  0  0  2  0  0  0  0  0  0
  190.7530  176.2200  147.2130 C   0  0  0  0  0  2  0  0  0  0  0  0
  188.8500  177.4740  146.9790 C   0  0  1  0  0  3  0  0  0  0  0  0
  190.6640  176.6380  144.3170 N   0  0  0  0  0  2  0  0  0  0  0  0
  189.5810  177.5850  144.5460 C   0  0  0  0  0  2  0  0  0  0  0  0
  188.5810  177.0000  145.5340 C   0  0  2  0  0  3  0  0  0  0  0  0
  1  3  2  0  0  0  0
  1 15  1  0  0  0  0
  2 13  1  0  0  0  0
  3 17  1  0  0  0  0
  4  1  1  0  0  0  0
  5 26  1  0  0  0  0
  7 19  2  0  0  0  0
  8  5  1  0  0  0  0
  9 19  1  0  0  0  0
  9  6  2  0  0  0  0
 11 12  1  0  0  0  0
 12  6  1  0  0  0  0
 12 16  1  0  0  0  0
 13 20  2  0  0  0  0
 14 21  1  0  0  0  0
 14 20  1  0  0  0  0
 15 10  2  0  0  0  0
 16 14  2  0  0  0  0
 17 10  1  0  0  0  0
 17  5  2  0  0  0  0
 18 16  1  0  0  0  0
 18  2  2  0  0  0  0
 19  4  1  0  0  0  0
 21  8  1  0  0  0  0
 22  2  1  0  0  0  0
 23 24  1  0  0  0  0
 24 22  1  0  0  0  0
 25 24  2  0  0  0  0
 26 27  1  0  0  0  0
 27 29  1  0  0  0  0
 29 28  1  0  0  0  0
 29 30  2  0  0  0  0
 31 28  1  0  0  0  0
 32 36  1  0  0  0  0
 35 32  1  0  0  0  0
 36 34  1  0  0  0  0
 37 34  1  0  0  0  0
 37 33  1  1  0  0  0
 38 39  1  0  0  0  0
 38 35  1  0  0  0  0
 39 40  1  0  0  0  0
 40 31  1  6  0  0  0
 40 37  1  0  0  0  0
M  END
>  <MODEL>
2

>  <REMARK>
 VINA RESULT:      -8.5      1.915      7.178
  Name = 
  6 active torsions:
  status: ('A' for Active; 'I' for Inactive)
    1  A    between atoms: C_1  and  N_10
    2  A    between atoms: C_1  and  C_34
    3  A    between atoms: C_3  and  N_4
    4  A    between atoms: C_9  and  S_11
    5  A    between atoms: S_11  and  C_37
    6  A    between atoms: C_18  and  C_37
                            x       y       z     vdW  Elec       q    Type
                         _______ _______ _______ _____ _____    ______ ____

>  <TORSDO>
F 6

$$$$
=
 OpenBabel10222421573D

 40 43  0  0  1  0  0  0  0  0999 V2000
  185.8820  178.9270  139.9140 C   0  0  0  0  0  0  0  0  0  0  0  0
  190.9010  177.3500  145.1820 C   0  0  0  0  0  0  0  0  0  0  0  0
  187.0580  178.5400  140.2540 N   0  0  0  0  0  0  0  0  0  0  0  0
  184.9570  179.5510  140.9040 C   0  0  0  0  0  2  0  0  0  0  0  0
  188.7290  177.2300  139.0890 C   0  0  0  0  0  0  0  0  0  0  0  0
  186.5710  177.9940  142.9980 C   0  0  0  0  0  3  0  0  0  0  0  0
  183.1940  178.2470  141.8110 O   0  0  0  0  0  0  0  0  0  0  0  0
  189.4710  177.0450  140.3030 N   0  0  0  0  0  2  0  0  0  0  0  0
  185.2490  177.8490  142.8860 C   0  0  0  0  0  3  0  0  0  0  0  0
  186.5640  178.0100  138.0540 C   0  0  0  0  0  3  0  0  0  0  0  0
  186.6680  176.6100  145.0860 C   0  0  0  0  0  1  0  0  0  0  0  0
  187.3460  177.2910  143.9860 N   0  0  0  0  0  0  0  0  0  0  0  0
  191.6030  177.2760  143.9730 C   0  0  0  0  0  3  0  0  0  0  0  0
  189.5140  177.2120  142.7380 C   0  0  0  0  0  0  0  0  0  0  0  0
  185.5390  178.6240  138.5580 N   0  0  0  0  0  0  0  0  0  0  0  0
  188.7900  177.3020  143.9520 C   0  0  0  0  0  0  0  0  0  0  0  0
  187.5690  177.9000  139.1050 C   0  0  0  0  0  0  0  0  0  0  0  0
  189.5040  177.3610  145.1610 C   0  0  0  0  0  3  0  0  0  0  0  0
  184.4190  178.5310  141.8680 C   0  0  0  0  0  0  0  0  0  0  0  0
  190.9150  177.2060  142.7620 C   0  0  0  0  0  3  0  0  0  0  0  0
  188.8320  177.1290  141.5260 O   0  0  0  0  0  0  0  0  0  0  0  0
  191.5710  177.4230  146.4470 N   0  0  0  0  0  2  0  0  0  0  0  0
  191.9710  175.0140  146.7490 O   0  0  0  0  0  0  0  0  0  0  0  0
  192.1060  176.3240  147.1940 C   0  0  0  0  0  0  0  0  0  0  0  0
  192.6990  176.5480  148.2800 O   0  0  0  0  0  1  0  0  0  0  0  0
  189.3550  176.5180  137.5700 S   0  0  0  0  0  0  0  0  0  0  0  0
  190.7860  175.7860  138.4150 C   0  0  0  0  0  2  0  0  0  0  0  0
  192.5840  174.3410  137.3440 N   0  0  0  0  0  2  0  0  0  0  0  0
  191.2150  174.5500  137.7010 C   0  0  0  0  0  0  0  0  0  0  0  0
  190.3530  173.6900  137.3840 O   0  0  0  0  0  0  0  0  0  0  0  0
  193.6280  175.2990  137.6740 C   0  0  0  0  0  2  0  0  0  0  0  0
  198.0840  172.8700  137.0820 C   0  0  0  0  0  2  0  0  0  0  0  0
  195.9080  176.3230  135.9690 O   0  0  0  0  0  1  0  0  0  0  0  0
  196.6090  174.1360  135.6670 O   0  0  0  0  0  0  0  0  0  0  0  0
  196.8870  172.0030  137.4690 C   0  0  0  0  0  2  0  0  0  0  0  0
  197.6690  174.2510  136.5830 C   0  0  0  0  0  2  0  0  0  0  0  0
  195.5510  174.9750  136.0900 C   0  0  1  0  0  3  0  0  0  0  0  0
  196.0490  172.6800  138.4480 N   0  0  0  0  0  2  0  0  0  0  0  0
  194.8700  173.1680  137.7450 C   0  0  0  0  0  2  0  0  0  0  0  0
  194.9970  174.6660  137.4980 C   0  0  2  0  0  3  0  0  0  0  0  0
  1  3  2  0  0  0  0
  1  4  1  0  0  0  0
  2 22  1  0  0  0  0
  4 19  1  0  0  0  0
  5 17  2  0  0  0  0
  5  8  1  0  0  0  0
  6 12  1  0  0  0  0
  7 19  2  0  0  0  0
  8 21  1  0  0  0  0
  9  6  2  0  0  0  0
 10 15  2  0  0  0  0
 10 17  1  0  0  0  0
 12 11  1  0  0  0  0
 13  2  2  0  0  0  0
 14 20  2  0  0  0  0
 14 16  1  0  0  0  0
 15  1  1  0  0  0  0
 16 12  1  0  0  0  0
 16 18  2  0  0  0  0
 17  3  1  0  0  0  0
 18  2  1  0  0  0  0
 19  9  1  0  0  0  0
 20 13  1  0  0  0  0
 21 14  1  0  0  0  0
 22 24  1  0  0  0  0
 23 24  2  0  0  0  0
 24 25  1  0  0  0  0
 26 27  1  0  0  0  0
 26  5  1  0  0  0  0
 28 31  1  0  0  0  0
 28 29  1  0  0  0  0
 29 27  1  0  0  0  0
 30 29  2  0  0  0  0
 32 35  1  0  0  0  0
 34 37  1  0  0  0  0
 34 36  1  0  0  0  0
 35 38  1  0  0  0  0
 36 32  1  0  0  0  0
 37 33  1  1  0  0  0
 37 40  1  0  0  0  0
 39 38  1  0  0  0  0
 40 31  1  6  0  0  0
 40 39  1  0  0  0  0
M  END
>  <MODEL>
3

>  <REMARK>
 VINA RESULT:      -8.1      3.485      7.236
  Name = 
  6 active torsions:
  status: ('A' for Active; 'I' for Inactive)
    1  A    between atoms: C_1  and  N_10
    2  A    between atoms: C_1  and  C_34
    3  A    between atoms: C_3  and  N_4
    4  A    between atoms: C_9  and  S_11
    5  A    between atoms: S_11  and  C_37
    6  A    between atoms: C_18  and  C_37
                            x       y       z     vdW  Elec       q    Type
                         _______ _______ _______ _____ _____    ______ ____

>  <TORSDO>
F 6

$$$$
=
 OpenBabel10222421573D

 40 43  0  0  1  0  0  0  0  0999 V2000
  183.6030  173.4380  137.2660 C   0  0  0  0  0  0  0  0  0  0  0  0
  190.6230  175.8370  137.8890 C   0  0  0  0  0  0  0  0  0  0  0  0
  184.4440  174.3620  137.5610 N   0  0  0  0  0  0  0  0  0  0  0  0
  184.0450  172.0270  137.0610 C   0  0  0  0  0  2  0  0  0  0  0  0
  184.2250  176.7710  137.6720 C   0  0  0  0  0  0  0  0  0  0  0  0
  186.7620  173.2600  136.3450 C   0  0  0  0  0  3  0  0  0  0  0  0
  184.2390  171.1940  134.8470 O   0  0  0  0  0  0  0  0  0  0  0  0
  185.6500  176.9260  137.7230 N   0  0  0  0  0  2  0  0  0  0  0  0
  186.1150  172.4570  135.4980 C   0  0  0  0  0  3  0  0  0  0  0  0
  182.3030  175.1900  137.2570 C   0  0  0  0  0  3  0  0  0  0  0  0
  188.8150  173.3230  134.9080 C   0  0  0  0  0  1  0  0  0  0  0  0
  188.0470  173.8330  136.0410 N   0  0  0  0  0  0  0  0  0  0  0  0
  189.8380  176.8510  138.4490 C   0  0  0  0  0  3  0  0  0  0  0  0
  187.8470  175.9000  137.4370 C   0  0  0  0  0  0  0  0  0  0  0  0
  182.2650  173.9070  137.0760 N   0  0  0  0  0  0  0  0  0  0  0  0
  188.6260  174.8590  136.8760 C   0  0  0  0  0  0  0  0  0  0  0  0
  183.6850  175.5510  137.5480 C   0  0  0  0  0  0  0  0  0  0  0  0
  190.0120  174.8530  137.1080 C   0  0  0  0  0  3  0  0  0  0  0  0
  184.7820  171.8690  135.7600 C   0  0  0  0  0  0  0  0  0  0  0  0
  188.4620  176.8830  138.2240 C   0  0  0  0  0  3  0  0  0  0  0  0
  186.4740  175.9440  137.2040 O   0  0  0  0  0  0  0  0  0  0  0  0
  192.0400  175.7690  138.0970 N   0  0  0  0  0  2  0  0  0  0  0  0
  192.7350  176.1630  135.7700 O   0  0  0  0  0  0  0  0  0  0  0  0
  193.0570  175.9450  137.1040 C   0  0  0  0  0  0  0  0  0  0  0  0
  194.2660  175.8890  137.4450 O   0  0  0  0  0  1  0  0  0  0  0  0
  183.1880  178.2310  137.7330 S   0  0  0  0  0  0  0  0  0  0  0  0
  183.1930  178.2480  139.5490 C   0  0  0  0  0  2  0  0  0  0  0  0
  184.6230  179.1960  141.4250 N   0  0  0  0  0  2  0  0  0  0  0  0
  184.2690  179.1540  140.0410 C   0  0  0  0  0  0  0  0  0  0  0  0
  184.8570  179.9130  139.2280 O   0  0  0  0  0  0  0  0  0  0  0  0
  183.9780  178.3510  142.4190 C   0  0  0  0  0  2  0  0  0  0  0  0
  187.3570  177.6610  146.1890 C   0  0  0  0  0  2  0  0  0  0  0  0
  183.5050  179.1620  145.2940 O   0  0  0  0  0  1  0  0  0  0  0  0
  185.7950  179.3790  145.5660 O   0  0  0  0  0  0  0  0  0  0  0  0
  187.9290  177.7380  144.7740 C   0  0  0  0  0  2  0  0  0  0  0  0
  185.9200  178.1670  146.2670 C   0  0  0  0  0  2  0  0  0  0  0  0
  184.7360  179.2570  144.6360 C   0  0  1  0  0  3  0  0  0  0  0  0
  187.0760  177.0320  143.8290 N   0  0  0  0  0  2  0  0  0  0  0  0
  186.3360  178.0380  143.0790 C   0  0  0  0  0  2  0  0  0  0  0  0
  184.9060  178.1240  143.5990 C   0  0  2  0  0  3  0  0  0  0  0  0
  1  3  2  0  0  0  0
  2 22  1  0  0  0  0
  2 13  1  0  0  0  0
  4  1  1  0  0  0  0
  5  8  1  0  0  0  0
  5 26  1  0  0  0  0
  7 19  2  0  0  0  0
  9 19  1  0  0  0  0
  9  6  2  0  0  0  0
 10 17  1  0  0  0  0
 11 12  1  0  0  0  0
 12  6  1  0  0  0  0
 12 16  1  0  0  0  0
 14 20  1  0  0  0  0
 15 10  2  0  0  0  0
 15  1  1  0  0  0  0
 16 18  1  0  0  0  0
 16 14  2  0  0  0  0
 17  3  1  0  0  0  0
 17  5  2  0  0  0  0
 18  2  2  0  0  0  0
 19  4  1  0  0  0  0
 20 13  2  0  0  0  0
 21 14  1  0  0  0  0
 21  8  1  0  0  0  0
 23 24  2  0  0  0  0
 24 25  1  0  0  0  0
 24 22  1  0  0  0  0
 26 27  1  0  0  0  0
 27 29  1  0  0  0  0
 28 31  1  0  0  0  0
 29 28  1  0  0  0  0
 30 29  2  0  0  0  0
 32 36  1  0  0  0  0
 34 36  1  0  0  0  0
 35 32  1  0  0  0  0
 37 33  1  1  0  0  0
 37 34  1  0  0  0  0
 38 35  1  0  0  0  0
 39 40  1  0  0  0  0
 39 38  1  0  0  0  0
 40 31  1  6  0  0  0
 40 37  1  0  0  0  0
M  END
>  <MODEL>
4

>  <REMARK>
 VINA RESULT:      -7.9      2.782      7.747
  Name = 
  6 active torsions:
  status: ('A' for Active; 'I' for Inactive)
    1  A    between atoms: C_1  and  N_10
    2  A    between atoms: C_1  and  C_34
    3  A    between atoms: C_3  and  N_4
    4  A    between atoms: C_9  and  S_11
    5  A    between atoms: S_11  and  C_37
    6  A    between atoms: C_18  and  C_37
                            x       y       z     vdW  Elec       q    Type
                         _______ _______ _______ _____ _____    ______ ____

>  <TORSDO>
F 6

$$$$
=
 OpenBabel10222421573D

 40 43  0  0  1  0  0  0  0  0999 V2000
  190.1520  176.5340  146.0190 C   0  0  0  0  0  0  0  0  0  0  0  0
  183.4710  178.5120  143.3930 C   0  0  0  0  0  0  0  0  0  0  0  0
  189.3720  176.7900  145.0310 N   0  0  0  0  0  0  0  0  0  0  0  0
  189.6140  176.3460  147.3980 C   0  0  0  0  0  2  0  0  0  0  0  0
  189.8220  177.4630  142.7490 C   0  0  0  0  0  0  0  0  0  0  0  0
  187.2730  178.0830  146.4410 C   0  0  0  0  0  3  0  0  0  0  0  0
  189.8240  178.1150  148.9660 O   0  0  0  0  0  0  0  0  0  0  0  0
  188.4470  177.8190  142.5520 N   0  0  0  0  0  2  0  0  0  0  0  0
  188.0000  178.4160  147.5100 C   0  0  0  0  0  3  0  0  0  0  0  0
  191.6050  176.8250  144.4170 C   0  0  0  0  0  3  0  0  0  0  0  0
  185.6070  179.9100  146.8520 C   0  0  0  0  0  1  0  0  0  0  0  0
  186.1570  178.8690  145.9870 N   0  0  0  0  0  0  0  0  0  0  0  0
  184.2190  178.1600  142.2640 C   0  0  0  0  0  3  0  0  0  0  0  0
  186.2680  178.2640  143.5610 C   0  0  0  0  0  0  0  0  0  0  0  0
  191.5420  176.5410  145.6810 N   0  0  0  0  0  0  0  0  0  0  0  0
  185.5230  178.6060  144.7160 C   0  0  0  0  0  0  0  0  0  0  0  0
  190.2400  177.0240  143.9440 C   0  0  0  0  0  0  0  0  0  0  0  0
  184.1280  178.7340  144.6060 C   0  0  0  0  0  3  0  0  0  0  0  0
  189.1700  177.6520  147.9960 C   0  0  0  0  0  0  0  0  0  0  0  0
  185.6060  178.0380  142.3470 C   0  0  0  0  0  3  0  0  0  0  0  0
  187.6560  178.1540  143.6350 O   0  0  0  0  0  0  0  0  0  0  0  0
  182.0450  178.6480  143.3490 N   0  0  0  0  0  2  0  0  0  0  0  0
  181.8350  179.1570  140.9510 O   0  0  0  0  0  0  0  0  0  0  0  0
  181.2500  178.9310  142.1920 C   0  0  0  0  0  0  0  0  0  0  0  0
  179.9990  178.9890  142.3030 O   0  0  0  0  0  1  0  0  0  0  0  0
  190.9730  177.6540  141.3890 S   0  0  0  0  0  0  0  0  0  0  0  0
  189.6710  177.3830  140.1520 C   0  0  0  0  0  2  0  0  0  0  0  0
  189.9290  177.5940  137.6310 N   0  0  0  0  0  2  0  0  0  0  0  0
  190.2840  176.9590  138.8610 C   0  0  0  0  0  0  0  0  0  0  0  0
  191.1080  176.0080  138.8520 O   0  0  0  0  0  0  0  0  0  0  0  0
  188.9780  178.6940  137.5710 C   0  0  0  0  0  2  0  0  0  0  0  0
  184.8630  176.9510  135.0940 C   0  0  0  0  0  2  0  0  0  0  0  0
  186.1830  178.6660  138.7290 O   0  0  0  0  0  1  0  0  0  0  0  0
  185.6770  176.8710  137.3550 O   0  0  0  0  0  0  0  0  0  0  0  0
  186.2120  176.3920  134.6420 C   0  0  0  0  0  2  0  0  0  0  0  0
  184.9440  177.6530  136.4460 C   0  0  0  0  0  2  0  0  0  0  0  0
  186.7100  177.6650  137.9060 C   0  0  1  0  0  3  0  0  0  0  0  0
  187.2270  177.4350  134.6270 N   0  0  0  0  0  2  0  0  0  0  0  0
  188.0690  177.2370  135.7990 C   0  0  0  0  0  2  0  0  0  0  0  0
  187.7020  178.2500  136.8760 C   0  0  2  0  0  3  0  0  0  0  0  0
  1  4  1  0  0  0  0
  2 18  1  0  0  0  0
  3  1  2  0  0  0  0
  4 19  1  0  0  0  0
  5 17  2  0  0  0  0
  6  9  2  0  0  0  0
  8  5  1  0  0  0  0
  8 21  1  0  0  0  0
  9 19  1  0  0  0  0
 10 15  2  0  0  0  0
 12  6  1  0  0  0  0
 12 11  1  0  0  0  0
 13 20  1  0  0  0  0
 13  2  2  0  0  0  0
 14 21  1  0  0  0  0
 14 16  1  0  0  0  0
 15  1  1  0  0  0  0
 16 12  1  0  0  0  0
 17 10  1  0  0  0  0
 17  3  1  0  0  0  0
 18 16  2  0  0  0  0
 19  7  2  0  0  0  0
 20 14  2  0  0  0  0
 22  2  1  0  0  0  0
 23 24  2  0  0  0  0
 24 25  1  0  0  0  0
 24 22  1  0  0  0  0
 26  5  1  0  0  0  0
 27 26  1  0  0  0  0
 28 29  1  0  0  0  0
 29 27  1  0  0  0  0
 30 29  2  0  0  0  0
 31 28  1  0  0  0  0
 32 36  1  0  0  0  0
 34 37  1  0  0  0  0
 35 32  1  0  0  0  0
 36 34  1  0  0  0  0
 37 33  1  6  0  0  0
 38 35  1  0  0  0  0
 38 39  1  0  0  0  0
 39 40  1  0  0  0  0
 40 31  1  1  0  0  0
 40 37  1  0  0  0  0
M  END
>  <MODEL>
5

>  <REMARK>
 VINA RESULT:      -7.7      2.299      5.961
  Name = 
  6 active torsions:
  status: ('A' for Active; 'I' for Inactive)
    1  A    between atoms: C_1  and  N_10
    2  A    between atoms: C_1  and  C_34
    3  A    between atoms: C_3  and  N_4
    4  A    between atoms: C_9  and  S_11
    5  A    between atoms: S_11  and  C_37
    6  A    between atoms: C_18  and  C_37
                            x       y       z     vdW  Elec       q    Type
                         _______ _______ _______ _____ _____    ______ ____

>  <TORSDO>
F 6

$$$$
=
 OpenBabel10222421573D

 40 43  0  0  1  0  0  0  0  0999 V2000
  189.4350  177.9970  147.6140 C   0  0  0  0  0  0  0  0  0  0  0  0
  189.8420  177.5690  140.1920 C   0  0  0  0  0  0  0  0  0  0  0  0
  188.8880  178.1130  146.4580 N   0  0  0  0  0  0  0  0  0  0  0  0
  190.9130  177.8530  147.7580 C   0  0  0  0  0  2  0  0  0  0  0  0
  186.5720  178.0560  145.7530 C   0  0  0  0  0  0  0  0  0  0  0  0
  190.8160  176.7170  144.9100 C   0  0  0  0  0  3  0  0  0  0  0  0
  191.8210  175.7060  148.2030 O   0  0  0  0  0  0  0  0  0  0  0  0
  186.9640  177.9220  144.3800 N   0  0  0  0  0  2  0  0  0  0  0  0
  191.3410  176.0220  145.9210 C   0  0  0  0  0  3  0  0  0  0  0  0
  187.3220  178.0060  148.1610 C   0  0  0  0  0  3  0  0  0  0  0  0
  191.5740  175.0410  143.2060 C   0  0  0  0  0  1  0  0  0  0  0  0
  190.7800  176.2140  143.5620 N   0  0  0  0  0  0  0  0  0  0  0  0
  188.5910  178.1370  140.4580 C   0  0  0  0  0  3  0  0  0  0  0  0
  188.7500  177.4540  142.7820 C   0  0  0  0  0  0  0  0  0  0  0  0
  188.5020  177.9330  148.6960 N   0  0  0  0  0  0  0  0  0  0  0  0
  190.0240  176.8880  142.5310 C   0  0  0  0  0  0  0  0  0  0  0  0
  187.5010  178.0970  146.7170 C   0  0  0  0  0  0  0  0  0  0  0  0
  190.5460  176.9490  141.2280 C   0  0  0  0  0  3  0  0  0  0  0  0
  191.3750  176.4890  147.3250 C   0  0  0  0  0  0  0  0  0  0  0  0
  188.0490  178.0790  141.7420 C   0  0  0  0  0  3  0  0  0  0  0  0
  188.1980  177.3870  144.0600 O   0  0  0  0  0  0  0  0  0  0  0  0
  190.4330  177.6080  138.8870 N   0  0  0  0  0  2  0  0  0  0  0  0
  190.5950  175.1810  138.5230 O   0  0  0  0  0  1  0  0  0  0  0  0
  190.7750  176.4820  138.0710 C   0  0  0  0  0  0  0  0  0  0  0  0
  191.2600  176.6750  136.9270 O   0  0  0  0  0  0  0  0  0  0  0  0
  184.8280  178.1260  146.1570 S   0  0  0  0  0  0  0  0  0  0  0  0
  184.4650  179.1920  144.7320 C   0  0  0  0  0  2  0  0  0  0  0  0
  183.0650  178.4540  142.7410 N   0  0  0  0  0  2  0  0  0  0  0  0
  183.1620  178.7950  144.1260 C   0  0  0  0  0  0  0  0  0  0  0  0
  182.1260  178.7870  144.8400 O   0  0  0  0  0  0  0  0  0  0  0  0
  184.2230  178.4510  141.8590 C   0  0  0  0  0  2  0  0  0  0  0  0
  182.5420  177.0130  137.2530 C   0  0  0  0  0  2  0  0  0  0  0  0
  184.8560  179.9120  139.2870 O   0  0  0  0  0  1  0  0  0  0  0  0
  182.8790  179.1040  138.3900 O   0  0  0  0  0  0  0  0  0  0  0  0
  181.7110  176.5540  138.4500 C   0  0  0  0  0  2  0  0  0  0  0  0
  183.5220  178.1250  137.6140 C   0  0  0  0  0  2  0  0  0  0  0  0
  183.6270  179.3080  139.5740 C   0  0  1  0  0  3  0  0  0  0  0  0
  182.5690  176.1530  139.5560 N   0  0  0  0  0  2  0  0  0  0  0  0
  182.5340  177.2250  140.5410 C   0  0  0  0  0  2  0  0  0  0  0  0
  183.8110  178.0510  140.4530 C   0  0  2  0  0  3  0  0  0  0  0  0
  1  4  1  0  0  0  0
  1 15  1  0  0  0  0
  2 13  2  0  0  0  0
  2 18  1  0  0  0  0
  3 17  1  0  0  0  0
  3  1  2  0  0  0  0
  5 26  1  0  0  0  0
  5 17  2  0  0  0  0
  6  9  2  0  0  0  0
  8  5  1  0  0  0  0
  9 19  1  0  0  0  0
 10 15  2  0  0  0  0
 11 12  1  0  0  0  0
 12  6  1  0  0  0  0
 13 20  1  0  0  0  0
 14 21  1  0  0  0  0
 16 14  1  0  0  0  0
 16 12  1  0  0  0  0
 17 10  1  0  0  0  0
 18 16  2  0  0  0  0
 19  4  1  0  0  0  0
 19  7  2  0  0  0  0
 20 14  2  0  0  0  0
 21  8  1  0  0  0  0
 22  2  1  0  0  0  0
 24 23  1  0  0  0  0
 24 22  1  0  0  0  0
 25 24  2  0  0  0  0
 27 26  1  0  0  0  0
 28 29  1  0  0  0  0
 29 27  1  0  0  0  0
 29 30  2  0  0  0  0
 31 28  1  0  0  0  0
 32 36  1  0  0  0  0
 32 35  1  0  0  0  0
 34 37  1  0  0  0  0
 35 38  1  0  0  0  0
 36 34  1  0  0  0  0
 37 33  1  6  0  0  0
 37 40  1  0  0  0  0
 38 39  1  0  0  0  0
 40 39  1  0  0  0  0
 40 31  1  1  0  0  0
M  END
>  <MODEL>
6

>  <REMARK>
 VINA RESULT:      -7.7      2.362      3.669
  Name = 
  6 active torsions:
  status: ('A' for Active; 'I' for Inactive)
    1  A    between atoms: C_1  and  N_10
    2  A    between atoms: C_1  and  C_34
    3  A    between atoms: C_3  and  N_4
    4  A    between atoms: C_9  and  S_11
    5  A    between atoms: S_11  and  C_37
    6  A    between atoms: C_18  and  C_37
                            x       y       z     vdW  Elec       q    Type
                         _______ _______ _______ _____ _____    ______ ____

>  <TORSDO>
F 6

$$$$
=
 OpenBabel10222421573D

 40 43  0  0  1  0  0  0  0  0999 V2000
  186.6410  178.7640  146.4470 C   0  0  0  0  0  0  0  0  0  0  0  0
  189.7810  177.7780  139.7690 C   0  0  0  0  0  0  0  0  0  0  0  0
  186.5690  178.7880  145.1660 N   0  0  0  0  0  0  0  0  0  0  0  0
  187.9550  178.6400  147.1440 C   0  0  0  0  0  2  0  0  0  0  0  0
  184.6830  178.6640  143.6520 C   0  0  0  0  0  0  0  0  0  0  0  0
  188.9030  177.2910  144.5570 C   0  0  0  0  0  3  0  0  0  0  0  0
  188.5820  176.5380  148.0510 O   0  0  0  0  0  0  0  0  0  0  0  0
  185.5550  178.4280  142.5380 N   0  0  0  0  0  2  0  0  0  0  0  0
  188.9960  176.6780  145.7390 C   0  0  0  0  0  3  0  0  0  0  0  0
  184.4780  178.8010  146.1630 C   0  0  0  0  0  3  0  0  0  0  0  0
  190.2040  175.4950  143.3860 C   0  0  0  0  0  1  0  0  0  0  0  0
  189.3610  176.6870  143.3330 N   0  0  0  0  0  0  0  0  0  0  0  0
  188.5340  178.3570  139.5060 C   0  0  0  0  0  3  0  0  0  0  0  0
  187.7980  177.8520  141.7630 C   0  0  0  0  0  0  0  0  0  0  0  0
  185.3700  178.7760  147.1040 N   0  0  0  0  0  0  0  0  0  0  0  0
  189.0600  177.2770  142.0490 C   0  0  0  0  0  0  0  0  0  0  0  0
  185.1850  178.7830  144.8880 C   0  0  0  0  0  0  0  0  0  0  0  0
  190.0320  177.2420  141.0340 C   0  0  0  0  0  3  0  0  0  0  0  0
  188.5140  177.2500  147.0150 C   0  0  0  0  0  0  0  0  0  0  0  0
  187.5500  178.3920  140.4940 C   0  0  0  0  0  3  0  0  0  0  0  0
  186.8080  177.8790  142.7430 O   0  0  0  0  0  0  0  0  0  0  0  0
  190.8170  177.7210  138.7800 N   0  0  0  0  0  2  0  0  0  0  0  0
  190.8870  175.2770  138.5130 O   0  0  0  0  0  1  0  0  0  0  0  0
  191.3380  176.5420  138.1560 C   0  0  0  0  0  0  0  0  0  0  0  0
  192.2300  176.6530  137.2770 O   0  0  0  0  0  0  0  0  0  0  0  0
  182.9160  178.7540  143.3680 S   0  0  0  0  0  0  0  0  0  0  0  0
  183.1310  178.7620  141.5650 C   0  0  0  0  0  2  0  0  0  0  0  0
  181.7010  178.5260  139.4760 N   0  0  0  0  0  2  0  0  0  0  0  0
  181.8060  178.6060  140.8990 C   0  0  0  0  0  0  0  0  0  0  0  0
  180.7630  178.5730  141.6010 O   0  0  0  0  0  0  0  0  0  0  0  0
  182.8670  178.5660  138.6060 C   0  0  0  0  0  2  0  0  0  0  0  0
  183.9710  173.7880  137.1700 C   0  0  0  0  0  2  0  0  0  0  0  0
  185.5800  177.6760  137.6080 O   0  0  0  0  0  1  0  0  0  0  0  0
  184.5380  175.9950  136.4020 O   0  0  0  0  0  0  0  0  0  0  0  0
  182.5000  174.1950  137.0940 C   0  0  0  0  0  2  0  0  0  0  0  0
  184.9020  174.9880  137.3130 C   0  0  0  0  0  2  0  0  0  0  0  0
  184.3590  177.2060  137.1120 C   0  0  1  0  0  3  0  0  0  0  0  0
  182.1250  175.0120  138.2400 N   0  0  0  0  0  2  0  0  0  0  0  0
  182.0440  176.3910  137.7800 C   0  0  0  0  0  2  0  0  0  0  0  0
  183.2840  177.1580  138.2200 C   0  0  2  0  0  3  0  0  0  0  0  0
  1 15  1  0  0  0  0
  1  4  1  0  0  0  0
  2 18  1  0  0  0  0
  3  1  2  0  0  0  0
  5 17  2  0  0  0  0
  6  9  2  0  0  0  0
  8 21  1  0  0  0  0
  8  5  1  0  0  0  0
  9 19  1  0  0  0  0
 10 15  2  0  0  0  0
 12 11  1  0  0  0  0
 12  6  1  0  0  0  0
 13  2  2  0  0  0  0
 13 20  1  0  0  0  0
 14 16  1  0  0  0  0
 14 21  1  0  0  0  0
 16 12  1  0  0  0  0
 17  3  1  0  0  0  0
 17 10  1  0  0  0  0
 18 16  2  0  0  0  0
 19  4  1  0  0  0  0
 19  7  2  0  0  0  0
 20 14  2  0  0  0  0
 22  2  1  0  0  0  0
 24 23  1  0  0  0  0
 24 22  1  0  0  0  0
 25 24  2  0  0  0  0
 26  5  1  0  0  0  0
 27 26  1  0  0  0  0
 28 29  1  0  0  0  0
 29 27  1  0  0  0  0
 29 30  2  0  0  0  0
 31 28  1  0  0  0  0
 32 36  1  0  0  0  0
 34 37  1  0  0  0  0
 34 36  1  0  0  0  0
 35 32  1  0  0  0  0
 35 38  1  0  0  0  0
 37 33  1  1  0  0  0
 37 40  1  0  0  0  0
 39 40  1  0  0  0  0
 39 38  1  0  0  0  0
 40 31  1  6  0  0  0
M  END
>  <MODEL>
7

>  <REMARK>
 VINA RESULT:      -7.7      1.786      2.238
  Name = 
  6 active torsions:
  status: ('A' for Active; 'I' for Inactive)
    1  A    between atoms: C_1  and  N_10
    2  A    between atoms: C_1  and  C_34
    3  A    between atoms: C_3  and  N_4
    4  A    between atoms: C_9  and  S_11
    5  A    between atoms: S_11  and  C_37
    6  A    between atoms: C_18  and  C_37
                            x       y       z     vdW  Elec       q    Type
                         _______ _______ _______ _____ _____    ______ ____

>  <TORSDO>
F 6

$$$$
=
 OpenBabel10222421573D

 40 43  0  0  1  0  0  0  0  0999 V2000
  191.3970  176.4340  136.6300 C   0  0  0  0  0  0  0  0  0  0  0  0
  184.4280  178.2980  138.4680 C   0  0  0  0  0  0  0  0  0  0  0  0
  190.5590  176.9350  137.4640 N   0  0  0  0  0  0  0  0  0  0  0  0
  191.0100  176.1630  135.2150 C   0  0  0  0  0  2  0  0  0  0  0  0
  190.6550  177.2400  139.8650 C   0  0  0  0  0  0  0  0  0  0  0  0
  188.1500  175.9710  136.3110 C   0  0  0  0  0  3  0  0  0  0  0  0
  190.5300  173.9320  134.5630 O   0  0  0  0  0  0  0  0  0  0  0  0
  189.2480  177.5130  139.9150 N   0  0  0  0  0  2  0  0  0  0  0  0
  188.7060  174.9670  135.6300 C   0  0  0  0  0  3  0  0  0  0  0  0
  192.5790  176.4030  138.4650 C   0  0  0  0  0  3  0  0  0  0  0  0
  185.9030  174.8610  136.3510 C   0  0  0  0  0  1  0  0  0  0  0  0
  186.8040  175.9130  136.8150 N   0  0  0  0  0  0  0  0  0  0  0  0
  185.2290  178.8310  139.4840 C   0  0  0  0  0  3  0  0  0  0  0  0
  187.0950  177.4550  138.7650 C   0  0  0  0  0  0  0  0  0  0  0  0
  192.6620  176.0960  137.2070 N   0  0  0  0  0  0  0  0  0  0  0  0
  186.3000  176.9170  137.7230 C   0  0  0  0  0  0  0  0  0  0  0  0
  191.2390  176.9240  138.7010 C   0  0  0  0  0  0  0  0  0  0  0  0
  184.9680  177.3460  137.6000 C   0  0  0  0  0  3  0  0  0  0  0  0
  190.0940  174.9740  135.1170 C   0  0  0  0  0  0  0  0  0  0  0  0
  186.5520  178.4120  139.6320 C   0  0  0  0  0  3  0  0  0  0  0  0
  188.4120  177.0300  138.9250 O   0  0  0  0  0  0  0  0  0  0  0  0
  183.0650  178.7030  138.2840 N   0  0  0  0  0  2  0  0  0  0  0  0
  182.2210  178.0480  140.5000 O   0  0  0  0  0  1  0  0  0  0  0  0
  182.0090  178.6110  139.2480 C   0  0  0  0  0  0  0  0  0  0  0  0
  180.8650  179.0390  138.9510 O   0  0  0  0  0  0  0  0  0  0  0  0
  191.6050  177.2880  141.3830 S   0  0  0  0  0  0  0  0  0  0  0  0
  190.1910  177.9130  142.3350 C   0  0  0  0  0  2  0  0  0  0  0  0
  189.9930  177.9140  144.8710 N   0  0  0  0  0  2  0  0  0  0  0  0
  190.6480  178.3620  143.6820 C   0  0  0  0  0  0  0  0  0  0  0  0
  191.6100  179.1680  143.7690 O   0  0  0  0  0  0  0  0  0  0  0  0
  188.8710  176.9890  144.8380 C   0  0  0  0  0  2  0  0  0  0  0  0
  184.3410  179.3530  144.7810 C   0  0  0  0  0  2  0  0  0  0  0  0
  187.4700  178.0380  147.3060 O   0  0  0  0  0  1  0  0  0  0  0  0
  185.4430  177.7710  146.2180 O   0  0  0  0  0  0  0  0  0  0  0  0
  184.6290  178.4130  143.6110 C   0  0  0  0  0  2  0  0  0  0  0  0
  185.3010  179.1430  145.9480 C   0  0  0  0  0  2  0  0  0  0  0  0
  186.8210  177.4490  146.2160 C   0  0  1  0  0  3  0  0  0  0  0  0
  186.0130  178.5340  143.1750 N   0  0  0  0  0  2  0  0  0  0  0  0
  186.7270  177.3670  143.6760 C   0  0  0  0  0  2  0  0  0  0  0  0
  187.5590  177.7510  144.8930 C   0  0  2  0  0  3  0  0  0  0  0  0
  1 15  1  0  0  0  0
  1  3  2  0  0  0  0
  2 13  1  0  0  0  0
  3 17  1  0  0  0  0
  4  1  1  0  0  0  0
  5  8  1  0  0  0  0
  5 26  1  0  0  0  0
  6 12  1  0  0  0  0
  7 19  2  0  0  0  0
  9  6  2  0  0  0  0
 10 17  1  0  0  0  0
 11 12  1  0  0  0  0
 12 16  1  0  0  0  0
 13 20  2  0  0  0  0
 14 21  1  0  0  0  0
 14 20  1  0  0  0  0
 15 10  2  0  0  0  0
 16 14  2  0  0  0  0
 17  5  2  0  0  0  0
 18 16  1  0  0  0  0
 18  2  2  0  0  0  0
 19  4  1  0  0  0  0
 19  9  1  0  0  0  0
 21  8  1  0  0  0  0
 22  2  1  0  0  0  0
 22 24  1  0  0  0  0
 24 23  1  0  0  0  0
 25 24  2  0  0  0  0
 26 27  1  0  0  0  0
 27 29  1  0  0  0  0
 29 30  2  0  0  0  0
 29 28  1  0  0  0  0
 31 28  1  0  0  0  0
 32 36  1  0  0  0  0
 35 32  1  0  0  0  0
 36 34  1  0  0  0  0
 37 34  1  0  0  0  0
 37 33  1  1  0  0  0
 38 35  1  0  0  0  0
 38 39  1  0  0  0  0
 39 40  1  0  0  0  0
 40 31  1  1  0  0  0
 40 37  1  0  0  0  0
M  END
>  <MODEL>
8

>  <REMARK>
 VINA RESULT:      -7.6      2.382      9.079
  Name = 
  6 active torsions:
  status: ('A' for Active; 'I' for Inactive)
    1  A    between atoms: C_1  and  N_10
    2  A    between atoms: C_1  and  C_34
    3  A    between atoms: C_3  and  N_4
    4  A    between atoms: C_9  and  S_11
    5  A    between atoms: S_11  and  C_37
    6  A    between atoms: C_18  and  C_37
                            x       y       z     vdW  Elec       q    Type
                         _______ _______ _______ _____ _____    ______ ____

>  <TORSDO>
F 6

$$$$
=
 OpenBabel10222421573D

 40 43  0  0  1  0  0  0  0  0999 V2000
  183.4390  174.1530  137.3490 C   0  0  0  0  0  0  0  0  0  0  0  0
  190.2690  176.9790  138.2420 C   0  0  0  0  0  0  0  0  0  0  0  0
  184.2100  175.1160  137.7030 N   0  0  0  0  0  0  0  0  0  0  0  0
  183.9790  172.7850  137.0930 C   0  0  0  0  0  2  0  0  0  0  0  0
  183.8290  177.4980  137.9130 C   0  0  0  0  0  0  0  0  0  0  0  0
  186.6220  174.2260  136.4960 C   0  0  0  0  0  3  0  0  0  0  0  0
  184.2750  172.0670  134.8500 O   0  0  0  0  0  0  0  0  0  0  0  0
  185.2390  177.7450  138.0050 N   0  0  0  0  0  2  0  0  0  0  0  0
  186.0480  173.4200  135.6000 C   0  0  0  0  0  3  0  0  0  0  0  0
  182.0250  175.8150  137.3850 C   0  0  0  0  0  3  0  0  0  0  0  0
  188.6960  174.4870  135.1130 C   0  0  0  0  0  1  0  0  0  0  0  0
  187.8710  174.8940  136.2480 N   0  0  0  0  0  0  0  0  0  0  0  0
  189.4060  177.9130  138.8270 C   0  0  0  0  0  3  0  0  0  0  0  0
  187.5050  176.8800  137.7270 C   0  0  0  0  0  0  0  0  0  0  0  0
  182.0770  174.5410  137.1470 N   0  0  0  0  0  0  0  0  0  0  0  0
  188.3630  175.9180  137.1410 C   0  0  0  0  0  0  0  0  0  0  0  0
  183.3740  176.2520  137.7240 C   0  0  0  0  0  0  0  0  0  0  0  0
  189.7420  175.9930  137.4050 C   0  0  0  0  0  3  0  0  0  0  0  0
  184.7520  172.7350  135.8040 C   0  0  0  0  0  0  0  0  0  0  0  0
  188.0360  177.8650  138.5700 C   0  0  0  0  0  3  0  0  0  0  0  0
  186.1370  176.8430  137.4640 O   0  0  0  0  0  0  0  0  0  0  0  0
  191.6820  176.9950  138.4800 N   0  0  0  0  0  2  0  0  0  0  0  0
  191.6070  177.5060  140.8860 O   0  0  0  0  0  1  0  0  0  0  0  0
  192.3340  177.2220  139.7350 C   0  0  0  0  0  0  0  0  0  0  0  0
  193.5890  177.1740  139.7960 O   0  0  0  0  0  0  0  0  0  0  0  0
  182.6960  178.8820  138.0130 S   0  0  0  0  0  0  0  0  0  0  0  0
  183.4000  179.4400  139.5910 C   0  0  0  0  0  2  0  0  0  0  0  0
  183.7260  178.1900  141.7820 N   0  0  0  0  0  2  0  0  0  0  0  0
  182.8800  178.5930  140.7020 C   0  0  0  0  0  0  0  0  0  0  0  0
  181.6840  178.2050  140.6740 O   0  0  0  0  0  0  0  0  0  0  0  0
  185.1200  178.5980  141.8700 C   0  0  0  0  0  2  0  0  0  0  0  0
  186.3820  178.3950  146.8170 C   0  0  0  0  0  2  0  0  0  0  0  0
  187.7740  177.5800  142.9060 O   0  0  0  0  0  1  0  0  0  0  0  0
  186.7290  176.9990  144.8900 O   0  0  0  0  0  0  0  0  0  0  0  0
  184.8880  178.3770  146.4990 C   0  0  0  0  0  2  0  0  0  0  0  0
  187.2440  178.1020  145.5930 C   0  0  0  0  0  2  0  0  0  0  0  0
  186.5430  177.3700  143.5380 C   0  0  1  0  0  3  0  0  0  0  0  0
  184.5770  179.2930  145.4110 N   0  0  0  0  0  2  0  0  0  0  0  0
  184.3620  178.4890  144.2160 C   0  0  0  0  0  2  0  0  0  0  0  0
  185.5880  178.5640  143.3150 C   0  0  2  0  0  3  0  0  0  0  0  0
  1  3  2  0  0  0  0
  2 22  1  0  0  0  0
  2 13  1  0  0  0  0
  3 17  1  0  0  0  0
  4  1  1  0  0  0  0
  5  8  1  0  0  0  0
  5 26  1  0  0  0  0
  7 19  2  0  0  0  0
  9 19  1  0  0  0  0
  9  6  2  0  0  0  0
 10 17  1  0  0  0  0
 11 12  1  0  0  0  0
 12  6  1  0  0  0  0
 12 16  1  0  0  0  0
 14 20  1  0  0  0  0
 15  1  1  0  0  0  0
 15 10  2  0  0  0  0
 16 18  1  0  0  0  0
 16 14  2  0  0  0  0
 17  5  2  0  0  0  0
 18  2  2  0  0  0  0
 19  4  1  0  0  0  0
 20 13  2  0  0  0  0
 21 14  1  0  0  0  0
 21  8  1  0  0  0  0
 22 24  1  0  0  0  0
 24 25  2  0  0  0  0
 24 23  1  0  0  0  0
 26 27  1  0  0  0  0
 27 29  1  0  0  0  0
 28 31  1  0  0  0  0
 29 28  1  0  0  0  0
 30 29  2  0  0  0  0
 34 36  1  0  0  0  0
 35 32  1  0  0  0  0
 36 32  1  0  0  0  0
 37 33  1  1  0  0  0
 37 34  1  0  0  0  0
 38 35  1  0  0  0  0
 39 38  1  0  0  0  0
 40 31  1  6  0  0  0
 40 37  1  0  0  0  0
 40 39  1  0  0  0  0
M  END
>  <MODEL>
9

>  <REMARK>
 VINA RESULT:      -7.5      2.368      7.509
  Name = 
  6 active torsions:
  status: ('A' for Active; 'I' for Inactive)
    1  A    between atoms: C_1  and  N_10
    2  A    between atoms: C_1  and  C_34
    3  A    between atoms: C_3  and  N_4
    4  A    between atoms: C_9  and  S_11
    5  A    between atoms: S_11  and  C_37
    6  A    between atoms: C_18  and  C_37
                            x       y       z     vdW  Elec       q    Type
                         _______ _______ _______ _____ _____    ______ ____

>  <TORSDO>
F 6

$$$$
