=
 OpenBabel10232410453D

 35 37  0  0  1  0  0  0  0  0999 V2000
  190.4570  176.5590  140.8860 O   0  0  0  0  0  1  0  0  0  0  0  0
  189.4550  176.8450  138.7320 C   0  0  0  0  0  0  0  0  0  0  0  0
  187.5400  178.3550  140.0590 N   0  0  0  0  0  0  0  0  0  0  0  0
  190.2890  175.8260  138.1400 N   0  0  0  0  0  0  0  0  0  0  0  0
  189.8190  177.4880  140.0590 C   0  0  1  0  0  3  0  0  0  0  0  0
  188.3780  177.2310  138.1090 N   0  0  0  0  0  0  0  0  0  0  0  0
  187.5470  178.3300  138.5990 C   0  0  0  0  0  2  0  0  0  0  0  0
  188.5820  178.0040  140.7540 C   0  0  0  0  0  0  0  0  0  0  0  0
  189.7340  174.8240  137.2330 C   0  0  2  0  0  3  0  0  0  0  0  0
  190.4430  173.6260  137.3480 O   0  0  0  0  0  1  0  0  0  0  0  0
  189.7900  175.2870  135.9170 O   0  0  0  0  0  0  0  0  0  0  0  0
  188.7740  174.5980  135.2490 C   0  0  0  0  0  2  0  0  0  0  0  0
  187.4730  175.3840  135.3160 C   0  0  0  0  0  2  0  0  0  0  0  0
  184.3950  174.5930  137.4420 C   0  0  0  0  0  0  0  0  0  0  0  0
  185.3090  175.3150  136.6490 C   0  0  0  0  0  0  0  0  0  0  0  0
  186.4470  174.6590  136.1320 C   0  0  0  0  0  0  0  0  0  0  0  0
  185.0700  176.7620  136.3560 C   0  0  0  0  0  1  0  0  0  0  0  0
  186.6540  173.3030  136.4090 C   0  0  0  0  0  3  0  0  0  0  0  0
  184.6180  173.2390  137.7070 C   0  0  0  0  0  3  0  0  0  0  0  0
  185.7430  172.5940  137.1930 C   0  0  0  0  0  3  0  0  0  0  0  0
  182.9640  175.3530  138.1210 Cl  0  0  0  0  0  0  0  0  0  0  0  0
  187.7270  177.4590  142.9240 C   0  0  0  0  0  3  0  0  0  0  0  0
  188.5700  178.1050  142.1840 N   0  0  0  0  0  0  0  0  0  0  0  0
  187.7160  177.5560  144.3970 C   0  0  0  0  0  0  0  0  0  0  0  0
  185.3060  178.3970  144.5570 C   0  0  0  0  0  1  0  0  0  0  0  0
  188.8980  177.1950  145.0540 C   0  0  0  0  0  3  0  0  0  0  0  0
  188.9920  177.2620  146.4450 C   0  0  0  0  0  3  0  0  0  0  0  0
  186.6060  177.9890  145.1660 C   0  0  0  0  0  0  0  0  0  0  0  0
  187.8990  177.6920  147.1970 C   0  0  0  0  0  0  0  0  0  0  0  0
  186.7120  178.0540  146.5580 C   0  0  0  0  0  3  0  0  0  0  0  0
  187.9920  177.7630  148.5800 O   0  0  0  0  0  1  0  0  0  0  0  0
  191.7050  175.7110  138.4660 C   0  0  0  0  0  2  0  0  0  0  0  0
  192.5470  176.5610  137.5220 C   0  0  0  0  0  2  0  0  0  0  0  0
  193.9300  176.1150  137.5210 N   0  0  0  0  0  2  0  0  0  0  0  0
  193.9140  174.6730  137.6930 C   0  0  0  0  0  1  0  0  0  0  0  0
  2  5  1  0  0  0  0
  3  8  2  0  0  0  0
  4 32  1  0  0  0  0
  4  2  1  0  0  0  0
  5  8  1  0  0  0  0
  5  1  1  1  0  0  0
  6  7  1  0  0  0  0
  6  2  2  0  0  0  0
  7  3  1  0  0  0  0
  8 23  1  0  0  0  0
  9 10  1  6  0  0  0
  9  4  1  0  0  0  0
 11  9  1  0  0  0  0
 12 13  1  0  0  0  0
 12 11  1  0  0  0  0
 13 16  1  0  0  0  0
 14 19  1  0  0  0  0
 14 21  1  0  0  0  0
 15 14  2  0  0  0  0
 16 18  2  0  0  0  0
 16 15  1  0  0  0  0
 17 15  1  0  0  0  0
 18 20  1  0  0  0  0
 20 19  2  0  0  0  0
 22 24  1  0  0  0  0
 23 22  2  0  0  0  0
 24 26  2  0  0  0  0
 24 28  1  0  0  0  0
 25 28  1  0  0  0  0
 26 27  1  0  0  0  0
 27 29  2  0  0  0  0
 28 30  2  0  0  0  0
 29 31  1  0  0  0  0
 30 29  1  0  0  0  0
 33 32  1  0  0  0  0
 34 33  1  0  0  0  0
 34 35  1  0  0  0  0
M  END
>  <MODEL>
1

>  <REMARK>
 VINA RESULT:      -7.8      0.000      0.000
  Name = 
  10 active torsions:
  status: ('A' for Active; 'I' for Inactive)
    1  A    between atoms: C_3  and  C_7
    2  A    between atoms: C_5  and  N_6
    3  A    between atoms: C_5  and  O_8
    4  A    between atoms: N_6  and  C_12
    5  A    between atoms: O_8  and  C_17
    6  A    between atoms: N_10  and  C_28
    7  A    between atoms: C_12  and  C_19
    8  A    between atoms: C_14  and  C_16
    9  A    between atoms: C_14  and  C_17
   10  A    between atoms: C_19  and  N_21
                            x       y       z     vdW  Elec       q    Type
                         _______ _______ _______ _____ _____    ______ ____

>  <TORSDO>
F 10

$$$$
=
 OpenBabel10232410453D

 35 37  0  0  1  0  0  0  0  0999 V2000
  190.3170  176.5530  140.8370 O   0  0  0  0  0  1  0  0  0  0  0  0
  189.2500  176.7890  138.7090 C   0  0  0  0  0  0  0  0  0  0  0  0
  187.3570  178.3020  140.0630 N   0  0  0  0  0  0  0  0  0  0  0  0
  190.0770  175.7680  138.1110 N   0  0  0  0  0  0  0  0  0  0  0  0
  189.6440  177.4600  140.0120 C   0  0  1  0  0  3  0  0  0  0  0  0
  188.1510  177.1520  138.1110 N   0  0  0  0  0  0  0  0  0  0  0  0
  187.3220  178.2500  138.6040 C   0  0  0  0  0  2  0  0  0  0  0  0
  188.4220  177.9750  140.7330 C   0  0  0  0  0  0  0  0  0  0  0  0
  189.5080  174.7430  137.2390 C   0  0  2  0  0  3  0  0  0  0  0  0
  190.2780  173.5800  137.2970 O   0  0  0  0  0  1  0  0  0  0  0  0
  189.4490  175.2130  135.9250 O   0  0  0  0  0  0  0  0  0  0  0  0
  188.4320  174.4680  135.3220 C   0  0  0  0  0  2  0  0  0  0  0  0
  187.2640  174.2980  136.2820 C   0  0  0  0  0  2  0  0  0  0  0  0
  184.5470  171.6080  136.2550 C   0  0  0  0  0  0  0  0  0  0  0  0
  185.2330  172.7970  136.5740 C   0  0  0  0  0  0  0  0  0  0  0  0
  186.4700  173.0700  135.9530 C   0  0  0  0  0  0  0  0  0  0  0  0
  184.6500  173.7580  137.5590 C   0  0  0  0  0  1  0  0  0  0  0  0
  187.0010  172.1640  135.0280 C   0  0  0  0  0  3  0  0  0  0  0  0
  185.0920  170.7150  135.3270 C   0  0  0  0  0  3  0  0  0  0  0  0
  186.3140  170.9910  134.7140 C   0  0  0  0  0  3  0  0  0  0  0  0
  183.0070  171.2050  136.9990 Cl  0  0  0  0  0  0  0  0  0  0  0  0
  187.6520  177.4440  142.9390 C   0  0  0  0  0  3  0  0  0  0  0  0
  188.4510  178.1030  142.1610 N   0  0  0  0  0  0  0  0  0  0  0  0
  187.6830  177.5670  144.4090 C   0  0  0  0  0  0  0  0  0  0  0  0
  185.2780  178.4110  144.6220 C   0  0  0  0  0  1  0  0  0  0  0  0
  188.8830  177.2190  145.0390 C   0  0  0  0  0  3  0  0  0  0  0  0
  189.0170  177.3110  146.4260 C   0  0  0  0  0  3  0  0  0  0  0  0
  186.5950  178.0140  145.2010 C   0  0  0  0  0  0  0  0  0  0  0  0
  187.9450  177.7550  147.2000 C   0  0  0  0  0  0  0  0  0  0  0  0
  186.7400  178.1050  146.5890 C   0  0  0  0  0  3  0  0  0  0  0  0
  188.0770  177.8520  148.5780 O   0  0  0  0  0  1  0  0  0  0  0  0
  191.5040  175.6740  138.3980 C   0  0  0  0  0  2  0  0  0  0  0  0
  192.3100  176.4960  137.3990 C   0  0  0  0  0  2  0  0  0  0  0  0
  193.7260  176.4560  137.7230 N   0  0  0  0  0  2  0  0  0  0  0  0
  194.1760  175.0920  137.5080 C   0  0  0  0  0  1  0  0  0  0  0  0
  2  5  1  0  0  0  0
  3  8  2  0  0  0  0
  4 32  1  0  0  0  0
  4  2  1  0  0  0  0
  5  8  1  0  0  0  0
  5  1  1  1  0  0  0
  6  7  1  0  0  0  0
  6  2  2  0  0  0  0
  7  3  1  0  0  0  0
  8 23  1  0  0  0  0
  9 10  1  6  0  0  0
  9  4  1  0  0  0  0
 11  9  1  0  0  0  0
 12 11  1  0  0  0  0
 12 13  1  0  0  0  0
 14 15  1  0  0  0  0
 14 21  1  0  0  0  0
 15 17  1  0  0  0  0
 16 13  1  0  0  0  0
 16 15  2  0  0  0  0
 18 16  1  0  0  0  0
 19 14  2  0  0  0  0
 20 18  2  0  0  0  0
 20 19  1  0  0  0  0
 22 24  1  0  0  0  0
 23 22  2  0  0  0  0
 24 26  2  0  0  0  0
 24 28  1  0  0  0  0
 25 28  1  0  0  0  0
 26 27  1  0  0  0  0
 27 29  2  0  0  0  0
 28 30  2  0  0  0  0
 29 31  1  0  0  0  0
 30 29  1  0  0  0  0
 33 34  1  0  0  0  0
 33 32  1  0  0  0  0
 35 34  1  0  0  0  0
M  END
>  <MODEL>
2

>  <REMARK>
 VINA RESULT:      -7.6      1.125      1.478
  Name = 
  10 active torsions:
  status: ('A' for Active; 'I' for Inactive)
    1  A    between atoms: C_3  and  C_7
    2  A    between atoms: C_5  and  N_6
    3  A    between atoms: C_5  and  O_8
    4  A    between atoms: N_6  and  C_12
    5  A    between atoms: O_8  and  C_17
    6  A    between atoms: N_10  and  C_28
    7  A    between atoms: C_12  and  C_19
    8  A    between atoms: C_14  and  C_16
    9  A    between atoms: C_14  and  C_17
   10  A    between atoms: C_19  and  N_21
                            x       y       z     vdW  Elec       q    Type
                         _______ _______ _______ _____ _____    ______ ____

>  <TORSDO>
F 10

$$$$
=
 OpenBabel10232410453D

 35 37  0  0  1  0  0  0  0  0999 V2000
  186.2440  178.4650  141.4990 O   0  0  0  0  0  1  0  0  0  0  0  0
  183.8900  178.7670  141.7940 C   0  0  0  0  0  0  0  0  0  0  0  0
  184.3890  178.3500  144.4930 N   0  0  0  0  0  0  0  0  0  0  0  0
  183.6380  178.6830  140.3750 N   0  0  0  0  0  0  0  0  0  0  0  0
  185.2820  179.0430  142.3320 C   0  0  1  0  0  3  0  0  0  0  0  0
  182.9000  178.6190  142.6290 N   0  0  0  0  0  0  0  0  0  0  0  0
  183.0650  178.7950  144.0700 C   0  0  0  0  0  2  0  0  0  0  0  0
  185.4320  178.4820  143.7260 C   0  0  0  0  0  0  0  0  0  0  0  0
  182.5270  177.8950  139.8470 C   0  0  2  0  0  3  0  0  0  0  0  0
  181.3180  178.3550  140.3730 O   0  0  0  0  0  1  0  0  0  0  0  0
  182.7040  176.5470  140.1640 O   0  0  0  0  0  0  0  0  0  0  0  0
  181.7360  175.8710  139.4160 C   0  0  0  0  0  2  0  0  0  0  0  0
  182.1220  175.8610  137.9440 C   0  0  0  0  0  2  0  0  0  0  0  0
  182.5490  172.2670  136.7120 C   0  0  0  0  0  0  0  0  0  0  0  0
  181.9380  173.4970  137.0280 C   0  0  0  0  0  0  0  0  0  0  0  0
  182.7220  174.5460  137.5530 C   0  0  0  0  0  0  0  0  0  0  0  0
  180.4720  173.6850  136.8030 C   0  0  0  0  0  1  0  0  0  0  0  0
  184.0950  174.3570  137.7510 C   0  0  0  0  0  3  0  0  0  0  0  0
  183.9220  172.0970  136.9160 C   0  0  0  0  0  3  0  0  0  0  0  0
  184.6940  173.1370  137.4330 C   0  0  0  0  0  3  0  0  0  0  0  0
  181.6270  170.9190  136.0640 Cl  0  0  0  0  0  0  0  0  0  0  0  0
  187.0370  178.0510  145.4520 C   0  0  0  0  0  3  0  0  0  0  0  0
  186.7320  178.1010  144.1940 N   0  0  0  0  0  0  0  0  0  0  0  0
  188.3720  177.6520  145.9380 C   0  0  0  0  0  0  0  0  0  0  0  0
  187.8110  177.9330  148.4170 C   0  0  0  0  0  1  0  0  0  0  0  0
  189.3170  177.3200  144.9600 C   0  0  0  0  0  3  0  0  0  0  0  0
  190.6120  176.9400  145.3180 C   0  0  0  0  0  3  0  0  0  0  0  0
  188.7450  177.5940  147.3040 C   0  0  0  0  0  0  0  0  0  0  0  0
  190.9760  176.8880  146.6630 C   0  0  0  0  0  0  0  0  0  0  0  0
  190.0450  177.2150  147.6510 C   0  0  0  0  0  3  0  0  0  0  0  0
  192.2640  176.5150  147.0200 O   0  0  0  0  0  1  0  0  0  0  0  0
  184.5140  179.3270  139.4030 C   0  0  0  0  0  2  0  0  0  0  0  0
  185.0990  178.2990  138.4410 C   0  0  0  0  0  2  0  0  0  0  0  0
  186.3190  178.8010  137.8310 N   0  0  0  0  0  2  0  0  0  0  0  0
  187.3110  177.7460  137.9270 C   0  0  0  0  0  1  0  0  0  0  0  0
  2  5  1  0  0  0  0
  2  6  2  0  0  0  0
  4  2  1  0  0  0  0
  5  1  1  6  0  0  0
  5  8  1  0  0  0  0
  6  7  1  0  0  0  0
  7  3  1  0  0  0  0
  8 23  1  0  0  0  0
  8  3  2  0  0  0  0
  9 11  1  0  0  0  0
  9 10  1  1  0  0  0
  9  4  1  0  0  0  0
 12 11  1  0  0  0  0
 13 12  1  0  0  0  0
 14 19  2  0  0  0  0
 14 15  1  0  0  0  0
 15 16  2  0  0  0  0
 16 18  1  0  0  0  0
 16 13  1  0  0  0  0
 17 15  1  0  0  0  0
 19 20  1  0  0  0  0
 20 18  2  0  0  0  0
 21 14  1  0  0  0  0
 22 24  1  0  0  0  0
 23 22  2  0  0  0  0
 24 28  1  0  0  0  0
 26 27  1  0  0  0  0
 26 24  2  0  0  0  0
 27 29  2  0  0  0  0
 28 30  2  0  0  0  0
 28 25  1  0  0  0  0
 29 31  1  0  0  0  0
 29 30  1  0  0  0  0
 32  4  1  0  0  0  0
 33 32  1  0  0  0  0
 34 35  1  0  0  0  0
 34 33  1  0  0  0  0
M  END
>  <MODEL>
3

>  <REMARK>
 VINA RESULT:      -7.4      3.814      5.634
  Name = 
  10 active torsions:
  status: ('A' for Active; 'I' for Inactive)
    1  A    between atoms: C_3  and  C_7
    2  A    between atoms: C_5  and  N_6
    3  A    between atoms: C_5  and  O_8
    4  A    between atoms: N_6  and  C_12
    5  A    between atoms: O_8  and  C_17
    6  A    between atoms: N_10  and  C_28
    7  A    between atoms: C_12  and  C_19
    8  A    between atoms: C_14  and  C_16
    9  A    between atoms: C_14  and  C_17
   10  A    between atoms: C_19  and  N_21
                            x       y       z     vdW  Elec       q    Type
                         _______ _______ _______ _____ _____    ______ ____

>  <TORSDO>
F 10

$$$$
=
 OpenBabel10232410453D

 35 37  0  0  1  0  0  0  0  0999 V2000
  192.6570  177.0450  139.2360 O   0  0  0  0  0  1  0  0  0  0  0  0
  190.3430  176.4530  139.1160 C   0  0  0  0  0  0  0  0  0  0  0  0
  190.9790  175.3120  136.6670 N   0  0  0  0  0  0  0  0  0  0  0  0
  190.0030  177.3030  140.2320 N   0  0  0  0  0  0  0  0  0  0  0  0
  191.7760  176.0280  138.8570 C   0  0  1  0  0  3  0  0  0  0  0  0
  189.3980  176.0300  138.3250 N   0  0  0  0  0  0  0  0  0  0  0  0
  189.6560  175.0840  137.2410 C   0  0  0  0  0  2  0  0  0  0  0  0
  191.9800  175.7140  137.3950 C   0  0  0  0  0  0  0  0  0  0  0  0
  188.8240  178.1660  140.1990 C   0  0  2  0  0  3  0  0  0  0  0  0
  188.9750  179.1490  139.2190 O   0  0  0  0  0  1  0  0  0  0  0  0
  188.6310  178.7610  141.4480 O   0  0  0  0  0  0  0  0  0  0  0  0
  187.2500  178.7290  141.6530 C   0  0  0  0  0  2  0  0  0  0  0  0
  186.8800  177.5680  142.5650 C   0  0  0  0  0  2  0  0  0  0  0  0
  186.3440  178.3970  146.2580 C   0  0  0  0  0  0  0  0  0  0  0  0
  186.9680  177.9530  145.0750 C   0  0  0  0  0  0  0  0  0  0  0  0
  186.2820  178.0590  143.8470 C   0  0  0  0  0  0  0  0  0  0  0  0
  188.3480  177.3790  145.1260 C   0  0  0  0  0  1  0  0  0  0  0  0
  184.9940  178.6040  143.8140 C   0  0  0  0  0  3  0  0  0  0  0  0
  185.0560  178.9400  146.2050 C   0  0  0  0  0  3  0  0  0  0  0  0
  184.3820  179.0450  144.9890 C   0  0  0  0  0  3  0  0  0  0  0  0
  187.1400  178.2850  147.8200 Cl  0  0  0  0  0  0  0  0  0  0  0  0
  194.1760  174.9240  136.8560 C   0  0  0  0  0  3  0  0  0  0  0  0
  193.2840  175.8620  136.8190 N   0  0  0  0  0  0  0  0  0  0  0  0
  195.5180  175.0700  136.2590 C   0  0  0  0  0  0  0  0  0  0  0  0
  196.7350  173.7800  138.1020 C   0  0  0  0  0  1  0  0  0  0  0  0
  195.5900  175.7820  135.0560 C   0  0  0  0  0  3  0  0  0  0  0  0
  196.8150  175.9840  134.4170 C   0  0  0  0  0  3  0  0  0  0  0  0
  196.7100  174.5480  136.8230 C   0  0  0  0  0  0  0  0  0  0  0  0
  197.9850  175.4730  134.9780 C   0  0  0  0  0  0  0  0  0  0  0  0
  197.9310  174.7590  136.1760 C   0  0  0  0  0  3  0  0  0  0  0  0
  199.2040  175.6760  134.3470 O   0  0  0  0  0  1  0  0  0  0  0  0
  190.8510  177.3880  141.4160 C   0  0  0  0  0  2  0  0  0  0  0  0
  190.5130  176.2760  142.4020 C   0  0  0  0  0  2  0  0  0  0  0  0
  191.1890  176.4890  143.6700 N   0  0  0  0  0  2  0  0  0  0  0  0
  191.5910  177.8840  143.7110 C   0  0  0  0  0  1  0  0  0  0  0  0
  2  4  1  0  0  0  0
  3  7  1  0  0  0  0
  3  8  2  0  0  0  0
  4 32  1  0  0  0  0
  5  2  1  0  0  0  0
  5  1  1  6  0  0  0
  6  2  2  0  0  0  0
  7  6  1  0  0  0  0
  8  5  1  0  0  0  0
  9 10  1  6  0  0  0
  9  4  1  0  0  0  0
  9 11  1  0  0  0  0
 11 12  1  0  0  0  0
 12 13  1  0  0  0  0
 13 16  1  0  0  0  0
 14 21  1  0  0  0  0
 15 17  1  0  0  0  0
 15 14  2  0  0  0  0
 16 15  1  0  0  0  0
 18 16  2  0  0  0  0
 18 20  1  0  0  0  0
 19 14  1  0  0  0  0
 20 19  2  0  0  0  0
 23 22  2  0  0  0  0
 23  8  1  0  0  0  0
 24 28  1  0  0  0  0
 24 22  1  0  0  0  0
 26 24  2  0  0  0  0
 27 29  2  0  0  0  0
 27 26  1  0  0  0  0
 28 25  1  0  0  0  0
 29 30  1  0  0  0  0
 30 28  2  0  0  0  0
 31 29  1  0  0  0  0
 32 33  1  0  0  0  0
 33 34  1  0  0  0  0
 34 35  1  0  0  0  0
M  END
>  <MODEL>
4

>  <REMARK>
 VINA RESULT:      -7.4      3.464      9.334
  Name = 
  10 active torsions:
  status: ('A' for Active; 'I' for Inactive)
    1  A    between atoms: C_3  and  C_7
    2  A    between atoms: C_5  and  N_6
    3  A    between atoms: C_5  and  O_8
    4  A    between atoms: N_6  and  C_12
    5  A    between atoms: O_8  and  C_17
    6  A    between atoms: N_10  and  C_28
    7  A    between atoms: C_12  and  C_19
    8  A    between atoms: C_14  and  C_16
    9  A    between atoms: C_14  and  C_17
   10  A    between atoms: C_19  and  N_21
                            x       y       z     vdW  Elec       q    Type
                         _______ _______ _______ _____ _____    ______ ____

>  <TORSDO>
F 10

$$$$
=
 OpenBabel10232410453D

 35 37  0  0  1  0  0  0  0  0999 V2000
  190.8100  177.0740  140.3620 O   0  0  0  0  0  1  0  0  0  0  0  0
  189.7450  177.1690  138.2230 C   0  0  0  0  0  0  0  0  0  0  0  0
  187.5710  178.2250  139.5890 N   0  0  0  0  0  0  0  0  0  0  0  0
  190.7670  176.3560  137.6080 N   0  0  0  0  0  0  0  0  0  0  0  0
  189.9810  177.8580  139.5550 C   0  0  1  0  0  3  0  0  0  0  0  0
  188.6030  177.3280  137.6150 N   0  0  0  0  0  0  0  0  0  0  0  0
  187.5660  178.2210  138.1290 C   0  0  0  0  0  2  0  0  0  0  0  0
  188.6720  178.0930  140.2690 C   0  0  0  0  0  0  0  0  0  0  0  0
  190.4240  175.2710  136.6910 C   0  0  2  0  0  3  0  0  0  0  0  0
  189.9310  175.7910  135.4930 O   0  0  0  0  0  1  0  0  0  0  0  0
  189.4720  174.4330  137.2770 O   0  0  0  0  0  0  0  0  0  0  0  0
  188.6100  174.0840  136.2340 C   0  0  0  0  0  2  0  0  0  0  0  0
  188.2860  172.5980  136.2940 C   0  0  0  0  0  2  0  0  0  0  0  0
  184.6910  171.3760  135.8530 C   0  0  0  0  0  0  0  0  0  0  0  0
  186.0770  171.5210  135.6460 C   0  0  0  0  0  0  0  0  0  0  0  0
  186.8190  172.3740  136.4910 C   0  0  0  0  0  0  0  0  0  0  0  0
  186.7530  170.7730  134.5410 C   0  0  0  0  0  1  0  0  0  0  0  0
  186.1740  173.0620  137.5250 C   0  0  0  0  0  3  0  0  0  0  0  0
  184.0640  172.0710  136.8920 C   0  0  0  0  0  3  0  0  0  0  0  0
  184.8010  172.9110  137.7260 C   0  0  0  0  0  3  0  0  0  0  0  0
  183.7100  170.3370  134.8300 Cl  0  0  0  0  0  0  0  0  0  0  0  0
  188.0000  177.3360  142.4400 C   0  0  0  0  0  3  0  0  0  0  0  0
  188.6560  178.1710  141.7000 N   0  0  0  0  0  0  0  0  0  0  0  0
  187.9870  177.4090  143.9140 C   0  0  0  0  0  0  0  0  0  0  0  0
  185.5440  178.1430  144.0890 C   0  0  0  0  0  1  0  0  0  0  0  0
  189.1850  177.0900  144.5650 C   0  0  0  0  0  3  0  0  0  0  0  0
  189.2780  177.1400  145.9570 C   0  0  0  0  0  3  0  0  0  0  0  0
  186.8610  177.7820  144.6900 C   0  0  0  0  0  0  0  0  0  0  0  0
  188.1690  177.5110  146.7150 C   0  0  0  0  0  0  0  0  0  0  0  0
  186.9660  177.8310  146.0830 C   0  0  0  0  0  3  0  0  0  0  0  0
  188.2610  177.5650  148.0990 O   0  0  0  0  0  1  0  0  0  0  0  0
  192.1800  176.5380  137.9190 C   0  0  0  0  0  2  0  0  0  0  0  0
  192.9180  175.2050  137.8700 C   0  0  0  0  0  2  0  0  0  0  0  0
  194.3370  175.3940  138.1200 N   0  0  0  0  0  2  0  0  0  0  0  0
  194.9800  174.1050  137.9340 C   0  0  0  0  0  1  0  0  0  0  0  0
  2  5  1  0  0  0  0
  3  8  2  0  0  0  0
  4 32  1  0  0  0  0
  4  2  1  0  0  0  0
  5  8  1  0  0  0  0
  5  1  1  1  0  0  0
  6  7  1  0  0  0  0
  6  2  2  0  0  0  0
  7  3  1  0  0  0  0
  8 23  1  0  0  0  0
  9 10  1  6  0  0  0
  9 11  1  0  0  0  0
  9  4  1  0  0  0  0
 12 13  1  0  0  0  0
 12 11  1  0  0  0  0
 13 16  1  0  0  0  0
 14 19  1  0  0  0  0
 15 14  2  0  0  0  0
 15 16  1  0  0  0  0
 16 18  2  0  0  0  0
 17 15  1  0  0  0  0
 18 20  1  0  0  0  0
 19 20  2  0  0  0  0
 21 14  1  0  0  0  0
 22 24  1  0  0  0  0
 23 22  2  0  0  0  0
 24 26  2  0  0  0  0
 24 28  1  0  0  0  0
 25 28  1  0  0  0  0
 26 27  1  0  0  0  0
 27 29  2  0  0  0  0
 28 30  2  0  0  0  0
 29 31  1  0  0  0  0
 30 29  1  0  0  0  0
 33 32  1  0  0  0  0
 33 34  1  0  0  0  0
 35 34  1  0  0  0  0
M  END
>  <MODEL>
5

>  <REMARK>
 VINA RESULT:      -7.3      1.535      2.093
  Name = 
  10 active torsions:
  status: ('A' for Active; 'I' for Inactive)
    1  A    between atoms: C_3  and  C_7
    2  A    between atoms: C_5  and  N_6
    3  A    between atoms: C_5  and  O_8
    4  A    between atoms: N_6  and  C_12
    5  A    between atoms: O_8  and  C_17
    6  A    between atoms: N_10  and  C_28
    7  A    between atoms: C_12  and  C_19
    8  A    between atoms: C_14  and  C_16
    9  A    between atoms: C_14  and  C_17
   10  A    between atoms: C_19  and  N_21
                            x       y       z     vdW  Elec       q    Type
                         _______ _______ _______ _____ _____    ______ ____

>  <TORSDO>
F 10

$$$$
=
 OpenBabel10232410453D

 35 37  0  0  1  0  0  0  0  0999 V2000
  189.6590  177.5130  139.8880 O   0  0  0  0  0  1  0  0  0  0  0  0
  187.5390  178.1810  139.0020 C   0  0  0  0  0  0  0  0  0  0  0  0
  186.7460  178.4210  141.6520 N   0  0  0  0  0  0  0  0  0  0  0  0
  187.8950  177.7640  137.6670 N   0  0  0  0  0  0  0  0  0  0  0  0
  188.5980  178.4070  140.0660 C   0  0  1  0  0  3  0  0  0  0  0  0
  186.2860  178.3830  139.2960 N   0  0  0  0  0  0  0  0  0  0  0  0
  185.8650  178.9070  140.5940 C   0  0  0  0  0  2  0  0  0  0  0  0
  188.0140  178.2130  141.4440 C   0  0  0  0  0  0  0  0  0  0  0  0
  186.9600  177.0150  136.8310 C   0  0  2  0  0  3  0  0  0  0  0  0
  185.8140  177.7760  136.5900 O   0  0  0  0  0  1  0  0  0  0  0  0
  186.6130  175.8160  137.4570 O   0  0  0  0  0  0  0  0  0  0  0  0
  186.5320  174.8800  136.4230 C   0  0  0  0  0  2  0  0  0  0  0  0
  186.8770  173.4910  136.9420 C   0  0  0  0  0  2  0  0  0  0  0  0
  184.8050  170.6180  135.5040 C   0  0  0  0  0  0  0  0  0  0  0  0
  185.8970  171.4760  135.7420 C   0  0  0  0  0  0  0  0  0  0  0  0
  185.7640  172.5250  136.6770 C   0  0  0  0  0  0  0  0  0  0  0  0
  187.1860  171.2710  135.0110 C   0  0  0  0  0  1  0  0  0  0  0  0
  184.5550  172.7010  137.3580 C   0  0  0  0  0  3  0  0  0  0  0  0
  183.6050  170.8090  136.1950 C   0  0  0  0  0  3  0  0  0  0  0  0
  183.4780  171.8450  137.1200 C   0  0  0  0  0  3  0  0  0  0  0  0
  184.9030  169.3000  134.3470 Cl  0  0  0  0  0  0  0  0  0  0  0  0
  188.5420  177.9400  143.7650 C   0  0  0  0  0  3  0  0  0  0  0  0
  188.8690  177.8030  142.5200 N   0  0  0  0  0  0  0  0  0  0  0  0
  189.4170  177.5130  144.8740 C   0  0  0  0  0  0  0  0  0  0  0  0
  187.5990  177.6400  146.6670 C   0  0  0  0  0  1  0  0  0  0  0  0
  190.7510  177.2420  144.5470 C   0  0  0  0  0  3  0  0  0  0  0  0
  191.6610  176.8420  145.5280 C   0  0  0  0  0  3  0  0  0  0  0  0
  188.9960  177.3710  146.2210 C   0  0  0  0  0  0  0  0  0  0  0  0
  191.2430  176.7070  146.8510 C   0  0  0  0  0  0  0  0  0  0  0  0
  189.9160  176.9720  147.1950 C   0  0  0  0  0  3  0  0  0  0  0  0
  192.1470  176.3140  147.8280 O   0  0  0  0  0  1  0  0  0  0  0  0
  189.2220  178.0150  137.1150 C   0  0  0  0  0  2  0  0  0  0  0  0
  189.3700  177.3560  135.7480 C   0  0  0  0  0  2  0  0  0  0  0  0
  190.2180  176.1790  135.8330 N   0  0  0  0  0  2  0  0  0  0  0  0
  191.1350  176.3910  136.9390 C   0  0  0  0  0  1  0  0  0  0  0  0
  2  6  2  0  0  0  0
  2  5  1  0  0  0  0
  4  2  1  0  0  0  0
  5  1  1  6  0  0  0
  5  8  1  0  0  0  0
  6  7  1  0  0  0  0
  7  3  1  0  0  0  0
  8  3  2  0  0  0  0
  8 23  1  0  0  0  0
  9 10  1  1  0  0  0
  9 11  1  0  0  0  0
  9  4  1  0  0  0  0
 12 13  1  0  0  0  0
 12 11  1  0  0  0  0
 14 15  2  0  0  0  0
 14 19  1  0  0  0  0
 15 16  1  0  0  0  0
 16 13  1  0  0  0  0
 16 18  2  0  0  0  0
 17 15  1  0  0  0  0
 19 20  2  0  0  0  0
 20 18  1  0  0  0  0
 21 14  1  0  0  0  0
 22 24  1  0  0  0  0
 23 22  2  0  0  0  0
 24 28  1  0  0  0  0
 26 24  2  0  0  0  0
 26 27  1  0  0  0  0
 27 29  2  0  0  0  0
 28 25  1  0  0  0  0
 28 30  2  0  0  0  0
 29 30  1  0  0  0  0
 29 31  1  0  0  0  0
 32  4  1  0  0  0  0
 33 34  1  0  0  0  0
 33 32  1  0  0  0  0
 34 35  1  0  0  0  0
M  END
>  <MODEL>
6

>  <REMARK>
 VINA RESULT:      -7.2      2.406      3.390
  Name = 
  10 active torsions:
  status: ('A' for Active; 'I' for Inactive)
    1  A    between atoms: C_3  and  C_7
    2  A    between atoms: C_5  and  N_6
    3  A    between atoms: C_5  and  O_8
    4  A    between atoms: N_6  and  C_12
    5  A    between atoms: O_8  and  C_17
    6  A    between atoms: N_10  and  C_28
    7  A    between atoms: C_12  and  C_19
    8  A    between atoms: C_14  and  C_16
    9  A    between atoms: C_14  and  C_17
   10  A    between atoms: C_19  and  N_21
                            x       y       z     vdW  Elec       q    Type
                         _______ _______ _______ _____ _____    ______ ____

>  <TORSDO>
F 10

$$$$
=
 OpenBabel10232410453D

 35 37  0  0  1  0  0  0  0  0999 V2000
  190.7330  176.3290  140.5100 O   0  0  0  0  0  1  0  0  0  0  0  0
  189.8600  176.6740  138.3100 C   0  0  0  0  0  0  0  0  0  0  0  0
  187.9360  178.2460  139.5490 N   0  0  0  0  0  0  0  0  0  0  0  0
  190.6840  175.6280  137.7520 N   0  0  0  0  0  0  0  0  0  0  0  0
  190.1760  177.2900  139.6610 C   0  0  1  0  0  3  0  0  0  0  0  0
  188.8340  177.1080  137.6350 N   0  0  0  0  0  0  0  0  0  0  0  0
  188.0210  178.2340  138.0920 C   0  0  0  0  0  2  0  0  0  0  0  0
  188.9250  177.8480  140.2950 C   0  0  0  0  0  0  0  0  0  0  0  0
  190.1400  174.6570  136.8050 C   0  0  2  0  0  3  0  0  0  0  0  0
  189.9010  173.4410  137.4480 O   0  0  0  0  0  1  0  0  0  0  0  0
  191.0320  174.4700  135.7470 O   0  0  0  0  0  0  0  0  0  0  0  0
  191.0260  173.0940  135.5090 C   0  0  0  0  0  2  0  0  0  0  0  0
  192.3270  172.6680  134.8460 C   0  0  0  0  0  2  0  0  0  0  0  0
  194.2840  170.0460  136.8230 C   0  0  0  0  0  0  0  0  0  0  0  0
  193.8390  171.3020  136.3650 C   0  0  0  0  0  0  0  0  0  0  0  0
  192.8130  171.3630  135.3990 C   0  0  0  0  0  0  0  0  0  0  0  0
  194.4500  172.5560  136.9040 C   0  0  0  0  0  1  0  0  0  0  0  0
  192.2470  170.1820  134.9080 C   0  0  0  0  0  3  0  0  0  0  0  0
  193.7050  168.8750  136.3220 C   0  0  0  0  0  3  0  0  0  0  0  0
  192.6900  168.9410  135.3680 C   0  0  0  0  0  3  0  0  0  0  0  0
  195.5630  169.9000  138.0180 Cl  0  0  0  0  0  0  0  0  0  0  0  0
  187.9190  177.3380  142.4080 C   0  0  0  0  0  3  0  0  0  0  0  0
  188.8400  177.9360  141.7230 N   0  0  0  0  0  0  0  0  0  0  0  0
  187.8320  177.4210  143.8790 C   0  0  0  0  0  0  0  0  0  0  0  0
  185.3880  178.1720  143.9260 C   0  0  0  0  0  1  0  0  0  0  0  0
  188.9930  177.0990  144.5910 C   0  0  0  0  0  3  0  0  0  0  0  0
  189.0170  177.1570  145.9860 C   0  0  0  0  0  3  0  0  0  0  0  0
  186.6700  177.8070  144.5950 C   0  0  0  0  0  0  0  0  0  0  0  0
  187.8730  177.5400  146.6850 C   0  0  0  0  0  0  0  0  0  0  0  0
  186.7060  177.8640  145.9920 C   0  0  0  0  0  3  0  0  0  0  0  0
  187.8960  177.6030  148.0720 O   0  0  0  0  0  1  0  0  0  0  0  0
  192.0750  175.4550  138.1520 C   0  0  0  0  0  2  0  0  0  0  0  0
  192.9400  176.5800  137.5960 C   0  0  0  0  0  2  0  0  0  0  0  0
  194.1780  176.0550  137.0470 N   0  0  0  0  0  2  0  0  0  0  0  0
  194.1020  176.2010  135.6040 C   0  0  0  0  0  1  0  0  0  0  0  0
  2  5  1  0  0  0  0
  3  8  2  0  0  0  0
  4 32  1  0  0  0  0
  4  2  1  0  0  0  0
  5  8  1  0  0  0  0
  5  1  1  1  0  0  0
  6  7  1  0  0  0  0
  6  2  2  0  0  0  0
  7  3  1  0  0  0  0
  8 23  1  0  0  0  0
  9 10  1  1  0  0  0
  9  4  1  0  0  0  0
 11  9  1  0  0  0  0
 12 11  1  0  0  0  0
 13 16  1  0  0  0  0
 13 12  1  0  0  0  0
 14 21  1  0  0  0  0
 15 14  1  0  0  0  0
 15 17  1  0  0  0  0
 16 15  2  0  0  0  0
 18 20  2  0  0  0  0
 18 16  1  0  0  0  0
 19 14  2  0  0  0  0
 20 19  1  0  0  0  0
 22 24  1  0  0  0  0
 23 22  2  0  0  0  0
 24 26  2  0  0  0  0
 24 28  1  0  0  0  0
 25 28  1  0  0  0  0
 26 27  1  0  0  0  0
 27 29  2  0  0  0  0
 28 30  2  0  0  0  0
 29 31  1  0  0  0  0
 30 29  1  0  0  0  0
 33 32  1  0  0  0  0
 34 33  1  0  0  0  0
 35 34  1  0  0  0  0
M  END
>  <MODEL>
7

>  <REMARK>
 VINA RESULT:      -7.2      3.342      4.844
  Name = 
  10 active torsions:
  status: ('A' for Active; 'I' for Inactive)
    1  A    between atoms: C_3  and  C_7
    2  A    between atoms: C_5  and  N_6
    3  A    between atoms: C_5  and  O_8
    4  A    between atoms: N_6  and  C_12
    5  A    between atoms: O_8  and  C_17
    6  A    between atoms: N_10  and  C_28
    7  A    between atoms: C_12  and  C_19
    8  A    between atoms: C_14  and  C_16
    9  A    between atoms: C_14  and  C_17
   10  A    between atoms: C_19  and  N_21
                            x       y       z     vdW  Elec       q    Type
                         _______ _______ _______ _____ _____    ______ ____

>  <TORSDO>
F 10

$$$$
=
 OpenBabel10232410453D

 35 37  0  0  1  0  0  0  0  0999 V2000
  191.0550  177.0100  140.6490 O   0  0  0  0  0  1  0  0  0  0  0  0
  190.1680  176.8880  138.4310 C   0  0  0  0  0  0  0  0  0  0  0  0
  187.8340  177.9070  139.5370 N   0  0  0  0  0  0  0  0  0  0  0  0
  191.2800  176.0950  137.9630 N   0  0  0  0  0  0  0  0  0  0  0  0
  190.2550  177.6830  139.7210 C   0  0  1  0  0  3  0  0  0  0  0  0
  189.0740  176.9340  137.7250 N   0  0  0  0  0  0  0  0  0  0  0  0
  187.9510  177.7970  138.0850 C   0  0  0  0  0  2  0  0  0  0  0  0
  188.8800  177.8900  140.3090 C   0  0  0  0  0  0  0  0  0  0  0  0
  191.0740  174.9280  137.1080 C   0  0  2  0  0  3  0  0  0  0  0  0
  190.6970  175.3320  135.8260 O   0  0  0  0  0  1  0  0  0  0  0  0
  190.0910  174.1010  137.6570 O   0  0  0  0  0  0  0  0  0  0  0  0
  189.4260  173.5540  136.5570 C   0  0  0  0  0  2  0  0  0  0  0  0
  188.0350  173.0870  136.9620 C   0  0  0  0  0  2  0  0  0  0  0  0
  184.6640  174.6900  136.1370 C   0  0  0  0  0  0  0  0  0  0  0  0
  185.6240  173.8630  136.7540 C   0  0  0  0  0  0  0  0  0  0  0  0
  186.9770  173.9660  136.3690 C   0  0  0  0  0  0  0  0  0  0  0  0
  185.2080  172.8910  137.8110 C   0  0  0  0  0  1  0  0  0  0  0  0
  187.3530  174.8860  135.3840 C   0  0  0  0  0  3  0  0  0  0  0  0
  185.0580  175.6040  135.1550 C   0  0  0  0  0  3  0  0  0  0  0  0
  186.3980  175.7040  134.7780 C   0  0  0  0  0  3  0  0  0  0  0  0
  182.9620  174.6050  136.5650 Cl  0  0  0  0  0  0  0  0  0  0  0  0
  188.2370  177.1640  142.5000 C   0  0  0  0  0  3  0  0  0  0  0  0
  188.7410  178.0700  141.7250 N   0  0  0  0  0  0  0  0  0  0  0  0
  188.0990  177.3430  143.9580 C   0  0  0  0  0  0  0  0  0  0  0  0
  190.5850  177.0300  144.4690 C   0  0  0  0  0  1  0  0  0  0  0  0
  186.8050  177.5820  144.4370 C   0  0  0  0  0  3  0  0  0  0  0  0
  186.5680  177.7540  145.8020 C   0  0  0  0  0  3  0  0  0  0  0  0
  189.1740  177.2830  144.8810 C   0  0  0  0  0  0  0  0  0  0  0  0
  187.6270  177.6900  146.7060 C   0  0  0  0  0  0  0  0  0  0  0  0
  188.9240  177.4550  146.2460 C   0  0  0  0  0  3  0  0  0  0  0  0
  187.3930  177.8570  148.0630 O   0  0  0  0  0  1  0  0  0  0  0  0
  192.6500  176.3830  138.3710 C   0  0  0  0  0  2  0  0  0  0  0  0
  193.6420  175.8340  137.3520 C   0  0  0  0  0  2  0  0  0  0  0  0
  194.7770  175.2180  138.0190 N   0  0  0  0  0  2  0  0  0  0  0  0
  194.5520  173.7840  138.0100 C   0  0  0  0  0  1  0  0  0  0  0  0
  2  5  1  0  0  0  0
  3  8  2  0  0  0  0
  4 32  1  0  0  0  0
  4  2  1  0  0  0  0
  5  8  1  0  0  0  0
  5  1  1  1  0  0  0
  6  7  1  0  0  0  0
  6  2  2  0  0  0  0
  7  3  1  0  0  0  0
  8 23  1  0  0  0  0
  9 10  1  6  0  0  0
  9 11  1  0  0  0  0
  9  4  1  0  0  0  0
 12 13  1  0  0  0  0
 12 11  1  0  0  0  0
 14 21  1  0  0  0  0
 14 15  1  0  0  0  0
 15 17  1  0  0  0  0
 16 15  2  0  0  0  0
 16 13  1  0  0  0  0
 18 16  1  0  0  0  0
 19 14  2  0  0  0  0
 20 19  1  0  0  0  0
 20 18  2  0  0  0  0
 22 24  1  0  0  0  0
 23 22  2  0  0  0  0
 24 26  2  0  0  0  0
 24 28  1  0  0  0  0
 25 28  1  0  0  0  0
 26 27  1  0  0  0  0
 27 29  2  0  0  0  0
 28 30  2  0  0  0  0
 29 31  1  0  0  0  0
 30 29  1  0  0  0  0
 33 34  1  0  0  0  0
 33 32  1  0  0  0  0
 35 34  1  0  0  0  0
M  END
>  <MODEL>
8

>  <REMARK>
 VINA RESULT:      -7.2      1.004      2.051
  Name = 
  10 active torsions:
  status: ('A' for Active; 'I' for Inactive)
    1  A    between atoms: C_3  and  C_7
    2  A    between atoms: C_5  and  N_6
    3  A    between atoms: C_5  and  O_8
    4  A    between atoms: N_6  and  C_12
    5  A    between atoms: O_8  and  C_17
    6  A    between atoms: N_10  and  C_28
    7  A    between atoms: C_12  and  C_19
    8  A    between atoms: C_14  and  C_16
    9  A    between atoms: C_14  and  C_17
   10  A    between atoms: C_19  and  N_21
                            x       y       z     vdW  Elec       q    Type
                         _______ _______ _______ _____ _____    ______ ____

>  <TORSDO>
F 10

$$$$
=
 OpenBabel10232410453D

 35 37  0  0  1  0  0  0  0  0999 V2000
  183.5150  176.4300  138.3930 O   0  0  0  0  0  1  0  0  0  0  0  0
  185.1850  178.1400  138.4900 C   0  0  0  0  0  0  0  0  0  0  0  0
  186.5460  176.6230  136.6050 N   0  0  0  0  0  0  0  0  0  0  0  0
  184.5970  178.7340  139.6670 N   0  0  0  0  0  0  0  0  0  0  0  0
  184.3970  177.1830  137.6130 C   0  0  1  0  0  3  0  0  0  0  0  0
  186.4100  178.4420  138.1660 N   0  0  0  0  0  0  0  0  0  0  0  0
  187.0310  177.9600  136.9340 C   0  0  0  0  0  2  0  0  0  0  0  0
  185.3290  176.2510  136.8770 C   0  0  0  0  0  0  0  0  0  0  0  0
  185.4210  179.1630  140.7940 C   0  0  2  0  0  3  0  0  0  0  0  0
  186.5570  178.3580  140.8930 O   0  0  0  0  0  1  0  0  0  0  0  0
  184.6840  179.0980  141.9790 O   0  0  0  0  0  0  0  0  0  0  0  0
  185.2870  178.0790  142.7210 C   0  0  0  0  0  2  0  0  0  0  0  0
  185.2390  178.4120  144.2060 C   0  0  0  0  0  2  0  0  0  0  0  0
  187.9210  177.8180  146.8640 C   0  0  0  0  0  0  0  0  0  0  0  0
  186.6960  178.1910  146.2760 C   0  0  0  0  0  0  0  0  0  0  0  0
  186.5040  177.9980  144.8920 C   0  0  0  0  0  0  0  0  0  0  0  0
  185.6100  178.7820  147.1180 C   0  0  0  0  0  1  0  0  0  0  0  0
  187.5270  177.4380  144.1190 C   0  0  0  0  0  3  0  0  0  0  0  0
  188.9320  177.2580  146.0760 C   0  0  0  0  0  3  0  0  0  0  0  0
  188.7370  177.0680  144.7080 C   0  0  0  0  0  3  0  0  0  0  0  0
  188.2260  178.0400  148.5800 Cl  0  0  0  0  0  0  0  0  0  0  0  0
  185.3770  173.8560  136.9250 C   0  0  0  0  0  3  0  0  0  0  0  0
  184.8590  174.9560  136.4800 N   0  0  0  0  0  0  0  0  0  0  0  0
  184.8910  172.5220  136.5230 C   0  0  0  0  0  0  0  0  0  0  0  0
  186.9870  171.8990  135.1980 C   0  0  0  0  0  1  0  0  0  0  0  0
  183.6140  172.1630  136.9710 C   0  0  0  0  0  3  0  0  0  0  0  0
  183.0600  170.9260  136.6360 C   0  0  0  0  0  3  0  0  0  0  0  0
  185.6220  171.6070  135.7240 C   0  0  0  0  0  0  0  0  0  0  0  0
  183.7810  170.0310  135.8470 C   0  0  0  0  0  0  0  0  0  0  0  0
  185.0570  170.3720  135.3930 C   0  0  0  0  0  3  0  0  0  0  0  0
  183.2310  168.8030  135.5090 O   0  0  0  0  0  1  0  0  0  0  0  0
  183.1520  178.8760  139.8120 C   0  0  0  0  0  2  0  0  0  0  0  0
  182.6300  180.0000  138.9260 C   0  0  0  0  0  2  0  0  0  0  0  0
  181.1940  179.8810  138.7370 N   0  0  0  0  0  2  0  0  0  0  0  0
  180.5890  179.8580  140.0560 C   0  0  0  0  0  1  0  0  0  0  0  0
  2  4  1  0  0  0  0
  3  8  2  0  0  0  0
  3  7  1  0  0  0  0
  4 32  1  0  0  0  0
  4  9  1  0  0  0  0
  5  1  1  1  0  0  0
  5  2  1  0  0  0  0
  6  2  2  0  0  0  0
  7  6  1  0  0  0  0
  8  5  1  0  0  0  0
  9 10  1  1  0  0  0
  9 11  1  0  0  0  0
 11 12  1  0  0  0  0
 12 13  1  0  0  0  0
 13 16  1  0  0  0  0
 14 21  1  0  0  0  0
 15 14  1  0  0  0  0
 15 17  1  0  0  0  0
 16 15  2  0  0  0  0
 18 20  2  0  0  0  0
 18 16  1  0  0  0  0
 19 14  2  0  0  0  0
 20 19  1  0  0  0  0
 23  8  1  0  0  0  0
 23 22  2  0  0  0  0
 24 22  1  0  0  0  0
 24 26  1  0  0  0  0
 25 28  1  0  0  0  0
 27 26  2  0  0  0  0
 28 24  2  0  0  0  0
 29 27  1  0  0  0  0
 30 28  1  0  0  0  0
 30 29  2  0  0  0  0
 31 29  1  0  0  0  0
 33 32  1  0  0  0  0
 34 33  1  0  0  0  0
 34 35  1  0  0  0  0
M  END
>  <MODEL>
9

>  <REMARK>
 VINA RESULT:      -7.1      4.240      9.857
  Name = 
  10 active torsions:
  status: ('A' for Active; 'I' for Inactive)
    1  A    between atoms: C_3  and  C_7
    2  A    between atoms: C_5  and  N_6
    3  A    between atoms: C_5  and  O_8
    4  A    between atoms: N_6  and  C_12
    5  A    between atoms: O_8  and  C_17
    6  A    between atoms: N_10  and  C_28
    7  A    between atoms: C_12  and  C_19
    8  A    between atoms: C_14  and  C_16
    9  A    between atoms: C_14  and  C_17
   10  A    between atoms: C_19  and  N_21
                            x       y       z     vdW  Elec       q    Type
                         _______ _______ _______ _____ _____    ______ ____

>  <TORSDO>
F 10

$$$$
