=
 OpenBabel10232410533D

 49 53  0  0  1  0  0  0  0  0999 V2000
  183.5340  175.7600  137.2340 C   0  0  0  0  0  0  0  0  0  0  0  0
  184.8790  173.6920  136.9780 C   0  0  0  0  0  0  0  0  0  0  0  0
  186.0890  173.0020  136.9000 C   0  0  0  0  0  3  0  0  0  0  0  0
  182.4580  175.1030  136.9070 N   0  0  0  0  0  0  0  0  0  0  0  0
  182.4940  173.7530  136.3340 C   0  0  0  0  0  2  0  0  0  0  0  0
  187.2960  175.0890  137.0400 C   0  0  0  0  0  3  0  0  0  0  0  0
  184.8620  175.0950  137.1220 C   0  0  0  0  0  0  0  0  0  0  0  0
  186.0930  175.7970  137.1430 C   0  0  0  0  0  0  0  0  0  0  0  0
  187.3020  173.7000  136.9150 C   0  0  0  0  0  0  0  0  0  0  0  0
  183.5950  172.9210  136.9900 C   0  0  0  0  0  2  0  0  0  0  0  0
  188.6200  172.9910  136.8760 C   0  0  0  0  0  2  0  0  0  0  0  0
  191.0380  173.7520  136.8690 C   0  0  0  0  0  0  0  0  0  0  0  0
  191.3260  172.9120  135.9720 O   0  0  0  0  0  0  0  0  0  0  0  0
  189.7000  173.8300  137.3800 N   0  0  0  0  0  2  0  0  0  0  0  0
  193.3370  174.2860  137.5250 O   0  0  0  0  0  0  0  0  0  0  0  0
  191.8950  175.9360  137.8230 C   0  0  0  0  0  3  0  0  0  0  0  0
  193.1480  176.3600  138.2250 C   0  0  0  0  0  3  0  0  0  0  0  0
  194.0110  175.2950  138.0210 C   0  0  0  0  0  3  0  0  0  0  0  0
  192.0810  174.6360  137.3960 C   0  0  0  0  0  0  0  0  0  0  0  0
  186.1660  177.2890  137.2220 C   0  0  0  0  0  2  0  0  0  0  0  0
  185.7870  178.8990  138.9270 O   0  0  0  0  0  1  0  0  0  0  0  0
  186.5190  177.7480  138.6280 C   0  0  2  0  0  3  0  0  0  0  0  0
  188.0060  178.0520  138.7340 C   0  0  0  0  0  2  0  0  0  0  0  0
  188.4150  178.2320  140.1870 C   0  0  0  0  0  2  0  0  0  0  0  0
  189.7580  177.5730  140.4610 C   0  0  0  0  0  2  0  0  0  0  0  0
  187.3680  178.1650  147.2800 O   0  0  0  0  0  0  0  0  0  0  0  0
  189.7800  177.0120  141.8720 C   0  0  1  0  0  3  0  0  0  0  0  0
  191.5080  177.4240  143.7740 C   0  0  1  0  0  3  0  0  0  0  0  0
  188.0800  177.9180  145.0980 O   0  0  0  0  0  0  0  0  0  0  0  0
  191.7780  178.7880  143.6600 O   0  0  0  0  0  1  0  0  0  0  0  0
  190.5390  177.0200  146.0670 C   0  0  0  0  0  0  0  0  0  0  0  0
  190.3630  177.2120  144.7350 C   0  0  0  0  0  0  0  0  0  0  0  0
  191.2250  176.8370  142.3810 C   0  0  0  0  0  2  0  0  0  0  0  0
  188.9480  177.2350  144.1940 C   0  0  2  0  0  3  0  0  0  0  0  0
  188.1980  177.6760  146.4690 C   0  0  0  0  0  0  0  0  0  0  0  0
  188.8940  177.8420  142.7980 C   0  0  0  0  0  2  0  0  0  0  0  0
  189.3330  176.8270  146.9600 C   0  0  0  0  0  2  0  0  0  0  0  0
  192.3250  175.7970  147.3200 C   0  0  0  0  0  1  0  0  0  0  0  0
  191.7930  176.9600  146.6930 O   0  0  0  0  0  0  0  0  0  0  0  0
  183.4350  177.0540  137.7580 O   0  0  0  0  0  0  0  0  0  0  0  0
  182.3900  177.4600  138.6330 C   0  0  0  0  0  2  0  0  0  0  0  0
  182.8000  177.2170  140.0750 C   0  0  0  0  0  2  0  0  0  0  0  0
  181.3930  178.5190  141.4930 O   0  0  0  0  0  1  0  0  0  0  0  0
  182.6550  178.4880  140.8990 C   0  0  1  0  0  3  0  0  0  0  0  0
  183.7440  178.6050  141.9640 C   0  0  0  0  0  2  0  0  0  0  0  0
  183.9900  178.9400  144.4480 C   0  0  0  0  0  0  0  0  0  0  0  0
  183.4620  179.1500  145.5720 O   0  0  0  0  0  1  0  0  0  0  0  0
  183.1680  178.8260  143.2850 N   0  0  0  0  0  2  0  0  0  0  0  0
  185.3720  178.8340  144.3530 O   0  0  0  0  0  0  0  0  0  0  0  0
  1 40  1  0  0  0  0
  2 10  1  0  0  0  0
  2  7  1  0  0  0  0
  3  9  1  0  0  0  0
  3  2  2  0  0  0  0
  4  1  2  0  0  0  0
  5  4  1  0  0  0  0
  5 10  1  0  0  0  0
  6  8  1  0  0  0  0
  7  8  2  0  0  0  0
  7  1  1  0  0  0  0
  8 20  1  0  0  0  0
  9  6  2  0  0  0  0
 11  9  1  0  0  0  0
 11 14  1  0  0  0  0
 12 14  1  0  0  0  0
 12 19  1  0  0  0  0
 13 12  2  0  0  0  0
 15 18  1  0  0  0  0
 16 17  1  0  0  0  0
 18 17  2  0  0  0  0
 19 15  1  0  0  0  0
 19 16  2  0  0  0  0
 20 22  1  0  0  0  0
 22 23  1  0  0  0  0
 22 21  1  6  0  0  0
 23 24  1  0  0  0  0
 24 25  1  0  0  0  0
 27 25  1  6  0  0  0
 27 33  1  0  0  0  0
 27 36  1  0  0  0  0
 28 30  1  6  0  0  0
 28 32  1  0  0  0  0
 29 35  1  0  0  0  0
 31 39  1  0  0  0  0
 31 37  1  0  0  0  0
 32 31  2  0  0  0  0
 33 28  1  0  0  0  0
 34 36  1  6  0  0  0
 34 32  1  0  0  0  0
 34 29  1  0  0  0  0
 35 37  1  0  0  0  0
 35 26  2  0  0  0  0
 39 38  1  0  0  0  0
 40 41  1  0  0  0  0
 41 42  1  0  0  0  0
 42 44  1  0  0  0  0
 44 43  1  1  0  0  0
 44 45  1  0  0  0  0
 45 48  1  0  0  0  0
 46 47  1  0  0  0  0
 48 46  1  0  0  0  0
 49 46  2  0  0  0  0
M  END
>  <MODEL>
1

>  <REMARK>
 VINA RESULT:      -8.4      0.000      0.000
  Name = 
  16 active torsions:
  status: ('A' for Active; 'I' for Inactive)
    1  A    between atoms: C_1  and  O_14
    2  A    between atoms: C_3  and  C_43
    3  A    between atoms: C_4  and  C_19
    4  A    between atoms: C_4  and  C_45
    5  A    between atoms: C_11  and  C_29
    6  A    between atoms: O_14  and  C_19
    7  A    between atoms: C_17  and  O_27
    8  A    between atoms: C_21  and  C_32
    9  A    between atoms: C_21  and  C_40
   10  A    between atoms: C_29  and  C_32
   11  A    between atoms: C_30  and  C_39
   12  A    between atoms: C_30  and  C_40
   13  A    between atoms: C_35  and  N_41
   14  A    between atoms: C_35  and  C_45
   15  A    between atoms: C_36  and  N_42
   16  A    between atoms: C_36  and  C_47
                            x       y       z     vdW  Elec       q    Type
                         _______ _______ _______ _____ _____    ______ ____

>  <TORSDO>
F 16

$$$$
=
 OpenBabel10232410533D

 49 53  0  0  1  0  0  0  0  0999 V2000
  185.8670  175.5560  135.5510 C   0  0  0  0  0  0  0  0  0  0  0  0
  183.8270  176.4010  136.6800 C   0  0  0  0  0  0  0  0  0  0  0  0
  183.1440  177.3110  137.4870 C   0  0  0  0  0  3  0  0  0  0  0  0
  185.2450  174.4530  135.2480 N   0  0  0  0  0  0  0  0  0  0  0  0
  183.9510  174.0840  135.8330 C   0  0  0  0  0  2  0  0  0  0  0  0
  185.2070  178.4910  137.9160 C   0  0  0  0  0  3  0  0  0  0  0  0
  185.2110  176.5440  136.4530 C   0  0  0  0  0  0  0  0  0  0  0  0
  185.9060  177.6020  137.0910 C   0  0  0  0  0  0  0  0  0  0  0  0
  183.8350  178.3510  138.1200 C   0  0  0  0  0  0  0  0  0  0  0  0
  183.0610  175.3160  135.9890 C   0  0  0  0  0  2  0  0  0  0  0  0
  183.1290  179.3700  138.9590 C   0  0  0  0  0  2  0  0  0  0  0  0
  183.0710  178.6930  141.4020 C   0  0  0  0  0  0  0  0  0  0  0  0
  182.0280  178.0060  141.2130 O   0  0  0  0  0  0  0  0  0  0  0  0
  183.6640  179.4170  140.3150 N   0  0  0  0  0  2  0  0  0  0  0  0
  183.0630  179.2850  143.7790 O   0  0  0  0  0  0  0  0  0  0  0  0
  184.9100  178.2820  143.0930 C   0  0  0  0  0  3  0  0  0  0  0  0
  185.0280  178.5590  144.4430 C   0  0  0  0  0  3  0  0  0  0  0  0
  183.8510  179.1870  144.8220 C   0  0  0  0  0  3  0  0  0  0  0  0
  183.6630  178.7570  142.7400 C   0  0  0  0  0  0  0  0  0  0  0  0
  187.3850  177.7860  136.9610 C   0  0  0  0  0  2  0  0  0  0  0  0
  188.9390  179.3010  137.9250 O   0  0  0  0  0  1  0  0  0  0  0  0
  187.9850  178.3350  138.2460 C   0  0  2  0  0  3  0  0  0  0  0  0
  188.6430  177.2210  139.0470 C   0  0  0  0  0  2  0  0  0  0  0  0
  188.9030  177.6680  140.4770 C   0  0  0  0  0  2  0  0  0  0  0  0
  190.2720  177.2050  140.9520 C   0  0  0  0  0  2  0  0  0  0  0  0
  187.1750  177.9890  147.4610 O   0  0  0  0  0  0  0  0  0  0  0  0
  190.1820  176.7170  142.3880 C   0  0  1  0  0  3  0  0  0  0  0  0
  191.6830  177.3250  144.4240 C   0  0  1  0  0  3  0  0  0  0  0  0
  188.1170  177.6770  145.3760 O   0  0  0  0  0  0  0  0  0  0  0  0
  191.8880  178.6960  144.2620 O   0  0  0  0  0  1  0  0  0  0  0  0
  190.5110  176.9780  146.6290 C   0  0  0  0  0  0  0  0  0  0  0  0
  190.4600  177.0930  145.2780 C   0  0  0  0  0  0  0  0  0  0  0  0
  191.5750  176.6550  143.0450 C   0  0  0  0  0  2  0  0  0  0  0  0
  189.1080  177.0040  144.6000 C   0  0  2  0  0  3  0  0  0  0  0  0
  188.1080  177.5100  146.7630 C   0  0  0  0  0  0  0  0  0  0  0  0
  189.1620  177.5370  143.1750 C   0  0  0  0  0  2  0  0  0  0  0  0
  189.2330  176.7570  147.4090 C   0  0  0  0  0  2  0  0  0  0  0  0
  192.3420  175.8840  147.9350 C   0  0  0  0  0  1  0  0  0  0  0  0
  191.6960  177.0250  147.3780 O   0  0  0  0  0  0  0  0  0  0  0  0
  187.1100  175.8420  134.9750 O   0  0  0  0  0  0  0  0  0  0  0  0
  188.1360  174.8700  134.8190 C   0  0  0  0  0  2  0  0  0  0  0  0
  189.2780  175.1660  135.7760 C   0  0  0  0  0  2  0  0  0  0  0  0
  190.3440  177.1620  135.0260 O   0  0  0  0  0  1  0  0  0  0  0  0
  190.4600  175.7720  135.0340 C   0  0  1  0  0  3  0  0  0  0  0  0
  191.7950  175.3560  135.6500 C   0  0  0  0  0  2  0  0  0  0  0  0
  192.9970  176.4110  137.5960 C   0  0  0  0  0  0  0  0  0  0  0  0
  193.0160  176.7330  138.8130 O   0  0  0  0  0  1  0  0  0  0  0  0
  191.8640  175.7260  137.0590 N   0  0  0  0  0  2  0  0  0  0  0  0
  194.0770  176.7380  136.7860 O   0  0  0  0  0  0  0  0  0  0  0  0
  1  7  1  0  0  0  0
  2  3  1  0  0  0  0
  3  9  2  0  0  0  0
  4  1  2  0  0  0  0
  4  5  1  0  0  0  0
  5 10  1  0  0  0  0
  6  9  1  0  0  0  0
  7  2  2  0  0  0  0
  7  8  1  0  0  0  0
  8  6  2  0  0  0  0
  9 11  1  0  0  0  0
 10  2  1  0  0  0  0
 11 14  1  0  0  0  0
 12 19  1  0  0  0  0
 13 12  2  0  0  0  0
 14 12  1  0  0  0  0
 15 18  1  0  0  0  0
 16 17  1  0  0  0  0
 17 18  2  0  0  0  0
 19 16  2  0  0  0  0
 19 15  1  0  0  0  0
 20  8  1  0  0  0  0
 20 22  1  0  0  0  0
 22 21  1  6  0  0  0
 22 23  1  0  0  0  0
 23 24  1  0  0  0  0
 24 25  1  0  0  0  0
 27 25  1  6  0  0  0
 27 33  1  0  0  0  0
 27 36  1  0  0  0  0
 28 30  1  6  0  0  0
 28 32  1  0  0  0  0
 29 35  1  0  0  0  0
 31 39  1  0  0  0  0
 31 37  1  0  0  0  0
 32 31  2  0  0  0  0
 33 28  1  0  0  0  0
 34 36  1  6  0  0  0
 34 32  1  0  0  0  0
 34 29  1  0  0  0  0
 35 37  1  0  0  0  0
 35 26  2  0  0  0  0
 39 38  1  0  0  0  0
 40  1  1  0  0  0  0
 41 40  1  0  0  0  0
 41 42  1  0  0  0  0
 44 43  1  1  0  0  0
 44 45  1  0  0  0  0
 44 42  1  0  0  0  0
 45 48  1  0  0  0  0
 46 47  1  0  0  0  0
 48 46  1  0  0  0  0
 49 46  2  0  0  0  0
M  END
>  <MODEL>
2

>  <REMARK>
 VINA RESULT:      -8.4      1.812      6.715
  Name = 
  16 active torsions:
  status: ('A' for Active; 'I' for Inactive)
    1  A    between atoms: C_1  and  O_14
    2  A    between atoms: C_3  and  C_43
    3  A    between atoms: C_4  and  C_19
    4  A    between atoms: C_4  and  C_45
    5  A    between atoms: C_11  and  C_29
    6  A    between atoms: O_14  and  C_19
    7  A    between atoms: C_17  and  O_27
    8  A    between atoms: C_21  and  C_32
    9  A    between atoms: C_21  and  C_40
   10  A    between atoms: C_29  and  C_32
   11  A    between atoms: C_30  and  C_39
   12  A    between atoms: C_30  and  C_40
   13  A    between atoms: C_35  and  N_41
   14  A    between atoms: C_35  and  C_45
   15  A    between atoms: C_36  and  N_42
   16  A    between atoms: C_36  and  C_47
                            x       y       z     vdW  Elec       q    Type
                         _______ _______ _______ _____ _____    ______ ____

>  <TORSDO>
F 16

$$$$
=
 OpenBabel10232410533D

 49 53  0  0  1  0  0  0  0  0999 V2000
  185.5550  178.3210  144.2910 C   0  0  0  0  0  0  0  0  0  0  0  0
  184.2220  178.7430  142.2430 C   0  0  0  0  0  0  0  0  0  0  0  0
  184.0770  178.8580  140.8600 C   0  0  0  0  0  3  0  0  0  0  0  0
  184.5620  178.7350  145.0250 N   0  0  0  0  0  0  0  0  0  0  0  0
  183.3990  179.4340  144.4670 C   0  0  0  0  0  2  0  0  0  0  0  0
  186.4470  178.4900  140.5730 C   0  0  0  0  0  3  0  0  0  0  0  0
  185.4830  178.4660  142.8100 C   0  0  0  0  0  0  0  0  0  0  0  0
  186.6080  178.3480  141.9560 C   0  0  0  0  0  0  0  0  0  0  0  0
  185.1920  178.7470  140.0210 C   0  0  0  0  0  0  0  0  0  0  0  0
  183.0100  178.8350  143.1170 C   0  0  0  0  0  2  0  0  0  0  0  0
  185.0690  178.8240  138.5310 C   0  0  0  0  0  2  0  0  0  0  0  0
  186.3470  177.4330  136.8410 C   0  0  0  0  0  0  0  0  0  0  0  0
  186.9340  178.4610  136.4010 O   0  0  0  0  0  0  0  0  0  0  0  0
  185.3840  177.5490  137.8980 N   0  0  0  0  0  2  0  0  0  0  0  0
  186.3090  174.9840  136.8090 O   0  0  0  0  0  0  0  0  0  0  0  0
  187.3010  175.9050  135.0610 C   0  0  0  0  0  3  0  0  0  0  0  0
  187.3420  174.5300  134.9240 C   0  0  0  0  0  3  0  0  0  0  0  0
  186.7130  174.0020  136.0400 C   0  0  0  0  0  3  0  0  0  0  0  0
  186.6430  176.1230  136.2550 C   0  0  0  0  0  0  0  0  0  0  0  0
  187.9930  178.1240  142.4780 C   0  0  0  0  0  2  0  0  0  0  0  0
  188.4640  175.8510  142.9760 O   0  0  0  0  0  1  0  0  0  0  0  0
  188.5660  176.8110  141.9690 C   0  0  2  0  0  3  0  0  0  0  0  0
  190.0270  176.9820  141.5780 C   0  0  0  0  0  2  0  0  0  0  0  0
  190.1520  177.8410  140.3300 C   0  0  0  0  0  2  0  0  0  0  0  0
  189.6070  177.1130  139.1110 C   0  0  0  0  0  2  0  0  0  0  0  0
  196.2610  175.3170  136.8570 O   0  0  0  0  0  0  0  0  0  0  0  0
  190.5590  176.0000  138.7060 C   0  0  1  0  0  3  0  0  0  0  0  0
  190.8250  174.8300  136.3970 C   0  0  1  0  0  3  0  0  0  0  0  0
  194.1600  175.8640  137.6450 O   0  0  0  0  0  0  0  0  0  0  0  0
  190.7130  175.8890  135.4960 O   0  0  0  0  0  1  0  0  0  0  0  0
  193.1060  173.7970  136.0930 C   0  0  0  0  0  0  0  0  0  0  0  0
  192.2760  174.6310  136.7680 C   0  0  0  0  0  0  0  0  0  0  0  0
  189.9350  175.0990  137.6210 C   0  0  0  0  0  2  0  0  0  0  0  0
  192.8380  175.4120  137.9380 C   0  0  2  0  0  3  0  0  0  0  0  0
  195.0530  174.9930  137.0160 C   0  0  0  0  0  0  0  0  0  0  0  0
  191.9250  176.5670  138.3280 C   0  0  0  0  0  2  0  0  0  0  0  0
  194.5500  173.6680  136.5260 C   0  0  0  0  0  2  0  0  0  0  0  0
  192.8150  171.5850  134.9620 C   0  0  0  0  0  1  0  0  0  0  0  0
  192.7100  173.0060  135.0040 O   0  0  0  0  0  0  0  0  0  0  0  0
  186.6480  177.6780  144.8850 O   0  0  0  0  0  0  0  0  0  0  0  0
  186.9560  177.7910  146.2690 C   0  0  0  0  0  2  0  0  0  0  0  0
  188.3590  177.2710  146.5300 C   0  0  0  0  0  2  0  0  0  0  0  0
  188.2310  177.6080  148.8860 O   0  0  0  0  0  1  0  0  0  0  0  0
  188.9660  177.9460  147.7500 C   0  0  1  0  0  3  0  0  0  0  0  0
  190.4350  177.5700  147.9400 C   0  0  0  0  0  2  0  0  0  0  0  0
  192.0810  175.8790  147.0610 C   0  0  0  0  0  0  0  0  0  0  0  0
  192.4230  175.0610  146.1670 O   0  0  0  0  0  0  0  0  0  0  0  0
  190.8750  176.6300  146.9160 N   0  0  0  0  0  2  0  0  0  0  0  0
  192.8800  176.0310  148.1880 O   0  0  0  0  0  1  0  0  0  0  0  0
  1 40  1  0  0  0  0
  1  4  2  0  0  0  0
  2  7  1  0  0  0  0
  2 10  1  0  0  0  0
  3  2  2  0  0  0  0
  5  4  1  0  0  0  0
  6  8  1  0  0  0  0
  7  1  1  0  0  0  0
  8 20  1  0  0  0  0
  8  7  2  0  0  0  0
  9  6  2  0  0  0  0
  9  3  1  0  0  0  0
 10  5  1  0  0  0  0
 11  9  1  0  0  0  0
 12 14  1  0  0  0  0
 13 12  2  0  0  0  0
 14 11  1  0  0  0  0
 16 19  2  0  0  0  0
 17 16  1  0  0  0  0
 17 18  2  0  0  0  0
 18 15  1  0  0  0  0
 19 15  1  0  0  0  0
 19 12  1  0  0  0  0
 22 20  1  0  0  0  0
 22 21  1  1  0  0  0
 23 22  1  0  0  0  0
 24 23  1  0  0  0  0
 25 24  1  0  0  0  0
 26 35  2  0  0  0  0
 27 25  1  6  0  0  0
 28 30  1  6  0  0  0
 28 32  1  0  0  0  0
 28 33  1  0  0  0  0
 29 34  1  0  0  0  0
 31 37  1  0  0  0  0
 31 32  2  0  0  0  0
 32 34  1  0  0  0  0
 33 27  1  0  0  0  0
 34 36  1  6  0  0  0
 35 29  1  0  0  0  0
 36 27  1  0  0  0  0
 37 35  1  0  0  0  0
 38 39  1  0  0  0  0
 39 31  1  0  0  0  0
 40 41  1  0  0  0  0
 41 42  1  0  0  0  0
 42 44  1  0  0  0  0
 44 45  1  0  0  0  0
 44 43  1  1  0  0  0
 46 49  1  0  0  0  0
 47 46  2  0  0  0  0
 48 46  1  0  0  0  0
 48 45  1  0  0  0  0
M  END
>  <MODEL>
3

>  <REMARK>
 VINA RESULT:      -8.2      2.428      8.118
  Name = 
  16 active torsions:
  status: ('A' for Active; 'I' for Inactive)
    1  A    between atoms: C_1  and  O_14
    2  A    between atoms: C_3  and  C_43
    3  A    between atoms: C_4  and  C_19
    4  A    between atoms: C_4  and  C_45
    5  A    between atoms: C_11  and  C_29
    6  A    between atoms: O_14  and  C_19
    7  A    between atoms: C_17  and  O_27
    8  A    between atoms: C_21  and  C_32
    9  A    between atoms: C_21  and  C_40
   10  A    between atoms: C_29  and  C_32
   11  A    between atoms: C_30  and  C_39
   12  A    between atoms: C_30  and  C_40
   13  A    between atoms: C_35  and  N_41
   14  A    between atoms: C_35  and  C_45
   15  A    between atoms: C_36  and  N_42
   16  A    between atoms: C_36  and  C_47
                            x       y       z     vdW  Elec       q    Type
                         _______ _______ _______ _____ _____    ______ ____

>  <TORSDO>
F 16

$$$$
=
 OpenBabel10232410533D

 49 53  0  0  1  0  0  0  0  0999 V2000
  184.6050  176.3960  137.7000 C   0  0  0  0  0  0  0  0  0  0  0  0
  185.6980  174.3680  136.7840 C   0  0  0  0  0  0  0  0  0  0  0  0
  186.7400  173.7090  136.1300 C   0  0  0  0  0  3  0  0  0  0  0  0
  183.5080  175.7220  137.8920 N   0  0  0  0  0  0  0  0  0  0  0  0
  183.2880  174.3850  137.3270 C   0  0  0  0  0  2  0  0  0  0  0  0
  187.8500  175.8220  135.7550 C   0  0  0  0  0  3  0  0  0  0  0  0
  185.7350  175.7670  136.9610 C   0  0  0  0  0  0  0  0  0  0  0  0
  186.8250  176.4970  136.4280 C   0  0  0  0  0  0  0  0  0  0  0  0
  187.8120  174.4360  135.6000 C   0  0  0  0  0  0  0  0  0  0  0  0
  184.5770  173.5660  137.3690 C   0  0  0  0  0  2  0  0  0  0  0  0
  188.9670  173.7600  134.9290 C   0  0  0  0  0  2  0  0  0  0  0  0
  190.7480  174.1050  136.7000 C   0  0  0  0  0  0  0  0  0  0  0  0
  190.0670  173.4610  137.5460 O   0  0  0  0  0  0  0  0  0  0  0  0
  190.2440  174.3070  135.3720 N   0  0  0  0  0  2  0  0  0  0  0  0
  193.1160  173.9270  137.3030 O   0  0  0  0  0  0  0  0  0  0  0  0
  192.3340  175.9950  137.2720 C   0  0  0  0  0  3  0  0  0  0  0  0
  193.6710  176.0290  137.6210 C   0  0  0  0  0  3  0  0  0  0  0  0
  194.1120  174.7150  137.6280 C   0  0  0  0  0  3  0  0  0  0  0  0
  192.0490  174.6570  137.0860 C   0  0  0  0  0  0  0  0  0  0  0  0
  186.9100  177.9890  136.5100 C   0  0  0  0  0  2  0  0  0  0  0  0
  189.1930  178.5950  136.7540 O   0  0  0  0  0  1  0  0  0  0  0  0
  188.0070  178.4260  137.4680 C   0  0  2  0  0  3  0  0  0  0  0  0
  188.2140  177.3820  138.5550 C   0  0  0  0  0  2  0  0  0  0  0  0
  188.7120  178.0310  139.8360 C   0  0  0  0  0  2  0  0  0  0  0  0
  189.8620  177.2380  140.4380 C   0  0  0  0  0  2  0  0  0  0  0  0
  192.4630  175.4190  146.9570 O   0  0  0  0  0  0  0  0  0  0  0  0
  190.0640  177.6440  141.8880 C   0  0  1  0  0  3  0  0  0  0  0  0
  188.4110  177.4580  143.8890 C   0  0  1  0  0  3  0  0  0  0  0  0
  191.6950  176.0450  144.8710 O   0  0  0  0  0  0  0  0  0  0  0  0
  187.8140  176.2140  143.6850 O   0  0  0  0  0  1  0  0  0  0  0  0
  189.5910  177.3910  146.1170 C   0  0  0  0  0  0  0  0  0  0  0  0
  189.6310  177.2970  144.7640 C   0  0  0  0  0  0  0  0  0  0  0  0
  188.7390  178.0990  142.5310 C   0  0  0  0  0  2  0  0  0  0  0  0
  190.9620  177.0000  144.1040 C   0  0  2  0  0  3  0  0  0  0  0  0
  191.7250  176.1680  146.2630 C   0  0  0  0  0  0  0  0  0  0  0  0
  190.7800  176.5400  142.6640 C   0  0  0  0  0  2  0  0  0  0  0  0
  190.8610  177.2040  146.9170 C   0  0  0  0  0  2  0  0  0  0  0  0
  188.1760  177.2100  148.1720 C   0  0  0  0  0  1  0  0  0  0  0  0
  188.4300  177.6780  146.8500 O   0  0  0  0  0  0  0  0  0  0  0  0
  184.7470  177.6770  138.2480 O   0  0  0  0  0  0  0  0  0  0  0  0
  183.6590  178.4130  138.7950 C   0  0  0  0  0  2  0  0  0  0  0  0
  184.1790  179.4780  139.7430 C   0  0  0  0  0  2  0  0  0  0  0  0
  185.7390  179.8490  141.5070 O   0  0  0  0  0  1  0  0  0  0  0  0
  185.0190  178.8540  140.8470 C   0  0  1  0  0  3  0  0  0  0  0  0
  184.1630  178.0720  141.8430 C   0  0  0  0  0  2  0  0  0  0  0  0
  183.4540  178.8790  144.1210 C   0  0  0  0  0  0  0  0  0  0  0  0
  183.7530  179.1790  145.3060 O   0  0  0  0  0  1  0  0  0  0  0  0
  184.4740  178.4510  143.2160 N   0  0  0  0  0  2  0  0  0  0  0  0
  182.1290  178.9550  143.7120 O   0  0  0  0  0  0  0  0  0  0  0  0
  1  4  2  0  0  0  0
  1 40  1  0  0  0  0
  2  7  1  0  0  0  0
  2 10  1  0  0  0  0
  3  2  2  0  0  0  0
  5 10  1  0  0  0  0
  5  4  1  0  0  0  0
  6  8  1  0  0  0  0
  7  1  1  0  0  0  0
  8 20  1  0  0  0  0
  8  7  2  0  0  0  0
  9  6  2  0  0  0  0
  9  3  1  0  0  0  0
 11 14  1  0  0  0  0
 11  9  1  0  0  0  0
 12 19  1  0  0  0  0
 12 13  2  0  0  0  0
 14 12  1  0  0  0  0
 15 18  1  0  0  0  0
 16 17  1  0  0  0  0
 17 18  2  0  0  0  0
 19 16  2  0  0  0  0
 19 15  1  0  0  0  0
 20 22  1  0  0  0  0
 22 21  1  6  0  0  0
 22 23  1  0  0  0  0
 23 24  1  0  0  0  0
 24 25  1  0  0  0  0
 27 25  1  6  0  0  0
 27 33  1  0  0  0  0
 27 36  1  0  0  0  0
 28 30  1  6  0  0  0
 28 32  1  0  0  0  0
 29 35  1  0  0  0  0
 31 39  1  0  0  0  0
 31 37  1  0  0  0  0
 32 31  2  0  0  0  0
 33 28  1  0  0  0  0
 34 36  1  6  0  0  0
 34 32  1  0  0  0  0
 34 29  1  0  0  0  0
 35 37  1  0  0  0  0
 35 26  2  0  0  0  0
 39 38  1  0  0  0  0
 40 41  1  0  0  0  0
 41 42  1  0  0  0  0
 42 44  1  0  0  0  0
 44 43  1  1  0  0  0
 44 45  1  0  0  0  0
 45 48  1  0  0  0  0
 46 47  1  0  0  0  0
 48 46  1  0  0  0  0
 49 46  2  0  0  0  0
M  END
>  <MODEL>
4

>  <REMARK>
 VINA RESULT:      -8.1      1.446      2.302
  Name = 
  16 active torsions:
  status: ('A' for Active; 'I' for Inactive)
    1  A    between atoms: C_1  and  O_14
    2  A    between atoms: C_3  and  C_43
    3  A    between atoms: C_4  and  C_19
    4  A    between atoms: C_4  and  C_45
    5  A    between atoms: C_11  and  C_29
    6  A    between atoms: O_14  and  C_19
    7  A    between atoms: C_17  and  O_27
    8  A    between atoms: C_21  and  C_32
    9  A    between atoms: C_21  and  C_40
   10  A    between atoms: C_29  and  C_32
   11  A    between atoms: C_30  and  C_39
   12  A    between atoms: C_30  and  C_40
   13  A    between atoms: C_35  and  N_41
   14  A    between atoms: C_35  and  C_45
   15  A    between atoms: C_36  and  N_42
   16  A    between atoms: C_36  and  C_47
                            x       y       z     vdW  Elec       q    Type
                         _______ _______ _______ _____ _____    ______ ____

>  <TORSDO>
F 16

$$$$
=
 OpenBabel10232410533D

 49 53  0  0  1  0  0  0  0  0999 V2000
  185.1180  178.7970  145.2010 C   0  0  0  0  0  0  0  0  0  0  0  0
  187.3700  177.8660  145.6600 C   0  0  0  0  0  0  0  0  0  0  0  0
  188.5750  177.2850  145.2650 C   0  0  0  0  0  3  0  0  0  0  0  0
  184.8650  178.8210  146.4780 N   0  0  0  0  0  0  0  0  0  0  0  0
  185.7100  178.1450  147.4680 C   0  0  0  0  0  2  0  0  0  0  0  0
  187.7850  177.1800  142.9850 C   0  0  0  0  0  3  0  0  0  0  0  0
  186.3640  178.1430  144.7110 C   0  0  0  0  0  0  0  0  0  0  0  0
  186.5790  177.7840  143.3580 C   0  0  0  0  0  0  0  0  0  0  0  0
  188.7810  176.9260  143.9280 C   0  0  0  0  0  0  0  0  0  0  0  0
  187.1850  178.2690  147.0900 C   0  0  0  0  0  2  0  0  0  0  0  0
  190.0760  176.3390  143.4600 C   0  0  0  0  0  2  0  0  0  0  0  0
  190.9670  176.9620  141.1700 C   0  0  0  0  0  0  0  0  0  0  0  0
  191.7140  177.8470  141.6720 O   0  0  0  0  0  0  0  0  0  0  0  0
  190.1050  176.1830  142.0100 N   0  0  0  0  0  2  0  0  0  0  0  0
  192.0550  176.7910  138.9810 O   0  0  0  0  0  0  0  0  0  0  0  0
  189.8670  176.4730  138.9410 C   0  0  0  0  0  3  0  0  0  0  0  0
  190.3600  176.3480  137.6550 C   0  0  0  0  0  3  0  0  0  0  0  0
  191.7270  176.5570  137.7330 C   0  0  0  0  0  3  0  0  0  0  0  0
  190.9730  176.7470  139.7200 C   0  0  0  0  0  0  0  0  0  0  0  0
  185.5390  177.9770  142.3000 C   0  0  0  0  0  2  0  0  0  0  0  0
  184.8250  179.6940  140.8220 O   0  0  0  0  0  1  0  0  0  0  0  0
  185.9620  179.0430  141.3010 C   0  0  2  0  0  3  0  0  0  0  0  0
  186.7160  178.4170  140.1370 C   0  0  0  0  0  2  0  0  0  0  0  0
  185.8490  178.3920  138.8880 C   0  0  0  0  0  2  0  0  0  0  0  0
  186.6990  178.2200  137.6390 C   0  0  0  0  0  2  0  0  0  0  0  0
  181.2260  173.6020  136.5000 O   0  0  0  0  0  0  0  0  0  0  0  0
  186.0030  177.2830  136.6660 C   0  0  1  0  0  3  0  0  0  0  0  0
  186.5540  174.8040  136.0990 C   0  0  1  0  0  3  0  0  0  0  0  0
  182.9310  175.1260  136.8210 O   0  0  0  0  0  0  0  0  0  0  0  0
  186.8650  174.2610  137.3460 O   0  0  0  0  0  1  0  0  0  0  0  0
  184.5620  173.5530  135.1910 C   0  0  0  0  0  0  0  0  0  0  0  0
  185.0780  174.6340  135.8270 C   0  0  0  0  0  0  0  0  0  0  0  0
  186.9970  176.2750  136.0540 C   0  0  0  0  0  2  0  0  0  0  0  0
  184.1250  175.7110  136.3020 C   0  0  2  0  0  3  0  0  0  0  0  0
  182.3440  174.0580  136.1380 C   0  0  0  0  0  0  0  0  0  0  0  0
  184.7860  176.6330  137.3190 C   0  0  0  0  0  2  0  0  0  0  0  0
  183.0680  173.4590  134.9700 C   0  0  0  0  0  2  0  0  0  0  0  0
  185.7610  171.3740  135.4550 C   0  0  0  0  0  1  0  0  0  0  0  0
  185.3330  172.4950  134.6870 O   0  0  0  0  0  0  0  0  0  0  0  0
  184.2610  179.4450  144.3030 O   0  0  0  0  0  0  0  0  0  0  0  0
  182.8440  179.3420  144.3690 C   0  0  0  0  0  2  0  0  0  0  0  0
  182.2880  178.9690  143.0070 C   0  0  0  0  0  2  0  0  0  0  0  0
  180.3430  180.3470  143.0460 O   0  0  0  0  0  1  0  0  0  0  0  0
  180.7670  179.0190  143.0130 C   0  0  1  0  0  3  0  0  0  0  0  0
  180.1680  178.3020  141.8040 C   0  0  0  0  0  2  0  0  0  0  0  0
  181.2520  179.0710  139.6640 C   0  0  0  0  0  0  0  0  0  0  0  0
  182.1280  178.9120  138.7750 O   0  0  0  0  0  0  0  0  0  0  0  0
  181.1550  178.1390  140.7440 N   0  0  0  0  0  2  0  0  0  0  0  0
  180.3940  180.1620  139.5900 O   0  0  0  0  0  1  0  0  0  0  0  0
  1  4  2  0  0  0  0
  2 10  1  0  0  0  0
  3  2  1  0  0  0  0
  4  5  1  0  0  0  0
  6  8  2  0  0  0  0
  6  9  1  0  0  0  0
  7  1  1  0  0  0  0
  7  2  2  0  0  0  0
  8  7  1  0  0  0  0
  9  3  2  0  0  0  0
 10  5  1  0  0  0  0
 11  9  1  0  0  0  0
 12 13  2  0  0  0  0
 12 14  1  0  0  0  0
 14 11  1  0  0  0  0
 15 19  1  0  0  0  0
 16 19  2  0  0  0  0
 17 18  2  0  0  0  0
 17 16  1  0  0  0  0
 18 15  1  0  0  0  0
 19 12  1  0  0  0  0
 20  8  1  0  0  0  0
 22 21  1  6  0  0  0
 22 20  1  0  0  0  0
 23 22  1  0  0  0  0
 24 23  1  0  0  0  0
 25 24  1  0  0  0  0
 27 36  1  0  0  0  0
 27 25  1  1  0  0  0
 28 30  1  1  0  0  0
 31 32  2  0  0  0  0
 32 28  1  0  0  0  0
 32 34  1  0  0  0  0
 33 28  1  0  0  0  0
 33 27  1  0  0  0  0
 34 29  1  0  0  0  0
 34 36  1  1  0  0  0
 35 26  2  0  0  0  0
 35 29  1  0  0  0  0
 37 31  1  0  0  0  0
 37 35  1  0  0  0  0
 39 31  1  0  0  0  0
 39 38  1  0  0  0  0
 40 41  1  0  0  0  0
 40  1  1  0  0  0  0
 42 44  1  0  0  0  0
 42 41  1  0  0  0  0
 44 43  1  6  0  0  0
 45 44  1  0  0  0  0
 46 48  1  0  0  0  0
 47 46  2  0  0  0  0
 48 45  1  0  0  0  0
 49 46  1  0  0  0  0
M  END
>  <MODEL>
5

>  <REMARK>
 VINA RESULT:      -7.8      2.497      8.035
  Name = 
  16 active torsions:
  status: ('A' for Active; 'I' for Inactive)
    1  A    between atoms: C_1  and  O_14
    2  A    between atoms: C_3  and  C_43
    3  A    between atoms: C_4  and  C_19
    4  A    between atoms: C_4  and  C_45
    5  A    between atoms: C_11  and  C_29
    6  A    between atoms: O_14  and  C_19
    7  A    between atoms: C_17  and  O_27
    8  A    between atoms: C_21  and  C_32
    9  A    between atoms: C_21  and  C_40
   10  A    between atoms: C_29  and  C_32
   11  A    between atoms: C_30  and  C_39
   12  A    between atoms: C_30  and  C_40
   13  A    between atoms: C_35  and  N_41
   14  A    between atoms: C_35  and  C_45
   15  A    between atoms: C_36  and  N_42
   16  A    between atoms: C_36  and  C_47
                            x       y       z     vdW  Elec       q    Type
                         _______ _______ _______ _____ _____    ______ ____

>  <TORSDO>
F 16

$$$$
=
 OpenBabel10232410533D

 49 53  0  0  1  0  0  0  0  0999 V2000
  185.5960  176.7750  136.7330 C   0  0  0  0  0  0  0  0  0  0  0  0
  183.4690  177.4630  135.6610 C   0  0  0  0  0  0  0  0  0  0  0  0
  182.1900  178.0180  135.6890 C   0  0  0  0  0  3  0  0  0  0  0  0
  185.9430  176.1460  135.6470 N   0  0  0  0  0  0  0  0  0  0  0  0
  185.0070  175.8820  134.5490 C   0  0  0  0  0  2  0  0  0  0  0  0
  182.3520  178.2890  138.0840 C   0  0  0  0  0  3  0  0  0  0  0  0
  184.2240  177.3440  136.8460 C   0  0  0  0  0  0  0  0  0  0  0  0
  183.6470  177.7570  138.0720 C   0  0  0  0  0  0  0  0  0  0  0  0
  181.6210  178.4190  136.9040 C   0  0  0  0  0  0  0  0  0  0  0  0
  184.0680  177.0700  134.3460 C   0  0  0  0  0  2  0  0  0  0  0  0
  180.2680  179.0570  136.9680 C   0  0  0  0  0  2  0  0  0  0  0  0
  180.6850  181.5430  137.2320 C   0  0  0  0  0  0  0  0  0  0  0  0
  181.0070  181.3860  138.4430 O   0  0  0  0  0  0  0  0  0  0  0  0
  180.2860  180.4160  136.4400 N   0  0  0  0  0  2  0  0  0  0  0  0
  180.6930  183.1170  135.3540 O   0  0  0  0  0  0  0  0  0  0  0  0
  180.7460  184.0720  137.3480 C   0  0  0  0  0  3  0  0  0  0  0  0
  180.7500  185.0590  136.3800 C   0  0  0  0  0  3  0  0  0  0  0  0
  180.7190  184.4120  135.1550 C   0  0  0  0  0  3  0  0  0  0  0  0
  180.7070  182.8850  136.6440 C   0  0  0  0  0  0  0  0  0  0  0  0
  184.3490  177.6010  139.3840 C   0  0  0  0  0  2  0  0  0  0  0  0
  184.7990  179.8760  139.8980 O   0  0  0  0  0  1  0  0  0  0  0  0
  184.0510  178.7720  140.3090 C   0  0  2  0  0  3  0  0  0  0  0  0
  184.4120  178.4230  141.7450 C   0  0  0  0  0  2  0  0  0  0  0  0
  185.7680  179.0010  142.1140 C   0  0  0  0  0  2  0  0  0  0  0  0
  186.8920  178.0630  141.6990 C   0  0  0  0  0  2  0  0  0  0  0  0
  187.8600  178.2160  148.8830 O   0  0  0  0  0  0  0  0  0  0  0  0
  187.4640  177.3690  142.9230 C   0  0  1  0  0  3  0  0  0  0  0  0
  189.8920  177.4320  143.8580 C   0  0  1  0  0  3  0  0  0  0  0  0
  187.4960  178.1150  146.6050 O   0  0  0  0  0  0  0  0  0  0  0  0
  190.2540  178.7690  143.6950 O   0  0  0  0  0  1  0  0  0  0  0  0
  189.9930  176.9010  146.3210 C   0  0  0  0  0  0  0  0  0  0  0  0
  189.2730  177.2370  145.2220 C   0  0  0  0  0  0  0  0  0  0  0  0
  188.9500  177.0120  142.7180 C   0  0  0  0  0  2  0  0  0  0  0  0
  187.7800  177.4440  145.3770 C   0  0  2  0  0  3  0  0  0  0  0  0
  188.1760  177.7310  147.7630 C   0  0  0  0  0  0  0  0  0  0  0  0
  187.1930  178.1850  144.1840 C   0  0  0  0  0  2  0  0  0  0  0  0
  189.2940  176.7370  147.6520 C   0  0  0  0  0  2  0  0  0  0  0  0
  192.0760  175.9430  147.3220 C   0  0  0  0  0  1  0  0  0  0  0  0
  191.3760  176.6640  146.3120 O   0  0  0  0  0  0  0  0  0  0  0  0
  186.5300  176.9770  137.7560 O   0  0  0  0  0  0  0  0  0  0  0  0
  187.5220  177.9960  137.7110 C   0  0  0  0  0  2  0  0  0  0  0  0
  188.8390  177.4150  137.2260 C   0  0  0  0  0  2  0  0  0  0  0  0
  189.9650  175.3160  137.3290 O   0  0  0  0  0  1  0  0  0  0  0  0
  189.2660  176.2450  138.1000 C   0  0  1  0  0  3  0  0  0  0  0  0
  190.1170  176.6970  139.2850 C   0  0  0  0  0  2  0  0  0  0  0  0
  192.5160  177.2060  139.8590 C   0  0  0  0  0  0  0  0  0  0  0  0
  193.7200  177.2960  139.5040 O   0  0  0  0  0  0  0  0  0  0  0  0
  191.5180  176.8340  138.9070 N   0  0  0  0  0  2  0  0  0  0  0  0
  192.1740  177.4580  141.1820 O   0  0  0  0  0  1  0  0  0  0  0  0
  1  7  1  0  0  0  0
  1 40  1  0  0  0  0
  2  3  2  0  0  0  0
  2  7  1  0  0  0  0
  3  9  1  0  0  0  0
  4  1  2  0  0  0  0
  5  4  1  0  0  0  0
  7  8  2  0  0  0  0
  8  6  1  0  0  0  0
  8 20  1  0  0  0  0
  9 11  1  0  0  0  0
  9  6  2  0  0  0  0
 10  5  1  0  0  0  0
 10  2  1  0  0  0  0
 12 13  2  0  0  0  0
 14 11  1  0  0  0  0
 14 12  1  0  0  0  0
 15 19  1  0  0  0  0
 17 16  1  0  0  0  0
 18 15  1  0  0  0  0
 18 17  2  0  0  0  0
 19 12  1  0  0  0  0
 19 16  2  0  0  0  0
 20 22  1  0  0  0  0
 22 21  1  6  0  0  0
 22 23  1  0  0  0  0
 23 24  1  0  0  0  0
 25 24  1  0  0  0  0
 27 25  1  6  0  0  0
 27 36  1  0  0  0  0
 28 30  1  6  0  0  0
 28 32  1  0  0  0  0
 29 35  1  0  0  0  0
 31 37  1  0  0  0  0
 32 34  1  0  0  0  0
 32 31  2  0  0  0  0
 33 27  1  0  0  0  0
 33 28  1  0  0  0  0
 34 36  1  6  0  0  0
 34 29  1  0  0  0  0
 35 26  2  0  0  0  0
 37 35  1  0  0  0  0
 39 31  1  0  0  0  0
 39 38  1  0  0  0  0
 41 40  1  0  0  0  0
 42 41  1  0  0  0  0
 42 44  1  0  0  0  0
 44 43  1  6  0  0  0
 44 45  1  0  0  0  0
 46 49  1  0  0  0  0
 47 46  2  0  0  0  0
 48 45  1  0  0  0  0
 48 46  1  0  0  0  0
M  END
>  <MODEL>
6

>  <REMARK>
 VINA RESULT:      -7.8      3.216      7.467
  Name = 
  16 active torsions:
  status: ('A' for Active; 'I' for Inactive)
    1  A    between atoms: C_1  and  O_14
    2  A    between atoms: C_3  and  C_43
    3  A    between atoms: C_4  and  C_19
    4  A    between atoms: C_4  and  C_45
    5  A    between atoms: C_11  and  C_29
    6  A    between atoms: O_14  and  C_19
    7  A    between atoms: C_17  and  O_27
    8  A    between atoms: C_21  and  C_32
    9  A    between atoms: C_21  and  C_40
   10  A    between atoms: C_29  and  C_32
   11  A    between atoms: C_30  and  C_39
   12  A    between atoms: C_30  and  C_40
   13  A    between atoms: C_35  and  N_41
   14  A    between atoms: C_35  and  C_45
   15  A    between atoms: C_36  and  N_42
   16  A    between atoms: C_36  and  C_47
                            x       y       z     vdW  Elec       q    Type
                         _______ _______ _______ _____ _____    ______ ____

>  <TORSDO>
F 16

$$$$
=
 OpenBabel10232410533D

 49 53  0  0  1  0  0  0  0  0999 V2000
  186.9760  175.0930  136.4420 C   0  0  0  0  0  0  0  0  0  0  0  0
  189.2190  174.1460  136.9130 C   0  0  0  0  0  0  0  0  0  0  0  0
  190.5810  174.2640  137.1880 C   0  0  0  0  0  3  0  0  0  0  0  0
  186.5350  173.9060  136.1400 N   0  0  0  0  0  0  0  0  0  0  0  0
  187.4240  172.7560  135.9380 C   0  0  0  0  0  2  0  0  0  0  0  0
  190.4250  176.6640  136.9680 C   0  0  0  0  0  3  0  0  0  0  0  0
  188.4300  175.2950  136.6940 C   0  0  0  0  0  0  0  0  0  0  0  0
  189.0520  176.5680  136.7150 C   0  0  0  0  0  0  0  0  0  0  0  0
  191.1930  175.5230  137.2010 C   0  0  0  0  0  0  0  0  0  0  0  0
  188.5810  172.7910  136.9350 C   0  0  0  0  0  2  0  0  0  0  0  0
  192.6430  175.6920  137.5330 C   0  0  0  0  0  2  0  0  0  0  0  0
  194.6830  174.2150  137.8190 C   0  0  0  0  0  0  0  0  0  0  0  0
  195.1940  175.0350  138.6320 O   0  0  0  0  0  0  0  0  0  0  0  0
  193.4110  174.4940  137.2170 N   0  0  0  0  0  2  0  0  0  0  0  0
  195.6330  172.0180  138.3390 O   0  0  0  0  0  0  0  0  0  0  0  0
  195.9300  172.6700  136.2470 C   0  0  0  0  0  3  0  0  0  0  0  0
  196.5040  171.4230  136.4110 C   0  0  0  0  0  3  0  0  0  0  0  0
  196.2950  171.0620  137.7330 C   0  0  0  0  0  3  0  0  0  0  0  0
  195.4030  172.9840  137.4840 C   0  0  0  0  0  0  0  0  0  0  0  0
  188.3060  177.8320  136.4240 C   0  0  0  0  0  2  0  0  0  0  0  0
  188.9700  179.5950  137.8700 O   0  0  0  0  0  1  0  0  0  0  0  0
  188.0070  178.6000  137.7010 C   0  0  2  0  0  3  0  0  0  0  0  0
  188.0270  177.6670  138.9030 C   0  0  0  0  0  2  0  0  0  0  0  0
  188.8000  178.2900  140.0540 C   0  0  0  0  0  2  0  0  0  0  0  0
  190.0150  177.4490  140.4140 C   0  0  0  0  0  2  0  0  0  0  0  0
  186.8210  178.1890  146.8800 O   0  0  0  0  0  0  0  0  0  0  0  0
  189.8830  176.9330  141.8360 C   0  0  1  0  0  3  0  0  0  0  0  0
  191.3640  177.4530  143.9120 C   0  0  1  0  0  3  0  0  0  0  0  0
  187.7920  177.8930  144.8070 O   0  0  0  0  0  0  0  0  0  0  0  0
  191.6130  178.8190  143.7830 O   0  0  0  0  0  1  0  0  0  0  0  0
  190.1400  177.0950  146.0880 C   0  0  0  0  0  0  0  0  0  0  0  0
  190.1180  177.2400  144.7390 C   0  0  0  0  0  0  0  0  0  0  0  0
  191.2610  176.8150  142.5170 C   0  0  0  0  0  2  0  0  0  0  0  0
  188.7780  177.2060  144.0350 C   0  0  2  0  0  3  0  0  0  0  0  0
  187.7530  177.6980  146.1890 C   0  0  0  0  0  0  0  0  0  0  0  0
  188.8750  177.7670  142.6230 C   0  0  0  0  0  2  0  0  0  0  0  0
  188.8420  176.8970  146.8400 C   0  0  0  0  0  2  0  0  0  0  0  0
  192.0260  175.9140  147.2310 C   0  0  0  0  0  1  0  0  0  0  0  0
  191.3120  177.0900  146.8590 O   0  0  0  0  0  0  0  0  0  0  0  0
  186.0790  176.1560  136.6010 O   0  0  0  0  0  0  0  0  0  0  0  0
  184.7100  175.9720  136.9400 C   0  0  0  0  0  2  0  0  0  0  0  0
  184.0150  177.3190  137.0350 C   0  0  0  0  0  2  0  0  0  0  0  0
  182.4100  175.8350  137.9880 O   0  0  0  0  0  1  0  0  0  0  0  0
  182.6320  177.1710  137.6520 C   0  0  1  0  0  3  0  0  0  0  0  0
  182.4560  178.0610  138.8810 C   0  0  0  0  0  2  0  0  0  0  0  0
  184.5190  179.1210  139.8630 C   0  0  0  0  0  0  0  0  0  0  0  0
  185.5140  179.0500  140.6310 O   0  0  0  0  0  1  0  0  0  0  0  0
  183.6300  178.0090  139.7430 N   0  0  0  0  0  2  0  0  0  0  0  0
  184.2920  180.2900  139.1480 O   0  0  0  0  0  0  0  0  0  0  0  0
  1 40  1  0  0  0  0
  1  7  1  0  0  0  0
  2 10  1  0  0  0  0
  2  3  1  0  0  0  0
  3  9  2  0  0  0  0
  4  1  2  0  0  0  0
  5  4  1  0  0  0  0
  5 10  1  0  0  0  0
  6  9  1  0  0  0  0
  7  8  1  0  0  0  0
  7  2  2  0  0  0  0
  8  6  2  0  0  0  0
  9 11  1  0  0  0  0
 12 13  2  0  0  0  0
 14 11  1  0  0  0  0
 14 12  1  0  0  0  0
 16 17  1  0  0  0  0
 16 19  2  0  0  0  0
 17 18  2  0  0  0  0
 18 15  1  0  0  0  0
 19 12  1  0  0  0  0
 19 15  1  0  0  0  0
 20  8  1  0  0  0  0
 20 22  1  0  0  0  0
 22 21  1  1  0  0  0
 22 23  1  0  0  0  0
 23 24  1  0  0  0  0
 24 25  1  0  0  0  0
 27 25  1  6  0  0  0
 27 33  1  0  0  0  0
 27 36  1  0  0  0  0
 28 30  1  6  0  0  0
 28 32  1  0  0  0  0
 29 35  1  0  0  0  0
 31 37  1  0  0  0  0
 31 39  1  0  0  0  0
 32 31  2  0  0  0  0
 33 28  1  0  0  0  0
 34 36  1  6  0  0  0
 34 32  1  0  0  0  0
 34 29  1  0  0  0  0
 35 37  1  0  0  0  0
 35 26  2  0  0  0  0
 39 38  1  0  0  0  0
 40 41  1  0  0  0  0
 41 42  1  0  0  0  0
 42 44  1  0  0  0  0
 44 43  1  1  0  0  0
 44 45  1  0  0  0  0
 45 48  1  0  0  0  0
 46 47  1  0  0  0  0
 48 46  1  0  0  0  0
 49 46  2  0  0  0  0
M  END
>  <MODEL>
7

>  <REMARK>
 VINA RESULT:      -7.8      2.005      3.391
  Name = 
  16 active torsions:
  status: ('A' for Active; 'I' for Inactive)
    1  A    between atoms: C_1  and  O_14
    2  A    between atoms: C_3  and  C_43
    3  A    between atoms: C_4  and  C_19
    4  A    between atoms: C_4  and  C_45
    5  A    between atoms: C_11  and  C_29
    6  A    between atoms: O_14  and  C_19
    7  A    between atoms: C_17  and  O_27
    8  A    between atoms: C_21  and  C_32
    9  A    between atoms: C_21  and  C_40
   10  A    between atoms: C_29  and  C_32
   11  A    between atoms: C_30  and  C_39
   12  A    between atoms: C_30  and  C_40
   13  A    between atoms: C_35  and  N_41
   14  A    between atoms: C_35  and  C_45
   15  A    between atoms: C_36  and  N_42
   16  A    between atoms: C_36  and  C_47
                            x       y       z     vdW  Elec       q    Type
                         _______ _______ _______ _____ _____    ______ ____

>  <TORSDO>
F 16

$$$$
=
 OpenBabel10232410533D

 49 53  0  0  1  0  0  0  0  0999 V2000
  184.0590  178.6690  141.9550 C   0  0  0  0  0  0  0  0  0  0  0  0
  184.2560  178.8200  144.4220 C   0  0  0  0  0  0  0  0  0  0  0  0
  184.9620  178.6960  145.6190 C   0  0  0  0  0  3  0  0  0  0  0  0
  182.7730  178.8520  142.0440 N   0  0  0  0  0  0  0  0  0  0  0  0
  182.0470  178.7820  143.3170 C   0  0  0  0  0  2  0  0  0  0  0  0
  186.8660  177.8230  144.4150 C   0  0  0  0  0  3  0  0  0  0  0  0
  184.8610  178.4760  143.1960 C   0  0  0  0  0  0  0  0  0  0  0  0
  186.1820  177.9630  143.2020 C   0  0  0  0  0  0  0  0  0  0  0  0
  186.2640  178.1820  145.6210 C   0  0  0  0  0  0  0  0  0  0  0  0
  182.8760  179.4000  144.4420 C   0  0  0  0  0  2  0  0  0  0  0  0
  187.0670  178.0730  146.8800 C   0  0  0  0  0  2  0  0  0  0  0  0
  189.4520  177.5270  147.5420 C   0  0  0  0  0  0  0  0  0  0  0  0
  189.3770  178.2930  148.5430 O   0  0  0  0  0  0  0  0  0  0  0  0
  188.3330  177.3860  146.6560 N   0  0  0  0  0  2  0  0  0  0  0  0
  191.5300  176.4210  148.2200 O   0  0  0  0  0  0  0  0  0  0  0  0
  191.1520  176.4000  146.0410 C   0  0  0  0  0  3  0  0  0  0  0  0
  192.3450  175.7470  146.2940 C   0  0  0  0  0  3  0  0  0  0  0  0
  192.5370  175.7890  147.6660 C   0  0  0  0  0  3  0  0  0  0  0  0
  190.6940  176.7940  147.2820 C   0  0  0  0  0  0  0  0  0  0  0  0
  186.8740  177.5090  141.9550 C   0  0  0  0  0  2  0  0  0  0  0  0
  188.0630  179.3700  141.0830 O   0  0  0  0  0  1  0  0  0  0  0  0
  188.2270  178.1850  141.8000 C   0  0  2  0  0  3  0  0  0  0  0  0
  189.1970  177.2760  141.0600 C   0  0  0  0  0  2  0  0  0  0  0  0
  189.7950  177.9920  139.8600 C   0  0  0  0  0  2  0  0  0  0  0  0
  189.5170  177.2280  138.5740 C   0  0  0  0  0  2  0  0  0  0  0  0
  196.3520  175.0360  137.5450 O   0  0  0  0  0  0  0  0  0  0  0  0
  190.4750  176.0550  138.4540 C   0  0  1  0  0  3  0  0  0  0  0  0
  191.0210  174.5910  136.3730 C   0  0  1  0  0  3  0  0  0  0  0  0
  194.1830  175.7190  137.9480 O   0  0  0  0  0  0  0  0  0  0  0  0
  191.0750  175.5270  135.3390 O   0  0  0  0  0  1  0  0  0  0  0  0
  193.2830  173.4880  136.5320 C   0  0  0  0  0  0  0  0  0  0  0  0
  192.3970  174.4160  136.9710 C   0  0  0  0  0  0  0  0  0  0  0  0
  189.9780  175.0330  137.4120 C   0  0  0  0  0  2  0  0  0  0  0  0
  192.8170  175.3320  138.1020 C   0  0  2  0  0  3  0  0  0  0  0  0
  195.1230  174.7580  137.5680 C   0  0  0  0  0  0  0  0  0  0  0  0
  191.9010  176.5440  138.2090 C   0  0  0  0  0  2  0  0  0  0  0  0
  194.6460  173.3890  137.1820 C   0  0  0  0  0  2  0  0  0  0  0  0
  193.1190  171.1550  135.6450 C   0  0  0  0  0  1  0  0  0  0  0  0
  193.0150  172.5690  135.5060 O   0  0  0  0  0  0  0  0  0  0  0  0
  184.6920  178.7270  140.7080 O   0  0  0  0  0  0  0  0  0  0  0  0
  184.2090  179.5170  139.6280 C   0  0  0  0  0  2  0  0  0  0  0  0
  183.2170  178.7150  138.8040 C   0  0  0  0  0  2  0  0  0  0  0  0
  182.8560  176.3900  139.1940 O   0  0  0  0  0  1  0  0  0  0  0  0
  183.7220  177.2970  138.5820 C   0  0  1  0  0  3  0  0  0  0  0  0
  183.8680  176.9690  137.0970 C   0  0  0  0  0  2  0  0  0  0  0  0
  186.0350  175.7990  136.5660 C   0  0  0  0  0  0  0  0  0  0  0  0
  186.6820  174.7290  136.4220 O   0  0  0  0  0  1  0  0  0  0  0  0
  184.6460  175.7520  136.9000 N   0  0  0  0  0  2  0  0  0  0  0  0
  186.6860  177.0170  136.4110 O   0  0  0  0  0  0  0  0  0  0  0  0
  1  4  2  0  0  0  0
  1  7  1  0  0  0  0
  2 10  1  0  0  0  0
  2  3  1  0  0  0  0
  3  9  2  0  0  0  0
  4  5  1  0  0  0  0
  5 10  1  0  0  0  0
  6  9  1  0  0  0  0
  7  8  1  0  0  0  0
  7  2  2  0  0  0  0
  8  6  2  0  0  0  0
  9 11  1  0  0  0  0
 12 13  2  0  0  0  0
 14 11  1  0  0  0  0
 14 12  1  0  0  0  0
 16 17  1  0  0  0  0
 16 19  2  0  0  0  0
 17 18  2  0  0  0  0
 18 15  1  0  0  0  0
 19 12  1  0  0  0  0
 19 15  1  0  0  0  0
 20  8  1  0  0  0  0
 22 21  1  6  0  0  0
 22 20  1  0  0  0  0
 23 22  1  0  0  0  0
 24 23  1  0  0  0  0
 25 24  1  0  0  0  0
 26 35  2  0  0  0  0
 27 25  1  6  0  0  0
 28 30  1  6  0  0  0
 28 32  1  0  0  0  0
 28 33  1  0  0  0  0
 29 34  1  0  0  0  0
 31 32  2  0  0  0  0
 31 37  1  0  0  0  0
 32 34  1  0  0  0  0
 33 27  1  0  0  0  0
 34 36  1  6  0  0  0
 35 29  1  0  0  0  0
 36 27  1  0  0  0  0
 37 35  1  0  0  0  0
 39 38  1  0  0  0  0
 39 31  1  0  0  0  0
 40  1  1  0  0  0  0
 41 40  1  0  0  0  0
 42 41  1  0  0  0  0
 44 42  1  0  0  0  0
 44 43  1  6  0  0  0
 45 44  1  0  0  0  0
 46 48  1  0  0  0  0
 47 46  1  0  0  0  0
 48 45  1  0  0  0  0
 49 46  2  0  0  0  0
M  END
>  <MODEL>
8

>  <REMARK>
 VINA RESULT:      -7.7      2.295      8.383
  Name = 
  16 active torsions:
  status: ('A' for Active; 'I' for Inactive)
    1  A    between atoms: C_1  and  O_14
    2  A    between atoms: C_3  and  C_43
    3  A    between atoms: C_4  and  C_19
    4  A    between atoms: C_4  and  C_45
    5  A    between atoms: C_11  and  C_29
    6  A    between atoms: O_14  and  C_19
    7  A    between atoms: C_17  and  O_27
    8  A    between atoms: C_21  and  C_32
    9  A    between atoms: C_21  and  C_40
   10  A    between atoms: C_29  and  C_32
   11  A    between atoms: C_30  and  C_39
   12  A    between atoms: C_30  and  C_40
   13  A    between atoms: C_35  and  N_41
   14  A    between atoms: C_35  and  C_45
   15  A    between atoms: C_36  and  N_42
   16  A    between atoms: C_36  and  C_47
                            x       y       z     vdW  Elec       q    Type
                         _______ _______ _______ _____ _____    ______ ____

>  <TORSDO>
F 16

$$$$
=
 OpenBabel10232410533D

 49 53  0  0  1  0  0  0  0  0999 V2000
  186.5280  174.8700  136.2520 C   0  0  0  0  0  0  0  0  0  0  0  0
  188.6360  173.6110  136.5940 C   0  0  0  0  0  0  0  0  0  0  0  0
  189.9880  173.5240  136.9270 C   0  0  0  0  0  3  0  0  0  0  0  0
  185.9850  173.8190  135.7090 N   0  0  0  0  0  0  0  0  0  0  0  0
  186.7620  172.6390  135.3110 C   0  0  0  0  0  2  0  0  0  0  0  0
  190.0880  175.9240  137.1800 C   0  0  0  0  0  3  0  0  0  0  0  0
  187.9810  174.8590  136.5820 C   0  0  0  0  0  0  0  0  0  0  0  0
  188.7260  176.0290  136.8710 C   0  0  0  0  0  0  0  0  0  0  0  0
  190.7230  174.6830  137.2060 C   0  0  0  0  0  0  0  0  0  0  0  0
  187.8650  172.3550  136.3290 C   0  0  0  0  0  2  0  0  0  0  0  0
  192.1640  174.6260  137.6070 C   0  0  0  0  0  2  0  0  0  0  0  0
  194.4320  175.4600  136.8440 C   0  0  0  0  0  0  0  0  0  0  0  0
  194.9780  175.0120  137.8900 O   0  0  0  0  0  0  0  0  0  0  0  0
  193.0190  175.3150  136.6480 N   0  0  0  0  0  2  0  0  0  0  0  0
  194.9040  177.2660  135.2570 O   0  0  0  0  0  0  0  0  0  0  0  0
  196.4720  175.7100  135.3640 C   0  0  0  0  0  3  0  0  0  0  0  0
  196.8560  176.6670  134.4430 C   0  0  0  0  0  3  0  0  0  0  0  0
  195.8440  177.6140  134.4110 C   0  0  0  0  0  3  0  0  0  0  0  0
  195.2490  176.1420  135.8360 C   0  0  0  0  0  0  0  0  0  0  0  0
  188.1280  177.3990  136.8120 C   0  0  0  0  0  2  0  0  0  0  0  0
  186.7590  178.8790  138.0680 O   0  0  0  0  0  1  0  0  0  0  0  0
  187.7300  177.8850  138.1980 C   0  0  2  0  0  3  0  0  0  0  0  0
  188.9370  178.4480  138.9330 C   0  0  0  0  0  2  0  0  0  0  0  0
  189.2120  177.6550  140.2000 C   0  0  0  0  0  2  0  0  0  0  0  0
  188.2460  178.0460  141.3090 C   0  0  0  0  0  2  0  0  0  0  0  0
  187.7270  177.8780  148.5390 O   0  0  0  0  0  0  0  0  0  0  0  0
  188.6260  177.3370  142.5980 C   0  0  1  0  0  3  0  0  0  0  0  0
  190.7970  177.5640  144.0150 C   0  0  1  0  0  3  0  0  0  0  0  0
  187.8410  177.8740  146.2330 O   0  0  0  0  0  0  0  0  0  0  0  0
  191.0500  178.9360  143.9790 O   0  0  0  0  0  1  0  0  0  0  0  0
  190.4530  176.9070  146.4250 C   0  0  0  0  0  0  0  0  0  0  0  0
  189.9390  177.2380  145.2140 C   0  0  0  0  0  0  0  0  0  0  0  0
  190.1500  177.1270  142.6910 C   0  0  0  0  0  2  0  0  0  0  0  0
  188.4330  177.3010  145.0660 C   0  0  2  0  0  3  0  0  0  0  0  0
  188.3090  177.4880  147.4910 C   0  0  0  0  0  0  0  0  0  0  0  0
  188.0260  178.0530  143.8060 C   0  0  0  0  0  2  0  0  0  0  0  0
  189.5190  176.6060  147.5760 C   0  0  0  0  0  2  0  0  0  0  0  0
  192.3950  175.8560  147.5990 C   0  0  0  0  0  1  0  0  0  0  0  0
  191.8250  176.7960  146.6920 O   0  0  0  0  0  0  0  0  0  0  0  0
  185.7360  175.9740  136.5910 O   0  0  0  0  0  0  0  0  0  0  0  0
  184.3500  175.8710  136.8930 C   0  0  0  0  0  2  0  0  0  0  0  0
  183.8390  177.1950  137.4330 C   0  0  0  0  0  2  0  0  0  0  0  0
  182.6360  175.7220  138.8710 O   0  0  0  0  0  1  0  0  0  0  0  0
  182.5950  176.9870  138.2850 C   0  0  1  0  0  3  0  0  0  0  0  0
  182.4510  178.0640  139.3590 C   0  0  0  0  0  2  0  0  0  0  0  0
  184.1990  178.4230  141.1370 C   0  0  0  0  0  0  0  0  0  0  0  0
  184.7370  178.0650  142.2170 O   0  0  0  0  0  1  0  0  0  0  0  0
  183.1140  177.6670  140.5960 N   0  0  0  0  0  2  0  0  0  0  0  0
  184.6630  179.5620  140.4890 O   0  0  0  0  0  0  0  0  0  0  0  0
  1  7  1  0  0  0  0
  1 40  1  0  0  0  0
  2  3  1  0  0  0  0
  3  9  2  0  0  0  0
  4  1  2  0  0  0  0
  5  4  1  0  0  0  0
  5 10  1  0  0  0  0
  6  9  1  0  0  0  0
  7  2  2  0  0  0  0
  7  8  1  0  0  0  0
  8  6  2  0  0  0  0
  9 11  1  0  0  0  0
 10  2  1  0  0  0  0
 12 13  2  0  0  0  0
 14 12  1  0  0  0  0
 14 11  1  0  0  0  0
 15 19  1  0  0  0  0
 16 19  2  0  0  0  0
 17 16  1  0  0  0  0
 18 17  2  0  0  0  0
 18 15  1  0  0  0  0
 19 12  1  0  0  0  0
 20  8  1  0  0  0  0
 20 22  1  0  0  0  0
 22 21  1  6  0  0  0
 22 23  1  0  0  0  0
 23 24  1  0  0  0  0
 24 25  1  0  0  0  0
 27 25  1  6  0  0  0
 27 33  1  0  0  0  0
 27 36  1  0  0  0  0
 28 30  1  6  0  0  0
 28 32  1  0  0  0  0
 29 35  1  0  0  0  0
 31 39  1  0  0  0  0
 31 37  1  0  0  0  0
 32 31  2  0  0  0  0
 33 28  1  0  0  0  0
 34 36  1  6  0  0  0
 34 32  1  0  0  0  0
 34 29  1  0  0  0  0
 35 37  1  0  0  0  0
 35 26  2  0  0  0  0
 39 38  1  0  0  0  0
 40 41  1  0  0  0  0
 41 42  1  0  0  0  0
 42 44  1  0  0  0  0
 44 43  1  1  0  0  0
 44 45  1  0  0  0  0
 45 48  1  0  0  0  0
 46 47  1  0  0  0  0
 48 46  1  0  0  0  0
 49 46  2  0  0  0  0
M  END
>  <MODEL>
9

>  <REMARK>
 VINA RESULT:      -7.7      1.946      3.004
  Name = 
  16 active torsions:
  status: ('A' for Active; 'I' for Inactive)
    1  A    between atoms: C_1  and  O_14
    2  A    between atoms: C_3  and  C_43
    3  A    between atoms: C_4  and  C_19
    4  A    between atoms: C_4  and  C_45
    5  A    between atoms: C_11  and  C_29
    6  A    between atoms: O_14  and  C_19
    7  A    between atoms: C_17  and  O_27
    8  A    between atoms: C_21  and  C_32
    9  A    between atoms: C_21  and  C_40
   10  A    between atoms: C_29  and  C_32
   11  A    between atoms: C_30  and  C_39
   12  A    between atoms: C_30  and  C_40
   13  A    between atoms: C_35  and  N_41
   14  A    between atoms: C_35  and  C_45
   15  A    between atoms: C_36  and  N_42
   16  A    between atoms: C_36  and  C_47
                            x       y       z     vdW  Elec       q    Type
                         _______ _______ _______ _____ _____    ______ ____

>  <TORSDO>
F 16

$$$$
