=
 OpenBabel10232410023D

 26 29  0  0  1  0  0  0  0  0999 V2000
  189.9170  176.7120  138.2070 C   0  0  1  0  0  0  0  0  0  0  0  0
  190.9190  175.0350  136.7580 C   0  0  0  0  0  0  0  0  0  0  0  0
  192.6140  173.3930  136.6970 O   0  0  0  0  0  1  0  0  0  0  0  0
  190.1550  177.2020  139.5910 C   0  0  1  0  0  3  0  0  0  0  0  0
  189.6240  173.2030  137.5240 O   0  0  0  0  0  1  0  0  0  0  0  0
  189.6060  174.3030  136.6650 C   0  0  1  0  0  3  0  0  0  0  0  0
  190.0660  178.0820  138.4850 O   0  0  0  0  0  0  0  0  0  0  0  0
  192.2200  174.6210  136.1640 C   0  0  2  0  0  3  0  0  0  0  0  0
  188.4010  175.1840  136.9850 C   0  0  0  0  0  0  0  0  0  0  0  0
  193.1250  175.7020  136.6800 C   0  0  0  0  0  3  0  0  0  0  0  0
  192.4570  176.5630  137.4430 C   0  0  0  0  0  3  0  0  0  0  0  0
  191.0750  176.1190  137.4830 C   0  0  0  0  0  0  0  0  0  0  0  0
  188.5490  176.3510  137.6710 C   0  0  0  0  0  0  0  0  0  0  0  0
  186.6260  174.8350  135.2860 O   0  0  0  0  0  0  0  0  0  0  0  0
  186.3720  173.9940  137.3940 O   0  0  0  0  0  1  0  0  0  0  0  0
  187.0770  174.6570  136.5880 C   0  0  0  0  0  0  0  0  0  0  0  0
  187.0750  178.1560  136.8590 C   0  0  0  0  0  1  0  0  0  0  0  0
  187.4920  177.2490  137.8700 O   0  0  0  0  0  0  0  0  0  0  0  0
  188.8930  177.2980  140.4430 C   0  0  2  0  0  3  0  0  0  0  0  0
  188.2640  178.6720  140.2930 C   0  0  0  0  0  1  0  0  0  0  0  0
  189.1830  177.0000  141.8830 C   0  0  0  0  0  0  0  0  0  0  0  0
  189.7870  176.4590  144.5650 C   0  0  0  0  0  3  0  0  0  0  0  0
  188.5080  176.8990  144.2130 C   0  0  0  0  0  3  0  0  0  0  0  0
  190.4620  176.5590  142.2410 C   0  0  0  0  0  3  0  0  0  0  0  0
  188.2050  177.1690  142.8750 C   0  0  0  0  0  3  0  0  0  0  0  0
  190.7640  176.2880  143.5800 C   0  0  0  0  0  3  0  0  0  0  0  0
  1 12  1  6  0  0  0
  1  7  1  0  0  0  0
  1  4  1  0  0  0  0
  2 12  2  0  0  0  0
  4 19  1  1  0  0  0
  6  2  1  0  0  0  0
  6  9  1  0  0  0  0
  6  5  1  1  0  0  0
  7  4  1  0  0  0  0
  8 10  1  0  0  0  0
  8  3  1  1  0  0  0
  8  2  1  0  0  0  0
  9 13  2  0  0  0  0
 10 11  2  0  0  0  0
 11 12  1  0  0  0  0
 13 18  1  0  0  0  0
 13  1  1  0  0  0  0
 14 16  2  0  0  0  0
 16  9  1  0  0  0  0
 16 15  1  0  0  0  0
 17 18  1  0  0  0  0
 19 20  1  1  0  0  0
 19 21  1  0  0  0  0
 21 24  2  0  0  0  0
 21 25  1  0  0  0  0
 23 22  1  0  0  0  0
 24 26  1  0  0  0  0
 25 23  2  0  0  0  0
 26 22  2  0  0  0  0
M  END
>  <MODEL>
1

>  <REMARK>
 VINA RESULT:      -6.0      0.000      0.000
  Name = 
  4 active torsions:
  status: ('A' for Active; 'I' for Inactive)
    1  A    between atoms: C_3  and  C_7
    2  A    between atoms: C_6  and  C_7
    3  A    between atoms: O_8  and  C_25
    4  A    between atoms: C_18  and  C_26
                            x       y       z     vdW  Elec       q    Type
                         _______ _______ _______ _____ _____    ______ ____

>  <TORSDO>
F 4

$$$$
=
 OpenBabel10232410023D

 26 29  0  0  1  0  0  0  0  0999 V2000
  184.7220  178.3250  139.5130 C   0  0  1  0  0  0  0  0  0  0  0  0
  184.8770  177.1210  137.4060 C   0  0  0  0  0  0  0  0  0  0  0  0
  186.3360  175.7760  136.1270 O   0  0  0  0  0  1  0  0  0  0  0  0
  185.6240  178.5640  140.6720 C   0  0  1  0  0  3  0  0  0  0  0  0
  184.1950  175.0110  138.2470 O   0  0  0  0  0  1  0  0  0  0  0  0
  183.7160  176.2440  137.7990 C   0  0  1  0  0  3  0  0  0  0  0  0
  184.9630  179.6210  140.0010 O   0  0  0  0  0  0  0  0  0  0  0  0
  185.6990  177.0170  136.1690 C   0  0  2  0  0  3  0  0  0  0  0  0
  182.8270  176.8680  138.8710 C   0  0  0  0  0  0  0  0  0  0  0  0
  186.7180  178.0930  136.4140 C   0  0  0  0  0  3  0  0  0  0  0  0
  186.5160  178.6850  137.5880 C   0  0  0  0  0  3  0  0  0  0  0  0
  185.3590  178.0530  138.1950 C   0  0  0  0  0  0  0  0  0  0  0  0
  183.2800  177.8870  139.6530 C   0  0  0  0  0  0  0  0  0  0  0  0
  180.4720  176.5230  138.1690 O   0  0  0  0  0  0  0  0  0  0  0  0
  181.2920  175.4250  139.9960 O   0  0  0  0  0  1  0  0  0  0  0  0
  181.4970  176.2480  139.0650 C   0  0  0  0  0  0  0  0  0  0  0  0
  181.4460  179.4720  140.1180 C   0  0  0  0  0  1  0  0  0  0  0  0
  182.4550  178.5720  140.5540 O   0  0  0  0  0  0  0  0  0  0  0  0
  184.9730  178.3130  142.0290 C   0  0  2  0  0  3  0  0  0  0  0  0
  184.2320  179.5560  142.4910 C   0  0  0  0  0  1  0  0  0  0  0  0
  185.9860  177.8880  143.0480 C   0  0  0  0  0  0  0  0  0  0  0  0
  187.9270  177.1110  144.9150 C   0  0  0  0  0  3  0  0  0  0  0  0
  186.6820  177.5720  145.3530 C   0  0  0  0  0  3  0  0  0  0  0  0
  187.2340  177.4250  142.6150 C   0  0  0  0  0  3  0  0  0  0  0  0
  185.7130  177.9600  144.4240 C   0  0  0  0  0  3  0  0  0  0  0  0
  188.2020  177.0370  143.5470 C   0  0  0  0  0  3  0  0  0  0  0  0
  1 12  1  6  0  0  0
  1 13  1  0  0  0  0
  1  7  1  0  0  0  0
  1  4  1  0  0  0  0
  2  6  1  0  0  0  0
  2 12  2  0  0  0  0
  4 19  1  1  0  0  0
  6  5  1  1  0  0  0
  6  9  1  0  0  0  0
  7  4  1  0  0  0  0
  8  3  1  1  0  0  0
  8 10  1  0  0  0  0
  8  2  1  0  0  0  0
  9 16  1  0  0  0  0
  9 13  2  0  0  0  0
 10 11  2  0  0  0  0
 11 12  1  0  0  0  0
 13 18  1  0  0  0  0
 14 16  2  0  0  0  0
 16 15  1  0  0  0  0
 17 18  1  0  0  0  0
 19 20  1  1  0  0  0
 19 21  1  0  0  0  0
 21 25  1  0  0  0  0
 22 23  1  0  0  0  0
 24 21  2  0  0  0  0
 24 26  1  0  0  0  0
 25 23  2  0  0  0  0
 26 22  2  0  0  0  0
M  END
>  <MODEL>
2

>  <REMARK>
 VINA RESULT:      -5.8      3.922      5.479
  Name = 
  4 active torsions:
  status: ('A' for Active; 'I' for Inactive)
    1  A    between atoms: C_3  and  C_7
    2  A    between atoms: C_6  and  C_7
    3  A    between atoms: O_8  and  C_25
    4  A    between atoms: C_18  and  C_26
                            x       y       z     vdW  Elec       q    Type
                         _______ _______ _______ _____ _____    ______ ____

>  <TORSDO>
F 4

$$$$
=
 OpenBabel10232410023D

 26 29  0  0  1  0  0  0  0  0999 V2000
  188.3590  178.0500  140.1900 C   0  0  1  0  0  0  0  0  0  0  0  0
  187.2860  178.0610  142.3730 C   0  0  0  0  0  0  0  0  0  0  0  0
  185.3060  177.4140  143.4830 O   0  0  0  0  0  1  0  0  0  0  0  0
  187.9890  177.5900  138.8250 C   0  0  1  0  0  3  0  0  0  0  0  0
  187.9750  175.8880  143.0260 O   0  0  0  0  0  1  0  0  0  0  0  0
  188.3960  177.2170  142.9440 C   0  0  1  0  0  3  0  0  0  0  0  0
  188.4740  178.8970  139.0740 O   0  0  0  0  0  0  0  0  0  0  0  0
  186.0560  178.5180  143.0760 C   0  0  2  0  0  3  0  0  0  0  0  0
  189.6880  177.2950  142.1370 C   0  0  0  0  0  0  0  0  0  0  0  0
  185.3390  179.2250  141.9620 C   0  0  0  0  0  3  0  0  0  0  0  0
  186.0330  179.1620  140.8300 C   0  0  0  0  0  3  0  0  0  0  0  0
  187.2490  178.4210  141.1110 C   0  0  0  0  0  0  0  0  0  0  0  0
  189.6850  177.7370  140.8480 C   0  0  0  0  0  0  0  0  0  0  0  0
  191.9020  177.6790  143.1920 O   0  0  0  0  0  1  0  0  0  0  0  0
  191.0430  175.5660  143.0720 O   0  0  0  0  0  0  0  0  0  0  0  0
  190.9100  176.7890  142.7990 C   0  0  0  0  0  0  0  0  0  0  0  0
  191.7540  176.8880  139.8050 C   0  0  0  0  0  1  0  0  0  0  0  0
  190.8620  177.9480  140.1190 O   0  0  0  0  0  0  0  0  0  0  0  0
  189.0640  176.7510  138.1390 C   0  0  2  0  0  3  0  0  0  0  0  0
  189.7490  177.5650  137.0550 C   0  0  0  0  0  1  0  0  0  0  0  0
  188.4910  175.4880  137.5720 C   0  0  0  0  0  0  0  0  0  0  0  0
  187.4640  173.0930  136.5420 C   0  0  0  0  0  3  0  0  0  0  0  0
  186.6030  174.1560  136.8250 C   0  0  0  0  0  3  0  0  0  0  0  0
  189.3490  174.4200  137.2870 C   0  0  0  0  0  3  0  0  0  0  0  0
  187.1130  175.3520  137.3390 C   0  0  0  0  0  3  0  0  0  0  0  0
  188.8370  173.2240  136.7720 C   0  0  0  0  0  3  0  0  0  0  0  0
  1  7  1  6  0  0  0
  1 13  1  0  0  0  0
  1 12  1  0  0  0  0
  2  6  1  0  0  0  0
  2  8  1  0  0  0  0
  4 19  1  6  0  0  0
  4  7  1  0  0  0  0
  4  1  1  0  0  0  0
  6  5  1  6  0  0  0
  8  3  1  6  0  0  0
  9 16  1  0  0  0  0
  9  6  1  0  0  0  0
 10  8  1  0  0  0  0
 11 12  1  0  0  0  0
 11 10  2  0  0  0  0
 12  2  2  0  0  0  0
 13  9  2  0  0  0  0
 16 15  2  0  0  0  0
 16 14  1  0  0  0  0
 17 18  1  0  0  0  0
 18 13  1  0  0  0  0
 19 20  1  6  0  0  0
 21 19  1  0  0  0  0
 22 26  2  0  0  0  0
 22 23  1  0  0  0  0
 23 25  2  0  0  0  0
 24 21  2  0  0  0  0
 25 21  1  0  0  0  0
 26 24  1  0  0  0  0
M  END
>  <MODEL>
3

>  <REMARK>
 VINA RESULT:      -5.7      2.743      6.769
  Name = 
  4 active torsions:
  status: ('A' for Active; 'I' for Inactive)
    1  A    between atoms: C_3  and  C_7
    2  A    between atoms: C_6  and  C_7
    3  A    between atoms: O_8  and  C_25
    4  A    between atoms: C_18  and  C_26
                            x       y       z     vdW  Elec       q    Type
                         _______ _______ _______ _____ _____    ______ ____

>  <TORSDO>
F 4

$$$$
=
 OpenBabel10232410023D

 26 29  0  0  1  0  0  0  0  0999 V2000
  187.0340  178.0720  139.1530 C   0  0  1  0  0  0  0  0  0  0  0  0
  187.3170  178.2890  141.5590 C   0  0  0  0  0  0  0  0  0  0  0  0
  186.3360  177.6750  143.6160 O   0  0  0  0  0  1  0  0  0  0  0  0
  186.0390  177.4320  138.2510 C   0  0  1  0  0  3  0  0  0  0  0  0
  188.4850  176.2500  141.8800 O   0  0  0  0  0  1  0  0  0  0  0  0
  188.6440  177.5800  141.4850 C   0  0  1  0  0  3  0  0  0  0  0  0
  186.4340  178.7830  138.0990 O   0  0  0  0  0  0  0  0  0  0  0  0
  186.6190  178.7600  142.7870 C   0  0  2  0  0  3  0  0  0  0  0  0
  189.2780  177.6300  140.0980 C   0  0  0  0  0  0  0  0  0  0  0  0
  185.3410  179.2890  142.2010 C   0  0  0  0  0  3  0  0  0  0  0  0
  185.3160  179.1270  140.8810 C   0  0  0  0  0  3  0  0  0  0  0  0
  186.5640  178.4910  140.5020 C   0  0  0  0  0  0  0  0  0  0  0  0
  188.5300  177.9120  138.9950 C   0  0  0  0  0  0  0  0  0  0  0  0
  191.5920  177.7250  140.9910 O   0  0  0  0  0  1  0  0  0  0  0  0
  191.1420  176.5120  139.1090 O   0  0  0  0  0  0  0  0  0  0  0  0
  190.7110  177.2730  140.0170 C   0  0  0  0  0  0  0  0  0  0  0  0
  189.1760  179.3770  137.1170 C   0  0  0  0  0  1  0  0  0  0  0  0
  189.0950  178.0970  137.7270 O   0  0  0  0  0  0  0  0  0  0  0  0
  186.6590  176.5760  137.1490 C   0  0  2  0  0  3  0  0  0  0  0  0
  186.4000  177.2040  135.7910 C   0  0  0  0  0  1  0  0  0  0  0  0
  186.1380  175.1710  137.1930 C   0  0  0  0  0  0  0  0  0  0  0  0
  185.1100  172.5650  137.2500 C   0  0  0  0  0  3  0  0  0  0  0  0
  186.4850  172.7690  137.1070 C   0  0  0  0  0  3  0  0  0  0  0  0
  184.7610  174.9600  137.3370 C   0  0  0  0  0  3  0  0  0  0  0  0
  186.9990  174.0690  137.0790 C   0  0  0  0  0  3  0  0  0  0  0  0
  184.2480  173.6600  137.3660 C   0  0  0  0  0  3  0  0  0  0  0  0
  1  7  1  6  0  0  0
  1 12  1  0  0  0  0
  2  8  1  0  0  0  0
  4 19  1  6  0  0  0
  4  1  1  0  0  0  0
  6  2  1  0  0  0  0
  6  5  1  6  0  0  0
  7  4  1  0  0  0  0
  8  3  1  1  0  0  0
  9  6  1  0  0  0  0
 10  8  1  0  0  0  0
 11 10  2  0  0  0  0
 12 11  1  0  0  0  0
 12  2  2  0  0  0  0
 13  1  1  0  0  0  0
 13  9  2  0  0  0  0
 15 16  2  0  0  0  0
 16  9  1  0  0  0  0
 16 14  1  0  0  0  0
 17 18  1  0  0  0  0
 18 13  1  0  0  0  0
 19 20  1  6  0  0  0
 19 21  1  0  0  0  0
 21 24  1  0  0  0  0
 22 26  1  0  0  0  0
 23 22  2  0  0  0  0
 24 26  2  0  0  0  0
 25 23  1  0  0  0  0
 25 21  2  0  0  0  0
M  END
>  <MODEL>
4

>  <REMARK>
 VINA RESULT:      -5.6      2.938      6.654
  Name = 
  4 active torsions:
  status: ('A' for Active; 'I' for Inactive)
    1  A    between atoms: C_3  and  C_7
    2  A    between atoms: C_6  and  C_7
    3  A    between atoms: O_8  and  C_25
    4  A    between atoms: C_18  and  C_26
                            x       y       z     vdW  Elec       q    Type
                         _______ _______ _______ _____ _____    ______ ____

>  <TORSDO>
F 4

$$$$
=
 OpenBabel10232410023D

 26 29  0  0  1  0  0  0  0  0999 V2000
  185.1840  178.1740  138.3270 C   0  0  1  0  0  0  0  0  0  0  0  0
  186.6960  176.9580  136.8600 C   0  0  0  0  0  0  0  0  0  0  0  0
  188.8860  176.0860  136.7450 O   0  0  0  0  0  1  0  0  0  0  0  0
  185.2690  178.7660  139.6890 C   0  0  1  0  0  3  0  0  0  0  0  0
  186.2310  174.7980  137.7210 O   0  0  0  0  0  1  0  0  0  0  0  0
  185.7600  175.7770  136.8440 C   0  0  1  0  0  3  0  0  0  0  0  0
  184.8070  179.5060  138.5730 O   0  0  0  0  0  0  0  0  0  0  0  0
  188.0320  177.0520  136.2100 C   0  0  2  0  0  3  0  0  0  0  0  0
  184.3240  176.1420  137.2070 C   0  0  0  0  0  0  0  0  0  0  0  0
  188.4730  178.4140  136.6630 C   0  0  0  0  0  3  0  0  0  0  0  0
  187.5560  178.9800  137.4430 C   0  0  0  0  0  3  0  0  0  0  0  0
  186.4520  178.0440  137.5570 C   0  0  0  0  0  0  0  0  0  0  0  0
  184.0390  177.3000  137.8650 C   0  0  0  0  0  0  0  0  0  0  0  0
  182.7470  175.0890  135.6060 O   0  0  0  0  0  0  0  0  0  0  0  0
  182.9280  174.2770  137.7330 O   0  0  0  0  0  1  0  0  0  0  0  0
  183.2880  175.1360  136.8850 C   0  0  0  0  0  0  0  0  0  0  0  0
  181.9190  178.2790  137.0670 C   0  0  0  0  0  1  0  0  0  0  0  0
  182.7280  177.7320  138.0990 O   0  0  0  0  0  0  0  0  0  0  0  0
  184.1000  178.4020  140.6000 C   0  0  2  0  0  3  0  0  0  0  0  0
  182.9410  179.3550  140.3690 C   0  0  0  0  0  1  0  0  0  0  0  0
  184.5120  178.4040  142.0410 C   0  0  0  0  0  0  0  0  0  0  0  0
  185.3400  178.4220  144.7180 C   0  0  0  0  0  3  0  0  0  0  0  0
  184.0320  178.7880  144.3900 C   0  0  0  0  0  3  0  0  0  0  0  0
  185.8200  178.0370  142.3750 C   0  0  0  0  0  3  0  0  0  0  0  0
  183.6170  178.7800  143.0550 C   0  0  0  0  0  3  0  0  0  0  0  0
  186.2340  178.0460  143.7110 C   0  0  0  0  0  3  0  0  0  0  0  0
  1 12  1  6  0  0  0
  1  7  1  0  0  0  0
  1  4  1  0  0  0  0
  2 12  2  0  0  0  0
  4 19  1  1  0  0  0
  6  2  1  0  0  0  0
  6  9  1  0  0  0  0
  6  5  1  1  0  0  0
  7  4  1  0  0  0  0
  8 10  1  0  0  0  0
  8  3  1  1  0  0  0
  8  2  1  0  0  0  0
  9 13  2  0  0  0  0
 10 11  2  0  0  0  0
 11 12  1  0  0  0  0
 13 18  1  0  0  0  0
 13  1  1  0  0  0  0
 14 16  2  0  0  0  0
 16  9  1  0  0  0  0
 16 15  1  0  0  0  0
 17 18  1  0  0  0  0
 19 20  1  1  0  0  0
 19 21  1  0  0  0  0
 21 24  2  0  0  0  0
 21 25  1  0  0  0  0
 23 22  1  0  0  0  0
 24 26  1  0  0  0  0
 25 23  2  0  0  0  0
 26 22  2  0  0  0  0
M  END
>  <MODEL>
5

>  <REMARK>
 VINA RESULT:      -5.4      3.377      4.753
  Name = 
  4 active torsions:
  status: ('A' for Active; 'I' for Inactive)
    1  A    between atoms: C_3  and  C_7
    2  A    between atoms: C_6  and  C_7
    3  A    between atoms: O_8  and  C_25
    4  A    between atoms: C_18  and  C_26
                            x       y       z     vdW  Elec       q    Type
                         _______ _______ _______ _____ _____    ______ ____

>  <TORSDO>
F 4

$$$$
=
 OpenBabel10232410023D

 26 29  0  0  1  0  0  0  0  0999 V2000
  189.5250  176.2100  135.9560 C   0  0  1  0  0  0  0  0  0  0  0  0
  190.3460  173.9650  135.5040 C   0  0  0  0  0  0  0  0  0  0  0  0
  192.1100  172.4840  136.0200 O   0  0  0  0  0  1  0  0  0  0  0  0
  189.9900  177.3720  136.7600 C   0  0  1  0  0  3  0  0  0  0  0  0
  189.3570  172.9280  137.3940 O   0  0  0  0  0  1  0  0  0  0  0  0
  189.0950  173.3680  136.0950 C   0  0  1  0  0  3  0  0  0  0  0  0
  189.6260  177.4950  135.3970 O   0  0  0  0  0  0  0  0  0  0  0  0
  191.5340  173.2290  134.9900 C   0  0  2  0  0  3  0  0  0  0  0  0
  187.9150  174.3360  136.1110 C   0  0  0  0  0  0  0  0  0  0  0  0
  192.4410  174.3700  134.6320 C   0  0  0  0  0  3  0  0  0  0  0  0
  191.8730  175.5400  134.9110 C   0  0  0  0  0  3  0  0  0  0  0  0
  190.5610  175.2600  135.4630 C   0  0  0  0  0  0  0  0  0  0  0  0
  188.1080  175.6790  135.9940 C   0  0  0  0  0  0  0  0  0  0  0  0
  185.9400  173.0600  135.3170 O   0  0  0  0  0  0  0  0  0  0  0  0
  186.0360  173.7910  137.4790 O   0  0  0  0  0  1  0  0  0  0  0  0
  186.5800  173.7420  136.3440 C   0  0  0  0  0  0  0  0  0  0  0  0
  186.4220  176.8500  134.6250 C   0  0  0  0  0  1  0  0  0  0  0  0
  187.0480  176.5860  135.8720 O   0  0  0  0  0  0  0  0  0  0  0  0
  188.9120  177.9830  137.6500 C   0  0  2  0  0  3  0  0  0  0  0  0
  188.7560  179.4620  137.3410 C   0  0  0  0  0  1  0  0  0  0  0  0
  189.2210  177.7730  139.1010 C   0  0  0  0  0  0  0  0  0  0  0  0
  189.7370  177.3810  141.8280 C   0  0  0  0  0  3  0  0  0  0  0  0
  190.6010  176.8430  140.8700 C   0  0  0  0  0  3  0  0  0  0  0  0
  188.3590  178.3100  140.0650 C   0  0  0  0  0  3  0  0  0  0  0  0
  190.3450  177.0380  139.5100 C   0  0  0  0  0  3  0  0  0  0  0  0
  188.6170  178.1150  141.4260 C   0  0  0  0  0  3  0  0  0  0  0  0
  1  7  1  6  0  0  0
  1 13  1  0  0  0  0
  1  4  1  0  0  0  0
  2  6  1  0  0  0  0
  4 19  1  1  0  0  0
  6  9  1  0  0  0  0
  6  5  1  1  0  0  0
  7  4  1  0  0  0  0
  8  2  1  0  0  0  0
  8  3  1  1  0  0  0
  9 16  1  0  0  0  0
 10 11  2  0  0  0  0
 10  8  1  0  0  0  0
 11 12  1  0  0  0  0
 12  2  2  0  0  0  0
 12  1  1  0  0  0  0
 13  9  2  0  0  0  0
 14 16  2  0  0  0  0
 16 15  1  0  0  0  0
 17 18  1  0  0  0  0
 18 13  1  0  0  0  0
 19 20  1  1  0  0  0
 19 21  1  0  0  0  0
 21 25  2  0  0  0  0
 21 24  1  0  0  0  0
 23 22  2  0  0  0  0
 24 26  2  0  0  0  0
 25 23  1  0  0  0  0
 26 22  1  0  0  0  0
M  END
>  <MODEL>
6

>  <REMARK>
 VINA RESULT:      -5.3      1.755      2.524
  Name = 
  4 active torsions:
  status: ('A' for Active; 'I' for Inactive)
    1  A    between atoms: C_3  and  C_7
    2  A    between atoms: C_6  and  C_7
    3  A    between atoms: O_8  and  C_25
    4  A    between atoms: C_18  and  C_26
                            x       y       z     vdW  Elec       q    Type
                         _______ _______ _______ _____ _____    ______ ____

>  <TORSDO>
F 4

$$$$
=
 OpenBabel10232410023D

 26 29  0  0  1  0  0  0  0  0999 V2000
  185.9440  178.7050  141.7500 C   0  0  1  0  0  0  0  0  0  0  0  0
  186.7340  178.0530  143.9560 C   0  0  0  0  0  0  0  0  0  0  0  0
  186.0720  176.9120  145.9130 O   0  0  0  0  0  1  0  0  0  0  0  0
  184.6810  178.5430  140.9800 C   0  0  1  0  0  3  0  0  0  0  0  0
  187.4970  175.8930  143.3450 O   0  0  0  0  0  1  0  0  0  0  0  0
  187.8460  177.2450  143.3400 C   0  0  1  0  0  3  0  0  0  0  0  0
  185.3080  179.8030  141.1450 O   0  0  0  0  0  0  0  0  0  0  0  0
  186.4040  178.1680  145.4040 C   0  0  2  0  0  3  0  0  0  0  0  0
  188.1900  177.6790  141.9190 C   0  0  0  0  0  0  0  0  0  0  0  0
  185.1730  179.0250  145.3470 C   0  0  0  0  0  3  0  0  0  0  0  0
  184.8550  179.3260  144.0910 C   0  0  0  0  0  3  0  0  0  0  0  0
  185.8460  178.6990  143.2350 C   0  0  0  0  0  0  0  0  0  0  0  0
  187.3150  178.4130  141.1780 C   0  0  0  0  0  0  0  0  0  0  0  0
  190.6610  177.8190  141.7250 O   0  0  0  0  0  1  0  0  0  0  0  0
  189.5210  176.1620  140.6420 O   0  0  0  0  0  0  0  0  0  0  0  0
  189.4750  177.1870  141.3730 C   0  0  0  0  0  0  0  0  0  0  0  0
  188.0260  178.1140  138.8340 C   0  0  0  0  0  1  0  0  0  0  0  0
  187.6450  178.9420  139.9240 O   0  0  0  0  0  0  0  0  0  0  0  0
  184.8820  178.0390  139.5540 C   0  0  2  0  0  3  0  0  0  0  0  0
  184.8530  179.2020  138.5790 C   0  0  0  0  0  1  0  0  0  0  0  0
  183.8510  177.0130  139.1890 C   0  0  0  0  0  0  0  0  0  0  0  0
  181.8800  175.1340  138.5320 C   0  0  0  0  0  3  0  0  0  0  0  0
  183.0340  175.2360  137.7500 C   0  0  0  0  0  3  0  0  0  0  0  0
  182.6940  176.9060  139.9680 C   0  0  0  0  0  3  0  0  0  0  0  0
  184.0190  176.1730  138.0770 C   0  0  0  0  0  3  0  0  0  0  0  0
  181.7100  175.9680  139.6400 C   0  0  0  0  0  3  0  0  0  0  0  0
  1  7  1  6  0  0  0
  1 12  1  0  0  0  0
  2  8  1  0  0  0  0
  4 19  1  6  0  0  0
  4  7  1  0  0  0  0
  4  1  1  0  0  0  0
  6  5  1  6  0  0  0
  6  2  1  0  0  0  0
  8  3  1  6  0  0  0
  9  6  1  0  0  0  0
 10  8  1  0  0  0  0
 11 10  2  0  0  0  0
 12  2  2  0  0  0  0
 12 11  1  0  0  0  0
 13  1  1  0  0  0  0
 13  9  2  0  0  0  0
 15 16  2  0  0  0  0
 16 14  1  0  0  0  0
 16  9  1  0  0  0  0
 17 18  1  0  0  0  0
 18 13  1  0  0  0  0
 19 20  1  6  0  0  0
 21 19  1  0  0  0  0
 21 24  1  0  0  0  0
 22 26  1  0  0  0  0
 23 25  1  0  0  0  0
 23 22  2  0  0  0  0
 25 21  2  0  0  0  0
 26 24  2  0  0  0  0
M  END
>  <MODEL>
7

>  <REMARK>
 VINA RESULT:      -5.3      3.920      7.627
  Name = 
  4 active torsions:
  status: ('A' for Active; 'I' for Inactive)
    1  A    between atoms: C_3  and  C_7
    2  A    between atoms: C_6  and  C_7
    3  A    between atoms: O_8  and  C_25
    4  A    between atoms: C_18  and  C_26
                            x       y       z     vdW  Elec       q    Type
                         _______ _______ _______ _____ _____    ______ ____

>  <TORSDO>
F 4

$$$$
=
 OpenBabel10232410023D

 26 29  0  0  1  0  0  0  0  0999 V2000
  193.3220  175.1920  136.0510 C   0  0  1  0  0  0  0  0  0  0  0  0
  195.7410  175.2450  135.7960 C   0  0  0  0  0  0  0  0  0  0  0  0
  197.6170  176.6490  136.0790 O   0  0  0  0  0  1  0  0  0  0  0  0
  192.2770  176.1550  136.4900 C   0  0  1  0  0  3  0  0  0  0  0  0
  196.2630  174.6430  138.0290 O   0  0  0  0  0  1  0  0  0  0  0  0
  195.8890  174.1220  136.7900 C   0  0  1  0  0  3  0  0  0  0  0  0
  192.1800  175.4410  135.2710 O   0  0  0  0  0  0  0  0  0  0  0  0
  196.8360  175.9970  135.1240 C   0  0  2  0  0  3  0  0  0  0  0  0
  194.6230  173.2860  136.9470 C   0  0  0  0  0  0  0  0  0  0  0  0
  196.0470  177.0120  134.3470 C   0  0  0  0  0  3  0  0  0  0  0  0
  194.7420  176.8680  134.5580 C   0  0  0  0  0  3  0  0  0  0  0  0
  194.5740  175.7570  135.4760 C   0  0  0  0  0  0  0  0  0  0  0  0
  193.4110  173.7670  136.5530 C   0  0  0  0  0  0  0  0  0  0  0  0
  194.7060  170.8060  136.8810 O   0  0  0  0  0  0  0  0  0  0  0  0
  195.0340  171.9090  138.8540 O   0  0  0  0  0  1  0  0  0  0  0  0
  194.7770  171.9790  137.6230 C   0  0  0  0  0  0  0  0  0  0  0  0
  191.8100  172.2790  135.4060 C   0  0  0  0  0  1  0  0  0  0  0  0
  192.2500  172.9840  136.5580 O   0  0  0  0  0  0  0  0  0  0  0  0
  191.2970  175.5860  137.5130 C   0  0  2  0  0  3  0  0  0  0  0  0
  189.8820  175.6340  136.9640 C   0  0  0  0  0  1  0  0  0  0  0  0
  191.3860  176.3170  138.8180 C   0  0  0  0  0  0  0  0  0  0  0  0
  191.5050  177.6510  141.2790 C   0  0  0  0  0  3  0  0  0  0  0  0
  192.6710  177.4580  140.5330 C   0  0  0  0  0  3  0  0  0  0  0  0
  190.2220  176.5140  139.5680 C   0  0  0  0  0  3  0  0  0  0  0  0
  192.6140  176.7930  139.3050 C   0  0  0  0  0  3  0  0  0  0  0  0
  190.2810  177.1790  140.7970 C   0  0  0  0  0  3  0  0  0  0  0  0
  1  7  1  6  0  0  0
  1  4  1  0  0  0  0
  1 13  1  0  0  0  0
  2  6  1  0  0  0  0
  4 19  1  1  0  0  0
  6  9  1  0  0  0  0
  6  5  1  1  0  0  0
  7  4  1  0  0  0  0
  8  2  1  0  0  0  0
  8  3  1  1  0  0  0
  9 16  1  0  0  0  0
 10 11  2  0  0  0  0
 10  8  1  0  0  0  0
 11 12  1  0  0  0  0
 12  2  2  0  0  0  0
 12  1  1  0  0  0  0
 13 18  1  0  0  0  0
 13  9  2  0  0  0  0
 14 16  2  0  0  0  0
 16 15  1  0  0  0  0
 17 18  1  0  0  0  0
 19 20  1  6  0  0  0
 19 21  1  0  0  0  0
 21 25  2  0  0  0  0
 21 24  1  0  0  0  0
 23 22  2  0  0  0  0
 24 26  2  0  0  0  0
 25 23  1  0  0  0  0
 26 22  1  0  0  0  0
M  END
>  <MODEL>
8

>  <REMARK>
 VINA RESULT:      -5.2      2.953      5.650
  Name = 
  4 active torsions:
  status: ('A' for Active; 'I' for Inactive)
    1  A    between atoms: C_3  and  C_7
    2  A    between atoms: C_6  and  C_7
    3  A    between atoms: O_8  and  C_25
    4  A    between atoms: C_18  and  C_26
                            x       y       z     vdW  Elec       q    Type
                         _______ _______ _______ _____ _____    ______ ____

>  <TORSDO>
F 4

$$$$
=
 OpenBabel10232410023D

 26 29  0  0  1  0  0  0  0  0999 V2000
  188.1560  175.8630  136.3450 C   0  0  1  0  0  0  0  0  0  0  0  0
  187.5440  173.5390  135.9730 C   0  0  0  0  0  0  0  0  0  0  0  0
  188.0390  171.3420  136.6800 O   0  0  0  0  0  1  0  0  0  0  0  0
  189.1300  176.5820  137.2090 C   0  0  1  0  0  3  0  0  0  0  0  0
  185.9490  173.3940  137.7210 O   0  0  0  0  0  1  0  0  0  0  0  0
  186.1290  173.8220  136.4050 C   0  0  1  0  0  3  0  0  0  0  0  0
  189.0490  176.8110  135.8140 O   0  0  0  0  0  0  0  0  0  0  0  0
  188.1190  172.2180  135.5970 C   0  0  2  0  0  3  0  0  0  0  0  0
  185.7480  175.2950  136.2900 C   0  0  0  0  0  0  0  0  0  0  0  0
  189.5540  172.5900  135.3590 C   0  0  0  0  0  3  0  0  0  0  0  0
  189.7560  173.8860  135.5800 C   0  0  0  0  0  3  0  0  0  0  0  0
  188.4810  174.4590  135.9700 C   0  0  0  0  0  0  0  0  0  0  0  0
  186.7030  176.2630  136.2100 C   0  0  0  0  0  0  0  0  0  0  0  0
  183.7130  175.8790  137.5850 O   0  0  0  0  0  1  0  0  0  0  0  0
  183.6070  175.6950  135.3110 O   0  0  0  0  0  0  0  0  0  0  0  0
  184.3030  175.6080  136.3570 C   0  0  0  0  0  0  0  0  0  0  0  0
  186.3540  178.1510  134.6590 C   0  0  0  0  0  1  0  0  0  0  0  0
  186.3970  177.6080  135.9710 O   0  0  0  0  0  0  0  0  0  0  0  0
  188.5330  177.7620  137.9710 C   0  0  2  0  0  3  0  0  0  0  0  0
  188.9840  179.0700  137.3470 C   0  0  0  0  0  1  0  0  0  0  0  0
  188.8970  177.7130  139.4240 C   0  0  0  0  0  0  0  0  0  0  0  0
  189.6390  177.6130  142.1250 C   0  0  0  0  0  3  0  0  0  0  0  0
  188.5260  178.3620  141.7340 C   0  0  0  0  0  3  0  0  0  0  0  0
  190.0110  176.9640  139.8210 C   0  0  0  0  0  3  0  0  0  0  0  0
  188.1540  178.4120  140.3880 C   0  0  0  0  0  3  0  0  0  0  0  0
  190.3820  176.9140  141.1680 C   0  0  0  0  0  3  0  0  0  0  0  0
  1  7  1  6  0  0  0
  1  4  1  0  0  0  0
  2  6  1  0  0  0  0
  4 19  1  1  0  0  0
  6  5  1  1  0  0  0
  7  4  1  0  0  0  0
  8  2  1  0  0  0  0
  8  3  1  1  0  0  0
  9 16  1  0  0  0  0
  9  6  1  0  0  0  0
 10 11  2  0  0  0  0
 10  8  1  0  0  0  0
 11 12  1  0  0  0  0
 12  2  2  0  0  0  0
 12  1  1  0  0  0  0
 13  9  2  0  0  0  0
 13  1  1  0  0  0  0
 15 16  2  0  0  0  0
 16 14  1  0  0  0  0
 17 18  1  0  0  0  0
 18 13  1  0  0  0  0
 19 20  1  6  0  0  0
 19 21  1  0  0  0  0
 21 24  2  0  0  0  0
 21 25  1  0  0  0  0
 23 22  1  0  0  0  0
 24 26  1  0  0  0  0
 25 23  2  0  0  0  0
 26 22  2  0  0  0  0
M  END
>  <MODEL>
9

>  <REMARK>
 VINA RESULT:      -5.2      2.253      3.319
  Name = 
  4 active torsions:
  status: ('A' for Active; 'I' for Inactive)
    1  A    between atoms: C_3  and  C_7
    2  A    between atoms: C_6  and  C_7
    3  A    between atoms: O_8  and  C_25
    4  A    between atoms: C_18  and  C_26
                            x       y       z     vdW  Elec       q    Type
                         _______ _______ _______ _____ _____    ______ ____

>  <TORSDO>
F 4

$$$$
