=
 OpenBabel10222421523D

 54 62  0  0  1  0  0  0  0  0999 V2000
  182.1910  178.8700  142.2250 C   0  0  0  0  0  3  0  0  0  0  0  0
  182.3180  178.5520  140.8740 C   0  0  0  0  0  0  0  0  0  0  0  0
  183.4430  177.9140  138.9330 C   0  0  0  0  0  0  0  0  0  0  0  0
  182.1490  178.0460  138.4410 C   0  0  0  0  0  0  0  0  0  0  0  0
  183.5380  176.2290  136.3550 C   0  0  0  0  0  0  0  0  0  0  0  0
  181.1240  178.5420  139.6980 S   0  0  0  0  0  0  0  0  0  0  0  0
  184.6790  178.1180  141.1010 C   0  0  0  0  0  3  0  0  0  0  0  0
  183.3410  178.8010  143.0270 C   0  0  0  0  0  3  0  0  0  0  0  0
  184.5610  177.6220  138.0900 N   0  0  0  0  0  0  0  0  0  0  0  0
  185.6770  175.4910  137.3700 C   0  0  0  0  0  1  0  0  0  0  0  0
  181.7490  177.9270  137.0340 C   0  0  0  0  0  0  0  0  0  0  0  0
  183.5340  178.1930  140.3070 C   0  0  0  0  0  0  0  0  0  0  0  0
  182.3730  177.1280  136.1600 C   0  0  0  0  0  3  0  0  0  0  0  0
  184.5810  178.4120  142.4750 C   0  0  0  0  0  0  0  0  0  0  0  0
  184.5390  176.4590  137.2420 C   0  0  0  0  0  0  0  0  0  0  0  0
  185.7980  178.3480  143.3420 C   0  0  1  0  0  3  0  0  0  0  0  0
  186.8410  177.4940  142.7170 C   0  0  1  0  0  3  0  0  0  0  0  0
  186.9030  178.8970  142.6550 O   0  0  0  0  0  0  0  0  0  0  0  0
  187.6060  177.9400  145.9170 C   0  0  2  0  0  3  0  0  0  0  0  0
  188.4850  175.7440  143.3100 O   0  0  0  0  0  0  0  0  0  0  0  0
  188.9990  177.9660  143.9430 C   0  0  1  0  0  3  0  0  0  0  0  0
  187.1940  176.7500  145.0800 C   0  0  0  0  0  2  0  0  0  0  0  0
  190.6210  174.9630  142.8880 O   0  0  0  0  0  0  0  0  0  0  0  0
  188.9700  178.3500  145.4090 C   0  0  0  0  0  2  0  0  0  0  0  0
  187.6820  177.5490  147.3780 C   0  0  0  0  0  1  0  0  0  0  0  0
  190.3080  177.2410  143.6280 C   0  0  0  0  0  2  0  0  0  0  0  0
  189.8510  175.8900  143.2480 C   0  0  0  0  0  0  0  0  0  0  0  0
  187.8620  176.9510  143.7300 C   0  0  1  0  0  0  0  0  0  0  0  0
  184.2920  175.1930  134.3500 O   0  0  0  0  0  0  0  0  0  0  0  0
  183.6080  175.0910  135.4060 C   0  0  0  0  0  0  0  0  0  0  0  0
  182.1150  173.2410  134.6680 O   0  0  0  0  0  0  0  0  0  0  0  0
  182.9290  173.3020  136.8030 O   0  0  0  0  0  1  0  0  0  0  0  0
  182.8820  173.8330  135.6640 C   0  0  0  0  0  0  0  0  0  0  0  0
  180.5460  180.0110  136.6640 O   0  0  0  0  0  1  0  0  0  0  0  0
  180.5990  178.6590  136.6010 N   0  0  0  0  0  2  0  0  0  0  0  0
  185.7560  178.4640  138.1930 C   0  0  1  0  0  3  0  0  0  0  0  0
  186.3840  178.2780  139.4260 O   0  0  0  0  0  1  0  0  0  0  0  0
  187.5070  179.4340  136.7180 C   0  0  0  0  0  2  0  0  0  0  0  0
  186.7290  178.1800  137.0600 C   0  0  1  0  0  3  0  0  0  0  0  0
  188.1420  178.3580  137.5760 C   0  0  1  0  0  3  0  0  0  0  0  0
  189.0730  177.4960  136.7440 C   0  0  0  0  0  2  0  0  0  0  0  0
  191.4700  175.2820  135.9190 C   0  0  1  0  0  3  0  0  0  0  0  0
  193.2620  174.1730  134.8230 C   0  0  0  0  0  1  0  0  0  0  0  0
  189.8840  176.9320  139.0270 C   0  0  0  0  0  2  0  0  0  0  0  0
  192.9320  175.2850  135.6990 N   0  0  0  0  0  0  0  0  0  0  0  0
  193.4200  176.1470  137.9500 C   0  0  0  0  0  2  0  0  0  0  0  0
  189.6840  176.3940  137.5980 C   0  0  2  0  0  3  0  0  0  0  0  0
  193.6410  175.0130  136.9520 C   0  0  0  0  0  2  0  0  0  0  0  0
  191.9930  177.4090  140.4250 C   0  0  0  0  0  1  0  0  0  0  0  0
  191.0840  176.0960  137.1380 C   0  0  0  0  0  0  0  0  0  0  0  0
  191.3230  176.9530  139.2170 N   0  0  0  0  0  0  0  0  0  0  0  0
  191.9530  176.3960  138.0820 C   0  0  0  0  0  0  0  0  0  0  0  0
  190.7500  175.8350  134.6900 C   0  0  0  0  0  2  0  0  0  0  0  0
  189.6770  175.0100  134.3480 O   0  0  0  0  0  1  0  0  0  0  0  0
  1  8  1  0  0  0  0
  2  1  2  0  0  0  0
  3 12  1  0  0  0  0
  4  3  2  0  0  0  0
  4  6  1  0  0  0  0
  5 15  2  0  0  0  0
  6  2  1  0  0  0  0
  7 14  1  0  0  0  0
  9 36  1  0  0  0  0
  9  3  1  0  0  0  0
 11  4  1  0  0  0  0
 12  2  1  0  0  0  0
 12  7  2  0  0  0  0
 13  5  1  0  0  0  0
 13 11  2  0  0  0  0
 14  8  2  0  0  0  0
 15 10  1  0  0  0  0
 15  9  1  0  0  0  0
 16 14  1  6  0  0  0
 17 18  1  6  0  0  0
 17 16  1  0  0  0  0
 17 28  1  0  0  0  0
 18 16  1  0  0  0  0
 19 25  1  1  0  0  0
 20 28  1  0  0  0  0
 21 26  1  1  0  0  0
 21 24  1  0  0  0  0
 22 19  1  0  0  0  0
 23 27  2  0  0  0  0
 24 19  1  0  0  0  0
 27 20  1  0  0  0  0
 27 26  1  0  0  0  0
 28 21  1  0  0  0  0
 28 22  1  1  0  0  0
 29 30  2  0  0  0  0
 30 33  1  0  0  0  0
 30  5  1  0  0  0  0
 31 33  2  0  0  0  0
 33 32  1  0  0  0  0
 35 34  1  0  0  0  0
 35 11  1  0  0  0  0
 36 37  1  1  0  0  0
 38 39  1  0  0  0  0
 38 40  1  0  0  0  0
 39 40  1  0  0  0  0
 39 36  1  1  0  0  0
 40 41  1  6  0  0  0
 42 53  1  6  0  0  0
 42 50  1  0  0  0  0
 43 45  1  0  0  0  0
 44 51  1  0  0  0  0
 45 42  1  0  0  0  0
 45 48  1  0  0  0  0
 46 52  1  0  0  0  0
 47 41  1  6  0  0  0
 47 44  1  0  0  0  0
 48 46  1  0  0  0  0
 50 47  1  0  0  0  0
 50 52  2  0  0  0  0
 51 49  1  0  0  0  0
 52 51  1  0  0  0  0
 54 53  1  0  0  0  0
M  END
>  <MODEL>
1

>  <REMARK>
 VINA RESULT:      -8.3      0.000      0.000
  Name = 
  10 active torsions:
  status: ('A' for Active; 'I' for Inactive)
    1  A    between atoms: C_3  and  C_9
    2  A    between atoms: C_5  and  C_14
    3  A    between atoms: C_5  and  C_52
    4  A    between atoms: C_16  and  C_39
    5  A    between atoms: C_27  and  C_44
    6  A    between atoms: N_29  and  C_39
    7  A    between atoms: C_34  and  C_47
    8  A    between atoms: C_35  and  N_40
    9  A    between atoms: C_37  and  C_44
   10  A    between atoms: C_46  and  C_54
                            x       y       z     vdW  Elec       q    Type
                         _______ _______ _______ _____ _____    ______ ____

>  <TORSDO>
F 10

$$$$
=
 OpenBabel10222421523D

 54 62  0  0  1  0  0  0  0  0999 V2000
  192.0580  172.7170  135.7390 C   0  0  0  0  0  3  0  0  0  0  0  0
  190.9290  173.3860  136.2090 C   0  0  0  0  0  0  0  0  0  0  0  0
  189.7540  175.1210  137.2340 C   0  0  0  0  0  0  0  0  0  0  0  0
  188.7060  174.2720  136.9000 C   0  0  0  0  0  0  0  0  0  0  0  0
  187.3260  177.0170  137.2780 C   0  0  0  0  0  0  0  0  0  0  0  0
  189.3300  172.8870  136.1440 S   0  0  0  0  0  0  0  0  0  0  0  0
  192.2440  175.2490  136.9930 C   0  0  0  0  0  3  0  0  0  0  0  0
  193.3050  173.3400  135.8990 C   0  0  0  0  0  3  0  0  0  0  0  0
  189.5640  176.3210  137.9900 N   0  0  0  0  0  0  0  0  0  0  0  0
  189.1330  178.7140  137.3610 C   0  0  0  0  0  1  0  0  0  0  0  0
  187.2980  174.4580  137.2710 C   0  0  0  0  0  0  0  0  0  0  0  0
  191.0070  174.6230  136.8360 C   0  0  0  0  0  0  0  0  0  0  0  0
  186.7340  175.6630  137.4230 C   0  0  0  0  0  3  0  0  0  0  0  0
  193.4020  174.6090  136.5100 C   0  0  0  0  0  0  0  0  0  0  0  0
  188.6250  177.3140  137.5380 C   0  0  0  0  0  0  0  0  0  0  0  0
  194.7400  175.2570  136.6780 C   0  0  1  0  0  3  0  0  0  0  0  0
  195.7860  174.4900  135.9540 C   0  0  1  0  0  3  0  0  0  0  0  0
  195.2320  175.6670  135.4190 O   0  0  0  0  0  0  0  0  0  0  0  0
  198.9010  174.4270  134.8040 C   0  0  2  0  0  3  0  0  0  0  0  0
  197.2180  175.4800  137.7110 O   0  0  0  0  0  0  0  0  0  0  0  0
  197.9260  173.4240  136.7740 C   0  0  1  0  0  3  0  0  0  0  0  0
  198.0250  175.4830  135.4400 C   0  0  0  0  0  2  0  0  0  0  0  0
  197.9890  175.2000  139.8740 O   0  0  0  0  0  0  0  0  0  0  0  0
  199.1490  173.3930  135.8800 C   0  0  0  0  0  2  0  0  0  0  0  0
  200.2090  175.0390  134.3480 C   0  0  0  0  0  1  0  0  0  0  0  0
  198.3610  173.4600  138.2400 C   0  0  0  0  0  2  0  0  0  0  0  0
  197.8610  174.7700  138.6980 C   0  0  0  0  0  0  0  0  0  0  0  0
  197.2030  174.7530  136.4880 C   0  0  1  0  0  0  0  0  0  0  0  0
  186.4940  178.7500  135.8750 O   0  0  0  0  0  0  0  0  0  0  0  0
  186.3530  178.0850  136.9390 C   0  0  0  0  0  0  0  0  0  0  0  0
  184.0200  177.7070  137.7190 O   0  0  0  0  0  0  0  0  0  0  0  0
  185.3250  179.3180  138.6810 O   0  0  0  0  0  1  0  0  0  0  0  0
  185.2200  178.3980  137.8300 C   0  0  0  0  0  0  0  0  0  0  0  0
  185.5380  172.9630  136.5010 O   0  0  0  0  0  1  0  0  0  0  0  0
  186.4830  173.2920  137.4150 N   0  0  0  0  0  2  0  0  0  0  0  0
  190.4160  176.5580  139.1580 C   0  0  1  0  0  3  0  0  0  0  0  0
  190.8210  177.8930  139.2080 O   0  0  0  0  0  1  0  0  0  0  0  0
  190.6430  176.3410  141.6240 C   0  0  0  0  0  2  0  0  0  0  0  0
  189.7050  176.1750  140.4450 C   0  0  1  0  0  3  0  0  0  0  0  0
  189.6030  177.4020  141.3270 C   0  0  1  0  0  3  0  0  0  0  0  0
  188.4030  177.2420  142.2420 C   0  0  0  0  0  2  0  0  0  0  0  0
  185.8330  178.7240  143.8310 C   0  0  1  0  0  3  0  0  0  0  0  0
  183.6710  179.2460  144.6650 C   0  0  0  0  0  1  0  0  0  0  0  0
  189.5650  177.8860  144.3450 C   0  0  0  0  0  2  0  0  0  0  0  0
  184.8090  178.3580  144.8330 N   0  0  0  0  0  0  0  0  0  0  0  0
  186.4770  177.6960  146.5140 C   0  0  0  0  0  2  0  0  0  0  0  0
  188.4450  178.2720  143.3610 C   0  0  2  0  0  3  0  0  0  0  0  0
  185.3030  178.6160  146.1890 C   0  0  0  0  0  2  0  0  0  0  0  0
  189.5330  177.1160  146.8010 C   0  0  0  0  0  1  0  0  0  0  0  0
  187.1990  178.1810  144.1990 C   0  0  0  0  0  0  0  0  0  0  0  0
  188.8770  177.5590  145.5810 N   0  0  0  0  0  0  0  0  0  0  0  0
  187.4970  177.8100  145.4280 C   0  0  0  0  0  0  0  0  0  0  0  0
  185.4330  178.2030  142.4520 C   0  0  0  0  0  2  0  0  0  0  0  0
  185.8240  179.1070  141.4620 O   0  0  0  0  0  1  0  0  0  0  0  0
  1  8  2  0  0  0  0
  1  2  1  0  0  0  0
  2 12  2  0  0  0  0
  3  9  1  0  0  0  0
  4  3  2  0  0  0  0
  4 11  1  0  0  0  0
  5 13  1  0  0  0  0
  5 15  2  0  0  0  0
  6  2  1  0  0  0  0
  6  4  1  0  0  0  0
  8 14  1  0  0  0  0
  9 36  1  0  0  0  0
 10 15  1  0  0  0  0
 11 35  1  0  0  0  0
 11 13  2  0  0  0  0
 12  7  1  0  0  0  0
 12  3  1  0  0  0  0
 14  7  2  0  0  0  0
 15  9  1  0  0  0  0
 16 14  1  6  0  0  0
 17 18  1  6  0  0  0
 17 28  1  0  0  0  0
 17 16  1  0  0  0  0
 18 16  1  0  0  0  0
 19 25  1  1  0  0  0
 19 22  1  0  0  0  0
 19 24  1  0  0  0  0
 20 27  1  0  0  0  0
 21 24  1  6  0  0  0
 21 26  1  0  0  0  0
 26 27  1  0  0  0  0
 27 23  2  0  0  0  0
 28 22  1  6  0  0  0
 28 21  1  0  0  0  0
 28 20  1  0  0  0  0
 29 30  2  0  0  0  0
 30  5  1  0  0  0  0
 30 33  1  0  0  0  0
 31 33  2  0  0  0  0
 33 32  1  0  0  0  0
 34 35  1  0  0  0  0
 36 37  1  1  0  0  0
 39 36  1  6  0  0  0
 39 40  1  0  0  0  0
 39 38  1  0  0  0  0
 40 38  1  0  0  0  0
 40 41  1  1  0  0  0
 42 53  1  6  0  0  0
 42 50  1  0  0  0  0
 42 45  1  0  0  0  0
 43 45  1  0  0  0  0
 44 51  1  0  0  0  0
 45 48  1  0  0  0  0
 47 41  1  6  0  0  0
 47 50  1  0  0  0  0
 47 44  1  0  0  0  0
 48 46  1  0  0  0  0
 50 52  2  0  0  0  0
 51 49  1  0  0  0  0
 52 51  1  0  0  0  0
 52 46  1  0  0  0  0
 54 53  1  0  0  0  0
M  END
>  <MODEL>
2

>  <REMARK>
 VINA RESULT:      -8.0      3.704      9.558
  Name = 
  10 active torsions:
  status: ('A' for Active; 'I' for Inactive)
    1  A    between atoms: C_3  and  C_9
    2  A    between atoms: C_5  and  C_14
    3  A    between atoms: C_5  and  C_52
    4  A    between atoms: C_16  and  C_39
    5  A    between atoms: C_27  and  C_44
    6  A    between atoms: N_29  and  C_39
    7  A    between atoms: C_34  and  C_47
    8  A    between atoms: C_35  and  N_40
    9  A    between atoms: C_37  and  C_44
   10  A    between atoms: C_46  and  C_54
                            x       y       z     vdW  Elec       q    Type
                         _______ _______ _______ _____ _____    ______ ____

>  <TORSDO>
F 10

$$$$
=
 OpenBabel10222421523D

 54 62  0  0  1  0  0  0  0  0999 V2000
  180.8830  177.5520  140.2050 C   0  0  0  0  0  3  0  0  0  0  0  0
  181.4380  176.9590  139.0730 C   0  0  0  0  0  0  0  0  0  0  0  0
  183.1580  176.2750  137.6520 C   0  0  0  0  0  0  0  0  0  0  0  0
  182.0520  175.8110  136.9490 C   0  0  0  0  0  0  0  0  0  0  0  0
  184.3900  174.1220  135.8250 C   0  0  0  0  0  0  0  0  0  0  0  0
  180.6410  176.2240  137.7940 S   0  0  0  0  0  0  0  0  0  0  0  0
  183.6840  177.4570  139.7960 C   0  0  0  0  0  3  0  0  0  0  0  0
  181.7580  178.1020  141.1540 C   0  0  0  0  0  3  0  0  0  0  0  0
  184.4900  176.1860  137.1390 N   0  0  0  0  0  0  0  0  0  0  0  0
  186.3150  174.4740  137.3470 C   0  0  0  0  0  1  0  0  0  0  0  0
  182.0780  175.1980  135.6150 C   0  0  0  0  0  0  0  0  0  0  0  0
  182.8090  176.9150  138.8530 C   0  0  0  0  0  0  0  0  0  0  0  0
  183.1070  174.4700  135.1630 C   0  0  0  0  0  3  0  0  0  0  0  0
  183.1560  178.0440  140.9620 C   0  0  0  0  0  0  0  0  0  0  0  0
  185.0200  174.9120  136.7310 C   0  0  0  0  0  0  0  0  0  0  0  0
  184.0750  178.6400  141.9810 C   0  0  1  0  0  3  0  0  0  0  0  0
  185.4810  178.2380  141.7160 C   0  0  1  0  0  3  0  0  0  0  0  0
  184.9950  179.5050  141.3460 O   0  0  0  0  0  0  0  0  0  0  0  0
  188.5450  177.3290  142.6170 C   0  0  2  0  0  3  0  0  0  0  0  0
  185.9350  179.3140  143.8950 O   0  0  0  0  0  0  0  0  0  0  0  0
  186.4170  177.0040  143.7130 C   0  0  1  0  0  3  0  0  0  0  0  0
  187.8090  178.6480  142.5350 C   0  0  0  0  0  2  0  0  0  0  0  0
  185.2840  179.3940  146.1140 O   0  0  0  0  0  0  0  0  0  0  0  0
  187.8600  176.5400  143.7100 C   0  0  0  0  0  2  0  0  0  0  0  0
  190.0000  177.5640  142.9680 C   0  0  0  0  0  1  0  0  0  0  0  0
  185.9710  177.2900  145.1480 C   0  0  0  0  0  2  0  0  0  0  0  0
  185.7010  178.7400  145.1240 C   0  0  0  0  0  0  0  0  0  0  0  0
  186.3820  178.3440  142.9570 C   0  0  1  0  0  0  0  0  0  0  0  0
  185.8770  172.9320  134.3990 O   0  0  0  0  0  0  0  0  0  0  0  0
  185.0240  172.8760  135.3280 C   0  0  0  0  0  0  0  0  0  0  0  0
  183.7400  171.4560  136.9180 O   0  0  0  0  0  1  0  0  0  0  0  0
  185.2350  170.5200  135.4640 O   0  0  0  0  0  0  0  0  0  0  0  0
  184.6710  171.5600  135.8920 C   0  0  0  0  0  0  0  0  0  0  0  0
  180.0870  174.2980  134.5420 O   0  0  0  0  0  1  0  0  0  0  0  0
  180.9180  175.3390  134.7910 N   0  0  0  0  0  2  0  0  0  0  0  0
  185.3260  177.3900  137.1430 C   0  0  1  0  0  3  0  0  0  0  0  0
  185.5720  177.8120  138.4510 O   0  0  0  0  0  1  0  0  0  0  0  0
  186.8300  178.2080  135.3410 C   0  0  0  0  0  2  0  0  0  0  0  0
  186.6360  177.1530  136.4110 C   0  0  1  0  0  3  0  0  0  0  0  0
  187.5550  178.3300  136.6660 C   0  0  1  0  0  3  0  0  0  0  0  0
  188.9910  177.8600  136.5310 C   0  0  0  0  0  2  0  0  0  0  0  0
  190.3970  174.8530  135.9750 C   0  0  1  0  0  3  0  0  0  0  0  0
  191.5790  173.0410  134.9940 C   0  0  0  0  0  1  0  0  0  0  0  0
  189.8100  177.3830  138.8300 C   0  0  0  0  0  2  0  0  0  0  0  0
  191.7410  174.3120  135.6810 N   0  0  0  0  0  0  0  0  0  0  0  0
  192.7340  175.2630  137.7200 C   0  0  0  0  0  2  0  0  0  0  0  0
  189.2850  176.7500  137.5290 C   0  0  2  0  0  3  0  0  0  0  0  0
  192.4490  173.9920  136.9240 C   0  0  0  0  0  2  0  0  0  0  0  0
  192.0960  177.2870  140.0110 C   0  0  0  0  0  1  0  0  0  0  0  0
  190.4440  175.9170  137.0540 C   0  0  0  0  0  0  0  0  0  0  0  0
  191.1840  176.9250  138.9380 N   0  0  0  0  0  0  0  0  0  0  0  0
  191.4600  176.0260  137.8850 C   0  0  0  0  0  0  0  0  0  0  0  0
  189.7750  175.4400  134.7090 C   0  0  0  0  0  2  0  0  0  0  0  0
  188.5030  174.9020  134.5030 O   0  0  0  0  0  1  0  0  0  0  0  0
  1  8  1  0  0  0  0
  2  1  2  0  0  0  0
  3 12  1  0  0  0  0
  4  3  2  0  0  0  0
  4  6  1  0  0  0  0
  5 15  2  0  0  0  0
  6  2  1  0  0  0  0
  7 14  1  0  0  0  0
  9 36  1  0  0  0  0
  9  3  1  0  0  0  0
 11  4  1  0  0  0  0
 12  2  1  0  0  0  0
 12  7  2  0  0  0  0
 13 11  2  0  0  0  0
 13  5  1  0  0  0  0
 14  8  2  0  0  0  0
 15  9  1  0  0  0  0
 15 10  1  0  0  0  0
 16 14  1  6  0  0  0
 17 18  1  6  0  0  0
 17 16  1  0  0  0  0
 17 28  1  0  0  0  0
 18 16  1  0  0  0  0
 19 25  1  1  0  0  0
 19 24  1  0  0  0  0
 20 27  1  0  0  0  0
 21 24  1  1  0  0  0
 21 26  1  0  0  0  0
 22 19  1  0  0  0  0
 27 26  1  0  0  0  0
 27 23  2  0  0  0  0
 28 22  1  6  0  0  0
 28 21  1  0  0  0  0
 28 20  1  0  0  0  0
 29 30  2  0  0  0  0
 30  5  1  0  0  0  0
 30 33  1  0  0  0  0
 32 33  2  0  0  0  0
 33 31  1  0  0  0  0
 34 35  1  0  0  0  0
 35 11  1  0  0  0  0
 36 37  1  1  0  0  0
 38 39  1  0  0  0  0
 38 40  1  0  0  0  0
 39 40  1  0  0  0  0
 39 36  1  1  0  0  0
 40 41  1  6  0  0  0
 42 53  1  6  0  0  0
 42 50  1  0  0  0  0
 43 45  1  0  0  0  0
 44 51  1  0  0  0  0
 45 42  1  0  0  0  0
 45 48  1  0  0  0  0
 46 52  1  0  0  0  0
 47 41  1  6  0  0  0
 47 44  1  0  0  0  0
 48 46  1  0  0  0  0
 50 47  1  0  0  0  0
 50 52  2  0  0  0  0
 51 49  1  0  0  0  0
 52 51  1  0  0  0  0
 54 53  1  0  0  0  0
M  END
>  <MODEL>
3

>  <REMARK>
 VINA RESULT:      -7.6      1.990      2.792
  Name = 
  10 active torsions:
  status: ('A' for Active; 'I' for Inactive)
    1  A    between atoms: C_3  and  C_9
    2  A    between atoms: C_5  and  C_14
    3  A    between atoms: C_5  and  C_52
    4  A    between atoms: C_16  and  C_39
    5  A    between atoms: C_27  and  C_44
    6  A    between atoms: N_29  and  C_39
    7  A    between atoms: C_34  and  C_47
    8  A    between atoms: C_35  and  N_40
    9  A    between atoms: C_37  and  C_44
   10  A    between atoms: C_46  and  C_54
                            x       y       z     vdW  Elec       q    Type
                         _______ _______ _______ _____ _____    ______ ____

>  <TORSDO>
F 10

$$$$
=
 OpenBabel10222421523D

 54 62  0  0  1  0  0  0  0  0999 V2000
  189.3380  176.1340  136.1750 C   0  0  0  0  0  3  0  0  0  0  0  0
  189.8920  176.4400  137.4160 C   0  0  0  0  0  0  0  0  0  0  0  0
  189.8680  176.9830  139.6840 C   0  0  0  0  0  0  0  0  0  0  0  0
  191.2370  176.9370  139.4530 C   0  0  0  0  0  0  0  0  0  0  0  0
  191.0060  176.5860  142.5200 C   0  0  0  0  0  0  0  0  0  0  0  0
  191.5140  176.5740  137.8190 S   0  0  0  0  0  0  0  0  0  0  0  0
  187.7200  176.6270  138.4460 C   0  0  0  0  0  3  0  0  0  0  0  0
  187.9400  176.0690  136.0780 C   0  0  0  0  0  3  0  0  0  0  0  0
  189.3110  177.3830  140.9400 N   0  0  0  0  0  0  0  0  0  0  0  0
  188.6170  176.1290  143.0030 C   0  0  0  0  0  1  0  0  0  0  0  0
  192.2840  177.2920  140.4190 C   0  0  0  0  0  0  0  0  0  0  0  0
  189.1110  176.6950  138.5360 C   0  0  0  0  0  0  0  0  0  0  0  0
  192.1500  177.1230  141.7400 C   0  0  0  0  0  3  0  0  0  0  0  0
  187.1290  176.2990  137.2110 C   0  0  0  0  0  0  0  0  0  0  0  0
  189.7060  176.7070  142.1490 C   0  0  0  0  0  0  0  0  0  0  0  0
  185.6390  176.2320  137.0890 C   0  0  1  0  0  3  0  0  0  0  0  0
  185.2150  174.8940  136.6000 C   0  0  1  0  0  3  0  0  0  0  0  0
  185.1340  175.2410  137.9610 O   0  0  0  0  0  0  0  0  0  0  0  0
  182.9380  177.1350  135.6960 C   0  0  2  0  0  3  0  0  0  0  0  0
  183.4890  173.6800  135.3100 O   0  0  0  0  0  0  0  0  0  0  0  0
  182.7350  175.1280  137.0250 C   0  0  1  0  0  3  0  0  0  0  0  0
  183.7120  176.0560  134.9730 C   0  0  0  0  0  2  0  0  0  0  0  0
  181.8570  172.0460  135.4430 O   0  0  0  0  0  0  0  0  0  0  0  0
  182.0200  176.4120  136.6560 C   0  0  0  0  0  2  0  0  0  0  0  0
  182.1310  177.9520  134.7080 C   0  0  0  0  0  1  0  0  0  0  0  0
  181.7620  173.9510  136.9260 C   0  0  0  0  0  2  0  0  0  0  0  0
  182.3420  173.1370  135.8410 C   0  0  0  0  0  0  0  0  0  0  0  0
  183.8190  174.9040  135.9550 C   0  0  1  0  0  0  0  0  0  0  0  0
  191.6940  174.7810  143.9090 O   0  0  0  0  0  0  0  0  0  0  0  0
  191.3730  175.9990  143.8320 C   0  0  0  0  0  0  0  0  0  0  0  0
  191.9660  176.3470  146.2250 O   0  0  0  0  0  1  0  0  0  0  0  0
  190.7740  177.9240  145.0770 O   0  0  0  0  0  0  0  0  0  0  0  0
  191.3610  176.8110  145.0630 C   0  0  0  0  0  0  0  0  0  0  0  0
  194.7120  177.2280  140.2560 O   0  0  0  0  0  1  0  0  0  0  0  0
  193.5270  177.7840  139.9090 N   0  0  0  0  0  2  0  0  0  0  0  0
  188.2640  178.4070  140.9510 C   0  0  1  0  0  3  0  0  0  0  0  0
  187.9050  178.7560  139.6480 O   0  0  0  0  0  1  0  0  0  0  0  0
  186.7950  178.8520  142.9060 C   0  0  0  0  0  2  0  0  0  0  0  0
  187.0430  177.9370  141.7250 C   0  0  1  0  0  3  0  0  0  0  0  0
  185.9740  179.0070  141.6420 C   0  0  1  0  0  3  0  0  0  0  0  0
  184.6170  178.3490  141.8060 C   0  0  0  0  0  2  0  0  0  0  0  0
  182.3950  179.5490  139.5800 C   0  0  1  0  0  3  0  0  0  0  0  0
  181.0190  179.8280  137.6640 C   0  0  0  0  0  1  0  0  0  0  0  0
  182.8840  179.1700  143.3900 C   0  0  0  0  0  2  0  0  0  0  0  0
  181.1640  179.0850  138.9050 N   0  0  0  0  0  0  0  0  0  0  0  0
  179.9850  178.6610  141.0210 C   0  0  0  0  0  2  0  0  0  0  0  0
  183.5360  179.3990  142.0140 C   0  0  2  0  0  3  0  0  0  0  0  0
  179.9820  179.4280  139.7010 C   0  0  0  0  0  2  0  0  0  0  0  0
  180.5130  178.4530  144.0920 C   0  0  0  0  0  1  0  0  0  0  0  0
  182.4030  179.1790  141.0500 C   0  0  0  0  0  0  0  0  0  0  0  0
  181.5150  178.7900  143.0930 N   0  0  0  0  0  0  0  0  0  0  0  0
  181.2990  178.8720  141.7000 C   0  0  0  0  0  0  0  0  0  0  0  0
  183.6270  178.9550  138.9000 C   0  0  0  0  0  2  0  0  0  0  0  0
  184.6100  179.9340  138.7410 O   0  0  0  0  0  1  0  0  0  0  0  0
  1  2  1  0  0  0  0
  2  6  1  0  0  0  0
  2 12  2  0  0  0  0
  3  9  1  0  0  0  0
  4  3  2  0  0  0  0
  4 11  1  0  0  0  0
  5 30  1  0  0  0  0
  6  4  1  0  0  0  0
  7 12  1  0  0  0  0
  8  1  2  0  0  0  0
  8 14  1  0  0  0  0
  9 36  1  0  0  0  0
  9 15  1  0  0  0  0
 11 13  2  0  0  0  0
 12  3  1  0  0  0  0
 13  5  1  0  0  0  0
 14  7  2  0  0  0  0
 15  5  2  0  0  0  0
 15 10  1  0  0  0  0
 16 14  1  1  0  0  0
 16 18  1  0  0  0  0
 17 16  1  0  0  0  0
 17 18  1  1  0  0  0
 19 25  1  6  0  0  0
 19 24  1  0  0  0  0
 20 27  1  0  0  0  0
 20 28  1  0  0  0  0
 21 24  1  6  0  0  0
 22 19  1  0  0  0  0
 23 27  2  0  0  0  0
 26 21  1  0  0  0  0
 27 26  1  0  0  0  0
 28 22  1  6  0  0  0
 28 17  1  0  0  0  0
 28 21  1  0  0  0  0
 30 29  2  0  0  0  0
 30 33  1  0  0  0  0
 33 32  2  0  0  0  0
 33 31  1  0  0  0  0
 35 34  1  0  0  0  0
 35 11  1  0  0  0  0
 36 37  1  6  0  0  0
 39 36  1  6  0  0  0
 39 38  1  0  0  0  0
 40 39  1  0  0  0  0
 40 41  1  1  0  0  0
 40 38  1  0  0  0  0
 42 53  1  6  0  0  0
 42 50  1  0  0  0  0
 43 45  1  0  0  0  0
 45 42  1  0  0  0  0
 45 48  1  0  0  0  0
 46 52  1  0  0  0  0
 47 41  1  6  0  0  0
 47 44  1  0  0  0  0
 48 46  1  0  0  0  0
 50 52  2  0  0  0  0
 50 47  1  0  0  0  0
 51 44  1  0  0  0  0
 51 49  1  0  0  0  0
 52 51  1  0  0  0  0
 54 53  1  0  0  0  0
M  END
>  <MODEL>
4

>  <REMARK>
 VINA RESULT:      -7.1      2.773     10.036
  Name = 
  10 active torsions:
  status: ('A' for Active; 'I' for Inactive)
    1  A    between atoms: C_3  and  C_9
    2  A    between atoms: C_5  and  C_14
    3  A    between atoms: C_5  and  C_52
    4  A    between atoms: C_16  and  C_39
    5  A    between atoms: C_27  and  C_44
    6  A    between atoms: N_29  and  C_39
    7  A    between atoms: C_34  and  C_47
    8  A    between atoms: C_35  and  N_40
    9  A    between atoms: C_37  and  C_44
   10  A    between atoms: C_46  and  C_54
                            x       y       z     vdW  Elec       q    Type
                         _______ _______ _______ _____ _____    ______ ____

>  <TORSDO>
F 10

$$$$
=
 OpenBabel10222421523D

 54 62  0  0  1  0  0  0  0  0999 V2000
  191.3150  172.5380  135.5650 C   0  0  0  0  0  3  0  0  0  0  0  0
  190.3070  173.3200  136.1270 C   0  0  0  0  0  0  0  0  0  0  0  0
  189.4240  175.0770  137.3820 C   0  0  0  0  0  0  0  0  0  0  0  0
  188.2540  174.4680  136.9440 C   0  0  0  0  0  0  0  0  0  0  0  0
  187.3480  177.3320  137.6940 C   0  0  0  0  0  0  0  0  0  0  0  0
  188.6480  173.1110  136.0070 S   0  0  0  0  0  0  0  0  0  0  0  0
  191.9030  174.8140  137.1440 C   0  0  0  0  0  3  0  0  0  0  0  0
  192.6460  172.9160  135.7980 C   0  0  0  0  0  3  0  0  0  0  0  0
  189.4250  176.1800  138.2920 N   0  0  0  0  0  0  0  0  0  0  0  0
  189.4120  178.6740  137.9900 C   0  0  0  0  0  1  0  0  0  0  0  0
  186.8910  174.8390  137.3460 C   0  0  0  0  0  0  0  0  0  0  0  0
  190.5810  174.4320  136.9130 C   0  0  0  0  0  0  0  0  0  0  0  0
  186.5350  176.0900  137.6610 C   0  0  0  0  0  3  0  0  0  0  0  0
  192.9450  174.0580  136.5720 C   0  0  0  0  0  0  0  0  0  0  0  0
  188.6740  177.3690  137.9830 C   0  0  0  0  0  0  0  0  0  0  0  0
  194.3700  174.4430  136.8160 C   0  0  1  0  0  3  0  0  0  0  0  0
  195.2870  173.3650  136.3650 C   0  0  1  0  0  3  0  0  0  0  0  0
  195.0620  174.5140  135.5870 O   0  0  0  0  0  0  0  0  0  0  0  0
  196.7070  174.9360  138.9230 C   0  0  2  0  0  3  0  0  0  0  0  0
  197.5190  172.3480  136.6800 O   0  0  0  0  0  0  0  0  0  0  0  0
  197.4090  174.7120  136.6220 C   0  0  1  0  0  3  0  0  0  0  0  0
  196.5060  173.4850  138.5470 C   0  0  0  0  0  2  0  0  0  0  0  0
  199.5900  172.0380  135.6950 O   0  0  0  0  0  0  0  0  0  0  0  0
  197.6580  175.5020  137.8910 C   0  0  0  0  0  2  0  0  0  0  0  0
  197.3090  175.0380  140.3080 C   0  0  0  0  0  1  0  0  0  0  0  0
  198.7450  174.2780  136.0170 C   0  0  0  0  0  2  0  0  0  0  0  0
  198.6840  172.8070  136.1080 C   0  0  0  0  0  0  0  0  0  0  0  0
  196.6680  173.4290  137.0380 C   0  0  1  0  0  0  0  0  0  0  0  0
  187.0200  179.4930  136.7530 O   0  0  0  0  0  0  0  0  0  0  0  0
  186.5740  178.5840  137.5070 C   0  0  0  0  0  0  0  0  0  0  0  0
  185.2320  179.5070  139.3890 O   0  0  0  0  0  1  0  0  0  0  0  0
  184.2300  178.3110  137.7190 O   0  0  0  0  0  0  0  0  0  0  0  0
  185.2880  178.7980  138.1960 C   0  0  0  0  0  0  0  0  0  0  0  0
  185.1430  173.5570  136.2380 O   0  0  0  0  0  1  0  0  0  0  0  0
  185.8900  173.8180  137.3380 N   0  0  0  0  0  2  0  0  0  0  0  0
  190.2870  176.1130  139.4750 C   0  0  1  0  0  3  0  0  0  0  0  0
  191.3800  176.9710  139.3370 O   0  0  0  0  0  1  0  0  0  0  0  0
  190.3650  176.1640  141.9600 C   0  0  0  0  0  2  0  0  0  0  0  0
  189.5120  176.4480  140.7400 C   0  0  1  0  0  3  0  0  0  0  0  0
  190.2150  177.5850  141.4530 C   0  0  1  0  0  3  0  0  0  0  0  0
  189.1940  178.3400  142.2830 C   0  0  0  0  0  2  0  0  0  0  0  0
  188.7830  177.3380  145.4690 C   0  0  1  0  0  3  0  0  0  0  0  0
  188.8940  177.1810  147.8370 C   0  0  0  0  0  1  0  0  0  0  0  0
  186.8030  177.6630  142.1720 C   0  0  0  0  0  2  0  0  0  0  0  0
  188.2770  177.9060  146.7380 N   0  0  0  0  0  0  0  0  0  0  0  0
  186.0640  178.4220  145.7990 C   0  0  0  0  0  2  0  0  0  0  0  0
  188.1560  177.3840  142.8520 C   0  0  2  0  0  3  0  0  0  0  0  0
  186.8390  177.6620  146.8730 C   0  0  0  0  0  2  0  0  0  0  0  0
  184.5660  178.5760  143.0630 C   0  0  0  0  0  1  0  0  0  0  0  0
  187.8930  177.7020  144.2980 C   0  0  0  0  0  0  0  0  0  0  0  0
  185.9490  178.1590  143.2360 N   0  0  0  0  0  0  0  0  0  0  0  0
  186.6470  178.0990  144.4620 C   0  0  0  0  0  0  0  0  0  0  0  0
  190.2040  177.8280  145.2000 C   0  0  0  0  0  2  0  0  0  0  0  0
  191.0940  176.7520  145.2010 O   0  0  0  0  0  1  0  0  0  0  0  0
  1  8  2  0  0  0  0
  1  2  1  0  0  0  0
  2 12  2  0  0  0  0
  3  9  1  0  0  0  0
  4 11  1  0  0  0  0
  4  3  2  0  0  0  0
  5 15  2  0  0  0  0
  6  2  1  0  0  0  0
  6  4  1  0  0  0  0
  8 14  1  0  0  0  0
  9 36  1  0  0  0  0
 11 13  2  0  0  0  0
 12  7  1  0  0  0  0
 12  3  1  0  0  0  0
 13  5  1  0  0  0  0
 14  7  2  0  0  0  0
 15 10  1  0  0  0  0
 15  9  1  0  0  0  0
 16 14  1  6  0  0  0
 17 18  1  6  0  0  0
 17 16  1  0  0  0  0
 17 28  1  0  0  0  0
 18 16  1  0  0  0  0
 19 25  1  1  0  0  0
 20 28  1  0  0  0  0
 21 26  1  1  0  0  0
 21 28  1  0  0  0  0
 21 24  1  0  0  0  0
 22 19  1  0  0  0  0
 23 27  2  0  0  0  0
 24 19  1  0  0  0  0
 26 27  1  0  0  0  0
 27 20  1  0  0  0  0
 28 22  1  1  0  0  0
 29 30  2  0  0  0  0
 30  5  1  0  0  0  0
 30 33  1  0  0  0  0
 32 33  2  0  0  0  0
 33 31  1  0  0  0  0
 34 35  1  0  0  0  0
 35 11  1  0  0  0  0
 36 37  1  6  0  0  0
 39 36  1  6  0  0  0
 39 40  1  0  0  0  0
 39 38  1  0  0  0  0
 40 38  1  0  0  0  0
 40 41  1  1  0  0  0
 42 53  1  6  0  0  0
 42 45  1  0  0  0  0
 44 47  1  0  0  0  0
 44 51  1  0  0  0  0
 45 48  1  0  0  0  0
 45 43  1  0  0  0  0
 46 48  1  0  0  0  0
 47 41  1  6  0  0  0
 47 50  1  0  0  0  0
 49 51  1  0  0  0  0
 50 52  2  0  0  0  0
 50 42  1  0  0  0  0
 51 52  1  0  0  0  0
 52 46  1  0  0  0  0
 53 54  1  0  0  0  0
M  END
>  <MODEL>
5

>  <REMARK>
 VINA RESULT:      -6.9      3.607      9.235
  Name = 
  10 active torsions:
  status: ('A' for Active; 'I' for Inactive)
    1  A    between atoms: C_3  and  C_9
    2  A    between atoms: C_5  and  C_14
    3  A    between atoms: C_5  and  C_52
    4  A    between atoms: C_16  and  C_39
    5  A    between atoms: C_27  and  C_44
    6  A    between atoms: N_29  and  C_39
    7  A    between atoms: C_34  and  C_47
    8  A    between atoms: C_35  and  N_40
    9  A    between atoms: C_37  and  C_44
   10  A    between atoms: C_46  and  C_54
                            x       y       z     vdW  Elec       q    Type
                         _______ _______ _______ _____ _____    ______ ____

>  <TORSDO>
F 10

$$$$
=
 OpenBabel10222421523D

 54 62  0  0  1  0  0  0  0  0999 V2000
  182.9380  179.2930  139.5400 C   0  0  0  0  0  3  0  0  0  0  0  0
  183.2090  178.4020  138.5040 C   0  0  0  0  0  0  0  0  0  0  0  0
  184.4940  176.8940  137.2730 C   0  0  0  0  0  0  0  0  0  0  0  0
  183.3170  176.8830  136.5330 C   0  0  0  0  0  0  0  0  0  0  0  0
  184.7110  174.2390  135.7250 C   0  0  0  0  0  0  0  0  0  0  0  0
  182.2060  177.9530  137.2380 S   0  0  0  0  0  0  0  0  0  0  0  0
  185.4240  177.9530  139.3430 C   0  0  0  0  0  3  0  0  0  0  0  0
  183.9380  179.5080  140.5000 C   0  0  0  0  0  3  0  0  0  0  0  0
  185.6670  176.1840  136.8650 N   0  0  0  0  0  0  0  0  0  0  0  0
  186.5520  173.8830  137.3470 C   0  0  0  0  0  1  0  0  0  0  0  0
  183.1090  176.1810  135.2610 C   0  0  0  0  0  0  0  0  0  0  0  0
  184.4270  177.7460  138.3880 C   0  0  0  0  0  0  0  0  0  0  0  0
  183.7280  175.0360  134.9460 C   0  0  0  0  0  3  0  0  0  0  0  0
  185.1740  178.8310  140.4150 C   0  0  0  0  0  0  0  0  0  0  0  0
  185.5970  174.7700  136.6040 C   0  0  0  0  0  0  0  0  0  0  0  0
  186.2330  179.0750  141.4440 C   0  0  1  0  0  3  0  0  0  0  0  0
  187.2090  177.9550  141.4660 C   0  0  1  0  0  3  0  0  0  0  0  0
  187.4950  179.1690  140.8170 O   0  0  0  0  0  0  0  0  0  0  0  0
  190.1360  176.8020  142.5280 C   0  0  2  0  0  3  0  0  0  0  0  0
  187.4670  178.7080  143.8070 O   0  0  0  0  0  0  0  0  0  0  0  0
  187.8970  176.4240  143.3550 C   0  0  1  0  0  3  0  0  0  0  0  0
  189.4510  178.1500  142.5580 C   0  0  0  0  0  2  0  0  0  0  0  0
  186.5940  178.5170  145.9420 O   0  0  0  0  0  0  0  0  0  0  0  0
  189.3190  175.9040  143.4300 C   0  0  0  0  0  2  0  0  0  0  0  0
  191.5530  176.9240  143.0490 C   0  0  0  0  0  1  0  0  0  0  0  0
  187.3150  176.5340  144.7650 C   0  0  0  0  0  2  0  0  0  0  0  0
  187.0920  177.9840  144.9160 C   0  0  0  0  0  0  0  0  0  0  0  0
  187.9800  177.8550  142.7920 C   0  0  1  0  0  0  0  0  0  0  0  0
  185.4780  172.3960  134.4310 O   0  0  0  0  0  0  0  0  0  0  0  0
  184.7490  172.7970  135.3800 C   0  0  0  0  0  0  0  0  0  0  0  0
  183.7950  171.9070  137.5000 O   0  0  0  0  0  1  0  0  0  0  0  0
  183.3970  170.8560  135.5090 O   0  0  0  0  0  0  0  0  0  0  0  0
  183.9400  171.8110  136.1210 C   0  0  0  0  0  0  0  0  0  0  0  0
  180.8290  176.4470  134.4520 O   0  0  0  0  0  1  0  0  0  0  0  0
  182.1520  176.7210  134.3460 N   0  0  0  0  0  2  0  0  0  0  0  0
  186.9450  176.9000  136.8300 C   0  0  1  0  0  3  0  0  0  0  0  0
  187.6310  176.7430  138.0350 O   0  0  0  0  0  1  0  0  0  0  0  0
  188.4840  177.6170  135.0140 C   0  0  0  0  0  2  0  0  0  0  0  0
  187.8070  176.4310  135.6690 C   0  0  1  0  0  3  0  0  0  0  0  0
  189.2550  176.7440  135.9820 C   0  0  1  0  0  3  0  0  0  0  0  0
  190.1350  175.7630  135.2280 C   0  0  0  0  0  2  0  0  0  0  0  0
  191.3460  172.6230  135.2200 C   0  0  1  0  0  3  0  0  0  0  0  0
  191.9310  170.4120  134.5770 C   0  0  0  0  0  1  0  0  0  0  0  0
  192.2700  176.1670  136.4400 C   0  0  0  0  0  2  0  0  0  0  0  0
  192.2800  171.8130  134.4080 N   0  0  0  0  0  0  0  0  0  0  0  0
  194.1580  173.3640  134.7490 C   0  0  0  0  0  2  0  0  0  0  0  0
  191.1580  175.1370  136.1640 C   0  0  2  0  0  3  0  0  0  0  0  0
  193.6470  171.9360  134.9220 C   0  0  0  0  0  2  0  0  0  0  0  0
  194.7720  176.2270  135.8350 C   0  0  0  0  0  1  0  0  0  0  0  0
  191.8830  174.0180  135.4690 C   0  0  0  0  0  0  0  0  0  0  0  0
  193.4620  175.5940  135.8410 N   0  0  0  0  0  0  0  0  0  0  0  0
  193.1630  174.3090  135.3400 C   0  0  0  0  0  0  0  0  0  0  0  0
  189.9880  172.7170  134.5270 C   0  0  0  0  0  2  0  0  0  0  0  0
  188.9880  172.2020  135.3530 O   0  0  0  0  0  1  0  0  0  0  0  0
  1  8  1  0  0  0  0
  2  1  2  0  0  0  0
  3 12  1  0  0  0  0
  4  6  1  0  0  0  0
  4  3  2  0  0  0  0
  5 15  2  0  0  0  0
  6  2  1  0  0  0  0
  7 14  1  0  0  0  0
  9  3  1  0  0  0  0
 11  4  1  0  0  0  0
 12  2  1  0  0  0  0
 12  7  2  0  0  0  0
 13 11  2  0  0  0  0
 13  5  1  0  0  0  0
 14  8  2  0  0  0  0
 15  9  1  0  0  0  0
 15 10  1  0  0  0  0
 16 14  1  6  0  0  0
 16 17  1  0  0  0  0
 17 18  1  6  0  0  0
 17 28  1  0  0  0  0
 18 16  1  0  0  0  0
 19 22  1  0  0  0  0
 19 25  1  1  0  0  0
 19 24  1  0  0  0  0
 20 27  1  0  0  0  0
 21 24  1  1  0  0  0
 21 26  1  0  0  0  0
 26 27  1  0  0  0  0
 27 23  2  0  0  0  0
 28 22  1  6  0  0  0
 28 21  1  0  0  0  0
 28 20  1  0  0  0  0
 29 30  2  0  0  0  0
 30  5  1  0  0  0  0
 30 33  1  0  0  0  0
 32 33  2  0  0  0  0
 33 31  1  0  0  0  0
 35 34  1  0  0  0  0
 35 11  1  0  0  0  0
 36  9  1  0  0  0  0
 36 37  1  1  0  0  0
 38 39  1  0  0  0  0
 38 40  1  0  0  0  0
 39 40  1  0  0  0  0
 39 36  1  1  0  0  0
 40 41  1  6  0  0  0
 42 53  1  6  0  0  0
 42 50  1  0  0  0  0
 45 43  1  0  0  0  0
 45 48  1  0  0  0  0
 45 42  1  0  0  0  0
 46 48  1  0  0  0  0
 46 52  1  0  0  0  0
 47 41  1  6  0  0  0
 47 44  1  0  0  0  0
 49 51  1  0  0  0  0
 50 47  1  0  0  0  0
 51 44  1  0  0  0  0
 52 50  2  0  0  0  0
 52 51  1  0  0  0  0
 53 54  1  0  0  0  0
M  END
>  <MODEL>
6

>  <REMARK>
 VINA RESULT:      -6.8      2.087      3.161
  Name = 
  10 active torsions:
  status: ('A' for Active; 'I' for Inactive)
    1  A    between atoms: C_3  and  C_9
    2  A    between atoms: C_5  and  C_14
    3  A    between atoms: C_5  and  C_52
    4  A    between atoms: C_16  and  C_39
    5  A    between atoms: C_27  and  C_44
    6  A    between atoms: N_29  and  C_39
    7  A    between atoms: C_34  and  C_47
    8  A    between atoms: C_35  and  N_40
    9  A    between atoms: C_37  and  C_44
   10  A    between atoms: C_46  and  C_54
                            x       y       z     vdW  Elec       q    Type
                         _______ _______ _______ _____ _____    ______ ____

>  <TORSDO>
F 10

$$$$
=
 OpenBabel10222421523D

 54 62  0  0  1  0  0  0  0  0999 V2000
  186.5900  178.7800  140.0100 C   0  0  0  0  0  3  0  0  0  0  0  0
  187.0290  178.0790  138.8890 C   0  0  0  0  0  0  0  0  0  0  0  0
  188.4630  176.7120  137.6590 C   0  0  0  0  0  0  0  0  0  0  0  0
  187.4780  176.9600  136.7100 C   0  0  0  0  0  0  0  0  0  0  0  0
  188.8590  174.3920  135.6700 C   0  0  0  0  0  0  0  0  0  0  0  0
  186.3040  177.9830  137.3800 S   0  0  0  0  0  0  0  0  0  0  0  0
  188.9760  177.2570  140.0480 C   0  0  0  0  0  3  0  0  0  0  0  0
  187.3660  178.7050  141.1770 C   0  0  0  0  0  3  0  0  0  0  0  0
  189.6540  175.9770  137.3600 N   0  0  0  0  0  0  0  0  0  0  0  0
  190.2760  173.5490  137.5220 C   0  0  0  0  0  1  0  0  0  0  0  0
  187.5140  176.5380  135.3040 C   0  0  0  0  0  0  0  0  0  0  0  0
  188.2030  177.3380  138.8890 C   0  0  0  0  0  0  0  0  0  0  0  0
  188.1190  175.4170  134.8910 C   0  0  0  0  0  3  0  0  0  0  0  0
  188.5490  177.9350  141.2060 C   0  0  0  0  0  0  0  0  0  0  0  0
  189.5610  174.6530  136.8020 C   0  0  0  0  0  0  0  0  0  0  0  0
  189.3680  177.8710  142.4560 C   0  0  1  0  0  3  0  0  0  0  0  0
  189.1380  176.5860  143.1660 C   0  0  1  0  0  3  0  0  0  0  0  0
  190.2810  176.7960  142.3740 O   0  0  0  0  0  0  0  0  0  0  0  0
  187.9730  178.0420  145.9140 C   0  0  2  0  0  3  0  0  0  0  0  0
  190.3850  175.6200  145.0710 O   0  0  0  0  0  0  0  0  0  0  0  0
  190.2030  177.9790  144.9850 C   0  0  1  0  0  3  0  0  0  0  0  0
  188.2290  176.6120  145.4970 C   0  0  0  0  0  2  0  0  0  0  0  0
  192.4800  175.4330  146.0340 O   0  0  0  0  0  0  0  0  0  0  0  0
  189.3340  178.6980  145.9970 C   0  0  0  0  0  2  0  0  0  0  0  0
  187.2860  178.0790  147.2620 C   0  0  0  0  0  1  0  0  0  0  0  0
  191.5470  177.6230  145.6230 C   0  0  0  0  0  2  0  0  0  0  0  0
  191.5350  176.1480  145.6110 C   0  0  0  0  0  0  0  0  0  0  0  0
  189.4960  176.6510  144.6600 C   0  0  1  0  0  0  0  0  0  0  0  0
  189.8780  172.6970  134.3460 O   0  0  0  0  0  0  0  0  0  0  0  0
  188.8880  173.0450  135.0480 C   0  0  0  0  0  0  0  0  0  0  0  0
  186.5740  172.2770  134.5470 O   0  0  0  0  0  0  0  0  0  0  0  0
  187.8910  171.1280  136.0200 O   0  0  0  0  0  1  0  0  0  0  0  0
  187.7730  172.0970  135.2250 C   0  0  0  0  0  0  0  0  0  0  0  0
  185.4830  177.5700  134.4480 O   0  0  0  0  0  1  0  0  0  0  0  0
  186.8140  177.3370  134.3470 N   0  0  0  0  0  2  0  0  0  0  0  0
  190.9480  176.5540  137.7330 C   0  0  1  0  0  3  0  0  0  0  0  0
  191.2240  176.3100  139.0800 O   0  0  0  0  0  1  0  0  0  0  0  0
  193.3110  176.8560  137.0260 C   0  0  0  0  0  2  0  0  0  0  0  0
  192.0660  176.0100  136.8600 C   0  0  1  0  0  3  0  0  0  0  0  0
  193.1920  175.5330  137.7540 C   0  0  1  0  0  3  0  0  0  0  0  0
  193.9660  174.4520  137.0220 C   0  0  0  0  0  2  0  0  0  0  0  0
  194.6730  171.1700  136.7910 C   0  0  1  0  0  3  0  0  0  0  0  0
  195.0160  168.9690  135.9640 C   0  0  0  0  0  1  0  0  0  0  0  0
  195.9060  174.3620  138.5750 C   0  0  0  0  0  2  0  0  0  0  0  0
  195.5950  170.3010  136.0280 N   0  0  0  0  0  0  0  0  0  0  0  0
  197.6030  171.4680  136.8360 C   0  0  0  0  0  2  0  0  0  0  0  0
  194.7130  173.5690  138.0100 C   0  0  2  0  0  3  0  0  0  0  0  0
  196.8610  170.1370  136.7480 C   0  0  0  0  0  2  0  0  0  0  0  0
  198.4540  174.0600  138.3560 C   0  0  0  0  0  1  0  0  0  0  0  0
  195.3660  172.4210  137.2910 C   0  0  0  0  0  0  0  0  0  0  0  0
  197.0810  173.6600  138.0890 N   0  0  0  0  0  0  0  0  0  0  0  0
  196.6780  172.5020  137.3900 C   0  0  0  0  0  0  0  0  0  0  0  0
  193.4780  171.5620  135.9240 C   0  0  0  0  0  2  0  0  0  0  0  0
  193.8180  171.4880  134.5720 O   0  0  0  0  0  1  0  0  0  0  0  0
  1  8  1  0  0  0  0
  2 12  1  0  0  0  0
  2  1  2  0  0  0  0
  3 12  1  0  0  0  0
  4  6  1  0  0  0  0
  4  3  2  0  0  0  0
  5 15  2  0  0  0  0
  6  2  1  0  0  0  0
  7 14  1  0  0  0  0
  8 14  2  0  0  0  0
  9  3  1  0  0  0  0
  9 36  1  0  0  0  0
 11  4  1  0  0  0  0
 12  7  2  0  0  0  0
 13 11  2  0  0  0  0
 13  5  1  0  0  0  0
 15  9  1  0  0  0  0
 15 10  1  0  0  0  0
 16 14  1  6  0  0  0
 16 17  1  0  0  0  0
 17 18  1  6  0  0  0
 17 28  1  0  0  0  0
 18 16  1  0  0  0  0
 19 24  1  0  0  0  0
 19 25  1  1  0  0  0
 20 27  1  0  0  0  0
 21 26  1  1  0  0  0
 21 24  1  0  0  0  0
 22 19  1  0  0  0  0
 27 26  1  0  0  0  0
 27 23  2  0  0  0  0
 28 21  1  0  0  0  0
 28 20  1  0  0  0  0
 28 22  1  1  0  0  0
 29 30  2  0  0  0  0
 30 33  1  0  0  0  0
 30  5  1  0  0  0  0
 31 33  2  0  0  0  0
 33 32  1  0  0  0  0
 35 34  1  0  0  0  0
 35 11  1  0  0  0  0
 36 37  1  1  0  0  0
 38 40  1  0  0  0  0
 39 38  1  0  0  0  0
 39 36  1  1  0  0  0
 39 40  1  0  0  0  0
 40 41  1  6  0  0  0
 42 53  1  6  0  0  0
 42 50  1  0  0  0  0
 43 45  1  0  0  0  0
 45 48  1  0  0  0  0
 45 42  1  0  0  0  0
 46 52  1  0  0  0  0
 47 41  1  6  0  0  0
 47 44  1  0  0  0  0
 48 46  1  0  0  0  0
 50 52  2  0  0  0  0
 50 47  1  0  0  0  0
 51 49  1  0  0  0  0
 51 44  1  0  0  0  0
 52 51  1  0  0  0  0
 54 53  1  0  0  0  0
M  END
>  <MODEL>
7

>  <REMARK>
 VINA RESULT:      -6.2      3.272      5.082
  Name = 
  10 active torsions:
  status: ('A' for Active; 'I' for Inactive)
    1  A    between atoms: C_3  and  C_9
    2  A    between atoms: C_5  and  C_14
    3  A    between atoms: C_5  and  C_52
    4  A    between atoms: C_16  and  C_39
    5  A    between atoms: C_27  and  C_44
    6  A    between atoms: N_29  and  C_39
    7  A    between atoms: C_34  and  C_47
    8  A    between atoms: C_35  and  N_40
    9  A    between atoms: C_37  and  C_44
   10  A    between atoms: C_46  and  C_54
                            x       y       z     vdW  Elec       q    Type
                         _______ _______ _______ _____ _____    ______ ____

>  <TORSDO>
F 10

$$$$
=
 OpenBabel10222421523D

 54 62  0  0  1  0  0  0  0  0999 V2000
  188.2850  177.6510  136.9070 C   0  0  0  0  0  3  0  0  0  0  0  0
  186.8960  177.7190  136.8210 C   0  0  0  0  0  0  0  0  0  0  0  0
  184.7180  177.9160  137.6340 C   0  0  0  0  0  0  0  0  0  0  0  0
  184.4680  177.8090  136.2700 C   0  0  0  0  0  0  0  0  0  0  0  0
  181.8910  179.1160  137.3820 C   0  0  0  0  0  0  0  0  0  0  0  0
  185.9390  177.6240  135.4470 S   0  0  0  0  0  0  0  0  0  0  0  0
  186.6660  177.9890  139.2060 C   0  0  0  0  0  3  0  0  0  0  0  0
  188.8700  177.7630  138.1770 C   0  0  0  0  0  3  0  0  0  0  0  0
  183.6710  177.9630  138.6080 N   0  0  0  0  0  0  0  0  0  0  0  0
  182.4050  179.8390  139.6980 C   0  0  0  0  0  1  0  0  0  0  0  0
  183.1430  177.7150  135.6450 C   0  0  0  0  0  0  0  0  0  0  0  0
  186.0890  177.8730  137.9410 C   0  0  0  0  0  0  0  0  0  0  0  0
  182.0500  178.2970  136.1540 C   0  0  0  0  0  3  0  0  0  0  0  0
  188.0680  177.9460  139.3250 C   0  0  0  0  0  0  0  0  0  0  0  0
  182.6380  178.9600  138.5050 C   0  0  0  0  0  0  0  0  0  0  0  0
  188.7080  178.0580  140.6730 C   0  0  1  0  0  3  0  0  0  0  0  0
  189.3990  176.7910  141.0300 C   0  0  1  0  0  3  0  0  0  0  0  0
  190.1070  177.9080  140.5510 O   0  0  0  0  0  0  0  0  0  0  0  0
  188.0680  177.9590  143.8400 C   0  0  2  0  0  3  0  0  0  0  0  0
  190.3770  175.4790  142.8850 O   0  0  0  0  0  0  0  0  0  0  0  0
  190.3700  177.8350  143.1160 C   0  0  1  0  0  3  0  0  0  0  0  0
  188.2640  176.5810  143.2500 C   0  0  0  0  0  2  0  0  0  0  0  0
  192.3460  174.9910  143.9960 O   0  0  0  0  0  0  0  0  0  0  0  0
  189.4560  178.4820  144.1380 C   0  0  0  0  0  2  0  0  0  0  0  0
  187.2530  177.8720  145.1130 C   0  0  0  0  0  1  0  0  0  0  0  0
  191.6150  177.2870  143.8160 C   0  0  0  0  0  2  0  0  0  0  0  0
  191.5010  175.8330  143.5950 C   0  0  0  0  0  0  0  0  0  0  0  0
  189.6080  176.6260  142.5440 C   0  0  1  0  0  0  0  0  0  0  0  0
  179.9820  180.1560  138.3490 O   0  0  0  0  0  0  0  0  0  0  0  0
  180.7490  180.0630  137.3510 C   0  0  0  0  0  0  0  0  0  0  0  0
  180.2280  182.2580  136.3000 O   0  0  0  0  0  1  0  0  0  0  0  0
  180.4490  180.3760  135.0220 O   0  0  0  0  0  0  0  0  0  0  0  0
  180.4800  180.8980  136.1660 C   0  0  0  0  0  0  0  0  0  0  0  0
  182.8770  175.6730  134.3460 O   0  0  0  0  0  1  0  0  0  0  0  0
  183.0380  177.0170  134.4010 N   0  0  0  0  0  2  0  0  0  0  0  0
  183.7390  177.0560  139.7560 C   0  0  1  0  0  3  0  0  0  0  0  0
  183.5450  177.7570  140.9480 O   0  0  0  0  0  1  0  0  0  0  0  0
  181.5220  176.4100  138.8380 C   0  0  0  0  0  2  0  0  0  0  0  0
  182.7200  175.9350  139.6330 C   0  0  1  0  0  3  0  0  0  0  0  0
  182.5850  175.5600  138.1720 C   0  0  1  0  0  3  0  0  0  0  0  0
  182.1320  174.1150  138.0840 C   0  0  0  0  0  2  0  0  0  0  0  0
  184.5730  172.6670  136.2750 C   0  0  1  0  0  3  0  0  0  0  0  0
  186.5630  171.5420  135.6280 C   0  0  0  0  0  1  0  0  0  0  0  0
  180.7290  173.0000  136.3590 C   0  0  0  0  0  2  0  0  0  0  0  0
  185.2370  171.3480  136.1910 N   0  0  0  0  0  0  0  0  0  0  0  0
  183.1350  170.1510  135.7490 C   0  0  0  0  0  2  0  0  0  0  0  0
  182.0950  173.6550  136.6340 C   0  0  2  0  0  3  0  0  0  0  0  0
  184.5370  170.4800  135.2410 C   0  0  0  0  0  2  0  0  0  0  0  0
  180.0420  170.5840  135.7940 C   0  0  0  0  0  1  0  0  0  0  0  0
  183.0710  172.5310  136.4190 C   0  0  0  0  0  0  0  0  0  0  0  0
  181.0340  171.6060  136.0910 N   0  0  0  0  0  0  0  0  0  0  0  0
  182.4330  171.4250  136.0920 C   0  0  0  0  0  0  0  0  0  0  0  0
  185.1280  173.4640  137.4540 C   0  0  0  0  0  2  0  0  0  0  0  0
  185.6740  174.6680  137.0080 O   0  0  0  0  0  1  0  0  0  0  0  0
  1  8  1  0  0  0  0
  2  1  2  0  0  0  0
  2 12  1  0  0  0  0
  3 12  1  0  0  0  0
  3  9  1  0  0  0  0
  4  3  2  0  0  0  0
  5 15  2  0  0  0  0
  6  4  1  0  0  0  0
  6  2  1  0  0  0  0
  7 14  1  0  0  0  0
  8 14  2  0  0  0  0
  9 36  1  0  0  0  0
 11 13  2  0  0  0  0
 11  4  1  0  0  0  0
 12  7  2  0  0  0  0
 13  5  1  0  0  0  0
 15  9  1  0  0  0  0
 15 10  1  0  0  0  0
 16 14  1  6  0  0  0
 16 17  1  0  0  0  0
 17 18  1  6  0  0  0
 17 28  1  0  0  0  0
 18 16  1  0  0  0  0
 19 24  1  0  0  0  0
 19 25  1  1  0  0  0
 20 27  1  0  0  0  0
 21 26  1  1  0  0  0
 21 24  1  0  0  0  0
 22 19  1  0  0  0  0
 27 26  1  0  0  0  0
 27 23  2  0  0  0  0
 28 20  1  0  0  0  0
 28 21  1  0  0  0  0
 28 22  1  1  0  0  0
 30  5  1  0  0  0  0
 30 29  2  0  0  0  0
 32 33  2  0  0  0  0
 33 31  1  0  0  0  0
 33 30  1  0  0  0  0
 34 35  1  0  0  0  0
 35 11  1  0  0  0  0
 36 37  1  1  0  0  0
 38 39  1  0  0  0  0
 39 36  1  6  0  0  0
 40 41  1  1  0  0  0
 40 38  1  0  0  0  0
 40 39  1  0  0  0  0
 42 50  1  0  0  0  0
 42 53  1  1  0  0  0
 43 45  1  0  0  0  0
 44 47  1  0  0  0  0
 45 42  1  0  0  0  0
 46 52  1  0  0  0  0
 47 41  1  1  0  0  0
 48 46  1  0  0  0  0
 48 45  1  0  0  0  0
 49 51  1  0  0  0  0
 50 47  1  0  0  0  0
 51 52  1  0  0  0  0
 51 44  1  0  0  0  0
 52 50  2  0  0  0  0
 54 53  1  0  0  0  0
M  END
>  <MODEL>
8

>  <REMARK>
 VINA RESULT:      -5.9      3.084      6.334
  Name = 
  10 active torsions:
  status: ('A' for Active; 'I' for Inactive)
    1  A    between atoms: C_3  and  C_9
    2  A    between atoms: C_5  and  C_14
    3  A    between atoms: C_5  and  C_52
    4  A    between atoms: C_16  and  C_39
    5  A    between atoms: C_27  and  C_44
    6  A    between atoms: N_29  and  C_39
    7  A    between atoms: C_34  and  C_47
    8  A    between atoms: C_35  and  N_40
    9  A    between atoms: C_37  and  C_44
   10  A    between atoms: C_46  and  C_54
                            x       y       z     vdW  Elec       q    Type
                         _______ _______ _______ _____ _____    ______ ____

>  <TORSDO>
F 10

$$$$
=
 OpenBabel10222421523D

 54 62  0  0  1  0  0  0  0  0999 V2000
  191.5420  176.6530  138.8030 C   0  0  0  0  0  3  0  0  0  0  0  0
  191.1480  177.0940  140.0650 C   0  0  0  0  0  0  0  0  0  0  0  0
  189.6340  177.7110  141.7290 C   0  0  0  0  0  0  0  0  0  0  0  0
  190.8360  177.8870  142.4050 C   0  0  0  0  0  0  0  0  0  0  0  0
  188.7530  177.6180  144.6800 C   0  0  0  0  0  0  0  0  0  0  0  0
  192.1210  177.5140  141.3640 S   0  0  0  0  0  0  0  0  0  0  0  0
  188.8100  176.9520  139.4890 C   0  0  0  0  0  3  0  0  0  0  0  0
  190.5380  176.3500  137.8700 C   0  0  0  0  0  3  0  0  0  0  0  0
  188.3700  178.0580  142.3010 N   0  0  0  0  0  0  0  0  0  0  0  0
  186.6650  176.7830  143.6350 C   0  0  0  0  0  1  0  0  0  0  0  0
  190.9880  178.4490  143.7530 C   0  0  0  0  0  0  0  0  0  0  0  0
  189.8130  177.2560  140.4120 C   0  0  0  0  0  0  0  0  0  0  0  0
  190.0660  178.3100  144.7130 C   0  0  0  0  0  3  0  0  0  0  0  0
  189.1740  176.4830  138.2120 C   0  0  0  0  0  0  0  0  0  0  0  0
  187.9790  177.5040  143.5710 C   0  0  0  0  0  0  0  0  0  0  0  0
  188.1170  176.1610  137.2040 C   0  0  1  0  0  3  0  0  0  0  0  0
  187.6170  174.7740  137.3950 C   0  0  1  0  0  3  0  0  0  0  0  0
  186.8970  175.8890  137.8630 O   0  0  0  0  0  0  0  0  0  0  0  0
  184.7610  175.1110  135.7360 C   0  0  2  0  0  3  0  0  0  0  0  0
  187.8760  173.5420  135.2670 O   0  0  0  0  0  0  0  0  0  0  0  0
  185.9080  173.1340  136.5170 C   0  0  1  0  0  3  0  0  0  0  0  0
  186.2200  175.2890  135.3840 C   0  0  0  0  0  2  0  0  0  0  0  0
  188.1870  171.4430  134.3460 O   0  0  0  0  0  0  0  0  0  0  0  0
  184.5760  173.6320  135.9950 C   0  0  0  0  0  2  0  0  0  0  0  0
  183.8870  175.5590  134.5830 C   0  0  0  0  0  1  0  0  0  0  0  0
  186.2940  171.8430  135.7920 C   0  0  0  0  0  2  0  0  0  0  0  0
  187.5190  172.2290  135.0660 C   0  0  0  0  0  0  0  0  0  0  0  0
  186.9570  174.1930  136.1340 C   0  0  1  0  0  0  0  0  0  0  0  0
  188.7710  176.1220  146.5310 O   0  0  0  0  0  0  0  0  0  0  0  0
  188.2660  177.1510  146.0010 C   0  0  0  0  0  0  0  0  0  0  0  0
  185.9180  177.9620  146.1580 O   0  0  0  0  0  0  0  0  0  0  0  0
  187.4190  178.4080  147.8220 O   0  0  0  0  0  1  0  0  0  0  0  0
  187.1870  177.8610  146.7130 C   0  0  0  0  0  0  0  0  0  0  0  0
  192.2260  180.3740  144.5830 O   0  0  0  0  0  1  0  0  0  0  0  0
  192.2110  179.1230  144.0620 N   0  0  0  0  0  2  0  0  0  0  0  0
  187.4510  178.8910  141.5210 C   0  0  1  0  0  3  0  0  0  0  0  0
  187.9200  179.0510  140.2160 O   0  0  0  0  0  1  0  0  0  0  0  0
  185.0760  179.2640  142.1540 C   0  0  0  0  0  2  0  0  0  0  0  0
  186.0500  178.3000  141.5070 C   0  0  1  0  0  3  0  0  0  0  0  0
  185.1630  179.1740  140.6440 C   0  0  1  0  0  3  0  0  0  0  0  0
  184.0330  178.3230  140.0950 C   0  0  0  0  0  2  0  0  0  0  0  0
  182.2060  176.7360  137.7560 C   0  0  1  0  0  3  0  0  0  0  0  0
  180.7580  175.2140  136.6460 C   0  0  0  0  0  1  0  0  0  0  0  0
  183.2100  180.3030  138.8350 C   0  0  0  0  0  2  0  0  0  0  0  0
  180.7930  176.3580  137.5430 N   0  0  0  0  0  0  0  0  0  0  0  0
  179.9920  178.6770  137.7060 C   0  0  0  0  0  2  0  0  0  0  0  0
  183.6100  178.8200  138.7210 C   0  0  2  0  0  3  0  0  0  0  0  0
  180.0760  177.4240  136.8380 C   0  0  0  0  0  2  0  0  0  0  0  0
  180.9610  181.5240  138.5470 C   0  0  0  0  0  1  0  0  0  0  0  0
  182.3350  178.1470  138.2940 C   0  0  0  0  0  0  0  0  0  0  0  0
  181.7880  180.3270  138.5410 N   0  0  0  0  0  0  0  0  0  0  0  0
  181.3630  179.0300  138.1810 C   0  0  0  0  0  0  0  0  0  0  0  0
  182.8750  175.7600  138.7230 C   0  0  0  0  0  2  0  0  0  0  0  0
  182.2220  175.7800  139.9560 O   0  0  0  0  0  1  0  0  0  0  0  0
  1  2  1  0  0  0  0
  2 12  2  0  0  0  0
  2  6  1  0  0  0  0
  3  9  1  0  0  0  0
  3  4  2  0  0  0  0
  4 11  1  0  0  0  0
  5 13  1  0  0  0  0
  5 30  1  0  0  0  0
  6  4  1  0  0  0  0
  7 12  1  0  0  0  0
  8 14  1  0  0  0  0
  8  1  2  0  0  0  0
  9 15  1  0  0  0  0
 11 35  1  0  0  0  0
 11 13  2  0  0  0  0
 12  3  1  0  0  0  0
 14  7  2  0  0  0  0
 15 10  1  0  0  0  0
 15  5  2  0  0  0  0
 16 17  1  0  0  0  0
 16 18  1  0  0  0  0
 16 14  1  1  0  0  0
 17 18  1  1  0  0  0
 19 25  1  6  0  0  0
 19 24  1  0  0  0  0
 20 28  1  0  0  0  0
 21 26  1  6  0  0  0
 22 19  1  0  0  0  0
 23 27  2  0  0  0  0
 24 21  1  0  0  0  0
 27 20  1  0  0  0  0
 27 26  1  0  0  0  0
 28 22  1  6  0  0  0
 28 21  1  0  0  0  0
 28 17  1  0  0  0  0
 30 29  2  0  0  0  0
 30 33  1  0  0  0  0
 31 33  2  0  0  0  0
 33 32  1  0  0  0  0
 35 34  1  0  0  0  0
 36 37  1  6  0  0  0
 36  9  1  0  0  0  0
 39 36  1  6  0  0  0
 39 38  1  0  0  0  0
 40 41  1  1  0  0  0
 40 39  1  0  0  0  0
 40 38  1  0  0  0  0
 42 50  1  0  0  0  0
 42 53  1  1  0  0  0
 43 45  1  0  0  0  0
 45 42  1  0  0  0  0
 46 52  1  0  0  0  0
 47 44  1  0  0  0  0
 47 41  1  1  0  0  0
 48 45  1  0  0  0  0
 48 46  1  0  0  0  0
 50 47  1  0  0  0  0
 51 49  1  0  0  0  0
 51 44  1  0  0  0  0
 52 50  2  0  0  0  0
 52 51  1  0  0  0  0
 53 54  1  0  0  0  0
M  END
>  <MODEL>
9

>  <REMARK>
 VINA RESULT:      -5.9      3.121      9.711
  Name = 
  10 active torsions:
  status: ('A' for Active; 'I' for Inactive)
    1  A    between atoms: C_3  and  C_9
    2  A    between atoms: C_5  and  C_14
    3  A    between atoms: C_5  and  C_52
    4  A    between atoms: C_16  and  C_39
    5  A    between atoms: C_27  and  C_44
    6  A    between atoms: N_29  and  C_39
    7  A    between atoms: C_34  and  C_47
    8  A    between atoms: C_35  and  N_40
    9  A    between atoms: C_37  and  C_44
   10  A    between atoms: C_46  and  C_54
                            x       y       z     vdW  Elec       q    Type
                         _______ _______ _______ _____ _____    ______ ____

>  <TORSDO>
F 10

$$$$
