=
 OpenBabel10222421423D

 47 51  0  0  1  0  0  0  0  0999 V2000
  189.6650  176.6570  138.6370 C   0  0  1  0  0  3  0  0  0  0  0  0
  191.1520  173.7140  136.7190 C   0  0  0  0  0  0  0  0  0  0  0  0
  189.0260  178.3090  136.7970 C   0  0  0  0  0  0  0  0  0  0  0  0
  191.0270  174.8510  137.5230 C   0  0  0  0  0  3  0  0  0  0  0  0
  187.5910  177.8780  136.6430 C   0  0  0  0  0  2  0  0  0  0  0  0
  185.5140  177.0390  137.7790 C   0  0  2  0  0  3  0  0  0  0  0  0
  185.5340  175.3920  135.8720 C   0  0  0  0  0  2  0  0  0  0  0  0
  187.0480  176.8760  137.6720 C   0  0  1  0  0  3  0  0  0  0  0  0
  188.6360  174.9290  137.0760 C   0  0  0  0  0  0  0  0  0  0  0  0
  190.0170  173.1550  136.1400 C   0  0  0  0  0  3  0  0  0  0  0  0
  189.8820  177.8680  137.8590 N   0  0  0  0  0  2  0  0  0  0  0  0
  189.7710  175.4460  137.7480 C   0  0  0  0  0  0  0  0  0  0  0  0
  184.7820  176.5690  136.5110 C   0  0  0  0  0  2  0  0  0  0  0  0
  186.2430  174.7000  136.8710 O   0  0  0  0  0  0  0  0  0  0  0  0
  187.3110  175.5000  137.1980 N   0  0  0  0  0  0  0  0  0  0  0  0
  188.7750  173.7630  136.3110 C   0  0  0  0  0  3  0  0  0  0  0  0
  189.4970  179.1050  135.9420 O   0  0  0  0  0  0  0  0  0  0  0  0
  186.2260  178.2720  140.4900 N   0  0  0  0  0  2  0  0  0  0  0  0
  185.2490  178.8440  139.6100 C   0  0  0  0  0  0  0  0  0  0  0  0
  184.5500  179.8260  139.9900 O   0  0  0  0  0  0  0  0  0  0  0  0
  185.0770  178.3480  138.2780 N   0  0  0  0  0  2  0  0  0  0  0  0
  186.4200  178.7620  141.8460 C   0  0  0  0  0  2  0  0  0  0  0  0
  187.3270  177.8200  142.6240 C   0  0  0  0  0  2  0  0  0  0  0  0
  184.9610  178.2910  145.6220 C   0  0  2  0  0  3  0  0  0  0  0  0
  186.7480  177.5470  144.0010 C   0  0  1  0  0  3  0  0  0  0  0  0
  186.0320  178.5690  146.6790 C   0  0  0  0  0  2  0  0  0  0  0  0
  187.8160  177.8370  145.0670 C   0  0  0  0  0  2  0  0  0  0  0  0
  185.5340  178.4610  144.2100 C   0  0  0  0  0  2  0  0  0  0  0  0
  187.2390  177.6510  146.4710 C   0  0  0  0  0  2  0  0  0  0  0  0
  183.9060  179.1870  145.7880 O   0  0  0  0  0  1  0  0  0  0  0  0
  191.8800  177.1120  139.6970 O   0  0  0  0  0  0  0  0  0  0  0  0
  190.2000  176.1560  140.9240 O   0  0  0  0  0  1  0  0  0  0  0  0
  190.5900  176.6180  139.8180 C   0  0  0  0  0  0  0  0  0  0  0  0
  192.4780  173.0500  136.5380 C   0  0  0  0  0  2  0  0  0  0  0  0
  194.4650  173.9460  137.6390 C   0  0  0  0  0  0  0  0  0  0  0  0
  195.2860  173.8930  138.6550 C   0  0  0  0  0  3  0  0  0  0  0  0
  193.6350  174.0080  136.6270 C   0  0  0  0  0  0  0  0  0  0  0  0
  194.0550  174.7680  135.4080 C   0  0  1  0  0  3  0  0  0  0  0  0
  193.7710  176.1350  135.5700 O   0  0  0  0  0  0  0  0  0  0  0  0
  194.7660  176.7780  134.8360 C   0  0  2  0  0  3  0  0  0  0  0  0
  195.4270  174.5710  135.1670 O   0  0  0  0  0  0  0  0  0  0  0  0
  195.8430  175.7600  134.5860 C   0  0  0  0  0  2  0  0  0  0  0  0
  196.2000  178.4750  134.7290 C   0  0  0  0  0  1  0  0  0  0  0  0
  195.3010  177.8360  135.5880 O   0  0  0  0  0  0  0  0  0  0  0  0
  197.4540  173.9860  137.4420 O   0  0  0  0  0  0  0  0  0  0  0  0
  197.2000  175.0150  139.4760 O   0  0  0  0  0  1  0  0  0  0  0  0
  196.6840  174.3350  138.5510 C   0  0  0  0  0  0  0  0  0  0  0  0
  1 33  1  1  0  0  0
  2  4  1  0  0  0  0
  3 11  1  0  0  0  0
  4 12  2  0  0  0  0
  5  3  1  0  0  0  0
  6 21  1  6  0  0  0
  7 13  1  0  0  0  0
  7 14  1  0  0  0  0
  8  5  1  6  0  0  0
  8  6  1  0  0  0  0
  9 15  1  0  0  0  0
  9 12  1  0  0  0  0
 10 16  1  0  0  0  0
 10  2  2  0  0  0  0
 11  1  1  0  0  0  0
 12  1  1  0  0  0  0
 13  6  1  0  0  0  0
 14 15  1  0  0  0  0
 15  8  1  0  0  0  0
 16  9  2  0  0  0  0
 17  3  2  0  0  0  0
 18 22  1  0  0  0  0
 19 20  2  0  0  0  0
 19 18  1  0  0  0  0
 21 19  1  0  0  0  0
 22 23  1  0  0  0  0
 24 30  1  1  0  0  0
 24 26  1  0  0  0  0
 25 23  1  6  0  0  0
 25 28  1  0  0  0  0
 25 27  1  0  0  0  0
 27 29  1  0  0  0  0
 28 24  1  0  0  0  0
 29 26  1  0  0  0  0
 31 33  2  0  0  0  0
 33 32  1  0  0  0  0
 34 37  1  0  0  0  0
 34  2  1  0  0  0  0
 35 36  2  0  0  0  0
 37 35  2  0  0  0  0
 38 39  1  0  0  0  0
 38 37  1  1  0  0  0
 40 39  1  0  0  0  0
 40 44  1  1  0  0  0
 41 38  1  0  0  0  0
 42 40  1  0  0  0  0
 42 41  1  0  0  0  0
 43 44  1  0  0  0  0
 45 47  2  0  0  0  0
 47 36  1  0  0  0  0
 47 46  1  0  0  0  0
M  END
>  <MODEL>
1

>  <REMARK>
 VINA RESULT:      -8.7      0.000      0.000
  Name = 
  10 active torsions:
  status: ('A' for Active; 'I' for Inactive)
    1  A    between atoms: C_2  and  C_46
    2  A    between atoms: CA_3  and  C_47
    3  A    between atoms: C_4  and  C_44
    4  A    between atoms: N_11  and  C_34
    5  A    between atoms: O_15  and  C_29
    6  A    between atoms: C_18  and  N_32
    7  A    between atoms: C_21  and  C_28
    8  A    between atoms: C_22  and  C_35
    9  A    between atoms: C_28  and  C_44
   10  A    between atoms: C_34  and  C_46
                            x       y       z     vdW  Elec       q    Type
                         _______ _______ _______ _____ _____    ______ ____

>  <TORSDO>
F 10

$$$$
=
 OpenBabel10222421423D

 47 51  0  0  1  0  0  0  0  0999 V2000
  186.9580  177.1030  137.5040 C   0  0  1  0  0  3  0  0  0  0  0  0
  189.9420  175.0560  136.2970 C   0  0  0  0  0  0  0  0  0  0  0  0
  185.3470  177.0370  135.5240 C   0  0  0  0  0  0  0  0  0  0  0  0
  189.1330  176.1300  136.6780 C   0  0  0  0  0  3  0  0  0  0  0  0
  184.5310  175.8560  135.9810 C   0  0  0  0  0  2  0  0  0  0  0  0
  183.5290  174.6180  137.9220 C   0  0  2  0  0  3  0  0  0  0  0  0
  184.5570  172.6310  136.7610 C   0  0  0  0  0  2  0  0  0  0  0  0
  184.7980  175.3280  137.3980 C   0  0  1  0  0  3  0  0  0  0  0  0
  187.2510  174.6230  137.0080 C   0  0  0  0  0  0  0  0  0  0  0  0
  189.4250  173.7640  136.3240 C   0  0  0  0  0  3  0  0  0  0  0  0
  186.3160  177.7030  136.3440 N   0  0  0  0  0  2  0  0  0  0  0  0
  187.7980  175.9280  137.0780 C   0  0  0  0  0  0  0  0  0  0  0  0
  183.2400  173.3030  137.1800 C   0  0  0  0  0  2  0  0  0  0  0  0
  185.5740  173.0140  137.6560 O   0  0  0  0  0  0  0  0  0  0  0  0
  185.8770  174.3180  137.3460 N   0  0  0  0  0  0  0  0  0  0  0  0
  188.0910  173.5540  136.6670 C   0  0  0  0  0  3  0  0  0  0  0  0
  185.1640  177.4610  134.3520 O   0  0  0  0  0  0  0  0  0  0  0  0
  183.3030  177.0220  139.8070 N   0  0  0  0  0  2  0  0  0  0  0  0
  182.1830  176.4960  139.0810 C   0  0  0  0  0  0  0  0  0  0  0  0
  181.0210  176.9420  139.2980 O   0  0  0  0  0  0  0  0  0  0  0  0
  182.3620  175.4960  138.0740 N   0  0  0  0  0  2  0  0  0  0  0  0
  183.1450  178.0410  140.8330 C   0  0  0  0  0  2  0  0  0  0  0  0
  184.5040  178.5650  141.2710 C   0  0  0  0  0  2  0  0  0  0  0  0
  184.5400  178.3140  145.1110 C   0  0  2  0  0  3  0  0  0  0  0  0
  184.8770  177.9960  142.6280 C   0  0  1  0  0  3  0  0  0  0  0  0
  186.0530  178.4320  145.3040 C   0  0  0  0  0  2  0  0  0  0  0  0
  186.3940  178.1240  142.8330 C   0  0  0  0  0  2  0  0  0  0  0  0
  184.1320  178.7880  143.7110 C   0  0  0  0  0  2  0  0  0  0  0  0
  186.7930  177.6350  144.2270 C   0  0  0  0  0  2  0  0  0  0  0  0
  183.8920  179.1040  146.0580 O   0  0  0  0  0  1  0  0  0  0  0  0
  188.2550  179.2350  137.6150 O   0  0  0  0  0  0  0  0  0  0  0  0
  187.8690  178.0300  139.5230 O   0  0  0  0  0  1  0  0  0  0  0  0
  187.7210  178.1390  138.2770 C   0  0  0  0  0  0  0  0  0  0  0  0
  191.3760  175.2700  135.9360 C   0  0  0  0  0  2  0  0  0  0  0  0
  193.2960  174.5540  137.2650 C   0  0  0  0  0  0  0  0  0  0  0  0
  194.3060  173.7340  137.3980 C   0  0  0  0  0  3  0  0  0  0  0  0
  192.2780  175.3680  137.1380 C   0  0  0  0  0  0  0  0  0  0  0  0
  192.2450  176.6040  137.9810 C   0  0  1  0  0  3  0  0  0  0  0  0
  191.1770  176.5380  138.8920 O   0  0  0  0  0  0  0  0  0  0  0  0
  191.6310  177.2520  140.0000 C   0  0  2  0  0  3  0  0  0  0  0  0
  193.4680  176.7560  138.6600 O   0  0  0  0  0  0  0  0  0  0  0  0
  193.1210  177.3810  139.8490 C   0  0  0  0  0  2  0  0  0  0  0  0
  190.3410  177.2620  141.8120 C   0  0  0  0  0  1  0  0  0  0  0  0
  191.3500  176.5340  141.1740 O   0  0  0  0  0  0  0  0  0  0  0  0
  195.7320  173.5740  139.4280 O   0  0  0  0  0  1  0  0  0  0  0  0
  196.3440  174.9040  137.6630 O   0  0  0  0  0  0  0  0  0  0  0  0
  195.5120  174.0980  138.1550 C   0  0  0  0  0  0  0  0  0  0  0  0
  1 33  1  6  0  0  0
  2 10  2  0  0  0  0
  2  4  1  0  0  0  0
  3  5  1  0  0  0  0
  3 11  1  0  0  0  0
  4 12  2  0  0  0  0
  6 21  1  6  0  0  0
  7 13  1  0  0  0  0
  7 14  1  0  0  0  0
  8  5  1  6  0  0  0
  8  6  1  0  0  0  0
  9 12  1  0  0  0  0
  9 15  1  0  0  0  0
 10 16  1  0  0  0  0
 11  1  1  0  0  0  0
 12  1  1  0  0  0  0
 13  6  1  0  0  0  0
 15  8  1  0  0  0  0
 15 14  1  0  0  0  0
 16  9  2  0  0  0  0
 17  3  2  0  0  0  0
 18 22  1  0  0  0  0
 19 20  2  0  0  0  0
 19 18  1  0  0  0  0
 21 19  1  0  0  0  0
 22 23  1  0  0  0  0
 24 26  1  0  0  0  0
 24 30  1  1  0  0  0
 25 23  1  6  0  0  0
 25 27  1  0  0  0  0
 25 28  1  0  0  0  0
 27 29  1  0  0  0  0
 28 24  1  0  0  0  0
 29 26  1  0  0  0  0
 31 33  2  0  0  0  0
 33 32  1  0  0  0  0
 34  2  1  0  0  0  0
 34 37  1  0  0  0  0
 35 36  2  0  0  0  0
 36 47  1  0  0  0  0
 37 35  2  0  0  0  0
 38 37  1  1  0  0  0
 38 41  1  0  0  0  0
 38 39  1  0  0  0  0
 39 40  1  0  0  0  0
 40 44  1  1  0  0  0
 41 42  1  0  0  0  0
 42 40  1  0  0  0  0
 44 43  1  0  0  0  0
 46 47  2  0  0  0  0
 47 45  1  0  0  0  0
M  END
>  <MODEL>
2

>  <REMARK>
 VINA RESULT:      -8.4      2.094      3.530
  Name = 
  10 active torsions:
  status: ('A' for Active; 'I' for Inactive)
    1  A    between atoms: C_2  and  C_46
    2  A    between atoms: CA_3  and  C_47
    3  A    between atoms: C_4  and  C_44
    4  A    between atoms: N_11  and  C_34
    5  A    between atoms: O_15  and  C_29
    6  A    between atoms: C_18  and  N_32
    7  A    between atoms: C_21  and  C_28
    8  A    between atoms: C_22  and  C_35
    9  A    between atoms: C_28  and  C_44
   10  A    between atoms: C_34  and  C_46
                            x       y       z     vdW  Elec       q    Type
                         _______ _______ _______ _____ _____    ______ ____

>  <TORSDO>
F 10

$$$$
=
 OpenBabel10222421423D

 47 51  0  0  1  0  0  0  0  0999 V2000
  189.2500  177.2450  139.3920 C   0  0  1  0  0  3  0  0  0  0  0  0
  191.5740  174.7700  137.6520 C   0  0  0  0  0  0  0  0  0  0  0  0
  188.8110  179.0130  137.6040 C   0  0  0  0  0  0  0  0  0  0  0  0
  191.0930  175.7750  138.4960 C   0  0  0  0  0  3  0  0  0  0  0  0
  187.5340  178.4250  137.0630 C   0  0  0  0  0  2  0  0  0  0  0  0
  185.4040  177.1970  137.5720 C   0  0  2  0  0  3  0  0  0  0  0  0
  186.1170  175.8100  135.5930 C   0  0  0  0  0  2  0  0  0  0  0  0
  186.9260  177.2450  137.8340 C   0  0  1  0  0  3  0  0  0  0  0  0
  188.8880  175.6030  137.4810 C   0  0  0  0  0  0  0  0  0  0  0  0
  190.7030  174.1450  136.7640 C   0  0  0  0  0  3  0  0  0  0  0  0
  189.4540  178.5590  138.8010 N   0  0  0  0  0  2  0  0  0  0  0  0
  189.7430  176.1750  138.4550 C   0  0  0  0  0  0  0  0  0  0  0  0
  185.0660  176.7950  136.1270 C   0  0  0  0  0  2  0  0  0  0  0  0
  186.6720  175.0970  136.6720 O   0  0  0  0  0  0  0  0  0  0  0  0
  187.5000  175.9810  137.3220 N   0  0  0  0  0  0  0  0  0  0  0  0
  189.3780  174.5650  136.6750 C   0  0  0  0  0  3  0  0  0  0  0  0
  189.3400  179.9610  136.9630 O   0  0  0  0  0  0  0  0  0  0  0  0
  185.8220  178.6080  140.2580 N   0  0  0  0  0  2  0  0  0  0  0  0
  184.7270  178.9130  139.3840 C   0  0  0  0  0  0  0  0  0  0  0  0
  183.8150  179.7020  139.7600 O   0  0  0  0  0  0  0  0  0  0  0  0
  184.6680  178.3690  138.0610 N   0  0  0  0  0  2  0  0  0  0  0  0
  185.9040  179.1510  141.6050 C   0  0  0  0  0  2  0  0  0  0  0  0
  184.7480  178.6420  142.4520 C   0  0  0  0  0  2  0  0  0  0  0  0
  185.6520  178.4490  146.1880 C   0  0  2  0  0  3  0  0  0  0  0  0
  185.2670  178.0090  143.7310 C   0  0  1  0  0  3  0  0  0  0  0  0
  187.1360  178.1210  146.0160 C   0  0  0  0  0  2  0  0  0  0  0  0
  186.7620  177.6910  143.5690 C   0  0  0  0  0  2  0  0  0  0  0  0
  185.0630  179.0000  144.8840 C   0  0  0  0  0  2  0  0  0  0  0  0
  187.3360  177.1270  144.8700 C   0  0  0  0  0  2  0  0  0  0  0  0
  185.5040  179.4080  147.1880 O   0  0  0  0  0  1  0  0  0  0  0  0
  191.1950  177.5540  140.9290 O   0  0  0  0  0  0  0  0  0  0  0  0
  189.1950  176.8060  141.7530 O   0  0  0  0  0  1  0  0  0  0  0  0
  189.8700  177.1810  140.7580 C   0  0  0  0  0  0  0  0  0  0  0  0
  192.9910  174.3070  137.7460 C   0  0  0  0  0  2  0  0  0  0  0  0
  194.0460  175.6990  136.0400 C   0  0  0  0  0  0  0  0  0  0  0  0
  194.3230  176.9020  135.6080 C   0  0  0  0  0  3  0  0  0  0  0  0
  193.7590  174.4940  136.4650 C   0  0  0  0  0  0  0  0  0  0  0  0
  194.5060  173.3370  135.8820 C   0  0  1  0  0  3  0  0  0  0  0  0
  195.6980  173.1230  136.5960 O   0  0  0  0  0  0  0  0  0  0  0  0
  195.9070  171.7480  136.5050 C   0  0  2  0  0  3  0  0  0  0  0  0
  193.7010  172.1830  135.9040 O   0  0  0  0  0  0  0  0  0  0  0  0
  194.6040  171.1420  136.0650 C   0  0  0  0  0  2  0  0  0  0  0  0
  195.4230  170.1210  137.9430 C   0  0  0  0  0  1  0  0  0  0  0  0
  196.2480  171.2360  137.7670 O   0  0  0  0  0  0  0  0  0  0  0  0
  195.7870  178.4820  134.3690 O   0  0  0  0  0  0  0  0  0  0  0  0
  196.2280  176.2320  134.3760 O   0  0  0  0  0  1  0  0  0  0  0  0
  195.4950  177.1780  134.7640 C   0  0  0  0  0  0  0  0  0  0  0  0
  1 33  1  1  0  0  0
  2 34  1  0  0  0  0
  2  4  1  0  0  0  0
  3 11  1  0  0  0  0
  5  3  1  0  0  0  0
  6  8  1  0  0  0  0
  6 21  1  6  0  0  0
  7 13  1  0  0  0  0
  7 14  1  0  0  0  0
  8  5  1  6  0  0  0
  9 12  1  0  0  0  0
 10  2  2  0  0  0  0
 11  1  1  0  0  0  0
 12  4  2  0  0  0  0
 12  1  1  0  0  0  0
 13  6  1  0  0  0  0
 14 15  1  0  0  0  0
 15  9  1  0  0  0  0
 15  8  1  0  0  0  0
 16 10  1  0  0  0  0
 16  9  2  0  0  0  0
 17  3  2  0  0  0  0
 18 22  1  0  0  0  0
 19 20  2  0  0  0  0
 19 18  1  0  0  0  0
 21 19  1  0  0  0  0
 22 23  1  0  0  0  0
 24 30  1  1  0  0  0
 25 23  1  6  0  0  0
 25 28  1  0  0  0  0
 26 24  1  0  0  0  0
 27 25  1  0  0  0  0
 27 29  1  0  0  0  0
 28 24  1  0  0  0  0
 29 26  1  0  0  0  0
 33 31  2  0  0  0  0
 33 32  1  0  0  0  0
 35 37  2  0  0  0  0
 36 35  2  0  0  0  0
 37 34  1  0  0  0  0
 38 41  1  0  0  0  0
 38 37  1  1  0  0  0
 38 39  1  0  0  0  0
 40 39  1  0  0  0  0
 40 44  1  1  0  0  0
 41 42  1  0  0  0  0
 42 40  1  0  0  0  0
 44 43  1  0  0  0  0
 45 47  2  0  0  0  0
 46 47  1  0  0  0  0
 47 36  1  0  0  0  0
M  END
>  <MODEL>
3

>  <REMARK>
 VINA RESULT:      -8.2      1.443      2.814
  Name = 
  10 active torsions:
  status: ('A' for Active; 'I' for Inactive)
    1  A    between atoms: C_2  and  C_46
    2  A    between atoms: CA_3  and  C_47
    3  A    between atoms: C_4  and  C_44
    4  A    between atoms: N_11  and  C_34
    5  A    between atoms: O_15  and  C_29
    6  A    between atoms: C_18  and  N_32
    7  A    between atoms: C_21  and  C_28
    8  A    between atoms: C_22  and  C_35
    9  A    between atoms: C_28  and  C_44
   10  A    between atoms: C_34  and  C_46
                            x       y       z     vdW  Elec       q    Type
                         _______ _______ _______ _____ _____    ______ ____

>  <TORSDO>
F 10

$$$$
=
 OpenBabel10222421423D

 47 51  0  0  1  0  0  0  0  0999 V2000
  187.2370  177.0870  137.6060 C   0  0  1  0  0  3  0  0  0  0  0  0
  189.9280  174.5820  136.5890 C   0  0  0  0  0  0  0  0  0  0  0  0
  185.7670  177.2640  135.5260 C   0  0  0  0  0  0  0  0  0  0  0  0
  189.2780  175.7750  136.9200 C   0  0  0  0  0  3  0  0  0  0  0  0
  184.7460  176.2320  135.9260 C   0  0  0  0  0  2  0  0  0  0  0  0
  183.4370  175.1830  137.7950 C   0  0  2  0  0  3  0  0  0  0  0  0
  184.2070  173.0500  136.6970 C   0  0  0  0  0  2  0  0  0  0  0  0
  184.8330  175.6790  137.3560 C   0  0  1  0  0  3  0  0  0  0  0  0
  187.1630  174.5890  137.1230 C   0  0  0  0  0  0  0  0  0  0  0  0
  189.2120  173.3890  136.5780 C   0  0  0  0  0  3  0  0  0  0  0  0
  186.7750  177.7730  136.4090 N   0  0  0  0  0  2  0  0  0  0  0  0
  187.9050  175.7900  137.2320 C   0  0  0  0  0  0  0  0  0  0  0  0
  182.9900  173.9260  137.0310 C   0  0  0  0  0  2  0  0  0  0  0  0
  185.2130  173.2720  137.6560 O   0  0  0  0  0  0  0  0  0  0  0  0
  185.7390  174.5090  137.3710 N   0  0  0  0  0  0  0  0  0  0  0  0
  187.8420  173.3970  136.8340 C   0  0  0  0  0  3  0  0  0  0  0  0
  185.7290  177.7030  134.3460 O   0  0  0  0  0  0  0  0  0  0  0  0
  183.5690  177.7070  139.5250 N   0  0  0  0  0  2  0  0  0  0  0  0
  182.3860  177.3140  138.8150 C   0  0  0  0  0  0  0  0  0  0  0  0
  181.3050  177.9450  138.9850 O   0  0  0  0  0  0  0  0  0  0  0  0
  182.4170  176.2370  137.8730 N   0  0  0  0  0  2  0  0  0  0  0  0
  183.5620  178.8010  140.4840 C   0  0  0  0  0  2  0  0  0  0  0  0
  184.9480  178.9890  141.0810 C   0  0  0  0  0  2  0  0  0  0  0  0
  184.4440  178.4080  144.8520 C   0  0  2  0  0  3  0  0  0  0  0  0
  185.0560  178.2550  142.4070 C   0  0  1  0  0  3  0  0  0  0  0  0
  185.9190  178.2770  145.2320 C   0  0  0  0  0  2  0  0  0  0  0  0
  186.5360  178.1330  142.8000 C   0  0  0  0  0  2  0  0  0  0  0  0
  184.2940  179.0560  143.4710 C   0  0  0  0  0  2  0  0  0  0  0  0
  186.6760  177.4720  144.1730 C   0  0  0  0  0  2  0  0  0  0  0  0
  183.7940  179.2040  145.7940 O   0  0  0  0  0  1  0  0  0  0  0  0
  188.6850  179.1090  137.8430 O   0  0  0  0  0  0  0  0  0  0  0  0
  188.2980  177.7610  139.6530 O   0  0  0  0  0  1  0  0  0  0  0  0
  188.1050  177.9940  138.4300 C   0  0  0  0  0  0  0  0  0  0  0  0
  191.3980  174.5630  136.3220 C   0  0  0  0  0  2  0  0  0  0  0  0
  191.8310  176.1400  138.1350 C   0  0  0  0  0  0  0  0  0  0  0  0
  191.5330  176.5500  139.3410 C   0  0  0  0  0  3  0  0  0  0  0  0
  192.1220  175.7380  136.9230 C   0  0  0  0  0  0  0  0  0  0  0  0
  193.4020  176.2050  136.3060 C   0  0  1  0  0  3  0  0  0  0  0  0
  194.4970  175.6170  136.9630 O   0  0  0  0  0  0  0  0  0  0  0  0
  195.4680  175.5000  135.9690 C   0  0  2  0  0  3  0  0  0  0  0  0
  193.4190  175.8900  134.9350 O   0  0  0  0  0  0  0  0  0  0  0  0
  194.7600  175.6680  134.6540 C   0  0  0  0  0  2  0  0  0  0  0  0
  197.1820  174.3030  135.2100 C   0  0  0  0  0  1  0  0  0  0  0  0
  196.0450  174.2210  136.0190 O   0  0  0  0  0  0  0  0  0  0  0  0
  192.1430  177.7030  141.4560 O   0  0  0  0  0  1  0  0  0  0  0  0
  193.6810  177.4400  139.7770 O   0  0  0  0  0  0  0  0  0  0  0  0
  192.5110  177.2420  140.1930 C   0  0  0  0  0  0  0  0  0  0  0  0
  1 33  1  6  0  0  0
  2  4  1  0  0  0  0
  3  5  1  0  0  0  0
  3 11  1  0  0  0  0
  4 12  2  0  0  0  0
  6 21  1  6  0  0  0
  7 13  1  0  0  0  0
  7 14  1  0  0  0  0
  8  5  1  6  0  0  0
  8 15  1  0  0  0  0
  8  6  1  0  0  0  0
  9 12  1  0  0  0  0
  9 15  1  0  0  0  0
 10  2  2  0  0  0  0
 10 16  1  0  0  0  0
 11  1  1  0  0  0  0
 12  1  1  0  0  0  0
 13  6  1  0  0  0  0
 15 14  1  0  0  0  0
 16  9  2  0  0  0  0
 17  3  2  0  0  0  0
 18 22  1  0  0  0  0
 19 20  2  0  0  0  0
 19 18  1  0  0  0  0
 21 19  1  0  0  0  0
 22 23  1  0  0  0  0
 24 26  1  0  0  0  0
 24 30  1  1  0  0  0
 25 23  1  6  0  0  0
 25 27  1  0  0  0  0
 25 28  1  0  0  0  0
 27 29  1  0  0  0  0
 28 24  1  0  0  0  0
 29 26  1  0  0  0  0
 31 33  2  0  0  0  0
 33 32  1  0  0  0  0
 34  2  1  0  0  0  0
 34 37  1  0  0  0  0
 35 36  2  0  0  0  0
 36 47  1  0  0  0  0
 37 35  2  0  0  0  0
 38 37  1  1  0  0  0
 38 39  1  0  0  0  0
 40 44  1  6  0  0  0
 40 39  1  0  0  0  0
 41 38  1  0  0  0  0
 42 41  1  0  0  0  0
 42 40  1  0  0  0  0
 43 44  1  0  0  0  0
 46 47  2  0  0  0  0
 47 45  1  0  0  0  0
M  END
>  <MODEL>
4

>  <REMARK>
 VINA RESULT:      -7.9      1.911      3.054
  Name = 
  10 active torsions:
  status: ('A' for Active; 'I' for Inactive)
    1  A    between atoms: C_2  and  C_46
    2  A    between atoms: CA_3  and  C_47
    3  A    between atoms: C_4  and  C_44
    4  A    between atoms: N_11  and  C_34
    5  A    between atoms: O_15  and  C_29
    6  A    between atoms: C_18  and  N_32
    7  A    between atoms: C_21  and  C_28
    8  A    between atoms: C_22  and  C_35
    9  A    between atoms: C_28  and  C_44
   10  A    between atoms: C_34  and  C_46
                            x       y       z     vdW  Elec       q    Type
                         _______ _______ _______ _____ _____    ______ ____

>  <TORSDO>
F 10

$$$$
=
 OpenBabel10222421423D

 47 51  0  0  1  0  0  0  0  0999 V2000
  186.8650  177.0420  137.2930 C   0  0  1  0  0  3  0  0  0  0  0  0
  189.2960  174.4680  135.8720 C   0  0  0  0  0  0  0  0  0  0  0  0
  185.0430  177.1910  135.5120 C   0  0  0  0  0  0  0  0  0  0  0  0
  188.7310  175.6790  136.2840 C   0  0  0  0  0  3  0  0  0  0  0  0
  184.0990  176.1860  136.1190 C   0  0  0  0  0  2  0  0  0  0  0  0
  183.1410  175.2070  138.2240 C   0  0  2  0  0  3  0  0  0  0  0  0
  183.6720  173.0340  137.0630 C   0  0  0  0  0  2  0  0  0  0  0  0
  184.4390  175.6680  137.5240 C   0  0  1  0  0  3  0  0  0  0  0  0
  186.6740  174.5340  136.9010 C   0  0  0  0  0  0  0  0  0  0  0  0
  188.5750  173.2870  136.0260 C   0  0  0  0  0  3  0  0  0  0  0  0
  186.2000  177.7050  136.1820 N   0  0  0  0  0  2  0  0  0  0  0  0
  187.4380  175.7250  136.8400 C   0  0  0  0  0  0  0  0  0  0  0  0
  182.5480  173.9380  137.5890 C   0  0  0  0  0  2  0  0  0  0  0  0
  184.8390  173.2630  137.8170 O   0  0  0  0  0  0  0  0  0  0  0  0
  185.3190  174.4840  137.4060 N   0  0  0  0  0  0  0  0  0  0  0  0
  187.2750  173.3240  136.5260 C   0  0  0  0  0  3  0  0  0  0  0  0
  184.7950  177.6010  134.3470 O   0  0  0  0  0  0  0  0  0  0  0  0
  183.3440  177.4110  140.3390 N   0  0  0  0  0  2  0  0  0  0  0  0
  182.1610  177.1910  139.5600 C   0  0  0  0  0  0  0  0  0  0  0  0
  181.1040  177.8350  139.8150 O   0  0  0  0  0  0  0  0  0  0  0  0
  182.1650  176.2780  138.4570 N   0  0  0  0  0  2  0  0  0  0  0  0
  183.3640  178.3360  141.4620 C   0  0  0  0  0  2  0  0  0  0  0  0
  184.7950  178.7200  141.8060 C   0  0  0  0  0  2  0  0  0  0  0  0
  185.4330  178.3700  145.5850 C   0  0  2  0  0  3  0  0  0  0  0  0
  185.2320  178.0360  143.0900 C   0  0  1  0  0  3  0  0  0  0  0  0
  186.9310  178.0690  145.5070 C   0  0  0  0  0  2  0  0  0  0  0  0
  186.7390  177.7450  143.0220 C   0  0  0  0  0  2  0  0  0  0  0  0
  184.9300  178.9730  144.2680 C   0  0  0  0  0  2  0  0  0  0  0  0
  187.2280  177.1310  144.3350 C   0  0  0  0  0  2  0  0  0  0  0  0
  185.1990  179.2820  146.6130 O   0  0  0  0  0  1  0  0  0  0  0  0
  188.4890  177.5900  139.1110 O   0  0  0  0  0  1  0  0  0  0  0  0
  188.1930  179.0420  137.3660 O   0  0  0  0  0  0  0  0  0  0  0  0
  187.8790  177.9550  137.9200 C   0  0  0  0  0  0  0  0  0  0  0  0
  190.6920  174.4180  135.3430 C   0  0  0  0  0  2  0  0  0  0  0  0
  192.1350  172.5020  135.8030 C   0  0  0  0  0  0  0  0  0  0  0  0
  192.6300  171.3650  135.3890 C   0  0  0  0  0  3  0  0  0  0  0  0
  191.6280  173.6340  136.2230 C   0  0  0  0  0  0  0  0  0  0  0  0
  192.2680  174.3070  137.3960 C   0  0  1  0  0  3  0  0  0  0  0  0
  193.5880  173.8500  137.5540 O   0  0  0  0  0  0  0  0  0  0  0  0
  194.2650  174.9430  138.0940 C   0  0  2  0  0  3  0  0  0  0  0  0
  192.2450  175.7040  137.2230 O   0  0  0  0  0  0  0  0  0  0  0  0
  193.3920  176.1450  137.8660 C   0  0  0  0  0  2  0  0  0  0  0  0
  196.4050  174.3370  138.1140 C   0  0  0  0  0  1  0  0  0  0  0  0
  195.4830  175.1260  137.4200 O   0  0  0  0  0  0  0  0  0  0  0  0
  193.9760  169.9660  136.9420 O   0  0  0  0  0  1  0  0  0  0  0  0
  194.9920  171.2380  135.3270 O   0  0  0  0  0  0  0  0  0  0  0  0
  193.9230  170.8560  135.8700 C   0  0  0  0  0  0  0  0  0  0  0  0
  1 33  1  6  0  0  0
  2 10  2  0  0  0  0
  2  4  1  0  0  0  0
  3  5  1  0  0  0  0
  3 11  1  0  0  0  0
  4 12  2  0  0  0  0
  6 21  1  6  0  0  0
  7 13  1  0  0  0  0
  7 14  1  0  0  0  0
  8  5  1  6  0  0  0
  8  6  1  0  0  0  0
  9 15  1  0  0  0  0
 10 16  1  0  0  0  0
 11  1  1  0  0  0  0
 12  9  1  0  0  0  0
 12  1  1  0  0  0  0
 13  6  1  0  0  0  0
 15  8  1  0  0  0  0
 15 14  1  0  0  0  0
 16  9  2  0  0  0  0
 17  3  2  0  0  0  0
 18 22  1  0  0  0  0
 19 20  2  0  0  0  0
 19 18  1  0  0  0  0
 21 19  1  0  0  0  0
 22 23  1  0  0  0  0
 24 30  1  1  0  0  0
 25 23  1  6  0  0  0
 25 28  1  0  0  0  0
 26 24  1  0  0  0  0
 27 25  1  0  0  0  0
 27 29  1  0  0  0  0
 28 24  1  0  0  0  0
 29 26  1  0  0  0  0
 32 33  2  0  0  0  0
 33 31  1  0  0  0  0
 34  2  1  0  0  0  0
 34 37  1  0  0  0  0
 35 37  2  0  0  0  0
 36 35  2  0  0  0  0
 36 47  1  0  0  0  0
 38 37  1  6  0  0  0
 38 39  1  0  0  0  0
 39 40  1  0  0  0  0
 40 44  1  6  0  0  0
 41 38  1  0  0  0  0
 41 42  1  0  0  0  0
 42 40  1  0  0  0  0
 44 43  1  0  0  0  0
 46 47  2  0  0  0  0
 47 45  1  0  0  0  0
M  END
>  <MODEL>
5

>  <REMARK>
 VINA RESULT:      -7.8      2.261      3.397
  Name = 
  10 active torsions:
  status: ('A' for Active; 'I' for Inactive)
    1  A    between atoms: C_2  and  C_46
    2  A    between atoms: CA_3  and  C_47
    3  A    between atoms: C_4  and  C_44
    4  A    between atoms: N_11  and  C_34
    5  A    between atoms: O_15  and  C_29
    6  A    between atoms: C_18  and  N_32
    7  A    between atoms: C_21  and  C_28
    8  A    between atoms: C_22  and  C_35
    9  A    between atoms: C_28  and  C_44
   10  A    between atoms: C_34  and  C_46
                            x       y       z     vdW  Elec       q    Type
                         _______ _______ _______ _____ _____    ______ ____

>  <TORSDO>
F 10

$$$$
=
 OpenBabel10222421423D

 47 51  0  0  1  0  0  0  0  0999 V2000
  194.4840  174.5260  137.6990 C   0  0  1  0  0  3  0  0  0  0  0  0
  194.6280  171.6340  135.2160 C   0  0  0  0  0  0  0  0  0  0  0  0
  193.6400  176.4820  136.2920 C   0  0  0  0  0  0  0  0  0  0  0  0
  195.0080  172.6640  136.0810 C   0  0  0  0  0  3  0  0  0  0  0  0
  192.1760  176.3300  136.6130 C   0  0  0  0  0  2  0  0  0  0  0  0
  190.4530  175.7300  138.3380 C   0  0  2  0  0  3  0  0  0  0  0  0
  189.5130  174.3580  136.4450 C   0  0  0  0  0  2  0  0  0  0  0  0
  191.8010  175.3170  137.7040 C   0  0  1  0  0  3  0  0  0  0  0  0
  192.6720  173.2140  136.4850 C   0  0  0  0  0  0  0  0  0  0  0  0
  193.2770  171.3580  135.0280 C   0  0  0  0  0  3  0  0  0  0  0  0
  194.6830  175.7680  136.9680 N   0  0  0  0  0  2  0  0  0  0  0  0
  194.0440  173.4370  136.7570 C   0  0  0  0  0  0  0  0  0  0  0  0
  189.2690  175.5580  137.3720 C   0  0  0  0  0  2  0  0  0  0  0  0
  190.3490  173.4330  137.0980 O   0  0  0  0  0  0  0  0  0  0  0  0
  191.6060  173.9870  137.0870 N   0  0  0  0  0  0  0  0  0  0  0  0
  192.3120  172.1470  135.6500 C   0  0  0  0  0  3  0  0  0  0  0  0
  193.9620  177.2850  135.3760 O   0  0  0  0  0  0  0  0  0  0  0  0
  190.2550  176.1610  141.3630 N   0  0  0  0  0  2  0  0  0  0  0  0
  190.2010  177.2410  140.4210 C   0  0  0  0  0  0  0  0  0  0  0  0
  189.9400  178.4130  140.8130 O   0  0  0  0  0  0  0  0  0  0  0  0
  190.4820  177.0220  139.0350 N   0  0  0  0  0  2  0  0  0  0  0  0
  189.9750  176.3610  142.7770 C   0  0  0  0  0  2  0  0  0  0  0  0
  188.4830  176.5590  142.9990 C   0  0  0  0  0  2  0  0  0  0  0  0
  188.9370  177.8060  146.6100 C   0  0  2  0  0  3  0  0  0  0  0  0
  188.2420  177.4410  144.2100 C   0  0  1  0  0  3  0  0  0  0  0  0
  187.4820  177.6550  147.0580 C   0  0  0  0  0  2  0  0  0  0  0  0
  186.7850  177.2820  144.6720 C   0  0  0  0  0  2  0  0  0  0  0  0
  189.1980  177.0060  145.3290 C   0  0  0  0  0  2  0  0  0  0  0  0
  186.5310  178.0950  145.9430 C   0  0  0  0  0  2  0  0  0  0  0  0
  189.7800  177.3320  147.6140 O   0  0  0  0  0  1  0  0  0  0  0  0
  196.8260  175.0040  138.4260 O   0  0  0  0  0  0  0  0  0  0  0  0
  195.7380  173.1520  139.2190 O   0  0  0  0  0  1  0  0  0  0  0  0
  195.7130  174.1780  138.4880 C   0  0  0  0  0  0  0  0  0  0  0  0
  195.6570  170.7770  134.5520 C   0  0  0  0  0  2  0  0  0  0  0  0
  197.7560  171.3030  135.6830 C   0  0  0  0  0  0  0  0  0  0  0  0
  198.7100  172.1710  135.8980 C   0  0  0  0  0  3  0  0  0  0  0  0
  196.8070  170.4280  135.4580 C   0  0  0  0  0  0  0  0  0  0  0  0
  196.6870  169.2570  136.3800 C   0  0  1  0  0  3  0  0  0  0  0  0
  196.6840  169.6930  137.7160 O   0  0  0  0  0  0  0  0  0  0  0  0
  195.8890  168.7580  138.3780 C   0  0  2  0  0  3  0  0  0  0  0  0
  195.5140  168.5350  136.0910 O   0  0  0  0  0  0  0  0  0  0  0  0
  195.1240  168.0160  137.3180 C   0  0  0  0  0  2  0  0  0  0  0  0
  194.2940  168.4000  139.8860 C   0  0  0  0  0  1  0  0  0  0  0  0
  194.9810  169.4190  139.2200 O   0  0  0  0  0  0  0  0  0  0  0  0
  199.9050  170.9680  137.7150 O   0  0  0  0  0  1  0  0  0  0  0  0
  199.7990  173.2580  137.6950 O   0  0  0  0  0  0  0  0  0  0  0  0
  199.5010  172.1710  137.1370 C   0  0  0  0  0  0  0  0  0  0  0  0
  1 33  1  6  0  0  0
  2  4  1  0  0  0  0
  3  5  1  0  0  0  0
  3 11  1  0  0  0  0
  4 12  2  0  0  0  0
  6 21  1  6  0  0  0
  7 14  1  0  0  0  0
  7 13  1  0  0  0  0
  8  5  1  6  0  0  0
  8  6  1  0  0  0  0
  9 12  1  0  0  0  0
  9 15  1  0  0  0  0
 10  2  2  0  0  0  0
 10 16  1  0  0  0  0
 11  1  1  0  0  0  0
 12  1  1  0  0  0  0
 13  6  1  0  0  0  0
 15 14  1  0  0  0  0
 15  8  1  0  0  0  0
 16  9  2  0  0  0  0
 17  3  2  0  0  0  0
 18 22  1  0  0  0  0
 19 20  2  0  0  0  0
 19 18  1  0  0  0  0
 21 19  1  0  0  0  0
 22 23  1  0  0  0  0
 24 26  1  0  0  0  0
 24 30  1  1  0  0  0
 25 23  1  6  0  0  0
 25 27  1  0  0  0  0
 25 28  1  0  0  0  0
 27 29  1  0  0  0  0
 28 24  1  0  0  0  0
 29 26  1  0  0  0  0
 31 33  2  0  0  0  0
 33 32  1  0  0  0  0
 34  2  1  0  0  0  0
 34 37  1  0  0  0  0
 35 36  2  0  0  0  0
 36 47  1  0  0  0  0
 37 35  2  0  0  0  0
 38 37  1  6  0  0  0
 38 39  1  0  0  0  0
 39 40  1  0  0  0  0
 40 44  1  1  0  0  0
 41 38  1  0  0  0  0
 41 42  1  0  0  0  0
 42 40  1  0  0  0  0
 44 43  1  0  0  0  0
 47 46  2  0  0  0  0
 47 45  1  0  0  0  0
M  END
>  <MODEL>
6

>  <REMARK>
 VINA RESULT:      -7.8      3.290      5.301
  Name = 
  10 active torsions:
  status: ('A' for Active; 'I' for Inactive)
    1  A    between atoms: C_2  and  C_46
    2  A    between atoms: CA_3  and  C_47
    3  A    between atoms: C_4  and  C_44
    4  A    between atoms: N_11  and  C_34
    5  A    between atoms: O_15  and  C_29
    6  A    between atoms: C_18  and  N_32
    7  A    between atoms: C_21  and  C_28
    8  A    between atoms: C_22  and  C_35
    9  A    between atoms: C_28  and  C_44
   10  A    between atoms: C_34  and  C_46
                            x       y       z     vdW  Elec       q    Type
                         _______ _______ _______ _____ _____    ______ ____

>  <TORSDO>
F 10

$$$$
=
 OpenBabel10222421423D

 47 51  0  0  1  0  0  0  0  0999 V2000
  189.7510  177.2340  139.2010 C   0  0  1  0  0  3  0  0  0  0  0  0
  192.1410  175.4290  136.8380 C   0  0  0  0  0  0  0  0  0  0  0  0
  188.9470  179.2310  137.8280 C   0  0  0  0  0  0  0  0  0  0  0  0
  191.6420  176.1940  137.8970 C   0  0  0  0  0  3  0  0  0  0  0  0
  187.6930  178.5970  137.2850 C   0  0  0  0  0  2  0  0  0  0  0  0
  185.7690  177.0400  137.7130 C   0  0  2  0  0  3  0  0  0  0  0  0
  186.4250  176.1380  135.4530 C   0  0  0  0  0  2  0  0  0  0  0  0
  187.2960  177.2290  137.8590 C   0  0  1  0  0  3  0  0  0  0  0  0
  189.3780  175.9370  137.0420 C   0  0  0  0  0  0  0  0  0  0  0  0
  191.2590  174.8730  135.9170 C   0  0  0  0  0  3  0  0  0  0  0  0
  189.7520  178.6490  138.8610 N   0  0  0  0  0  2  0  0  0  0  0  0
  190.2600  176.4230  138.0390 C   0  0  0  0  0  0  0  0  0  0  0  0
  185.3340  176.8700  136.2480 C   0  0  0  0  0  2  0  0  0  0  0  0
  187.1590  175.3150  136.3270 O   0  0  0  0  0  0  0  0  0  0  0  0
  187.9480  176.1620  137.0680 N   0  0  0  0  0  0  0  0  0  0  0  0
  189.8930  175.1340  136.0160 C   0  0  0  0  0  3  0  0  0  0  0  0
  189.3040  180.3380  137.3440 O   0  0  0  0  0  0  0  0  0  0  0  0
  186.5060  178.2800  140.4140 N   0  0  0  0  0  2  0  0  0  0  0  0
  185.2120  178.4360  139.8160 C   0  0  0  0  0  0  0  0  0  0  0  0
  184.2800  178.9980  140.4570 O   0  0  0  0  0  0  0  0  0  0  0  0
  184.9640  178.0020  138.4750 N   0  0  0  0  0  2  0  0  0  0  0  0
  186.7820  178.7160  141.7740 C   0  0  0  0  0  2  0  0  0  0  0  0
  187.3710  177.5730  142.5870 C   0  0  0  0  0  2  0  0  0  0  0  0
  184.7690  178.4110  145.2950 C   0  0  2  0  0  3  0  0  0  0  0  0
  186.6660  177.4600  143.9280 C   0  0  1  0  0  3  0  0  0  0  0  0
  185.7510  178.7770  146.4090 C   0  0  0  0  0  2  0  0  0  0  0  0
  187.6460  177.8390  145.0490 C   0  0  0  0  0  2  0  0  0  0  0  0
  185.4670  178.4170  143.9300 C   0  0  0  0  0  2  0  0  0  0  0  0
  186.9430  177.8160  146.4080 C   0  0  0  0  0  2  0  0  0  0  0  0
  183.7320  179.3420  145.2720 O   0  0  0  0  0  1  0  0  0  0  0  0
  191.6580  177.7300  140.7360 O   0  0  0  0  0  0  0  0  0  0  0  0
  190.1020  176.1550  141.3180 O   0  0  0  0  0  1  0  0  0  0  0  0
  190.5080  176.9990  140.4750 C   0  0  0  0  0  0  0  0  0  0  0  0
  193.6030  175.1370  136.7300 C   0  0  0  0  0  2  0  0  0  0  0  0
  193.6650  172.6970  136.6560 C   0  0  0  0  0  0  0  0  0  0  0  0
  193.3400  171.6000  136.0230 C   0  0  0  0  0  3  0  0  0  0  0  0
  193.9790  173.7950  137.2980 C   0  0  0  0  0  0  0  0  0  0  0  0
  195.0150  173.7180  138.3740 C   0  0  1  0  0  3  0  0  0  0  0  0
  196.2970  173.6280  137.8040 O   0  0  0  0  0  0  0  0  0  0  0  0
  197.1250  174.2670  138.7270 C   0  0  2  0  0  3  0  0  0  0  0  0
  194.9230  174.8440  139.2140 O   0  0  0  0  0  0  0  0  0  0  0  0
  196.2280  175.0620  139.6330 C   0  0  0  0  0  2  0  0  0  0  0  0
  198.3860  174.4550  136.9040 C   0  0  0  0  0  1  0  0  0  0  0  0
  197.9940  175.1430  138.0570 O   0  0  0  0  0  0  0  0  0  0  0  0
  195.2800  170.3400  136.9300 O   0  0  0  0  0  1  0  0  0  0  0  0
  193.7560  169.3190  135.5550 O   0  0  0  0  0  0  0  0  0  0  0  0
  194.1210  170.3620  136.1570 C   0  0  0  0  0  0  0  0  0  0  0  0
  1 33  1  1  0  0  0
  2  4  1  0  0  0  0
  3 11  1  0  0  0  0
  4 12  2  0  0  0  0
  5  3  1  0  0  0  0
  6  8  1  0  0  0  0
  6 21  1  6  0  0  0
  7 13  1  0  0  0  0
  7 14  1  0  0  0  0
  8  5  1  6  0  0  0
  9 15  1  0  0  0  0
  9 12  1  0  0  0  0
 10 16  1  0  0  0  0
 10  2  2  0  0  0  0
 11  1  1  0  0  0  0
 12  1  1  0  0  0  0
 13  6  1  0  0  0  0
 14 15  1  0  0  0  0
 15  8  1  0  0  0  0
 16  9  2  0  0  0  0
 17  3  2  0  0  0  0
 18 22  1  0  0  0  0
 19 18  1  0  0  0  0
 19 20  2  0  0  0  0
 21 19  1  0  0  0  0
 22 23  1  0  0  0  0
 24 30  1  6  0  0  0
 24 26  1  0  0  0  0
 25 23  1  6  0  0  0
 25 28  1  0  0  0  0
 25 27  1  0  0  0  0
 27 29  1  0  0  0  0
 28 24  1  0  0  0  0
 29 26  1  0  0  0  0
 33 31  2  0  0  0  0
 33 32  1  0  0  0  0
 34  2  1  0  0  0  0
 34 37  1  0  0  0  0
 35 37  2  0  0  0  0
 36 47  1  0  0  0  0
 36 35  2  0  0  0  0
 38 37  1  6  0  0  0
 38 41  1  0  0  0  0
 39 38  1  0  0  0  0
 39 40  1  0  0  0  0
 40 44  1  6  0  0  0
 40 42  1  0  0  0  0
 41 42  1  0  0  0  0
 43 44  1  0  0  0  0
 46 47  2  0  0  0  0
 47 45  1  0  0  0  0
M  END
>  <MODEL>
7

>  <REMARK>
 VINA RESULT:      -7.7      1.638      2.573
  Name = 
  10 active torsions:
  status: ('A' for Active; 'I' for Inactive)
    1  A    between atoms: C_2  and  C_46
    2  A    between atoms: CA_3  and  C_47
    3  A    between atoms: C_4  and  C_44
    4  A    between atoms: N_11  and  C_34
    5  A    between atoms: O_15  and  C_29
    6  A    between atoms: C_18  and  N_32
    7  A    between atoms: C_21  and  C_28
    8  A    between atoms: C_22  and  C_35
    9  A    between atoms: C_28  and  C_44
   10  A    between atoms: C_34  and  C_46
                            x       y       z     vdW  Elec       q    Type
                         _______ _______ _______ _____ _____    ______ ____

>  <TORSDO>
F 10

$$$$
=
 OpenBabel10222421423D

 47 51  0  0  1  0  0  0  0  0999 V2000
  189.8470  176.3650  137.8750 C   0  0  1  0  0  3  0  0  0  0  0  0
  191.0550  173.1620  136.1900 C   0  0  0  0  0  0  0  0  0  0  0  0
  188.9220  177.7480  135.9380 C   0  0  0  0  0  0  0  0  0  0  0  0
  191.0420  174.4030  136.8350 C   0  0  0  0  0  3  0  0  0  0  0  0
  187.4840  177.3170  136.0650 C   0  0  0  0  0  2  0  0  0  0  0  0
  185.6120  176.6730  137.6090 C   0  0  2  0  0  3  0  0  0  0  0  0
  185.3570  174.7720  135.9740 C   0  0  0  0  0  2  0  0  0  0  0  0
  187.1130  176.4780  137.2960 C   0  0  1  0  0  3  0  0  0  0  0  0
  188.6110  174.4470  136.7480 C   0  0  0  0  0  0  0  0  0  0  0  0
  189.8500  172.5400  135.8750 C   0  0  0  0  0  3  0  0  0  0  0  0
  189.9330  177.4510  136.9090 N   0  0  0  0  0  2  0  0  0  0  0  0
  189.8290  175.0390  137.1610 C   0  0  0  0  0  0  0  0  0  0  0  0
  184.7000  176.0370  136.5470 C   0  0  0  0  0  2  0  0  0  0  0  0
  186.2160  174.2190  136.9430 O   0  0  0  0  0  0  0  0  0  0  0  0
  187.3140  175.0450  136.9880 N   0  0  0  0  0  0  0  0  0  0  0  0
  188.6430  173.1820  136.1440 C   0  0  0  0  0  3  0  0  0  0  0  0
  189.2500  178.4090  134.9170 O   0  0  0  0  0  0  0  0  0  0  0  0
  186.6480  178.2370  140.0300 N   0  0  0  0  0  2  0  0  0  0  0  0
  185.5750  178.7080  139.2030 C   0  0  0  0  0  0  0  0  0  0  0  0
  184.9300  179.7440  139.5290 O   0  0  0  0  0  0  0  0  0  0  0  0
  185.2430  178.0450  137.9790 N   0  0  0  0  0  2  0  0  0  0  0  0
  187.0040  178.8960  141.2760 C   0  0  0  0  0  2  0  0  0  0  0  0
  187.5650  177.8870  142.2670 C   0  0  0  0  0  2  0  0  0  0  0  0
  184.5380  178.6260  144.5240 C   0  0  2  0  0  3  0  0  0  0  0  0
  186.5830  177.6590  143.4020 C   0  0  1  0  0  3  0  0  0  0  0  0
  185.2900  178.6800  145.8550 C   0  0  0  0  0  2  0  0  0  0  0  0
  187.3310  177.7260  144.7420 C   0  0  0  0  0  2  0  0  0  0  0  0
  185.5090  178.7540  143.3450 C   0  0  0  0  0  2  0  0  0  0  0  0
  186.3560  177.5830  145.9120 C   0  0  0  0  0  2  0  0  0  0  0  0
  183.6240  179.6780  144.4690 O   0  0  0  0  0  1  0  0  0  0  0  0
  192.2150  176.8630  138.4990 O   0  0  0  0  0  0  0  0  0  0  0  0
  190.7100  176.2550  140.1130 O   0  0  0  0  0  1  0  0  0  0  0  0
  190.9410  176.4830  138.8960 C   0  0  0  0  0  0  0  0  0  0  0  0
  192.3440  172.4630  135.9070 C   0  0  0  0  0  2  0  0  0  0  0  0
  193.8030  174.3580  135.4140 C   0  0  0  0  0  0  0  0  0  0  0  0
  194.0610  175.3860  134.6480 C   0  0  0  0  0  3  0  0  0  0  0  0
  193.5510  173.3210  136.1730 C   0  0  0  0  0  0  0  0  0  0  0  0
  194.2430  173.2240  137.4960 C   0  0  1  0  0  3  0  0  0  0  0  0
  195.5120  172.6410  137.3360 O   0  0  0  0  0  0  0  0  0  0  0  0
  196.2850  173.2290  138.3370 C   0  0  2  0  0  3  0  0  0  0  0  0
  194.3530  174.5010  138.0770 O   0  0  0  0  0  0  0  0  0  0  0  0
  195.5320  174.4410  138.8070 C   0  0  0  0  0  2  0  0  0  0  0  0
  197.2420  174.0150  136.4890 C   0  0  0  0  0  1  0  0  0  0  0  0
  197.5200  173.6330  137.8050 O   0  0  0  0  0  0  0  0  0  0  0  0
  196.0300  176.9020  134.5690 O   0  0  0  0  0  0  0  0  0  0  0  0
  194.3470  177.2400  136.0890 O   0  0  0  0  0  1  0  0  0  0  0  0
  194.8050  176.5560  135.1380 C   0  0  0  0  0  0  0  0  0  0  0  0
  1 33  1  1  0  0  0
  2  4  1  0  0  0  0
  3  5  1  0  0  0  0
  3 11  1  0  0  0  0
  4 12  2  0  0  0  0
  6 21  1  6  0  0  0
  7 13  1  0  0  0  0
  7 14  1  0  0  0  0
  8  5  1  6  0  0  0
  8  6  1  0  0  0  0
  9 15  1  0  0  0  0
  9 12  1  0  0  0  0
 10 16  1  0  0  0  0
 10  2  2  0  0  0  0
 11  1  1  0  0  0  0
 12  1  1  0  0  0  0
 13  6  1  0  0  0  0
 14 15  1  0  0  0  0
 15  8  1  0  0  0  0
 16  9  2  0  0  0  0
 17  3  2  0  0  0  0
 18 22  1  0  0  0  0
 19 20  2  0  0  0  0
 19 18  1  0  0  0  0
 21 19  1  0  0  0  0
 22 23  1  0  0  0  0
 24 30  1  1  0  0  0
 24 26  1  0  0  0  0
 25 23  1  6  0  0  0
 25 27  1  0  0  0  0
 26 29  1  0  0  0  0
 27 29  1  0  0  0  0
 28 25  1  0  0  0  0
 28 24  1  0  0  0  0
 31 33  2  0  0  0  0
 33 32  1  0  0  0  0
 34 37  1  0  0  0  0
 34  2  1  0  0  0  0
 35 37  2  0  0  0  0
 36 47  1  0  0  0  0
 36 35  2  0  0  0  0
 38 37  1  6  0  0  0
 38 41  1  0  0  0  0
 39 38  1  0  0  0  0
 39 40  1  0  0  0  0
 40 44  1  6  0  0  0
 40 42  1  0  0  0  0
 41 42  1  0  0  0  0
 43 44  1  0  0  0  0
 45 47  2  0  0  0  0
 47 46  1  0  0  0  0
M  END
>  <MODEL>
8

>  <REMARK>
 VINA RESULT:      -7.3      1.035      2.289
  Name = 
  10 active torsions:
  status: ('A' for Active; 'I' for Inactive)
    1  A    between atoms: C_2  and  C_46
    2  A    between atoms: CA_3  and  C_47
    3  A    between atoms: C_4  and  C_44
    4  A    between atoms: N_11  and  C_34
    5  A    between atoms: O_15  and  C_29
    6  A    between atoms: C_18  and  N_32
    7  A    between atoms: C_21  and  C_28
    8  A    between atoms: C_22  and  C_35
    9  A    between atoms: C_28  and  C_44
   10  A    between atoms: C_34  and  C_46
                            x       y       z     vdW  Elec       q    Type
                         _______ _______ _______ _____ _____    ______ ____

>  <TORSDO>
F 10

$$$$
=
 OpenBabel10222421423D

 47 51  0  0  1  0  0  0  0  0999 V2000
  187.8770  178.0300  139.9210 C   0  0  1  0  0  3  0  0  0  0  0  0
  190.5900  178.1460  142.6010 C   0  0  0  0  0  0  0  0  0  0  0  0
  188.9690  179.1710  137.9150 C   0  0  0  0  0  0  0  0  0  0  0  0
  189.4230  178.4090  141.8780 C   0  0  0  0  0  3  0  0  0  0  0  0
  189.4790  177.9240  137.2400 C   0  0  0  0  0  2  0  0  0  0  0  0
  189.0720  175.5030  136.7130 C   0  0  2  0  0  3  0  0  0  0  0  0
  191.4560  175.2720  137.4940 C   0  0  0  0  0  2  0  0  0  0  0  0
  189.0230  176.5780  137.8220 C   0  0  1  0  0  3  0  0  0  0  0  0
  190.1250  176.8560  140.1410 C   0  0  0  0  0  0  0  0  0  0  0  0
  191.4940  177.2020  142.1250 C   0  0  0  0  0  3  0  0  0  0  0  0
  188.0670  179.1640  139.0280 N   0  0  0  0  0  2  0  0  0  0  0  0
  189.1530  177.7420  140.6670 C   0  0  0  0  0  0  0  0  0  0  0  0
  190.5090  175.1560  136.2910 C   0  0  0  0  0  2  0  0  0  0  0  0
  190.7310  175.0360  138.6770 O   0  0  0  0  0  0  0  0  0  0  0  0
  189.9670  176.1600  138.8810 N   0  0  0  0  0  0  0  0  0  0  0  0
  191.2660  176.5720  140.9040 C   0  0  0  0  0  3  0  0  0  0  0  0
  189.3610  180.2820  137.4700 O   0  0  0  0  0  0  0  0  0  0  0  0
  186.0780  176.1130  136.9230 N   0  0  0  0  0  2  0  0  0  0  0  0
  186.7280  175.8420  135.6750 C   0  0  0  0  0  0  0  0  0  0  0  0
  186.0480  175.7230  134.6170 O   0  0  0  0  0  0  0  0  0  0  0  0
  188.1540  175.7450  135.5930 N   0  0  0  0  0  2  0  0  0  0  0  0
  184.6310  176.2190  137.0290 C   0  0  0  0  0  2  0  0  0  0  0  0
  184.2450  177.5170  137.7220 C   0  0  0  0  0  2  0  0  0  0  0  0
  181.0290  178.7480  139.4390 C   0  0  2  0  0  3  0  0  0  0  0  0
  182.7920  177.4680  138.1640 C   0  0  1  0  0  3  0  0  0  0  0  0
  180.8280  177.5500  140.3700 C   0  0  0  0  0  2  0  0  0  0  0  0
  182.5890  176.2740  139.1100 C   0  0  0  0  0  2  0  0  0  0  0  0
  182.4600  178.7780  138.8910 C   0  0  0  0  0  2  0  0  0  0  0  0
  181.1540  176.2460  139.6390 C   0  0  0  0  0  2  0  0  0  0  0  0
  180.7950  179.9260  140.1480 O   0  0  0  0  0  1  0  0  0  0  0  0
  185.6830  179.1180  140.4140 O   0  0  0  0  0  0  0  0  0  0  0  0
  186.6070  177.6680  141.9270 O   0  0  0  0  0  1  0  0  0  0  0  0
  186.6950  178.2600  140.8180 C   0  0  0  0  0  0  0  0  0  0  0  0
  190.8380  178.8110  143.9160 C   0  0  0  0  0  2  0  0  0  0  0  0
  191.2240  177.0550  145.5690 C   0  0  0  0  0  0  0  0  0  0  0  0
  192.0240  176.1340  146.0390 C   0  0  0  0  0  3  0  0  0  0  0  0
  190.4170  177.9690  145.0910 C   0  0  0  0  0  0  0  0  0  0  0  0
  189.2640  178.4120  145.9350 C   0  0  1  0  0  3  0  0  0  0  0  0
  188.0970  178.4920  145.1550 O   0  0  0  0  0  0  0  0  0  0  0  0
  187.0700  178.1860  146.0470 C   0  0  2  0  0  3  0  0  0  0  0  0
  189.0830  177.5200  147.0090 O   0  0  0  0  0  0  0  0  0  0  0  0
  187.7150  177.5460  147.2440 C   0  0  0  0  0  2  0  0  0  0  0  0
  185.0720  178.0230  145.0850 C   0  0  0  0  0  1  0  0  0  0  0  0
  186.1880  177.2680  145.4560 O   0  0  0  0  0  0  0  0  0  0  0  0
  192.9810  176.0860  148.3320 O   0  0  0  0  0  1  0  0  0  0  0  0
  191.0410  174.9660  147.8460 O   0  0  0  0  0  0  0  0  0  0  0  0
  191.9780  175.7020  147.4430 C   0  0  0  0  0  0  0  0  0  0  0  0
  1 12  1  0  0  0  0
  1 33  1  1  0  0  0
  2 34  1  0  0  0  0
  3 11  1  0  0  0  0
  4  2  2  0  0  0  0
  5  3  1  0  0  0  0
  6 21  1  6  0  0  0
  6  8  1  0  0  0  0
  7 14  1  0  0  0  0
  8  5  1  6  0  0  0
  8 15  1  0  0  0  0
  9 12  2  0  0  0  0
  9 16  1  0  0  0  0
 10  2  1  0  0  0  0
 11  1  1  0  0  0  0
 12  4  1  0  0  0  0
 13  6  1  0  0  0  0
 13  7  1  0  0  0  0
 14 15  1  0  0  0  0
 15  9  1  0  0  0  0
 16 10  2  0  0  0  0
 17  3  2  0  0  0  0
 18 22  1  0  0  0  0
 19 18  1  0  0  0  0
 20 19  2  0  0  0  0
 21 19  1  0  0  0  0
 22 23  1  0  0  0  0
 24 30  1  1  0  0  0
 24 26  1  0  0  0  0
 25 23  1  1  0  0  0
 25 28  1  0  0  0  0
 25 27  1  0  0  0  0
 27 29  1  0  0  0  0
 28 24  1  0  0  0  0
 29 26  1  0  0  0  0
 31 33  2  0  0  0  0
 33 32  1  0  0  0  0
 34 37  1  0  0  0  0
 35 36  2  0  0  0  0
 36 47  1  0  0  0  0
 37 35  2  0  0  0  0
 38 37  1  6  0  0  0
 38 41  1  0  0  0  0
 39 38  1  0  0  0  0
 39 40  1  0  0  0  0
 40 44  1  6  0  0  0
 40 42  1  0  0  0  0
 41 42  1  0  0  0  0
 43 44  1  0  0  0  0
 47 46  2  0  0  0  0
 47 45  1  0  0  0  0
M  END
>  <MODEL>
9

>  <REMARK>
 VINA RESULT:      -7.3      3.111      8.001
  Name = 
  10 active torsions:
  status: ('A' for Active; 'I' for Inactive)
    1  A    between atoms: C_2  and  C_46
    2  A    between atoms: CA_3  and  C_47
    3  A    between atoms: C_4  and  C_44
    4  A    between atoms: N_11  and  C_34
    5  A    between atoms: O_15  and  C_29
    6  A    between atoms: C_18  and  N_32
    7  A    between atoms: C_21  and  C_28
    8  A    between atoms: C_22  and  C_35
    9  A    between atoms: C_28  and  C_44
   10  A    between atoms: C_34  and  C_46
                            x       y       z     vdW  Elec       q    Type
                         _______ _______ _______ _____ _____    ______ ____

>  <TORSDO>
F 10

$$$$
