=
 OpenBabel10232410273D

 43 49  0  0  1  0  0  0  0  0999 V2000
  186.9650  177.8730  141.4090 N   0  0  0  0  0  0  0  0  0  0  0  0
  185.7660  178.3120  140.7150 C   0  0  0  0  0  2  0  0  0  0  0  0
  188.2530  178.2310  141.3070 C   0  0  0  0  0  0  0  0  0  0  0  0
  188.4470  176.4560  137.9330 C   0  0  0  0  0  2  0  0  0  0  0  0
  186.7270  177.7180  142.7010 C   0  0  0  0  0  0  0  0  0  0  0  0
  182.5310  175.6560  138.5990 C   0  0  0  0  0  2  0  0  0  0  0  0
  188.7780  178.2150  142.5940 C   0  0  0  0  0  0  0  0  0  0  0  0
  182.9050  178.5850  139.2760 C   0  0  0  0  0  0  0  0  0  0  0  0
  189.9040  177.8230  139.4210 C   0  0  2  0  0  3  0  0  0  0  0  0
  183.4040  174.7160  136.4780 C   0  0  0  0  0  0  0  0  0  0  0  0
  185.3800  174.0560  135.1520 C   0  0  0  0  0  2  0  0  0  0  0  0
  187.7960  177.9480  143.4910 N   0  0  0  0  0  0  0  0  0  0  0  0
  182.6830  179.1420  140.4350 C   0  0  0  0  0  0  0  0  0  0  0  0
  188.8880  178.7760  140.0620 C   0  0  0  0  0  2  0  0  0  0  0  0
  189.3350  176.4360  139.1610 C   0  0  0  0  0  2  0  0  0  0  0  0
  186.4190  173.8910  136.2490 C   0  0  0  0  0  2  0  0  0  0  0  0
  183.3500  178.7800  141.6890 C   0  0  0  0  0  0  0  0  0  0  0  0
  184.7520  178.3300  141.8440 C   0  0  0  0  0  0  0  0  0  0  0  0
  180.2390  179.8360  140.1190 N   0  0  0  0  0  1  0  0  0  0  0  0
  183.1420  173.5200  136.7830 O   0  0  0  0  0  0  0  0  0  0  0  0
  182.5360  178.9390  142.6840 N   0  0  0  0  0  0  0  0  0  0  0  0
  185.3390  177.9780  143.0000 C   0  0  0  0  0  0  0  0  0  0  0  0
  181.2920  179.3710  142.2090 N   0  0  0  0  0  0  0  0  0  0  0  0
  182.6380  175.8370  137.0970 C   0  0  2  0  0  3  0  0  0  0  0  0
  187.1410  175.2050  136.4760 C   0  0  0  0  0  2  0  0  0  0  0  0
  187.9520  175.1180  137.6750 N   0  0  0  0  0  2  0  0  0  0  0  0
  183.5700  176.6020  138.0250 C   0  0  1  0  0  3  0  0  0  0  0  0
  184.7360  177.9780  144.3650 C   0  0  0  0  0  1  0  0  0  0  0  0
  181.3590  179.4850  140.9270 C   0  0  0  0  0  0  0  0  0  0  0  0
  191.1020  177.7210  140.2350 N   0  0  0  0  0  1  0  0  0  0  0  0
  184.4040  175.0110  135.5480 O   0  0  0  0  0  0  0  0  0  0  0  0
  183.1080  178.0160  138.1180 C   0  0  0  0  0  3  0  0  0  0  0  0
  190.1400  178.6810  142.9900 C   0  0  0  0  0  2  0  0  0  0  0  0
  190.8510  177.6090  143.7940 C   0  0  1  0  0  3  0  0  0  0  0  0
  191.9200  178.1890  144.4960 O   0  0  0  0  0  0  0  0  0  0  0  0
  190.7540  177.9180  145.2350 C   0  0  2  0  0  3  0  0  0  0  0  0
  190.9630  176.6500  146.0410 C   0  0  0  0  0  2  0  0  0  0  0  0
  188.6960  176.7560  146.5810 C   0  0  0  0  0  2  0  0  0  0  0  0
  187.8790  177.5910  147.5420 C   0  0  1  0  0  3  0  0  0  0  0  0
  188.8860  178.3020  148.4120 C   0  0  0  0  0  2  0  0  0  0  0  0
  187.1270  178.5260  146.8280 O   0  0  0  0  0  1  0  0  0  0  0  0
  190.0250  176.6070  147.1490 N   0  0  0  0  0  0  0  0  0  0  0  0
  190.2410  177.8060  147.9470 C   0  0  0  0  0  2  0  0  0  0  0  0
  1  5  1  0  0  0  0
  2  1  1  0  0  0  0
  2 18  1  0  0  0  0
  3  1  1  0  0  0  0
  3  7  2  0  0  0  0
  4 15  1  0  0  0  0
  5 22  1  0  0  0  0
  5 12  2  0  0  0  0
  7 33  1  0  0  0  0
  7 12  1  0  0  0  0
  8 13  2  0  0  0  0
  9 14  1  0  0  0  0
  9 30  1  1  0  0  0
 10 20  2  0  0  0  0
 10 24  1  0  0  0  0
 11 31  1  0  0  0  0
 11 16  1  0  0  0  0
 13 29  1  0  0  0  0
 13 17  1  0  0  0  0
 14  3  1  0  0  0  0
 15  9  1  0  0  0  0
 16 25  1  0  0  0  0
 17 18  1  0  0  0  0
 17 21  2  0  0  0  0
 18 22  2  0  0  0  0
 19 29  1  0  0  0  0
 22 28  1  0  0  0  0
 23 21  1  0  0  0  0
 24 27  1  0  0  0  0
 24  6  1  1  0  0  0
 25 26  1  0  0  0  0
 26  4  1  0  0  0  0
 27 32  1  1  0  0  0
 27  6  1  0  0  0  0
 29 23  2  0  0  0  0
 31 10  1  0  0  0  0
 32  8  2  0  0  0  0
 34 33  1  6  0  0  0
 34 35  1  0  0  0  0
 34 36  1  0  0  0  0
 35 36  1  0  0  0  0
 36 37  1  1  0  0  0
 37 42  1  0  0  0  0
 38 42  1  0  0  0  0
 38 39  1  0  0  0  0
 39 41  1  6  0  0  0
 39 40  1  0  0  0  0
 42 43  1  0  0  0  0
 43 40  1  0  0  0  0
M  END
>  <MODEL>
1

>  <REMARK>
 VINA RESULT:      -8.0      0.000      0.000
  Name = 
  4 active torsions:
  status: ('A' for Active; 'I' for Inactive)
    1  A    between atoms: C_5  and  C_9
    2  A    between atoms: C_5  and  C_22
    3  A    between atoms: C_12  and  N_24
    4  A    between atoms: C_12  and  C_42
                            x       y       z     vdW  Elec       q    Type
                         _______ _______ _______ _____ _____    ______ ____

>  <TORSDO>
F 4

$$$$
=
 OpenBabel10232410273D

 43 49  0  0  1  0  0  0  0  0999 V2000
  189.3400  176.1740  137.5480 N   0  0  0  0  0  0  0  0  0  0  0  0
  188.0290  176.7690  137.3530 C   0  0  0  0  0  2  0  0  0  0  0  0
  190.4240  176.0950  136.7640 C   0  0  0  0  0  0  0  0  0  0  0  0
  188.6000  173.5780  134.5490 C   0  0  0  0  0  2  0  0  0  0  0  0
  189.7870  176.4160  138.7700 C   0  0  0  0  0  0  0  0  0  0  0  0
  183.8360  174.7710  138.0100 C   0  0  0  0  0  2  0  0  0  0  0  0
  191.5310  176.2350  137.5930 C   0  0  0  0  0  0  0  0  0  0  0  0
  184.9050  177.5270  137.3440 C   0  0  0  0  0  0  0  0  0  0  0  0
  190.7870  174.7650  134.6310 C   0  0  2  0  0  3  0  0  0  0  0  0
  183.3470  173.1270  136.2210 C   0  0  0  0  0  0  0  0  0  0  0  0
  184.2390  171.6040  134.4940 C   0  0  0  0  0  2  0  0  0  0  0  0
  191.1300  176.5010  138.8600 N   0  0  0  0  0  0  0  0  0  0  0  0
  185.3940  178.3890  138.1930 C   0  0  0  0  0  0  0  0  0  0  0  0
  190.3920  176.1040  135.2640 C   0  0  0  0  0  2  0  0  0  0  0  0
  189.9820  173.5920  135.1700 C   0  0  0  0  0  2  0  0  0  0  0  0
  185.6620  171.4070  134.9920 C   0  0  0  0  0  2  0  0  0  0  0  0
  186.5570  178.1600  139.0560 C   0  0  0  0  0  0  0  0  0  0  0  0
  187.7590  177.3640  138.7230 C   0  0  0  0  0  0  0  0  0  0  0  0
  183.2620  179.6830  138.7680 N   0  0  0  0  0  1  0  0  0  0  0  0
  183.1200  172.1760  137.0180 O   0  0  0  0  0  0  0  0  0  0  0  0
  186.4050  178.7930  140.1760 N   0  0  0  0  0  0  0  0  0  0  0  0
  188.8050  177.1450  139.5380 C   0  0  0  0  0  0  0  0  0  0  0  0
  185.1680  179.4490  140.1830 N   0  0  0  0  0  0  0  0  0  0  0  0
  183.1750  174.5410  136.6650 C   0  0  2  0  0  3  0  0  0  0  0  0
  186.5700  172.4600  134.3840 C   0  0  0  0  0  2  0  0  0  0  0  0
  187.8630  172.4280  135.0390 N   0  0  0  0  0  2  0  0  0  0  0  0
  184.5470  175.1940  136.7370 C   0  0  1  0  0  3  0  0  0  0  0  0
  189.0010  177.6570  140.9250 C   0  0  0  0  0  1  0  0  0  0  0  0
  184.5770  179.2210  139.0610 C   0  0  0  0  0  0  0  0  0  0  0  0
  192.2060  174.5100  134.8030 N   0  0  0  0  0  1  0  0  0  0  0  0
  183.7510  172.8740  134.9080 O   0  0  0  0  0  0  0  0  0  0  0  0
  184.3990  176.6600  136.5090 C   0  0  0  0  0  3  0  0  0  0  0  0
  192.9510  176.3540  137.1450 C   0  0  0  0  0  2  0  0  0  0  0  0
  193.8570  175.5330  138.0420 C   0  0  1  0  0  3  0  0  0  0  0  0
  193.6830  174.1690  137.7540 O   0  0  0  0  0  0  0  0  0  0  0  0
  194.8300  174.7850  137.2210 C   0  0  2  0  0  3  0  0  0  0  0  0
  196.0310  174.4120  138.0690 C   0  0  0  0  0  2  0  0  0  0  0  0
  197.0870  175.1020  136.1060 C   0  0  0  0  0  2  0  0  0  0  0  0
  198.4590  174.8730  135.5100 C   0  0  1  0  0  3  0  0  0  0  0  0
  199.2720  174.2350  136.6100 C   0  0  0  0  0  2  0  0  0  0  0  0
  198.3590  173.9980  134.4270 O   0  0  0  0  0  1  0  0  0  0  0  0
  197.2230  175.0600  137.5530 N   0  0  0  0  0  0  0  0  0  0  0  0
  198.3470  174.1700  137.8090 C   0  0  0  0  0  2  0  0  0  0  0  0
  1  5  1  0  0  0  0
  2  1  1  0  0  0  0
  2 18  1  0  0  0  0
  3  1  1  0  0  0  0
  3  7  2  0  0  0  0
  4 26  1  0  0  0  0
  4 15  1  0  0  0  0
  5 12  2  0  0  0  0
  5 22  1  0  0  0  0
  7 12  1  0  0  0  0
  8 13  2  0  0  0  0
  9 30  1  1  0  0  0
  9 15  1  0  0  0  0
  9 14  1  0  0  0  0
 10 24  1  0  0  0  0
 10 20  2  0  0  0  0
 11 31  1  0  0  0  0
 11 16  1  0  0  0  0
 13 17  1  0  0  0  0
 13 29  1  0  0  0  0
 14  3  1  0  0  0  0
 17 21  2  0  0  0  0
 18 17  1  0  0  0  0
 18 22  2  0  0  0  0
 19 29  1  0  0  0  0
 21 23  1  0  0  0  0
 22 28  1  0  0  0  0
 24 27  1  0  0  0  0
 24  6  1  1  0  0  0
 25 16  1  0  0  0  0
 25 26  1  0  0  0  0
 27 32  1  1  0  0  0
 27  6  1  0  0  0  0
 29 23  2  0  0  0  0
 31 10  1  0  0  0  0
 32  8  2  0  0  0  0
 33  7  1  0  0  0  0
 34 33  1  6  0  0  0
 35 34  1  0  0  0  0
 36 35  1  0  0  0  0
 36 34  1  0  0  0  0
 36 37  1  1  0  0  0
 38 42  1  0  0  0  0
 39 41  1  6  0  0  0
 39 38  1  0  0  0  0
 39 40  1  0  0  0  0
 40 43  1  0  0  0  0
 42 43  1  0  0  0  0
 42 37  1  0  0  0  0
M  END
>  <MODEL>
2

>  <REMARK>
 VINA RESULT:      -7.7      4.701      7.234
  Name = 
  4 active torsions:
  status: ('A' for Active; 'I' for Inactive)
    1  A    between atoms: C_5  and  C_9
    2  A    between atoms: C_5  and  C_22
    3  A    between atoms: C_12  and  N_24
    4  A    between atoms: C_12  and  C_42
                            x       y       z     vdW  Elec       q    Type
                         _______ _______ _______ _____ _____    ______ ____

>  <TORSDO>
F 4

$$$$
=
 OpenBabel10232410273D

 43 49  0  0  1  0  0  0  0  0999 V2000
  188.5630  177.2840  139.6010 N   0  0  0  0  0  0  0  0  0  0  0  0
  187.4670  178.0690  140.1390 C   0  0  0  0  0  2  0  0  0  0  0  0
  189.5080  177.5540  138.6880 C   0  0  0  0  0  0  0  0  0  0  0  0
  186.8540  177.4170  135.9480 C   0  0  0  0  0  2  0  0  0  0  0  0
  189.1650  176.6000  140.5600 C   0  0  0  0  0  0  0  0  0  0  0  0
  182.9500  176.8490  140.4790 C   0  0  0  0  0  2  0  0  0  0  0  0
  190.6760  176.9400  139.1240 C   0  0  0  0  0  0  0  0  0  0  0  0
  184.7020  179.1540  141.3710 C   0  0  0  0  0  0  0  0  0  0  0  0
  189.2890  177.8860  136.1800 C   0  0  2  0  0  3  0  0  0  0  0  0
  181.8580  176.8650  138.2540 C   0  0  0  0  0  0  0  0  0  0  0  0
  182.1230  176.7030  135.8040 C   0  0  0  0  0  2  0  0  0  0  0  0
  190.4780  176.3830  140.3440 N   0  0  0  0  0  0  0  0  0  0  0  0
  185.4890  179.1650  142.4120 C   0  0  0  0  0  0  0  0  0  0  0  0
  189.3500  178.5380  137.5660 C   0  0  0  0  0  2  0  0  0  0  0  0
  188.2300  176.7980  136.0810 C   0  0  0  0  0  2  0  0  0  0  0  0
  183.4680  176.0000  135.7070 C   0  0  0  0  0  2  0  0  0  0  0  0
  186.6070  178.2450  142.6370 C   0  0  0  0  0  0  0  0  0  0  0  0
  187.4980  177.6700  141.6030 C   0  0  0  0  0  0  0  0  0  0  0  0
  183.8760  180.1070  144.1620 N   0  0  0  0  0  1  0  0  0  0  0  0
  181.4370  175.6780  138.3410 O   0  0  0  0  0  0  0  0  0  0  0  0
  186.7410  178.0150  143.9050 N   0  0  0  0  0  0  0  0  0  0  0  0
  188.5030  176.8070  141.8270 C   0  0  0  0  0  0  0  0  0  0  0  0
  185.7490  178.7020  144.6150 N   0  0  0  0  0  0  0  0  0  0  0  0
  182.1370  177.6580  139.4870 C   0  0  2  0  0  3  0  0  0  0  0  0
  184.5830  177.0260  135.6550 C   0  0  0  0  0  2  0  0  0  0  0  0
  185.8640  176.3650  135.8090 N   0  0  0  0  0  2  0  0  0  0  0  0
  183.6390  177.8710  139.5920 C   0  0  1  0  0  3  0  0  0  0  0  0
  188.9570  176.2570  143.1370 C   0  0  0  0  0  1  0  0  0  0  0  0
  185.0240  179.3570  143.7760 C   0  0  0  0  0  0  0  0  0  0  0  0
  190.5850  177.3520  135.8020 N   0  0  0  0  0  1  0  0  0  0  0  0
  182.0570  177.4600  137.0060 O   0  0  0  0  0  0  0  0  0  0  0  0
  183.8990  179.1330  140.3420 C   0  0  0  0  0  3  0  0  0  0  0  0
  192.0260  177.0850  138.5020 C   0  0  0  0  0  2  0  0  0  0  0  0
  192.3840  175.8330  137.7230 C   0  0  1  0  0  3  0  0  0  0  0  0
  193.4790  176.1050  136.8860 O   0  0  0  0  0  0  0  0  0  0  0  0
  193.7520  175.4010  138.0730 C   0  0  2  0  0  3  0  0  0  0  0  0
  193.9190  173.9290  137.7460 C   0  0  0  0  0  2  0  0  0  0  0  0
  195.8290  174.5600  138.9290 C   0  0  0  0  0  2  0  0  0  0  0  0
  197.3110  174.3270  138.7390 C   0  0  1  0  0  3  0  0  0  0  0  0
  197.4170  173.2840  137.6540 C   0  0  0  0  0  2  0  0  0  0  0  0
  197.9220  175.5100  138.3180 O   0  0  0  0  0  1  0  0  0  0  0  0
  195.1280  173.4180  138.3660 N   0  0  0  0  0  0  0  0  0  0  0  0
  195.9880  172.9240  137.3000 C   0  0  0  0  0  2  0  0  0  0  0  0
  1  2  1  0  0  0  0
  1  5  1  0  0  0  0
  2 18  1  0  0  0  0
  3  7  2  0  0  0  0
  3  1  1  0  0  0  0
  4 15  1  0  0  0  0
  5 22  1  0  0  0  0
  7 12  1  0  0  0  0
  8 13  2  0  0  0  0
  9 30  1  1  0  0  0
  9 14  1  0  0  0  0
 10 20  2  0  0  0  0
 10 24  1  0  0  0  0
 11 31  1  0  0  0  0
 12  5  2  0  0  0  0
 13 17  1  0  0  0  0
 13 29  1  0  0  0  0
 14  3  1  0  0  0  0
 15  9  1  0  0  0  0
 16 11  1  0  0  0  0
 17 21  2  0  0  0  0
 18 22  2  0  0  0  0
 18 17  1  0  0  0  0
 21 23  1  0  0  0  0
 22 28  1  0  0  0  0
 24 27  1  0  0  0  0
 24  6  1  1  0  0  0
 25 16  1  0  0  0  0
 25 26  1  0  0  0  0
 26  4  1  0  0  0  0
 27 32  1  1  0  0  0
 27  6  1  0  0  0  0
 29 19  1  0  0  0  0
 29 23  2  0  0  0  0
 31 10  1  0  0  0  0
 32  8  2  0  0  0  0
 33  7  1  0  0  0  0
 34 36  1  0  0  0  0
 34 33  1  1  0  0  0
 35 34  1  0  0  0  0
 35 36  1  0  0  0  0
 36 37  1  6  0  0  0
 37 42  1  0  0  0  0
 39 41  1  6  0  0  0
 39 38  1  0  0  0  0
 40 39  1  0  0  0  0
 42 38  1  0  0  0  0
 43 40  1  0  0  0  0
 43 42  1  0  0  0  0
M  END
>  <MODEL>
3

>  <REMARK>
 VINA RESULT:      -7.3      3.838      6.244
  Name = 
  4 active torsions:
  status: ('A' for Active; 'I' for Inactive)
    1  A    between atoms: C_5  and  C_9
    2  A    between atoms: C_5  and  C_22
    3  A    between atoms: C_12  and  N_24
    4  A    between atoms: C_12  and  C_42
                            x       y       z     vdW  Elec       q    Type
                         _______ _______ _______ _____ _____    ______ ____

>  <TORSDO>
F 4

$$$$
=
 OpenBabel10232410273D

 43 49  0  0  1  0  0  0  0  0999 V2000
  183.9930  177.6900  138.5250 N   0  0  0  0  0  0  0  0  0  0  0  0
  185.3490  178.0800  138.8730 C   0  0  0  0  0  2  0  0  0  0  0  0
  182.9010  178.3980  138.2050 C   0  0  0  0  0  0  0  0  0  0  0  0
  182.6200  179.5450  141.8350 C   0  0  0  0  0  2  0  0  0  0  0  0
  184.0000  176.6400  137.7190 C   0  0  0  0  0  0  0  0  0  0  0  0
  187.8690  176.7230  142.5890 C   0  0  0  0  0  2  0  0  0  0  0  0
  182.2320  177.6820  137.2200 C   0  0  0  0  0  0  0  0  0  0  0  0
  188.3200  178.3450  140.0700 C   0  0  0  0  0  0  0  0  0  0  0  0
  181.4670  179.9090  139.6580 C   0  0  2  0  0  3  0  0  0  0  0  0
  187.0380  177.7950  144.6630 C   0  0  0  0  0  0  0  0  0  0  0  0
  185.1470  178.8610  145.8410 C   0  0  0  0  0  2  0  0  0  0  0  0
  182.9580  176.5940  136.8640 N   0  0  0  0  0  0  0  0  0  0  0  0
  188.5470  177.8670  138.8770 C   0  0  0  0  0  0  0  0  0  0  0  0
  182.6310  179.8000  138.6660 C   0  0  0  0  0  2  0  0  0  0  0  0
  181.6150  178.9780  140.8520 C   0  0  0  0  0  2  0  0  0  0  0  0
  183.9720  178.3330  145.0340 C   0  0  0  0  0  2  0  0  0  0  0  0
  187.6430  176.9860  138.1330 C   0  0  0  0  0  0  0  0  0  0  0  0
  186.1630  177.0160  138.1600 C   0  0  0  0  0  0  0  0  0  0  0  0
  191.1050  177.7870  138.9240 N   0  0  0  0  0  1  0  0  0  0  0  0
  186.8810  176.7070  145.2820 O   0  0  0  0  0  0  0  0  0  0  0  0
  188.3290  176.1690  137.3970 N   0  0  0  0  0  0  0  0  0  0  0  0
  185.3500  176.1820  137.4890 C   0  0  0  0  0  0  0  0  0  0  0  0
  189.6970  176.3930  137.5960 N   0  0  0  0  0  0  0  0  0  0  0  0
  188.0210  177.8910  143.5450 C   0  0  2  0  0  3  0  0  0  0  0  0
  183.6620  179.2840  143.8950 C   0  0  0  0  0  2  0  0  0  0  0  0
  182.7130  178.6690  142.9880 N   0  0  0  0  0  2  0  0  0  0  0  0
  187.2530  178.0670  142.2430 C   0  0  1  0  0  3  0  0  0  0  0  0
  185.7400  175.0750  136.5680 C   0  0  0  0  0  1  0  0  0  0  0  0
  189.8360  177.3540  138.4420 C   0  0  0  0  0  0  0  0  0  0  0  0
  180.1990  179.6640  138.9940 N   0  0  0  0  0  1  0  0  0  0  0  0
  186.3070  178.9300  145.0210 O   0  0  0  0  0  0  0  0  0  0  0  0
  188.1080  178.8080  141.2720 C   0  0  0  0  0  3  0  0  0  0  0  0
  181.0370  178.1500  136.4560 C   0  0  0  0  0  2  0  0  0  0  0  0
  181.4320  179.2370  135.4750 C   0  0  1  0  0  3  0  0  0  0  0  0
  180.5980  179.1670  134.3460 O   0  0  0  0  0  0  0  0  0  0  0  0
  180.3050  180.1720  135.2850 C   0  0  2  0  0  3  0  0  0  0  0  0
  180.8280  181.4990  134.7670 C   0  0  0  0  0  2  0  0  0  0  0  0
  181.0810  183.7130  135.4610 C   0  0  0  0  0  2  0  0  0  0  0  0
  180.9030  184.4300  136.7810 C   0  0  1  0  0  3  0  0  0  0  0  0
  180.2160  183.4390  137.6870 C   0  0  0  0  0  2  0  0  0  0  0  0
  182.1530  184.7630  137.3050 O   0  0  0  0  0  1  0  0  0  0  0  0
  180.1530  182.5940  135.4400 N   0  0  0  0  0  0  0  0  0  0  0  0
  179.9820  182.2080  136.8340 C   0  0  0  0  0  2  0  0  0  0  0  0
  1  2  1  0  0  0  0
  3  1  1  0  0  0  0
  3 14  1  0  0  0  0
  4 26  1  0  0  0  0
  5  1  1  0  0  0  0
  7  3  2  0  0  0  0
  8 32  2  0  0  0  0
  9 30  1  6  0  0  0
  9 15  1  0  0  0  0
 10 31  1  0  0  0  0
 10 20  2  0  0  0  0
 12  7  1  0  0  0  0
 12  5  2  0  0  0  0
 13  8  2  0  0  0  0
 14  9  1  0  0  0  0
 15  4  1  0  0  0  0
 16 11  1  0  0  0  0
 17 18  1  0  0  0  0
 17 13  1  0  0  0  0
 18  2  1  0  0  0  0
 21 23  1  0  0  0  0
 21 17  2  0  0  0  0
 22  5  1  0  0  0  0
 22 18  2  0  0  0  0
 23 29  2  0  0  0  0
 24  6  1  6  0  0  0
 24 10  1  0  0  0  0
 25 16  1  0  0  0  0
 26 25  1  0  0  0  0
 27 32  1  6  0  0  0
 27  6  1  0  0  0  0
 27 24  1  0  0  0  0
 28 22  1  0  0  0  0
 29 13  1  0  0  0  0
 29 19  1  0  0  0  0
 31 11  1  0  0  0  0
 33  7  1  0  0  0  0
 34 33  1  1  0  0  0
 35 36  1  0  0  0  0
 35 34  1  0  0  0  0
 36 37  1  6  0  0  0
 36 34  1  0  0  0  0
 37 42  1  0  0  0  0
 38 39  1  0  0  0  0
 39 41  1  1  0  0  0
 39 40  1  0  0  0  0
 42 38  1  0  0  0  0
 42 43  1  0  0  0  0
 43 40  1  0  0  0  0
M  END
>  <MODEL>
4

>  <REMARK>
 VINA RESULT:      -7.2      3.339     10.111
  Name = 
  4 active torsions:
  status: ('A' for Active; 'I' for Inactive)
    1  A    between atoms: C_5  and  C_9
    2  A    between atoms: C_5  and  C_22
    3  A    between atoms: C_12  and  N_24
    4  A    between atoms: C_12  and  C_42
                            x       y       z     vdW  Elec       q    Type
                         _______ _______ _______ _____ _____    ______ ____

>  <TORSDO>
F 4

$$$$
=
 OpenBabel10232410273D

 43 49  0  0  1  0  0  0  0  0999 V2000
  185.0150  177.0230  137.8120 N   0  0  0  0  0  0  0  0  0  0  0  0
  186.3880  177.3760  137.4970 C   0  0  0  0  0  2  0  0  0  0  0  0
  183.9170  177.7610  138.0330 C   0  0  0  0  0  0  0  0  0  0  0  0
  185.3700  178.8580  141.3880 C   0  0  0  0  0  2  0  0  0  0  0  0
  184.6210  175.9860  137.0900 C   0  0  0  0  0  0  0  0  0  0  0  0
  190.2980  175.9050  139.6310 C   0  0  0  0  0  2  0  0  0  0  0  0
  182.8500  177.0750  137.4650 C   0  0  0  0  0  0  0  0  0  0  0  0
  189.5830  177.5540  137.1920 C   0  0  0  0  0  0  0  0  0  0  0  0
  183.3550  179.2820  139.9880 C   0  0  2  0  0  3  0  0  0  0  0  0
  190.5450  176.9650  141.8580 C   0  0  0  0  0  0  0  0  0  0  0  0
  189.4390  178.0550  143.7780 C   0  0  0  0  0  2  0  0  0  0  0  0
  183.3010  175.9760  136.8120 N   0  0  0  0  0  0  0  0  0  0  0  0
  189.2220  177.0900  136.0270 C   0  0  0  0  0  0  0  0  0  0  0  0
  183.9290  179.1620  138.5710 C   0  0  0  0  0  2  0  0  0  0  0  0
  184.0110  178.3310  140.9770 C   0  0  0  0  0  2  0  0  0  0  0  0
  188.0100  177.5670  143.6010 C   0  0  0  0  0  2  0  0  0  0  0  0
  188.0520  176.2410  135.7810 C   0  0  0  0  0  0  0  0  0  0  0  0
  186.7530  176.3040  136.4860 C   0  0  0  0  0  0  0  0  0  0  0  0
  191.5110  176.9490  134.8900 N   0  0  0  0  0  1  0  0  0  0  0  0
  190.6600  175.8710  142.4770 O   0  0  0  0  0  0  0  0  0  0  0  0
  188.3000  175.4190  134.8100 N   0  0  0  0  0  0  0  0  0  0  0  0
  185.6990  175.5000  136.2630 C   0  0  0  0  0  0  0  0  0  0  0  0
  189.6110  175.6080  134.3570 N   0  0  0  0  0  0  0  0  0  0  0  0
  190.9040  177.0540  140.4130 C   0  0  2  0  0  3  0  0  0  0  0  0
  187.2370  178.5430  142.7350 C   0  0  0  0  0  2  0  0  0  0  0  0
  185.9600  177.9630  142.3650 N   0  0  0  0  0  2  0  0  0  0  0  0
  189.6290  177.2680  139.6120 C   0  0  1  0  0  3  0  0  0  0  0  0
  185.5910  174.3980  135.2640 C   0  0  0  0  0  1  0  0  0  0  0  0
  190.1520  176.5530  135.0460 C   0  0  0  0  0  0  0  0  0  0  0  0
  181.9180  179.0770  139.9820 N   0  0  0  0  0  1  0  0  0  0  0  0
  190.0920  178.1110  142.5160 O   0  0  0  0  0  0  0  0  0  0  0  0
  189.9610  178.0040  138.3580 C   0  0  0  0  0  3  0  0  0  0  0  0
  181.4510  177.5830  137.3390 C   0  0  0  0  0  2  0  0  0  0  0  0
  181.3270  178.4910  136.1300 C   0  0  1  0  0  3  0  0  0  0  0  0
  179.9820  178.5470  135.7300 O   0  0  0  0  0  0  0  0  0  0  0  0
  180.4690  179.6470  136.4590 C   0  0  2  0  0  3  0  0  0  0  0  0
  180.7610  180.7860  135.5010 C   0  0  0  0  0  2  0  0  0  0  0  0
  180.7640  183.1190  135.4490 C   0  0  0  0  0  2  0  0  0  0  0  0
  180.5940  184.1970  136.4970 C   0  0  1  0  0  3  0  0  0  0  0  0
  180.1220  183.4790  137.7370 C   0  0  0  0  0  2  0  0  0  0  0  0
  181.8240  184.8080  136.7430 O   0  0  0  0  0  1  0  0  0  0  0  0
  179.9980  181.9610  135.8810 N   0  0  0  0  0  0  0  0  0  0  0  0
  179.9920  182.0230  137.3360 C   0  0  0  0  0  2  0  0  0  0  0  0
  1  3  1  0  0  0  0
  2  1  1  0  0  0  0
  3 14  1  0  0  0  0
  4 26  1  0  0  0  0
  5  1  1  0  0  0  0
  7  3  2  0  0  0  0
  8 32  2  0  0  0  0
  9 30  1  6  0  0  0
  9 15  1  0  0  0  0
 10 20  2  0  0  0  0
 10 31  1  0  0  0  0
 12  5  2  0  0  0  0
 12  7  1  0  0  0  0
 13  8  2  0  0  0  0
 14  9  1  0  0  0  0
 15  4  1  0  0  0  0
 16 11  1  0  0  0  0
 17 13  1  0  0  0  0
 17 18  1  0  0  0  0
 18  2  1  0  0  0  0
 19 29  1  0  0  0  0
 21 17  2  0  0  0  0
 22 18  2  0  0  0  0
 22  5  1  0  0  0  0
 23 21  1  0  0  0  0
 23 29  2  0  0  0  0
 24  6  1  6  0  0  0
 24 10  1  0  0  0  0
 25 16  1  0  0  0  0
 26 25  1  0  0  0  0
 27 32  1  6  0  0  0
 27  6  1  0  0  0  0
 27 24  1  0  0  0  0
 28 22  1  0  0  0  0
 29 13  1  0  0  0  0
 31 11  1  0  0  0  0
 33  7  1  0  0  0  0
 34 36  1  0  0  0  0
 34 33  1  1  0  0  0
 35 34  1  0  0  0  0
 35 36  1  0  0  0  0
 36 37  1  6  0  0  0
 37 42  1  0  0  0  0
 38 42  1  0  0  0  0
 38 39  1  0  0  0  0
 39 41  1  1  0  0  0
 39 40  1  0  0  0  0
 42 43  1  0  0  0  0
 43 40  1  0  0  0  0
M  END
>  <MODEL>
5

>  <REMARK>
 VINA RESULT:      -7.1      3.377     10.037
  Name = 
  4 active torsions:
  status: ('A' for Active; 'I' for Inactive)
    1  A    between atoms: C_5  and  C_9
    2  A    between atoms: C_5  and  C_22
    3  A    between atoms: C_12  and  N_24
    4  A    between atoms: C_12  and  C_42
                            x       y       z     vdW  Elec       q    Type
                         _______ _______ _______ _____ _____    ______ ____

>  <TORSDO>
F 4

$$$$
=
 OpenBabel10232410273D

 43 49  0  0  1  0  0  0  0  0999 V2000
  186.5280  176.8630  138.1010 N   0  0  0  0  0  0  0  0  0  0  0  0
  187.8550  177.2560  138.5420 C   0  0  0  0  0  2  0  0  0  0  0  0
  185.4750  177.5660  137.6600 C   0  0  0  0  0  0  0  0  0  0  0  0
  184.9110  178.8800  141.2000 C   0  0  0  0  0  2  0  0  0  0  0  0
  186.5880  175.7790  137.3460 C   0  0  0  0  0  0  0  0  0  0  0  0
  190.0450  176.0480  142.5100 C   0  0  0  0  0  2  0  0  0  0  0  0
  184.8800  176.8120  136.6560 C   0  0  0  0  0  0  0  0  0  0  0  0
  190.7220  177.5490  139.9670 C   0  0  0  0  0  0  0  0  0  0  0  0
  183.9460  179.1550  138.9210 C   0  0  2  0  0  3  0  0  0  0  0  0
  189.0600  177.2210  144.4590 C   0  0  0  0  0  0  0  0  0  0  0  0
  187.0930  178.3560  145.4280 C   0  0  0  0  0  2  0  0  0  0  0  0
  185.6190  175.7020  136.4110 N   0  0  0  0  0  0  0  0  0  0  0  0
  191.0400  177.0160  138.8190 C   0  0  0  0  0  0  0  0  0  0  0  0
  185.1860  178.9910  138.0350 C   0  0  0  0  0  2  0  0  0  0  0  0
  183.9830  178.2790  140.1640 C   0  0  0  0  0  2  0  0  0  0  0  0
  185.9810  177.8030  144.5510 C   0  0  0  0  0  2  0  0  0  0  0  0
  190.1880  176.1100  138.0430 C   0  0  0  0  0  0  0  0  0  0  0  0
  188.7120  176.1540  137.9460 C   0  0  0  0  0  0  0  0  0  0  0  0
  193.5840  176.9140  139.0810 N   0  0  0  0  0  1  0  0  0  0  0  0
  188.8380  176.1630  145.1100 O   0  0  0  0  0  0  0  0  0  0  0  0
  190.9220  175.2540  137.4040 N   0  0  0  0  0  0  0  0  0  0  0  0
  187.9450  175.2980  137.2490 C   0  0  0  0  0  0  0  0  0  0  0  0
  192.2710  175.4740  137.7050 N   0  0  0  0  0  0  0  0  0  0  0  0
  190.1320  177.2570  143.4220 C   0  0  2  0  0  3  0  0  0  0  0  0
  185.7780  178.7040  143.3480 C   0  0  0  0  0  2  0  0  0  0  0  0
  184.8990  178.0560  142.3940 N   0  0  0  0  0  2  0  0  0  0  0  0
  189.4760  177.3800  142.0550 C   0  0  1  0  0  3  0  0  0  0  0  0
  188.3950  174.1460  136.4140 C   0  0  0  0  0  1  0  0  0  0  0  0
  192.3530  176.4710  138.5160 C   0  0  0  0  0  0  0  0  0  0  0  0
  182.7330  178.8910  138.1670 N   0  0  0  0  0  1  0  0  0  0  0  0
  188.3170  178.3780  144.7040 O   0  0  0  0  0  0  0  0  0  0  0  0
  190.4170  178.0680  141.1260 C   0  0  0  0  0  3  0  0  0  0  0  0
  183.7570  177.2560  135.7770 C   0  0  0  0  0  2  0  0  0  0  0  0
  182.5210  176.4170  136.0370 C   0  0  1  0  0  3  0  0  0  0  0  0
  181.6530  176.5180  134.9370 O   0  0  0  0  0  0  0  0  0  0  0  0
  182.4230  175.3440  135.0260 C   0  0  2  0  0  3  0  0  0  0  0  0
  181.5530  174.2220  135.5590 C   0  0  0  0  0  2  0  0  0  0  0  0
  182.7200  172.7760  136.9710 C   0  0  0  0  0  2  0  0  0  0  0  0
  184.1080  172.1750  136.9500 C   0  0  1  0  0  3  0  0  0  0  0  0
  184.6580  172.4830  135.5800 C   0  0  0  0  0  2  0  0  0  0  0  0
  184.8980  172.7850  137.9250 O   0  0  0  0  0  1  0  0  0  0  0  0
  182.3090  172.9820  135.5920 N   0  0  0  0  0  0  0  0  0  0  0  0
  183.5430  173.2060  134.8510 C   0  0  0  0  0  2  0  0  0  0  0  0
  1  2  1  0  0  0  0
  3 14  1  0  0  0  0
  3  1  1  0  0  0  0
  4 26  1  0  0  0  0
  5  1  1  0  0  0  0
  7  3  2  0  0  0  0
  8 32  2  0  0  0  0
  9 30  1  6  0  0  0
  9 15  1  0  0  0  0
 10 31  1  0  0  0  0
 10 20  2  0  0  0  0
 12  7  1  0  0  0  0
 12  5  2  0  0  0  0
 13  8  2  0  0  0  0
 14  9  1  0  0  0  0
 15  4  1  0  0  0  0
 16 11  1  0  0  0  0
 17 13  1  0  0  0  0
 18 17  1  0  0  0  0
 18  2  1  0  0  0  0
 21 23  1  0  0  0  0
 21 17  2  0  0  0  0
 22  5  1  0  0  0  0
 22 18  2  0  0  0  0
 23 29  2  0  0  0  0
 24  6  1  6  0  0  0
 24 10  1  0  0  0  0
 25 16  1  0  0  0  0
 26 25  1  0  0  0  0
 27 32  1  6  0  0  0
 27  6  1  0  0  0  0
 27 24  1  0  0  0  0
 28 22  1  0  0  0  0
 29 13  1  0  0  0  0
 29 19  1  0  0  0  0
 31 11  1  0  0  0  0
 33  7  1  0  0  0  0
 34 33  1  6  0  0  0
 35 36  1  0  0  0  0
 35 34  1  0  0  0  0
 36 37  1  1  0  0  0
 36 34  1  0  0  0  0
 37 42  1  0  0  0  0
 39 38  1  0  0  0  0
 39 41  1  1  0  0  0
 40 39  1  0  0  0  0
 42 38  1  0  0  0  0
 43 40  1  0  0  0  0
 43 42  1  0  0  0  0
M  END
>  <MODEL>
6

>  <REMARK>
 VINA RESULT:      -6.9      2.441      9.835
  Name = 
  4 active torsions:
  status: ('A' for Active; 'I' for Inactive)
    1  A    between atoms: C_5  and  C_9
    2  A    between atoms: C_5  and  C_22
    3  A    between atoms: C_12  and  N_24
    4  A    between atoms: C_12  and  C_42
                            x       y       z     vdW  Elec       q    Type
                         _______ _______ _______ _____ _____    ______ ____

>  <TORSDO>
F 4

$$$$
=
 OpenBabel10232410273D

 43 49  0  0  1  0  0  0  0  0999 V2000
  188.5580  177.3490  139.6970 N   0  0  0  0  0  0  0  0  0  0  0  0
  187.4300  178.1150  140.1960 C   0  0  0  0  0  2  0  0  0  0  0  0
  189.5150  177.6260  138.8000 C   0  0  0  0  0  0  0  0  0  0  0  0
  186.9270  177.3650  136.0060 C   0  0  0  0  0  2  0  0  0  0  0  0
  189.1560  176.7000  140.6830 C   0  0  0  0  0  0  0  0  0  0  0  0
  182.9400  176.7820  140.4620 C   0  0  0  0  0  2  0  0  0  0  0  0
  190.6890  177.0510  139.2730 C   0  0  0  0  0  0  0  0  0  0  0  0
  184.6120  179.1500  141.3450 C   0  0  0  0  0  0  0  0  0  0  0  0
  189.3430  177.9030  136.2810 C   0  0  2  0  0  3  0  0  0  0  0  0
  181.8970  176.7260  138.2140 C   0  0  0  0  0  0  0  0  0  0  0  0
  182.2210  176.5240  135.7740 C   0  0  0  0  0  2  0  0  0  0  0  0
  190.4790  176.5130  140.4990 N   0  0  0  0  0  0  0  0  0  0  0  0
  185.3750  179.2020  142.4020 C   0  0  0  0  0  0  0  0  0  0  0  0
  189.3570  178.5830  137.6550 C   0  0  0  0  0  2  0  0  0  0  0  0
  188.3160  176.7850  136.1810 C   0  0  0  0  0  2  0  0  0  0  0  0
  183.5850  175.8540  135.7200 C   0  0  0  0  0  2  0  0  0  0  0  0
  186.5110  178.3160  142.6700 C   0  0  0  0  0  0  0  0  0  0  0  0
  187.4390  177.7450  141.6680 C   0  0  0  0  0  0  0  0  0  0  0  0
  183.6990  180.1350  144.0980 N   0  0  0  0  0  1  0  0  0  0  0  0
  181.5060  175.5310  138.3160 O   0  0  0  0  0  0  0  0  0  0  0  0
  186.6230  178.1150  143.9450 N   0  0  0  0  0  0  0  0  0  0  0  0
  188.4610  176.9130  141.9300 C   0  0  0  0  0  0  0  0  0  0  0  0
  185.5980  178.7890  144.6190 N   0  0  0  0  0  0  0  0  0  0  0  0
  182.1280  177.5500  139.4370 C   0  0  2  0  0  3  0  0  0  0  0  0
  184.6740  176.9090  135.6720 C   0  0  0  0  0  2  0  0  0  0  0  0
  185.9680  176.2850  135.8670 N   0  0  0  0  0  2  0  0  0  0  0  0
  183.6220  177.8050  139.5700 C   0  0  1  0  0  3  0  0  0  0  0  0
  188.9000  176.4020  143.2610 C   0  0  0  0  0  1  0  0  0  0  0  0
  184.8740  179.4080  143.7520 C   0  0  0  0  0  0  0  0  0  0  0  0
  190.6610  177.3960  135.9420 N   0  0  0  0  0  1  0  0  0  0  0  0
  182.1090  177.3020  136.9590 O   0  0  0  0  0  0  0  0  0  0  0  0
  183.8320  179.0880  140.2990 C   0  0  0  0  0  3  0  0  0  0  0  0
  192.0480  177.2190  138.6770 C   0  0  0  0  0  2  0  0  0  0  0  0
  192.8050  175.9050  138.7130 C   0  0  1  0  0  3  0  0  0  0  0  0
  192.2830  175.0430  137.7350 O   0  0  0  0  0  0  0  0  0  0  0  0
  193.4930  175.6890  137.4240 C   0  0  2  0  0  3  0  0  0  0  0  0
  194.6380  174.7140  137.6160 C   0  0  0  0  0  2  0  0  0  0  0  0
  195.1930  173.2300  135.9020 C   0  0  0  0  0  2  0  0  0  0  0  0
  196.4970  172.7620  135.2940 C   0  0  1  0  0  3  0  0  0  0  0  0
  197.5540  173.6790  135.8580 C   0  0  0  0  0  2  0  0  0  0  0  0
  196.7520  171.4470  135.6880 O   0  0  0  0  0  1  0  0  0  0  0  0
  195.3940  174.5870  136.3830 N   0  0  0  0  0  0  0  0  0  0  0  0
  196.8070  174.6690  136.7290 C   0  0  0  0  0  2  0  0  0  0  0  0
  1  2  1  0  0  0  0
  1  5  1  0  0  0  0
  2 18  1  0  0  0  0
  3  7  2  0  0  0  0
  3  1  1  0  0  0  0
  4 15  1  0  0  0  0
  5 22  1  0  0  0  0
  7 12  1  0  0  0  0
  8 13  2  0  0  0  0
  9 30  1  1  0  0  0
  9 14  1  0  0  0  0
 10 20  2  0  0  0  0
 10 24  1  0  0  0  0
 11 31  1  0  0  0  0
 12  5  2  0  0  0  0
 13 17  1  0  0  0  0
 13 29  1  0  0  0  0
 14  3  1  0  0  0  0
 15  9  1  0  0  0  0
 16 11  1  0  0  0  0
 17 21  2  0  0  0  0
 18 22  2  0  0  0  0
 18 17  1  0  0  0  0
 21 23  1  0  0  0  0
 22 28  1  0  0  0  0
 24 27  1  0  0  0  0
 24  6  1  1  0  0  0
 25 16  1  0  0  0  0
 25 26  1  0  0  0  0
 26  4  1  0  0  0  0
 27 32  1  1  0  0  0
 27  6  1  0  0  0  0
 29 19  1  0  0  0  0
 29 23  2  0  0  0  0
 31 10  1  0  0  0  0
 32  8  2  0  0  0  0
 33  7  1  0  0  0  0
 34 33  1  6  0  0  0
 35 34  1  0  0  0  0
 36 37  1  1  0  0  0
 36 35  1  0  0  0  0
 36 34  1  0  0  0  0
 38 42  1  0  0  0  0
 39 41  1  1  0  0  0
 39 40  1  0  0  0  0
 39 38  1  0  0  0  0
 40 43  1  0  0  0  0
 42 43  1  0  0  0  0
 42 37  1  0  0  0  0
M  END
>  <MODEL>
7

>  <REMARK>
 VINA RESULT:      -6.6      4.114      6.677
  Name = 
  4 active torsions:
  status: ('A' for Active; 'I' for Inactive)
    1  A    between atoms: C_5  and  C_9
    2  A    between atoms: C_5  and  C_22
    3  A    between atoms: C_12  and  N_24
    4  A    between atoms: C_12  and  C_42
                            x       y       z     vdW  Elec       q    Type
                         _______ _______ _______ _____ _____    ______ ____

>  <TORSDO>
F 4

$$$$
=
 OpenBabel10232410273D

 43 49  0  0  1  0  0  0  0  0999 V2000
  187.3740  176.2920  137.2820 N   0  0  0  0  0  0  0  0  0  0  0  0
  186.0750  176.9040  137.0670 C   0  0  0  0  0  2  0  0  0  0  0  0
  188.3860  175.9990  136.4520 C   0  0  0  0  0  0  0  0  0  0  0  0
  186.2900  173.1890  134.9400 C   0  0  0  0  0  2  0  0  0  0  0  0
  187.9300  176.7510  138.3920 C   0  0  0  0  0  0  0  0  0  0  0  0
  181.8800  175.3050  138.4270 C   0  0  0  0  0  2  0  0  0  0  0  0
  189.5620  176.2440  137.1510 C   0  0  0  0  0  0  0  0  0  0  0  0
  182.9910  177.8100  137.1350 C   0  0  0  0  0  0  0  0  0  0  0  0
  188.5200  174.2500  134.6150 C   0  0  2  0  0  3  0  0  0  0  0  0
  181.1830  173.3640  137.0530 C   0  0  0  0  0  0  0  0  0  0  0  0
  181.8710  171.4800  135.6130 C   0  0  0  0  0  2  0  0  0  0  0  0
  189.2780  176.7800  138.3630 N   0  0  0  0  0  0  0  0  0  0  0  0
  183.5800  178.7980  137.7510 C   0  0  0  0  0  0  0  0  0  0  0  0
  188.2290  175.7090  134.9880 C   0  0  0  0  0  2  0  0  0  0  0  0
  187.7190  173.2550  135.4410 C   0  0  0  0  0  2  0  0  0  0  0  0
  183.3220  171.3110  136.0330 C   0  0  0  0  0  2  0  0  0  0  0  0
  184.8010  178.6860  138.5540 C   0  0  0  0  0  0  0  0  0  0  0  0
  185.9420  177.7760  138.3020 C   0  0  0  0  0  0  0  0  0  0  0  0
  181.5530  180.2930  138.2060 N   0  0  0  0  0  1  0  0  0  0  0  0
  180.9870  172.6060  138.0430 O   0  0  0  0  0  0  0  0  0  0  0  0
  184.7680  179.5380  139.5300 N   0  0  0  0  0  0  0  0  0  0  0  0
  187.0430  177.6690  139.0650 C   0  0  0  0  0  0  0  0  0  0  0  0
  183.5610  180.2460  139.4940 N   0  0  0  0  0  0  0  0  0  0  0  0
  181.1000  174.8450  137.2100 C   0  0  2  0  0  3  0  0  0  0  0  0
  184.2140  172.1710  135.1580 C   0  0  0  0  0  2  0  0  0  0  0  0
  185.5550  172.2020  135.7080 N   0  0  0  0  0  2  0  0  0  0  0  0
  182.4970  175.4250  137.0460 C   0  0  1  0  0  3  0  0  0  0  0  0
  187.3730  178.4390  140.3000 C   0  0  0  0  0  1  0  0  0  0  0  0
  182.8700  179.8300  138.4890 C   0  0  0  0  0  0  0  0  0  0  0  0
  189.9380  173.9610  134.7300 N   0  0  0  0  0  1  0  0  0  0  0  0
  181.4660  172.8310  135.7940 O   0  0  0  0  0  0  0  0  0  0  0  0
  182.3850  176.8210  136.5340 C   0  0  0  0  0  3  0  0  0  0  0  0
  190.9430  176.1950  136.5840 C   0  0  0  0  0  2  0  0  0  0  0  0
  191.9010  175.5740  137.5820 C   0  0  1  0  0  3  0  0  0  0  0  0
  191.6030  174.2080  137.7220 O   0  0  0  0  0  0  0  0  0  0  0  0
  192.7100  174.5330  136.9170 C   0  0  2  0  0  3  0  0  0  0  0  0
  193.9820  174.2950  137.7090 C   0  0  0  0  0  2  0  0  0  0  0  0
  196.2660  174.5120  137.2810 C   0  0  0  0  0  2  0  0  0  0  0  0
  197.0790  174.8820  136.0600 C   0  0  1  0  0  3  0  0  0  0  0  0
  196.1030  174.8720  134.9090 C   0  0  0  0  0  2  0  0  0  0  0  0
  197.6080  176.1630  136.2200 O   0  0  0  0  0  1  0  0  0  0  0  0
  195.0470  173.8680  136.8190 N   0  0  0  0  0  0  0  0  0  0  0  0
  194.7770  174.4470  135.5100 C   0  0  0  0  0  2  0  0  0  0  0  0
  1  5  1  0  0  0  0
  2  1  1  0  0  0  0
  2 18  1  0  0  0  0
  3  7  2  0  0  0  0
  3  1  1  0  0  0  0
  4 15  1  0  0  0  0
  4 26  1  0  0  0  0
  5 22  1  0  0  0  0
  7 12  1  0  0  0  0
  8 13  2  0  0  0  0
  9 30  1  1  0  0  0
  9 14  1  0  0  0  0
  9 15  1  0  0  0  0
 10 24  1  0  0  0  0
 10 20  2  0  0  0  0
 11 31  1  0  0  0  0
 11 16  1  0  0  0  0
 12  5  2  0  0  0  0
 13 29  1  0  0  0  0
 13 17  1  0  0  0  0
 14  3  1  0  0  0  0
 17 21  2  0  0  0  0
 18 17  1  0  0  0  0
 18 22  2  0  0  0  0
 19 29  1  0  0  0  0
 22 28  1  0  0  0  0
 23 21  1  0  0  0  0
 24  6  1  1  0  0  0
 25 26  1  0  0  0  0
 25 16  1  0  0  0  0
 27 32  1  6  0  0  0
 27 24  1  0  0  0  0
 27  6  1  0  0  0  0
 29 23  2  0  0  0  0
 31 10  1  0  0  0  0
 32  8  2  0  0  0  0
 33  7  1  0  0  0  0
 34 33  1  6  0  0  0
 34 35  1  0  0  0  0
 36 34  1  0  0  0  0
 36 37  1  1  0  0  0
 36 35  1  0  0  0  0
 39 41  1  1  0  0  0
 39 38  1  0  0  0  0
 40 43  1  0  0  0  0
 40 39  1  0  0  0  0
 42 38  1  0  0  0  0
 42 37  1  0  0  0  0
 43 42  1  0  0  0  0
M  END
>  <MODEL>
8

>  <REMARK>
 VINA RESULT:      -6.5      4.393      6.905
  Name = 
  4 active torsions:
  status: ('A' for Active; 'I' for Inactive)
    1  A    between atoms: C_5  and  C_9
    2  A    between atoms: C_5  and  C_22
    3  A    between atoms: C_12  and  N_24
    4  A    between atoms: C_12  and  C_42
                            x       y       z     vdW  Elec       q    Type
                         _______ _______ _______ _____ _____    ______ ____

>  <TORSDO>
F 4

$$$$
=
 OpenBabel10232410273D

 43 49  0  0  1  0  0  0  0  0999 V2000
  184.3820  178.3780  141.3330 N   0  0  0  0  0  0  0  0  0  0  0  0
  185.2760  177.6420  142.2100 C   0  0  0  0  0  2  0  0  0  0  0  0
  183.4290  177.9850  140.4750 C   0  0  0  0  0  0  0  0  0  0  0  0
  186.1330  176.6650  138.1270 C   0  0  0  0  0  2  0  0  0  0  0  0
  183.9080  179.4520  141.9420 C   0  0  0  0  0  0  0  0  0  0  0  0
  189.9350  178.0490  142.5670 C   0  0  0  0  0  2  0  0  0  0  0  0
  182.4020  178.9170  140.5610 C   0  0  0  0  0  0  0  0  0  0  0  0
  187.7180  176.5660  144.0030 C   0  0  0  0  0  0  0  0  0  0  0  0
  183.6480  176.7630  138.2590 C   0  0  2  0  0  3  0  0  0  0  0  0
  191.0650  177.0560  140.5970 C   0  0  0  0  0  0  0  0  0  0  0  0
  190.9110  176.3980  138.2220 C   0  0  0  0  0  2  0  0  0  0  0  0
  182.6750  179.8190  141.5360 N   0  0  0  0  0  0  0  0  0  0  0  0
  186.9160  177.0640  144.9040 C   0  0  0  0  0  0  0  0  0  0  0  0
  183.4120  176.6600  139.7710 C   0  0  0  0  0  2  0  0  0  0  0  0
  184.9120  177.5340  137.9060 C   0  0  0  0  0  2  0  0  0  0  0  0
  189.7450  177.2580  137.7610 C   0  0  0  0  0  2  0  0  0  0  0  0
  186.0060  178.1950  144.6930 C   0  0  0  0  0  0  0  0  0  0  0  0
  185.2860  178.5260  143.4440 C   0  0  0  0  0  0  0  0  0  0  0  0
  188.2460  176.5130  147.0190 N   0  0  0  0  0  1  0  0  0  0  0  0
  191.7200  178.0990  140.3210 O   0  0  0  0  0  0  0  0  0  0  0  0
  185.8860  178.8740  145.7910 N   0  0  0  0  0  0  0  0  0  0  0  0
  184.4750  179.5830  143.2630 C   0  0  0  0  0  0  0  0  0  0  0  0
  186.6920  178.3070  146.7850 N   0  0  0  0  0  0  0  0  0  0  0  0
  190.5920  176.8090  141.9910 C   0  0  2  0  0  3  0  0  0  0  0  0
  188.4430  176.5020  137.9470 C   0  0  0  0  0  2  0  0  0  0  0  0
  187.3230  177.4000  137.7420 N   0  0  0  0  0  2  0  0  0  0  0  0
  189.0760  176.9280  142.0120 C   0  0  1  0  0  3  0  0  0  0  0  0
  184.1060  180.6290  144.2610 C   0  0  0  0  0  1  0  0  0  0  0  0
  187.2910  177.2790  146.2920 C   0  0  0  0  0  0  0  0  0  0  0  0
  182.5030  177.3620  137.5970 N   0  0  0  0  0  1  0  0  0  0  0  0
  190.7830  176.1100  139.6090 O   0  0  0  0  0  0  0  0  0  0  0  0
  188.5380  176.0770  143.1120 C   0  0  0  0  0  3  0  0  0  0  0  0
  181.0700  178.8160  139.8930 C   0  0  0  0  0  2  0  0  0  0  0  0
  180.6340  180.1750  139.3790 C   0  0  1  0  0  3  0  0  0  0  0  0
  181.7470  180.8490  138.8490 O   0  0  0  0  0  0  0  0  0  0  0  0
  180.8680  180.2580  137.9230 C   0  0  2  0  0  3  0  0  0  0  0  0
  179.9820  181.3340  137.3260 C   0  0  0  0  0  2  0  0  0  0  0  0
  180.8910  183.4830  137.3380 C   0  0  0  0  0  2  0  0  0  0  0  0
  180.8470  184.6510  136.3780 C   0  0  1  0  0  3  0  0  0  0  0  0
  180.2430  184.1040  135.1070 C   0  0  0  0  0  2  0  0  0  0  0  0
  180.0270  185.6550  136.8970 O   0  0  0  0  0  1  0  0  0  0  0  0
  180.7850  182.2650  136.5530 N   0  0  0  0  0  0  0  0  0  0  0  0
  180.0110  182.6300  135.3740 C   0  0  0  0  0  2  0  0  0  0  0  0
  1  5  1  0  0  0  0
  1  2  1  0  0  0  0
  2 18  1  0  0  0  0
  3  7  2  0  0  0  0
  3  1  1  0  0  0  0
  5 22  1  0  0  0  0
  7 12  1  0  0  0  0
  8 13  2  0  0  0  0
  9 30  1  6  0  0  0
  9 14  1  0  0  0  0
 10 24  1  0  0  0  0
 11 31  1  0  0  0  0
 12  5  2  0  0  0  0
 13 29  1  0  0  0  0
 14  3  1  0  0  0  0
 15  4  1  0  0  0  0
 15  9  1  0  0  0  0
 16 25  1  0  0  0  0
 16 11  1  0  0  0  0
 17 13  1  0  0  0  0
 17 21  2  0  0  0  0
 18 17  1  0  0  0  0
 20 10  2  0  0  0  0
 21 23  1  0  0  0  0
 22 18  2  0  0  0  0
 22 28  1  0  0  0  0
 24 27  1  0  0  0  0
 24  6  1  1  0  0  0
 26 25  1  0  0  0  0
 26  4  1  0  0  0  0
 27  6  1  1  0  0  0
 27 32  1  0  0  0  0
 29 23  2  0  0  0  0
 29 19  1  0  0  0  0
 31 10  1  0  0  0  0
 32  8  2  0  0  0  0
 33  7  1  0  0  0  0
 34 33  1  1  0  0  0
 35 34  1  0  0  0  0
 36 37  1  6  0  0  0
 36 35  1  0  0  0  0
 36 34  1  0  0  0  0
 39 41  1  1  0  0  0
 39 38  1  0  0  0  0
 40 43  1  0  0  0  0
 40 39  1  0  0  0  0
 42 37  1  0  0  0  0
 42 38  1  0  0  0  0
 43 42  1  0  0  0  0
M  END
>  <MODEL>
9

>  <REMARK>
 VINA RESULT:      -6.5      3.640      8.955
  Name = 
  4 active torsions:
  status: ('A' for Active; 'I' for Inactive)
    1  A    between atoms: C_5  and  C_9
    2  A    between atoms: C_5  and  C_22
    3  A    between atoms: C_12  and  N_24
    4  A    between atoms: C_12  and  C_42
                            x       y       z     vdW  Elec       q    Type
                         _______ _______ _______ _____ _____    ______ ____

>  <TORSDO>
F 4

$$$$
