=
 OpenBabel10222421493D

 54 59  0  0  1  0  0  0  0  0999 V2000
  184.8860  177.2470  139.0610 C   0  0  0  0  0  2  0  0  0  0  0  0
  186.0480  172.3930  134.9360 N   0  0  0  0  0  2  0  0  0  0  0  0
  186.8560  173.4680  135.5030 C   0  0  1  0  0  3  0  0  0  0  0  0
  183.8020  174.3260  136.3140 N   0  0  0  0  0  0  0  0  0  0  0  0
  188.5050  174.0910  137.2640 C   0  0  0  0  0  2  0  0  0  0  0  0
  181.7610  176.5830  139.8110 C   0  0  2  0  0  3  0  0  0  0  0  0
  181.5250  172.8590  134.3460 C   0  0  0  0  0  1  0  0  0  0  0  0
  185.6530  177.9530  137.9360 C   0  0  2  0  0  3  0  0  0  0  0  0
  181.8090  173.1670  136.7380 N   0  0  0  0  0  2  0  0  0  0  0  0
  183.8570  178.1300  139.8050 C   0  0  2  0  0  0  0  0  0  0  0  0
  184.2170  180.0540  138.1370 C   0  0  0  0  0  2  0  0  0  0  0  0
  187.7840  178.4430  137.4700 C   0  0  0  0  0  2  0  0  0  0  0  0
  182.5550  174.7890  138.2990 C   0  0  0  0  0  0  0  0  0  0  0  0
  187.5480  173.0070  136.7820 C   0  0  0  0  0  2  0  0  0  0  0  0
  182.3950  172.5580  135.5510 C   0  0  2  0  0  3  0  0  0  0  0  0
  184.8470  172.2070  135.7440 C   0  0  0  0  0  2  0  0  0  0  0  0
  189.6570  177.0740  136.6130 C   0  0  0  0  0  2  0  0  0  0  0  0
  190.2920  173.4600  135.7810 O   0  0  0  0  0  1  0  0  0  0  0  0
  186.7980  178.5720  138.4580 O   0  0  0  0  0  0  0  0  0  0  0  0
  182.6420  174.2400  137.1160 C   0  0  0  0  0  0  0  0  0  0  0  0
  182.4480  177.8390  139.2500 C   0  0  0  0  0  2  0  0  0  0  0  0
  184.7610  178.9630  137.2070 C   0  0  0  0  0  2  0  0  0  0  0  0
  188.6160  177.1960  137.7130 C   0  0  0  0  0  2  0  0  0  0  0  0
  189.4500  174.5280  136.1270 C   0  0  1  0  0  0  0  0  0  0  0  0
  183.7730  173.2190  135.3670 C   0  0  2  0  0  3  0  0  0  0  0  0
  182.4670  175.2930  139.5020 C   0  0  0  0  0  3  0  0  0  0  0  0
  184.1510  179.6270  139.6070 C   0  0  0  0  0  2  0  0  0  0  0  0
  187.9280  173.8710  134.4970 C   0  0  0  0  0  2  0  0  0  0  0  0
  184.4170  175.5990  135.9770 C   0  0  0  0  0  1  0  0  0  0  0  0
  188.7000  174.9460  134.9940 O   0  0  0  0  0  0  0  0  0  0  0  0
  190.3410  175.7030  136.5790 C   0  0  2  0  0  3  0  0  0  0  0  0
  179.9820  176.5420  137.9970 C   0  0  0  0  0  1  0  0  0  0  0  0
  180.2650  176.5450  139.4920 C   0  0  0  0  0  2  0  0  0  0  0  0
  190.8290  175.7230  138.9030 O   0  0  0  0  0  0  0  0  0  0  0  0
  191.2090  175.4310  137.7790 C   0  0  0  0  0  0  0  0  0  0  0  0
  192.5490  174.8000  137.5820 C   0  0  0  0  0  2  0  0  0  0  0  0
  193.3710  175.6140  136.5990 C   0  0  0  0  0  1  0  0  0  0  0  0
  183.9010  177.8430  141.3130 C   0  0  0  0  0  2  0  0  0  0  0  0
  184.5890  178.9460  142.1140 C   0  0  0  0  0  2  0  0  0  0  0  0
  185.9810  179.0530  141.7060 N   0  0  0  0  0  2  0  0  0  0  0  0
  188.1520  178.2420  141.7130 O   0  0  0  0  0  0  0  0  0  0  0  0
  187.0480  178.3120  142.3120 C   0  0  0  0  0  0  0  0  0  0  0  0
  185.8340  177.7730  144.2870 O   0  0  0  0  0  0  0  0  0  0  0  0
  186.8900  177.6330  143.6140 C   0  0  0  0  0  0  0  0  0  0  0  0
  187.9850  176.7650  144.1550 C   0  0  0  0  0  2  0  0  0  0  0  0
  188.0930  178.0720  146.3100 C   0  0  0  0  0  2  0  0  0  0  0  0
  189.6250  178.5850  144.4820 N   0  0  0  0  0  2  0  0  0  0  0  0
  189.7940  176.6460  147.2500 C   0  0  0  0  0  2  0  0  0  0  0  0
  190.8490  178.0160  143.9420 C   0  0  0  0  0  2  0  0  0  0  0  0
  188.4410  178.0630  148.7720 C   0  0  0  0  0  1  0  0  0  0  0  0
  188.4200  177.2150  147.5160 C   0  0  1  0  0  3  0  0  0  0  0  0
  191.5590  176.9140  145.1880 S   0  0  0  0  0  0  0  0  0  0  0  0
  188.8970  177.5040  145.1450 C   0  0  2  0  0  0  0  0  0  0  0  0
  189.8850  176.5080  145.7440 C   0  0  2  0  0  3  0  0  0  0  0  0
  1 10  1  0  0  0  0
  2  3  1  0  0  0  0
  2 16  1  0  0  0  0
  3 28  1  6  0  0  0
  3 14  1  0  0  0  0
  4 20  1  0  0  0  0
  6 33  1  6  0  0  0
  8 22  1  1  0  0  0
  8 19  1  0  0  0  0
  8  1  1  0  0  0  0
  9 20  1  0  0  0  0
 10 38  1  1  0  0  0
 11 27  1  0  0  0  0
 12 23  1  0  0  0  0
 12 19  1  0  0  0  0
 13 26  2  0  0  0  0
 14  5  1  0  0  0  0
 15  7  1  6  0  0  0
 15  9  1  0  0  0  0
 17 23  1  0  0  0  0
 20 13  2  0  0  0  0
 21 10  1  0  0  0  0
 21  6  1  0  0  0  0
 22 11  1  0  0  0  0
 24 18  1  6  0  0  0
 24 31  1  0  0  0  0
 24  5  1  0  0  0  0
 25 15  1  0  0  0  0
 25 16  1  1  0  0  0
 25  4  1  0  0  0  0
 26  6  1  0  0  0  0
 27 10  1  0  0  0  0
 28 30  1  0  0  0  0
 29  4  1  0  0  0  0
 30 24  1  0  0  0  0
 31 17  1  0  0  0  0
 31 35  1  1  0  0  0
 32 33  1  0  0  0  0
 35 34  2  0  0  0  0
 36 35  1  0  0  0  0
 37 36  1  0  0  0  0
 38 39  1  0  0  0  0
 40 39  1  0  0  0  0
 40 42  1  0  0  0  0
 41 42  2  0  0  0  0
 42 44  1  0  0  0  0
 44 45  1  0  0  0  0
 44 43  2  0  0  0  0
 46 51  1  0  0  0  0
 47 53  1  0  0  0  0
 48 51  1  0  0  0  0
 49 47  1  0  0  0  0
 49 52  1  0  0  0  0
 51 50  1  1  0  0  0
 52 54  1  0  0  0  0
 53 45  1  6  0  0  0
 53 54  1  0  0  0  0
 53 46  1  0  0  0  0
 54 48  1  1  0  0  0
M  END
>  <MODEL>
1

>  <REMARK>
 VINA RESULT:      -6.7      0.000      0.000
  Name = 
  9 active torsions:
  status: ('A' for Active; 'I' for Inactive)
    1  A    between atoms: N_1  and  C_45
    2  A    between atoms: C_2  and  C_18
    3  A    between atoms: C_2  and  C_45
    4  A    between atoms: C_8  and  C_36
    5  A    between atoms: C_13  and  C_50
    6  A    between atoms: C_38  and  C_39
    7  A    between atoms: C_39  and  C_41
    8  A    between atoms: C_41  and  C_48
    9  A    between atoms: C_50  and  C_53
                            x       y       z     vdW  Elec       q    Type
                         _______ _______ _______ _____ _____    ______ ____

>  <TORSDO>
F 9

$$$$
=
 OpenBabel10222421493D

 54 59  0  0  1  0  0  0  0  0999 V2000
  187.8490  176.9920  138.7470 C   0  0  0  0  0  2  0  0  0  0  0  0
  181.9130  177.9190  141.1630 N   0  0  0  0  0  2  0  0  0  0  0  0
  182.4370  177.5410  139.8540 C   0  0  1  0  0  3  0  0  0  0  0  0
  185.1100  178.5250  141.4670 N   0  0  0  0  0  0  0  0  0  0  0  0
  182.9190  175.6550  138.2980 C   0  0  0  0  0  2  0  0  0  0  0  0
  189.6190  177.4490  141.4710 C   0  0  2  0  0  3  0  0  0  0  0  0
  184.3520  180.5110  144.0540 C   0  0  0  0  0  1  0  0  0  0  0  0
  187.1900  177.8600  137.6670 C   0  0  2  0  0  3  0  0  0  0  0  0
  185.7700  178.5690  143.7170 N   0  0  0  0  0  2  0  0  0  0  0  0
  189.3780  177.1770  138.8920 C   0  0  2  0  0  0  0  0  0  0  0  0
  189.3540  179.1440  137.2350 C   0  0  0  0  0  2  0  0  0  0  0  0
  186.0310  177.5250  135.7850 C   0  0  0  0  0  2  0  0  0  0  0  0
  187.2310  177.6270  142.1040 C   0  0  0  0  0  0  0  0  0  0  0  0
  182.5230  176.0240  139.7230 C   0  0  0  0  0  2  0  0  0  0  0  0
  184.3920  179.0410  143.6830 C   0  0  2  0  0  3  0  0  0  0  0  0
  182.9380  177.7000  142.1800 C   0  0  0  0  0  2  0  0  0  0  0  0
  183.6800  176.8790  135.3710 C   0  0  0  0  0  2  0  0  0  0  0  0
  180.6910  175.8490  137.4110 O   0  0  0  0  0  1  0  0  0  0  0  0
  187.2280  177.1940  136.4330 O   0  0  0  0  0  0  0  0  0  0  0  0
  186.1680  178.3330  142.3840 C   0  0  0  0  0  0  0  0  0  0  0  0
  189.6610  178.1120  140.0850 C   0  0  0  0  0  2  0  0  0  0  0  0
  187.8610  179.2340  137.5760 C   0  0  0  0  0  2  0  0  0  0  0  0
  184.9690  176.4780  136.0680 C   0  0  0  0  0  2  0  0  0  0  0  0
  181.9950  176.3500  137.2790 C   0  0  1  0  0  0  0  0  0  0  0  0
  183.9160  178.8670  142.2290 C   0  0  2  0  0  3  0  0  0  0  0  0
  188.2800  176.8880  141.8560 C   0  0  0  0  0  3  0  0  0  0  0  0
  189.9910  177.8080  137.6300 C   0  0  0  0  0  2  0  0  0  0  0  0
  181.4980  178.0620  138.7720 C   0  0  0  0  0  2  0  0  0  0  0  0
  185.3320  179.0430  140.1280 C   0  0  0  0  0  1  0  0  0  0  0  0
  182.0000  177.7570  137.4860 O   0  0  0  0  0  0  0  0  0  0  0  0
  182.4650  176.0700  135.8370 C   0  0  2  0  0  3  0  0  0  0  0  0
  191.5000  177.7290  143.1580 C   0  0  0  0  0  1  0  0  0  0  0  0
  190.2390  178.3320  142.5570 C   0  0  0  0  0  2  0  0  0  0  0  0
  183.2900  173.8500  136.0040 O   0  0  0  0  0  0  0  0  0  0  0  0
  182.5200  174.6180  135.4460 C   0  0  0  0  0  0  0  0  0  0  0  0
  181.6220  174.1200  134.3610 C   0  0  0  0  0  2  0  0  0  0  0  0
  180.4920  173.2970  134.9530 C   0  0  0  0  0  1  0  0  0  0  0  0
  190.0590  175.8180  139.1110 C   0  0  0  0  0  2  0  0  0  0  0  0
  191.1790  175.5400  138.1120 C   0  0  0  0  0  2  0  0  0  0  0  0
  190.9300  174.2770  137.4340 N   0  0  0  0  0  2  0  0  0  0  0  0
  191.5490  172.6590  135.8950 O   0  0  0  0  0  0  0  0  0  0  0  0
  191.6060  173.8680  136.2390 C   0  0  0  0  0  0  0  0  0  0  0  0
  191.8100  175.8510  134.9380 O   0  0  0  0  0  0  0  0  0  0  0  0
  192.3650  174.8200  135.4020 C   0  0  0  0  0  0  0  0  0  0  0  0
  193.8100  174.5710  135.0900 C   0  0  0  0  0  2  0  0  0  0  0  0
  194.6020  174.8880  137.4640 C   0  0  0  0  0  2  0  0  0  0  0  0
  194.5250  176.7830  135.9300 N   0  0  0  0  0  2  0  0  0  0  0  0
  196.9200  174.5880  136.8760 C   0  0  0  0  0  2  0  0  0  0  0  0
  195.3440  177.2910  134.8410 C   0  0  0  0  0  2  0  0  0  0  0  0
  196.2360  174.2990  139.2440 C   0  0  0  0  0  1  0  0  0  0  0  0
  195.8370  174.0770  137.7980 C   0  0  1  0  0  3  0  0  0  0  0  0
  196.9780  176.5230  134.9550 S   0  0  0  0  0  0  0  0  0  0  0  0
  194.7600  175.3430  136.0170 C   0  0  2  0  0  0  0  0  0  0  0  0
  196.1990  175.0300  135.6190 C   0  0  2  0  0  3  0  0  0  0  0  0
  1 10  1  0  0  0  0
  2 16  1  0  0  0  0
  3 28  1  6  0  0  0
  3  2  1  0  0  0  0
  4 25  1  0  0  0  0
  4 20  1  0  0  0  0
  5 14  1  0  0  0  0
  6 26  1  0  0  0  0
  6 33  1  1  0  0  0
  8 22  1  6  0  0  0
  8  1  1  0  0  0  0
 10 38  1  1  0  0  0
 10 21  1  0  0  0  0
 11 22  1  0  0  0  0
 11 27  1  0  0  0  0
 12 23  1  0  0  0  0
 12 19  1  0  0  0  0
 13 20  2  0  0  0  0
 14  3  1  0  0  0  0
 15  9  1  0  0  0  0
 15  7  1  6  0  0  0
 17 31  1  0  0  0  0
 17 23  1  0  0  0  0
 19  8  1  0  0  0  0
 20  9  1  0  0  0  0
 21  6  1  0  0  0  0
 24 18  1  1  0  0  0
 24 30  1  0  0  0  0
 24  5  1  0  0  0  0
 25 16  1  1  0  0  0
 25 15  1  0  0  0  0
 26 13  2  0  0  0  0
 27 10  1  0  0  0  0
 29  4  1  0  0  0  0
 30 28  1  0  0  0  0
 31 35  1  1  0  0  0
 31 24  1  0  0  0  0
 33 32  1  0  0  0  0
 35 34  2  0  0  0  0
 36 37  1  0  0  0  0
 36 35  1  0  0  0  0
 39 38  1  0  0  0  0
 40 39  1  0  0  0  0
 41 42  2  0  0  0  0
 42 40  1  0  0  0  0
 43 44  2  0  0  0  0
 44 42  1  0  0  0  0
 45 44  1  0  0  0  0
 46 51  1  0  0  0  0
 47 53  1  0  0  0  0
 48 51  1  0  0  0  0
 49 52  1  0  0  0  0
 49 47  1  0  0  0  0
 51 50  1  1  0  0  0
 52 54  1  0  0  0  0
 53 45  1  6  0  0  0
 53 46  1  0  0  0  0
 54 53  1  0  0  0  0
 54 48  1  1  0  0  0
M  END
>  <MODEL>
2

>  <REMARK>
 VINA RESULT:      -6.7      3.511      8.890
  Name = 
  9 active torsions:
  status: ('A' for Active; 'I' for Inactive)
    1  A    between atoms: N_1  and  C_45
    2  A    between atoms: C_2  and  C_18
    3  A    between atoms: C_2  and  C_45
    4  A    between atoms: C_8  and  C_36
    5  A    between atoms: C_13  and  C_50
    6  A    between atoms: C_38  and  C_39
    7  A    between atoms: C_39  and  C_41
    8  A    between atoms: C_41  and  C_48
    9  A    between atoms: C_50  and  C_53
                            x       y       z     vdW  Elec       q    Type
                         _______ _______ _______ _____ _____    ______ ____

>  <TORSDO>
F 9

$$$$
=
 OpenBabel10222421493D

 54 59  0  0  1  0  0  0  0  0999 V2000
  184.5880  176.2450  136.9020 C   0  0  0  0  0  2  0  0  0  0  0  0
  187.8570  170.8940  135.2890 N   0  0  0  0  0  2  0  0  0  0  0  0
  188.1960  172.3100  135.3800 C   0  0  1  0  0  3  0  0  0  0  0  0
  184.9310  172.3110  135.6130 N   0  0  0  0  0  0  0  0  0  0  0  0
  189.2380  174.0890  136.7800 C   0  0  0  0  0  2  0  0  0  0  0  0
  181.7120  174.8940  137.7240 C   0  0  2  0  0  3  0  0  0  0  0  0
  183.5850  169.5140  134.3570 C   0  0  0  0  0  1  0  0  0  0  0  0
  185.3080  176.6780  135.6180 C   0  0  2  0  0  3  0  0  0  0  0  0
  183.3220  170.7990  136.4010 N   0  0  0  0  0  2  0  0  0  0  0  0
  183.2270  176.9360  137.1530 C   0  0  2  0  0  0  0  0  0  0  0  0
  183.3090  178.0620  134.8430 C   0  0  0  0  0  2  0  0  0  0  0  0
  187.2500  177.6480  135.0830 C   0  0  0  0  0  2  0  0  0  0  0  0
  183.2600  173.0470  137.1550 C   0  0  0  0  0  0  0  0  0  0  0  0
  188.7460  172.6460  136.7630 C   0  0  0  0  0  2  0  0  0  0  0  0
  184.2680  170.0200  135.6130 C   0  0  2  0  0  3  0  0  0  0  0  0
  186.6360  170.6340  136.0460 C   0  0  0  0  0  2  0  0  0  0  0  0
  189.5650  176.7870  134.9740 C   0  0  0  0  0  2  0  0  0  0  0  0
  191.3720  173.5880  135.7870 O   0  0  0  0  0  1  0  0  0  0  0  0
  186.1060  177.8020  135.8770 O   0  0  0  0  0  0  0  0  0  0  0  0
  183.7200  172.1500  136.3230 C   0  0  0  0  0  0  0  0  0  0  0  0
  182.0920  175.9890  136.7130 C   0  0  0  0  0  2  0  0  0  0  0  0
  184.3090  176.9560  134.4900 C   0  0  0  0  0  2  0  0  0  0  0  0
  188.3510  176.9590  135.8700 C   0  0  0  0  0  2  0  0  0  0  0  0
  190.2060  174.3480  135.6080 C   0  0  1  0  0  0  0  0  0  0  0  0
  185.4010  170.9870  135.2260 C   0  0  2  0  0  3  0  0  0  0  0  0
  182.8090  173.9130  138.0240 C   0  0  0  0  0  3  0  0  0  0  0  0
  183.1020  178.2420  136.3500 C   0  0  0  0  0  2  0  0  0  0  0  0
  189.2700  172.6340  134.3470 C   0  0  0  0  0  2  0  0  0  0  0  0
  185.1960  173.4820  134.7940 C   0  0  0  0  0  1  0  0  0  0  0  0
  189.5880  174.0110  134.3730 O   0  0  0  0  0  0  0  0  0  0  0  0
  190.6150  175.8340  135.5570 C   0  0  2  0  0  3  0  0  0  0  0  0
  180.0700  173.0370  138.2820 C   0  0  0  0  0  1  0  0  0  0  0  0
  180.3780  174.2260  137.3850 C   0  0  0  0  0  2  0  0  0  0  0  0
  190.6300  176.6950  137.7690 O   0  0  0  0  0  0  0  0  0  0  0  0
  191.2880  176.3620  136.7950 C   0  0  0  0  0  0  0  0  0  0  0  0
  192.7780  176.4790  136.8220 C   0  0  0  0  0  2  0  0  0  0  0  0
  193.3510  175.6060  137.9220 C   0  0  0  0  0  1  0  0  0  0  0  0
  183.0760  177.2870  138.6400 C   0  0  0  0  0  2  0  0  0  0  0  0
  184.2330  178.1230  139.1800 C   0  0  0  0  0  2  0  0  0  0  0  0
  184.0770  178.3100  140.6140 N   0  0  0  0  0  2  0  0  0  0  0  0
  184.8230  179.1850  142.6260 O   0  0  0  0  0  0  0  0  0  0  0  0
  185.1240  178.7740  141.4760 C   0  0  0  0  0  0  0  0  0  0  0  0
  186.8620  178.4690  139.8780 O   0  0  0  0  0  0  0  0  0  0  0  0
  186.5400  178.7840  141.0540 C   0  0  0  0  0  0  0  0  0  0  0  0
  187.6180  179.1670  142.0230 C   0  0  0  0  0  2  0  0  0  0  0  0
  189.4800  177.5260  141.5720 C   0  0  0  0  0  2  0  0  0  0  0  0
  187.5030  176.8300  142.8200 N   0  0  0  0  0  2  0  0  0  0  0  0
  190.5710  177.9760  143.6740 C   0  0  0  0  0  2  0  0  0  0  0  0
  187.0100  176.9780  144.1800 C   0  0  0  0  0  2  0  0  0  0  0  0
  191.8760  176.9210  141.8460 C   0  0  0  0  0  1  0  0  0  0  0  0
  190.8040  177.9390  142.1810 C   0  0  1  0  0  3  0  0  0  0  0  0
  188.3970  177.4560  145.2370 S   0  0  0  0  0  0  0  0  0  0  0  0
  188.3980  177.9560  142.5550 C   0  0  2  0  0  0  0  0  0  0  0  0
  189.1140  178.3580  143.8410 C   0  0  2  0  0  3  0  0  0  0  0  0
  1 10  1  0  0  0  0
  2  3  1  0  0  0  0
  2 16  1  0  0  0  0
  3 28  1  6  0  0  0
  3 14  1  0  0  0  0
  4 20  1  0  0  0  0
  6 33  1  6  0  0  0
  6 26  1  0  0  0  0
  8 22  1  6  0  0  0
  8 19  1  0  0  0  0
  8  1  1  0  0  0  0
 10 38  1  1  0  0  0
 11 27  1  0  0  0  0
 12 23  1  0  0  0  0
 12 19  1  0  0  0  0
 13 26  2  0  0  0  0
 14  5  1  0  0  0  0
 15  7  1  6  0  0  0
 15  9  1  0  0  0  0
 17 31  1  0  0  0  0
 17 23  1  0  0  0  0
 20  9  1  0  0  0  0
 20 13  2  0  0  0  0
 21 10  1  0  0  0  0
 21  6  1  0  0  0  0
 22 11  1  0  0  0  0
 24 18  1  1  0  0  0
 24  5  1  0  0  0  0
 25  4  1  0  0  0  0
 25 15  1  0  0  0  0
 25 16  1  1  0  0  0
 27 10  1  0  0  0  0
 28 30  1  0  0  0  0
 29  4  1  0  0  0  0
 30 24  1  0  0  0  0
 31 24  1  0  0  0  0
 31 35  1  1  0  0  0
 33 32  1  0  0  0  0
 35 36  1  0  0  0  0
 35 34  2  0  0  0  0
 36 37  1  0  0  0  0
 38 39  1  0  0  0  0
 39 40  1  0  0  0  0
 40 42  1  0  0  0  0
 42 41  2  0  0  0  0
 43 44  2  0  0  0  0
 44 42  1  0  0  0  0
 44 45  1  0  0  0  0
 46 51  1  0  0  0  0
 46 53  1  0  0  0  0
 47 49  1  0  0  0  0
 49 52  1  0  0  0  0
 51 50  1  1  0  0  0
 51 48  1  0  0  0  0
 53 45  1  6  0  0  0
 53 47  1  0  0  0  0
 53 54  1  0  0  0  0
 54 48  1  6  0  0  0
 54 52  1  0  0  0  0
M  END
>  <MODEL>
3

>  <REMARK>
 VINA RESULT:      -6.1      2.010      3.021
  Name = 
  9 active torsions:
  status: ('A' for Active; 'I' for Inactive)
    1  A    between atoms: N_1  and  C_45
    2  A    between atoms: C_2  and  C_18
    3  A    between atoms: C_2  and  C_45
    4  A    between atoms: C_8  and  C_36
    5  A    between atoms: C_13  and  C_50
    6  A    between atoms: C_38  and  C_39
    7  A    between atoms: C_39  and  C_41
    8  A    between atoms: C_41  and  C_48
    9  A    between atoms: C_50  and  C_53
                            x       y       z     vdW  Elec       q    Type
                         _______ _______ _______ _____ _____    ______ ____

>  <TORSDO>
F 9

$$$$
=
 OpenBabel10222421493D

 54 59  0  0  1  0  0  0  0  0999 V2000
  187.8870  176.9620  138.6190 C   0  0  0  0  0  2  0  0  0  0  0  0
  182.1510  178.1020  141.3990 N   0  0  0  0  0  2  0  0  0  0  0  0
  182.5770  177.6950  140.0640 C   0  0  1  0  0  3  0  0  0  0  0  0
  185.3780  178.6100  141.4910 N   0  0  0  0  0  0  0  0  0  0  0  0
  182.8990  175.7790  138.5040 C   0  0  0  0  0  2  0  0  0  0  0  0
  189.8420  177.3920  141.2190 C   0  0  2  0  0  3  0  0  0  0  0  0
  184.8490  180.6450  144.0960 C   0  0  0  0  0  1  0  0  0  0  0  0
  187.1870  177.8400  137.5730 C   0  0  2  0  0  3  0  0  0  0  0  0
  186.1820  178.6560  143.6920 N   0  0  0  0  0  2  0  0  0  0  0  0
  189.4270  177.1000  138.6640 C   0  0  2  0  0  0  0  0  0  0  0  0
  189.3570  179.0500  136.9880 C   0  0  0  0  0  2  0  0  0  0  0  0
  185.8990  177.5230  135.7740 C   0  0  0  0  0  2  0  0  0  0  0  0
  187.5060  177.6520  142.0010 C   0  0  0  0  0  0  0  0  0  0  0  0
  182.6070  176.1740  139.9470 C   0  0  0  0  0  2  0  0  0  0  0  0
  184.8200  179.1710  143.7410 C   0  0  2  0  0  3  0  0  0  0  0  0
  183.2310  177.8610  142.3510 C   0  0  0  0  0  2  0  0  0  0  0  0
  183.5080  176.9480  135.5190 C   0  0  0  0  0  2  0  0  0  0  0  0
  180.6260  176.0330  137.7580 O   0  0  0  0  0  1  0  0  0  0  0  0
  187.1250  177.1610  136.3480 O   0  0  0  0  0  0  0  0  0  0  0  0
  186.4860  178.3930  142.3400 C   0  0  0  0  0  0  0  0  0  0  0  0
  189.8150  178.0390  139.8240 C   0  0  0  0  0  2  0  0  0  0  0  0
  187.8930  179.1910  137.4220 C   0  0  0  0  0  2  0  0  0  0  0  0
  184.8260  176.5130  136.1370 C   0  0  0  0  0  2  0  0  0  0  0  0
  181.9330  176.4920  137.5370 C   0  0  1  0  0  0  0  0  0  0  0  0
  184.2460  178.9970  142.3230 C   0  0  2  0  0  3  0  0  0  0  0  0
  188.5140  176.8770  141.6950 C   0  0  0  0  0  3  0  0  0  0  0  0
  189.9760  177.6990  137.3580 C   0  0  0  0  0  2  0  0  0  0  0  0
  181.5860  178.2340  139.0380 C   0  0  0  0  0  2  0  0  0  0  0  0
  185.5290  179.1070  140.1340 C   0  0  0  0  0  1  0  0  0  0  0  0
  181.9950  177.9000  137.7270 O   0  0  0  0  0  0  0  0  0  0  0  0
  182.3000  176.1820  136.0720 C   0  0  2  0  0  3  0  0  0  0  0  0
  191.3500  177.4510  143.2640 C   0  0  0  0  0  1  0  0  0  0  0  0
  190.5580  178.2650  142.2520 C   0  0  0  0  0  2  0  0  0  0  0  0
  183.3280  174.0970  135.5930 O   0  0  0  0  0  0  0  0  0  0  0  0
  182.2850  174.7250  135.6960 C   0  0  0  0  0  0  0  0  0  0  0  0
  180.9760  174.0490  135.4470 C   0  0  0  0  0  2  0  0  0  0  0  0
  180.8010  172.8800  136.3990 C   0  0  0  0  0  1  0  0  0  0  0  0
  190.0780  175.7240  138.8560 C   0  0  0  0  0  2  0  0  0  0  0  0
  191.3360  175.5320  138.0120 C   0  0  0  0  0  2  0  0  0  0  0  0
  191.2310  174.2970  137.2480 N   0  0  0  0  0  2  0  0  0  0  0  0
  192.2260  172.4990  136.1790 O   0  0  0  0  0  0  0  0  0  0  0  0
  192.3310  173.6950  136.5550 C   0  0  0  0  0  0  0  0  0  0  0  0
  193.6380  175.2420  135.3040 O   0  0  0  0  0  0  0  0  0  0  0  0
  193.5780  174.4340  136.2690 C   0  0  0  0  0  0  0  0  0  0  0  0
  194.7930  174.2320  137.1230 C   0  0  0  0  0  2  0  0  0  0  0  0
  196.6790  174.5590  135.4800 C   0  0  0  0  0  2  0  0  0  0  0  0
  195.4620  172.4460  135.5510 N   0  0  0  0  0  2  0  0  0  0  0  0
  198.3180  173.5910  136.9580 C   0  0  0  0  0  2  0  0  0  0  0  0
  195.4580  171.2590  136.3910 C   0  0  0  0  0  2  0  0  0  0  0  0
  199.0890  175.0380  135.0960 C   0  0  0  0  0  1  0  0  0  0  0  0
  198.0130  174.8270  136.1440 C   0  0  1  0  0  3  0  0  0  0  0  0
  196.9940  171.2380  137.3460 S   0  0  0  0  0  0  0  0  0  0  0  0
  195.9470  173.5580  136.3670 C   0  0  2  0  0  0  0  0  0  0  0  0
  196.9680  173.0470  137.3790 C   0  0  2  0  0  3  0  0  0  0  0  0
  1 10  1  0  0  0  0
  2 16  1  0  0  0  0
  3 28  1  6  0  0  0
  3  2  1  0  0  0  0
  4 25  1  0  0  0  0
  4 20  1  0  0  0  0
  5 14  1  0  0  0  0
  6 26  1  0  0  0  0
  6 33  1  1  0  0  0
  8 22  1  6  0  0  0
  8  1  1  0  0  0  0
  9 15  1  0  0  0  0
 10 38  1  1  0  0  0
 10 21  1  0  0  0  0
 11 27  1  0  0  0  0
 11 22  1  0  0  0  0
 12 23  1  0  0  0  0
 12 19  1  0  0  0  0
 13 20  2  0  0  0  0
 14  3  1  0  0  0  0
 15  7  1  6  0  0  0
 17 31  1  0  0  0  0
 17 23  1  0  0  0  0
 19  8  1  0  0  0  0
 20  9  1  0  0  0  0
 21  6  1  0  0  0  0
 24 30  1  0  0  0  0
 24 18  1  1  0  0  0
 24  5  1  0  0  0  0
 25 16  1  1  0  0  0
 25 15  1  0  0  0  0
 26 13  2  0  0  0  0
 27 10  1  0  0  0  0
 29  4  1  0  0  0  0
 30 28  1  0  0  0  0
 31 35  1  1  0  0  0
 31 24  1  0  0  0  0
 33 32  1  0  0  0  0
 34 35  2  0  0  0  0
 36 35  1  0  0  0  0
 36 37  1  0  0  0  0
 39 38  1  0  0  0  0
 40 39  1  0  0  0  0
 41 42  2  0  0  0  0
 42 40  1  0  0  0  0
 43 44  2  0  0  0  0
 44 42  1  0  0  0  0
 44 45  1  0  0  0  0
 46 51  1  0  0  0  0
 46 53  1  0  0  0  0
 47 53  1  0  0  0  0
 47 49  1  0  0  0  0
 49 52  1  0  0  0  0
 51 50  1  6  0  0  0
 51 48  1  0  0  0  0
 52 54  1  0  0  0  0
 53 45  1  1  0  0  0
 53 54  1  0  0  0  0
 54 48  1  6  0  0  0
M  END
>  <MODEL>
4

>  <REMARK>
 VINA RESULT:      -5.9      3.506      9.366
  Name = 
  9 active torsions:
  status: ('A' for Active; 'I' for Inactive)
    1  A    between atoms: N_1  and  C_45
    2  A    between atoms: C_2  and  C_18
    3  A    between atoms: C_2  and  C_45
    4  A    between atoms: C_8  and  C_36
    5  A    between atoms: C_13  and  C_50
    6  A    between atoms: C_38  and  C_39
    7  A    between atoms: C_39  and  C_41
    8  A    between atoms: C_41  and  C_48
    9  A    between atoms: C_50  and  C_53
                            x       y       z     vdW  Elec       q    Type
                         _______ _______ _______ _____ _____    ______ ____

>  <TORSDO>
F 9

$$$$
=
 OpenBabel10222421493D

 54 59  0  0  1  0  0  0  0  0999 V2000
  187.0160  176.9640  138.8040 C   0  0  0  0  0  2  0  0  0  0  0  0
  181.1170  174.7790  137.2710 N   0  0  0  0  0  2  0  0  0  0  0  0
  182.4580  174.5620  136.7380 C   0  0  1  0  0  3  0  0  0  0  0  0
  182.8650  177.1040  138.7600 N   0  0  0  0  0  0  0  0  0  0  0  0
  184.4410  173.0540  136.7130 C   0  0  0  0  0  2  0  0  0  0  0  0
  186.2610  178.7440  141.4550 C   0  0  2  0  0  3  0  0  0  0  0  0
  179.9830  178.6980  139.3630 C   0  0  0  0  0  1  0  0  0  0  0  0
  186.9910  177.1380  137.2800 C   0  0  2  0  0  3  0  0  0  0  0  0
  181.8140  177.8540  140.7170 N   0  0  0  0  0  2  0  0  0  0  0  0
  187.8880  177.9900  139.5650 C   0  0  2  0  0  0  0  0  0  0  0  0
  188.3000  179.3260  137.4060 C   0  0  0  0  0  2  0  0  0  0  0  0
  187.5610  175.9290  135.4890 C   0  0  0  0  0  2  0  0  0  0  0  0
  184.1770  177.6540  140.6800 C   0  0  0  0  0  0  0  0  0  0  0  0
  183.1120  173.3520  137.3970 C   0  0  0  0  0  2  0  0  0  0  0  0
  180.7500  177.4650  139.8010 C   0  0  2  0  0  3  0  0  0  0  0  0
  181.2110  175.3290  138.6200 C   0  0  0  0  0  2  0  0  0  0  0  0
  186.4680  174.0260  134.3480 C   0  0  0  0  0  2  0  0  0  0  0  0
  183.4600  171.8320  134.8870 O   0  0  0  0  0  1  0  0  0  0  0  0
  188.0520  176.4260  136.7030 O   0  0  0  0  0  0  0  0  0  0  0  0
  183.0390  177.6790  140.0390 C   0  0  0  0  0  0  0  0  0  0  0  0
  186.9790  179.0940  140.1410 C   0  0  0  0  0  2  0  0  0  0  0  0
  187.0400  178.6190  136.8910 C   0  0  0  0  0  2  0  0  0  0  0  0
  187.0130  174.5250  135.6750 C   0  0  0  0  0  2  0  0  0  0  0  0
  184.2560  172.9480  135.1860 C   0  0  1  0  0  0  0  0  0  0  0  0
  181.4440  176.8340  138.5810 C   0  0  2  0  0  3  0  0  0  0  0  0
  185.2960  177.5980  141.3540 C   0  0  0  0  0  3  0  0  0  0  0  0
  188.9190  178.6520  138.6350 C   0  0  0  0  0  2  0  0  0  0  0  0
  182.3620  174.2960  135.2400 C   0  0  0  0  0  2  0  0  0  0  0  0
  183.7220  177.4440  137.6370 C   0  0  0  0  0  1  0  0  0  0  0  0
  183.6490  174.1290  134.6790 O   0  0  0  0  0  0  0  0  0  0  0  0
  185.6150  172.7600  134.4830 C   0  0  2  0  0  3  0  0  0  0  0  0
  184.7730  179.6220  143.3190 C   0  0  0  0  0  1  0  0  0  0  0  0
  185.6670  179.9760  142.1400 C   0  0  0  0  0  2  0  0  0  0  0  0
  187.3410  171.6500  135.6770 O   0  0  0  0  0  0  0  0  0  0  0  0
  186.3990  171.5470  134.9060 C   0  0  0  0  0  0  0  0  0  0  0  0
  186.0130  170.2060  134.3700 C   0  0  0  0  0  2  0  0  0  0  0  0
  187.1870  169.2480  134.4630 C   0  0  0  0  0  1  0  0  0  0  0  0
  188.6600  177.2960  140.6970 C   0  0  0  0  0  2  0  0  0  0  0  0
  189.8240  178.1290  141.2280 C   0  0  0  0  0  2  0  0  0  0  0  0
  190.9270  177.2540  141.5930 N   0  0  0  0  0  2  0  0  0  0  0  0
  192.2940  176.2990  143.2020 O   0  0  0  0  0  0  0  0  0  0  0  0
  191.5660  177.2710  142.8760 C   0  0  0  0  0  0  0  0  0  0  0  0
  192.3620  179.1480  144.1040 O   0  0  0  0  0  0  0  0  0  0  0  0
  191.3950  178.3930  143.8220 C   0  0  0  0  0  0  0  0  0  0  0  0
  190.0640  178.6480  144.4640 C   0  0  0  0  0  2  0  0  0  0  0  0
  190.7280  176.5510  145.7000 C   0  0  0  0  0  2  0  0  0  0  0  0
  188.5660  176.6860  144.5790 N   0  0  0  0  0  2  0  0  0  0  0  0
  189.6430  177.2440  147.7380 C   0  0  0  0  0  2  0  0  0  0  0  0
  187.2710  177.2860  144.8570 C   0  0  0  0  0  2  0  0  0  0  0  0
  191.3870  175.4820  147.8460 C   0  0  0  0  0  1  0  0  0  0  0  0
  190.9670  176.7770  147.1780 C   0  0  1  0  0  3  0  0  0  0  0  0
  187.1920  177.6710  146.6220 S   0  0  0  0  0  0  0  0  0  0  0  0
  189.5710  177.4620  145.3040 C   0  0  2  0  0  0  0  0  0  0  0  0
  188.9730  177.9920  146.6040 C   0  0  2  0  0  3  0  0  0  0  0  0
  1 10  1  0  0  0  0
  2 16  1  0  0  0  0
  3 28  1  6  0  0  0
  3  2  1  0  0  0  0
  3 14  1  0  0  0  0
  4 20  1  0  0  0  0
  5 14  1  0  0  0  0
  6 33  1  6  0  0  0
  8 22  1  1  0  0  0
  8  1  1  0  0  0  0
 10 21  1  0  0  0  0
 10 38  1  1  0  0  0
 11 27  1  0  0  0  0
 12 23  1  0  0  0  0
 12 19  1  0  0  0  0
 13 26  2  0  0  0  0
 15  7  1  6  0  0  0
 15  9  1  0  0  0  0
 17 31  1  0  0  0  0
 17 23  1  0  0  0  0
 19  8  1  0  0  0  0
 20 13  2  0  0  0  0
 20  9  1  0  0  0  0
 21  6  1  0  0  0  0
 22 11  1  0  0  0  0
 24 18  1  6  0  0  0
 24  5  1  0  0  0  0
 25 16  1  1  0  0  0
 25  4  1  0  0  0  0
 25 15  1  0  0  0  0
 26  6  1  0  0  0  0
 27 10  1  0  0  0  0
 29  4  1  0  0  0  0
 30 24  1  0  0  0  0
 30 28  1  0  0  0  0
 31 35  1  1  0  0  0
 31 24  1  0  0  0  0
 33 32  1  0  0  0  0
 35 34  2  0  0  0  0
 36 37  1  0  0  0  0
 36 35  1  0  0  0  0
 38 39  1  0  0  0  0
 39 40  1  0  0  0  0
 40 42  1  0  0  0  0
 42 41  2  0  0  0  0
 42 44  1  0  0  0  0
 44 43  2  0  0  0  0
 44 45  1  0  0  0  0
 46 51  1  0  0  0  0
 47 49  1  0  0  0  0
 47 53  1  0  0  0  0
 49 52  1  0  0  0  0
 51 48  1  0  0  0  0
 51 50  1  1  0  0  0
 53 45  1  6  0  0  0
 53 46  1  0  0  0  0
 53 54  1  0  0  0  0
 54 52  1  0  0  0  0
 54 48  1  1  0  0  0
M  END
>  <MODEL>
5

>  <REMARK>
 VINA RESULT:      -5.8      2.654      5.013
  Name = 
  9 active torsions:
  status: ('A' for Active; 'I' for Inactive)
    1  A    between atoms: N_1  and  C_45
    2  A    between atoms: C_2  and  C_18
    3  A    between atoms: C_2  and  C_45
    4  A    between atoms: C_8  and  C_36
    5  A    between atoms: C_13  and  C_50
    6  A    between atoms: C_38  and  C_39
    7  A    between atoms: C_39  and  C_41
    8  A    between atoms: C_41  and  C_48
    9  A    between atoms: C_50  and  C_53
                            x       y       z     vdW  Elec       q    Type
                         _______ _______ _______ _____ _____    ______ ____

>  <TORSDO>
F 9

$$$$
=
 OpenBabel10222421493D

 54 59  0  0  1  0  0  0  0  0999 V2000
  186.9340  176.9430  138.8810 C   0  0  0  0  0  2  0  0  0  0  0  0
  180.8880  175.2390  137.3100 N   0  0  0  0  0  2  0  0  0  0  0  0
  182.2080  174.9390  136.7660 C   0  0  1  0  0  3  0  0  0  0  0  0
  182.8050  177.3880  138.8560 N   0  0  0  0  0  0  0  0  0  0  0  0
  184.0760  173.2920  136.6920 C   0  0  0  0  0  2  0  0  0  0  0  0
  186.3160  178.7000  141.5820 C   0  0  2  0  0  3  0  0  0  0  0  0
  180.0480  179.1710  139.5130 C   0  0  0  0  0  1  0  0  0  0  0  0
  186.9190  177.1610  137.3620 C   0  0  2  0  0  3  0  0  0  0  0  0
  181.8150  178.1590  140.8360 N   0  0  0  0  0  2  0  0  0  0  0  0
  187.8800  177.8810  139.6660 C   0  0  2  0  0  0  0  0  0  0  0  0
  188.3850  179.2430  137.5430 C   0  0  0  0  0  2  0  0  0  0  0  0
  187.3960  175.9630  135.5360 C   0  0  0  0  0  2  0  0  0  0  0  0
  184.1570  177.7870  140.7850 C   0  0  0  0  0  0  0  0  0  0  0  0
  182.7740  173.6680  137.3900 C   0  0  0  0  0  2  0  0  0  0  0  0
  180.7230  177.8740  139.9140 C   0  0  2  0  0  3  0  0  0  0  0  0
  181.0250  175.7430  138.6730 C   0  0  0  0  0  2  0  0  0  0  0  0
  186.1650  174.1780  134.3470 C   0  0  0  0  0  2  0  0  0  0  0  0
  183.0050  172.1950  134.8370 O   0  0  0  0  0  1  0  0  0  0  0  0
  187.9250  176.3900  136.7610 O   0  0  0  0  0  0  0  0  0  0  0  0
  183.0220  177.9130  140.1490 C   0  0  0  0  0  0  0  0  0  0  0  0
  187.0550  179.0330  140.2760 C   0  0  0  0  0  2  0  0  0  0  0  0
  187.0760  178.6450  137.0140 C   0  0  0  0  0  2  0  0  0  0  0  0
  186.7470  174.5990  135.6860 C   0  0  0  0  0  2  0  0  0  0  0  0
  183.8810  173.2420  135.1640 C   0  0  1  0  0  0  0  0  0  0  0  0
  181.3670  177.2270  138.6750 C   0  0  2  0  0  3  0  0  0  0  0  0
  185.2690  177.6310  141.4530 C   0  0  0  0  0  3  0  0  0  0  0  0
  188.9550  178.4920  138.7510 C   0  0  0  0  0  2  0  0  0  0  0  0
  182.0910  174.7230  135.2610 C   0  0  0  0  0  2  0  0  0  0  0  0
  183.6820  177.6960  137.7390 C   0  0  0  0  0  1  0  0  0  0  0  0
  183.3610  174.4780  134.6920 O   0  0  0  0  0  0  0  0  0  0  0  0
  185.2220  172.9740  134.4510 C   0  0  2  0  0  3  0  0  0  0  0  0
  185.1650  179.6420  143.6430 C   0  0  0  0  0  1  0  0  0  0  0  0
  185.8150  179.9530  142.3030 C   0  0  0  0  0  2  0  0  0  0  0  0
  185.4770  170.6140  134.4750 O   0  0  0  0  0  0  0  0  0  0  0  0
  185.9150  171.6960  134.8370 C   0  0  0  0  0  0  0  0  0  0  0  0
  187.1500  171.7600  135.6760 C   0  0  0  0  0  2  0  0  0  0  0  0
  188.2780  170.9990  135.0040 C   0  0  0  0  0  1  0  0  0  0  0  0
  188.6010  177.1020  140.7750 C   0  0  0  0  0  2  0  0  0  0  0  0
  190.0530  177.5340  140.9660 C   0  0  0  0  0  2  0  0  0  0  0  0
  190.7490  176.5630  141.7960 N   0  0  0  0  0  2  0  0  0  0  0  0
  190.7110  174.8270  143.3300 O   0  0  0  0  0  0  0  0  0  0  0  0
  190.1300  175.8430  142.8690 C   0  0  0  0  0  0  0  0  0  0  0  0
  187.8840  175.4400  143.5460 O   0  0  0  0  0  0  0  0  0  0  0  0
  188.8360  176.2590  143.4480 C   0  0  0  0  0  0  0  0  0  0  0  0
  188.6360  177.6640  143.9290 C   0  0  0  0  0  2  0  0  0  0  0  0
  188.3240  178.4600  146.3030 C   0  0  0  0  0  2  0  0  0  0  0  0
  190.4150  178.8960  145.1230 N   0  0  0  0  0  2  0  0  0  0  0  0
  189.3400  176.4870  147.2430 C   0  0  0  0  0  2  0  0  0  0  0  0
  191.6110  178.1410  144.7850 C   0  0  0  0  0  2  0  0  0  0  0  0
  187.8850  177.8900  148.6830 C   0  0  0  0  0  1  0  0  0  0  0  0
  188.0890  177.3340  147.2870 C   0  0  1  0  0  3  0  0  0  0  0  0
  191.6720  176.6750  145.8420 S   0  0  0  0  0  0  0  0  0  0  0  0
  189.3220  177.9360  145.2750 C   0  0  2  0  0  0  0  0  0  0  0  0
  189.8630  176.6220  145.8270 C   0  0  2  0  0  3  0  0  0  0  0  0
  1 10  1  0  0  0  0
  2 16  1  0  0  0  0
  3 28  1  6  0  0  0
  3  2  1  0  0  0  0
  3 14  1  0  0  0  0
  4 20  1  0  0  0  0
  5 14  1  0  0  0  0
  6 33  1  6  0  0  0
  8 22  1  1  0  0  0
  8  1  1  0  0  0  0
 10 21  1  0  0  0  0
 10 38  1  1  0  0  0
 11 27  1  0  0  0  0
 12 23  1  0  0  0  0
 12 19  1  0  0  0  0
 13 26  2  0  0  0  0
 15  7  1  6  0  0  0
 15  9  1  0  0  0  0
 17 31  1  0  0  0  0
 17 23  1  0  0  0  0
 19  8  1  0  0  0  0
 20 13  2  0  0  0  0
 20  9  1  0  0  0  0
 21  6  1  0  0  0  0
 22 11  1  0  0  0  0
 24 18  1  6  0  0  0
 24  5  1  0  0  0  0
 25 16  1  1  0  0  0
 25  4  1  0  0  0  0
 25 15  1  0  0  0  0
 26  6  1  0  0  0  0
 27 10  1  0  0  0  0
 29  4  1  0  0  0  0
 30 24  1  0  0  0  0
 30 28  1  0  0  0  0
 31 35  1  1  0  0  0
 31 24  1  0  0  0  0
 33 32  1  0  0  0  0
 34 35  2  0  0  0  0
 35 36  1  0  0  0  0
 37 36  1  0  0  0  0
 38 39  1  0  0  0  0
 39 40  1  0  0  0  0
 40 42  1  0  0  0  0
 42 41  2  0  0  0  0
 42 44  1  0  0  0  0
 44 43  2  0  0  0  0
 44 45  1  0  0  0  0
 46 51  1  0  0  0  0
 47 53  1  0  0  0  0
 48 51  1  0  0  0  0
 49 47  1  0  0  0  0
 49 52  1  0  0  0  0
 51 50  1  1  0  0  0
 53 45  1  6  0  0  0
 53 54  1  0  0  0  0
 53 46  1  0  0  0  0
 54 52  1  0  0  0  0
 54 48  1  1  0  0  0
M  END
>  <MODEL>
6

>  <REMARK>
 VINA RESULT:      -5.2      2.415      4.859
  Name = 
  9 active torsions:
  status: ('A' for Active; 'I' for Inactive)
    1  A    between atoms: N_1  and  C_45
    2  A    between atoms: C_2  and  C_18
    3  A    between atoms: C_2  and  C_45
    4  A    between atoms: C_8  and  C_36
    5  A    between atoms: C_13  and  C_50
    6  A    between atoms: C_38  and  C_39
    7  A    between atoms: C_39  and  C_41
    8  A    between atoms: C_41  and  C_48
    9  A    between atoms: C_50  and  C_53
                            x       y       z     vdW  Elec       q    Type
                         _______ _______ _______ _____ _____    ______ ____

>  <TORSDO>
F 9

$$$$
=
 OpenBabel10222421493D

 54 59  0  0  1  0  0  0  0  0999 V2000
  184.3650  177.3000  139.7720 C   0  0  0  0  0  2  0  0  0  0  0  0
  190.7910  177.0490  140.5300 N   0  0  0  0  0  2  0  0  0  0  0  0
  189.6740  177.4180  141.3930 C   0  0  1  0  0  3  0  0  0  0  0  0
  188.2950  177.2400  138.4290 N   0  0  0  0  0  0  0  0  0  0  0  0
  188.1290  176.6570  143.1950 C   0  0  0  0  0  2  0  0  0  0  0  0
  184.1340  176.1210  136.7190 C   0  0  2  0  0  3  0  0  0  0  0  0
  190.5560  177.5380  135.9770 C   0  0  0  0  0  1  0  0  0  0  0  0
  184.6670  178.6460  140.4460 C   0  0  2  0  0  3  0  0  0  0  0  0
  188.7220  176.0250  136.4700 N   0  0  0  0  0  2  0  0  0  0  0  0
  183.1470  177.3040  138.8200 C   0  0  2  0  0  0  0  0  0  0  0  0
  182.9020  179.8530  139.0510 C   0  0  0  0  0  2  0  0  0  0  0  0
  184.7660  179.4410  142.5320 C   0  0  0  0  0  2  0  0  0  0  0  0
  186.5240  176.0410  137.3630 C   0  0  0  0  0  0  0  0  0  0  0  0
  189.1850  176.2120  142.1900 C   0  0  0  0  0  2  0  0  0  0  0  0
  190.0120  176.5050  136.9450 C   0  0  2  0  0  3  0  0  0  0  0  0
  190.2980  176.2650  139.4020 C   0  0  0  0  0  2  0  0  0  0  0  0
  186.4710  179.2360  144.3120 C   0  0  0  0  0  2  0  0  0  0  0  0
  189.7170  177.4070  144.8400 O   0  0  0  0  0  1  0  0  0  0  0  0
  183.9350  178.7550  141.6370 O   0  0  0  0  0  0  0  0  0  0  0  0
  187.7360  176.5310  137.3430 C   0  0  0  0  0  0  0  0  0  0  0  0
  183.6450  177.4280  137.3660 C   0  0  0  0  0  2  0  0  0  0  0  0
  184.3670  179.8160  139.5030 C   0  0  0  0  0  2  0  0  0  0  0  0
  185.5650  178.4600  143.3710 C   0  0  0  0  0  2  0  0  0  0  0  0
  188.6460  177.8370  144.0420 C   0  0  1  0  0  0  0  0  0  0  0  0
  189.7460  177.1700  138.3080 C   0  0  2  0  0  3  0  0  0  0  0  0
  185.3320  175.5060  137.3840 C   0  0  0  0  0  3  0  0  0  0  0  0
  182.2090  178.4880  139.1090 C   0  0  0  0  0  2  0  0  0  0  0  0
  190.1350  178.4860  142.3780 C   0  0  0  0  0  2  0  0  0  0  0  0
  187.6360  178.3900  139.0230 C   0  0  0  0  0  1  0  0  0  0  0  0
  189.0630  178.9040  143.1990 O   0  0  0  0  0  0  0  0  0  0  0  0
  187.5400  178.3620  144.9790 C   0  0  2  0  0  3  0  0  0  0  0  0
  183.4490  177.3750  134.6170 C   0  0  0  0  0  1  0  0  0  0  0  0
  184.2810  176.2430  135.2010 C   0  0  0  0  0  2  0  0  0  0  0  0
  185.8190  176.9800  145.8530 O   0  0  0  0  0  0  0  0  0  0  0  0
  186.9790  177.3540  145.9440 C   0  0  0  0  0  0  0  0  0  0  0  0
  187.8570  176.8120  147.0250 C   0  0  0  0  0  2  0  0  0  0  0  0
  187.6540  177.5970  148.3080 C   0  0  0  0  0  1  0  0  0  0  0  0
  182.3330  176.0130  138.9920 C   0  0  0  0  0  2  0  0  0  0  0  0
  181.1920  175.8840  137.9860 C   0  0  0  0  0  2  0  0  0  0  0  0
  180.4810  174.6340  138.2080 N   0  0  0  0  0  2  0  0  0  0  0  0
  180.1420  172.3950  137.7190 O   0  0  0  0  0  0  0  0  0  0  0  0
  180.5350  173.5180  137.3110 C   0  0  0  0  0  0  0  0  0  0  0  0
  181.4760  174.7490  135.5040 O   0  0  0  0  0  0  0  0  0  0  0  0
  181.0360  173.6470  135.9270 C   0  0  0  0  0  0  0  0  0  0  0  0
  181.0290  172.4660  135.0040 C   0  0  0  0  0  2  0  0  0  0  0  0
  183.4640  172.4300  134.3460 C   0  0  0  0  0  2  0  0  0  0  0  0
  182.1800  170.3570  134.4220 N   0  0  0  0  0  2  0  0  0  0  0  0
  184.2060  171.9770  136.5940 C   0  0  0  0  0  2  0  0  0  0  0  0
  181.7150  169.4420  135.4530 C   0  0  0  0  0  2  0  0  0  0  0  0
  185.8270  172.9040  134.9590 C   0  0  0  0  0  1  0  0  0  0  0  0
  184.3880  172.9310  135.4360 C   0  0  1  0  0  3  0  0  0  0  0  0
  182.6690  169.7540  136.9570 S   0  0  0  0  0  0  0  0  0  0  0  0
  182.3410  171.6700  135.0450 C   0  0  2  0  0  0  0  0  0  0  0  0
  182.7710  171.5020  136.4980 C   0  0  2  0  0  3  0  0  0  0  0  0
  1  8  1  0  0  0  0
  2  3  1  0  0  0  0
  3 14  1  1  0  0  0
  3 28  1  0  0  0  0
  4 29  1  0  0  0  0
  5 24  1  0  0  0  0
  6 33  1  6  0  0  0
  6 21  1  0  0  0  0
  6 26  1  0  0  0  0
  8 22  1  6  0  0  0
  8 19  1  0  0  0  0
  9 15  1  0  0  0  0
  9 20  1  0  0  0  0
 10 38  1  1  0  0  0
 10 27  1  0  0  0  0
 10  1  1  0  0  0  0
 11 27  1  0  0  0  0
 11 22  1  0  0  0  0
 12 23  1  0  0  0  0
 13 26  2  0  0  0  0
 14  5  1  0  0  0  0
 15  7  1  6  0  0  0
 15 25  1  0  0  0  0
 16  2  1  0  0  0  0
 17 31  1  0  0  0  0
 19 12  1  0  0  0  0
 20 13  2  0  0  0  0
 20  4  1  0  0  0  0
 21 10  1  0  0  0  0
 23 17  1  0  0  0  0
 24 18  1  1  0  0  0
 24 31  1  0  0  0  0
 25  4  1  0  0  0  0
 25 16  1  1  0  0  0
 28 30  1  0  0  0  0
 30 24  1  0  0  0  0
 31 35  1  6  0  0  0
 32 33  1  0  0  0  0
 34 35  2  0  0  0  0
 35 36  1  0  0  0  0
 36 37  1  0  0  0  0
 39 40  1  0  0  0  0
 39 38  1  0  0  0  0
 42 41  2  0  0  0  0
 42 40  1  0  0  0  0
 43 44  2  0  0  0  0
 44 42  1  0  0  0  0
 45 44  1  0  0  0  0
 46 53  1  0  0  0  0
 46 51  1  0  0  0  0
 47 53  1  0  0  0  0
 47 49  1  0  0  0  0
 49 52  1  0  0  0  0
 51 50  1  6  0  0  0
 51 48  1  0  0  0  0
 53 45  1  6  0  0  0
 53 54  1  0  0  0  0
 54 48  1  6  0  0  0
 54 52  1  0  0  0  0
M  END
>  <MODEL>
7

>  <REMARK>
 VINA RESULT:      -4.2      3.273      8.918
  Name = 
  9 active torsions:
  status: ('A' for Active; 'I' for Inactive)
    1  A    between atoms: N_1  and  C_45
    2  A    between atoms: C_2  and  C_18
    3  A    between atoms: C_2  and  C_45
    4  A    between atoms: C_8  and  C_36
    5  A    between atoms: C_13  and  C_50
    6  A    between atoms: C_38  and  C_39
    7  A    between atoms: C_39  and  C_41
    8  A    between atoms: C_41  and  C_48
    9  A    between atoms: C_50  and  C_53
                            x       y       z     vdW  Elec       q    Type
                         _______ _______ _______ _____ _____    ______ ____

>  <TORSDO>
F 9

$$$$
=
 OpenBabel10222421493D

 54 59  0  0  1  0  0  0  0  0999 V2000
  185.7070  176.2140  136.7780 C   0  0  0  0  0  2  0  0  0  0  0  0
  187.8860  170.2970  135.3040 N   0  0  0  0  0  2  0  0  0  0  0  0
  188.4930  171.6220  135.3730 C   0  0  1  0  0  3  0  0  0  0  0  0
  185.2880  172.2630  135.5670 N   0  0  0  0  0  0  0  0  0  0  0  0
  189.8500  173.1930  136.7510 C   0  0  0  0  0  2  0  0  0  0  0  0
  182.6180  175.4660  137.5910 C   0  0  2  0  0  3  0  0  0  0  0  0
  183.4340  169.7560  134.3480 C   0  0  0  0  0  1  0  0  0  0  0  0
  186.5090  176.4720  135.4950 C   0  0  2  0  0  3  0  0  0  0  0  0
  183.4100  171.1090  136.3630 N   0  0  0  0  0  2  0  0  0  0  0  0
  184.5050  177.1610  137.0000 C   0  0  2  0  0  0  0  0  0  0  0  0
  184.8230  178.2030  134.6700 C   0  0  0  0  0  2  0  0  0  0  0  0
  188.6060  177.0350  134.9650 C   0  0  0  0  0  2  0  0  0  0  0  0
  183.7810  173.3410  137.0750 C   0  0  0  0  0  0  0  0  0  0  0  0
  189.0870  171.8730  136.7550 C   0  0  0  0  0  2  0  0  0  0  0  0
  184.1920  170.1450  135.6020 C   0  0  2  0  0  3  0  0  0  0  0  0
  186.6310  170.2960  136.0510 C   0  0  0  0  0  2  0  0  0  0  0  0
  190.7110  175.7380  134.8990 C   0  0  0  0  0  2  0  0  0  0  0  0
  191.8530  172.2660  135.7920 O   0  0  0  0  0  1  0  0  0  0  0  0
  187.5080  177.4250  135.7430 O   0  0  0  0  0  0  0  0  0  0  0  0
  184.0640  172.3550  136.2660 C   0  0  0  0  0  0  0  0  0  0  0  0
  183.2120  176.4440  136.5650 C   0  0  0  0  0  2  0  0  0  0  0  0
  185.5920  176.9160  134.3500 C   0  0  0  0  0  2  0  0  0  0  0  0
  189.5460  176.1620  135.7770 C   0  0  0  0  0  2  0  0  0  0  0  0
  190.8590  173.2350  135.5860 C   0  0  1  0  0  0  0  0  0  0  0  0
  185.4950  170.8650  135.2110 C   0  0  2  0  0  3  0  0  0  0  0  0
  183.5000  174.2960  137.9220 C   0  0  0  0  0  3  0  0  0  0  0  0
  184.6430  178.4500  136.1720 C   0  0  0  0  0  2  0  0  0  0  0  0
  189.6170  171.7100  134.3460 C   0  0  0  0  0  2  0  0  0  0  0  0
  185.7830  173.3420  134.7290 C   0  0  0  0  0  1  0  0  0  0  0  0
  190.1970  172.9990  134.3500 O   0  0  0  0  0  0  0  0  0  0  0  0
  191.5500  174.6110  135.5120 C   0  0  2  0  0  3  0  0  0  0  0  0
  180.3850  176.1970  136.6220 C   0  0  0  0  0  1  0  0  0  0  0  0
  181.1820  175.0630  137.2490 C   0  0  0  0  0  2  0  0  0  0  0  0
  191.8060  174.8900  137.8560 O   0  0  0  0  0  0  0  0  0  0  0  0
  192.3030  175.0240  136.7480 C   0  0  0  0  0  0  0  0  0  0  0  0
  193.6740  175.6040  136.6070 C   0  0  0  0  0  2  0  0  0  0  0  0
  194.5870  174.6220  135.8960 C   0  0  0  0  0  1  0  0  0  0  0  0
  184.4140  177.5660  138.4790 C   0  0  0  0  0  2  0  0  0  0  0  0
  185.4450  178.6180  138.8780 C   0  0  0  0  0  2  0  0  0  0  0  0
  186.7840  178.1320  138.5800 N   0  0  0  0  0  2  0  0  0  0  0  0
  188.7780  177.1720  139.2650 O   0  0  0  0  0  0  0  0  0  0  0  0
  187.7730  177.8600  139.5800 C   0  0  0  0  0  0  0  0  0  0  0  0
  187.5500  179.5970  141.1920 O   0  0  0  0  0  0  0  0  0  0  0  0
  187.6480  178.3620  140.9630 C   0  0  0  0  0  0  0  0  0  0  0  0
  187.6370  177.4080  142.1190 C   0  0  0  0  0  2  0  0  0  0  0  0
  188.0210  178.4140  144.4010 C   0  0  0  0  0  2  0  0  0  0  0  0
  189.7060  178.6490  142.6540 N   0  0  0  0  0  2  0  0  0  0  0  0
  189.2150  176.4800  145.2040 C   0  0  0  0  0  2  0  0  0  0  0  0
  190.7430  177.8130  142.0700 C   0  0  0  0  0  2  0  0  0  0  0  0
  188.2530  178.0670  146.8520 C   0  0  0  0  0  1  0  0  0  0  0  0
  188.0450  177.3870  145.5130 C   0  0  1  0  0  3  0  0  0  0  0  0
  191.0650  176.4390  143.2010 S   0  0  0  0  0  0  0  0  0  0  0  0
  188.6780  177.7590  143.1910 C   0  0  2  0  0  0  0  0  0  0  0  0
  189.3240  176.4710  143.6930 C   0  0  2  0  0  3  0  0  0  0  0  0
  1 10  1  0  0  0  0
  2  3  1  0  0  0  0
  2 16  1  0  0  0  0
  3 28  1  6  0  0  0
  3 14  1  0  0  0  0
  4 20  1  0  0  0  0
  5 14  1  0  0  0  0
  6 33  1  6  0  0  0
  6 26  1  0  0  0  0
  8 22  1  6  0  0  0
  8 19  1  0  0  0  0
  8  1  1  0  0  0  0
 10 38  1  1  0  0  0
 11 27  1  0  0  0  0
 12 19  1  0  0  0  0
 12 23  1  0  0  0  0
 13 26  2  0  0  0  0
 15  7  1  6  0  0  0
 15  9  1  0  0  0  0
 17 31  1  0  0  0  0
 17 23  1  0  0  0  0
 20  9  1  0  0  0  0
 20 13  2  0  0  0  0
 21 10  1  0  0  0  0
 21  6  1  0  0  0  0
 22 11  1  0  0  0  0
 24 18  1  1  0  0  0
 24  5  1  0  0  0  0
 25  4  1  0  0  0  0
 25 15  1  0  0  0  0
 25 16  1  1  0  0  0
 27 10  1  0  0  0  0
 28 30  1  0  0  0  0
 29  4  1  0  0  0  0
 30 24  1  0  0  0  0
 31 24  1  0  0  0  0
 31 35  1  1  0  0  0
 32 33  1  0  0  0  0
 35 34  2  0  0  0  0
 36 35  1  0  0  0  0
 37 36  1  0  0  0  0
 38 39  1  0  0  0  0
 40 39  1  0  0  0  0
 40 42  1  0  0  0  0
 41 42  2  0  0  0  0
 42 44  1  0  0  0  0
 44 43  2  0  0  0  0
 44 45  1  0  0  0  0
 46 51  1  0  0  0  0
 47 53  1  0  0  0  0
 48 51  1  0  0  0  0
 49 47  1  0  0  0  0
 49 52  1  0  0  0  0
 51 50  1  1  0  0  0
 52 54  1  0  0  0  0
 53 45  1  6  0  0  0
 53 54  1  0  0  0  0
 53 46  1  0  0  0  0
 54 48  1  1  0  0  0
M  END
>  <MODEL>
8

>  <REMARK>
 VINA RESULT:      -4.0      1.931      2.613
  Name = 
  9 active torsions:
  status: ('A' for Active; 'I' for Inactive)
    1  A    between atoms: N_1  and  C_45
    2  A    between atoms: C_2  and  C_18
    3  A    between atoms: C_2  and  C_45
    4  A    between atoms: C_8  and  C_36
    5  A    between atoms: C_13  and  C_50
    6  A    between atoms: C_38  and  C_39
    7  A    between atoms: C_39  and  C_41
    8  A    between atoms: C_41  and  C_48
    9  A    between atoms: C_50  and  C_53
                            x       y       z     vdW  Elec       q    Type
                         _______ _______ _______ _____ _____    ______ ____

>  <TORSDO>
F 9

$$$$
=
 OpenBabel10222421493D

 54 59  0  0  1  0  0  0  0  0999 V2000
  189.4290  175.5410  135.9710 C   0  0  0  0  0  2  0  0  0  0  0  0
  184.8380  171.0100  135.4080 N   0  0  0  0  0  2  0  0  0  0  0  0
  184.8370  172.4290  135.7460 C   0  0  1  0  0  3  0  0  0  0  0  0
  188.0120  171.6380  135.8700 N   0  0  0  0  0  0  0  0  0  0  0  0
  184.4790  174.7450  134.8990 C   0  0  0  0  0  2  0  0  0  0  0  0
  192.0430  173.7790  135.0610 C   0  0  2  0  0  3  0  0  0  0  0  0
  188.4660  168.3470  136.2840 C   0  0  0  0  0  1  0  0  0  0  0  0
  188.5990  175.7590  137.2430 C   0  0  2  0  0  3  0  0  0  0  0  0
  189.3690  170.0500  134.8080 N   0  0  0  0  0  2  0  0  0  0  0  0
  190.9300  175.8920  136.1020 C   0  0  2  0  0  0  0  0  0  0  0  0
  190.6760  176.2840  138.6310 C   0  0  0  0  0  2  0  0  0  0  0  0
  186.8500  177.0080  137.8570 C   0  0  0  0  0  2  0  0  0  0  0  0
  190.0540  172.3210  134.8340 C   0  0  0  0  0  0  0  0  0  0  0  0
  184.6340  173.2830  134.4990 C   0  0  0  0  0  2  0  0  0  0  0  0
  188.1500  169.3540  135.1960 C   0  0  2  0  0  3  0  0  0  0  0  0
  186.0910  170.6680  134.7410 C   0  0  0  0  0  2  0  0  0  0  0  0
  184.4220  176.7940  137.4380 C   0  0  0  0  0  2  0  0  0  0  0  0
  182.1430  174.5590  135.4470 O   0  0  0  0  0  1  0  0  0  0  0  0
  188.1250  177.0780  137.2810 O   0  0  0  0  0  0  0  0  0  0  0  0
  189.2670  171.3760  135.2770 C   0  0  0  0  0  0  0  0  0  0  0  0
  191.7320  174.5940  136.3270 C   0  0  0  0  0  2  0  0  0  0  0  0
  189.4120  175.4260  138.4990 C   0  0  0  0  0  2  0  0  0  0  0  0
  185.7880  176.8910  136.7790 C   0  0  0  0  0  2  0  0  0  0  0  0
  183.3940  174.9000  135.9830 C   0  0  1  0  0  0  0  0  0  0  0  0
  187.2020  170.4320  135.7550 C   0  0  2  0  0  3  0  0  0  0  0  0
  190.8330  173.2500  134.3460 C   0  0  0  0  0  3  0  0  0  0  0  0
  191.1870  176.8290  137.2940 C   0  0  0  0  0  2  0  0  0  0  0  0
  183.6900  172.7120  136.7100 C   0  0  0  0  0  2  0  0  0  0  0  0
  187.8620  172.5490  136.9920 C   0  0  0  0  0  1  0  0  0  0  0  0
  183.6890  174.0710  137.1000 O   0  0  0  0  0  0  0  0  0  0  0  0
  183.3150  176.3610  136.4710 C   0  0  2  0  0  3  0  0  0  0  0  0
  193.1450  172.2240  136.7430 C   0  0  0  0  0  1  0  0  0  0  0  0
  193.1150  172.7150  135.3030 C   0  0  0  0  0  2  0  0  0  0  0  0
  183.6680  177.4290  134.3800 O   0  0  0  0  0  0  0  0  0  0  0  0
  183.0090  177.3810  135.4080 C   0  0  0  0  0  0  0  0  0  0  0  0
  181.8860  178.3450  135.6230 C   0  0  0  0  0  2  0  0  0  0  0  0
  180.7280  177.6510  136.3160 C   0  0  0  0  0  1  0  0  0  0  0  0
  191.4220  176.6050  134.8340 C   0  0  0  0  0  2  0  0  0  0  0  0
  192.8330  176.1930  134.4230 C   0  0  0  0  0  2  0  0  0  0  0  0
  193.7910  177.1760  134.9040 N   0  0  0  0  0  2  0  0  0  0  0  0
  195.9630  177.7790  135.4430 O   0  0  0  0  0  0  0  0  0  0  0  0
  195.1200  176.8510  135.3300 C   0  0  0  0  0  0  0  0  0  0  0  0
  196.1490  174.7740  134.7890 O   0  0  0  0  0  0  0  0  0  0  0  0
  195.5280  175.4660  135.6390 C   0  0  0  0  0  0  0  0  0  0  0  0
  195.2060  174.8600  136.9720 C   0  0  0  0  0  2  0  0  0  0  0  0
  196.7700  172.8940  136.7310 C   0  0  0  0  0  2  0  0  0  0  0  0
  196.0920  173.6630  138.9450 N   0  0  0  0  0  2  0  0  0  0  0  0
  198.7430  174.2640  136.9300 C   0  0  0  0  0  2  0  0  0  0  0  0
  196.4590  174.7470  139.8420 C   0  0  0  0  0  2  0  0  0  0  0  0
  198.9440  172.0110  135.9080 C   0  0  0  0  0  1  0  0  0  0  0  0
  198.0710  173.2440  136.0400 C   0  0  1  0  0  3  0  0  0  0  0  0
  198.0540  175.4100  139.3070 S   0  0  0  0  0  0  0  0  0  0  0  0
  196.3940  174.1020  137.5830 C   0  0  2  0  0  0  0  0  0  0  0  0
  197.6120  175.0200  137.5960 C   0  0  2  0  0  3  0  0  0  0  0  0
  1 10  1  0  0  0  0
  2  3  1  0  0  0  0
  3 14  1  6  0  0  0
  3 28  1  0  0  0  0
  4 29  1  0  0  0  0
  5 24  1  0  0  0  0
  6 33  1  1  0  0  0
  6 21  1  0  0  0  0
  8  1  1  6  0  0  0
  8 19  1  0  0  0  0
  8 22  1  0  0  0  0
  9 15  1  0  0  0  0
  9 20  1  0  0  0  0
 10 38  1  6  0  0  0
 10 21  1  0  0  0  0
 10 27  1  0  0  0  0
 13 20  2  0  0  0  0
 14  5  1  0  0  0  0
 15 25  1  0  0  0  0
 15  7  1  1  0  0  0
 16  2  1  0  0  0  0
 19 12  1  0  0  0  0
 20  4  1  0  0  0  0
 22 11  1  0  0  0  0
 23 17  1  0  0  0  0
 23 12  1  0  0  0  0
 24 18  1  6  0  0  0
 24 31  1  0  0  0  0
 24 30  1  0  0  0  0
 25 16  1  6  0  0  0
 25  4  1  0  0  0  0
 26 13  2  0  0  0  0
 26  6  1  0  0  0  0
 27 11  1  0  0  0  0
 28 30  1  0  0  0  0
 31 35  1  6  0  0  0
 31 17  1  0  0  0  0
 33 32  1  0  0  0  0
 34 35  2  0  0  0  0
 35 36  1  0  0  0  0
 36 37  1  0  0  0  0
 39 38  1  0  0  0  0
 39 40  1  0  0  0  0
 40 42  1  0  0  0  0
 42 41  2  0  0  0  0
 42 44  1  0  0  0  0
 43 44  2  0  0  0  0
 44 45  1  0  0  0  0
 46 53  1  0  0  0  0
 47 49  1  0  0  0  0
 51 50  1  1  0  0  0
 51 46  1  0  0  0  0
 51 48  1  0  0  0  0
 52 49  1  0  0  0  0
 53 45  1  6  0  0  0
 53 54  1  0  0  0  0
 53 47  1  0  0  0  0
 54 48  1  1  0  0  0
 54 52  1  0  0  0  0
M  END
>  <MODEL>
9

>  <REMARK>
 VINA RESULT:      -4.0      4.661      9.211
  Name = 
  9 active torsions:
  status: ('A' for Active; 'I' for Inactive)
    1  A    between atoms: N_1  and  C_45
    2  A    between atoms: C_2  and  C_18
    3  A    between atoms: C_2  and  C_45
    4  A    between atoms: C_8  and  C_36
    5  A    between atoms: C_13  and  C_50
    6  A    between atoms: C_38  and  C_39
    7  A    between atoms: C_39  and  C_41
    8  A    between atoms: C_41  and  C_48
    9  A    between atoms: C_50  and  C_53
                            x       y       z     vdW  Elec       q    Type
                         _______ _______ _______ _____ _____    ______ ____

>  <TORSDO>
F 9

$$$$
