=
 OpenBabel10232409053D

 57 57  0  0  1  0  0  0  0  0999 V2000
  187.0270  178.5580  140.0950 C   0  0  1  0  0  3  0  0  0  0  0  0
  188.9140  177.1450  140.4750 O   0  0  0  0  0  0  0  0  0  0  0  0
  186.1430  178.5580  142.4920 C   0  0  0  0  0  0  0  0  0  0  0  0
  185.4010  179.5630  142.3200 O   0  0  0  0  0  0  0  0  0  0  0  0
  187.0830  178.1690  141.4760 N   0  0  0  0  0  0  0  0  0  0  0  0
  188.1040  177.6830  139.4460 C   0  0  1  0  0  0  0  0  0  0  0  0
  188.2310  177.3140  141.7020 C   0  0  2  0  0  3  0  0  0  0  0  0
  187.5550  176.6230  138.7130 O   0  0  0  0  0  1  0  0  0  0  0  0
  189.1670  177.9470  142.7360 C   0  0  2  0  0  3  0  0  0  0  0  0
  190.3470  178.3660  142.1170 O   0  0  0  0  0  1  0  0  0  0  0  0
  189.4610  176.9730  143.8850 C   0  0  2  0  0  3  0  0  0  0  0  0
  189.0040  177.0900  146.4570 C   0  0  0  0  0  1  0  0  0  0  0  0
  190.1940  178.7320  145.2730 O   0  0  0  0  0  0  0  0  0  0  0  0
  189.5880  177.6730  145.2110 C   0  0  0  0  0  0  0  0  0  0  0  0
  190.6540  176.0430  143.5980 C   0  0  0  0  0  2  0  0  0  0  0  0
  191.7420  176.1020  144.6570 C   0  0  0  0  0  1  0  0  0  0  0  0
  188.9450  178.5600  138.5260 C   0  0  0  0  0  2  0  0  0  0  0  0
  188.6050  178.2100  136.7240 P   0  0  0  0  0  2  0  0  0  0  0  0
  190.2490  177.3890  136.4400 C   0  0  0  0  0  2  0  0  0  0  0  0
  190.5100  176.4770  137.4660 O   0  0  0  0  0  0  0  0  0  0  0  0
  191.0920  175.3820  136.8290 C   0  0  2  0  0  3  0  0  0  0  0  0
  189.2100  173.9440  137.0300 O   0  0  0  0  0  1  0  0  0  0  0  0
  190.5410  174.0970  137.4170 C   0  0  0  0  0  2  0  0  0  0  0  0
  192.5950  175.4290  137.0110 C   0  0  0  0  0  2  0  0  0  0  0  0
  193.0090  174.3170  137.7490 O   0  0  0  0  0  0  0  0  0  0  0  0
  195.3510  175.6490  136.9350 O   0  0  0  0  0  0  0  0  0  0  0  0
  194.6940  174.2070  137.5440 P   0  0  1  0  0  0  0  0  0  0  0  0
  195.3210  173.9190  138.8920 O   0  0  0  0  0  1  0  0  0  0  0  0
  195.0710  172.8230  136.4240 C   0  0  0  0  0  2  0  0  0  0  0  0
  195.9970  171.8170  137.0960 C   0  0  1  0  0  3  0  0  0  0  0  0
  194.0170  170.4740  136.8220 O   0  0  0  0  0  1  0  0  0  0  0  0
  195.2520  170.5410  137.4740 C   0  0  0  0  0  2  0  0  0  0  0  0
  197.1750  171.5040  136.1850 C   0  0  0  0  0  2  0  0  0  0  0  0
  198.4310  172.0540  136.7680 C   0  0  0  0  0  0  0  0  0  0  0  0
  199.5310  171.4970  136.4930 O   0  0  0  0  0  0  0  0  0  0  0  0
  198.3750  173.1460  137.6330 O   0  0  0  0  0  0  0  0  0  0  0  0
  200.0920  174.6140  137.1760 O   0  0  0  0  0  1  0  0  0  0  0  0
  198.7040  174.4570  137.1960 C   0  0  0  0  0  2  0  0  0  0  0  0
  186.0040  177.7490  143.7400 C   0  0  0  0  0  2  0  0  0  0  0  0
  185.2850  178.0090  146.1150 C   0  0  0  0  0  1  0  0  0  0  0  0
  186.0290  178.6610  144.9580 C   0  0  0  0  0  2  0  0  0  0  0  0
  185.5960  178.4710  139.5260 C   0  0  2  0  0  3  0  0  0  0  0  0
  185.5800  178.2320  138.1220 O   0  0  0  0  0  0  0  0  0  0  0  0
  183.8500  176.7070  138.1720 O   0  0  0  0  0  0  0  0  0  0  0  0
  184.8250  177.2110  137.5460 C   0  0  0  0  0  0  0  0  0  0  0  0
  185.1740  176.7500  136.2780 O   0  0  0  0  0  0  0  0  0  0  0  0
  184.4520  177.1240  135.1150 C   0  0  0  0  0  2  0  0  0  0  0  0
  183.1240  176.3880  135.0730 C   0  0  0  0  0  2  0  0  0  0  0  0
  183.3090  174.9550  134.5920 C   0  0  0  0  0  2  0  0  0  0  0  0
  181.4850  174.2400  135.6170 C   0  0  0  0  0  1  0  0  0  0  0  0
  182.0700  174.3530  134.3550 O   0  0  0  0  0  0  0  0  0  0  0  0
  184.7160  179.6540  139.9350 C   0  0  0  0  0  2  0  0  0  0  0  0
  183.8440  180.0600  138.8420 N   0  0  0  0  0  2  0  0  0  0  0  0
  182.4310  179.8340  138.8650 C   0  0  0  0  0  0  0  0  0  0  0  0
  181.8760  179.3350  139.8810 O   0  0  0  0  0  0  0  0  0  0  0  0
  181.6030  180.1900  137.6810 C   0  0  0  0  0  2  0  0  0  0  0  0
  181.1410  178.9360  136.9790 C   0  0  0  0  0  1  0  0  0  0  0  0
  1 42  1  6  0  0  0
  1  5  1  0  0  0  0
  2  7  1  0  0  0  0
  3 39  1  0  0  0  0
  4  3  2  0  0  0  0
  5  7  1  0  0  0  0
  5  3  1  0  0  0  0
  6  8  1  6  0  0  0
  6  1  1  0  0  0  0
  6  2  1  0  0  0  0
  7  9  1  1  0  0  0
  9 10  1  6  0  0  0
  9 11  1  0  0  0  0
 11 15  1  6  0  0  0
 11 14  1  0  0  0  0
 14 13  2  0  0  0  0
 14 12  1  0  0  0  0
 15 16  1  0  0  0  0
 17  6  1  0  0  0  0
 18 17  1  0  0  0  0
 19 18  1  0  0  0  0
 19 20  1  0  0  0  0
 21 24  1  1  0  0  0
 21 23  1  0  0  0  0
 21 20  1  0  0  0  0
 22 23  1  0  0  0  0
 24 25  1  0  0  0  0
 27 26  2  6  0  0  0
 27 25  1  0  0  0  0
 27 28  1  0  0  0  0
 29 30  1  0  0  0  0
 29 27  1  0  0  0  0
 30 33  1  6  0  0  0
 30 32  1  0  0  0  0
 31 32  1  0  0  0  0
 33 34  1  0  0  0  0
 34 36  1  0  0  0  0
 35 34  2  0  0  0  0
 37 38  1  0  0  0  0
 38 36  1  0  0  0  0
 39 41  1  0  0  0  0
 41 40  1  0  0  0  0
 42 52  1  6  0  0  0
 43 42  1  0  0  0  0
 45 43  1  0  0  0  0
 45 44  2  0  0  0  0
 46 45  1  0  0  0  0
 47 46  1  0  0  0  0
 48 47  1  0  0  0  0
 49 48  1  0  0  0  0
 51 49  1  0  0  0  0
 51 50  1  0  0  0  0
 53 54  1  0  0  0  0
 53 52  1  0  0  0  0
 54 55  2  0  0  0  0
 56 54  1  0  0  0  0
 57 56  1  0  0  0  0
M  END
>  <MODEL>
1

>  <REMARK>
 VINA RESULT:      -4.5      0.000      0.000
  Name = 
  33 active torsions:
  status: ('A' for Active; 'I' for Inactive)
    1  A    between atoms: C_2  and  C_19
    2  A    between atoms: C_2  and  C_38
    3  A    between atoms: C_2  and  O_44
    4  A    between atoms: C_4  and  C_14
    5  A    between atoms: C_5  and  O_10
    6  A    between atoms: C_5  and  C_26
    7  A    between atoms: C_6  and  P_8
    8  A    between atoms: C_6  and  C_27
    9  A    between atoms: P_8  and  O_13
   10  A    between atoms: C_9  and  C_31
   11  A    between atoms: O_10  and  C_17
   12  A    between atoms: O_13  and  C_19
   13  A    between atoms: C_14  and  C_35
   14  A    between atoms: C_14  and  O_36
   15  A    between atoms: O_16  and  C_28
   16  A    between atoms: O_16  and  C_30
   17  A    between atoms: C_17  and  O_36
   18  A    between atoms: C_18  and  C_23
   19  A    between atoms: C_20  and  C_56
   20  A    between atoms: C_23  and  C_43
   21  A    between atoms: C_23  and  C_46
   22  A    between atoms: C_26  and  C_39
   23  A    between atoms: C_27  and  C_42
   24  A    between atoms: C_27  and  C_50
   25  A    between atoms: N_29  and  C_35
   26  A    between atoms: C_30  and  C_42
   27  A    between atoms: C_37  and  C_54
   28  A    between atoms: C_39  and  O_45
   29  A    between atoms: C_40  and  O_44
   30  A    between atoms: C_40  and  P_49
   31  A    between atoms: C_41  and  C_46
   32  A    between atoms: P_49  and  C_54
   33  A    between atoms: C_51  and  C_56
                            x       y       z     vdW  Elec       q    Type
                         _______ _______ _______ _____ _____    ______ ____

>  <TORSDO>
F 33

$$$$
=
 OpenBabel10232409053D

 57 57  0  0  1  0  0  0  0  0999 V2000
  186.8910  178.4890  139.3860 C   0  0  1  0  0  3  0  0  0  0  0  0
  188.7480  177.2790  140.2750 O   0  0  0  0  0  0  0  0  0  0  0  0
  185.5630  178.6760  141.5600 C   0  0  0  0  0  0  0  0  0  0  0  0
  184.8110  179.5940  141.1350 O   0  0  0  0  0  0  0  0  0  0  0  0
  186.7030  178.2550  140.7900 N   0  0  0  0  0  0  0  0  0  0  0  0
  188.1210  177.6370  139.0570 C   0  0  1  0  0  0  0  0  0  0  0  0
  187.8330  177.5240  141.3250 C   0  0  2  0  0  3  0  0  0  0  0  0
  187.7860  176.4640  138.3690 O   0  0  0  0  0  1  0  0  0  0  0  0
  188.5130  178.3370  142.4300 C   0  0  2  0  0  3  0  0  0  0  0  0
  189.4360  179.2240  141.8700 O   0  0  0  0  0  1  0  0  0  0  0  0
  189.1860  177.4170  143.4590 C   0  0  2  0  0  3  0  0  0  0  0  0
  188.3670  177.9840  145.8770 C   0  0  0  0  0  1  0  0  0  0  0  0
  187.5060  176.2160  144.5960 O   0  0  0  0  0  0  0  0  0  0  0  0
  188.3020  177.1410  144.6460 C   0  0  0  0  0  0  0  0  0  0  0  0
  190.5880  177.8990  143.8740 C   0  0  0  0  0  2  0  0  0  0  0  0
  191.5070  176.7790  144.3310 C   0  0  0  0  0  1  0  0  0  0  0  0
  189.0720  178.4750  138.2100 C   0  0  0  0  0  2  0  0  0  0  0  0
  189.5330  177.6120  136.6190 P   0  0  0  0  0  2  0  0  0  0  0  0
  190.7960  176.5140  137.4290 C   0  0  0  0  0  2  0  0  0  0  0  0
  191.8660  176.2960  136.5580 O   0  0  0  0  0  0  0  0  0  0  0  0
  192.1080  174.9240  136.6290 C   0  0  2  0  0  3  0  0  0  0  0  0
  190.5140  173.1700  136.4570 O   0  0  0  0  0  1  0  0  0  0  0  0
  190.9210  174.2290  137.2670 C   0  0  0  0  0  2  0  0  0  0  0  0
  193.3560  174.6720  137.4510 C   0  0  0  0  0  2  0  0  0  0  0  0
  194.4240  174.3810  136.5970 O   0  0  0  0  0  0  0  0  0  0  0  0
  195.0450  172.6000  138.6860 O   0  0  0  0  0  1  0  0  0  0  0  0
  194.9500  172.8160  137.0050 P   0  0  1  0  0  0  0  0  0  0  0  0
  193.9620  171.8180  136.4410 O   0  0  0  0  0  0  0  0  0  0  0  0
  196.5750  172.5150  136.2410 C   0  0  0  0  0  2  0  0  0  0  0  0
  197.5320  171.8710  137.2370 C   0  0  1  0  0  3  0  0  0  0  0  0
  196.7920  169.7150  138.0100 O   0  0  0  0  0  1  0  0  0  0  0  0
  197.5860  170.3580  137.0580 C   0  0  0  0  0  2  0  0  0  0  0  0
  198.9180  172.4820  137.0950 C   0  0  0  0  0  2  0  0  0  0  0  0
  198.8940  173.9070  137.5290 C   0  0  0  0  0  0  0  0  0  0  0  0
  199.6430  174.7400  136.9440 O   0  0  0  0  0  0  0  0  0  0  0  0
  198.0790  174.2970  138.5910 O   0  0  0  0  0  0  0  0  0  0  0  0
  197.3640  175.8010  140.1840 O   0  0  0  0  0  1  0  0  0  0  0  0
  198.4810  175.3090  139.5040 C   0  0  0  0  0  2  0  0  0  0  0  0
  185.2330  177.9960  142.8490 C   0  0  0  0  0  2  0  0  0  0  0  0
  185.0460  179.8840  144.4710 C   0  0  0  0  0  1  0  0  0  0  0  0
  184.2730  178.8540  143.6600 C   0  0  0  0  0  2  0  0  0  0  0  0
  185.6030  178.2270  138.5770 C   0  0  2  0  0  3  0  0  0  0  0  0
  185.8680  177.9480  137.2060 O   0  0  0  0  0  0  0  0  0  0  0  0
  184.6240  177.3050  135.3730 O   0  0  0  0  0  0  0  0  0  0  0  0
  185.1430  177.0000  136.4830 C   0  0  0  0  0  0  0  0  0  0  0  0
  184.9930  175.7200  137.0130 O   0  0  0  0  0  0  0  0  0  0  0  0
  185.8030  174.6320  136.5960 C   0  0  0  0  0  2  0  0  0  0  0  0
  184.9410  173.4000  136.3790 C   0  0  0  0  0  2  0  0  0  0  0  0
  183.4820  173.6910  136.7040 C   0  0  0  0  0  2  0  0  0  0  0  0
  183.6980  171.5000  136.9050 C   0  0  0  0  0  1  0  0  0  0  0  0
  182.7420  172.5060  136.7480 O   0  0  0  0  0  0  0  0  0  0  0  0
  184.5460  179.3160  138.7660 C   0  0  0  0  0  2  0  0  0  0  0  0
  183.2200  178.8250  138.4200 N   0  0  0  0  0  2  0  0  0  0  0  0
  182.6100  177.7240  139.0990 C   0  0  0  0  0  0  0  0  0  0  0  0
  183.1780  177.1820  140.0870 O   0  0  0  0  0  0  0  0  0  0  0  0
  181.2910  177.2080  138.6440 C   0  0  0  0  0  2  0  0  0  0  0  0
  181.4850  175.9860  137.7790 C   0  0  0  0  0  1  0  0  0  0  0  0
  1 42  1  6  0  0  0
  1  5  1  0  0  0  0
  2  7  1  0  0  0  0
  3 39  1  0  0  0  0
  4  3  2  0  0  0  0
  5  7  1  0  0  0  0
  5  3  1  0  0  0  0
  6  8  1  6  0  0  0
  6  1  1  0  0  0  0
  6  2  1  0  0  0  0
  7  9  1  1  0  0  0
  9 10  1  6  0  0  0
  9 11  1  0  0  0  0
 11 15  1  1  0  0  0
 11 14  1  0  0  0  0
 13 14  2  0  0  0  0
 14 12  1  0  0  0  0
 15 16  1  0  0  0  0
 17  6  1  0  0  0  0
 18 19  1  0  0  0  0
 18 17  1  0  0  0  0
 20 21  1  0  0  0  0
 20 19  1  0  0  0  0
 21 23  1  1  0  0  0
 21 24  1  0  0  0  0
 22 23  1  0  0  0  0
 25 27  1  0  0  0  0
 25 24  1  0  0  0  0
 27 28  2  6  0  0  0
 27 26  1  0  0  0  0
 29 27  1  0  0  0  0
 30 29  1  6  0  0  0
 32 30  1  0  0  0  0
 32 31  1  0  0  0  0
 33 30  1  0  0  0  0
 33 34  1  0  0  0  0
 34 36  1  0  0  0  0
 35 34  2  0  0  0  0
 36 38  1  0  0  0  0
 38 37  1  0  0  0  0
 39 41  1  0  0  0  0
 41 40  1  0  0  0  0
 42 52  1  6  0  0  0
 43 42  1  0  0  0  0
 44 45  2  0  0  0  0
 45 46  1  0  0  0  0
 45 43  1  0  0  0  0
 47 46  1  0  0  0  0
 48 47  1  0  0  0  0
 48 49  1  0  0  0  0
 49 51  1  0  0  0  0
 51 50  1  0  0  0  0
 53 52  1  0  0  0  0
 53 54  1  0  0  0  0
 54 55  2  0  0  0  0
 56 54  1  0  0  0  0
 57 56  1  0  0  0  0
M  END
>  <MODEL>
2

>  <REMARK>
 VINA RESULT:      -4.2      1.712      2.101
  Name = 
  33 active torsions:
  status: ('A' for Active; 'I' for Inactive)
    1  A    between atoms: C_2  and  C_19
    2  A    between atoms: C_2  and  C_38
    3  A    between atoms: C_2  and  O_44
    4  A    between atoms: C_4  and  C_14
    5  A    between atoms: C_5  and  O_10
    6  A    between atoms: C_5  and  C_26
    7  A    between atoms: C_6  and  P_8
    8  A    between atoms: C_6  and  C_27
    9  A    between atoms: P_8  and  O_13
   10  A    between atoms: C_9  and  C_31
   11  A    between atoms: O_10  and  C_17
   12  A    between atoms: O_13  and  C_19
   13  A    between atoms: C_14  and  C_35
   14  A    between atoms: C_14  and  O_36
   15  A    between atoms: O_16  and  C_28
   16  A    between atoms: O_16  and  C_30
   17  A    between atoms: C_17  and  O_36
   18  A    between atoms: C_18  and  C_23
   19  A    between atoms: C_20  and  C_56
   20  A    between atoms: C_23  and  C_43
   21  A    between atoms: C_23  and  C_46
   22  A    between atoms: C_26  and  C_39
   23  A    between atoms: C_27  and  C_42
   24  A    between atoms: C_27  and  C_50
   25  A    between atoms: N_29  and  C_35
   26  A    between atoms: C_30  and  C_42
   27  A    between atoms: C_37  and  C_54
   28  A    between atoms: C_39  and  O_45
   29  A    between atoms: C_40  and  O_44
   30  A    between atoms: C_40  and  P_49
   31  A    between atoms: C_41  and  C_46
   32  A    between atoms: P_49  and  C_54
   33  A    between atoms: C_51  and  C_56
                            x       y       z     vdW  Elec       q    Type
                         _______ _______ _______ _____ _____    ______ ____

>  <TORSDO>
F 33

$$$$
=
 OpenBabel10232409053D

 57 57  0  0  1  0  0  0  0  0999 V2000
  185.9790  177.3120  136.4010 C   0  0  1  0  0  3  0  0  0  0  0  0
  185.6090  177.7530  138.7190 O   0  0  0  0  0  0  0  0  0  0  0  0
  183.5250  177.1130  135.7200 C   0  0  0  0  0  0  0  0  0  0  0  0
  183.7570  177.2410  134.4870 O   0  0  0  0  0  0  0  0  0  0  0  0
  184.5710  177.3320  136.6820 N   0  0  0  0  0  0  0  0  0  0  0  0
  186.6100  177.3620  137.7960 C   0  0  1  0  0  0  0  0  0  0  0  0
  184.3520  177.6030  138.0890 C   0  0  2  0  0  3  0  0  0  0  0  0
  187.1190  176.1200  138.1930 O   0  0  0  0  0  1  0  0  0  0  0  0
  183.5280  178.8820  138.2590 C   0  0  2  0  0  3  0  0  0  0  0  0
  184.2470  179.8160  139.0090 O   0  0  0  0  0  1  0  0  0  0  0  0
  182.1690  178.5830  138.9050 C   0  0  2  0  0  3  0  0  0  0  0  0
  180.9070  180.7410  138.1360 C   0  0  0  0  0  1  0  0  0  0  0  0
  181.1460  180.1080  140.3840 O   0  0  0  0  0  0  0  0  0  0  0  0
  181.3940  179.8350  139.2190 C   0  0  0  0  0  0  0  0  0  0  0  0
  182.2710  177.6400  140.1180 C   0  0  0  0  0  2  0  0  0  0  0  0
  181.3190  176.4580  140.0550 C   0  0  0  0  0  1  0  0  0  0  0  0
  187.7320  178.3940  137.7790 C   0  0  0  0  0  2  0  0  0  0  0  0
  189.0320  177.9880  136.5020 P   0  0  0  0  0  2  0  0  0  0  0  0
  189.9620  176.8360  137.6260 C   0  0  0  0  0  2  0  0  0  0  0  0
  189.7880  177.2250  138.9570 O   0  0  0  0  0  0  0  0  0  0  0  0
  191.0800  177.4160  139.4430 C   0  0  2  0  0  3  0  0  0  0  0  0
  193.3460  176.9230  138.9270 O   0  0  0  0  0  1  0  0  0  0  0  0
  192.0380  176.4840  138.7270 C   0  0  0  0  0  2  0  0  0  0  0  0
  191.1070  177.1390  140.9330 C   0  0  0  0  0  2  0  0  0  0  0  0
  189.9110  177.5770  141.5090 O   0  0  0  0  0  0  0  0  0  0  0  0
  191.5640  176.6340  143.5820 O   0  0  0  0  0  0  0  0  0  0  0  0
  190.0530  177.2950  143.1800 P   0  0  1  0  0  0  0  0  0  0  0  0
  189.8910  178.6150  143.9030 O   0  0  0  0  0  1  0  0  0  0  0  0
  188.7180  176.1780  143.7130 C   0  0  0  0  0  2  0  0  0  0  0  0
  187.7370  176.9010  144.6260 C   0  0  1  0  0  3  0  0  0  0  0  0
  187.4830  177.9000  146.8020 O   0  0  0  0  0  1  0  0  0  0  0  0
  188.3100  177.0830  146.0270 C   0  0  0  0  0  2  0  0  0  0  0  0
  187.3550  178.2440  144.0200 C   0  0  0  0  0  2  0  0  0  0  0  0
  186.0650  178.1230  143.2840 C   0  0  0  0  0  0  0  0  0  0  0  0
  186.0780  178.1110  142.0210 O   0  0  0  0  0  0  0  0  0  0  0  0
  184.8650  178.0620  143.9910 O   0  0  0  0  0  0  0  0  0  0  0  0
  183.8970  179.1910  145.7510 O   0  0  0  0  0  1  0  0  0  0  0  0
  184.1730  179.2390  144.3830 C   0  0  0  0  0  2  0  0  0  0  0  0
  182.1660  176.6840  136.1700 C   0  0  0  0  0  2  0  0  0  0  0  0
  181.3580  178.7970  135.1160 C   0  0  0  0  0  1  0  0  0  0  0  0
  181.1020  177.3050  135.2770 C   0  0  0  0  0  2  0  0  0  0  0  0
  186.3700  176.1370  135.4810 C   0  0  2  0  0  3  0  0  0  0  0  0
  186.1380  174.8690  136.0880 O   0  0  0  0  0  0  0  0  0  0  0  0
  184.8040  174.0940  134.3730 O   0  0  0  0  0  0  0  0  0  0  0  0
  185.2900  173.9160  135.5250 C   0  0  0  0  0  0  0  0  0  0  0  0
  184.9790  172.7740  136.2610 O   0  0  0  0  0  0  0  0  0  0  0  0
  183.8150  172.6900  137.0680 C   0  0  0  0  0  2  0  0  0  0  0  0
  183.3100  171.2580  137.1000 C   0  0  0  0  0  2  0  0  0  0  0  0
  181.9100  171.1590  136.5110 C   0  0  0  0  0  2  0  0  0  0  0  0
  180.4000  172.7730  136.4680 C   0  0  0  0  0  1  0  0  0  0  0  0
  180.9880  171.8340  137.3160 O   0  0  0  0  0  0  0  0  0  0  0  0
  187.7820  176.2690  134.9080 C   0  0  0  0  0  2  0  0  0  0  0  0
  188.2410  175.0050  134.3510 N   0  0  0  0  0  2  0  0  0  0  0  0
  188.9410  174.0330  135.1330 C   0  0  0  0  0  0  0  0  0  0  0  0
  189.1190  174.2080  136.3690 O   0  0  0  0  0  0  0  0  0  0  0  0
  189.4650  172.7980  134.4880 C   0  0  0  0  0  2  0  0  0  0  0  0
  190.9720  172.8500  134.4240 C   0  0  0  0  0  1  0  0  0  0  0  0
  1 42  1  1  0  0  0
  1  5  1  0  0  0  0
  1  6  1  0  0  0  0
  3 39  1  0  0  0  0
  3  5  1  0  0  0  0
  4  3  2  0  0  0  0
  5  7  1  0  0  0  0
  6  8  1  1  0  0  0
  6  2  1  0  0  0  0
  7  9  1  6  0  0  0
  7  2  1  0  0  0  0
  9 11  1  0  0  0  0
  9 10  1  1  0  0  0
 11 14  1  0  0  0  0
 11 15  1  1  0  0  0
 12 14  1  0  0  0  0
 14 13  2  0  0  0  0
 16 15  1  0  0  0  0
 17  6  1  0  0  0  0
 18 19  1  0  0  0  0
 18 17  1  0  0  0  0
 19 20  1  0  0  0  0
 20 21  1  0  0  0  0
 21 23  1  6  0  0  0
 21 24  1  0  0  0  0
 23 22  1  0  0  0  0
 24 25  1  0  0  0  0
 25 27  1  0  0  0  0
 27 26  2  1  0  0  0
 27 29  1  0  0  0  0
 27 28  1  0  0  0  0
 30 29  1  6  0  0  0
 30 32  1  0  0  0  0
 32 31  1  0  0  0  0
 33 30  1  0  0  0  0
 34 36  1  0  0  0  0
 34 33  1  0  0  0  0
 35 34  2  0  0  0  0
 36 38  1  0  0  0  0
 38 37  1  0  0  0  0
 40 41  1  0  0  0  0
 41 39  1  0  0  0  0
 42 52  1  1  0  0  0
 42 43  1  0  0  0  0
 44 45  2  0  0  0  0
 45 43  1  0  0  0  0
 45 46  1  0  0  0  0
 46 47  1  0  0  0  0
 47 48  1  0  0  0  0
 49 48  1  0  0  0  0
 49 51  1  0  0  0  0
 50 51  1  0  0  0  0
 53 52  1  0  0  0  0
 53 54  1  0  0  0  0
 54 55  2  0  0  0  0
 56 54  1  0  0  0  0
 57 56  1  0  0  0  0
M  END
>  <MODEL>
3

>  <REMARK>
 VINA RESULT:      -3.9      3.498      8.948
  Name = 
  33 active torsions:
  status: ('A' for Active; 'I' for Inactive)
    1  A    between atoms: C_2  and  C_19
    2  A    between atoms: C_2  and  C_38
    3  A    between atoms: C_2  and  O_44
    4  A    between atoms: C_4  and  C_14
    5  A    between atoms: C_5  and  O_10
    6  A    between atoms: C_5  and  C_26
    7  A    between atoms: C_6  and  P_8
    8  A    between atoms: C_6  and  C_27
    9  A    between atoms: P_8  and  O_13
   10  A    between atoms: C_9  and  C_31
   11  A    between atoms: O_10  and  C_17
   12  A    between atoms: O_13  and  C_19
   13  A    between atoms: C_14  and  C_35
   14  A    between atoms: C_14  and  O_36
   15  A    between atoms: O_16  and  C_28
   16  A    between atoms: O_16  and  C_30
   17  A    between atoms: C_17  and  O_36
   18  A    between atoms: C_18  and  C_23
   19  A    between atoms: C_20  and  C_56
   20  A    between atoms: C_23  and  C_43
   21  A    between atoms: C_23  and  C_46
   22  A    between atoms: C_26  and  C_39
   23  A    between atoms: C_27  and  C_42
   24  A    between atoms: C_27  and  C_50
   25  A    between atoms: N_29  and  C_35
   26  A    between atoms: C_30  and  C_42
   27  A    between atoms: C_37  and  C_54
   28  A    between atoms: C_39  and  O_45
   29  A    between atoms: C_40  and  O_44
   30  A    between atoms: C_40  and  P_49
   31  A    between atoms: C_41  and  C_46
   32  A    between atoms: P_49  and  C_54
   33  A    between atoms: C_51  and  C_56
                            x       y       z     vdW  Elec       q    Type
                         _______ _______ _______ _____ _____    ______ ____

>  <TORSDO>
F 33

$$$$
=
 OpenBabel10232409053D

 57 57  0  0  1  0  0  0  0  0999 V2000
  187.1850  175.8420  136.6260 C   0  0  1  0  0  3  0  0  0  0  0  0
  189.2310  176.5420  135.6140 O   0  0  0  0  0  0  0  0  0  0  0  0
  187.4360  173.3440  136.1570 C   0  0  0  0  0  0  0  0  0  0  0  0
  186.5560  173.0000  136.9930 O   0  0  0  0  0  0  0  0  0  0  0  0
  187.8890  174.7080  136.0990 N   0  0  0  0  0  0  0  0  0  0  0  0
  187.9870  177.0290  136.0820 C   0  0  1  0  0  0  0  0  0  0  0  0
  189.1310  175.1370  135.4890 C   0  0  2  0  0  3  0  0  0  0  0  0
  187.3340  177.6700  135.0230 O   0  0  0  0  0  1  0  0  0  0  0  0
  190.3200  174.4650  136.1820 C   0  0  2  0  0  3  0  0  0  0  0  0
  190.6160  175.1330  137.3730 O   0  0  0  0  0  1  0  0  0  0  0  0
  191.5440  174.4170  135.2570 C   0  0  2  0  0  3  0  0  0  0  0  0
  191.5090  171.9640  134.3510 C   0  0  0  0  0  1  0  0  0  0  0  0
  193.1790  172.7990  135.7730 O   0  0  0  0  0  0  0  0  0  0  0  0
  192.1440  173.0390  135.1710 C   0  0  0  0  0  0  0  0  0  0  0  0
  192.5950  175.4920  135.5890 C   0  0  0  0  0  2  0  0  0  0  0  0
  193.2190  176.1350  134.3620 C   0  0  0  0  0  1  0  0  0  0  0  0
  188.2110  178.0180  137.2210 C   0  0  0  0  0  2  0  0  0  0  0  0
  187.9880  177.2190  138.8930 P   0  0  0  0  0  2  0  0  0  0  0  0
  189.8030  177.2510  139.2950 C   0  0  0  0  0  2  0  0  0  0  0  0
  190.0290  176.6360  140.5290 O   0  0  0  0  0  0  0  0  0  0  0  0
  190.3610  177.6800  141.3920 C   0  0  2  0  0  3  0  0  0  0  0  0
  192.4470  177.0550  140.4410 O   0  0  0  0  0  1  0  0  0  0  0  0
  191.8660  177.8610  141.4180 C   0  0  0  0  0  2  0  0  0  0  0  0
  189.8540  177.3660  142.7850 C   0  0  0  0  0  2  0  0  0  0  0  0
  190.8140  176.6160  143.4710 O   0  0  0  0  0  0  0  0  0  0  0  0
  191.8230  176.5030  146.0950 O   0  0  0  0  0  1  0  0  0  0  0  0
  191.2050  177.5010  144.8690 P   0  0  1  0  0  0  0  0  0  0  0  0
  192.2540  178.5300  144.5050 O   0  0  0  0  0  0  0  0  0  0  0  0
  189.7210  178.3740  145.4590 C   0  0  0  0  0  2  0  0  0  0  0  0
  188.6270  177.3850  145.8450 C   0  0  1  0  0  3  0  0  0  0  0  0
  189.5620  177.7920  148.0260 O   0  0  0  0  0  1  0  0  0  0  0  0
  188.8060  176.8880  147.2750 C   0  0  0  0  0  2  0  0  0  0  0  0
  187.2590  178.0260  145.6630 C   0  0  0  0  0  2  0  0  0  0  0  0
  186.5530  177.4010  144.5100 C   0  0  0  0  0  0  0  0  0  0  0  0
  187.2190  176.7310  143.6710 O   0  0  0  0  0  0  0  0  0  0  0  0
  185.1800  177.5910  144.3500 O   0  0  0  0  0  0  0  0  0  0  0  0
  184.7750  179.4640  143.0690 O   0  0  0  0  0  1  0  0  0  0  0  0
  184.6070  178.8910  144.3320 C   0  0  0  0  0  2  0  0  0  0  0  0
  187.9690  172.3310  135.1970 C   0  0  0  0  0  2  0  0  0  0  0  0
  186.3970  170.3950  135.2640 C   0  0  0  0  0  1  0  0  0  0  0  0
  186.8200  171.6320  134.4860 C   0  0  0  0  0  2  0  0  0  0  0  0
  185.6770  175.7910  136.3020 C   0  0  2  0  0  3  0  0  0  0  0  0
  185.1630  177.0540  135.8920 O   0  0  0  0  0  0  0  0  0  0  0  0
  183.1030  177.1230  134.8580 O   0  0  0  0  0  0  0  0  0  0  0  0
  183.7990  177.3410  135.8900 C   0  0  0  0  0  0  0  0  0  0  0  0
  183.2230  177.8820  137.0380 O   0  0  0  0  0  0  0  0  0  0  0  0
  181.8170  177.9390  137.2210 C   0  0  0  0  0  2  0  0  0  0  0  0
  181.4290  179.2770  137.8270 C   0  0  0  0  0  2  0  0  0  0  0  0
  180.3940  179.0970  138.9290 C   0  0  0  0  0  2  0  0  0  0  0  0
  181.3010  178.6400  140.8920 C   0  0  0  0  0  1  0  0  0  0  0  0
  180.8280  179.6980  140.1140 O   0  0  0  0  0  0  0  0  0  0  0  0
  184.8470  175.1480  137.4150 C   0  0  0  0  0  2  0  0  0  0  0  0
  183.5820  174.6440  136.9000 N   0  0  0  0  0  2  0  0  0  0  0  0
  183.2010  173.2700  137.0150 C   0  0  0  0  0  0  0  0  0  0  0  0
  183.9260  172.4510  137.6430 O   0  0  0  0  0  0  0  0  0  0  0  0
  181.9360  172.7950  136.3910 C   0  0  0  0  0  2  0  0  0  0  0  0
  181.4910  173.7650  135.3240 C   0  0  0  0  0  1  0  0  0  0  0  0
  1 42  1  6  0  0  0
  2  6  1  0  0  0  0
  3  4  2  0  0  0  0
  5  3  1  0  0  0  0
  5  1  1  0  0  0  0
  6  8  1  6  0  0  0
  6  1  1  0  0  0  0
  6 17  1  0  0  0  0
  7  2  1  0  0  0  0
  7  5  1  0  0  0  0
  7  9  1  1  0  0  0
  9 10  1  1  0  0  0
 11 15  1  1  0  0  0
 11  9  1  0  0  0  0
 12 14  1  0  0  0  0
 14 11  1  0  0  0  0
 14 13  2  0  0  0  0
 16 15  1  0  0  0  0
 17 18  1  0  0  0  0
 18 19  1  0  0  0  0
 19 20  1  0  0  0  0
 20 21  1  0  0  0  0
 21 23  1  1  0  0  0
 21 24  1  0  0  0  0
 22 23  1  0  0  0  0
 24 25  1  0  0  0  0
 25 27  1  0  0  0  0
 27 28  2  6  0  0  0
 27 29  1  0  0  0  0
 27 26  1  0  0  0  0
 30 29  1  1  0  0  0
 30 32  1  0  0  0  0
 32 31  1  0  0  0  0
 33 30  1  0  0  0  0
 34 33  1  0  0  0  0
 35 34  2  0  0  0  0
 36 34  1  0  0  0  0
 37 38  1  0  0  0  0
 38 36  1  0  0  0  0
 39  3  1  0  0  0  0
 41 39  1  0  0  0  0
 41 40  1  0  0  0  0
 42 52  1  1  0  0  0
 43 42  1  0  0  0  0
 44 45  2  0  0  0  0
 45 43  1  0  0  0  0
 45 46  1  0  0  0  0
 46 47  1  0  0  0  0
 47 48  1  0  0  0  0
 48 49  1  0  0  0  0
 49 51  1  0  0  0  0
 51 50  1  0  0  0  0
 53 54  1  0  0  0  0
 53 52  1  0  0  0  0
 54 55  2  0  0  0  0
 56 54  1  0  0  0  0
 57 56  1  0  0  0  0
M  END
>  <MODEL>
4

>  <REMARK>
 VINA RESULT:      -3.5      3.293      9.009
  Name = 
  33 active torsions:
  status: ('A' for Active; 'I' for Inactive)
    1  A    between atoms: C_2  and  C_19
    2  A    between atoms: C_2  and  C_38
    3  A    between atoms: C_2  and  O_44
    4  A    between atoms: C_4  and  C_14
    5  A    between atoms: C_5  and  O_10
    6  A    between atoms: C_5  and  C_26
    7  A    between atoms: C_6  and  P_8
    8  A    between atoms: C_6  and  C_27
    9  A    between atoms: P_8  and  O_13
   10  A    between atoms: C_9  and  C_31
   11  A    between atoms: O_10  and  C_17
   12  A    between atoms: O_13  and  C_19
   13  A    between atoms: C_14  and  C_35
   14  A    between atoms: C_14  and  O_36
   15  A    between atoms: O_16  and  C_28
   16  A    between atoms: O_16  and  C_30
   17  A    between atoms: C_17  and  O_36
   18  A    between atoms: C_18  and  C_23
   19  A    between atoms: C_20  and  C_56
   20  A    between atoms: C_23  and  C_43
   21  A    between atoms: C_23  and  C_46
   22  A    between atoms: C_26  and  C_39
   23  A    between atoms: C_27  and  C_42
   24  A    between atoms: C_27  and  C_50
   25  A    between atoms: N_29  and  C_35
   26  A    between atoms: C_30  and  C_42
   27  A    between atoms: C_37  and  C_54
   28  A    between atoms: C_39  and  O_45
   29  A    between atoms: C_40  and  O_44
   30  A    between atoms: C_40  and  P_49
   31  A    between atoms: C_41  and  C_46
   32  A    between atoms: P_49  and  C_54
   33  A    between atoms: C_51  and  C_56
                            x       y       z     vdW  Elec       q    Type
                         _______ _______ _______ _____ _____    ______ ____

>  <TORSDO>
F 33

$$$$
=
 OpenBabel10232409053D

 57 57  0  0  1  0  0  0  0  0999 V2000
  186.1660  177.5480  136.9790 C   0  0  1  0  0  3  0  0  0  0  0  0
  184.0740  176.9070  137.9370 O   0  0  0  0  0  0  0  0  0  0  0  0
  186.3350  175.6470  135.2810 C   0  0  0  0  0  0  0  0  0  0  0  0
  187.2250  176.2130  134.5910 O   0  0  0  0  0  0  0  0  0  0  0  0
  185.6730  176.3610  136.3400 N   0  0  0  0  0  0  0  0  0  0  0  0
  185.2060  177.7280  138.1590 C   0  0  1  0  0  0  0  0  0  0  0  0
  184.4020  175.9780  136.9220 C   0  0  2  0  0  3  0  0  0  0  0  0
  185.7890  177.3600  139.3780 O   0  0  0  0  0  1  0  0  0  0  0  0
  183.3100  175.9710  135.8490 C   0  0  2  0  0  3  0  0  0  0  0  0
  182.8350  177.2690  135.6430 O   0  0  0  0  0  1  0  0  0  0  0  0
  182.1680  175.0180  136.2290 C   0  0  2  0  0  3  0  0  0  0  0  0
  180.0560  176.3420  137.0230 C   0  0  0  0  0  1  0  0  0  0  0  0
  181.6130  175.3780  138.4920 O   0  0  0  0  0  0  0  0  0  0  0  0
  181.3000  175.5730  137.3270 C   0  0  0  0  0  0  0  0  0  0  0  0
  182.6490  173.5870  136.5310 C   0  0  0  0  0  2  0  0  0  0  0  0
  181.5200  172.5820  136.6750 C   0  0  0  0  0  1  0  0  0  0  0  0
  184.7830  179.1920  138.2140 C   0  0  0  0  0  2  0  0  0  0  0  0
  182.9310  179.3780  138.3610 P   0  0  0  0  0  2  0  0  0  0  0  0
  182.9450  179.3540  140.2200 C   0  0  0  0  0  2  0  0  0  0  0  0
  182.5430  178.0980  140.6830 O   0  0  0  0  0  0  0  0  0  0  0  0
  181.8230  178.3630  141.8480 C   0  0  2  0  0  3  0  0  0  0  0  0
  179.9840  178.8210  140.4150 O   0  0  0  0  0  1  0  0  0  0  0  0
  180.6680  179.2930  141.5340 C   0  0  0  0  0  2  0  0  0  0  0  0
  182.7370  179.0030  142.8730 C   0  0  0  0  0  2  0  0  0  0  0  0
  183.6740  178.0630  143.3120 O   0  0  0  0  0  0  0  0  0  0  0  0
  185.5680  179.8580  142.2570 O   0  0  0  0  0  0  0  0  0  0  0  0
  185.1150  178.9200  143.5980 P   0  0  1  0  0  0  0  0  0  0  0  0
  184.8970  179.8380  144.7820 O   0  0  0  0  0  1  0  0  0  0  0  0
  186.4380  177.7420  144.0160 C   0  0  0  0  0  2  0  0  0  0  0  0
  187.1700  178.1730  145.2810 C   0  0  1  0  0  3  0  0  0  0  0  0
  186.6840  178.0430  147.6350 O   0  0  0  0  0  1  0  0  0  0  0  0
  186.1940  178.4940  146.4070 C   0  0  0  0  0  2  0  0  0  0  0  0
  188.1510  177.0900  145.7080 C   0  0  0  0  0  2  0  0  0  0  0  0
  189.5270  177.6540  145.7910 C   0  0  0  0  0  0  0  0  0  0  0  0
  189.8360  178.6320  145.0530 O   0  0  0  0  0  0  0  0  0  0  0  0
  190.4640  177.0780  146.6490 O   0  0  0  0  0  0  0  0  0  0  0  0
  191.6700  176.5100  144.7700 O   0  0  0  0  0  1  0  0  0  0  0  0
  191.6960  176.5630  146.1650 C   0  0  0  0  0  2  0  0  0  0  0  0
  186.0070  174.2130  135.0210 C   0  0  0  0  0  2  0  0  0  0  0  0
  187.7290  172.8350  136.1890 C   0  0  0  0  0  1  0  0  0  0  0  0
  186.3080  173.3770  136.2560 C   0  0  0  0  0  2  0  0  0  0  0  0
  187.6740  177.4540  137.2920 C   0  0  2  0  0  3  0  0  0  0  0  0
  188.0540  176.1660  137.7640 O   0  0  0  0  0  0  0  0  0  0  0  0
  190.0030  175.5010  138.8040 O   0  0  0  0  0  0  0  0  0  0  0  0
  189.3740  175.7160  137.7300 C   0  0  0  0  0  0  0  0  0  0  0  0
  189.9860  175.5230  136.4930 O   0  0  0  0  0  0  0  0  0  0  0  0
  190.9110  174.4710  136.2660 C   0  0  0  0  0  2  0  0  0  0  0  0
  191.8210  174.8250  135.1040 C   0  0  0  0  0  2  0  0  0  0  0  0
  193.1010  174.0000  135.1410 C   0  0  0  0  0  2  0  0  0  0  0  0
  192.3560  171.9190  135.1740 C   0  0  0  0  0  1  0  0  0  0  0  0
  192.9730  172.8580  134.3460 O   0  0  0  0  0  0  0  0  0  0  0  0
  188.1700  178.5850  138.1940 C   0  0  0  0  0  2  0  0  0  0  0  0
  189.0780  178.0820  139.2150 N   0  0  0  0  0  2  0  0  0  0  0  0
  188.8370  178.2660  140.6130 C   0  0  0  0  0  0  0  0  0  0  0  0
  187.7750  178.8130  141.0160 O   0  0  0  0  0  0  0  0  0  0  0  0
  189.8440  177.8080  141.6070 C   0  0  0  0  0  2  0  0  0  0  0  0
  189.4350  176.4730  142.1800 C   0  0  0  0  0  1  0  0  0  0  0  0
  1 42  1  1  0  0  0
  1  6  1  0  0  0  0
  2  6  1  0  0  0  0
  3  5  1  0  0  0  0
  4  3  2  0  0  0  0
  5  7  1  0  0  0  0
  5  1  1  0  0  0  0
  6 17  1  0  0  0  0
  6  8  1  1  0  0  0
  7  9  1  6  0  0  0
  7  2  1  0  0  0  0
  9 10  1  1  0  0  0
  9 11  1  0  0  0  0
 11 15  1  1  0  0  0
 11 14  1  0  0  0  0
 12 14  1  0  0  0  0
 14 13  2  0  0  0  0
 15 16  1  0  0  0  0
 17 18  1  0  0  0  0
 18 19  1  0  0  0  0
 19 20  1  0  0  0  0
 20 21  1  0  0  0  0
 21 23  1  6  0  0  0
 21 24  1  0  0  0  0
 22 23  1  0  0  0  0
 24 25  1  0  0  0  0
 25 27  1  0  0  0  0
 27 26  2  6  0  0  0
 27 29  1  0  0  0  0
 27 28  1  0  0  0  0
 30 29  1  6  0  0  0
 30 33  1  0  0  0  0
 30 32  1  0  0  0  0
 32 31  1  0  0  0  0
 33 34  1  0  0  0  0
 34 36  1  0  0  0  0
 35 34  2  0  0  0  0
 37 38  1  0  0  0  0
 38 36  1  0  0  0  0
 39  3  1  0  0  0  0
 39 41  1  0  0  0  0
 40 41  1  0  0  0  0
 42 43  1  0  0  0  0
 42 52  1  1  0  0  0
 45 43  1  0  0  0  0
 45 44  2  0  0  0  0
 46 45  1  0  0  0  0
 47 46  1  0  0  0  0
 48 49  1  0  0  0  0
 48 47  1  0  0  0  0
 51 49  1  0  0  0  0
 51 50  1  0  0  0  0
 52 53  1  0  0  0  0
 53 54  1  0  0  0  0
 54 55  2  0  0  0  0
 54 56  1  0  0  0  0
 56 57  1  0  0  0  0
M  END
>  <MODEL>
5

>  <REMARK>
 VINA RESULT:      -3.5      3.478      9.988
  Name = 
  33 active torsions:
  status: ('A' for Active; 'I' for Inactive)
    1  A    between atoms: C_2  and  C_19
    2  A    between atoms: C_2  and  C_38
    3  A    between atoms: C_2  and  O_44
    4  A    between atoms: C_4  and  C_14
    5  A    between atoms: C_5  and  O_10
    6  A    between atoms: C_5  and  C_26
    7  A    between atoms: C_6  and  P_8
    8  A    between atoms: C_6  and  C_27
    9  A    between atoms: P_8  and  O_13
   10  A    between atoms: C_9  and  C_31
   11  A    between atoms: O_10  and  C_17
   12  A    between atoms: O_13  and  C_19
   13  A    between atoms: C_14  and  C_35
   14  A    between atoms: C_14  and  O_36
   15  A    between atoms: O_16  and  C_28
   16  A    between atoms: O_16  and  C_30
   17  A    between atoms: C_17  and  O_36
   18  A    between atoms: C_18  and  C_23
   19  A    between atoms: C_20  and  C_56
   20  A    between atoms: C_23  and  C_43
   21  A    between atoms: C_23  and  C_46
   22  A    between atoms: C_26  and  C_39
   23  A    between atoms: C_27  and  C_42
   24  A    between atoms: C_27  and  C_50
   25  A    between atoms: N_29  and  C_35
   26  A    between atoms: C_30  and  C_42
   27  A    between atoms: C_37  and  C_54
   28  A    between atoms: C_39  and  O_45
   29  A    between atoms: C_40  and  O_44
   30  A    between atoms: C_40  and  P_49
   31  A    between atoms: C_41  and  C_46
   32  A    between atoms: P_49  and  C_54
   33  A    between atoms: C_51  and  C_56
                            x       y       z     vdW  Elec       q    Type
                         _______ _______ _______ _____ _____    ______ ____

>  <TORSDO>
F 33

$$$$
=
 OpenBabel10232409053D

 57 57  0  0  1  0  0  0  0  0999 V2000
  188.0710  176.6800  137.3540 C   0  0  1  0  0  3  0  0  0  0  0  0
  190.2020  177.7200  137.0670 O   0  0  0  0  0  0  0  0  0  0  0  0
  188.5410  174.6000  135.9480 C   0  0  0  0  0  0  0  0  0  0  0  0
  187.5670  173.9480  136.4130 O   0  0  0  0  0  0  0  0  0  0  0  0
  188.9140  175.8610  136.5300 N   0  0  0  0  0  0  0  0  0  0  0  0
  188.8740  177.9780  137.4860 C   0  0  1  0  0  0  0  0  0  0  0  0
  190.2060  176.4950  136.3610 C   0  0  2  0  0  3  0  0  0  0  0  0
  188.3510  179.0070  136.6930 O   0  0  0  0  0  1  0  0  0  0  0  0
  191.3150  175.5860  136.9000 C   0  0  2  0  0  3  0  0  0  0  0  0
  190.8160  174.7860  137.9310 O   0  0  0  0  0  1  0  0  0  0  0  0
  192.5210  176.4080  137.3740 C   0  0  2  0  0  3  0  0  0  0  0  0
  194.4000  176.7990  135.5970 C   0  0  0  0  0  1  0  0  0  0  0  0
  194.3680  174.9740  137.0730 O   0  0  0  0  0  0  0  0  0  0  0  0
  193.8010  175.9890  136.7000 C   0  0  0  0  0  0  0  0  0  0  0  0
  192.6570  176.4550  138.9070 C   0  0  0  0  0  2  0  0  0  0  0  0
  193.7820  177.3520  139.3930 C   0  0  0  0  0  1  0  0  0  0  0  0
  188.8630  178.4030  138.9500 C   0  0  0  0  0  2  0  0  0  0  0  0
  188.3680  177.0010  140.0790 P   0  0  0  0  0  2  0  0  0  0  0  0
  190.0270  176.9160  140.9140 C   0  0  0  0  0  2  0  0  0  0  0  0
  189.8670  176.5580  142.2560 O   0  0  0  0  0  0  0  0  0  0  0  0
  190.0380  177.7480  142.9630 C   0  0  2  0  0  3  0  0  0  0  0  0
  192.2790  176.9770  142.7840 O   0  0  0  0  0  1  0  0  0  0  0  0
  191.4440  177.8080  143.5290 C   0  0  0  0  0  2  0  0  0  0  0  0
  189.0260  177.8180  144.0880 C   0  0  0  0  0  2  0  0  0  0  0  0
  189.2740  176.7890  145.0010 O   0  0  0  0  0  0  0  0  0  0  0  0
  187.8660  176.2040  147.3670 O   0  0  0  0  0  1  0  0  0  0  0  0
  188.7700  177.3650  146.5200 P   0  0  1  0  0  0  0  0  0  0  0  0
  189.9990  177.7110  147.3320 O   0  0  0  0  0  0  0  0  0  0  0  0
  187.7860  178.8790  146.2890 C   0  0  0  0  0  2  0  0  0  0  0  0
  186.3050  178.5490  146.1560 C   0  0  1  0  0  3  0  0  0  0  0  0
  184.5380  177.7400  147.5780 O   0  0  0  0  0  1  0  0  0  0  0  0
  185.5870  178.6600  147.4970 C   0  0  0  0  0  2  0  0  0  0  0  0
  185.6600  179.4590  145.1210 C   0  0  0  0  0  2  0  0  0  0  0  0
  184.6530  178.6980  144.3290 C   0  0  0  0  0  0  0  0  0  0  0  0
  183.4750  178.5920  144.7730 O   0  0  0  0  0  0  0  0  0  0  0  0
  185.0280  178.0850  143.1340 O   0  0  0  0  0  0  0  0  0  0  0  0
  184.0450  179.3680  141.4920 O   0  0  0  0  0  1  0  0  0  0  0  0
  184.1680  178.0740  142.0030 C   0  0  0  0  0  2  0  0  0  0  0  0
  189.2730  174.0740  134.7570 C   0  0  0  0  0  2  0  0  0  0  0  0
  190.9810  172.3590  135.3640 C   0  0  0  0  0  1  0  0  0  0  0  0
  189.5410  172.5860  134.9250 C   0  0  0  0  0  2  0  0  0  0  0  0
  186.6360  176.7800  136.7980 C   0  0  2  0  0  3  0  0  0  0  0  0
  186.1130  178.1030  136.8720 O   0  0  0  0  0  0  0  0  0  0  0  0
  185.4640  178.8240  138.9650 O   0  0  0  0  0  0  0  0  0  0  0  0
  185.1360  178.4690  137.7980 C   0  0  0  0  0  0  0  0  0  0  0  0
  183.7960  178.4230  137.4160 O   0  0  0  0  0  0  0  0  0  0  0  0
  182.7400  178.4890  138.3610 C   0  0  0  0  0  2  0  0  0  0  0  0
  181.4020  178.4330  137.6450 C   0  0  0  0  0  2  0  0  0  0  0  0
  180.9940  179.8100  137.1420 C   0  0  0  0  0  2  0  0  0  0  0  0
  180.8870  181.9870  137.5120 C   0  0  0  0  0  1  0  0  0  0  0  0
  181.1820  180.7740  138.1360 O   0  0  0  0  0  0  0  0  0  0  0  0
  185.6890  175.7350  137.3900 C   0  0  0  0  0  2  0  0  0  0  0  0
  184.6570  175.3610  136.4340 N   0  0  0  0  0  2  0  0  0  0  0  0
  183.3630  174.9090  136.8410 C   0  0  0  0  0  0  0  0  0  0  0  0
  183.0420  174.8910  138.0610 O   0  0  0  0  0  0  0  0  0  0  0  0
  182.3790  174.4560  135.8210 C   0  0  0  0  0  2  0  0  0  0  0  0
  181.6930  175.6480  135.1990 C   0  0  0  0  0  1  0  0  0  0  0  0
  1 42  1  6  0  0  0
  1  6  1  0  0  0  0
  2  6  1  0  0  0  0
  3  4  2  0  0  0  0
  3  5  1  0  0  0  0
  5  1  1  0  0  0  0
  6  8  1  6  0  0  0
  6 17  1  0  0  0  0
  7  5  1  0  0  0  0
  7  9  1  1  0  0  0
  7  2  1  0  0  0  0
  9 11  1  0  0  0  0
  9 10  1  1  0  0  0
 11 15  1  1  0  0  0
 12 14  1  0  0  0  0
 14 13  2  0  0  0  0
 14 11  1  0  0  0  0
 15 16  1  0  0  0  0
 17 18  1  0  0  0  0
 18 19  1  0  0  0  0
 19 20  1  0  0  0  0
 20 21  1  0  0  0  0
 21 23  1  1  0  0  0
 21 24  1  0  0  0  0
 22 23  1  0  0  0  0
 24 25  1  0  0  0  0
 25 27  1  0  0  0  0
 27 28  2  1  0  0  0
 27 26  1  0  0  0  0
 29 27  1  0  0  0  0
 30 33  1  6  0  0  0
 30 29  1  0  0  0  0
 30 32  1  0  0  0  0
 32 31  1  0  0  0  0
 34 35  2  0  0  0  0
 34 33  1  0  0  0  0
 36 34  1  0  0  0  0
 37 38  1  0  0  0  0
 38 36  1  0  0  0  0
 39 41  1  0  0  0  0
 39  3  1  0  0  0  0
 41 40  1  0  0  0  0
 42 43  1  0  0  0  0
 42 52  1  1  0  0  0
 43 45  1  0  0  0  0
 45 44  2  0  0  0  0
 46 45  1  0  0  0  0
 46 47  1  0  0  0  0
 48 47  1  0  0  0  0
 49 48  1  0  0  0  0
 49 51  1  0  0  0  0
 50 51  1  0  0  0  0
 53 54  1  0  0  0  0
 53 52  1  0  0  0  0
 54 55  2  0  0  0  0
 56 54  1  0  0  0  0
 57 56  1  0  0  0  0
M  END
>  <MODEL>
6

>  <REMARK>
 VINA RESULT:      -3.5      3.053      9.340
  Name = 
  33 active torsions:
  status: ('A' for Active; 'I' for Inactive)
    1  A    between atoms: C_2  and  C_19
    2  A    between atoms: C_2  and  C_38
    3  A    between atoms: C_2  and  O_44
    4  A    between atoms: C_4  and  C_14
    5  A    between atoms: C_5  and  O_10
    6  A    between atoms: C_5  and  C_26
    7  A    between atoms: C_6  and  P_8
    8  A    between atoms: C_6  and  C_27
    9  A    between atoms: P_8  and  O_13
   10  A    between atoms: C_9  and  C_31
   11  A    between atoms: O_10  and  C_17
   12  A    between atoms: O_13  and  C_19
   13  A    between atoms: C_14  and  C_35
   14  A    between atoms: C_14  and  O_36
   15  A    between atoms: O_16  and  C_28
   16  A    between atoms: O_16  and  C_30
   17  A    between atoms: C_17  and  O_36
   18  A    between atoms: C_18  and  C_23
   19  A    between atoms: C_20  and  C_56
   20  A    between atoms: C_23  and  C_43
   21  A    between atoms: C_23  and  C_46
   22  A    between atoms: C_26  and  C_39
   23  A    between atoms: C_27  and  C_42
   24  A    between atoms: C_27  and  C_50
   25  A    between atoms: N_29  and  C_35
   26  A    between atoms: C_30  and  C_42
   27  A    between atoms: C_37  and  C_54
   28  A    between atoms: C_39  and  O_45
   29  A    between atoms: C_40  and  O_44
   30  A    between atoms: C_40  and  P_49
   31  A    between atoms: C_41  and  C_46
   32  A    between atoms: P_49  and  C_54
   33  A    between atoms: C_51  and  C_56
                            x       y       z     vdW  Elec       q    Type
                         _______ _______ _______ _____ _____    ______ ____

>  <TORSDO>
F 33

$$$$
=
 OpenBabel10232409053D

 57 57  0  0  1  0  0  0  0  0999 V2000
  188.2310  176.7020  137.4200 C   0  0  1  0  0  3  0  0  0  0  0  0
  189.2200  178.3560  138.8310 O   0  0  0  0  0  0  0  0  0  0  0  0
  190.3430  175.3190  137.0240 C   0  0  0  0  0  0  0  0  0  0  0  0
  189.7180  174.3090  136.6000 O   0  0  0  0  0  0  0  0  0  0  0  0
  189.6280  176.4240  137.6040 N   0  0  0  0  0  0  0  0  0  0  0  0
  188.0700  178.0900  138.0480 C   0  0  1  0  0  0  0  0  0  0  0  0
  190.2220  177.4290  138.4630 C   0  0  2  0  0  3  0  0  0  0  0  0
  187.9470  179.0970  137.0830 O   0  0  0  0  0  1  0  0  0  0  0  0
  190.8090  176.7730  139.7160 C   0  0  2  0  0  3  0  0  0  0  0  0
  189.7810  176.3930  140.5820 O   0  0  0  0  0  1  0  0  0  0  0  0
  191.8030  177.7100  140.4160 C   0  0  2  0  0  3  0  0  0  0  0  0
  194.0510  176.3800  140.5380 C   0  0  0  0  0  1  0  0  0  0  0  0
  193.6990  178.2060  139.1060 O   0  0  0  0  0  0  0  0  0  0  0  0
  193.2210  177.4820  139.9660 C   0  0  0  0  0  0  0  0  0  0  0  0
  191.6680  177.6960  141.9500 C   0  0  0  0  0  2  0  0  0  0  0  0
  191.9020  176.3300  142.5710 C   0  0  0  0  0  1  0  0  0  0  0  0
  186.8300  178.0750  138.9340 C   0  0  0  0  0  2  0  0  0  0  0  0
  187.2370  178.4780  140.7110 P   0  0  0  0  0  2  0  0  0  0  0  0
  185.4660  178.3970  141.2700 C   0  0  0  0  0  2  0  0  0  0  0  0
  185.1600  179.5190  142.0460 O   0  0  0  0  0  0  0  0  0  0  0  0
  184.4230  179.0180  143.1190 C   0  0  2  0  0  3  0  0  0  0  0  0
  182.1380  179.3800  143.6600 O   0  0  0  0  0  1  0  0  0  0  0  0
  182.9790  178.8220  142.6990 C   0  0  0  0  0  2  0  0  0  0  0  0
  184.4950  179.9900  144.2800 C   0  0  0  0  0  2  0  0  0  0  0  0
  185.7050  179.8160  144.9570 O   0  0  0  0  0  0  0  0  0  0  0  0
  183.8520  178.4880  146.6070 O   0  0  0  0  0  1  0  0  0  0  0  0
  185.4580  178.5460  146.0610 P   0  0  1  0  0  0  0  0  0  0  0  0
  185.7840  177.2410  145.3680 O   0  0  0  0  0  0  0  0  0  0  0  0
  186.5920  178.7510  147.4700 C   0  0  0  0  0  2  0  0  0  0  0  0
  188.0170  178.3790  147.0790 C   0  0  1  0  0  3  0  0  0  0  0  0
  189.2080  176.6230  148.2160 O   0  0  0  0  0  1  0  0  0  0  0  0
  188.8390  177.9680  148.2950 C   0  0  0  0  0  2  0  0  0  0  0  0
  187.9980  177.2670  146.0400 C   0  0  0  0  0  2  0  0  0  0  0  0
  188.9370  177.5910  144.9290 C   0  0  0  0  0  0  0  0  0  0  0  0
  188.7280  177.0980  143.7850 O   0  0  0  0  0  0  0  0  0  0  0  0
  190.0470  178.3980  145.1710 O   0  0  0  0  0  0  0  0  0  0  0  0
  191.1750  176.4630  145.7140 O   0  0  0  0  0  1  0  0  0  0  0  0
  191.2700  177.8550  145.6500 C   0  0  0  0  0  2  0  0  0  0  0  0
  191.8280  175.3780  136.8760 C   0  0  0  0  0  2  0  0  0  0  0  0
  193.7640  173.9570  136.1950 C   0  0  0  0  0  1  0  0  0  0  0  0
  192.4090  173.9720  136.8900 C   0  0  0  0  0  2  0  0  0  0  0  0
  187.7950  176.5260  135.9510 C   0  0  2  0  0  3  0  0  0  0  0  0
  186.8340  177.4980  135.5470 O   0  0  0  0  0  0  0  0  0  0  0  0
  184.9790  176.8290  134.3510 O   0  0  0  0  0  0  0  0  0  0  0  0
  185.4740  177.2080  135.4500 C   0  0  0  0  0  0  0  0  0  0  0  0
  184.6720  177.3570  136.5800 O   0  0  0  0  0  0  0  0  0  0  0  0
  183.3500  176.8450  136.6380 C   0  0  0  0  0  2  0  0  0  0  0  0
  182.3650  177.9800  136.8620 C   0  0  0  0  0  2  0  0  0  0  0  0
  182.4110  178.4650  138.3050 C   0  0  0  0  0  2  0  0  0  0  0  0
  181.2360  177.3750  139.8270 C   0  0  0  0  0  1  0  0  0  0  0  0
  181.1420  178.4010  138.8860 O   0  0  0  0  0  0  0  0  0  0  0  0
  187.3640  175.0960  135.6200 C   0  0  0  0  0  2  0  0  0  0  0  0
  186.5290  174.5430  136.6770 N   0  0  0  0  0  2  0  0  0  0  0  0
  185.9730  173.2270  136.6040 C   0  0  0  0  0  0  0  0  0  0  0  0
  186.2550  172.4620  135.6420 O   0  0  0  0  0  0  0  0  0  0  0  0
  185.0540  172.7480  137.6720 C   0  0  0  0  0  2  0  0  0  0  0  0
  183.6680  173.3000  137.4450 C   0  0  0  0  0  1  0  0  0  0  0  0
  1 42  1  6  0  0  0
  1  5  1  0  0  0  0
  1  6  1  0  0  0  0
  3  5  1  0  0  0  0
  4  3  2  0  0  0  0
  5  7  1  0  0  0  0
  6  8  1  6  0  0  0
  6  2  1  0  0  0  0
  6 17  1  0  0  0  0
  7  2  1  0  0  0  0
  7  9  1  1  0  0  0
  9 11  1  0  0  0  0
  9 10  1  1  0  0  0
 11 15  1  1  0  0  0
 13 14  2  0  0  0  0
 14 11  1  0  0  0  0
 14 12  1  0  0  0  0
 15 16  1  0  0  0  0
 17 18  1  0  0  0  0
 18 19  1  0  0  0  0
 19 20  1  0  0  0  0
 20 21  1  0  0  0  0
 21 23  1  6  0  0  0
 21 24  1  0  0  0  0
 23 22  1  0  0  0  0
 24 25  1  0  0  0  0
 25 27  1  0  0  0  0
 27 28  2  6  0  0  0
 27 26  1  0  0  0  0
 27 29  1  0  0  0  0
 30 33  1  6  0  0  0
 30 29  1  0  0  0  0
 30 32  1  0  0  0  0
 31 32  1  0  0  0  0
 34 36  1  0  0  0  0
 34 33  1  0  0  0  0
 35 34  2  0  0  0  0
 36 38  1  0  0  0  0
 38 37  1  0  0  0  0
 39 41  1  0  0  0  0
 39  3  1  0  0  0  0
 40 41  1  0  0  0  0
 42 52  1  1  0  0  0
 43 42  1  0  0  0  0
 44 45  2  0  0  0  0
 45 43  1  0  0  0  0
 45 46  1  0  0  0  0
 46 47  1  0  0  0  0
 47 48  1  0  0  0  0
 48 49  1  0  0  0  0
 49 51  1  0  0  0  0
 51 50  1  0  0  0  0
 52 53  1  0  0  0  0
 54 53  1  0  0  0  0
 54 56  1  0  0  0  0
 55 54  2  0  0  0  0
 57 56  1  0  0  0  0
M  END
>  <MODEL>
7

>  <REMARK>
 VINA RESULT:      -3.4      3.443      8.862
  Name = 
  33 active torsions:
  status: ('A' for Active; 'I' for Inactive)
    1  A    between atoms: C_2  and  C_19
    2  A    between atoms: C_2  and  C_38
    3  A    between atoms: C_2  and  O_44
    4  A    between atoms: C_4  and  C_14
    5  A    between atoms: C_5  and  O_10
    6  A    between atoms: C_5  and  C_26
    7  A    between atoms: C_6  and  P_8
    8  A    between atoms: C_6  and  C_27
    9  A    between atoms: P_8  and  O_13
   10  A    between atoms: C_9  and  C_31
   11  A    between atoms: O_10  and  C_17
   12  A    between atoms: O_13  and  C_19
   13  A    between atoms: C_14  and  C_35
   14  A    between atoms: C_14  and  O_36
   15  A    between atoms: O_16  and  C_28
   16  A    between atoms: O_16  and  C_30
   17  A    between atoms: C_17  and  O_36
   18  A    between atoms: C_18  and  C_23
   19  A    between atoms: C_20  and  C_56
   20  A    between atoms: C_23  and  C_43
   21  A    between atoms: C_23  and  C_46
   22  A    between atoms: C_26  and  C_39
   23  A    between atoms: C_27  and  C_42
   24  A    between atoms: C_27  and  C_50
   25  A    between atoms: N_29  and  C_35
   26  A    between atoms: C_30  and  C_42
   27  A    between atoms: C_37  and  C_54
   28  A    between atoms: C_39  and  O_45
   29  A    between atoms: C_40  and  O_44
   30  A    between atoms: C_40  and  P_49
   31  A    between atoms: C_41  and  C_46
   32  A    between atoms: P_49  and  C_54
   33  A    between atoms: C_51  and  C_56
                            x       y       z     vdW  Elec       q    Type
                         _______ _______ _______ _____ _____    ______ ____

>  <TORSDO>
F 33

$$$$
=
 OpenBabel10232409053D

 57 57  0  0  1  0  0  0  0  0999 V2000
  183.6810  177.0450  138.9080 C   0  0  1  0  0  3  0  0  0  0  0  0
  185.3790  178.7090  139.1270 O   0  0  0  0  0  0  0  0  0  0  0  0
  184.1920  176.3840  136.4940 C   0  0  0  0  0  0  0  0  0  0  0  0
  183.5440  175.3040  136.5510 O   0  0  0  0  0  0  0  0  0  0  0  0
  184.4270  177.1530  137.6870 N   0  0  0  0  0  0  0  0  0  0  0  0
  184.1890  178.2340  139.7300 C   0  0  1  0  0  0  0  0  0  0  0  0
  185.4570  178.1620  137.8250 C   0  0  2  0  0  3  0  0  0  0  0  0
  183.2630  179.2830  139.7730 O   0  0  0  0  0  1  0  0  0  0  0  0
  186.8390  177.5400  137.6040 C   0  0  2  0  0  3  0  0  0  0  0  0
  187.5130  177.4300  138.8230 O   0  0  0  0  0  1  0  0  0  0  0  0
  187.6570  178.3550  136.5930 C   0  0  2  0  0  3  0  0  0  0  0  0
  189.3400  176.4240  136.0650 C   0  0  0  0  0  1  0  0  0  0  0  0
  188.1890  177.6300  134.4130 O   0  0  0  0  0  0  0  0  0  0  0  0
  188.3880  177.4810  135.6090 C   0  0  0  0  0  0  0  0  0  0  0  0
  188.5850  179.3880  137.2580 C   0  0  0  0  0  2  0  0  0  0  0  0
  189.4400  178.8100  138.3730 C   0  0  0  0  0  1  0  0  0  0  0  0
  184.4810  177.7490  141.1450 C   0  0  0  0  0  2  0  0  0  0  0  0
  184.3190  179.1220  142.4000 P   0  0  0  0  0  2  0  0  0  0  0  0
  184.7780  178.0370  143.8380 C   0  0  0  0  0  2  0  0  0  0  0  0
  185.2490  178.8220  144.8950 O   0  0  0  0  0  0  0  0  0  0  0  0
  186.5720  178.4210  145.0730 C   0  0  2  0  0  3  0  0  0  0  0  0
  188.3400  177.6680  143.6740 O   0  0  0  0  0  1  0  0  0  0  0  0
  186.9820  177.4980  143.9420 C   0  0  0  0  0  2  0  0  0  0  0  0
  186.7100  177.7030  146.4000 C   0  0  0  0  0  2  0  0  0  0  0  0
  187.4910  178.4730  147.2660 O   0  0  0  0  0  0  0  0  0  0  0  0
  190.0590  178.4520  148.4190 O   0  0  0  0  0  0  0  0  0  0  0  0
  188.8630  177.5370  147.6350 P   0  0  1  0  0  0  0  0  0  0  0  0
  188.4380  176.4070  148.5480 O   0  0  0  0  0  1  0  0  0  0  0  0
  189.5270  176.8200  146.0990 C   0  0  0  0  0  2  0  0  0  0  0  0
  191.0510  176.8150  146.1180 C   0  0  1  0  0  3  0  0  0  0  0  0
  192.3310  176.6620  148.1510 O   0  0  0  0  0  1  0  0  0  0  0  0
  191.5910  175.9190  147.2260 C   0  0  0  0  0  2  0  0  0  0  0  0
  191.5860  176.3790  144.7610 C   0  0  0  0  0  2  0  0  0  0  0  0
  191.7490  177.5630  143.8730 C   0  0  0  0  0  0  0  0  0  0  0  0
  191.6490  178.7210  144.3680 O   0  0  0  0  0  0  0  0  0  0  0  0
  191.9740  177.3830  142.5080 O   0  0  0  0  0  0  0  0  0  0  0  0
  190.4990  175.7980  141.7190 O   0  0  0  0  0  1  0  0  0  0  0  0
  190.9060  177.1300  141.6070 C   0  0  0  0  0  2  0  0  0  0  0  0
  184.6730  176.8820  135.1700 C   0  0  0  0  0  2  0  0  0  0  0  0
  185.7390  174.6350  135.3810 C   0  0  0  0  0  1  0  0  0  0  0  0
  185.3910  175.7670  134.4240 C   0  0  0  0  0  2  0  0  0  0  0  0
  182.1620  176.9490  138.6540 C   0  0  2  0  0  3  0  0  0  0  0  0
  181.6530  175.6370  138.8730 O   0  0  0  0  0  0  0  0  0  0  0  0
  180.2820  175.6740  137.0190 O   0  0  0  0  0  0  0  0  0  0  0  0
  180.7210  175.0440  138.0220 C   0  0  0  0  0  0  0  0  0  0  0  0
  180.2760  173.7540  138.3060 O   0  0  0  0  0  0  0  0  0  0  0  0
  180.1860  172.7510  137.3060 C   0  0  0  0  0  2  0  0  0  0  0  0
  181.4100  172.8060  136.4080 C   0  0  0  0  0  2  0  0  0  0  0  0
  182.6620  172.3850  137.1650 C   0  0  0  0  0  2  0  0  0  0  0  0
  183.5110  170.5520  136.2680 C   0  0  0  0  0  1  0  0  0  0  0  0
  182.7030  170.9970  137.3160 O   0  0  0  0  0  0  0  0  0  0  0  0
  181.7440  177.5260  137.3000 C   0  0  0  0  0  2  0  0  0  0  0  0
  180.7300  178.5590  137.4620 N   0  0  0  0  0  2  0  0  0  0  0  0
  181.0530  179.9520  137.4830 C   0  0  0  0  0  0  0  0  0  0  0  0
  182.2360  180.3420  137.2840 O   0  0  0  0  0  0  0  0  0  0  0  0
  179.9880  180.9580  137.7420 C   0  0  0  0  0  2  0  0  0  0  0  0
  180.3470  181.7940  138.9460 C   0  0  0  0  0  1  0  0  0  0  0  0
  1 42  1  6  0  0  0
  1  6  1  0  0  0  0
  2  6  1  0  0  0  0
  3  4  2  0  0  0  0
  3  5  1  0  0  0  0
  5  7  1  0  0  0  0
  5  1  1  0  0  0  0
  6  8  1  1  0  0  0
  6 17  1  0  0  0  0
  7  9  1  1  0  0  0
  7  2  1  0  0  0  0
  9 10  1  1  0  0  0
 11 15  1  1  0  0  0
 11  9  1  0  0  0  0
 13 14  2  0  0  0  0
 14 12  1  0  0  0  0
 14 11  1  0  0  0  0
 15 16  1  0  0  0  0
 17 18  1  0  0  0  0
 18 19  1  0  0  0  0
 19 20  1  0  0  0  0
 20 21  1  0  0  0  0
 21 23  1  6  0  0  0
 21 24  1  0  0  0  0
 22 23  1  0  0  0  0
 24 25  1  0  0  0  0
 25 27  1  0  0  0  0
 27 26  2  1  0  0  0
 27 28  1  0  0  0  0
 29 30  1  0  0  0  0
 29 27  1  0  0  0  0
 30 33  1  6  0  0  0
 30 32  1  0  0  0  0
 32 31  1  0  0  0  0
 34 35  2  0  0  0  0
 34 33  1  0  0  0  0
 36 34  1  0  0  0  0
 38 37  1  0  0  0  0
 38 36  1  0  0  0  0
 39  3  1  0  0  0  0
 41 39  1  0  0  0  0
 41 40  1  0  0  0  0
 42 52  1  6  0  0  0
 42 43  1  0  0  0  0
 44 45  2  0  0  0  0
 45 46  1  0  0  0  0
 45 43  1  0  0  0  0
 47 46  1  0  0  0  0
 48 49  1  0  0  0  0
 48 47  1  0  0  0  0
 49 51  1  0  0  0  0
 50 51  1  0  0  0  0
 52 53  1  0  0  0  0
 53 54  1  0  0  0  0
 54 56  1  0  0  0  0
 55 54  2  0  0  0  0
 56 57  1  0  0  0  0
M  END
>  <MODEL>
8

>  <REMARK>
 VINA RESULT:      -3.0      4.833      8.236
  Name = 
  33 active torsions:
  status: ('A' for Active; 'I' for Inactive)
    1  A    between atoms: C_2  and  C_19
    2  A    between atoms: C_2  and  C_38
    3  A    between atoms: C_2  and  O_44
    4  A    between atoms: C_4  and  C_14
    5  A    between atoms: C_5  and  O_10
    6  A    between atoms: C_5  and  C_26
    7  A    between atoms: C_6  and  P_8
    8  A    between atoms: C_6  and  C_27
    9  A    between atoms: P_8  and  O_13
   10  A    between atoms: C_9  and  C_31
   11  A    between atoms: O_10  and  C_17
   12  A    between atoms: O_13  and  C_19
   13  A    between atoms: C_14  and  C_35
   14  A    between atoms: C_14  and  O_36
   15  A    between atoms: O_16  and  C_28
   16  A    between atoms: O_16  and  C_30
   17  A    between atoms: C_17  and  O_36
   18  A    between atoms: C_18  and  C_23
   19  A    between atoms: C_20  and  C_56
   20  A    between atoms: C_23  and  C_43
   21  A    between atoms: C_23  and  C_46
   22  A    between atoms: C_26  and  C_39
   23  A    between atoms: C_27  and  C_42
   24  A    between atoms: C_27  and  C_50
   25  A    between atoms: N_29  and  C_35
   26  A    between atoms: C_30  and  C_42
   27  A    between atoms: C_37  and  C_54
   28  A    between atoms: C_39  and  O_45
   29  A    between atoms: C_40  and  O_44
   30  A    between atoms: C_40  and  P_49
   31  A    between atoms: C_41  and  C_46
   32  A    between atoms: P_49  and  C_54
   33  A    between atoms: C_51  and  C_56
                            x       y       z     vdW  Elec       q    Type
                         _______ _______ _______ _____ _____    ______ ____

>  <TORSDO>
F 33

$$$$
=
 OpenBabel10232409053D

 57 57  0  0  1  0  0  0  0  0999 V2000
  188.4940  176.6020  138.2780 C   0  0  1  0  0  3  0  0  0  0  0  0
  189.3730  177.9190  140.0650 O   0  0  0  0  0  0  0  0  0  0  0  0
  190.6210  175.2770  137.7820 C   0  0  0  0  0  0  0  0  0  0  0  0
  190.0270  174.3870  137.1160 O   0  0  0  0  0  0  0  0  0  0  0  0
  189.8680  176.2610  138.5130 N   0  0  0  0  0  0  0  0  0  0  0  0
  188.2900  177.8400  139.1560 C   0  0  1  0  0  0  0  0  0  0  0  0
  190.3970  177.0610  139.6000 C   0  0  2  0  0  3  0  0  0  0  0  0
  188.2540  179.0220  138.4050 O   0  0  0  0  0  1  0  0  0  0  0  0
  190.8740  176.1550  140.7380 C   0  0  2  0  0  3  0  0  0  0  0  0
  189.8590  176.0060  141.6870 O   0  0  0  0  0  1  0  0  0  0  0  0
  192.1550  176.7050  141.3820 C   0  0  2  0  0  3  0  0  0  0  0  0
  191.5860  178.6650  143.0170 C   0  0  0  0  0  1  0  0  0  0  0  0
  191.9860  176.4620  143.7210 O   0  0  0  0  0  0  0  0  0  0  0  0
  191.9180  177.2300  142.7730 C   0  0  0  0  0  0  0  0  0  0  0  0
  192.8890  177.7240  140.4910 C   0  0  0  0  0  2  0  0  0  0  0  0
  194.2020  177.2070  139.9290 C   0  0  0  0  0  1  0  0  0  0  0  0
  186.9810  177.6770  139.9190 C   0  0  0  0  0  2  0  0  0  0  0  0
  186.6470  179.1270  141.0480 P   0  0  0  0  0  2  0  0  0  0  0  0
  185.6340  178.1280  142.2440 C   0  0  0  0  0  2  0  0  0  0  0  0
  184.2730  178.3710  142.0350 O   0  0  0  0  0  0  0  0  0  0  0  0
  183.7150  178.3860  143.3130 C   0  0  2  0  0  3  0  0  0  0  0  0
  181.6990  178.8400  142.1390 O   0  0  0  0  0  1  0  0  0  0  0  0
  182.4130  179.1640  143.2920 C   0  0  0  0  0  2  0  0  0  0  0  0
  184.6850  179.0310  144.2820 C   0  0  0  0  0  2  0  0  0  0  0  0
  185.4800  178.0430  144.8700 O   0  0  0  0  0  0  0  0  0  0  0  0
  185.2810  180.1740  146.6980 O   0  0  0  0  0  0  0  0  0  0  0  0
  185.8570  178.5990  146.4330 P   0  0  1  0  0  0  0  0  0  0  0  0
  185.2130  177.6700  147.4390 O   0  0  0  0  0  1  0  0  0  0  0  0
  187.6610  178.5430  146.6670 C   0  0  0  0  0  2  0  0  0  0  0  0
  188.2670  177.3510  145.9360 C   0  0  1  0  0  3  0  0  0  0  0  0
  188.5500  177.9330  143.6180 O   0  0  0  0  0  1  0  0  0  0  0  0
  187.7320  177.2400  144.5140 C   0  0  0  0  0  2  0  0  0  0  0  0
  189.7850  177.4590  145.9360 C   0  0  0  0  0  2  0  0  0  0  0  0
  190.3600  176.5720  146.9860 C   0  0  0  0  0  0  0  0  0  0  0  0
  189.6000  176.1100  147.8830 O   0  0  0  0  0  0  0  0  0  0  0  0
  191.7260  176.2930  146.9880 O   0  0  0  0  0  0  0  0  0  0  0  0
  193.7640  175.7400  147.9110 O   0  0  0  0  0  1  0  0  0  0  0  0
  192.4020  175.9020  148.1750 C   0  0  0  0  0  2  0  0  0  0  0  0
  192.1140  175.3300  137.7660 C   0  0  0  0  0  2  0  0  0  0  0  0
  194.1330  174.2140  136.8150 C   0  0  0  0  0  1  0  0  0  0  0  0
  192.6530  174.5040  136.6080 C   0  0  0  0  0  2  0  0  0  0  0  0
  188.1780  176.7320  136.7730 C   0  0  2  0  0  3  0  0  0  0  0  0
  187.1970  177.7290  136.5060 O   0  0  0  0  0  0  0  0  0  0  0  0
  186.3850  177.7020  134.3470 O   0  0  0  0  0  0  0  0  0  0  0  0
  186.1700  177.5390  135.5810 C   0  0  0  0  0  0  0  0  0  0  0  0
  184.9060  177.1780  136.0430 O   0  0  0  0  0  0  0  0  0  0  0  0
  184.3570  177.7190  137.2340 C   0  0  0  0  0  2  0  0  0  0  0  0
  182.8410  177.7410  137.1410 C   0  0  0  0  0  2  0  0  0  0  0  0
  182.3240  176.5330  136.3720 C   0  0  0  0  0  2  0  0  0  0  0  0
  181.2660  176.2020  138.2840 C   0  0  0  0  0  1  0  0  0  0  0  0
  181.1070  176.0970  136.9010 O   0  0  0  0  0  0  0  0  0  0  0  0
  187.8560  175.3920  136.1100 C   0  0  0  0  0  2  0  0  0  0  0  0
  186.7210  174.7480  136.7550 N   0  0  0  0  0  2  0  0  0  0  0  0
  186.6660  173.3360  136.9770 C   0  0  0  0  0  0  0  0  0  0  0  0
  187.6480  172.6000  136.6860 O   0  0  0  0  0  0  0  0  0  0  0  0
  185.4420  172.7220  137.5590 C   0  0  0  0  0  2  0  0  0  0  0  0
  184.4030  173.7870  137.8160 C   0  0  0  0  0  1  0  0  0  0  0  0
  1 42  1  6  0  0  0
  1  5  1  0  0  0  0
  1  6  1  0  0  0  0
  3  5  1  0  0  0  0
  4  3  2  0  0  0  0
  5  7  1  0  0  0  0
  6  8  1  6  0  0  0
  6 17  1  0  0  0  0
  6  2  1  0  0  0  0
  7  2  1  0  0  0  0
  7  9  1  1  0  0  0
  9 11  1  0  0  0  0
  9 10  1  1  0  0  0
 11 15  1  6  0  0  0
 11 14  1  0  0  0  0
 14 12  1  0  0  0  0
 14 13  2  0  0  0  0
 16 15  1  0  0  0  0
 17 18  1  0  0  0  0
 18 19  1  0  0  0  0
 20 19  1  0  0  0  0
 20 21  1  0  0  0  0
 21 23  1  6  0  0  0
 21 24  1  0  0  0  0
 22 23  1  0  0  0  0
 24 25  1  0  0  0  0
 25 27  1  0  0  0  0
 27 29  1  0  0  0  0
 27 26  2  1  0  0  0
 27 28  1  0  0  0  0
 30 32  1  6  0  0  0
 30 29  1  0  0  0  0
 31 32  1  0  0  0  0
 33 30  1  0  0  0  0
 33 34  1  0  0  0  0
 34 36  1  0  0  0  0
 34 35  2  0  0  0  0
 36 38  1  0  0  0  0
 37 38  1  0  0  0  0
 39  3  1  0  0  0  0
 41 40  1  0  0  0  0
 41 39  1  0  0  0  0
 42 52  1  1  0  0  0
 43 42  1  0  0  0  0
 44 45  2  0  0  0  0
 45 46  1  0  0  0  0
 45 43  1  0  0  0  0
 46 47  1  0  0  0  0
 48 47  1  0  0  0  0
 49 51  1  0  0  0  0
 49 48  1  0  0  0  0
 51 50  1  0  0  0  0
 52 53  1  0  0  0  0
 53 54  1  0  0  0  0
 54 56  1  0  0  0  0
 55 54  2  0  0  0  0
 56 57  1  0  0  0  0
M  END
>  <MODEL>
9

>  <REMARK>
 VINA RESULT:      -2.9      3.741      8.550
  Name = 
  33 active torsions:
  status: ('A' for Active; 'I' for Inactive)
    1  A    between atoms: C_2  and  C_19
    2  A    between atoms: C_2  and  C_38
    3  A    between atoms: C_2  and  O_44
    4  A    between atoms: C_4  and  C_14
    5  A    between atoms: C_5  and  O_10
    6  A    between atoms: C_5  and  C_26
    7  A    between atoms: C_6  and  P_8
    8  A    between atoms: C_6  and  C_27
    9  A    between atoms: P_8  and  O_13
   10  A    between atoms: C_9  and  C_31
   11  A    between atoms: O_10  and  C_17
   12  A    between atoms: O_13  and  C_19
   13  A    between atoms: C_14  and  C_35
   14  A    between atoms: C_14  and  O_36
   15  A    between atoms: O_16  and  C_28
   16  A    between atoms: O_16  and  C_30
   17  A    between atoms: C_17  and  O_36
   18  A    between atoms: C_18  and  C_23
   19  A    between atoms: C_20  and  C_56
   20  A    between atoms: C_23  and  C_43
   21  A    between atoms: C_23  and  C_46
   22  A    between atoms: C_26  and  C_39
   23  A    between atoms: C_27  and  C_42
   24  A    between atoms: C_27  and  C_50
   25  A    between atoms: N_29  and  C_35
   26  A    between atoms: C_30  and  C_42
   27  A    between atoms: C_37  and  C_54
   28  A    between atoms: C_39  and  O_45
   29  A    between atoms: C_40  and  O_44
   30  A    between atoms: C_40  and  P_49
   31  A    between atoms: C_41  and  C_46
   32  A    between atoms: P_49  and  C_54
   33  A    between atoms: C_51  and  C_56
                            x       y       z     vdW  Elec       q    Type
                         _______ _______ _______ _____ _____    ______ ____

>  <TORSDO>
F 33

$$$$
