=
 OpenBabel10232409173D

 49 56  0  0  0  0  0  0  0  0999 V2000
  188.5150  177.4010  147.8100 S   0  0  0  0  0  0  0  0  0  0  0  0
  187.8950  178.0470  141.5750 N   0  0  0  0  0  0  0  0  0  0  0  0
  191.2040  177.2050  145.0400 C   0  0  0  0  0  1  0  0  0  0  0  0
  182.1970  179.0280  141.4920 C   0  0  0  0  0  0  0  0  0  0  0  0
  181.1690  179.3130  140.4750 C   0  0  0  0  0  3  0  0  0  0  0  0
  187.8770  178.1940  140.1350 C   0  0  0  0  0  0  0  0  0  0  0  0
  188.2770  177.7800  144.0390 C   0  0  0  0  0  0  0  0  0  0  0  0
  189.9830  177.3330  145.8800 C   0  0  0  0  0  0  0  0  0  0  0  0
  186.7070  178.4520  139.5170 C   0  0  0  0  0  3  0  0  0  0  0  0
  187.7180  177.6610  146.3740 C   0  0  0  0  0  0  0  0  0  0  0  0
  183.5040  178.8270  141.2630 C   0  0  0  0  0  0  0  0  0  0  0  0
  182.4570  179.2860  138.3000 C   0  0  0  0  0  3  0  0  0  0  0  0
  185.5500  178.4340  141.7210 C   0  0  0  0  0  0  0  0  0  0  0  0
  185.5020  178.5720  140.3620 C   0  0  0  0  0  0  0  0  0  0  0  0
  186.9270  178.0210  143.7680 C   0  0  0  0  0  0  0  0  0  0  0  0
  183.7050  179.0320  138.6740 C   0  0  0  0  0  3  0  0  0  0  0  0
  185.1820  177.9840  147.4130 Cl  0  0  0  0  0  0  0  0  0  0  0  0
  184.3590  178.5880  142.2450 O   0  0  0  0  0  0  0  0  0  0  0  0
  181.2710  179.4220  139.1520 C   0  0  0  0  0  3  0  0  0  0  0  0
  188.6820  177.5930  145.3710 C   0  0  0  0  0  0  0  0  0  0  0  0
  185.9640  178.0870  144.7870 C   0  0  0  0  0  3  0  0  0  0  0  0
  184.1870  178.8250  140.0410 C   0  0  0  0  0  0  0  0  0  0  0  0
  186.3640  177.9040  146.1200 C   0  0  0  0  0  0  0  0  0  0  0  0
  189.3320  177.7460  142.5690 S   0  0  0  0  0  0  0  0  0  0  0  0
  186.6990  178.1800  142.3470 C   0  0  0  0  0  0  0  0  0  0  0  0
  190.0650  177.1970  147.2330 N   0  0  0  0  0  0  0  0  0  0  0  0
  180.2930  178.4250  142.9520 C   0  0  0  0  0  1  0  0  0  0  0  0
  181.7020  178.9860  142.9040 C   0  0  0  0  0  2  0  0  0  0  0  0
  189.1300  178.0540  139.3320 C   0  0  0  0  0  2  0  0  0  0  0  0
  188.9830  178.7190  137.9690 C   0  0  0  0  0  2  0  0  0  0  0  0
  189.2560  177.7360  136.8390 C   0  0  0  0  0  2  0  0  0  0  0  0
  187.3380  176.0340  136.8220 N   0  0  0  0  0  2  0  0  0  0  0  0
  189.4170  175.5400  137.7270 O   0  0  0  0  0  0  0  0  0  0  0  0
  186.5830  178.1110  136.0530 O   0  0  0  0  0  0  0  0  0  0  0  0
  186.3400  176.8900  136.2480 C   0  0  0  0  0  0  0  0  0  0  0  0
  188.6840  176.3930  137.1620 C   0  0  0  0  0  0  0  0  0  0  0  0
  184.0690  177.1770  135.6930 O   0  0  0  0  0  0  0  0  0  0  0  0
  185.0080  176.3590  135.8890 C   0  0  0  0  0  0  0  0  0  0  0  0
  184.9680  174.3120  134.6670 O   0  0  0  0  0  0  0  0  0  0  0  0
  184.7360  174.9090  135.7510 C   0  0  0  0  0  0  0  0  0  0  0  0
  184.1790  172.6270  136.7390 C   0  0  0  0  0  2  0  0  0  0  0  0
  184.1300  174.1360  136.8850 C   0  0  0  0  0  0  0  0  0  0  0  0
  185.0930  173.3280  137.7330 C   0  0  0  0  0  2  0  0  0  0  0  0
  181.6580  174.5790  136.9700 C   0  0  0  0  0  3  0  0  0  0  0  0
  183.0380  175.3190  138.8170 C   0  0  0  0  0  3  0  0  0  0  0  0
  181.9100  175.8500  139.4480 C   0  0  0  0  0  3  0  0  0  0  0  0
  182.9160  174.6720  137.5800 C   0  0  0  0  0  0  0  0  0  0  0  0
  180.6550  175.7430  138.8420 C   0  0  0  0  0  3  0  0  0  0  0  0
  180.5300  175.1100  137.6020 C   0  0  0  0  0  3  0  0  0  0  0  0
  2 25  1  0  0  0  0
  2 24  1  0  0  0  0
  3  8  1  0  0  0  0
  4 28  1  0  0  0  0
  5  4  1  0  0  0  0
  6  2  1  0  0  0  0
  7 20  1  0  0  0  0
  8 26  2  0  0  0  0
  9  6  2  0  0  0  0
  9 14  1  0  0  0  0
 10  1  1  0  0  0  0
 11  4  2  0  0  0  0
 11 18  1  0  0  0  0
 12 16  2  0  0  0  0
 12 19  1  0  0  0  0
 13 18  1  0  0  0  0
 13 25  2  0  0  0  0
 14 13  1  0  0  0  0
 15  7  2  0  0  0  0
 15 21  1  0  0  0  0
 16 22  1  0  0  0  0
 19  5  2  0  0  0  0
 20  8  1  0  0  0  0
 20 10  2  0  0  0  0
 21 23  2  0  0  0  0
 22 14  2  0  0  0  0
 22 11  1  0  0  0  0
 23 10  1  0  0  0  0
 23 17  1  0  0  0  0
 24  7  1  0  0  0  0
 25 15  1  0  0  0  0
 26  1  1  0  0  0  0
 28 27  1  0  0  0  0
 29  6  1  0  0  0  0
 30 29  1  0  0  0  0
 31 36  1  0  0  0  0
 31 30  1  0  0  0  0
 32 36  1  0  0  0  0
 34 35  2  0  0  0  0
 35 32  1  0  0  0  0
 36 33  2  0  0  0  0
 37 38  2  0  0  0  0
 38 35  1  0  0  0  0
 39 40  2  0  0  0  0
 40 38  1  0  0  0  0
 40 42  1  0  0  0  0
 41 42  1  0  0  0  0
 41 43  1  0  0  0  0
 42 47  1  0  0  0  0
 42 43  1  0  0  0  0
 44 47  2  0  0  0  0
 44 49  1  0  0  0  0
 45 46  2  0  0  0  0
 47 45  1  0  0  0  0
 48 46  1  0  0  0  0
 49 48  2  0  0  0  0
M  END
>  <MODEL>
1

>  <REMARK>
 VINA RESULT:      -9.5      0.000      0.000
  Name = 
  9 active torsions:
  status: ('A' for Active; 'I' for Inactive)
    1  A    between atoms: C_2  and  C_29
    2  A    between atoms: C_2  and  C_48
    3  A    between atoms: C_6  and  C_32
    4  A    between atoms: C_9  and  C_48
    5  A    between atoms: C_25  and  C_44
    6  A    between atoms: C_26  and  C_38
    7  A    between atoms: C_26  and  C_45
    8  A    between atoms: C_29  and  C_41
    9  A    between atoms: C_44  and  C_45
                            x       y       z     vdW  Elec       q    Type
                         _______ _______ _______ _____ _____    ______ ____

>  <TORSDO>
F 9

$$$$
=
 OpenBabel10232409173D

 49 56  0  0  0  0  0  0  0  0999 V2000
  188.3270  177.4470  148.0450 S   0  0  0  0  0  0  0  0  0  0  0  0
  188.0310  178.0430  141.7810 N   0  0  0  0  0  0  0  0  0  0  0  0
  191.1640  177.2840  145.4240 C   0  0  0  0  0  1  0  0  0  0  0  0
  182.3290  178.9180  141.3870 C   0  0  0  0  0  0  0  0  0  0  0  0
  181.3520  179.1780  140.3140 C   0  0  0  0  0  3  0  0  0  0  0  0
  188.0870  178.1800  140.3410 C   0  0  0  0  0  0  0  0  0  0  0  0
  188.2850  177.7980  144.2640 C   0  0  0  0  0  0  0  0  0  0  0  0
  189.8980  177.3950  146.1970 C   0  0  0  0  0  0  0  0  0  0  0  0
  186.9480  178.4120  139.6590 C   0  0  0  0  0  3  0  0  0  0  0  0
  187.6040  177.6840  146.5660 C   0  0  0  0  0  0  0  0  0  0  0  0
  183.6500  178.7400  141.2290 C   0  0  0  0  0  0  0  0  0  0  0  0
  182.7550  179.1610  138.2120 C   0  0  0  0  0  3  0  0  0  0  0  0
  185.6750  178.3880  141.7990 C   0  0  0  0  0  0  0  0  0  0  0  0
  185.6970  178.5160  140.4380 C   0  0  0  0  0  0  0  0  0  0  0  0
  186.9480  178.0130  143.9190 C   0  0  0  0  0  0  0  0  0  0  0  0
  183.9860  178.9320  138.6530 C   0  0  0  0  0  3  0  0  0  0  0  0
  185.0100  177.9670  147.4660 Cl  0  0  0  0  0  0  0  0  0  0  0  0
  184.4560  178.5230  142.2580 O   0  0  0  0  0  0  0  0  0  0  0  0
  181.5230  179.2800  138.9980 C   0  0  0  0  0  3  0  0  0  0  0  0
  188.6220  177.6270  145.6170 C   0  0  0  0  0  0  0  0  0  0  0  0
  185.9300  178.0670  144.8860 C   0  0  0  0  0  3  0  0  0  0  0  0
  184.3970  178.7430  140.0450 C   0  0  0  0  0  0  0  0  0  0  0  0
  186.2610  177.9010  146.2390 C   0  0  0  0  0  0  0  0  0  0  0  0
  189.4180  177.7750  142.8530 S   0  0  0  0  0  0  0  0  0  0  0  0
  186.7930  178.1590  142.4870 C   0  0  0  0  0  0  0  0  0  0  0  0
  189.9100  177.2690  147.5530 N   0  0  0  0  0  0  0  0  0  0  0  0
  180.3000  178.4620  142.7270 C   0  0  0  0  0  1  0  0  0  0  0  0
  181.7600  178.8760  142.7700 C   0  0  0  0  0  2  0  0  0  0  0  0
  189.3840  178.0580  139.6080 C   0  0  0  0  0  2  0  0  0  0  0  0
  189.5150  176.6900  138.9520 C   0  0  0  0  0  2  0  0  0  0  0  0
  190.9710  176.2530  138.8630 C   0  0  0  0  0  2  0  0  0  0  0  0
  192.3340  174.9720  137.1100 N   0  0  0  0  0  2  0  0  0  0  0  0
  190.1810  174.3410  137.7000 O   0  0  0  0  0  0  0  0  0  0  0  0
  193.4750  176.9060  137.7670 O   0  0  0  0  0  0  0  0  0  0  0  0
  193.4830  175.8320  137.1080 C   0  0  0  0  0  0  0  0  0  0  0  0
  191.1280  175.1520  137.8640 C   0  0  0  0  0  0  0  0  0  0  0  0
  195.3970  176.4150  135.8650 O   0  0  0  0  0  0  0  0  0  0  0  0
  194.6860  175.4810  136.3250 C   0  0  0  0  0  0  0  0  0  0  0  0
  194.7340  173.4970  135.0020 O   0  0  0  0  0  0  0  0  0  0  0  0
  195.0880  174.0780  136.0620 C   0  0  0  0  0  0  0  0  0  0  0  0
  195.2520  172.0080  137.5380 C   0  0  0  0  0  2  0  0  0  0  0  0
  195.8810  173.3090  137.0770 C   0  0  0  0  0  0  0  0  0  0  0  0
  196.4580  171.9870  136.6110 C   0  0  0  0  0  2  0  0  0  0  0  0
  198.0080  174.3640  137.8980 C   0  0  0  0  0  3  0  0  0  0  0  0
  196.0660  174.3770  139.3460 C   0  0  0  0  0  3  0  0  0  0  0  0
  196.8050  175.0360  140.3330 C   0  0  0  0  0  3  0  0  0  0  0  0
  196.6600  174.0480  138.1200 C   0  0  0  0  0  0  0  0  0  0  0  0
  198.1450  175.3610  140.1010 C   0  0  0  0  0  3  0  0  0  0  0  0
  198.7460  175.0240  138.8860 C   0  0  0  0  0  3  0  0  0  0  0  0
  2 25  1  0  0  0  0
  2 24  1  0  0  0  0
  3  8  1  0  0  0  0
  4 28  1  0  0  0  0
  5  4  1  0  0  0  0
  6  2  1  0  0  0  0
  7 20  1  0  0  0  0
  8 26  2  0  0  0  0
  9  6  2  0  0  0  0
  9 14  1  0  0  0  0
 10  1  1  0  0  0  0
 11  4  2  0  0  0  0
 11 18  1  0  0  0  0
 12 16  2  0  0  0  0
 12 19  1  0  0  0  0
 13 18  1  0  0  0  0
 13 25  2  0  0  0  0
 14 13  1  0  0  0  0
 15  7  2  0  0  0  0
 15 21  1  0  0  0  0
 16 22  1  0  0  0  0
 19  5  2  0  0  0  0
 20  8  1  0  0  0  0
 20 10  2  0  0  0  0
 21 23  2  0  0  0  0
 22 14  2  0  0  0  0
 22 11  1  0  0  0  0
 23 10  1  0  0  0  0
 23 17  1  0  0  0  0
 24  7  1  0  0  0  0
 25 15  1  0  0  0  0
 26  1  1  0  0  0  0
 27 28  1  0  0  0  0
 29  6  1  0  0  0  0
 30 29  1  0  0  0  0
 31 30  1  0  0  0  0
 32 36  1  0  0  0  0
 33 36  2  0  0  0  0
 35 32  1  0  0  0  0
 35 34  2  0  0  0  0
 36 31  1  0  0  0  0
 37 38  2  0  0  0  0
 38 35  1  0  0  0  0
 39 40  2  0  0  0  0
 40 38  1  0  0  0  0
 40 42  1  0  0  0  0
 42 41  1  0  0  0  0
 42 47  1  0  0  0  0
 43 42  1  0  0  0  0
 43 41  1  0  0  0  0
 44 47  2  0  0  0  0
 44 49  1  0  0  0  0
 45 46  2  0  0  0  0
 47 45  1  0  0  0  0
 48 46  1  0  0  0  0
 49 48  2  0  0  0  0
M  END
>  <MODEL>
2

>  <REMARK>
 VINA RESULT:      -9.0      4.304      7.104
  Name = 
  9 active torsions:
  status: ('A' for Active; 'I' for Inactive)
    1  A    between atoms: C_2  and  C_29
    2  A    between atoms: C_2  and  C_48
    3  A    between atoms: C_6  and  C_32
    4  A    between atoms: C_9  and  C_48
    5  A    between atoms: C_25  and  C_44
    6  A    between atoms: C_26  and  C_38
    7  A    between atoms: C_26  and  C_45
    8  A    between atoms: C_29  and  C_41
    9  A    between atoms: C_44  and  C_45
                            x       y       z     vdW  Elec       q    Type
                         _______ _______ _______ _____ _____    ______ ____

>  <TORSDO>
F 9

$$$$
=
 OpenBabel10232409173D

 49 56  0  0  0  0  0  0  0  0999 V2000
  189.1710  177.3340  147.4310 S   0  0  0  0  0  0  0  0  0  0  0  0
  186.1260  178.4010  142.0210 N   0  0  0  0  0  0  0  0  0  0  0  0
  185.5390  178.5230  146.8490 C   0  0  0  0  0  1  0  0  0  0  0  0
  190.4480  176.9980  138.4460 C   0  0  0  0  0  0  0  0  0  0  0  0
  190.6580  176.9210  136.9880 C   0  0  0  0  0  3  0  0  0  0  0  0
  185.3230  178.6600  140.8450 C   0  0  0  0  0  0  0  0  0  0  0  0
  187.2220  178.0020  144.2410 C   0  0  0  0  0  0  0  0  0  0  0  0
  186.9520  178.0620  146.7760 C   0  0  0  0  0  0  0  0  0  0  0  0
  185.8690  178.4860  139.6260 C   0  0  0  0  0  3  0  0  0  0  0  0
  188.9710  177.4170  145.7820 C   0  0  0  0  0  0  0  0  0  0  0  0
  189.3160  177.3660  139.0650 C   0  0  0  0  0  0  0  0  0  0  0  0
  188.4400  177.6630  136.0270 C   0  0  0  0  0  3  0  0  0  0  0  0
  188.0070  177.7890  140.6950 C   0  0  0  0  0  0  0  0  0  0  0  0
  187.2730  178.0320  139.5670 C   0  0  0  0  0  0  0  0  0  0  0  0
  188.1060  177.7320  143.1940 C   0  0  0  0  0  0  0  0  0  0  0  0
  187.6960  177.9090  137.0980 C   0  0  0  0  0  3  0  0  0  0  0  0
  191.5080  176.6010  145.0610 Cl  0  0  0  0  0  0  0  0  0  0  0  0
  189.2170  177.3940  140.3850 O   0  0  0  0  0  0  0  0  0  0  0  0
  189.8290  177.1950  135.9820 C   0  0  0  0  0  3  0  0  0  0  0  0
  187.6630  177.8440  145.5650 C   0  0  0  0  0  0  0  0  0  0  0  0
  189.4240  177.3020  143.4240 C   0  0  0  0  0  3  0  0  0  0  0  0
  188.1000  177.7670  138.4980 C   0  0  0  0  0  0  0  0  0  0  0  0
  189.8690  177.1390  144.7450 C   0  0  0  0  0  0  0  0  0  0  0  0
  185.5780  178.5350  143.7020 S   0  0  0  0  0  0  0  0  0  0  0  0
  187.4790  177.9560  141.9080 C   0  0  0  0  0  0  0  0  0  0  0  0
  187.6540  177.8220  147.9180 N   0  0  0  0  0  0  0  0  0  0  0  0
  192.8920  176.6140  138.4430 C   0  0  0  0  0  1  0  0  0  0  0  0
  191.6260  176.6020  139.2800 C   0  0  0  0  0  2  0  0  0  0  0  0
  183.9070  179.1250  140.9680 C   0  0  0  0  0  2  0  0  0  0  0  0
  182.9440  177.9450  140.9940 C   0  0  0  0  0  2  0  0  0  0  0  0
  182.2100  177.7980  139.6680 C   0  0  0  0  0  2  0  0  0  0  0  0
  182.8730  175.8770  138.1040 N   0  0  0  0  0  2  0  0  0  0  0  0
  181.4990  175.5500  139.9450 O   0  0  0  0  0  0  0  0  0  0  0  0
  183.6370  177.9180  137.2490 O   0  0  0  0  0  0  0  0  0  0  0  0
  183.6160  176.6610  137.1590 C   0  0  0  0  0  0  0  0  0  0  0  0
  182.1620  176.3630  139.2510 C   0  0  0  0  0  0  0  0  0  0  0  0
  185.0920  176.7250  135.3240 O   0  0  0  0  0  0  0  0  0  0  0  0
  184.3560  176.0100  136.0580 C   0  0  0  0  0  0  0  0  0  0  0  0
  183.3380  174.0920  135.0700 O   0  0  0  0  0  0  0  0  0  0  0  0
  184.2670  174.5560  135.7830 C   0  0  0  0  0  0  0  0  0  0  0  0
  184.9710  173.2180  137.8330 C   0  0  0  0  0  2  0  0  0  0  0  0
  185.2520  173.6040  136.3940 C   0  0  0  0  0  0  0  0  0  0  0  0
  184.7300  172.2170  136.7130 C   0  0  0  0  0  2  0  0  0  0  0  0
  187.0770  173.9040  134.6930 C   0  0  0  0  0  3  0  0  0  0  0  0
  187.6890  173.5420  137.0080 C   0  0  0  0  0  3  0  0  0  0  0  0
  189.0420  173.6010  136.6610 C   0  0  0  0  0  3  0  0  0  0  0  0
  186.7010  173.7040  136.0290 C   0  0  0  0  0  0  0  0  0  0  0  0
  189.4120  173.8150  135.3300 C   0  0  0  0  0  3  0  0  0  0  0  0
  188.4300  173.9640  134.3470 C   0  0  0  0  0  3  0  0  0  0  0  0
  1 26  1  0  0  0  0
  2 24  1  0  0  0  0
  4 11  2  0  0  0  0
  4 28  1  0  0  0  0
  5  4  1  0  0  0  0
  6 29  1  0  0  0  0
  6  2  1  0  0  0  0
  7 20  2  0  0  0  0
  8  3  1  0  0  0  0
  8 26  2  0  0  0  0
  9  6  2  0  0  0  0
 10  1  1  0  0  0  0
 11 18  1  0  0  0  0
 12 16  2  0  0  0  0
 13 25  2  0  0  0  0
 14  9  1  0  0  0  0
 14 13  1  0  0  0  0
 15 21  2  0  0  0  0
 15  7  1  0  0  0  0
 16 22  1  0  0  0  0
 18 13  1  0  0  0  0
 19 12  1  0  0  0  0
 19  5  2  0  0  0  0
 20 10  1  0  0  0  0
 20  8  1  0  0  0  0
 21 23  1  0  0  0  0
 22 11  1  0  0  0  0
 22 14  2  0  0  0  0
 23 17  1  0  0  0  0
 23 10  2  0  0  0  0
 24  7  1  0  0  0  0
 25  2  1  0  0  0  0
 25 15  1  0  0  0  0
 27 28  1  0  0  0  0
 29 30  1  0  0  0  0
 31 30  1  0  0  0  0
 32 36  1  0  0  0  0
 35 34  2  0  0  0  0
 35 32  1  0  0  0  0
 36 31  1  0  0  0  0
 36 33  2  0  0  0  0
 37 38  2  0  0  0  0
 38 35  1  0  0  0  0
 39 40  2  0  0  0  0
 40 38  1  0  0  0  0
 40 42  1  0  0  0  0
 42 43  1  0  0  0  0
 42 41  1  0  0  0  0
 43 41  1  0  0  0  0
 44 47  1  0  0  0  0
 46 45  1  0  0  0  0
 47 42  1  0  0  0  0
 47 45  2  0  0  0  0
 48 46  2  0  0  0  0
 49 44  2  0  0  0  0
 49 48  1  0  0  0  0
M  END
>  <MODEL>
3

>  <REMARK>
 VINA RESULT:      -9.0      2.266      5.567
  Name = 
  9 active torsions:
  status: ('A' for Active; 'I' for Inactive)
    1  A    between atoms: C_2  and  C_29
    2  A    between atoms: C_2  and  C_48
    3  A    between atoms: C_6  and  C_32
    4  A    between atoms: C_9  and  C_48
    5  A    between atoms: C_25  and  C_44
    6  A    between atoms: C_26  and  C_38
    7  A    between atoms: C_26  and  C_45
    8  A    between atoms: C_29  and  C_41
    9  A    between atoms: C_44  and  C_45
                            x       y       z     vdW  Elec       q    Type
                         _______ _______ _______ _____ _____    ______ ____

>  <TORSDO>
F 9

$$$$
=
 OpenBabel10232409173D

 49 56  0  0  0  0  0  0  0  0999 V2000
  189.2920  177.2730  147.3840 S   0  0  0  0  0  0  0  0  0  0  0  0
  185.8100  178.4080  142.2590 N   0  0  0  0  0  0  0  0  0  0  0  0
  185.5720  178.2900  147.1160 C   0  0  0  0  0  1  0  0  0  0  0  0
  189.9260  177.3960  138.3260 C   0  0  0  0  0  0  0  0  0  0  0  0
  190.0330  177.3930  136.8550 C   0  0  0  0  0  3  0  0  0  0  0  0
  184.9120  178.6750  141.1560 C   0  0  0  0  0  0  0  0  0  0  0  0
  187.0840  177.9730  144.3750 C   0  0  0  0  0  0  0  0  0  0  0  0
  186.9970  177.9080  146.9220 C   0  0  0  0  0  0  0  0  0  0  0  0
  185.3760  178.5830  139.8940 C   0  0  0  0  0  3  0  0  0  0  0  0
  188.9680  177.4170  145.7590 C   0  0  0  0  0  0  0  0  0  0  0  0
  188.8250  177.6750  139.0400 C   0  0  0  0  0  0  0  0  0  0  0  0
  187.7170  178.0560  136.0890 C   0  0  0  0  0  3  0  0  0  0  0  0
  187.6190  177.9560  140.7760 C   0  0  0  0  0  0  0  0  0  0  0  0
  186.7930  178.2080  139.7160 C   0  0  0  0  0  0  0  0  0  0  0  0
  187.9020  177.7960  143.2560 C   0  0  0  0  0  0  0  0  0  0  0  0
  187.0410  178.2150  137.2200 C   0  0  0  0  0  3  0  0  0  0  0  0
  191.4840  176.7710  144.8240 Cl  0  0  0  0  0  0  0  0  0  0  0  0
  188.8210  177.6410  140.3640 O   0  0  0  0  0  0  0  0  0  0  0  0
  189.1200  177.6660  135.9240 C   0  0  0  0  0  3  0  0  0  0  0  0
  187.6280  177.7820  145.6560 C   0  0  0  0  0  0  0  0  0  0  0  0
  189.2530  177.4280  143.3730 C   0  0  0  0  0  3  0  0  0  0  0  0
  187.5530  178.0340  138.5800 C   0  0  0  0  0  0  0  0  0  0  0  0
  189.8010  177.2320  144.6500 C   0  0  0  0  0  0  0  0  0  0  0  0
  185.3800  178.4390  143.9790 S   0  0  0  0  0  0  0  0  0  0  0  0
  187.1730  178.0420  142.0300 C   0  0  0  0  0  0  0  0  0  0  0  0
  187.7910  177.6580  147.9990 N   0  0  0  0  0  0  0  0  0  0  0  0
  192.1470  176.3250  138.1200 C   0  0  0  0  0  1  0  0  0  0  0  0
  191.1800  177.0280  139.0550 C   0  0  0  0  0  2  0  0  0  0  0  0
  183.4870  179.0570  141.4000 C   0  0  0  0  0  2  0  0  0  0  0  0
  182.6730  178.9860  140.1150 C   0  0  0  0  0  2  0  0  0  0  0  0
  181.6220  177.8880  140.1820 C   0  0  0  0  0  2  0  0  0  0  0  0
  181.1730  176.7080  137.9490 N   0  0  0  0  0  2  0  0  0  0  0  0
  180.0120  178.6110  138.5940 O   0  0  0  0  0  0  0  0  0  0  0  0
  183.0140  175.7390  139.0210 O   0  0  0  0  0  0  0  0  0  0  0  0
  182.1950  175.7070  138.0640 C   0  0  0  0  0  0  0  0  0  0  0  0
  180.9030  177.7680  138.8760 C   0  0  0  0  0  0  0  0  0  0  0  0
  181.9410  173.4690  137.3750 O   0  0  0  0  0  0  0  0  0  0  0  0
  182.3120  174.6320  137.0570 C   0  0  0  0  0  0  0  0  0  0  0  0
  182.3240  174.3070  134.6940 O   0  0  0  0  0  0  0  0  0  0  0  0
  182.8470  174.8670  135.6950 C   0  0  0  0  0  0  0  0  0  0  0  0
  183.9420  176.7350  134.3530 C   0  0  0  0  0  2  0  0  0  0  0  0
  184.0530  175.7350  135.4880 C   0  0  0  0  0  0  0  0  0  0  0  0
  183.8760  177.2080  135.7970 C   0  0  0  0  0  2  0  0  0  0  0  0
  185.8770  174.9180  137.0110 C   0  0  0  0  0  3  0  0  0  0  0  0
  186.2720  174.9300  134.6210 C   0  0  0  0  0  3  0  0  0  0  0  0
  187.5600  174.4310  134.8310 C   0  0  0  0  0  3  0  0  0  0  0  0
  185.4200  175.1650  135.7090 C   0  0  0  0  0  0  0  0  0  0  0  0
  188.0070  174.1740  136.1300 C   0  0  0  0  0  3  0  0  0  0  0  0
  187.1660  174.4190  137.2200 C   0  0  0  0  0  3  0  0  0  0  0  0
  1 26  1  0  0  0  0
  2 24  1  0  0  0  0
  4 11  2  0  0  0  0
  4 28  1  0  0  0  0
  5  4  1  0  0  0  0
  6 29  1  0  0  0  0
  6  2  1  0  0  0  0
  7 20  2  0  0  0  0
  8  3  1  0  0  0  0
  8 26  2  0  0  0  0
  9  6  2  0  0  0  0
 10  1  1  0  0  0  0
 11 18  1  0  0  0  0
 12 16  2  0  0  0  0
 13 25  2  0  0  0  0
 14  9  1  0  0  0  0
 14 13  1  0  0  0  0
 15 21  2  0  0  0  0
 15  7  1  0  0  0  0
 16 22  1  0  0  0  0
 18 13  1  0  0  0  0
 19 12  1  0  0  0  0
 19  5  2  0  0  0  0
 20 10  1  0  0  0  0
 20  8  1  0  0  0  0
 21 23  1  0  0  0  0
 22 11  1  0  0  0  0
 22 14  2  0  0  0  0
 23 17  1  0  0  0  0
 23 10  2  0  0  0  0
 24  7  1  0  0  0  0
 25  2  1  0  0  0  0
 25 15  1  0  0  0  0
 27 28  1  0  0  0  0
 30 31  1  0  0  0  0
 30 29  1  0  0  0  0
 32 35  1  0  0  0  0
 32 36  1  0  0  0  0
 33 36  2  0  0  0  0
 35 34  2  0  0  0  0
 36 31  1  0  0  0  0
 38 37  2  0  0  0  0
 38 35  1  0  0  0  0
 39 40  2  0  0  0  0
 40 38  1  0  0  0  0
 41 42  1  0  0  0  0
 41 43  1  0  0  0  0
 42 40  1  0  0  0  0
 42 47  1  0  0  0  0
 42 43  1  0  0  0  0
 44 49  1  0  0  0  0
 45 46  2  0  0  0  0
 45 47  1  0  0  0  0
 46 48  1  0  0  0  0
 47 44  2  0  0  0  0
 48 49  2  0  0  0  0
M  END
>  <MODEL>
4

>  <REMARK>
 VINA RESULT:      -8.9      2.395      5.595
  Name = 
  9 active torsions:
  status: ('A' for Active; 'I' for Inactive)
    1  A    between atoms: C_2  and  C_29
    2  A    between atoms: C_2  and  C_48
    3  A    between atoms: C_6  and  C_32
    4  A    between atoms: C_9  and  C_48
    5  A    between atoms: C_25  and  C_44
    6  A    between atoms: C_26  and  C_38
    7  A    between atoms: C_26  and  C_45
    8  A    between atoms: C_29  and  C_41
    9  A    between atoms: C_44  and  C_45
                            x       y       z     vdW  Elec       q    Type
                         _______ _______ _______ _____ _____    ______ ____

>  <TORSDO>
F 9

$$$$
=
 OpenBabel10232409173D

 49 56  0  0  0  0  0  0  0  0999 V2000
  188.5180  177.4370  147.9720 S   0  0  0  0  0  0  0  0  0  0  0  0
  188.1390  178.0250  141.7110 N   0  0  0  0  0  0  0  0  0  0  0  0
  191.3180  177.2550  145.3120 C   0  0  0  0  0  1  0  0  0  0  0  0
  182.4360  178.9280  141.3940 C   0  0  0  0  0  0  0  0  0  0  0  0
  181.4460  179.1910  140.3340 C   0  0  0  0  0  3  0  0  0  0  0  0
  188.1760  178.1600  140.2710 C   0  0  0  0  0  0  0  0  0  0  0  0
  188.4250  177.7830  144.1910 C   0  0  0  0  0  0  0  0  0  0  0  0
  190.0620  177.3740  146.1030 C   0  0  0  0  0  0  0  0  0  0  0  0
  187.0290  178.3970  139.6040 C   0  0  0  0  0  3  0  0  0  0  0  0
  187.7760  177.6750  146.5030 C   0  0  0  0  0  0  0  0  0  0  0  0
  183.7540  178.7430  141.2190 C   0  0  0  0  0  0  0  0  0  0  0  0
  182.8200  179.1650  138.2130 C   0  0  0  0  0  3  0  0  0  0  0  0
  185.7840  178.3820  141.7610 C   0  0  0  0  0  0  0  0  0  0  0  0
  185.7890  178.5080  140.4000 C   0  0  0  0  0  0  0  0  0  0  0  0
  187.0850  178.0030  143.8640 C   0  0  0  0  0  0  0  0  0  0  0  0
  184.0550  178.9300  138.6380 C   0  0  0  0  0  3  0  0  0  0  0  0
  185.1960  177.9720  147.4370 Cl  0  0  0  0  0  0  0  0  0  0  0  0
  184.5720  178.5230  142.2360 O   0  0  0  0  0  0  0  0  0  0  0  0
  181.5990  179.2900  139.0150 C   0  0  0  0  0  3  0  0  0  0  0  0
  188.7800  177.6120  145.5390 C   0  0  0  0  0  0  0  0  0  0  0  0
  186.0800  178.0640  144.8440 C   0  0  0  0  0  3  0  0  0  0  0  0
  184.4850  178.7410  140.0240 C   0  0  0  0  0  0  0  0  0  0  0  0
  186.4300  177.8980  146.1930 C   0  0  0  0  0  0  0  0  0  0  0  0
  189.5390  177.7510  142.7640 S   0  0  0  0  0  0  0  0  0  0  0  0
  186.9110  178.1480  142.4340 C   0  0  0  0  0  0  0  0  0  0  0  0
  190.0920  177.2500  147.4580 N   0  0  0  0  0  0  0  0  0  0  0  0
  180.4510  178.3980  142.7710 C   0  0  0  0  0  1  0  0  0  0  0  0
  181.8860  178.8910  142.7850 C   0  0  0  0  0  2  0  0  0  0  0  0
  189.4620  178.0310  139.5200 C   0  0  0  0  0  2  0  0  0  0  0  0
  189.7460  176.5760  139.1670 C   0  0  0  0  0  2  0  0  0  0  0  0
  190.7560  176.4660  138.0340 C   0  0  0  0  0  2  0  0  0  0  0  0
  192.3960  174.5450  137.5900 N   0  0  0  0  0  2  0  0  0  0  0  0
  190.0990  174.2200  137.6360 O   0  0  0  0  0  0  0  0  0  0  0  0
  193.5410  176.5840  137.6730 O   0  0  0  0  0  0  0  0  0  0  0  0
  193.5990  175.3270  137.5970 C   0  0  0  0  0  0  0  0  0  0  0  0
  191.0550  175.0310  137.7350 C   0  0  0  0  0  0  0  0  0  0  0  0
  195.8680  175.3130  136.9630 O   0  0  0  0  0  0  0  0  0  0  0  0
  194.9220  174.6760  137.5020 C   0  0  0  0  0  0  0  0  0  0  0  0
  195.4170  173.1130  139.2350 O   0  0  0  0  0  0  0  0  0  0  0  0
  195.1790  173.3080  138.0130 C   0  0  0  0  0  0  0  0  0  0  0  0
  193.9740  171.9640  136.2150 C   0  0  0  0  0  2  0  0  0  0  0  0
  195.2110  172.1380  137.0750 C   0  0  0  0  0  0  0  0  0  0  0  0
  195.2700  172.4680  135.5970 C   0  0  0  0  0  2  0  0  0  0  0  0
  197.2560  170.6980  137.3150 C   0  0  0  0  0  3  0  0  0  0  0  0
  195.1190  169.8160  138.0370 C   0  0  0  0  0  3  0  0  0  0  0  0
  195.7360  168.6170  138.4030 C   0  0  0  0  0  3  0  0  0  0  0  0
  195.8770  170.8660  137.5020 C   0  0  0  0  0  0  0  0  0  0  0  0
  197.1140  168.4590  138.2280 C   0  0  0  0  0  3  0  0  0  0  0  0
  197.8730  169.4980  137.6820 C   0  0  0  0  0  3  0  0  0  0  0  0
  2 25  1  0  0  0  0
  2 24  1  0  0  0  0
  3  8  1  0  0  0  0
  4 28  1  0  0  0  0
  5  4  1  0  0  0  0
  6  2  1  0  0  0  0
  7 20  1  0  0  0  0
  8 26  2  0  0  0  0
  9  6  2  0  0  0  0
  9 14  1  0  0  0  0
 10  1  1  0  0  0  0
 11  4  2  0  0  0  0
 11 18  1  0  0  0  0
 12 16  2  0  0  0  0
 12 19  1  0  0  0  0
 13 18  1  0  0  0  0
 13 25  2  0  0  0  0
 14 13  1  0  0  0  0
 15  7  2  0  0  0  0
 15 21  1  0  0  0  0
 16 22  1  0  0  0  0
 19  5  2  0  0  0  0
 20  8  1  0  0  0  0
 20 10  2  0  0  0  0
 21 23  2  0  0  0  0
 22 14  2  0  0  0  0
 22 11  1  0  0  0  0
 23 10  1  0  0  0  0
 23 17  1  0  0  0  0
 24  7  1  0  0  0  0
 25 15  1  0  0  0  0
 26  1  1  0  0  0  0
 27 28  1  0  0  0  0
 29  6  1  0  0  0  0
 30 29  1  0  0  0  0
 31 30  1  0  0  0  0
 32 35  1  0  0  0  0
 32 36  1  0  0  0  0
 33 36  2  0  0  0  0
 35 34  2  0  0  0  0
 36 31  1  0  0  0  0
 37 38  2  0  0  0  0
 38 35  1  0  0  0  0
 38 40  1  0  0  0  0
 40 39  2  0  0  0  0
 41 42  1  0  0  0  0
 42 47  1  0  0  0  0
 42 40  1  0  0  0  0
 43 41  1  0  0  0  0
 43 42  1  0  0  0  0
 44 47  2  0  0  0  0
 44 49  1  0  0  0  0
 45 46  2  0  0  0  0
 47 45  1  0  0  0  0
 48 46  1  0  0  0  0
 49 48  2  0  0  0  0
M  END
>  <MODEL>
5

>  <REMARK>
 VINA RESULT:      -8.8      4.729      7.158
  Name = 
  9 active torsions:
  status: ('A' for Active; 'I' for Inactive)
    1  A    between atoms: C_2  and  C_29
    2  A    between atoms: C_2  and  C_48
    3  A    between atoms: C_6  and  C_32
    4  A    between atoms: C_9  and  C_48
    5  A    between atoms: C_25  and  C_44
    6  A    between atoms: C_26  and  C_38
    7  A    between atoms: C_26  and  C_45
    8  A    between atoms: C_29  and  C_41
    9  A    between atoms: C_44  and  C_45
                            x       y       z     vdW  Elec       q    Type
                         _______ _______ _______ _____ _____    ______ ____

>  <TORSDO>
F 9

$$$$
=
 OpenBabel10232409173D

 49 56  0  0  0  0  0  0  0  0999 V2000
  188.5620  177.4680  147.8540 S   0  0  0  0  0  0  0  0  0  0  0  0
  188.0130  177.9640  141.5990 N   0  0  0  0  0  0  0  0  0  0  0  0
  191.2840  177.2170  145.1210 C   0  0  0  0  0  1  0  0  0  0  0  0
  182.3130  178.9210  141.4270 C   0  0  0  0  0  0  0  0  0  0  0  0
  181.2960  179.1790  140.3920 C   0  0  0  0  0  3  0  0  0  0  0  0
  188.0110  178.0770  140.1560 C   0  0  0  0  0  0  0  0  0  0  0  0
  188.3670  177.7570  144.0730 C   0  0  0  0  0  0  0  0  0  0  0  0
  190.0530  177.3610  145.9440 C   0  0  0  0  0  0  0  0  0  0  0  0
  186.8480  178.3150  139.5180 C   0  0  0  0  0  3  0  0  0  0  0  0
  187.7820  177.6910  146.4030 C   0  0  0  0  0  0  0  0  0  0  0  0
  183.6230  178.7200  141.2180 C   0  0  0  0  0  0  0  0  0  0  0  0
  182.6090  179.1050  138.2330 C   0  0  0  0  0  3  0  0  0  0  0  0
  185.6650  178.3460  141.7090 C   0  0  0  0  0  0  0  0  0  0  0  0
  185.6320  178.4510  140.3460 C   0  0  0  0  0  0  0  0  0  0  0  0
  187.0200  177.9870  143.7800 C   0  0  0  0  0  0  0  0  0  0  0  0
  183.8540  178.8640  138.6270 C   0  0  0  0  0  3  0  0  0  0  0  0
  185.2320  178.0300  147.4050 Cl  0  0  0  0  0  0  0  0  0  0  0  0
  184.4680  178.5070  142.2150 O   0  0  0  0  0  0  0  0  0  0  0  0
  181.4130  179.2560  139.0670 C   0  0  0  0  0  3  0  0  0  0  0  0
  188.7580  177.6030  145.4130 C   0  0  0  0  0  0  0  0  0  0  0  0
  186.0440  178.0730  144.7870 C   0  0  0  0  0  3  0  0  0  0  0  0
  184.3200  178.6920  140.0040 C   0  0  0  0  0  0  0  0  0  0  0  0
  186.4300  177.9240  146.1280 C   0  0  0  0  0  0  0  0  0  0  0  0
  189.4400  177.6920  142.6160 S   0  0  0  0  0  0  0  0  0  0  0  0
  186.8080  178.1110  142.3530 C   0  0  0  0  0  0  0  0  0  0  0  0
  190.1200  177.2570  147.3000 N   0  0  0  0  0  0  0  0  0  0  0  0
  180.4140  179.5240  142.8940 C   0  0  0  0  0  1  0  0  0  0  0  0
  181.8020  178.9120  142.8330 C   0  0  0  0  0  2  0  0  0  0  0  0
  189.2730  177.9220  139.3710 C   0  0  0  0  0  2  0  0  0  0  0  0
  189.0600  178.3010  137.9110 C   0  0  0  0  0  2  0  0  0  0  0  0
  189.6070  177.2330  136.9740 C   0  0  0  0  0  2  0  0  0  0  0  0
  188.3750  175.0040  137.2770 N   0  0  0  0  0  2  0  0  0  0  0  0
  190.3600  175.4770  138.3820 O   0  0  0  0  0  0  0  0  0  0  0  0
  187.0900  176.4690  135.9810 O   0  0  0  0  0  0  0  0  0  0  0  0
  187.2380  175.3120  136.4580 C   0  0  0  0  0  0  0  0  0  0  0  0
  189.4700  175.8760  137.5870 C   0  0  0  0  0  0  0  0  0  0  0  0
  186.1660  173.7920  135.0120 O   0  0  0  0  0  0  0  0  0  0  0  0
  186.2150  174.2840  136.1720 C   0  0  0  0  0  0  0  0  0  0  0  0
  185.6120  173.0150  138.0990 O   0  0  0  0  0  0  0  0  0  0  0  0
  185.2500  173.8110  137.1920 C   0  0  0  0  0  0  0  0  0  0  0  0
  183.3970  175.2670  138.1590 C   0  0  0  0  0  2  0  0  0  0  0  0
  183.8110  174.2300  137.1330 C   0  0  0  0  0  0  0  0  0  0  0  0
  183.5490  175.6580  136.6970 C   0  0  0  0  0  2  0  0  0  0  0  0
  181.4770  173.3210  137.3370 C   0  0  0  0  0  3  0  0  0  0  0  0
  183.0690  172.1420  135.9430 C   0  0  0  0  0  3  0  0  0  0  0  0
  182.0980  171.1830  135.6450 C   0  0  0  0  0  3  0  0  0  0  0  0
  182.7610  173.2220  136.7820 C   0  0  0  0  0  0  0  0  0  0  0  0
  180.8150  171.2940  136.1900 C   0  0  0  0  0  3  0  0  0  0  0  0
  180.5060  172.3610  137.0380 C   0  0  0  0  0  3  0  0  0  0  0  0
  2 25  1  0  0  0  0
  2 24  1  0  0  0  0
  3  8  1  0  0  0  0
  4 28  1  0  0  0  0
  5  4  1  0  0  0  0
  6  2  1  0  0  0  0
  7 20  1  0  0  0  0
  8 26  2  0  0  0  0
  9  6  2  0  0  0  0
  9 14  1  0  0  0  0
 10  1  1  0  0  0  0
 11  4  2  0  0  0  0
 11 18  1  0  0  0  0
 12 16  2  0  0  0  0
 12 19  1  0  0  0  0
 13 18  1  0  0  0  0
 13 25  2  0  0  0  0
 14 13  1  0  0  0  0
 15  7  2  0  0  0  0
 15 21  1  0  0  0  0
 16 22  1  0  0  0  0
 19  5  2  0  0  0  0
 20  8  1  0  0  0  0
 20 10  2  0  0  0  0
 21 23  2  0  0  0  0
 22 14  2  0  0  0  0
 22 11  1  0  0  0  0
 23 10  1  0  0  0  0
 23 17  1  0  0  0  0
 24  7  1  0  0  0  0
 25 15  1  0  0  0  0
 26  1  1  0  0  0  0
 28 27  1  0  0  0  0
 29  6  1  0  0  0  0
 30 29  1  0  0  0  0
 31 36  1  0  0  0  0
 31 30  1  0  0  0  0
 32 36  1  0  0  0  0
 34 35  2  0  0  0  0
 35 32  1  0  0  0  0
 36 33  2  0  0  0  0
 37 38  2  0  0  0  0
 38 35  1  0  0  0  0
 38 40  1  0  0  0  0
 40 39  2  0  0  0  0
 42 40  1  0  0  0  0
 42 41  1  0  0  0  0
 43 42  1  0  0  0  0
 43 41  1  0  0  0  0
 45 47  1  0  0  0  0
 46 45  2  0  0  0  0
 46 48  1  0  0  0  0
 47 42  1  0  0  0  0
 47 44  2  0  0  0  0
 48 49  2  0  0  0  0
 49 44  1  0  0  0  0
M  END
>  <MODEL>
6

>  <REMARK>
 VINA RESULT:      -8.8      1.174      1.839
  Name = 
  9 active torsions:
  status: ('A' for Active; 'I' for Inactive)
    1  A    between atoms: C_2  and  C_29
    2  A    between atoms: C_2  and  C_48
    3  A    between atoms: C_6  and  C_32
    4  A    between atoms: C_9  and  C_48
    5  A    between atoms: C_25  and  C_44
    6  A    between atoms: C_26  and  C_38
    7  A    between atoms: C_26  and  C_45
    8  A    between atoms: C_29  and  C_41
    9  A    between atoms: C_44  and  C_45
                            x       y       z     vdW  Elec       q    Type
                         _______ _______ _______ _____ _____    ______ ____

>  <TORSDO>
F 9

$$$$
=
 OpenBabel10232409173D

 49 56  0  0  0  0  0  0  0  0999 V2000
  181.9310  179.2030  141.1680 S   0  0  0  0  0  0  0  0  0  0  0  0
  188.1150  178.0170  140.9720 N   0  0  0  0  0  0  0  0  0  0  0  0
  184.3190  179.1030  138.1290 C   0  0  0  0  0  1  0  0  0  0  0  0
  188.8820  177.1370  146.6350 C   0  0  0  0  0  0  0  0  0  0  0  0
  190.0000  176.7810  147.5270 C   0  0  0  0  0  3  0  0  0  0  0  0
  189.5260  177.7430  140.8030 C   0  0  0  0  0  0  0  0  0  0  0  0
  185.6540  178.4950  140.9130 C   0  0  0  0  0  0  0  0  0  0  0  0
  183.6430  179.0730  139.4550 C   0  0  0  0  0  0  0  0  0  0  0  0
  190.2720  177.4530  141.8870 C   0  0  0  0  0  3  0  0  0  0  0  0
  183.4340  178.8320  141.7740 C   0  0  0  0  0  0  0  0  0  0  0  0
  188.9490  177.2920  145.3030 C   0  0  0  0  0  0  0  0  0  0  0  0
  191.9760  176.5910  145.9600 C   0  0  0  0  0  3  0  0  0  0  0  0
  188.2540  177.6870  143.3260 C   0  0  0  0  0  0  0  0  0  0  0  0
  189.5900  177.4300  143.1970 C   0  0  0  0  0  0  0  0  0  0  0  0
  186.0830  178.2550  142.2210 C   0  0  0  0  0  0  0  0  0  0  0  0
  191.4600  176.8540  144.7660 C   0  0  0  0  0  3  0  0  0  0  0  0
  182.7240  178.6480  144.4340 Cl  0  0  0  0  0  0  0  0  0  0  0  0
  187.8840  177.6030  144.5800 O   0  0  0  0  0  0  0  0  0  0  0  0
  191.2840  176.5530  147.2530 C   0  0  0  0  0  3  0  0  0  0  0  0
  184.3000  178.7920  140.6830 C   0  0  0  0  0  0  0  0  0  0  0  0
  185.2010  178.2980  143.3140 C   0  0  0  0  0  3  0  0  0  0  0  0
  190.0630  177.1730  144.4650 C   0  0  0  0  0  0  0  0  0  0  0  0
  183.8470  178.5910  143.0890 C   0  0  0  0  0  0  0  0  0  0  0  0
  186.9650  178.3790  139.6710 S   0  0  0  0  0  0  0  0  0  0  0  0
  187.5030  177.9750  142.2630 C   0  0  0  0  0  0  0  0  0  0  0  0
  182.3090  179.3270  139.5490 N   0  0  0  0  0  0  0  0  0  0  0  0
  187.4210  178.7290  147.8390 C   0  0  0  0  0  1  0  0  0  0  0  0
  187.5590  177.3130  147.3120 C   0  0  0  0  0  2  0  0  0  0  0  0
  190.1610  177.7880  139.4510 C   0  0  0  0  0  2  0  0  0  0  0  0
  190.4440  176.3840  138.9320 C   0  0  0  0  0  2  0  0  0  0  0  0
  189.2080  175.7680  138.2920 C   0  0  0  0  0  2  0  0  0  0  0  0
  188.1850  175.4890  135.9570 N   0  0  0  0  0  2  0  0  0  0  0  0
  190.0600  176.8030  136.3330 O   0  0  0  0  0  0  0  0  0  0  0  0
  187.1180  174.0710  137.4830 O   0  0  0  0  0  0  0  0  0  0  0  0
  187.1620  174.5500  136.3180 C   0  0  0  0  0  0  0  0  0  0  0  0
  189.1870  176.0410  136.8220 C   0  0  0  0  0  0  0  0  0  0  0  0
  186.5340  173.4200  134.3480 O   0  0  0  0  0  0  0  0  0  0  0  0
  186.1530  174.1180  135.3280 C   0  0  0  0  0  0  0  0  0  0  0  0
  184.2620  175.4980  134.8720 O   0  0  0  0  0  0  0  0  0  0  0  0
  184.7180  174.4710  135.4420 C   0  0  0  0  0  0  0  0  0  0  0  0
  183.1970  172.4320  135.5840 C   0  0  0  0  0  2  0  0  0  0  0  0
  183.7930  173.6400  136.2810 C   0  0  0  0  0  0  0  0  0  0  0  0
  184.2810  172.2490  136.6360 C   0  0  0  0  0  2  0  0  0  0  0  0
  183.4390  175.1880  138.2290 C   0  0  0  0  0  3  0  0  0  0  0  0
  181.5290  174.0180  137.3080 C   0  0  0  0  0  3  0  0  0  0  0  0
  180.7020  174.6170  138.2620 C   0  0  0  0  0  3  0  0  0  0  0  0
  182.9000  174.3090  137.2790 C   0  0  0  0  0  0  0  0  0  0  0  0
  181.2420  175.5030  139.1980 C   0  0  0  0  0  3  0  0  0  0  0  0
  182.6110  175.7860  139.1830 C   0  0  0  0  0  3  0  0  0  0  0  0
  1 10  1  0  0  0  0
  2 25  1  0  0  0  0
  3  8  1  0  0  0  0
  4 28  1  0  0  0  0
  4  5  1  0  0  0  0
  6  2  1  0  0  0  0
  6  9  2  0  0  0  0
  7 15  1  0  0  0  0
  8 26  2  0  0  0  0
  8 20  1  0  0  0  0
  9 14  1  0  0  0  0
 10 23  2  0  0  0  0
 11  4  2  0  0  0  0
 12 19  1  0  0  0  0
 13 18  1  0  0  0  0
 14 13  1  0  0  0  0
 14 22  2  0  0  0  0
 15 25  1  0  0  0  0
 15 21  2  0  0  0  0
 16 12  2  0  0  0  0
 18 11  1  0  0  0  0
 19  5  2  0  0  0  0
 20  7  2  0  0  0  0
 20 10  1  0  0  0  0
 22 16  1  0  0  0  0
 22 11  1  0  0  0  0
 23 21  1  0  0  0  0
 23 17  1  0  0  0  0
 24  7  1  0  0  0  0
 24  2  1  0  0  0  0
 25 13  2  0  0  0  0
 26  1  1  0  0  0  0
 28 27  1  0  0  0  0
 29  6  1  0  0  0  0
 30 29  1  0  0  0  0
 31 30  1  0  0  0  0
 32 35  1  0  0  0  0
 32 36  1  0  0  0  0
 33 36  2  0  0  0  0
 35 34  2  0  0  0  0
 36 31  1  0  0  0  0
 37 38  2  0  0  0  0
 38 40  1  0  0  0  0
 38 35  1  0  0  0  0
 39 40  2  0  0  0  0
 40 42  1  0  0  0  0
 41 42  1  0  0  0  0
 41 43  1  0  0  0  0
 42 43  1  0  0  0  0
 42 47  1  0  0  0  0
 44 49  1  0  0  0  0
 45 46  2  0  0  0  0
 46 48  1  0  0  0  0
 47 45  1  0  0  0  0
 47 44  2  0  0  0  0
 49 48  2  0  0  0  0
M  END
>  <MODEL>
7

>  <REMARK>
 VINA RESULT:      -8.5      2.333      5.740
  Name = 
  9 active torsions:
  status: ('A' for Active; 'I' for Inactive)
    1  A    between atoms: C_2  and  C_29
    2  A    between atoms: C_2  and  C_48
    3  A    between atoms: C_6  and  C_32
    4  A    between atoms: C_9  and  C_48
    5  A    between atoms: C_25  and  C_44
    6  A    between atoms: C_26  and  C_38
    7  A    between atoms: C_26  and  C_45
    8  A    between atoms: C_29  and  C_41
    9  A    between atoms: C_44  and  C_45
                            x       y       z     vdW  Elec       q    Type
                         _______ _______ _______ _____ _____    ______ ____

>  <TORSDO>
F 9

$$$$
=
 OpenBabel10232409173D

 49 56  0  0  0  0  0  0  0  0999 V2000
  180.7680  179.1660  141.5140 S   0  0  0  0  0  0  0  0  0  0  0  0
  186.9000  178.4020  140.2920 N   0  0  0  0  0  0  0  0  0  0  0  0
  182.6280  179.2600  138.1270 C   0  0  0  0  0  1  0  0  0  0  0  0
  188.6380  177.5150  145.7350 C   0  0  0  0  0  0  0  0  0  0  0  0
  189.9070  177.2260  146.4260 C   0  0  0  0  0  3  0  0  0  0  0  0
  188.2790  178.2260  139.8900 C   0  0  0  0  0  0  0  0  0  0  0  0
  184.4360  178.7140  140.6440 C   0  0  0  0  0  0  0  0  0  0  0  0
  182.1820  179.1700  139.5440 C   0  0  0  0  0  0  0  0  0  0  0  0
  189.2100  177.9750  140.8320 C   0  0  0  0  0  3  0  0  0  0  0  0
  182.3710  178.8900  141.8600 C   0  0  0  0  0  0  0  0  0  0  0  0
  188.4760  177.6890  144.4140 C   0  0  0  0  0  0  0  0  0  0  0  0
  191.6080  177.1860  144.5550 C   0  0  0  0  0  3  0  0  0  0  0  0
  187.4430  178.0570  142.5850 C   0  0  0  0  0  0  0  0  0  0  0  0
  188.7540  177.8930  142.2350 C   0  0  0  0  0  0  0  0  0  0  0  0
  185.0880  178.4890  141.8590 C   0  0  0  0  0  0  0  0  0  0  0  0
  190.8880  177.4280  143.4670 C   0  0  0  0  0  3  0  0  0  0  0  0
  182.1180  178.6310  144.5960 Cl  0  0  0  0  0  0  0  0  0  0  0  0
  187.2890  177.9340  143.8790 O   0  0  0  0  0  0  0  0  0  0  0  0
  191.1410  177.0890  145.9420 C   0  0  0  0  0  3  0  0  0  0  0  0
  183.0470  178.9210  140.6430 C   0  0  0  0  0  0  0  0  0  0  0  0
  184.3960  178.4610  143.0810 C   0  0  0  0  0  3  0  0  0  0  0  0
  189.4440  177.6540  143.4030 C   0  0  0  0  0  0  0  0  0  0  0  0
  183.0070  178.6640  143.0850 C   0  0  0  0  0  0  0  0  0  0  0  0
  185.5320  178.7000  139.2030 S   0  0  0  0  0  0  0  0  0  0  0  0
  186.5110  178.3050  141.6640 C   0  0  0  0  0  0  0  0  0  0  0  0
  180.8670  179.3320  139.8590 N   0  0  0  0  0  0  0  0  0  0  0  0
  187.8360  178.0390  148.0160 C   0  0  0  0  0  1  0  0  0  0  0  0
  187.4350  177.5940  146.6210 C   0  0  0  0  0  2  0  0  0  0  0  0
  188.6800  178.3290  138.4540 C   0  0  0  0  0  2  0  0  0  0  0  0
  189.9050  177.4690  138.1650 C   0  0  0  0  0  2  0  0  0  0  0  0
  189.5100  176.1020  137.6240 C   0  0  0  0  0  2  0  0  0  0  0  0
  188.2760  175.2380  135.5490 N   0  0  0  0  0  2  0  0  0  0  0  0
  189.5620  177.1690  135.5040 O   0  0  0  0  0  0  0  0  0  0  0  0
  188.0960  173.6950  137.2990 O   0  0  0  0  0  0  0  0  0  0  0  0
  187.7560  174.0350  136.1340 C   0  0  0  0  0  0  0  0  0  0  0  0
  189.1340  176.1980  136.1800 C   0  0  0  0  0  0  0  0  0  0  0  0
  187.2970  172.1770  134.7610 O   0  0  0  0  0  0  0  0  0  0  0  0
  186.8260  173.1710  135.3780 C   0  0  0  0  0  0  0  0  0  0  0  0
  184.8870  174.2090  134.4550 O   0  0  0  0  0  0  0  0  0  0  0  0
  185.3670  173.4260  135.3180 C   0  0  0  0  0  0  0  0  0  0  0  0
  184.9420  172.7880  137.7470 C   0  0  0  0  0  2  0  0  0  0  0  0
  184.4410  172.7960  136.3150 C   0  0  0  0  0  0  0  0  0  0  0  0
  183.8220  173.7310  137.3350 C   0  0  0  0  0  2  0  0  0  0  0  0
  184.2500  170.3840  135.6380 C   0  0  0  0  0  3  0  0  0  0  0  0
  182.2350  171.7220  135.7640 C   0  0  0  0  0  3  0  0  0  0  0  0
  181.4770  170.6200  135.3590 C   0  0  0  0  0  3  0  0  0  0  0  0
  183.6230  171.6060  135.9170 C   0  0  0  0  0  0  0  0  0  0  0  0
  182.1050  169.3990  135.0960 C   0  0  0  0  0  3  0  0  0  0  0  0
  183.4910  169.2820  135.2330 C   0  0  0  0  0  3  0  0  0  0  0  0
  1 10  1  0  0  0  0
  2 25  1  0  0  0  0
  3  8  1  0  0  0  0
  4  5  1  0  0  0  0
  4 28  1  0  0  0  0
  6  2  1  0  0  0  0
  6  9  2  0  0  0  0
  7 15  1  0  0  0  0
  8 26  2  0  0  0  0
  8 20  1  0  0  0  0
  9 14  1  0  0  0  0
 10 23  2  0  0  0  0
 11  4  2  0  0  0  0
 12 19  1  0  0  0  0
 13 18  1  0  0  0  0
 14 13  1  0  0  0  0
 14 22  2  0  0  0  0
 15 21  2  0  0  0  0
 16 12  2  0  0  0  0
 18 11  1  0  0  0  0
 19  5  2  0  0  0  0
 20  7  2  0  0  0  0
 20 10  1  0  0  0  0
 21 23  1  0  0  0  0
 22 16  1  0  0  0  0
 22 11  1  0  0  0  0
 23 17  1  0  0  0  0
 24  2  1  0  0  0  0
 24  7  1  0  0  0  0
 25 15  1  0  0  0  0
 25 13  2  0  0  0  0
 26  1  1  0  0  0  0
 28 27  1  0  0  0  0
 29  6  1  0  0  0  0
 30 29  1  0  0  0  0
 31 30  1  0  0  0  0
 32 35  1  0  0  0  0
 32 36  1  0  0  0  0
 33 36  2  0  0  0  0
 35 34  2  0  0  0  0
 36 31  1  0  0  0  0
 37 38  2  0  0  0  0
 38 35  1  0  0  0  0
 39 40  2  0  0  0  0
 40 38  1  0  0  0  0
 40 42  1  0  0  0  0
 42 43  1  0  0  0  0
 42 41  1  0  0  0  0
 43 41  1  0  0  0  0
 44 47  1  0  0  0  0
 45 47  2  0  0  0  0
 46 45  1  0  0  0  0
 47 42  1  0  0  0  0
 48 49  1  0  0  0  0
 48 46  2  0  0  0  0
 49 44  2  0  0  0  0
M  END
>  <MODEL>
8

>  <REMARK>
 VINA RESULT:      -8.4      2.625      6.045
  Name = 
  9 active torsions:
  status: ('A' for Active; 'I' for Inactive)
    1  A    between atoms: C_2  and  C_29
    2  A    between atoms: C_2  and  C_48
    3  A    between atoms: C_6  and  C_32
    4  A    between atoms: C_9  and  C_48
    5  A    between atoms: C_25  and  C_44
    6  A    between atoms: C_26  and  C_38
    7  A    between atoms: C_26  and  C_45
    8  A    between atoms: C_29  and  C_41
    9  A    between atoms: C_44  and  C_45
                            x       y       z     vdW  Elec       q    Type
                         _______ _______ _______ _____ _____    ______ ____

>  <TORSDO>
F 9

$$$$
=
 OpenBabel10232409173D

 49 56  0  0  0  0  0  0  0  0999 V2000
  189.6610  177.2960  146.5940 S   0  0  0  0  0  0  0  0  0  0  0  0
  187.3300  178.1990  140.8120 N   0  0  0  0  0  0  0  0  0  0  0  0
  191.4900  177.3520  143.1880 C   0  0  0  0  0  1  0  0  0  0  0  0
  181.8010  178.9180  142.3440 C   0  0  0  0  0  0  0  0  0  0  0  0
  180.5240  179.2030  141.6640 C   0  0  0  0  0  3  0  0  0  0  0  0
  186.9120  178.4110  139.4430 C   0  0  0  0  0  0  0  0  0  0  0  0
  188.3830  177.8370  143.0590 C   0  0  0  0  0  0  0  0  0  0  0  0
  190.5430  177.3850  144.3360 C   0  0  0  0  0  0  0  0  0  0  0  0
  185.6100  178.6430  139.1820 C   0  0  0  0  0  3  0  0  0  0  0  0
  188.4930  177.5850  145.4470 C   0  0  0  0  0  0  0  0  0  0  0  0
  183.0010  178.7890  141.7560 C   0  0  0  0  0  0  0  0  0  0  0  0
  181.1650  179.3350  139.2220 C   0  0  0  0  0  3  0  0  0  0  0  0
  185.1040  178.4700  141.6150 C   0  0  0  0  0  0  0  0  0  0  0  0
  184.6800  178.6680  140.3300 C   0  0  0  0  0  0  0  0  0  0  0  0
  187.0040  178.0280  143.1800 C   0  0  0  0  0  0  0  0  0  0  0  0
  182.4750  179.1220  139.2260 C   0  0  0  0  0  3  0  0  0  0  0  0
  186.3310  177.7420  147.1550 Cl  0  0  0  0  0  0  0  0  0  0  0  0
  184.1000  178.5440  142.4520 O   0  0  0  0  0  0  0  0  0  0  0  0
  180.2550  179.3760  140.3720 C   0  0  0  0  0  3  0  0  0  0  0  0
  189.1450  177.6070  144.2160 C   0  0  0  0  0  0  0  0  0  0  0  0
  186.3570  178.0020  144.4270 C   0  0  0  0  0  3  0  0  0  0  0  0
  183.3200  178.8750  140.3950 C   0  0  0  0  0  0  0  0  0  0  0  0
  187.1140  177.7770  145.5870 C   0  0  0  0  0  0  0  0  0  0  0  0
  188.9940  177.9190  141.3570 S   0  0  0  0  0  0  0  0  0  0  0  0
  186.3890  178.2410  141.8870 C   0  0  0  0  0  0  0  0  0  0  0  0
  190.9980  177.1910  145.6040 N   0  0  0  0  0  0  0  0  0  0  0  0
  180.2730  178.5900  144.2610 C   0  0  0  0  0  1  0  0  0  0  0  0
  181.7150  178.7890  143.8320 C   0  0  0  0  0  2  0  0  0  0  0  0
  187.8990  178.3660  138.3210 C   0  0  0  0  0  2  0  0  0  0  0  0
  187.1970  178.4190  136.9710 C   0  0  0  0  0  2  0  0  0  0  0  0
  187.7490  177.3700  136.0160 C   0  0  0  0  0  2  0  0  0  0  0  0
  189.0070  175.3970  137.0660 N   0  0  0  0  0  2  0  0  0  0  0  0
  186.6920  175.4420  136.9110 O   0  0  0  0  0  0  0  0  0  0  0  0
  190.5210  176.9130  136.1250 O   0  0  0  0  0  0  0  0  0  0  0  0
  190.3370  175.8730  136.8120 C   0  0  0  0  0  0  0  0  0  0  0  0
  187.7810  176.0270  136.6720 C   0  0  0  0  0  0  0  0  0  0  0  0
  191.3570  173.9540  137.7210 O   0  0  0  0  0  0  0  0  0  0  0  0
  191.5100  175.1470  137.3400 C   0  0  0  0  0  0  0  0  0  0  0  0
  193.1050  176.6240  138.3220 O   0  0  0  0  0  0  0  0  0  0  0  0
  192.8550  175.7620  137.4370 C   0  0  0  0  0  0  0  0  0  0  0  0
  193.5470  175.5740  134.9930 C   0  0  0  0  0  2  0  0  0  0  0  0
  193.9290  175.4080  136.4520 C   0  0  0  0  0  0  0  0  0  0  0  0
  194.5040  176.5580  135.6480 C   0  0  0  0  0  2  0  0  0  0  0  0
  194.8820  173.1490  135.9040 C   0  0  0  0  0  3  0  0  0  0  0  0
  195.6610  174.2910  137.8930 C   0  0  0  0  0  3  0  0  0  0  0  0
  196.5000  173.2130  138.1840 C   0  0  0  0  0  3  0  0  0  0  0  0
  194.8560  174.2700  136.7450 C   0  0  0  0  0  0  0  0  0  0  0  0
  196.5330  172.1030  137.3340 C   0  0  0  0  0  3  0  0  0  0  0  0
  195.7230  172.0710  136.1960 C   0  0  0  0  0  3  0  0  0  0  0  0
  2 24  1  0  0  0  0
  2 25  1  0  0  0  0
  3  8  1  0  0  0  0
  4 28  1  0  0  0  0
  5  4  1  0  0  0  0
  6  2  1  0  0  0  0
  7 15  2  0  0  0  0
  7 20  1  0  0  0  0
  8 26  2  0  0  0  0
  9  6  2  0  0  0  0
  9 14  1  0  0  0  0
 10 23  1  0  0  0  0
 10  1  1  0  0  0  0
 11  4  2  0  0  0  0
 11 18  1  0  0  0  0
 12 16  2  0  0  0  0
 12 19  1  0  0  0  0
 13 25  2  0  0  0  0
 13 18  1  0  0  0  0
 14 22  2  0  0  0  0
 14 13  1  0  0  0  0
 15 21  1  0  0  0  0
 16 22  1  0  0  0  0
 19  5  2  0  0  0  0
 20  8  1  0  0  0  0
 20 10  2  0  0  0  0
 21 23  2  0  0  0  0
 22 11  1  0  0  0  0
 23 17  1  0  0  0  0
 24  7  1  0  0  0  0
 25 15  1  0  0  0  0
 26  1  1  0  0  0  0
 28 27  1  0  0  0  0
 29  6  1  0  0  0  0
 30 29  1  0  0  0  0
 31 36  1  0  0  0  0
 31 30  1  0  0  0  0
 34 35  2  0  0  0  0
 35 32  1  0  0  0  0
 35 38  1  0  0  0  0
 36 33  2  0  0  0  0
 36 32  1  0  0  0  0
 38 40  1  0  0  0  0
 38 37  2  0  0  0  0
 40 39  2  0  0  0  0
 41 43  1  0  0  0  0
 41 42  1  0  0  0  0
 42 47  1  0  0  0  0
 42 40  1  0  0  0  0
 43 42  1  0  0  0  0
 44 49  2  0  0  0  0
 44 47  1  0  0  0  0
 45 46  1  0  0  0  0
 47 45  2  0  0  0  0
 48 46  2  0  0  0  0
 49 48  1  0  0  0  0
M  END
>  <MODEL>
9

>  <REMARK>
 VINA RESULT:      -8.3      3.374      6.192
  Name = 
  9 active torsions:
  status: ('A' for Active; 'I' for Inactive)
    1  A    between atoms: C_2  and  C_29
    2  A    between atoms: C_2  and  C_48
    3  A    between atoms: C_6  and  C_32
    4  A    between atoms: C_9  and  C_48
    5  A    between atoms: C_25  and  C_44
    6  A    between atoms: C_26  and  C_38
    7  A    between atoms: C_26  and  C_45
    8  A    between atoms: C_29  and  C_41
    9  A    between atoms: C_44  and  C_45
                            x       y       z     vdW  Elec       q    Type
                         _______ _______ _______ _____ _____    ______ ____

>  <TORSDO>
F 9

$$$$
