=
 OpenBabel10232410523D

 49 52  0  0  1  0  0  0  0  0999 V2000
  189.3770  176.8050  137.0190 C   0  0  0  0  0  2  0  0  0  0  0  0
  190.9380  177.4440  140.6090 C   0  0  2  0  0  3  0  0  0  0  0  0
  190.3480  177.6290  139.1690 C   0  0  2  0  0  0  0  0  0  0  0  0
  188.8770  177.2180  139.3850 C   0  0  0  0  0  2  0  0  0  0  0  0
  189.7060  176.4250  138.4550 C   0  0  1  0  0  3  0  0  0  0  0  0
  191.7070  176.9750  139.4360 C   0  0  0  0  0  2  0  0  0  0  0  0
  190.4520  176.2580  141.3210 N   0  0  0  0  0  2  0  0  0  0  0  0
  190.7890  176.3860  142.6870 N   0  0  0  0  0  2  0  0  0  0  0  0
  191.3060  177.7350  142.9080 C   0  0  0  0  0  2  0  0  0  0  0  0
  191.7310  176.8790  145.1930 C   0  0  0  0  0  3  0  0  0  0  0  0
  191.3690  178.0960  144.3940 C   0  0  2  0  0  3  0  0  0  0  0  0
  190.0280  178.4260  144.8730 N   0  0  0  0  0  0  0  0  0  0  0  0
  189.6800  177.5450  145.7540 C   0  0  0  0  0  0  0  0  0  0  0  0
  190.7280  176.5630  146.0040 C   0  0  0  0  0  3  0  0  0  0  0  0
  188.3560  177.6200  146.4500 C   0  0  1  0  0  3  0  0  0  0  0  0
  187.9170  177.1460  148.7510 O   0  0  0  0  0  1  0  0  0  0  0  0
  188.4950  178.0860  147.8990 C   0  0  0  0  0  2  0  0  0  0  0  0
  187.3460  178.4400  145.6470 C   0  0  0  0  0  2  0  0  0  0  0  0
  185.9250  177.9020  145.7460 C   0  0  1  0  0  3  0  0  0  0  0  0
  185.2420  178.5220  146.9500 C   0  0  0  0  0  1  0  0  0  0  0  0
  185.1630  178.2790  144.4870 C   0  0  0  0  0  2  0  0  0  0  0  0
  183.7420  178.7180  144.8110 C   0  0  0  0  0  2  0  0  0  0  0  0
  183.0640  179.3320  143.5990 C   0  0  0  0  0  2  0  0  0  0  0  0
  181.6050  178.8880  143.5080 C   0  0  0  0  0  2  0  0  0  0  0  0
  180.8040  179.9350  142.8930 N   0  0  0  0  0  1  0  0  0  0  0  0
  189.8180  175.6950  136.0660 C   0  0  2  0  0  3  0  0  0  0  0  0
  187.3390  175.3240  135.5900 C   0  0  0  0  0  0  0  0  0  0  0  0
  186.3660  174.5100  135.3160 N   0  0  0  0  0  0  0  0  0  0  0  0
  188.6860  174.8430  135.6980 N   0  0  0  0  0  2  0  0  0  0  0  0
  187.0530  176.7110  135.8220 N   0  0  0  0  0  2  0  0  0  0  0  0
  186.5490  173.0920  135.0370 C   0  0  0  0  0  2  0  0  0  0  0  0
  185.1740  171.0650  135.5050 O   0  0  0  0  0  1  0  0  0  0  0  0
  185.4120  172.7090  137.1620 C   0  0  0  0  0  2  0  0  0  0  0  0
  185.6990  172.2690  135.9440 C   0  0  0  0  0  0  0  0  0  0  0  0
  185.7050  177.2180  136.0260 C   0  0  0  0  0  2  0  0  0  0  0  0
  185.1450  176.6550  137.3190 C   0  0  0  0  0  2  0  0  0  0  0  0
  184.1550  177.5680  137.8640 N   0  0  0  0  0  2  0  0  0  0  0  0
  184.8660  178.7680  138.2950 C   0  0  0  0  0  2  0  0  0  0  0  0
  183.0760  178.4720  140.0070 C   0  0  0  0  0  1  0  0  0  0  0  0
  184.2210  179.3530  139.5500 C   0  0  1  0  0  3  0  0  0  0  0  0
  185.1750  179.4250  140.5700 O   0  0  0  0  0  1  0  0  0  0  0  0
  190.9430  174.9270  136.6330 N   0  0  0  0  0  2  0  0  0  0  0  0
  192.0850  174.7380  135.7330 C   0  0  2  0  0  0  0  0  0  0  0  0
  191.2370  172.3620  135.3100 C   0  0  0  0  0  1  0  0  0  0  0  0
  192.2900  173.4080  135.0040 C   0  0  2  0  0  3  0  0  0  0  0  0
  193.0520  173.7110  136.2870 C   0  0  0  0  0  2  0  0  0  0  0  0
  192.8290  175.9690  135.2370 C   0  0  0  0  0  2  0  0  0  0  0  0
  194.8580  176.8030  135.2500 C   0  0  0  0  0  1  0  0  0  0  0  0
  193.8890  176.2650  136.0880 O   0  0  0  0  0  0  0  0  0  0  0  0
  2  7  1  1  0  0  0
  3  4  1  6  0  0  0
  3  6  1  0  0  0  0
  3  2  1  0  0  0  0
  5  1  1  6  0  0  0
  5  3  1  0  0  0  0
  5  4  1  0  0  0  0
  6  2  1  0  0  0  0
  7  8  1  0  0  0  0
  8  9  1  0  0  0  0
 10 14  2  0  0  0  0
 11  9  1  6  0  0  0
 11 12  1  0  0  0  0
 11 10  1  0  0  0  0
 12 13  2  0  0  0  0
 13 14  1  0  0  0  0
 13 15  1  0  0  0  0
 15 18  1  6  0  0  0
 15 17  1  0  0  0  0
 17 16  1  0  0  0  0
 18 19  1  0  0  0  0
 19 20  1  1  0  0  0
 21 22  1  0  0  0  0
 21 19  1  0  0  0  0
 23 22  1  0  0  0  0
 24 23  1  0  0  0  0
 25 24  1  0  0  0  0
 26 42  1  0  0  0  0
 26  1  1  1  0  0  0
 27 29  1  0  0  0  0
 27 30  1  0  0  0  0
 28 27  2  0  0  0  0
 29 26  1  0  0  0  0
 30 35  1  0  0  0  0
 31 28  1  0  0  0  0
 31 34  1  0  0  0  0
 32 34  1  0  0  0  0
 34 33  2  0  0  0  0
 35 36  1  0  0  0  0
 36 37  1  0  0  0  0
 37 38  1  0  0  0  0
 38 40  1  0  0  0  0
 40 39  1  1  0  0  0
 40 41  1  0  0  0  0
 43 47  1  6  0  0  0
 43 46  1  0  0  0  0
 43 42  1  0  0  0  0
 45 44  1  1  0  0  0
 45 43  1  0  0  0  0
 45 46  1  0  0  0  0
 47 49  1  0  0  0  0
 48 49  1  0  0  0  0
M  END
>  <MODEL>
1

>  <REMARK>
 VINA RESULT:      -6.2      0.000      0.000
  Name = 
  26 active torsions:
  status: ('A' for Active; 'I' for Inactive)
    1  A    between atoms: C_1  and  N_12
    2  A    between atoms: C_3  and  C_4
    3  A    between atoms: C_3  and  N_32
    4  A    between atoms: C_4  and  N_49
    5  A    between atoms: C_7  and  C_17
    6  A    between atoms: C_7  and  C_24
    7  A    between atoms: C_8  and  N_10
    8  A    between atoms: C_8  and  C_23
    9  A    between atoms: N_10  and  C_44
   10  A    between atoms: C_11  and  C_39
   11  A    between atoms: N_12  and  N_15
   12  A    between atoms: C_14  and  C_37
   13  A    between atoms: N_15  and  C_37
   14  A    between atoms: C_17  and  C_39
   15  A    between atoms: C_19  and  C_46
   16  A    between atoms: C_20  and  C_28
   17  A    between atoms: C_20  and  C_44
   18  A    between atoms: C_23  and  O_35
   19  A    between atoms: C_24  and  C_36
   20  A    between atoms: C_29  and  C_31
   21  A    between atoms: C_29  and  C_36
   22  A    between atoms: C_29  and  C_47
   23  A    between atoms: N_32  and  C_46
   24  A    between atoms: N_38  and  C_43
   25  A    between atoms: C_42  and  C_43
   26  A    between atoms: C_44  and  N_48
                            x       y       z     vdW  Elec       q    Type
                         _______ _______ _______ _____ _____    ______ ____

>  <TORSDO>
F 26

$$$$
=
 OpenBabel10232410523D

 49 52  0  0  1  0  0  0  0  0999 V2000
  188.1930  178.6110  140.1530 C   0  0  0  0  0  2  0  0  0  0  0  0
  188.5670  176.8830  136.6040 C   0  0  2  0  0  3  0  0  0  0  0  0
  188.0970  177.7800  137.7990 C   0  0  2  0  0  0  0  0  0  0  0  0
  189.3070  178.7220  137.9700 C   0  0  0  0  0  2  0  0  0  0  0  0
  188.9410  177.8260  139.0870 C   0  0  1  0  0  3  0  0  0  0  0  0
  187.9000  176.2620  137.7680 C   0  0  0  0  0  2  0  0  0  0  0  0
  189.9810  176.4980  136.6470 N   0  0  0  0  0  2  0  0  0  0  0  0
  190.0630  175.0880  136.6250 N   0  0  0  0  0  2  0  0  0  0  0  0
  191.2500  174.6860  137.3770 C   0  0  0  0  0  2  0  0  0  0  0  0
  192.9810  174.5580  135.6090 C   0  0  0  0  0  3  0  0  0  0  0  0
  192.5290  175.3170  136.8220 C   0  0  2  0  0  3  0  0  0  0  0  0
  193.6230  175.1160  137.7700 N   0  0  0  0  0  0  0  0  0  0  0  0
  194.5130  174.3580  137.2140 C   0  0  0  0  0  0  0  0  0  0  0  0
  194.1610  173.9990  135.8460 C   0  0  0  0  0  3  0  0  0  0  0  0
  195.7730  173.9820  137.9300 C   0  0  1  0  0  3  0  0  0  0  0  0
  197.0960  174.6890  139.7900 O   0  0  0  0  0  1  0  0  0  0  0  0
  195.7820  174.4750  139.3760 C   0  0  0  0  0  2  0  0  0  0  0  0
  196.0650  172.4860  137.8010 C   0  0  0  0  0  2  0  0  0  0  0  0
  197.4550  172.1920  137.2510 C   0  0  1  0  0  3  0  0  0  0  0  0
  197.7110  170.6990  137.3220 C   0  0  0  0  0  1  0  0  0  0  0  0
  197.5200  172.6450  135.8030 C   0  0  0  0  0  2  0  0  0  0  0  0
  198.9080  173.1600  135.4470 C   0  0  0  0  0  2  0  0  0  0  0  0
  198.9890  174.6700  135.5880 C   0  0  0  0  0  2  0  0  0  0  0  0
  197.7630  175.3400  134.9700 C   0  0  0  0  0  2  0  0  0  0  0  0
  197.2600  176.3740  135.8610 N   0  0  0  0  0  1  0  0  0  0  0  0
  188.3720  177.9490  141.5180 C   0  0  2  0  0  3  0  0  0  0  0  0
  185.8810  178.4410  141.7720 C   0  0  0  0  0  0  0  0  0  0  0  0
  184.8470  178.5900  142.5420 N   0  0  0  0  0  0  0  0  0  0  0  0
  187.1530  178.0710  142.3210 N   0  0  0  0  0  2  0  0  0  0  0  0
  185.7520  178.6880  140.3650 N   0  0  0  0  0  2  0  0  0  0  0  0
  184.8610  178.3390  143.9770 C   0  0  0  0  0  2  0  0  0  0  0  0
  183.5620  179.0990  145.9650 O   0  0  0  0  0  1  0  0  0  0  0  0
  182.5150  179.0000  143.8680 C   0  0  0  0  0  2  0  0  0  0  0  0
  183.6050  178.8400  144.6050 C   0  0  0  0  0  0  0  0  0  0  0  0
  184.5950  179.3470  139.7780 C   0  0  0  0  0  2  0  0  0  0  0  0
  183.5770  178.3010  139.3630 C   0  0  0  0  0  2  0  0  0  0  0  0
  182.2360  178.7880  139.6340 N   0  0  0  0  0  2  0  0  0  0  0  0
  181.7310  179.3750  138.3970 C   0  0  0  0  0  2  0  0  0  0  0  0
  180.5100  177.3920  137.5010 C   0  0  0  0  0  1  0  0  0  0  0  0
  181.6820  178.3270  137.2860 C   0  0  1  0  0  3  0  0  0  0  0  0
  181.5320  178.9680  136.0520 O   0  0  0  0  0  1  0  0  0  0  0  0
  189.5610  178.4790  142.2120 N   0  0  0  0  0  2  0  0  0  0  0  0
  190.3440  177.4860  142.9540 C   0  0  2  0  0  0  0  0  0  0  0  0
  192.0190  177.5000  141.0220 C   0  0  0  0  0  1  0  0  0  0  0  0
  191.6500  176.9360  142.3790 C   0  0  2  0  0  3  0  0  0  0  0  0
  190.3530  176.1510  142.2370 C   0  0  0  0  0  2  0  0  0  0  0  0
  190.0580  177.3000  144.4370 C   0  0  0  0  0  2  0  0  0  0  0  0
  191.1990  176.8130  146.2460 C   0  0  0  0  0  1  0  0  0  0  0  0
  191.1480  177.7170  145.1930 O   0  0  0  0  0  0  0  0  0  0  0  0
  2  7  1  1  0  0  0
  2  6  1  0  0  0  0
  2  3  1  0  0  0  0
  3  6  1  1  0  0  0
  3  4  1  0  0  0  0
  3  5  1  0  0  0  0
  4  5  1  0  0  0  0
  5  1  1  1  0  0  0
  8  7  1  0  0  0  0
  8  9  1  0  0  0  0
 10 14  2  0  0  0  0
 10 11  1  0  0  0  0
 11  9  1  1  0  0  0
 11 12  1  0  0  0  0
 13 12  2  0  0  0  0
 13 15  1  0  0  0  0
 14 13  1  0  0  0  0
 15 18  1  1  0  0  0
 15 17  1  0  0  0  0
 17 16  1  0  0  0  0
 19 20  1  6  0  0  0
 19 18  1  0  0  0  0
 21 19  1  0  0  0  0
 22 23  1  0  0  0  0
 22 21  1  0  0  0  0
 24 23  1  0  0  0  0
 24 25  1  0  0  0  0
 26  1  1  6  0  0  0
 26 42  1  0  0  0  0
 26 29  1  0  0  0  0
 27 29  1  0  0  0  0
 27 28  2  0  0  0  0
 28 31  1  0  0  0  0
 30 27  1  0  0  0  0
 31 34  1  0  0  0  0
 33 34  2  0  0  0  0
 34 32  1  0  0  0  0
 35 30  1  0  0  0  0
 36 37  1  0  0  0  0
 36 35  1  0  0  0  0
 38 37  1  0  0  0  0
 40 39  1  1  0  0  0
 40 38  1  0  0  0  0
 41 40  1  0  0  0  0
 42 43  1  0  0  0  0
 43 47  1  1  0  0  0
 45 44  1  6  0  0  0
 45 43  1  0  0  0  0
 46 45  1  0  0  0  0
 46 43  1  0  0  0  0
 47 49  1  0  0  0  0
 49 48  1  0  0  0  0
M  END
>  <MODEL>
2

>  <REMARK>
 VINA RESULT:      -5.7      3.143      9.991
  Name = 
  26 active torsions:
  status: ('A' for Active; 'I' for Inactive)
    1  A    between atoms: C_1  and  N_12
    2  A    between atoms: C_3  and  C_4
    3  A    between atoms: C_3  and  N_32
    4  A    between atoms: C_4  and  N_49
    5  A    between atoms: C_7  and  C_17
    6  A    between atoms: C_7  and  C_24
    7  A    between atoms: C_8  and  N_10
    8  A    between atoms: C_8  and  C_23
    9  A    between atoms: N_10  and  C_44
   10  A    between atoms: C_11  and  C_39
   11  A    between atoms: N_12  and  N_15
   12  A    between atoms: C_14  and  C_37
   13  A    between atoms: N_15  and  C_37
   14  A    between atoms: C_17  and  C_39
   15  A    between atoms: C_19  and  C_46
   16  A    between atoms: C_20  and  C_28
   17  A    between atoms: C_20  and  C_44
   18  A    between atoms: C_23  and  O_35
   19  A    between atoms: C_24  and  C_36
   20  A    between atoms: C_29  and  C_31
   21  A    between atoms: C_29  and  C_36
   22  A    between atoms: C_29  and  C_47
   23  A    between atoms: N_32  and  C_46
   24  A    between atoms: N_38  and  C_43
   25  A    between atoms: C_42  and  C_43
   26  A    between atoms: C_44  and  N_48
                            x       y       z     vdW  Elec       q    Type
                         _______ _______ _______ _____ _____    ______ ____

>  <TORSDO>
F 26

$$$$
=
 OpenBabel10232410523D

 49 52  0  0  1  0  0  0  0  0999 V2000
  188.1690  178.5980  140.2120 C   0  0  0  0  0  2  0  0  0  0  0  0
  188.7760  176.8760  136.6920 C   0  0  2  0  0  3  0  0  0  0  0  0
  188.2120  177.7530  137.8610 C   0  0  2  0  0  0  0  0  0  0  0  0
  189.3630  178.7570  138.0750 C   0  0  0  0  0  2  0  0  0  0  0  0
  188.9990  177.8480  139.1820 C   0  0  1  0  0  3  0  0  0  0  0  0
  188.0960  176.2260  137.8320 C   0  0  0  0  0  2  0  0  0  0  0  0
  190.2050  176.5660  136.7940 N   0  0  0  0  0  2  0  0  0  0  0  0
  190.3890  175.1960  136.5030 N   0  0  0  0  0  2  0  0  0  0  0  0
  191.7110  175.0280  135.9030 C   0  0  0  0  0  2  0  0  0  0  0  0
  193.8670  176.2420  135.7700 C   0  0  0  0  0  3  0  0  0  0  0  0
  192.8060  175.7380  136.7040 C   0  0  2  0  0  3  0  0  0  0  0  0
  193.5180  174.7630  137.5270 N   0  0  0  0  0  0  0  0  0  0  0  0
  194.7440  174.6990  137.1180 C   0  0  0  0  0  0  0  0  0  0  0  0
  195.0160  175.6270  136.0270 C   0  0  0  0  0  3  0  0  0  0  0  0
  195.7400  173.7960  137.7780 C   0  0  1  0  0  3  0  0  0  0  0  0
  195.6720  175.4220  139.5280 O   0  0  0  0  0  1  0  0  0  0  0  0
  195.8500  174.0610  139.2790 C   0  0  0  0  0  2  0  0  0  0  0  0
  195.4740  172.3280  137.4430 C   0  0  0  0  0  2  0  0  0  0  0  0
  196.4550  171.7580  136.4270 C   0  0  1  0  0  3  0  0  0  0  0  0
  197.5710  171.0420  137.1650 C   0  0  0  0  0  1  0  0  0  0  0  0
  195.7260  170.7690  135.5350 C   0  0  0  0  0  2  0  0  0  0  0  0
  196.4240  169.4160  135.5250 C   0  0  0  0  0  2  0  0  0  0  0  0
  195.4410  168.2870  135.7830 C   0  0  0  0  0  2  0  0  0  0  0  0
  195.1220  168.1750  137.2730 C   0  0  0  0  0  2  0  0  0  0  0  0
  193.7320  168.5350  137.5120 N   0  0  0  0  0  1  0  0  0  0  0  0
  188.2660  177.9060  141.5710 C   0  0  2  0  0  3  0  0  0  0  0  0
  185.7740  178.4370  141.7070 C   0  0  0  0  0  0  0  0  0  0  0  0
  184.7040  178.5900  142.4250 N   0  0  0  0  0  0  0  0  0  0  0  0
  187.0100  178.0360  142.3130 N   0  0  0  0  0  2  0  0  0  0  0  0
  185.7210  178.7090  140.2990 N   0  0  0  0  0  2  0  0  0  0  0  0
  184.6410  178.3150  143.8540 C   0  0  0  0  0  2  0  0  0  0  0  0
  183.3390  179.2540  145.7640 O   0  0  0  0  0  1  0  0  0  0  0  0
  182.2890  178.9450  143.6890 C   0  0  0  0  0  2  0  0  0  0  0  0
  183.3820  178.8650  144.4350 C   0  0  0  0  0  0  0  0  0  0  0  0
  184.6060  179.3980  139.6660 C   0  0  0  0  0  2  0  0  0  0  0  0
  183.7240  178.3850  138.9600 C   0  0  0  0  0  2  0  0  0  0  0  0
  184.5520  177.4490  138.2190 N   0  0  0  0  0  2  0  0  0  0  0  0
  183.9710  177.3220  136.8850 C   0  0  0  0  0  2  0  0  0  0  0  0
  184.0980  175.5870  135.0970 C   0  0  0  0  0  1  0  0  0  0  0  0
  184.9010  176.5320  135.9670 C   0  0  1  0  0  3  0  0  0  0  0  0
  185.6040  177.4200  135.1450 O   0  0  0  0  0  1  0  0  0  0  0  0
  189.4270  178.4000  142.3350 N   0  0  0  0  0  2  0  0  0  0  0  0
  190.1860  177.3700  143.0510 C   0  0  2  0  0  0  0  0  0  0  0  0
  191.9770  177.5630  141.2360 C   0  0  0  0  0  1  0  0  0  0  0  0
  191.5390  176.8910  142.5210 C   0  0  2  0  0  3  0  0  0  0  0  0
  190.2740  176.0940  142.2390 C   0  0  0  0  0  2  0  0  0  0  0  0
  189.8130  177.0670  144.4950 C   0  0  0  0  0  2  0  0  0  0  0  0
  188.8090  177.7220  146.3320 C   0  0  0  0  0  1  0  0  0  0  0  0
  188.9870  178.0670  144.9980 O   0  0  0  0  0  0  0  0  0  0  0  0
  2  7  1  1  0  0  0
  2  6  1  0  0  0  0
  2  3  1  0  0  0  0
  3  6  1  6  0  0  0
  3  4  1  0  0  0  0
  3  5  1  0  0  0  0
  4  5  1  0  0  0  0
  5  1  1  1  0  0  0
  8  7  1  0  0  0  0
  9  8  1  0  0  0  0
 10 14  2  0  0  0  0
 10 11  1  0  0  0  0
 11  9  1  6  0  0  0
 11 12  1  0  0  0  0
 13 12  2  0  0  0  0
 13 15  1  0  0  0  0
 14 13  1  0  0  0  0
 15 18  1  1  0  0  0
 15 17  1  0  0  0  0
 17 16  1  0  0  0  0
 19 20  1  1  0  0  0
 19 18  1  0  0  0  0
 21 19  1  0  0  0  0
 22 21  1  0  0  0  0
 22 23  1  0  0  0  0
 23 24  1  0  0  0  0
 24 25  1  0  0  0  0
 26  1  1  6  0  0  0
 26 29  1  0  0  0  0
 26 42  1  0  0  0  0
 27 29  1  0  0  0  0
 27 28  2  0  0  0  0
 28 31  1  0  0  0  0
 30 27  1  0  0  0  0
 31 34  1  0  0  0  0
 33 34  2  0  0  0  0
 34 32  1  0  0  0  0
 35 30  1  0  0  0  0
 36 35  1  0  0  0  0
 37 36  1  0  0  0  0
 38 37  1  0  0  0  0
 40 39  1  6  0  0  0
 40 38  1  0  0  0  0
 41 40  1  0  0  0  0
 42 43  1  0  0  0  0
 43 47  1  1  0  0  0
 45 44  1  6  0  0  0
 45 43  1  0  0  0  0
 46 45  1  0  0  0  0
 46 43  1  0  0  0  0
 47 49  1  0  0  0  0
 49 48  1  0  0  0  0
M  END
>  <MODEL>
3

>  <REMARK>
 VINA RESULT:      -5.4      3.068      9.988
  Name = 
  26 active torsions:
  status: ('A' for Active; 'I' for Inactive)
    1  A    between atoms: C_1  and  N_12
    2  A    between atoms: C_3  and  C_4
    3  A    between atoms: C_3  and  N_32
    4  A    between atoms: C_4  and  N_49
    5  A    between atoms: C_7  and  C_17
    6  A    between atoms: C_7  and  C_24
    7  A    between atoms: C_8  and  N_10
    8  A    between atoms: C_8  and  C_23
    9  A    between atoms: N_10  and  C_44
   10  A    between atoms: C_11  and  C_39
   11  A    between atoms: N_12  and  N_15
   12  A    between atoms: C_14  and  C_37
   13  A    between atoms: N_15  and  C_37
   14  A    between atoms: C_17  and  C_39
   15  A    between atoms: C_19  and  C_46
   16  A    between atoms: C_20  and  C_28
   17  A    between atoms: C_20  and  C_44
   18  A    between atoms: C_23  and  O_35
   19  A    between atoms: C_24  and  C_36
   20  A    between atoms: C_29  and  C_31
   21  A    between atoms: C_29  and  C_36
   22  A    between atoms: C_29  and  C_47
   23  A    between atoms: N_32  and  C_46
   24  A    between atoms: N_38  and  C_43
   25  A    between atoms: C_42  and  C_43
   26  A    between atoms: C_44  and  N_48
                            x       y       z     vdW  Elec       q    Type
                         _______ _______ _______ _____ _____    ______ ____

>  <TORSDO>
F 26

$$$$
=
 OpenBabel10232410523D

 49 52  0  0  1  0  0  0  0  0999 V2000
  190.2770  176.6370  137.2520 C   0  0  0  0  0  2  0  0  0  0  0  0
  191.1390  177.4620  141.0330 C   0  0  2  0  0  3  0  0  0  0  0  0
  190.6580  177.5520  139.5450 C   0  0  2  0  0  0  0  0  0  0  0  0
  189.4420  176.6040  139.5580 C   0  0  0  0  0  2  0  0  0  0  0  0
  190.5930  176.2700  138.6940 C   0  0  1  0  0  3  0  0  0  0  0  0
  192.1330  177.4300  139.9390 C   0  0  0  0  0  2  0  0  0  0  0  0
  191.0790  176.1190  141.6160 N   0  0  0  0  0  2  0  0  0  0  0  0
  191.2740  176.2250  143.0110 N   0  0  0  0  0  2  0  0  0  0  0  0
  191.2580  177.6410  143.3700 C   0  0  0  0  0  2  0  0  0  0  0  0
  191.6340  176.5410  145.5570 C   0  0  0  0  0  3  0  0  0  0  0  0
  191.4130  177.8600  144.8760 C   0  0  2  0  0  3  0  0  0  0  0  0
  190.1440  178.3190  145.4360 N   0  0  0  0  0  0  0  0  0  0  0  0
  189.7080  177.4170  146.2560 C   0  0  0  0  0  0  0  0  0  0  0  0
  190.6230  176.2890  146.3800 C   0  0  0  0  0  3  0  0  0  0  0  0
  188.4270  177.6030  147.0100 C   0  0  1  0  0  3  0  0  0  0  0  0
  187.6890  177.5660  149.2820 O   0  0  0  0  0  1  0  0  0  0  0  0
  188.6680  178.0900  148.4380 C   0  0  0  0  0  2  0  0  0  0  0  0
  187.4410  178.4760  146.2330 C   0  0  0  0  0  2  0  0  0  0  0  0
  186.1860  177.7270  145.8060 C   0  0  1  0  0  3  0  0  0  0  0  0
  184.9670  178.5560  146.1660 C   0  0  0  0  0  1  0  0  0  0  0  0
  186.2230  177.5130  144.3030 C   0  0  0  0  0  2  0  0  0  0  0  0
  185.0340  178.1760  143.6210 C   0  0  0  0  0  2  0  0  0  0  0  0
  185.4880  179.1760  142.5720 C   0  0  0  0  0  2  0  0  0  0  0  0
  186.8720  178.8110  142.0360 C   0  0  0  0  0  2  0  0  0  0  0  0
  186.8530  178.7900  140.5820 N   0  0  0  0  0  1  0  0  0  0  0  0
  190.7440  175.5260  136.3110 C   0  0  2  0  0  3  0  0  0  0  0  0
  188.4810  175.1670  135.1890 C   0  0  0  0  0  0  0  0  0  0  0  0
  187.4890  174.3790  134.9080 N   0  0  0  0  0  0  0  0  0  0  0  0
  189.6210  174.6770  135.9090 N   0  0  0  0  0  2  0  0  0  0  0  0
  188.4150  176.5470  134.8050 N   0  0  0  0  0  2  0  0  0  0  0  0
  187.4650  172.9580  135.2270 C   0  0  0  0  0  2  0  0  0  0  0  0
  185.4440  172.9750  136.6870 O   0  0  0  0  0  1  0  0  0  0  0  0
  187.5140  172.3310  137.5850 C   0  0  0  0  0  2  0  0  0  0  0  0
  186.8000  172.7310  136.5420 C   0  0  0  0  0  0  0  0  0  0  0  0
  187.1890  177.1850  134.3470 C   0  0  0  0  0  2  0  0  0  0  0  0
  186.0030  176.5680  135.0660 C   0  0  0  0  0  2  0  0  0  0  0  0
  185.3860  177.5590  135.9310 N   0  0  0  0  0  2  0  0  0  0  0  0
  184.1310  176.9890  136.4120 C   0  0  0  0  0  2  0  0  0  0  0  0
  182.2440  178.2740  137.4200 C   0  0  0  0  0  1  0  0  0  0  0  0
  183.6420  177.7370  137.6510 C   0  0  1  0  0  3  0  0  0  0  0  0
  183.6170  176.8600  138.7410 O   0  0  0  0  0  1  0  0  0  0  0  0
  191.8490  174.7550  136.9120 N   0  0  0  0  0  2  0  0  0  0  0  0
  193.1080  174.7820  136.1610 C   0  0  2  0  0  0  0  0  0  0  0  0
  194.3330  174.9090  138.4020 C   0  0  0  0  0  1  0  0  0  0  0  0
  194.4490  174.8590  136.8920 C   0  0  2  0  0  3  0  0  0  0  0  0
  193.8090  176.1160  136.3190 C   0  0  0  0  0  2  0  0  0  0  0  0
  193.0900  174.3500  134.7010 C   0  0  0  0  0  2  0  0  0  0  0  0
  193.0980  172.1690  134.9310 C   0  0  0  0  0  1  0  0  0  0  0  0
  192.2870  173.2260  134.5410 O   0  0  0  0  0  0  0  0  0  0  0  0
  2  7  1  6  0  0  0
  3  4  1  6  0  0  0
  3  6  1  0  0  0  0
  3  2  1  0  0  0  0
  5  1  1  6  0  0  0
  5  3  1  0  0  0  0
  5  4  1  0  0  0  0
  6  2  1  0  0  0  0
  7  8  1  0  0  0  0
  8  9  1  0  0  0  0
 10 14  2  0  0  0  0
 11  9  1  6  0  0  0
 11 12  1  0  0  0  0
 11 10  1  0  0  0  0
 12 13  2  0  0  0  0
 13 14  1  0  0  0  0
 13 15  1  0  0  0  0
 15 18  1  6  0  0  0
 15 17  1  0  0  0  0
 17 16  1  0  0  0  0
 19 20  1  6  0  0  0
 19 18  1  0  0  0  0
 21 19  1  0  0  0  0
 22 21  1  0  0  0  0
 23 22  1  0  0  0  0
 24 23  1  0  0  0  0
 25 24  1  0  0  0  0
 26 42  1  0  0  0  0
 26  1  1  1  0  0  0
 27 29  1  0  0  0  0
 28 27  2  0  0  0  0
 28 31  1  0  0  0  0
 29 26  1  0  0  0  0
 30 27  1  0  0  0  0
 31 34  1  0  0  0  0
 34 32  1  0  0  0  0
 34 33  2  0  0  0  0
 35 30  1  0  0  0  0
 35 36  1  0  0  0  0
 36 37  1  0  0  0  0
 37 38  1  0  0  0  0
 38 40  1  0  0  0  0
 40 39  1  6  0  0  0
 40 41  1  0  0  0  0
 43 47  1  6  0  0  0
 43 46  1  0  0  0  0
 43 45  1  0  0  0  0
 43 42  1  0  0  0  0
 45 44  1  1  0  0  0
 46 45  1  0  0  0  0
 49 47  1  0  0  0  0
 49 48  1  0  0  0  0
M  END
>  <MODEL>
4

>  <REMARK>
 VINA RESULT:      -5.4      1.782      2.258
  Name = 
  26 active torsions:
  status: ('A' for Active; 'I' for Inactive)
    1  A    between atoms: C_1  and  N_12
    2  A    between atoms: C_3  and  C_4
    3  A    between atoms: C_3  and  N_32
    4  A    between atoms: C_4  and  N_49
    5  A    between atoms: C_7  and  C_17
    6  A    between atoms: C_7  and  C_24
    7  A    between atoms: C_8  and  N_10
    8  A    between atoms: C_8  and  C_23
    9  A    between atoms: N_10  and  C_44
   10  A    between atoms: C_11  and  C_39
   11  A    between atoms: N_12  and  N_15
   12  A    between atoms: C_14  and  C_37
   13  A    between atoms: N_15  and  C_37
   14  A    between atoms: C_17  and  C_39
   15  A    between atoms: C_19  and  C_46
   16  A    between atoms: C_20  and  C_28
   17  A    between atoms: C_20  and  C_44
   18  A    between atoms: C_23  and  O_35
   19  A    between atoms: C_24  and  C_36
   20  A    between atoms: C_29  and  C_31
   21  A    between atoms: C_29  and  C_36
   22  A    between atoms: C_29  and  C_47
   23  A    between atoms: N_32  and  C_46
   24  A    between atoms: N_38  and  C_43
   25  A    between atoms: C_42  and  C_43
   26  A    between atoms: C_44  and  N_48
                            x       y       z     vdW  Elec       q    Type
                         _______ _______ _______ _____ _____    ______ ____

>  <TORSDO>
F 26

$$$$
=
 OpenBabel10232410523D

 49 52  0  0  1  0  0  0  0  0999 V2000
  187.6410  178.5650  140.1850 C   0  0  0  0  0  2  0  0  0  0  0  0
  188.3830  176.9550  136.6380 C   0  0  2  0  0  3  0  0  0  0  0  0
  187.8210  177.8440  137.8000 C   0  0  2  0  0  0  0  0  0  0  0  0
  189.0700  178.6590  138.1930 C   0  0  0  0  0  2  0  0  0  0  0  0
  188.4660  177.7570  139.1960 C   0  0  1  0  0  3  0  0  0  0  0  0
  187.5000  176.3530  137.6590 C   0  0  0  0  0  2  0  0  0  0  0  0
  189.7360  176.4370  136.8620 N   0  0  0  0  0  2  0  0  0  0  0  0
  190.4310  176.4500  135.6330 N   0  0  0  0  0  2  0  0  0  0  0  0
  189.9120  175.3660  134.8010 C   0  0  0  0  0  2  0  0  0  0  0  0
  190.9080  173.2240  135.5480 C   0  0  0  0  0  3  0  0  0  0  0  0
  190.9730  174.3030  134.5070 C   0  0  2  0  0  3  0  0  0  0  0  0
  192.3040  174.8750  134.6980 N   0  0  0  0  0  0  0  0  0  0  0  0
  192.8760  174.2610  135.6830 C   0  0  0  0  0  0  0  0  0  0  0  0
  192.0430  173.1990  136.2360 C   0  0  0  0  0  3  0  0  0  0  0  0
  194.2670  174.6080  136.1170 C   0  0  1  0  0  3  0  0  0  0  0  0
  194.5470  176.9580  136.4470 O   0  0  0  0  0  1  0  0  0  0  0  0
  194.7400  175.9330  135.5210 C   0  0  0  0  0  2  0  0  0  0  0  0
  194.4110  174.5450  137.6380 C   0  0  0  0  0  2  0  0  0  0  0  0
  195.7250  173.9190  138.0880 C   0  0  1  0  0  3  0  0  0  0  0  0
  196.0840  174.4540  139.4620 C   0  0  0  0  0  1  0  0  0  0  0  0
  195.5560  172.4120  138.1640 C   0  0  0  0  0  2  0  0  0  0  0  0
  196.7260  171.6910  137.5080 C   0  0  0  0  0  2  0  0  0  0  0  0
  196.4620  171.4380  136.0340 C   0  0  0  0  0  2  0  0  0  0  0  0
  196.9920  170.0680  135.6140 C   0  0  0  0  0  2  0  0  0  0  0  0
  198.4320  170.0100  135.8120 N   0  0  0  0  0  1  0  0  0  0  0  0
  187.8360  178.0240  141.6010 C   0  0  2  0  0  3  0  0  0  0  0  0
  185.4250  178.6460  142.1580 C   0  0  0  0  0  0  0  0  0  0  0  0
  184.5720  179.1760  142.9800 N   0  0  0  0  0  0  0  0  0  0  0  0
  186.8130  178.5510  142.5060 N   0  0  0  0  0  2  0  0  0  0  0  0
  184.9750  178.1890  140.8750 N   0  0  0  0  0  2  0  0  0  0  0  0
  184.9160  179.6460  144.3150 C   0  0  0  0  0  2  0  0  0  0  0  0
  182.7690  178.7410  145.2050 O   0  0  0  0  0  1  0  0  0  0  0  0
  184.7510  178.4240  146.4200 C   0  0  0  0  0  2  0  0  0  0  0  0
  184.1380  178.9010  145.3460 C   0  0  0  0  0  0  0  0  0  0  0  0
  183.6650  178.5170  140.3310 C   0  0  0  0  0  2  0  0  0  0  0  0
  183.8330  179.1430  138.9580 C   0  0  0  0  0  2  0  0  0  0  0  0
  182.8110  178.6340  138.0600 N   0  0  0  0  0  2  0  0  0  0  0  0
  182.5850  177.2350  138.4120 C   0  0  0  0  0  2  0  0  0  0  0  0
  183.8780  176.0960  136.6070 C   0  0  0  0  0  1  0  0  0  0  0  0
  182.4930  176.3730  137.1540 C   0  0  1  0  0  3  0  0  0  0  0  0
  181.8780  175.1570  137.4710 O   0  0  0  0  0  1  0  0  0  0  0  0
  189.2050  178.2840  142.0830 N   0  0  0  0  0  2  0  0  0  0  0  0
  189.7370  177.2870  143.0170 C   0  0  2  0  0  0  0  0  0  0  0  0
  191.9810  177.4870  141.8070 C   0  0  0  0  0  1  0  0  0  0  0  0
  191.1940  176.8300  142.9230 C   0  0  2  0  0  3  0  0  0  0  0  0
  190.0830  175.9970  142.3010 C   0  0  0  0  0  2  0  0  0  0  0  0
  188.9590  177.0040  144.2940 C   0  0  0  0  0  2  0  0  0  0  0  0
  188.4870  177.6330  146.3420 C   0  0  0  0  0  1  0  0  0  0  0  0
  189.0190  178.1010  145.1470 O   0  0  0  0  0  0  0  0  0  0  0  0
  2  7  1  1  0  0  0
  2  6  1  0  0  0  0
  2  3  1  0  0  0  0
  3  6  1  6  0  0  0
  3  4  1  0  0  0  0
  3  5  1  0  0  0  0
  4  5  1  0  0  0  0
  5  1  1  1  0  0  0
  8  7  1  0  0  0  0
  9  8  1  0  0  0  0
 10 14  2  0  0  0  0
 11 12  1  0  0  0  0
 11  9  1  1  0  0  0
 11 10  1  0  0  0  0
 12 13  2  0  0  0  0
 13 15  1  0  0  0  0
 13 14  1  0  0  0  0
 15 17  1  1  0  0  0
 15 18  1  0  0  0  0
 17 16  1  0  0  0  0
 18 19  1  0  0  0  0
 19 21  1  0  0  0  0
 19 20  1  1  0  0  0
 22 21  1  0  0  0  0
 23 22  1  0  0  0  0
 24 25  1  0  0  0  0
 24 23  1  0  0  0  0
 26  1  1  6  0  0  0
 26 42  1  0  0  0  0
 26 29  1  0  0  0  0
 27 29  1  0  0  0  0
 27 28  2  0  0  0  0
 28 31  1  0  0  0  0
 30 27  1  0  0  0  0
 31 34  1  0  0  0  0
 32 34  1  0  0  0  0
 34 33  2  0  0  0  0
 35 30  1  0  0  0  0
 36 35  1  0  0  0  0
 37 38  1  0  0  0  0
 37 36  1  0  0  0  0
 40 39  1  1  0  0  0
 40 41  1  0  0  0  0
 40 38  1  0  0  0  0
 42 43  1  0  0  0  0
 43 47  1  1  0  0  0
 45 44  1  6  0  0  0
 45 43  1  0  0  0  0
 46 45  1  0  0  0  0
 46 43  1  0  0  0  0
 47 49  1  0  0  0  0
 49 48  1  0  0  0  0
M  END
>  <MODEL>
5

>  <REMARK>
 VINA RESULT:      -5.3      2.863     10.131
  Name = 
  26 active torsions:
  status: ('A' for Active; 'I' for Inactive)
    1  A    between atoms: C_1  and  N_12
    2  A    between atoms: C_3  and  C_4
    3  A    between atoms: C_3  and  N_32
    4  A    between atoms: C_4  and  N_49
    5  A    between atoms: C_7  and  C_17
    6  A    between atoms: C_7  and  C_24
    7  A    between atoms: C_8  and  N_10
    8  A    between atoms: C_8  and  C_23
    9  A    between atoms: N_10  and  C_44
   10  A    between atoms: C_11  and  C_39
   11  A    between atoms: N_12  and  N_15
   12  A    between atoms: C_14  and  C_37
   13  A    between atoms: N_15  and  C_37
   14  A    between atoms: C_17  and  C_39
   15  A    between atoms: C_19  and  C_46
   16  A    between atoms: C_20  and  C_28
   17  A    between atoms: C_20  and  C_44
   18  A    between atoms: C_23  and  O_35
   19  A    between atoms: C_24  and  C_36
   20  A    between atoms: C_29  and  C_31
   21  A    between atoms: C_29  and  C_36
   22  A    between atoms: C_29  and  C_47
   23  A    between atoms: N_32  and  C_46
   24  A    between atoms: N_38  and  C_43
   25  A    between atoms: C_42  and  C_43
   26  A    between atoms: C_44  and  N_48
                            x       y       z     vdW  Elec       q    Type
                         _______ _______ _______ _____ _____    ______ ____

>  <TORSDO>
F 26

$$$$
=
 OpenBabel10232410523D

 49 52  0  0  1  0  0  0  0  0999 V2000
  188.2130  178.5860  140.6630 C   0  0  0  0  0  2  0  0  0  0  0  0
  188.8400  176.7530  137.2020 C   0  0  2  0  0  3  0  0  0  0  0  0
  188.5370  177.8240  138.3050 C   0  0  2  0  0  0  0  0  0  0  0  0
  189.9050  177.9340  139.0100 C   0  0  0  0  0  2  0  0  0  0  0  0
  188.7410  177.4600  139.7880 C   0  0  1  0  0  3  0  0  0  0  0  0
  187.5790  176.6770  137.9700 C   0  0  0  0  0  2  0  0  0  0  0  0
  189.6930  175.6460  137.6430 N   0  0  0  0  0  2  0  0  0  0  0  0
  189.6830  174.6470  136.6440 N   0  0  0  0  0  2  0  0  0  0  0  0
  191.0140  174.5870  136.0420 C   0  0  0  0  0  2  0  0  0  0  0  0
  193.0390  176.0120  136.0950 C   0  0  0  0  0  3  0  0  0  0  0  0
  192.0840  175.2180  136.9360 C   0  0  2  0  0  3  0  0  0  0  0  0
  192.9270  174.1680  137.5030 N   0  0  0  0  0  0  0  0  0  0  0  0
  194.1290  174.3160  137.0450 C   0  0  0  0  0  0  0  0  0  0  0  0
  194.2520  175.4770  136.1700 C   0  0  0  0  0  3  0  0  0  0  0  0
  195.2390  173.4000  137.4570 C   0  0  1  0  0  3  0  0  0  0  0  0
  195.5850  175.0350  139.1650 O   0  0  0  0  0  1  0  0  0  0  0  0
  195.7110  173.6750  138.8840 C   0  0  0  0  0  2  0  0  0  0  0  0
  194.8750  171.9350  137.2140 C   0  0  0  0  0  2  0  0  0  0  0  0
  195.7660  171.2610  136.1790 C   0  0  1  0  0  3  0  0  0  0  0  0
  196.6850  172.3000  135.5630 C   0  0  0  0  0  1  0  0  0  0  0  0
  196.6020  170.1930  136.8630 C   0  0  0  0  0  2  0  0  0  0  0  0
  197.9810  170.7230  137.2320 C   0  0  0  0  0  2  0  0  0  0  0  0
  198.8690  169.6170  137.7740 C   0  0  0  0  0  2  0  0  0  0  0  0
  199.1960  168.5980  136.6840 C   0  0  0  0  0  2  0  0  0  0  0  0
  200.2320  169.1240  135.8070 N   0  0  0  0  0  1  0  0  0  0  0  0
  187.9880  178.0850  142.0890 C   0  0  2  0  0  3  0  0  0  0  0  0
  185.5550  178.8380  141.9310 C   0  0  0  0  0  0  0  0  0  0  0  0
  184.5310  179.4200  142.4760 N   0  0  0  0  0  0  0  0  0  0  0  0
  186.7780  178.6750  142.6640 N   0  0  0  0  0  2  0  0  0  0  0  0
  185.4700  178.3900  140.5720 N   0  0  0  0  0  2  0  0  0  0  0  0
  184.5020  179.8860  143.8560 C   0  0  0  0  0  2  0  0  0  0  0  0
  183.7310  178.8140  145.9710 O   0  0  0  0  0  1  0  0  0  0  0  0
  182.3770  178.7040  144.0580 C   0  0  0  0  0  2  0  0  0  0  0  0
  183.4910  179.1230  144.6420 C   0  0  0  0  0  0  0  0  0  0  0  0
  184.3910  178.7790  139.6750 C   0  0  0  0  0  2  0  0  0  0  0  0
  183.5310  177.5670  139.3680 C   0  0  0  0  0  2  0  0  0  0  0  0
  182.2300  177.7170  139.9960 N   0  0  0  0  0  2  0  0  0  0  0  0
  181.9060  179.1410  139.9820 C   0  0  0  0  0  2  0  0  0  0  0  0
  181.2320  180.2990  137.8770 C   0  0  0  0  0  1  0  0  0  0  0  0
  180.7560  179.4200  139.0150 C   0  0  1  0  0  3  0  0  0  0  0  0
  180.2880  178.2100  138.4910 O   0  0  0  0  0  1  0  0  0  0  0  0
  189.1820  178.3170  142.9250 N   0  0  0  0  0  2  0  0  0  0  0  0
  189.6400  177.1540  143.6910 C   0  0  2  0  0  0  0  0  0  0  0  0
  188.0260  177.8590  145.5450 C   0  0  0  0  0  1  0  0  0  0  0  0
  189.0640  176.8600  145.0770 C   0  0  2  0  0  3  0  0  0  0  0  0
  190.3960  177.5830  144.9330 C   0  0  0  0  0  2  0  0  0  0  0  0
  190.3890  176.0510  142.9570 C   0  0  0  0  0  2  0  0  0  0  0  0
  192.0140  177.0360  141.8630 C   0  0  0  0  0  1  0  0  0  0  0  0
  191.7590  176.2870  143.0030 O   0  0  0  0  0  0  0  0  0  0  0  0
  2  7  1  1  0  0  0
  2  6  1  0  0  0  0
  2  3  1  0  0  0  0
  3  6  1  6  0  0  0
  3  4  1  0  0  0  0
  3  5  1  0  0  0  0
  4  5  1  0  0  0  0
  5  1  1  1  0  0  0
  8  7  1  0  0  0  0
  9  8  1  0  0  0  0
 10 14  2  0  0  0  0
 10 11  1  0  0  0  0
 11  9  1  6  0  0  0
 11 12  1  0  0  0  0
 13 15  1  0  0  0  0
 13 12  2  0  0  0  0
 14 13  1  0  0  0  0
 15 18  1  1  0  0  0
 15 17  1  0  0  0  0
 17 16  1  0  0  0  0
 19 20  1  1  0  0  0
 19 21  1  0  0  0  0
 19 18  1  0  0  0  0
 21 22  1  0  0  0  0
 22 23  1  0  0  0  0
 24 23  1  0  0  0  0
 25 24  1  0  0  0  0
 26  1  1  6  0  0  0
 26 29  1  0  0  0  0
 26 42  1  0  0  0  0
 27 28  2  0  0  0  0
 27 29  1  0  0  0  0
 28 31  1  0  0  0  0
 30 27  1  0  0  0  0
 31 34  1  0  0  0  0
 33 34  2  0  0  0  0
 34 32  1  0  0  0  0
 35 30  1  0  0  0  0
 36 35  1  0  0  0  0
 36 37  1  0  0  0  0
 38 37  1  0  0  0  0
 40 39  1  6  0  0  0
 40 38  1  0  0  0  0
 41 40  1  0  0  0  0
 42 43  1  0  0  0  0
 43 47  1  6  0  0  0
 43 46  1  0  0  0  0
 43 45  1  0  0  0  0
 45 44  1  6  0  0  0
 46 45  1  0  0  0  0
 47 49  1  0  0  0  0
 48 49  1  0  0  0  0
M  END
>  <MODEL>
6

>  <REMARK>
 VINA RESULT:      -5.3      3.527     10.399
  Name = 
  26 active torsions:
  status: ('A' for Active; 'I' for Inactive)
    1  A    between atoms: C_1  and  N_12
    2  A    between atoms: C_3  and  C_4
    3  A    between atoms: C_3  and  N_32
    4  A    between atoms: C_4  and  N_49
    5  A    between atoms: C_7  and  C_17
    6  A    between atoms: C_7  and  C_24
    7  A    between atoms: C_8  and  N_10
    8  A    between atoms: C_8  and  C_23
    9  A    between atoms: N_10  and  C_44
   10  A    between atoms: C_11  and  C_39
   11  A    between atoms: N_12  and  N_15
   12  A    between atoms: C_14  and  C_37
   13  A    between atoms: N_15  and  C_37
   14  A    between atoms: C_17  and  C_39
   15  A    between atoms: C_19  and  C_46
   16  A    between atoms: C_20  and  C_28
   17  A    between atoms: C_20  and  C_44
   18  A    between atoms: C_23  and  O_35
   19  A    between atoms: C_24  and  C_36
   20  A    between atoms: C_29  and  C_31
   21  A    between atoms: C_29  and  C_36
   22  A    between atoms: C_29  and  C_47
   23  A    between atoms: N_32  and  C_46
   24  A    between atoms: N_38  and  C_43
   25  A    between atoms: C_42  and  C_43
   26  A    between atoms: C_44  and  N_48
                            x       y       z     vdW  Elec       q    Type
                         _______ _______ _______ _____ _____    ______ ____

>  <TORSDO>
F 26

$$$$
=
 OpenBabel10232410523D

 49 52  0  0  1  0  0  0  0  0999 V2000
  185.4360  177.3560  135.8980 C   0  0  0  0  0  2  0  0  0  0  0  0
  189.3310  176.9040  135.3040 C   0  0  2  0  0  3  0  0  0  0  0  0
  187.8050  177.2120  135.1190 C   0  0  2  0  0  0  0  0  0  0  0  0
  187.6300  178.4470  136.0250 C   0  0  0  0  0  2  0  0  0  0  0  0
  186.8810  177.2160  136.3510 C   0  0  1  0  0  3  0  0  0  0  0  0
  188.3530  175.7950  135.3110 C   0  0  0  0  0  2  0  0  0  0  0  0
  189.8260  177.0670  136.6740 N   0  0  0  0  0  2  0  0  0  0  0  0
  189.7000  175.8310  137.3460 N   0  0  0  0  0  2  0  0  0  0  0  0
  190.6060  175.8380  138.4930 C   0  0  0  0  0  2  0  0  0  0  0  0
  191.8990  177.4370  139.8740 C   0  0  0  0  0  3  0  0  0  0  0  0
  190.5570  177.1600  139.2620 C   0  0  2  0  0  3  0  0  0  0  0  0
  189.6810  177.0170  140.4230 N   0  0  0  0  0  0  0  0  0  0  0  0
  190.3950  177.1530  141.4940 C   0  0  0  0  0  0  0  0  0  0  0  0
  191.7940  177.4400  141.1980 C   0  0  0  0  0  3  0  0  0  0  0  0
  189.7800  177.0770  142.8570 C   0  0  1  0  0  3  0  0  0  0  0  0
  191.7400  175.9440  143.6200 O   0  0  0  0  0  1  0  0  0  0  0  0
  190.8330  176.9480  143.9560 C   0  0  0  0  0  2  0  0  0  0  0  0
  188.8000  178.2270  143.0940 C   0  0  0  0  0  2  0  0  0  0  0  0
  187.4330  177.7590  143.5770 C   0  0  1  0  0  3  0  0  0  0  0  0
  187.3970  176.2420  143.5670 C   0  0  0  0  0  1  0  0  0  0  0  0
  187.2110  178.2570  144.9950 C   0  0  0  0  0  2  0  0  0  0  0  0
  187.6950  177.2410  146.0200 C   0  0  0  0  0  2  0  0  0  0  0  0
  188.3290  177.9250  147.2180 C   0  0  0  0  0  2  0  0  0  0  0  0
  189.2200  176.9540  147.9910 C   0  0  0  0  0  2  0  0  0  0  0  0
  190.5890  177.0430  147.5070 N   0  0  0  0  0  1  0  0  0  0  0  0
  184.5270  176.4760  136.7550 C   0  0  2  0  0  3  0  0  0  0  0  0
  183.0000  177.5770  138.4780 C   0  0  0  0  0  0  0  0  0  0  0  0
  182.8570  178.1670  139.6250 N   0  0  0  0  0  0  0  0  0  0  0  0
  184.2840  177.0930  138.0610 N   0  0  0  0  0  2  0  0  0  0  0  0
  181.8680  177.4440  137.6080 N   0  0  0  0  0  2  0  0  0  0  0  0
  183.9330  178.3290  140.5940 C   0  0  0  0  0  2  0  0  0  0  0  0
  182.0580  178.2610  142.2380 O   0  0  0  0  0  1  0  0  0  0  0  0
  184.1280  179.1600  142.8800 C   0  0  0  0  0  2  0  0  0  0  0  0
  183.3750  178.5850  141.9530 C   0  0  0  0  0  0  0  0  0  0  0  0
  180.6190  178.1610  137.8190 C   0  0  0  0  0  2  0  0  0  0  0  0
  180.3370  179.0440  136.6170 C   0  0  0  0  0  2  0  0  0  0  0  0
  179.9820  180.3800  137.0630 N   0  0  0  0  0  2  0  0  0  0  0  0
  181.1570  181.2260  136.8700 C   0  0  0  0  0  2  0  0  0  0  0  0
  180.2240  182.0090  139.0480 C   0  0  0  0  0  1  0  0  0  0  0  0
  181.4120  182.0810  138.1100 C   0  0  1  0  0  3  0  0  0  0  0  0
  182.5460  181.6040  138.7750 O   0  0  0  0  0  1  0  0  0  0  0  0
  185.0680  175.1080  136.8680 N   0  0  0  0  0  2  0  0  0  0  0  0
  184.3060  174.0760  136.1590 C   0  0  2  0  0  0  0  0  0  0  0  0
  186.5030  172.8070  135.8380 C   0  0  0  0  0  1  0  0  0  0  0  0
  185.0070  172.8390  135.5970 C   0  0  2  0  0  3  0  0  0  0  0  0
  184.6910  174.0230  134.6940 C   0  0  0  0  0  2  0  0  0  0  0  0
  182.7930  174.0530  136.3210 C   0  0  0  0  0  2  0  0  0  0  0  0
  181.1180  174.2900  137.7170 C   0  0  0  0  0  1  0  0  0  0  0  0
  182.4550  173.9190  137.6640 O   0  0  0  0  0  0  0  0  0  0  0  0
  2  6  1  0  0  0  0
  2  7  1  1  0  0  0
  3  2  1  0  0  0  0
  3  6  1  6  0  0  0
  3  4  1  0  0  0  0
  3  5  1  0  0  0  0
  4  5  1  0  0  0  0
  5  1  1  6  0  0  0
  7  8  1  0  0  0  0
  8  9  1  0  0  0  0
 10 14  2  0  0  0  0
 11  9  1  1  0  0  0
 11 10  1  0  0  0  0
 11 12  1  0  0  0  0
 12 13  2  0  0  0  0
 13 15  1  0  0  0  0
 14 13  1  0  0  0  0
 15 18  1  1  0  0  0
 15 17  1  0  0  0  0
 16 17  1  0  0  0  0
 18 19  1  0  0  0  0
 19 20  1  1  0  0  0
 19 21  1  0  0  0  0
 21 22  1  0  0  0  0
 22 23  1  0  0  0  0
 23 24  1  0  0  0  0
 25 24  1  0  0  0  0
 26  1  1  6  0  0  0
 26 42  1  0  0  0  0
 26 29  1  0  0  0  0
 27 28  2  0  0  0  0
 28 31  1  0  0  0  0
 29 27  1  0  0  0  0
 30 35  1  0  0  0  0
 30 27  1  0  0  0  0
 31 34  1  0  0  0  0
 34 32  1  0  0  0  0
 34 33  2  0  0  0  0
 36 37  1  0  0  0  0
 36 35  1  0  0  0  0
 38 37  1  0  0  0  0
 38 40  1  0  0  0  0
 40 41  1  0  0  0  0
 40 39  1  1  0  0  0
 43 47  1  1  0  0  0
 43 42  1  0  0  0  0
 45 44  1  1  0  0  0
 45 43  1  0  0  0  0
 46 45  1  0  0  0  0
 46 43  1  0  0  0  0
 47 49  1  0  0  0  0
 49 48  1  0  0  0  0
M  END
>  <MODEL>
7

>  <REMARK>
 VINA RESULT:      -5.2      2.754      6.490
  Name = 
  26 active torsions:
  status: ('A' for Active; 'I' for Inactive)
    1  A    between atoms: C_1  and  N_12
    2  A    between atoms: C_3  and  C_4
    3  A    between atoms: C_3  and  N_32
    4  A    between atoms: C_4  and  N_49
    5  A    between atoms: C_7  and  C_17
    6  A    between atoms: C_7  and  C_24
    7  A    between atoms: C_8  and  N_10
    8  A    between atoms: C_8  and  C_23
    9  A    between atoms: N_10  and  C_44
   10  A    between atoms: C_11  and  C_39
   11  A    between atoms: N_12  and  N_15
   12  A    between atoms: C_14  and  C_37
   13  A    between atoms: N_15  and  C_37
   14  A    between atoms: C_17  and  C_39
   15  A    between atoms: C_19  and  C_46
   16  A    between atoms: C_20  and  C_28
   17  A    between atoms: C_20  and  C_44
   18  A    between atoms: C_23  and  O_35
   19  A    between atoms: C_24  and  C_36
   20  A    between atoms: C_29  and  C_31
   21  A    between atoms: C_29  and  C_36
   22  A    between atoms: C_29  and  C_47
   23  A    between atoms: N_32  and  C_46
   24  A    between atoms: N_38  and  C_43
   25  A    between atoms: C_42  and  C_43
   26  A    between atoms: C_44  and  N_48
                            x       y       z     vdW  Elec       q    Type
                         _______ _______ _______ _____ _____    ______ ____

>  <TORSDO>
F 26

$$$$
=
 OpenBabel10232410523D

 49 52  0  0  1  0  0  0  0  0999 V2000
  187.2620  178.3530  140.4990 C   0  0  0  0  0  2  0  0  0  0  0  0
  190.8720  177.2580  139.2760 C   0  0  2  0  0  3  0  0  0  0  0  0
  189.6770  178.0030  139.9630 C   0  0  2  0  0  0  0  0  0  0  0  0
  189.2150  176.9540  140.9950 C   0  0  0  0  0  2  0  0  0  0  0  0
  188.2740  177.3680  139.9340 C   0  0  1  0  0  3  0  0  0  0  0  0
  189.9030  178.0080  138.4480 C   0  0  0  0  0  2  0  0  0  0  0  0
  190.6460  175.8300  139.0360 N   0  0  0  0  0  2  0  0  0  0  0  0
  191.7210  175.3280  138.2690 N   0  0  0  0  0  2  0  0  0  0  0  0
  191.2000  174.3090  137.3610 C   0  0  0  0  0  2  0  0  0  0  0  0
  191.6590  172.8550  135.4090 C   0  0  0  0  0  3  0  0  0  0  0  0
  192.1400  174.0470  136.1820 C   0  0  2  0  0  3  0  0  0  0  0  0
  193.4440  173.6180  136.6840 N   0  0  0  0  0  0  0  0  0  0  0  0
  193.6500  172.4000  136.2980 C   0  0  0  0  0  0  0  0  0  0  0  0
  192.5630  171.8850  135.4750 C   0  0  0  0  0  3  0  0  0  0  0  0
  194.9170  171.6780  136.6390 C   0  0  1  0  0  3  0  0  0  0  0  0
  196.0530  172.6900  138.4820 O   0  0  0  0  0  1  0  0  0  0  0  0
  196.0200  172.6350  137.0890 C   0  0  0  0  0  2  0  0  0  0  0  0
  194.6640  170.5410  137.6300 C   0  0  0  0  0  2  0  0  0  0  0  0
  194.7270  169.1620  136.9880 C   0  0  1  0  0  3  0  0  0  0  0  0
  195.3220  169.2890  135.5980 C   0  0  0  0  0  1  0  0  0  0  0  0
  195.6110  168.2610  137.8330 C   0  0  0  0  0  2  0  0  0  0  0  0
  197.0340  168.2200  137.2930 C   0  0  0  0  0  2  0  0  0  0  0  0
  198.0530  168.2590  138.4190 C   0  0  0  0  0  2  0  0  0  0  0  0
  199.1380  169.2970  138.1340 C   0  0  0  0  0  2  0  0  0  0  0  0
  198.7190  170.1690  137.0480 N   0  0  0  0  0  1  0  0  0  0  0  0
  185.9960  178.3560  139.6420 C   0  0  2  0  0  3  0  0  0  0  0  0
  185.6310  177.4510  137.2850 C   0  0  0  0  0  0  0  0  0  0  0  0
  186.0080  177.3860  136.0450 N   0  0  0  0  0  0  0  0  0  0  0  0
  186.3300  178.2860  138.2180 N   0  0  0  0  0  2  0  0  0  0  0  0
  184.5270  176.6500  137.7270 N   0  0  0  0  0  2  0  0  0  0  0  0
  187.0970  178.1760  135.4850 C   0  0  0  0  0  2  0  0  0  0  0  0
  188.4660  176.1480  135.9650 O   0  0  0  0  0  1  0  0  0  0  0  0
  189.2120  177.6950  134.3670 C   0  0  0  0  0  2  0  0  0  0  0  0
  188.2920  177.3180  135.2450 C   0  0  0  0  0  0  0  0  0  0  0  0
  183.9630  175.5690  136.9320 C   0  0  0  0  0  2  0  0  0  0  0  0
  184.0630  174.2690  137.7090 C   0  0  0  0  0  2  0  0  0  0  0  0
  184.5840  173.2220  136.8450 N   0  0  0  0  0  2  0  0  0  0  0  0
  185.8770  172.8170  137.3900 C   0  0  0  0  0  2  0  0  0  0  0  0
  187.8350  171.8750  136.1640 C   0  0  0  0  0  1  0  0  0  0  0  0
  186.9960  173.1150  136.3940 C   0  0  1  0  0  3  0  0  0  0  0  0
  186.4370  173.5180  135.1770 O   0  0  0  0  0  1  0  0  0  0  0  0
  185.1420  179.5150  139.9660 N   0  0  0  0  0  2  0  0  0  0  0  0
  183.7520  179.1900  140.3010 C   0  0  2  0  0  0  0  0  0  0  0  0
  184.5360  178.7340  142.6930 C   0  0  0  0  0  1  0  0  0  0  0  0
  183.3720  178.7750  141.7240 C   0  0  2  0  0  3  0  0  0  0  0  0
  183.6040  177.7220  140.6490 C   0  0  0  0  0  2  0  0  0  0  0  0
  182.6530  179.6320  139.3460 C   0  0  0  0  0  2  0  0  0  0  0  0
  181.5220  178.9010  137.6150 C   0  0  0  0  0  1  0  0  0  0  0  0
  182.8150  179.0170  138.1090 O   0  0  0  0  0  0  0  0  0  0  0  0
  2  7  1  6  0  0  0
  2  3  1  0  0  0  0
  3  6  1  1  0  0  0
  3  4  1  0  0  0  0
  5  3  1  0  0  0  0
  5  1  1  1  0  0  0
  5  4  1  0  0  0  0
  6  2  1  0  0  0  0
  8  7  1  0  0  0  0
  9  8  1  0  0  0  0
 10 14  2  0  0  0  0
 10 11  1  0  0  0  0
 11 12  1  0  0  0  0
 11  9  1  1  0  0  0
 13 15  1  0  0  0  0
 13 12  2  0  0  0  0
 14 13  1  0  0  0  0
 15 17  1  1  0  0  0
 15 18  1  0  0  0  0
 17 16  1  0  0  0  0
 19 20  1  6  0  0  0
 19 18  1  0  0  0  0
 19 21  1  0  0  0  0
 22 21  1  0  0  0  0
 22 23  1  0  0  0  0
 24 23  1  0  0  0  0
 25 24  1  0  0  0  0
 26 42  1  0  0  0  0
 26  1  1  1  0  0  0
 27 30  1  0  0  0  0
 27 29  1  0  0  0  0
 28 27  2  0  0  0  0
 29 26  1  0  0  0  0
 31 28  1  0  0  0  0
 33 34  2  0  0  0  0
 34 31  1  0  0  0  0
 34 32  1  0  0  0  0
 35 36  1  0  0  0  0
 35 30  1  0  0  0  0
 37 38  1  0  0  0  0
 37 36  1  0  0  0  0
 40 39  1  6  0  0  0
 40 38  1  0  0  0  0
 41 40  1  0  0  0  0
 42 43  1  0  0  0  0
 43 47  1  6  0  0  0
 43 46  1  0  0  0  0
 43 45  1  0  0  0  0
 45 44  1  1  0  0  0
 46 45  1  0  0  0  0
 48 49  1  0  0  0  0
 49 47  1  0  0  0  0
M  END
>  <MODEL>
8

>  <REMARK>
 VINA RESULT:      -4.9      3.491     10.470
  Name = 
  26 active torsions:
  status: ('A' for Active; 'I' for Inactive)
    1  A    between atoms: C_1  and  N_12
    2  A    between atoms: C_3  and  C_4
    3  A    between atoms: C_3  and  N_32
    4  A    between atoms: C_4  and  N_49
    5  A    between atoms: C_7  and  C_17
    6  A    between atoms: C_7  and  C_24
    7  A    between atoms: C_8  and  N_10
    8  A    between atoms: C_8  and  C_23
    9  A    between atoms: N_10  and  C_44
   10  A    between atoms: C_11  and  C_39
   11  A    between atoms: N_12  and  N_15
   12  A    between atoms: C_14  and  C_37
   13  A    between atoms: N_15  and  C_37
   14  A    between atoms: C_17  and  C_39
   15  A    between atoms: C_19  and  C_46
   16  A    between atoms: C_20  and  C_28
   17  A    between atoms: C_20  and  C_44
   18  A    between atoms: C_23  and  O_35
   19  A    between atoms: C_24  and  C_36
   20  A    between atoms: C_29  and  C_31
   21  A    between atoms: C_29  and  C_36
   22  A    between atoms: C_29  and  C_47
   23  A    between atoms: N_32  and  C_46
   24  A    between atoms: N_38  and  C_43
   25  A    between atoms: C_42  and  C_43
   26  A    between atoms: C_44  and  N_48
                            x       y       z     vdW  Elec       q    Type
                         _______ _______ _______ _____ _____    ______ ____

>  <TORSDO>
F 26

$$$$
=
 OpenBabel10232410523D

 49 52  0  0  1  0  0  0  0  0999 V2000
  187.7670  178.9780  141.8680 C   0  0  0  0  0  2  0  0  0  0  0  0
  190.0590  176.6190  139.6520 C   0  0  2  0  0  3  0  0  0  0  0  0
  188.9990  177.1650  140.6680 C   0  0  2  0  0  0  0  0  0  0  0  0
  187.9680  177.8100  139.7190 C   0  0  0  0  0  2  0  0  0  0  0  0
  188.6770  178.6720  140.6880 C   0  0  1  0  0  3  0  0  0  0  0  0
  190.5090  177.3020  140.8840 C   0  0  0  0  0  2  0  0  0  0  0  0
  190.3410  177.5110  138.5240 N   0  0  0  0  0  2  0  0  0  0  0  0
  190.5520  176.7240  137.3700 N   0  0  0  0  0  2  0  0  0  0  0  0
  191.5380  175.6940  137.6930 C   0  0  0  0  0  2  0  0  0  0  0  0
  193.3410  176.5010  136.1980 C   0  0  0  0  0  3  0  0  0  0  0  0
  192.9720  176.2220  137.6250 C   0  0  2  0  0  3  0  0  0  0  0  0
  193.9010  175.1630  138.0120 N   0  0  0  0  0  0  0  0  0  0  0  0
  194.6370  174.8690  136.9880 C   0  0  0  0  0  0  0  0  0  0  0  0
  194.3340  175.7010  135.8290 C   0  0  0  0  0  3  0  0  0  0  0  0
  195.7070  173.8250  137.0700 C   0  0  1  0  0  3  0  0  0  0  0  0
  195.4220  171.9150  138.4770 O   0  0  0  0  0  1  0  0  0  0  0  0
  195.1270  172.4180  137.2100 C   0  0  0  0  0  2  0  0  0  0  0  0
  196.7040  173.9530  135.9170 C   0  0  0  0  0  2  0  0  0  0  0  0
  198.0820  174.4210  136.3680 C   0  0  1  0  0  3  0  0  0  0  0  0
  198.0470  174.7030  137.8580 C   0  0  0  0  0  1  0  0  0  0  0  0
  199.0940  173.3230  136.0870 C   0  0  0  0  0  2  0  0  0  0  0  0
  199.5520  172.6520  137.3750 C   0  0  0  0  0  2  0  0  0  0  0  0
  199.4450  171.1400  137.2760 C   0  0  0  0  0  2  0  0  0  0  0  0
  198.3950  170.7350  136.2430 C   0  0  0  0  0  2  0  0  0  0  0  0
  197.5980  169.6290  136.7510 N   0  0  0  0  0  1  0  0  0  0  0  0
  186.9680  177.7350  142.2540 C   0  0  2  0  0  3  0  0  0  0  0  0
  184.6420  178.5750  141.6240 C   0  0  0  0  0  0  0  0  0  0  0  0
  183.4470  178.9250  141.9880 N   0  0  0  0  0  0  0  0  0  0  0  0
  185.5860  178.0860  142.5870 N   0  0  0  0  0  2  0  0  0  0  0  0
  185.0290  178.7160  140.2500 N   0  0  0  0  0  2  0  0  0  0  0  0
  182.9430  178.7970  143.3490 C   0  0  0  0  0  2  0  0  0  0  0  0
  180.9860  180.3420  143.3400 O   0  0  0  0  0  1  0  0  0  0  0  0
  180.6330  178.0280  143.5030 C   0  0  0  0  0  2  0  0  0  0  0  0
  181.4740  179.0460  143.3860 C   0  0  0  0  0  0  0  0  0  0  0  0
  184.2500  179.4720  139.2810 C   0  0  0  0  0  2  0  0  0  0  0  0
  183.4550  178.5110  138.4160 C   0  0  0  0  0  2  0  0  0  0  0  0
  183.6340  177.1540  138.9000 N   0  0  0  0  0  2  0  0  0  0  0  0
  183.2260  176.2540  137.8250 C   0  0  0  0  0  2  0  0  0  0  0  0
  181.6130  175.5340  139.5870 C   0  0  0  0  0  1  0  0  0  0  0  0
  181.8320  175.6900  138.0960 C   0  0  1  0  0  3  0  0  0  0  0  0
  180.8700  176.5680  137.5850 O   0  0  0  0  0  1  0  0  0  0  0  0
  187.6380  176.9900  143.3370 N   0  0  0  0  0  2  0  0  0  0  0  0
  187.7560  177.7100  144.6080 C   0  0  2  0  0  0  0  0  0  0  0  0
  190.2850  177.7640  144.2360 C   0  0  0  0  0  1  0  0  0  0  0  0
  189.1250  178.1470  145.1320 C   0  0  2  0  0  3  0  0  0  0  0  0
  188.4740  176.8710  145.6460 C   0  0  0  0  0  2  0  0  0  0  0  0
  186.5060  178.3460  145.1990 C   0  0  0  0  0  2  0  0  0  0  0  0
  185.2530  178.5060  146.9920 C   0  0  0  0  0  1  0  0  0  0  0  0
  186.0730  177.6210  146.3040 O   0  0  0  0  0  0  0  0  0  0  0  0
  2  7  1  6  0  0  0
  2  3  1  0  0  0  0
  2  6  1  0  0  0  0
  3  4  1  1  0  0  0
  3  5  1  0  0  0  0
  3  6  1  0  0  0  0
  4  5  1  0  0  0  0
  5  1  1  1  0  0  0
  8  9  1  0  0  0  0
  8  7  1  0  0  0  0
 10 11  1  0  0  0  0
 11  9  1  6  0  0  0
 11 12  1  0  0  0  0
 13 15  1  0  0  0  0
 13 12  2  0  0  0  0
 14 10  2  0  0  0  0
 14 13  1  0  0  0  0
 15 18  1  6  0  0  0
 15 17  1  0  0  0  0
 17 16  1  0  0  0  0
 18 19  1  0  0  0  0
 19 20  1  1  0  0  0
 21 19  1  0  0  0  0
 21 22  1  0  0  0  0
 23 22  1  0  0  0  0
 24 25  1  0  0  0  0
 24 23  1  0  0  0  0
 26  1  1  1  0  0  0
 26 29  1  0  0  0  0
 26 42  1  0  0  0  0
 27 28  2  0  0  0  0
 27 29  1  0  0  0  0
 28 31  1  0  0  0  0
 30 27  1  0  0  0  0
 31 34  1  0  0  0  0
 32 34  1  0  0  0  0
 34 33  2  0  0  0  0
 35 30  1  0  0  0  0
 36 37  1  0  0  0  0
 36 35  1  0  0  0  0
 38 40  1  0  0  0  0
 38 37  1  0  0  0  0
 40 39  1  1  0  0  0
 41 40  1  0  0  0  0
 42 43  1  0  0  0  0
 43 45  1  0  0  0  0
 43 47  1  1  0  0  0
 43 46  1  0  0  0  0
 45 44  1  6  0  0  0
 45 46  1  0  0  0  0
 47 49  1  0  0  0  0
 49 48  1  0  0  0  0
M  END
>  <MODEL>
9

>  <REMARK>
 VINA RESULT:      -4.9      3.384     10.671
  Name = 
  26 active torsions:
  status: ('A' for Active; 'I' for Inactive)
    1  A    between atoms: C_1  and  N_12
    2  A    between atoms: C_3  and  C_4
    3  A    between atoms: C_3  and  N_32
    4  A    between atoms: C_4  and  N_49
    5  A    between atoms: C_7  and  C_17
    6  A    between atoms: C_7  and  C_24
    7  A    between atoms: C_8  and  N_10
    8  A    between atoms: C_8  and  C_23
    9  A    between atoms: N_10  and  C_44
   10  A    between atoms: C_11  and  C_39
   11  A    between atoms: N_12  and  N_15
   12  A    between atoms: C_14  and  C_37
   13  A    between atoms: N_15  and  C_37
   14  A    between atoms: C_17  and  C_39
   15  A    between atoms: C_19  and  C_46
   16  A    between atoms: C_20  and  C_28
   17  A    between atoms: C_20  and  C_44
   18  A    between atoms: C_23  and  O_35
   19  A    between atoms: C_24  and  C_36
   20  A    between atoms: C_29  and  C_31
   21  A    between atoms: C_29  and  C_36
   22  A    between atoms: C_29  and  C_47
   23  A    between atoms: N_32  and  C_46
   24  A    between atoms: N_38  and  C_43
   25  A    between atoms: C_42  and  C_43
   26  A    between atoms: C_44  and  N_48
                            x       y       z     vdW  Elec       q    Type
                         _______ _______ _______ _____ _____    ______ ____

>  <TORSDO>
F 26

$$$$
