=
 OpenBabel10232411023D

 26 29  0  0  1  0  0  0  0  0999 V2000
  189.5710  178.4030  144.1720 C   0  0  2  0  0  3  0  0  0  0  0  0
  188.0460  177.5550  146.1360 C   0  0  0  0  0  0  0  0  0  0  0  0
  191.6430  175.9940  147.6990 O   0  0  0  0  0  1  0  0  0  0  0  0
  190.0820  177.5370  142.2010 C   0  0  2  0  0  3  0  0  0  0  0  0
  189.2760  177.7200  145.4690 C   0  0  0  0  0  0  0  0  0  0  0  0
  189.2490  176.3100  147.8700 C   0  0  0  0  0  3  0  0  0  0  0  0
  190.4380  177.2140  145.9890 C   0  0  0  0  0  0  0  0  0  0  0  0
  191.3250  177.5690  142.8560 O   0  0  0  0  0  0  0  0  0  0  0  0
  189.0300  177.6650  143.1220 O   0  0  0  0  0  0  0  0  0  0  0  0
  191.5610  177.5020  145.1820 N   0  0  0  0  0  2  0  0  0  0  0  0
  190.4570  176.5030  147.1880 C   0  0  0  0  0  0  0  0  0  0  0  0
  191.0860  178.2730  144.0350 C   0  0  2  0  0  0  0  0  0  0  0  0
  188.0530  176.8340  147.3480 C   0  0  0  0  0  3  0  0  0  0  0  0
  185.9970  179.0570  146.2670 C   0  0  0  0  0  3  0  0  0  0  0  0
  185.0050  178.5740  144.4030 C   0  0  0  0  0  3  0  0  0  0  0  0
  184.9190  179.3340  145.5120 N   0  0  0  0  0  0  0  0  0  0  0  0
  186.7690  178.1080  145.6270 C   0  0  1  0  0  3  0  0  0  0  0  0
  186.1460  177.7960  144.4350 C   0  0  0  0  0  3  0  0  0  0  0  0
  191.1700  180.6190  144.3630 O   0  0  0  0  0  0  0  0  0  0  0  0
  191.7530  179.6140  143.9850 C   0  0  0  0  0  3  0  0  0  0  0  0
  189.9450  176.2310  141.4350 C   0  0  0  0  0  2  0  0  0  0  0  0
  190.2600  176.4370  140.0310 N   0  0  0  0  0  2  0  0  0  0  0  0
  189.6750  177.7100  139.6420 C   0  0  0  0  0  2  0  0  0  0  0  0
  188.6810  177.5060  138.5090 C   0  0  0  0  0  2  0  0  0  0  0  0
  189.1000  178.2790  137.2680 C   0  0  0  0  0  2  0  0  0  0  0  0
  188.9850  179.6510  137.4930 O   0  0  0  0  0  1  0  0  0  0  0  0
  1  9  1  6  0  0  0
  1  5  1  0  0  0  0
  2 13  1  0  0  0  0
  4 21  1  1  0  0  0
  4  8  1  0  0  0  0
  4  9  1  0  0  0  0
  5  7  1  0  0  0  0
  5  2  2  0  0  0  0
  7 11  2  0  0  0  0
  8 12  1  0  0  0  0
 10  7  1  0  0  0  0
 11  3  1  0  0  0  0
 11  6  1  0  0  0  0
 12 20  1  6  0  0  0
 12  1  1  0  0  0  0
 12 10  1  0  0  0  0
 13  6  2  0  0  0  0
 15 18  2  0  0  0  0
 15 16  1  0  0  0  0
 16 14  2  0  0  0  0
 17  2  1  6  0  0  0
 17 14  1  0  0  0  0
 18 17  1  0  0  0  0
 20 19  2  0  0  0  0
 22 21  1  0  0  0  0
 23 22  1  0  0  0  0
 24 23  1  0  0  0  0
 25 26  1  0  0  0  0
 25 24  1  0  0  0  0
M  END
>  <MODEL>
1

>  <REMARK>
 VINA RESULT:      -6.9      0.000      0.000
  Name = 
  7 active torsions:
  status: ('A' for Active; 'I' for Inactive)
    1  A    between atoms: C_3  and  C_10
    2  A    between atoms: C_3  and  N_19
    3  A    between atoms: C_4  and  C_8
    4  A    between atoms: C_6  and  C_16
    5  A    between atoms: C_8  and  C_14
    6  A    between atoms: C_14  and  N_19
    7  A    between atoms: C_21  and  C_25
                            x       y       z     vdW  Elec       q    Type
                         _______ _______ _______ _____ _____    ______ ____

>  <TORSDO>
F 7

$$$$
=
 OpenBabel10232411023D

 26 29  0  0  1  0  0  0  0  0999 V2000
  189.2510  178.5150  144.1000 C   0  0  2  0  0  3  0  0  0  0  0  0
  187.7630  177.6570  146.0870 C   0  0  0  0  0  0  0  0  0  0  0  0
  191.3990  176.1440  147.6080 O   0  0  0  0  0  1  0  0  0  0  0  0
  189.7460  177.6470  142.1250 C   0  0  2  0  0  3  0  0  0  0  0  0
  188.9830  177.8340  145.4040 C   0  0  0  0  0  0  0  0  0  0  0  0
  189.0040  176.4330  147.8100 C   0  0  0  0  0  3  0  0  0  0  0  0
  190.1570  177.3430  145.9100 C   0  0  0  0  0  0  0  0  0  0  0  0
  190.9970  177.6960  142.7630 O   0  0  0  0  0  0  0  0  0  0  0  0
  188.7050  177.7660  143.0600 O   0  0  0  0  0  0  0  0  0  0  0  0
  191.2650  177.6410  145.0860 N   0  0  0  0  0  2  0  0  0  0  0  0
  190.2010  176.6370  147.1110 C   0  0  0  0  0  0  0  0  0  0  0  0
  190.7670  178.4020  143.9430 C   0  0  2  0  0  0  0  0  0  0  0  0
  187.7950  176.9410  147.3020 C   0  0  0  0  0  3  0  0  0  0  0  0
  185.6730  179.0970  146.2650 C   0  0  0  0  0  3  0  0  0  0  0  0
  184.7010  178.6560  144.3800 C   0  0  0  0  0  3  0  0  0  0  0  0
  184.5910  179.3720  145.5160 N   0  0  0  0  0  0  0  0  0  0  0  0
  186.4730  178.1940  145.5930 C   0  0  1  0  0  3  0  0  0  0  0  0
  185.8630  177.9090  144.3880 C   0  0  0  0  0  3  0  0  0  0  0  0
  192.4370  179.9860  144.5090 O   0  0  0  0  0  0  0  0  0  0  0  0
  191.4170  179.7510  143.8790 C   0  0  0  0  0  3  0  0  0  0  0  0
  189.6140  176.3370  141.3670 C   0  0  0  0  0  2  0  0  0  0  0  0
  190.6050  176.2690  140.3040 N   0  0  0  0  0  2  0  0  0  0  0  0
  190.2140  177.2370  139.2920 C   0  0  0  0  0  2  0  0  0  0  0  0
  190.8960  176.9180  137.9710 C   0  0  0  0  0  2  0  0  0  0  0  0
  192.1300  176.0550  138.1850 C   0  0  0  0  0  2  0  0  0  0  0  0
  193.2840  176.8340  138.0980 O   0  0  0  0  0  1  0  0  0  0  0  0
  1  9  1  6  0  0  0
  1  5  1  0  0  0  0
  2 13  1  0  0  0  0
  4 21  1  1  0  0  0
  4  8  1  0  0  0  0
  4  9  1  0  0  0  0
  5  7  1  0  0  0  0
  5  2  2  0  0  0  0
  7 11  2  0  0  0  0
  8 12  1  0  0  0  0
 10  7  1  0  0  0  0
 11  3  1  0  0  0  0
 11  6  1  0  0  0  0
 12 20  1  6  0  0  0
 12  1  1  0  0  0  0
 12 10  1  0  0  0  0
 13  6  2  0  0  0  0
 15 18  2  0  0  0  0
 15 16  1  0  0  0  0
 16 14  2  0  0  0  0
 17  2  1  6  0  0  0
 17 14  1  0  0  0  0
 18 17  1  0  0  0  0
 20 19  2  0  0  0  0
 22 21  1  0  0  0  0
 23 22  1  0  0  0  0
 24 25  1  0  0  0  0
 24 23  1  0  0  0  0
 26 25  1  0  0  0  0
M  END
>  <MODEL>
2

>  <REMARK>
 VINA RESULT:      -6.7      1.353      1.419
  Name = 
  7 active torsions:
  status: ('A' for Active; 'I' for Inactive)
    1  A    between atoms: C_3  and  C_10
    2  A    between atoms: C_3  and  N_19
    3  A    between atoms: C_4  and  C_8
    4  A    between atoms: C_6  and  C_16
    5  A    between atoms: C_8  and  C_14
    6  A    between atoms: C_14  and  N_19
    7  A    between atoms: C_21  and  C_25
                            x       y       z     vdW  Elec       q    Type
                         _______ _______ _______ _____ _____    ______ ____

>  <TORSDO>
F 7

$$$$
=
 OpenBabel10232411023D

 26 29  0  0  1  0  0  0  0  0999 V2000
  190.5720  176.9380  138.0990 C   0  0  2  0  0  3  0  0  0  0  0  0
  191.3060  174.6830  136.9700 C   0  0  0  0  0  0  0  0  0  0  0  0
  187.1580  174.0320  136.5390 O   0  0  0  0  0  1  0  0  0  0  0  0
  190.2370  177.5090  140.2110 C   0  0  2  0  0  3  0  0  0  0  0  0
  190.3590  175.6250  137.4170 C   0  0  0  0  0  0  0  0  0  0  0  0
  189.4380  173.2780  136.2360 C   0  0  0  0  0  3  0  0  0  0  0  0
  189.0150  175.4040  137.2670 C   0  0  0  0  0  0  0  0  0  0  0  0
  188.9600  177.6580  139.6440 O   0  0  0  0  0  0  0  0  0  0  0  0
  191.0590  176.7230  139.3860 O   0  0  0  0  0  0  0  0  0  0  0  0
  188.2350  176.4730  137.7620 N   0  0  0  0  0  2  0  0  0  0  0  0
  188.5230  174.2400  136.6810 C   0  0  0  0  0  0  0  0  0  0  0  0
  189.1570  177.4840  138.2750 C   0  0  2  0  0  0  0  0  0  0  0  0
  190.8190  173.4990  136.3780 C   0  0  0  0  0  3  0  0  0  0  0  0
  193.4740  175.9410  136.5340 C   0  0  0  0  0  3  0  0  0  0  0  0
  194.8970  174.7020  137.5970 C   0  0  0  0  0  3  0  0  0  0  0  0
  194.7750  175.8170  136.8500 N   0  0  0  0  0  0  0  0  0  0  0  0
  192.7690  174.8900  137.0850 C   0  0  1  0  0  3  0  0  0  0  0  0
  193.6680  174.0960  137.7690 C   0  0  0  0  0  3  0  0  0  0  0  0
  187.8780  179.1140  137.1220 O   0  0  0  0  0  0  0  0  0  0  0  0
  188.9730  178.7850  137.5530 C   0  0  0  0  0  3  0  0  0  0  0  0
  190.1120  176.8640  141.5820 C   0  0  0  0  0  2  0  0  0  0  0  0
  188.7250  176.8770  142.0180 N   0  0  0  0  0  2  0  0  0  0  0  0
  188.6870  176.2800  143.3430 C   0  0  0  0  0  2  0  0  0  0  0  0
  187.6800  177.0100  144.2180 C   0  0  0  0  0  2  0  0  0  0  0  0
  188.3570  177.6270  145.4330 C   0  0  0  0  0  2  0  0  0  0  0  0
  189.5580  178.2310  145.0610 O   0  0  0  0  0  1  0  0  0  0  0  0
  1  5  1  6  0  0  0
  1 12  1  0  0  0  0
  1  9  1  0  0  0  0
  2  5  1  0  0  0  0
  3 11  1  0  0  0  0
  4 21  1  1  0  0  0
  6 13  1  0  0  0  0
  6 11  2  0  0  0  0
  7  5  2  0  0  0  0
  7 10  1  0  0  0  0
  8  4  1  0  0  0  0
  9  4  1  0  0  0  0
 10 12  1  0  0  0  0
 11  7  1  0  0  0  0
 12 20  1  6  0  0  0
 12  8  1  0  0  0  0
 13  2  2  0  0  0  0
 14 16  2  0  0  0  0
 14 17  1  0  0  0  0
 15 18  2  0  0  0  0
 16 15  1  0  0  0  0
 17  2  1  1  0  0  0
 17 18  1  0  0  0  0
 19 20  2  0  0  0  0
 21 22  1  0  0  0  0
 22 23  1  0  0  0  0
 23 24  1  0  0  0  0
 24 25  1  0  0  0  0
 26 25  1  0  0  0  0
M  END
>  <MODEL>
3

>  <REMARK>
 VINA RESULT:      -6.0      3.612      8.831
  Name = 
  7 active torsions:
  status: ('A' for Active; 'I' for Inactive)
    1  A    between atoms: C_3  and  C_10
    2  A    between atoms: C_3  and  N_19
    3  A    between atoms: C_4  and  C_8
    4  A    between atoms: C_6  and  C_16
    5  A    between atoms: C_8  and  C_14
    6  A    between atoms: C_14  and  N_19
    7  A    between atoms: C_21  and  C_25
                            x       y       z     vdW  Elec       q    Type
                         _______ _______ _______ _____ _____    ______ ____

>  <TORSDO>
F 7

$$$$
=
 OpenBabel10232411023D

 26 29  0  0  1  0  0  0  0  0999 V2000
  184.5530  178.9490  139.0000 C   0  0  2  0  0  3  0  0  0  0  0  0
  185.9480  177.2690  137.5390 C   0  0  0  0  0  0  0  0  0  0  0  0
  182.2640  175.2600  137.0770 O   0  0  0  0  0  1  0  0  0  0  0  0
  184.1800  179.0780  141.1770 C   0  0  2  0  0  3  0  0  0  0  0  0
  184.7640  177.7480  138.1340 C   0  0  0  0  0  0  0  0  0  0  0  0
  184.6400  175.4060  136.6330 C   0  0  0  0  0  3  0  0  0  0  0  0
  183.5740  177.0900  137.9730 C   0  0  0  0  0  0  0  0  0  0  0  0
  182.8960  178.8410  140.6570 O   0  0  0  0  0  0  0  0  0  0  0  0
  185.1670  178.7500  140.2330 O   0  0  0  0  0  0  0  0  0  0  0  0
  182.5050  177.7380  138.6320 N   0  0  0  0  0  2  0  0  0  0  0  0
  183.4780  175.9160  137.2290 C   0  0  0  0  0  0  0  0  0  0  0  0
  183.0510  178.9320  139.2750 C   0  0  2  0  0  0  0  0  0  0  0  0
  185.8640  176.0800  136.7860 C   0  0  0  0  0  3  0  0  0  0  0  0
  187.7280  178.9300  136.8020 C   0  0  0  0  0  3  0  0  0  0  0  0
  189.2230  178.6530  138.3440 C   0  0  0  0  0  3  0  0  0  0  0  0
  188.9340  179.3460  137.2250 N   0  0  0  0  0  0  0  0  0  0  0  0
  187.2520  177.9610  137.6620 C   0  0  1  0  0  3  0  0  0  0  0  0
  188.1980  177.7800  138.6520 C   0  0  0  0  0  3  0  0  0  0  0  0
  182.9600  181.2420  138.7520 O   0  0  0  0  0  0  0  0  0  0  0  0
  182.3800  180.1670  138.7550 C   0  0  0  0  0  3  0  0  0  0  0  0
  184.3760  178.2540  142.4390 C   0  0  0  0  0  2  0  0  0  0  0  0
  183.4070  178.6460  143.4500 N   0  0  0  0  0  2  0  0  0  0  0  0
  184.1560  179.1680  144.5820 C   0  0  0  0  0  2  0  0  0  0  0  0
  185.4840  178.4390  144.7140 C   0  0  0  0  0  2  0  0  0  0  0  0
  185.9080  178.3310  146.1700 C   0  0  0  0  0  2  0  0  0  0  0  0
  184.8440  178.6700  147.0080 O   0  0  0  0  0  1  0  0  0  0  0  0
  1  5  1  6  0  0  0
  1 12  1  0  0  0  0
  1  9  1  0  0  0  0
  2  5  1  0  0  0  0
  3 11  1  0  0  0  0
  4 21  1  1  0  0  0
  6 13  1  0  0  0  0
  6 11  2  0  0  0  0
  7  5  2  0  0  0  0
  7 10  1  0  0  0  0
  8  4  1  0  0  0  0
  9  4  1  0  0  0  0
 10 12  1  0  0  0  0
 11  7  1  0  0  0  0
 12 20  1  6  0  0  0
 12  8  1  0  0  0  0
 13  2  2  0  0  0  0
 14 16  2  0  0  0  0
 14 17  1  0  0  0  0
 15 18  2  0  0  0  0
 16 15  1  0  0  0  0
 17  2  1  1  0  0  0
 17 18  1  0  0  0  0
 19 20  2  0  0  0  0
 21 22  1  0  0  0  0
 22 23  1  0  0  0  0
 23 24  1  0  0  0  0
 24 25  1  0  0  0  0
 25 26  1  0  0  0  0
M  END
>  <MODEL>
4

>  <REMARK>
 VINA RESULT:      -6.0      4.482      9.274
  Name = 
  7 active torsions:
  status: ('A' for Active; 'I' for Inactive)
    1  A    between atoms: C_3  and  C_10
    2  A    between atoms: C_3  and  N_19
    3  A    between atoms: C_4  and  C_8
    4  A    between atoms: C_6  and  C_16
    5  A    between atoms: C_8  and  C_14
    6  A    between atoms: C_14  and  N_19
    7  A    between atoms: C_21  and  C_25
                            x       y       z     vdW  Elec       q    Type
                         _______ _______ _______ _____ _____    ______ ____

>  <TORSDO>
F 7

$$$$
=
 OpenBabel10232411023D

 26 29  0  0  1  0  0  0  0  0999 V2000
  190.7510  176.9380  138.1310 C   0  0  2  0  0  3  0  0  0  0  0  0
  191.4060  174.7240  136.8790 C   0  0  0  0  0  0  0  0  0  0  0  0
  187.2450  174.0090  136.8390 O   0  0  0  0  0  1  0  0  0  0  0  0
  190.6150  177.4520  140.2790 C   0  0  2  0  0  3  0  0  0  0  0  0
  190.4920  175.6380  137.4410 C   0  0  0  0  0  0  0  0  0  0  0  0
  189.4970  173.3030  136.2950 C   0  0  0  0  0  3  0  0  0  0  0  0
  189.1440  175.3970  137.4170 C   0  0  0  0  0  0  0  0  0  0  0  0
  189.2860  177.5920  139.8440 O   0  0  0  0  0  0  0  0  0  0  0  0
  191.3640  176.7020  139.3590 O   0  0  0  0  0  0  0  0  0  0  0  0
  188.3990  176.4390  138.0120 N   0  0  0  0  0  2  0  0  0  0  0  0
  188.6140  174.2380  136.8520 C   0  0  0  0  0  0  0  0  0  0  0  0
  189.3510  177.4540  138.4580 C   0  0  2  0  0  0  0  0  0  0  0  0
  190.8810  173.5460  136.3080 C   0  0  0  0  0  3  0  0  0  0  0  0
  193.7520  174.5840  137.8510 C   0  0  0  0  0  3  0  0  0  0  0  0
  194.9120  175.5200  136.2800 C   0  0  0  0  0  3  0  0  0  0  0  0
  194.9990  174.9360  137.4910 N   0  0  0  0  0  2  0  0  0  0  0  0
  192.8690  174.9540  136.8560 C   0  0  0  0  0  0  0  0  0  0  0  0
  193.6000  175.5490  135.8480 C   0  0  0  0  0  3  0  0  0  0  0  0
  187.9620  179.0380  137.3710 O   0  0  0  0  0  0  0  0  0  0  0  0
  189.0770  178.7680  137.7910 C   0  0  0  0  0  3  0  0  0  0  0  0
  190.6340  176.7730  141.6390 C   0  0  0  0  0  2  0  0  0  0  0  0
  191.7830  177.2230  142.4090 N   0  0  0  0  0  2  0  0  0  0  0  0
  191.3240  178.2950  143.2770 C   0  0  0  0  0  2  0  0  0  0  0  0
  191.0920  177.7680  144.6840 C   0  0  0  0  0  2  0  0  0  0  0  0
  189.6560  178.0010  145.1280 C   0  0  0  0  0  2  0  0  0  0  0  0
  188.8960  176.8490  144.9220 O   0  0  0  0  0  1  0  0  0  0  0  0
  1  5  1  6  0  0  0
  1 12  1  0  0  0  0
  1  9  1  0  0  0  0
  2  5  1  0  0  0  0
  3 11  1  0  0  0  0
  4 21  1  1  0  0  0
  6 13  1  0  0  0  0
  6 11  2  0  0  0  0
  7  5  2  0  0  0  0
  7 10  1  0  0  0  0
  8  4  1  0  0  0  0
  9  4  1  0  0  0  0
 10 12  1  0  0  0  0
 11  7  1  0  0  0  0
 12 20  1  6  0  0  0
 12  8  1  0  0  0  0
 13  2  2  0  0  0  0
 15 16  1  0  0  0  0
 16 14  1  0  0  0  0
 17  2  1  0  0  0  0
 17 14  2  0  0  0  0
 18 15  2  0  0  0  0
 18 17  1  0  0  0  0
 19 20  2  0  0  0  0
 21 22  1  0  0  0  0
 22 23  1  0  0  0  0
 23 24  1  0  0  0  0
 24 25  1  0  0  0  0
 26 25  1  0  0  0  0
M  END
>  <MODEL>
5

>  <REMARK>
 VINA RESULT:      -5.8      3.614      8.858
  Name = 
  7 active torsions:
  status: ('A' for Active; 'I' for Inactive)
    1  A    between atoms: C_3  and  C_10
    2  A    between atoms: C_3  and  N_19
    3  A    between atoms: C_4  and  C_8
    4  A    between atoms: C_6  and  C_16
    5  A    between atoms: C_8  and  C_14
    6  A    between atoms: C_14  and  N_19
    7  A    between atoms: C_21  and  C_25
                            x       y       z     vdW  Elec       q    Type
                         _______ _______ _______ _____ _____    ______ ____

>  <TORSDO>
F 7

$$$$
=
 OpenBabel10232411023D

 26 29  0  0  1  0  0  0  0  0999 V2000
  191.0990  175.4560  138.0660 C   0  0  2  0  0  3  0  0  0  0  0  0
  189.8530  177.3930  139.3290 C   0  0  0  0  0  0  0  0  0  0  0  0
  187.9620  178.0390  135.6110 O   0  0  0  0  0  1  0  0  0  0  0  0
  193.0510  175.3660  137.0270 C   0  0  2  0  0  3  0  0  0  0  0  0
  190.1400  176.5940  138.2040 C   0  0  0  0  0  0  0  0  0  0  0  0
  188.2840  178.6520  137.9310 C   0  0  0  0  0  3  0  0  0  0  0  0
  189.5160  176.8110  137.0040 C   0  0  0  0  0  0  0  0  0  0  0  0
  192.1370  175.1290  135.9870 O   0  0  0  0  0  0  0  0  0  0  0  0
  192.4050  175.9330  138.1380 O   0  0  0  0  0  0  0  0  0  0  0  0
  189.9270  175.8950  136.0100 N   0  0  0  0  0  2  0  0  0  0  0  0
  188.5830  177.8320  136.8350 C   0  0  0  0  0  0  0  0  0  0  0  0
  190.9030  174.9960  136.6220 C   0  0  2  0  0  0  0  0  0  0  0  0
  188.9130  178.4320  139.1690 C   0  0  0  0  0  3  0  0  0  0  0  0
  191.7500  177.5900  141.0120 C   0  0  0  0  0  3  0  0  0  0  0  0
  190.8780  176.6200  142.7410 C   0  0  0  0  0  3  0  0  0  0  0  0
  191.9850  177.2420  142.2900 N   0  0  0  0  0  2  0  0  0  0  0  0
  190.4820  177.1790  140.6540 C   0  0  0  0  0  0  0  0  0  0  0  0
  189.9160  176.5630  141.7520 C   0  0  0  0  0  3  0  0  0  0  0  0
  189.5610  173.1660  137.3070 O   0  0  0  0  0  0  0  0  0  0  0  0
  190.4320  173.5750  136.5540 C   0  0  0  0  0  3  0  0  0  0  0  0
  194.1490  176.2960  136.5370 C   0  0  0  0  0  2  0  0  0  0  0  0
  195.3840  175.5540  136.3390 N   0  0  0  0  0  2  0  0  0  0  0  0
  195.3440  174.4090  137.2330 C   0  0  0  0  0  2  0  0  0  0  0  0
  196.6400  174.3150  138.0220 C   0  0  0  0  0  2  0  0  0  0  0  0
  196.3850  174.4650  139.5140 C   0  0  0  0  0  2  0  0  0  0  0  0
  195.4950  175.5130  139.7480 O   0  0  0  0  0  1  0  0  0  0  0  0
  1  9  1  6  0  0  0
  1  5  1  0  0  0  0
  2 17  1  0  0  0  0
  3 11  1  0  0  0  0
  4 21  1  6  0  0  0
  4  9  1  0  0  0  0
  5  2  2  0  0  0  0
  6 13  2  0  0  0  0
  7  5  1  0  0  0  0
  8 12  1  0  0  0  0
  8  4  1  0  0  0  0
 10 12  1  0  0  0  0
 10  7  1  0  0  0  0
 11  7  2  0  0  0  0
 11  6  1  0  0  0  0
 12 20  1  6  0  0  0
 12  1  1  0  0  0  0
 13  2  1  0  0  0  0
 14 16  1  0  0  0  0
 16 15  1  0  0  0  0
 17 14  2  0  0  0  0
 17 18  1  0  0  0  0
 18 15  2  0  0  0  0
 20 19  2  0  0  0  0
 22 21  1  0  0  0  0
 22 23  1  0  0  0  0
 23 24  1  0  0  0  0
 24 25  1  0  0  0  0
 25 26  1  0  0  0  0
M  END
>  <MODEL>
6

>  <REMARK>
 VINA RESULT:      -5.6      4.681      8.202
  Name = 
  7 active torsions:
  status: ('A' for Active; 'I' for Inactive)
    1  A    between atoms: C_3  and  C_10
    2  A    between atoms: C_3  and  N_19
    3  A    between atoms: C_4  and  C_8
    4  A    between atoms: C_6  and  C_16
    5  A    between atoms: C_8  and  C_14
    6  A    between atoms: C_14  and  N_19
    7  A    between atoms: C_21  and  C_25
                            x       y       z     vdW  Elec       q    Type
                         _______ _______ _______ _____ _____    ______ ____

>  <TORSDO>
F 7

$$$$
=
 OpenBabel10232411023D

 26 29  0  0  1  0  0  0  0  0999 V2000
  186.4960  178.1220  137.8740 C   0  0  2  0  0  3  0  0  0  0  0  0
  185.0310  178.7880  139.9510 C   0  0  0  0  0  0  0  0  0  0  0  0
  188.6080  178.2370  142.1250 O   0  0  0  0  0  1  0  0  0  0  0  0
  186.8480  176.1890  136.8560 C   0  0  2  0  0  3  0  0  0  0  0  0
  186.2320  178.4090  139.3180 C   0  0  0  0  0  0  0  0  0  0  0  0
  186.2500  178.7820  142.0770 C   0  0  0  0  0  3  0  0  0  0  0  0
  187.3870  178.2380  140.0330 C   0  0  0  0  0  0  0  0  0  0  0  0
  188.1230  176.5170  137.3450 O   0  0  0  0  0  0  0  0  0  0  0  0
  185.8560  176.9410  137.5080 O   0  0  0  0  0  0  0  0  0  0  0  0
  188.4800  177.8770  139.2140 N   0  0  0  0  0  2  0  0  0  0  0  0
  187.4290  178.4170  141.4140 C   0  0  0  0  0  0  0  0  0  0  0  0
  187.9910  177.8140  137.8380 C   0  0  2  0  0  0  0  0  0  0  0  0
  185.0610  178.9680  141.3490 C   0  0  0  0  0  3  0  0  0  0  0  0
  182.8990  178.0220  138.7950 C   0  0  0  0  0  3  0  0  0  0  0  0
  182.0390  179.9190  138.2030 C   0  0  0  0  0  3  0  0  0  0  0  0
  181.8480  178.5860  138.1750 N   0  0  0  0  0  0  0  0  0  0  0  0
  183.7640  179.0110  139.2160 C   0  0  1  0  0  3  0  0  0  0  0  0
  183.2230  180.2260  138.8460 C   0  0  0  0  0  3  0  0  0  0  0  0
  188.9820  179.9130  137.3550 O   0  0  0  0  0  0  0  0  0  0  0  0
  188.7340  178.7820  136.9670 C   0  0  0  0  0  3  0  0  0  0  0  0
  186.5920  174.7050  137.0610 C   0  0  0  0  0  2  0  0  0  0  0  0
  185.1830  174.4720  137.3390 N   0  0  0  0  0  2  0  0  0  0  0  0
  185.0470  173.0760  137.7210 C   0  0  0  0  0  2  0  0  0  0  0  0
  183.9900  172.3980  136.8640 C   0  0  0  0  0  2  0  0  0  0  0  0
  182.9350  173.3940  136.4060 C   0  0  0  0  0  2  0  0  0  0  0  0
  181.6770  173.0140  136.8770 O   0  0  0  0  0  1  0  0  0  0  0  0
  1  9  1  1  0  0  0
  1  5  1  0  0  0  0
  2 13  1  0  0  0  0
  4 21  1  1  0  0  0
  4  8  1  0  0  0  0
  4  9  1  0  0  0  0
  5  2  2  0  0  0  0
  5  7  1  0  0  0  0
  7 11  2  0  0  0  0
  8 12  1  0  0  0  0
 10  7  1  0  0  0  0
 11  6  1  0  0  0  0
 11  3  1  0  0  0  0
 12 20  1  6  0  0  0
 12  1  1  0  0  0  0
 12 10  1  0  0  0  0
 13  6  2  0  0  0  0
 14 17  1  0  0  0  0
 15 18  2  0  0  0  0
 16 15  1  0  0  0  0
 16 14  2  0  0  0  0
 17  2  1  1  0  0  0
 18 17  1  0  0  0  0
 20 19  2  0  0  0  0
 21 22  1  0  0  0  0
 22 23  1  0  0  0  0
 24 23  1  0  0  0  0
 25 24  1  0  0  0  0
 25 26  1  0  0  0  0
M  END
>  <MODEL>
7

>  <REMARK>
 VINA RESULT:      -5.4      4.810      7.115
  Name = 
  7 active torsions:
  status: ('A' for Active; 'I' for Inactive)
    1  A    between atoms: C_3  and  C_10
    2  A    between atoms: C_3  and  N_19
    3  A    between atoms: C_4  and  C_8
    4  A    between atoms: C_6  and  C_16
    5  A    between atoms: C_8  and  C_14
    6  A    between atoms: C_14  and  N_19
    7  A    between atoms: C_21  and  C_25
                            x       y       z     vdW  Elec       q    Type
                         _______ _______ _______ _____ _____    ______ ____

>  <TORSDO>
F 7

$$$$
=
 OpenBabel10232411023D

 26 29  0  0  1  0  0  0  0  0999 V2000
  186.4630  178.0980  137.8600 C   0  0  2  0  0  3  0  0  0  0  0  0
  184.9510  178.7850  139.8960 C   0  0  0  0  0  0  0  0  0  0  0  0
  188.4990  178.3480  142.1410 O   0  0  0  0  0  1  0  0  0  0  0  0
  186.8660  176.1490  136.8930 C   0  0  2  0  0  3  0  0  0  0  0  0
  186.1690  178.4130  139.2920 C   0  0  0  0  0  0  0  0  0  0  0  0
  186.1320  178.8500  142.0410 C   0  0  0  0  0  3  0  0  0  0  0  0
  187.3150  178.2800  140.0300 C   0  0  0  0  0  0  0  0  0  0  0  0
  188.1270  176.5110  137.3950 O   0  0  0  0  0  0  0  0  0  0  0  0
  185.8500  176.8980  137.5100 O   0  0  0  0  0  0  0  0  0  0  0  0
  188.4280  177.9200  139.2380 N   0  0  0  0  0  2  0  0  0  0  0  0
  187.3290  178.4900  141.4080 C   0  0  0  0  0  0  0  0  0  0  0  0
  187.9640  177.8170  137.8560 C   0  0  2  0  0  0  0  0  0  0  0  0
  184.9540  178.9970  141.2900 C   0  0  0  0  0  3  0  0  0  0  0  0
  182.9260  177.9530  138.6010 C   0  0  0  0  0  3  0  0  0  0  0  0
  181.9310  179.8190  138.1360 C   0  0  0  0  0  3  0  0  0  0  0  0
  181.8510  178.4820  137.9910 N   0  0  0  0  0  0  0  0  0  0  0  0
  183.6930  178.9690  139.1350 C   0  0  1  0  0  3  0  0  0  0  0  0
  183.0650  180.1640  138.8460 C   0  0  0  0  0  3  0  0  0  0  0  0
  188.9820  179.9010  137.3670 O   0  0  0  0  0  0  0  0  0  0  0  0
  188.7040  178.7770  136.9750 C   0  0  0  0  0  3  0  0  0  0  0  0
  186.6330  174.6660  137.1280 C   0  0  0  0  0  2  0  0  0  0  0  0
  186.9260  173.9130  135.9190 N   0  0  0  0  0  2  0  0  0  0  0  0
  187.6290  172.7070  136.3260 C   0  0  0  0  0  2  0  0  0  0  0  0
  188.9070  172.5480  135.5180 C   0  0  0  0  0  2  0  0  0  0  0  0
  189.9620  173.5520  135.9580 C   0  0  0  0  0  2  0  0  0  0  0  0
  190.0900  173.5390  137.3470 O   0  0  0  0  0  1  0  0  0  0  0  0
  1  9  1  1  0  0  0
  1  5  1  0  0  0  0
  2 13  1  0  0  0  0
  4 21  1  1  0  0  0
  4  8  1  0  0  0  0
  4  9  1  0  0  0  0
  5  2  2  0  0  0  0
  5  7  1  0  0  0  0
  7 11  2  0  0  0  0
  8 12  1  0  0  0  0
 10  7  1  0  0  0  0
 11  6  1  0  0  0  0
 11  3  1  0  0  0  0
 12 20  1  6  0  0  0
 12  1  1  0  0  0  0
 12 10  1  0  0  0  0
 13  6  2  0  0  0  0
 14 17  1  0  0  0  0
 15 18  2  0  0  0  0
 16 15  1  0  0  0  0
 16 14  2  0  0  0  0
 17  2  1  1  0  0  0
 18 17  1  0  0  0  0
 20 19  2  0  0  0  0
 22 23  1  0  0  0  0
 22 21  1  0  0  0  0
 24 25  1  0  0  0  0
 24 23  1  0  0  0  0
 25 26  1  0  0  0  0
M  END
>  <MODEL>
8

>  <REMARK>
 VINA RESULT:      -5.2      4.487      6.817
  Name = 
  7 active torsions:
  status: ('A' for Active; 'I' for Inactive)
    1  A    between atoms: C_3  and  C_10
    2  A    between atoms: C_3  and  N_19
    3  A    between atoms: C_4  and  C_8
    4  A    between atoms: C_6  and  C_16
    5  A    between atoms: C_8  and  C_14
    6  A    between atoms: C_14  and  N_19
    7  A    between atoms: C_21  and  C_25
                            x       y       z     vdW  Elec       q    Type
                         _______ _______ _______ _____ _____    ______ ____

>  <TORSDO>
F 7

$$$$
=
 OpenBabel10232411023D

 26 29  0  0  1  0  0  0  0  0999 V2000
  187.9930  178.0130  138.8470 C   0  0  2  0  0  3  0  0  0  0  0  0
  188.6100  177.8530  141.3950 C   0  0  0  0  0  0  0  0  0  0  0  0
  192.4940  177.0080  139.9730 O   0  0  0  0  0  1  0  0  0  0  0  0
  187.1750  176.5380  137.4150 C   0  0  2  0  0  3  0  0  0  0  0  0
  188.9010  177.8090  140.0170 C   0  0  0  0  0  0  0  0  0  0  0  0
  190.9600  177.3060  141.8220 C   0  0  0  0  0  3  0  0  0  0  0  0
  190.1660  177.5390  139.5680 C   0  0  0  0  0  0  0  0  0  0  0  0
  188.4420  176.8220  136.8770 O   0  0  0  0  0  0  0  0  0  0  0  0
  187.1010  176.9480  138.7560 O   0  0  0  0  0  0  0  0  0  0  0  0
  190.2540  177.5610  138.1580 N   0  0  0  0  0  2  0  0  0  0  0  0
  191.2180  177.2820  140.4450 C   0  0  0  0  0  0  0  0  0  0  0  0
  188.9240  177.8810  137.6440 C   0  0  2  0  0  0  0  0  0  0  0  0
  189.6660  177.5900  142.2920 C   0  0  0  0  0  3  0  0  0  0  0  0
  186.7290  177.6640  143.0970 C   0  0  0  0  0  3  0  0  0  0  0  0
  185.2520  178.9940  142.2370 C   0  0  0  0  0  3  0  0  0  0  0  0
  185.4980  178.1730  143.2770 N   0  0  0  0  0  2  0  0  0  0  0  0
  187.2640  178.1670  141.9290 C   0  0  0  0  0  0  0  0  0  0  0  0
  186.3300  179.0200  141.3740 C   0  0  0  0  0  3  0  0  0  0  0  0
  188.9830  180.2350  137.3710 O   0  0  0  0  0  0  0  0  0  0  0  0
  188.9590  179.1400  136.8310 C   0  0  0  0  0  3  0  0  0  0  0  0
  186.9040  175.0460  137.3130 C   0  0  0  0  0  2  0  0  0  0  0  0
  185.6660  174.8090  136.5880 N   0  0  0  0  0  2  0  0  0  0  0  0
  184.7450  174.1640  137.5100 C   0  0  0  0  0  2  0  0  0  0  0  0
  184.9150  172.6550  137.4520 C   0  0  0  0  0  2  0  0  0  0  0  0
  183.6340  171.9760  136.9930 C   0  0  0  0  0  2  0  0  0  0  0  0
  183.6360  171.8310  135.6050 O   0  0  0  0  0  1  0  0  0  0  0  0
  1  9  1  6  0  0  0
  1  5  1  0  0  0  0
  2 17  1  0  0  0  0
  2 13  1  0  0  0  0
  3 11  1  0  0  0  0
  4 21  1  1  0  0  0
  4  9  1  0  0  0  0
  5  2  2  0  0  0  0
  6 13  2  0  0  0  0
  7  5  1  0  0  0  0
  7 11  2  0  0  0  0
  8  4  1  0  0  0  0
  8 12  1  0  0  0  0
 10  7  1  0  0  0  0
 11  6  1  0  0  0  0
 12 20  1  6  0  0  0
 12 10  1  0  0  0  0
 12  1  1  0  0  0  0
 14 16  1  0  0  0  0
 15 16  1  0  0  0  0
 17 14  2  0  0  0  0
 18 17  1  0  0  0  0
 18 15  2  0  0  0  0
 20 19  2  0  0  0  0
 22 21  1  0  0  0  0
 22 23  1  0  0  0  0
 24 23  1  0  0  0  0
 25 24  1  0  0  0  0
 26 25  1  0  0  0  0
M  END
>  <MODEL>
9

>  <REMARK>
 VINA RESULT:      -5.2      3.658      6.102
  Name = 
  7 active torsions:
  status: ('A' for Active; 'I' for Inactive)
    1  A    between atoms: C_3  and  C_10
    2  A    between atoms: C_3  and  N_19
    3  A    between atoms: C_4  and  C_8
    4  A    between atoms: C_6  and  C_16
    5  A    between atoms: C_8  and  C_14
    6  A    between atoms: C_14  and  N_19
    7  A    between atoms: C_21  and  C_25
                            x       y       z     vdW  Elec       q    Type
                         _______ _______ _______ _____ _____    ______ ____

>  <TORSDO>
F 7

$$$$
