=
 OpenBabel10232407583D

 44 49  0  0  1  0  0  0  0  0999 V2000
  190.3860  176.8420  137.9300 C   0  0  1  0  0  3  0  0  0  0  0  0
  189.1270  176.5700  137.2080 N   0  0  0  0  0  0  0  0  0  0  0  0
  188.8840  177.6140  139.8320 C   0  0  0  0  0  0  0  0  0  0  0  0
  188.7150  177.9830  141.1750 C   0  0  0  0  0  0  0  0  0  0  0  0
  191.0510  177.6290  141.5120 N   0  0  0  0  0  0  0  0  0  0  0  0
  191.4450  178.0000  145.1610 C   0  0  0  0  0  3  0  0  0  0  0  0
  187.5330  177.5530  143.9060 N   0  0  0  0  0  0  0  0  0  0  0  0
  187.4120  178.3850  141.6320 N   0  0  0  0  0  0  0  0  0  0  0  0
  189.8440  178.0140  142.0100 C   0  0  0  0  0  0  0  0  0  0  0  0
  188.1600  177.6390  137.4530 C   0  0  0  0  0  2  0  0  0  0  0  0
  188.7950  177.6230  144.2000 C   0  0  0  0  0  0  0  0  0  0  0  0
  186.8780  178.2090  142.8080 C   0  0  0  0  0  3  0  0  0  0  0  0
  187.7030  177.5820  138.9010 C   0  0  0  0  0  2  0  0  0  0  0  0
  190.5490  177.0100  145.7810 C   0  0  0  0  0  0  0  0  0  0  0  0
  189.2990  176.8480  145.3450 C   0  0  0  0  0  3  0  0  0  0  0  0
  190.1500  177.1980  139.3850 C   0  0  0  0  0  0  0  0  0  0  0  0
  191.0310  176.2140  146.9380 C   0  0  0  0  0  1  0  0  0  0  0  0
  189.7280  178.5110  143.4200 C   0  0  0  0  0  0  0  0  0  0  0  0
  191.1990  177.2370  140.2480 N   0  0  0  0  0  0  0  0  0  0  0  0
  191.0690  178.7030  144.0900 C   0  0  0  0  0  2  0  0  0  0  0  0
  189.3650  176.4840  135.7590 C   0  0  0  0  0  2  0  0  0  0  0  0
  188.0800  176.5370  134.9330 C   0  0  0  0  0  2  0  0  0  0  0  0
  187.8000  175.1670  134.3530 C   0  0  0  0  0  2  0  0  0  0  0  0
  186.6340  174.2730  135.4210 S   0  0  0  0  0  0  0  0  0  0  0  0
  185.2630  175.4080  135.0510 C   0  0  0  0  0  2  0  0  0  0  0  0
  183.0920  178.3660  139.8060 C   0  0  0  0  0  3  0  0  0  0  0  0
  182.6010  175.9700  139.2700 C   0  0  0  0  0  2  0  0  0  0  0  0
  183.6540  176.1380  138.2740 N   0  0  0  0  0  0  0  0  0  0  0  0
  183.9020  178.4990  138.5740 C   0  0  0  0  0  3  0  0  0  0  0  0
  184.7110  175.9700  136.3130 C   0  0  0  0  0  0  0  0  0  0  0  0
  184.8290  177.3120  136.6780 O   0  0  0  0  0  0  0  0  0  0  0  0
  182.5120  177.2020  140.1450 C   0  0  0  0  0  3  0  0  0  0  0  0
  184.0130  175.2670  137.2100 C   0  0  0  0  0  3  0  0  0  0  0  0
  184.1420  177.3990  137.8720 C   0  0  0  0  0  0  0  0  0  0  0  0
  191.3240  175.6460  137.8140 C   0  0  0  0  0  2  0  0  0  0  0  0
  192.9000  176.1780  137.0820 S   0  0  0  0  0  0  0  0  0  0  0  0
  193.8100  174.7580  137.7620 C   0  0  0  0  0  2  0  0  0  0  0  0
  194.8890  175.2070  138.6310 N   0  0  0  0  0  2  0  0  0  0  0  0
  195.8700  174.3220  139.1780 C   0  0  0  0  0  0  0  0  0  0  0  0
  195.8160  173.0840  138.9530 O   0  0  0  0  0  0  0  0  0  0  0  0
  196.9780  174.8750  140.0060 C   0  0  0  0  0  2  0  0  0  0  0  0
  198.0460  175.3760  137.8120 O   0  0  0  0  0  0  0  0  0  0  0  0
  199.3310  175.0860  139.6880 O   0  0  0  0  0  1  0  0  0  0  0  0
  198.1850  175.1030  139.1660 C   0  0  0  0  0  0  0  0  0  0  0  0
  1 35  1  1  0  0  0
  1 16  1  0  0  0  0
  2 10  1  0  0  0  0
  2  1  1  0  0  0  0
  3  4  1  0  0  0  0
  4  8  2  0  0  0  0
  4  9  1  0  0  0  0
  5  9  1  0  0  0  0
  6 14  2  0  0  0  0
  7 11  1  0  0  0  0
  8 12  1  0  0  0  0
  9 18  2  0  0  0  0
 10 13  1  0  0  0  0
 11 15  2  0  0  0  0
 12  7  2  0  0  0  0
 13  3  1  0  0  0  0
 14 17  1  0  0  0  0
 15 14  1  0  0  0  0
 16  3  2  0  0  0  0
 16 19  1  0  0  0  0
 18 20  1  0  0  0  0
 18 11  1  0  0  0  0
 19  5  2  0  0  0  0
 20  6  1  0  0  0  0
 21  2  1  0  0  0  0
 22 21  1  0  0  0  0
 23 22  1  0  0  0  0
 23 24  1  0  0  0  0
 25 24  1  0  0  0  0
 25 30  1  0  0  0  0
 26 32  2  0  0  0  0
 27 32  1  0  0  0  0
 28 27  1  0  0  0  0
 29 26  1  0  0  0  0
 30 31  1  0  0  0  0
 30 33  2  0  0  0  0
 31 34  1  0  0  0  0
 33 28  1  0  0  0  0
 34 28  1  0  0  0  0
 34 29  2  0  0  0  0
 36 37  1  0  0  0  0
 36 35  1  0  0  0  0
 37 38  1  0  0  0  0
 38 39  1  0  0  0  0
 39 41  1  0  0  0  0
 40 39  2  0  0  0  0
 42 44  2  0  0  0  0
 44 43  1  0  0  0  0
 44 41  1  0  0  0  0
M  END
>  <MODEL>
1

>  <REMARK>
 VINA RESULT:      -8.1      0.000      0.000
  Name = 
  12 active torsions:
  status: ('A' for Active; 'I' for Inactive)
    1  A    between atoms: C_1  and  C_25
    2  A    between atoms: C_1  and  C_34
    3  A    between atoms: S_2  and  C_34
    4  A    between atoms: S_2  and  C_41
    5  A    between atoms: C_3  and  S_8
    6  A    between atoms: C_3  and  N_27
    7  A    between atoms: C_4  and  C_36
    8  A    between atoms: N_5  and  C_25
    9  A    between atoms: S_8  and  C_36
   10  A    between atoms: C_12  and  C_22
   11  A    between atoms: C_12  and  C_31
   12  A    between atoms: C_35  and  C_41
                            x       y       z     vdW  Elec       q    Type
                         _______ _______ _______ _____ _____    ______ ____

>  <TORSDO>
F 12

$$$$
=
 OpenBabel10232407583D

 44 49  0  0  1  0  0  0  0  0999 V2000
  184.6150  178.7150  140.9770 C   0  0  1  0  0  3  0  0  0  0  0  0
  184.7290  178.2940  142.3880 N   0  0  0  0  0  0  0  0  0  0  0  0
  187.1020  178.2020  140.8410 C   0  0  0  0  0  0  0  0  0  0  0  0
  188.2610  177.9940  140.0770 C   0  0  0  0  0  0  0  0  0  0  0  0
  186.9700  178.3770  138.1070 N   0  0  0  0  0  0  0  0  0  0  0  0
  189.3180  177.5600  135.3830 C   0  0  0  0  0  3  0  0  0  0  0  0
  190.5180  176.2560  139.1170 N   0  0  0  0  0  0  0  0  0  0  0  0
  189.5050  177.7340  140.7500 N   0  0  0  0  0  0  0  0  0  0  0  0
  188.1770  178.1200  138.6810 C   0  0  0  0  0  0  0  0  0  0  0  0
  185.9690  178.8040  142.9710 C   0  0  0  0  0  2  0  0  0  0  0  0
  190.0220  176.6510  137.9840 C   0  0  0  0  0  0  0  0  0  0  0  0
  190.4960  176.9850  140.3550 C   0  0  0  0  0  3  0  0  0  0  0  0
  187.1530  178.0900  142.3390 C   0  0  0  0  0  2  0  0  0  0  0  0
  189.7520  176.1720  135.6070 C   0  0  0  0  0  0  0  0  0  0  0  0
  190.1040  175.7510  136.8230 C   0  0  0  0  0  3  0  0  0  0  0  0
  185.8790  178.4340  140.1880 C   0  0  2  0  0  3  0  0  0  0  0  0
  189.8440  175.2410  134.4540 C   0  0  0  0  0  1  0  0  0  0  0  0
  189.4120  178.0200  137.8370 C   0  0  0  0  0  0  0  0  0  0  0  0
  185.8630  178.5290  138.8330 N   0  0  0  0  0  0  0  0  0  0  0  0
  189.1770  178.4180  136.3980 C   0  0  0  0  0  3  0  0  0  0  0  0
  183.6000  178.8080  143.1790 C   0  0  0  0  0  2  0  0  0  0  0  0
  184.0370  179.6530  144.3740 C   0  0  0  0  0  2  0  0  0  0  0  0
  184.2990  178.7470  145.5590 C   0  0  0  0  0  2  0  0  0  0  0  0
  185.6420  179.4310  146.5720 S   0  0  0  0  0  0  0  0  0  0  0  0
  186.1420  177.7990  147.1980 C   0  0  0  0  0  2  0  0  0  0  0  0
  191.8940  176.2730  146.3870 C   0  0  0  0  0  3  0  0  0  0  0  0
  190.3220  176.9380  144.5550 C   0  0  0  0  0  2  0  0  0  0  0  0
  189.4440  177.3170  145.6560 N   0  0  0  0  0  0  0  0  0  0  0  0
  190.8120  176.3960  147.3900 C   0  0  0  0  0  3  0  0  0  0  0  0
  187.5600  177.5290  146.8390 C   0  0  0  0  0  0  0  0  0  0  0  0
  188.5100  177.0570  147.7460 O   0  0  0  0  0  0  0  0  0  0  0  0
  191.6830  176.5430  145.0880 C   0  0  0  0  0  3  0  0  0  0  0  0
  188.0670  177.6670  145.6100 C   0  0  0  0  0  3  0  0  0  0  0  0
  189.6530  176.9020  146.9890 C   0  0  0  0  0  0  0  0  0  0  0  0
  183.4130  178.0390  140.3260 C   0  0  0  0  0  2  0  0  0  0  0  0
  182.3600  179.2950  139.5410 S   0  0  0  0  0  0  0  0  0  0  0  0
  182.0530  178.2650  138.0750 C   0  0  0  0  0  2  0  0  0  0  0  0
  183.0190  177.1770  137.9970 N   0  0  0  0  0  2  0  0  0  0  0  0
  183.5620  176.7030  136.7630 C   0  0  0  0  0  0  0  0  0  0  0  0
  183.1900  177.1950  135.6650 O   0  0  0  0  0  0  0  0  0  0  0  0
  184.5940  175.6290  136.7790 C   0  0  0  0  0  2  0  0  0  0  0  0
  184.6480  173.4190  137.9270 O   0  0  0  0  0  1  0  0  0  0  0  0
  182.8140  174.0460  136.7020 O   0  0  0  0  0  0  0  0  0  0  0  0
  183.9700  174.3200  137.1170 C   0  0  0  0  0  0  0  0  0  0  0  0
  1 35  1  6  0  0  0
  1  2  1  0  0  0  0
  2 10  1  0  0  0  0
  2 21  1  0  0  0  0
  3 13  1  0  0  0  0
  4  8  1  0  0  0  0
  4  3  2  0  0  0  0
  5  9  1  0  0  0  0
  5 19  2  0  0  0  0
  6 14  1  0  0  0  0
  6 20  2  0  0  0  0
  7 12  1  0  0  0  0
  9  4  1  0  0  0  0
 11  7  2  0  0  0  0
 12  8  2  0  0  0  0
 13 10  1  0  0  0  0
 14 15  2  0  0  0  0
 15 11  1  0  0  0  0
 16 19  1  6  0  0  0
 16  3  1  0  0  0  0
 16  1  1  0  0  0  0
 17 14  1  0  0  0  0
 18 11  1  0  0  0  0
 18  9  2  0  0  0  0
 20 18  1  0  0  0  0
 21 22  1  0  0  0  0
 22 23  1  0  0  0  0
 23 24  1  0  0  0  0
 24 25  1  0  0  0  0
 26 29  1  0  0  0  0
 27 32  1  0  0  0  0
 27 28  1  0  0  0  0
 28 34  1  0  0  0  0
 30 25  1  0  0  0  0
 30 31  1  0  0  0  0
 32 26  2  0  0  0  0
 33 28  1  0  0  0  0
 33 30  2  0  0  0  0
 34 29  2  0  0  0  0
 34 31  1  0  0  0  0
 36 35  1  0  0  0  0
 37 36  1  0  0  0  0
 38 37  1  0  0  0  0
 39 41  1  0  0  0  0
 39 38  1  0  0  0  0
 40 39  2  0  0  0  0
 41 44  1  0  0  0  0
 43 44  2  0  0  0  0
 44 42  1  0  0  0  0
M  END
>  <MODEL>
2

>  <REMARK>
 VINA RESULT:      -7.9      4.646      9.810
  Name = 
  12 active torsions:
  status: ('A' for Active; 'I' for Inactive)
    1  A    between atoms: C_1  and  C_25
    2  A    between atoms: C_1  and  C_34
    3  A    between atoms: S_2  and  C_34
    4  A    between atoms: S_2  and  C_41
    5  A    between atoms: C_3  and  S_8
    6  A    between atoms: C_3  and  N_27
    7  A    between atoms: C_4  and  C_36
    8  A    between atoms: N_5  and  C_25
    9  A    between atoms: S_8  and  C_36
   10  A    between atoms: C_12  and  C_22
   11  A    between atoms: C_12  and  C_31
   12  A    between atoms: C_35  and  C_41
                            x       y       z     vdW  Elec       q    Type
                         _______ _______ _______ _____ _____    ______ ____

>  <TORSDO>
F 12

$$$$
=
 OpenBabel10232407583D

 44 49  0  0  1  0  0  0  0  0999 V2000
  188.7650  176.9620  138.4700 C   0  0  1  0  0  3  0  0  0  0  0  0
  187.6980  177.1000  137.4590 N   0  0  0  0  0  0  0  0  0  0  0  0
  189.8320  175.3480  136.8200 C   0  0  0  0  0  0  0  0  0  0  0  0
  190.9380  174.5940  136.3990 C   0  0  0  0  0  0  0  0  0  0  0  0
  192.1490  175.4110  138.2850 N   0  0  0  0  0  0  0  0  0  0  0  0
  195.5700  174.1610  137.7020 C   0  0  0  0  0  3  0  0  0  0  0  0
  193.0910  173.9470  134.4020 N   0  0  0  0  0  0  0  0  0  0  0  0
  190.8170  173.7700  135.2260 N   0  0  0  0  0  0  0  0  0  0  0  0
  192.1040  174.6160  137.1810 C   0  0  0  0  0  0  0  0  0  0  0  0
  187.3870  175.7990  136.8670 C   0  0  0  0  0  2  0  0  0  0  0  0
  193.8030  174.1150  135.4740 C   0  0  0  0  0  0  0  0  0  0  0  0
  191.7340  173.4760  134.3470 C   0  0  0  0  0  3  0  0  0  0  0  0
  188.5610  175.3400  136.0180 C   0  0  0  0  0  2  0  0  0  0  0  0
  195.9900  174.6860  136.3920 C   0  0  0  0  0  0  0  0  0  0  0  0
  195.1690  174.6440  135.3420 C   0  0  0  0  0  3  0  0  0  0  0  0
  189.9510  176.1730  137.9520 C   0  0  2  0  0  3  0  0  0  0  0  0
  197.3630  175.2270  136.2290 C   0  0  0  0  0  1  0  0  0  0  0  0
  193.2670  173.7370  136.8300 C   0  0  0  0  0  0  0  0  0  0  0  0
  191.1120  176.1600  138.6570 N   0  0  0  0  0  0  0  0  0  0  0  0
  194.3300  173.7080  137.9050 C   0  0  0  0  0  3  0  0  0  0  0  0
  186.4700  177.6380  138.0650 C   0  0  0  0  0  2  0  0  0  0  0  0
  185.1940  177.0870  137.4310 C   0  0  0  0  0  2  0  0  0  0  0  0
  183.9990  177.5160  138.2560 C   0  0  0  0  0  2  0  0  0  0  0  0
  184.4190  178.9930  139.2260 S   0  0  0  0  0  0  0  0  0  0  0  0
  183.1830  178.6300  140.5090 C   0  0  0  0  0  2  0  0  0  0  0  0
  185.0760  178.5370  146.2080 C   0  0  0  0  0  3  0  0  0  0  0  0
  186.4180  177.7510  144.2460 C   0  0  0  0  0  2  0  0  0  0  0  0
  185.3520  178.3690  143.4650 N   0  0  0  0  0  0  0  0  0  0  0  0
  183.9250  178.8400  145.3280 C   0  0  0  0  0  3  0  0  0  0  0  0
  183.8290  178.6160  141.8490 C   0  0  0  0  0  0  0  0  0  0  0  0
  183.1610  178.9340  143.0320 O   0  0  0  0  0  0  0  0  0  0  0  0
  186.2320  178.0590  145.7160 C   0  0  0  0  0  3  0  0  0  0  0  0
  185.0980  178.2600  142.0710 C   0  0  0  0  0  3  0  0  0  0  0  0
  184.1080  178.7430  144.0170 C   0  0  0  0  0  0  0  0  0  0  0  0
  189.2060  178.3380  138.9560 C   0  0  0  0  0  2  0  0  0  0  0  0
  188.4570  178.6790  140.5760 S   0  0  0  0  0  0  0  0  0  0  0  0
  188.9690  177.0750  141.2620 C   0  0  0  0  0  2  0  0  0  0  0  0
  189.6020  177.2490  142.5620 N   0  0  0  0  0  2  0  0  0  0  0  0
  191.0040  177.4830  142.7230 C   0  0  0  0  0  0  0  0  0  0  0  0
  191.7700  177.5100  141.7240 O   0  0  0  0  0  0  0  0  0  0  0  0
  191.5580  177.7140  144.0860 C   0  0  0  0  0  2  0  0  0  0  0  0
  191.9360  175.2510  144.0870 O   0  0  0  0  0  0  0  0  0  0  0  0
  191.6890  176.3890  146.0630 O   0  0  0  0  0  1  0  0  0  0  0  0
  191.7160  176.4200  144.8040 C   0  0  0  0  0  0  0  0  0  0  0  0
  1 35  1  6  0  0  0
  2 21  1  0  0  0  0
  2  1  1  0  0  0  0
  4  3  2  0  0  0  0
  4  9  1  0  0  0  0
  5 19  2  0  0  0  0
  6 20  2  0  0  0  0
  7 11  2  0  0  0  0
  8  4  1  0  0  0  0
  9  5  1  0  0  0  0
 10  2  1  0  0  0  0
 11 18  1  0  0  0  0
 12  7  1  0  0  0  0
 12  8  2  0  0  0  0
 13  3  1  0  0  0  0
 13 10  1  0  0  0  0
 14  6  1  0  0  0  0
 15 11  1  0  0  0  0
 15 14  2  0  0  0  0
 16  3  1  1  0  0  0
 16  1  1  0  0  0  0
 16 19  1  0  0  0  0
 17 14  1  0  0  0  0
 18  9  2  0  0  0  0
 18 20  1  0  0  0  0
 22 21  1  0  0  0  0
 22 23  1  0  0  0  0
 23 24  1  0  0  0  0
 24 25  1  0  0  0  0
 25 30  1  0  0  0  0
 27 32  1  0  0  0  0
 28 34  1  0  0  0  0
 28 27  1  0  0  0  0
 29 26  1  0  0  0  0
 30 33  2  0  0  0  0
 30 31  1  0  0  0  0
 31 34  1  0  0  0  0
 32 26  2  0  0  0  0
 33 28  1  0  0  0  0
 34 29  2  0  0  0  0
 35 36  1  0  0  0  0
 36 37  1  0  0  0  0
 37 38  1  0  0  0  0
 38 39  1  0  0  0  0
 39 41  1  0  0  0  0
 40 39  2  0  0  0  0
 41 44  1  0  0  0  0
 42 44  2  0  0  0  0
 44 43  1  0  0  0  0
M  END
>  <MODEL>
3

>  <REMARK>
 VINA RESULT:      -7.8      3.353      7.227
  Name = 
  12 active torsions:
  status: ('A' for Active; 'I' for Inactive)
    1  A    between atoms: C_1  and  C_25
    2  A    between atoms: C_1  and  C_34
    3  A    between atoms: S_2  and  C_34
    4  A    between atoms: S_2  and  C_41
    5  A    between atoms: C_3  and  S_8
    6  A    between atoms: C_3  and  N_27
    7  A    between atoms: C_4  and  C_36
    8  A    between atoms: N_5  and  C_25
    9  A    between atoms: S_8  and  C_36
   10  A    between atoms: C_12  and  C_22
   11  A    between atoms: C_12  and  C_31
   12  A    between atoms: C_35  and  C_41
                            x       y       z     vdW  Elec       q    Type
                         _______ _______ _______ _____ _____    ______ ____

>  <TORSDO>
F 12

$$$$
=
 OpenBabel10232407583D

 44 49  0  0  1  0  0  0  0  0999 V2000
  189.4070  178.1200  139.0790 C   0  0  1  0  0  3  0  0  0  0  0  0
  190.3900  177.1020  139.5030 N   0  0  0  0  0  0  0  0  0  0  0  0
  188.3640  176.2440  137.7160 C   0  0  0  0  0  0  0  0  0  0  0  0
  187.2960  175.7410  136.9580 C   0  0  0  0  0  0  0  0  0  0  0  0
  186.1520  177.8090  137.2910 N   0  0  0  0  0  0  0  0  0  0  0  0
  182.8100  177.1670  135.8680 C   0  0  0  0  0  3  0  0  0  0  0  0
  185.0720  173.7680  136.5070 N   0  0  0  0  0  0  0  0  0  0  0  0
  187.4020  174.4260  136.3840 N   0  0  0  0  0  0  0  0  0  0  0  0
  186.1860  176.5710  136.7260 C   0  0  0  0  0  0  0  0  0  0  0  0
  190.7630  176.2550  138.3700 C   0  0  0  0  0  2  0  0  0  0  0  0
  184.4220  174.8870  136.4050 C   0  0  0  0  0  0  0  0  0  0  0  0
  186.4550  173.5540  136.1800 C   0  0  0  0  0  3  0  0  0  0  0  0
  189.5750  175.3930  137.9750 C   0  0  0  0  0  2  0  0  0  0  0  0
  182.2630  176.0070  136.5910 C   0  0  0  0  0  0  0  0  0  0  0  0
  183.0130  174.9290  136.8230 C   0  0  0  0  0  3  0  0  0  0  0  0
  188.2560  177.5200  138.2980 C   0  0  2  0  0  3  0  0  0  0  0  0
  180.8440  176.0210  137.0260 C   0  0  0  0  0  1  0  0  0  0  0  0
  185.0760  176.1150  135.8280 C   0  0  0  0  0  0  0  0  0  0  0  0
  187.1490  178.2660  138.0470 N   0  0  0  0  0  0  0  0  0  0  0  0
  184.0930  177.2170  135.5000 C   0  0  0  0  0  3  0  0  0  0  0  0
  191.6090  177.7380  140.0250 C   0  0  0  0  0  2  0  0  0  0  0  0
  192.2360  176.9750  141.1900 C   0  0  0  0  0  2  0  0  0  0  0  0
  191.5470  177.3720  142.4790 C   0  0  0  0  0  2  0  0  0  0  0  0
  191.0430  175.8850  143.3910 S   0  0  0  0  0  0  0  0  0  0  0  0
  191.1220  176.7210  145.0040 C   0  0  0  0  0  2  0  0  0  0  0  0
  185.4040  178.2800  145.9740 C   0  0  0  0  0  3  0  0  0  0  0  0
  187.1970  178.2740  147.7210 C   0  0  0  0  0  2  0  0  0  0  0  0
  188.0880  178.0650  146.5860 N   0  0  0  0  0  0  0  0  0  0  0  0
  186.3540  177.7610  144.9650 C   0  0  0  0  0  3  0  0  0  0  0  0
  189.7720  177.2130  145.3890 C   0  0  0  0  0  0  0  0  0  0  0  0
  188.6650  177.1760  144.5400 O   0  0  0  0  0  0  0  0  0  0  0  0
  185.7880  178.5410  147.2350 C   0  0  0  0  0  3  0  0  0  0  0  0
  189.4620  177.7020  146.5930 C   0  0  0  0  0  3  0  0  0  0  0  0
  187.6320  177.6740  145.3080 C   0  0  0  0  0  0  0  0  0  0  0  0
  188.8920  178.8850  140.2930 C   0  0  0  0  0  2  0  0  0  0  0  0
  187.9580  177.7590  141.3700 S   0  0  0  0  0  0  0  0  0  0  0  0
  186.5750  178.9250  141.5580 C   0  0  0  0  0  2  0  0  0  0  0  0
  185.3080  178.2750  141.2510 N   0  0  0  0  0  2  0  0  0  0  0  0
  184.3760  178.7930  140.2990 C   0  0  0  0  0  0  0  0  0  0  0  0
  184.6040  179.8790  139.7000 O   0  0  0  0  0  0  0  0  0  0  0  0
  183.1330  178.0310  139.9980 C   0  0  0  0  0  2  0  0  0  0  0  0
  182.0130  178.8850  142.0540 O   0  0  0  0  0  1  0  0  0  0  0  0
  180.9570  179.0060  140.0220 O   0  0  0  0  0  0  0  0  0  0  0  0
  181.9680  178.6530  140.6850 C   0  0  0  0  0  0  0  0  0  0  0  0
  1  2  1  0  0  0  0
  1 35  1  1  0  0  0
  2 21  1  0  0  0  0
  3 13  1  0  0  0  0
  4  3  2  0  0  0  0
  5 19  2  0  0  0  0
  6 14  1  0  0  0  0
  8  4  1  0  0  0  0
  9  4  1  0  0  0  0
  9  5  1  0  0  0  0
 10  2  1  0  0  0  0
 11  7  2  0  0  0  0
 11 15  1  0  0  0  0
 12  8  2  0  0  0  0
 12  7  1  0  0  0  0
 13 10  1  0  0  0  0
 14 15  2  0  0  0  0
 14 17  1  0  0  0  0
 16  3  1  6  0  0  0
 16  1  1  0  0  0  0
 18 11  1  0  0  0  0
 18  9  2  0  0  0  0
 19 16  1  0  0  0  0
 20 18  1  0  0  0  0
 20  6  2  0  0  0  0
 21 22  1  0  0  0  0
 22 23  1  0  0  0  0
 23 24  1  0  0  0  0
 24 25  1  0  0  0  0
 25 30  1  0  0  0  0
 26 32  2  0  0  0  0
 28 33  1  0  0  0  0
 28 27  1  0  0  0  0
 29 34  2  0  0  0  0
 29 26  1  0  0  0  0
 30 33  2  0  0  0  0
 31 34  1  0  0  0  0
 31 30  1  0  0  0  0
 32 27  1  0  0  0  0
 34 28  1  0  0  0  0
 35 36  1  0  0  0  0
 36 37  1  0  0  0  0
 38 37  1  0  0  0  0
 39 38  1  0  0  0  0
 40 39  2  0  0  0  0
 41 39  1  0  0  0  0
 41 44  1  0  0  0  0
 43 44  2  0  0  0  0
 44 42  1  0  0  0  0
M  END
>  <MODEL>
4

>  <REMARK>
 VINA RESULT:      -7.6      4.047      9.656
  Name = 
  12 active torsions:
  status: ('A' for Active; 'I' for Inactive)
    1  A    between atoms: C_1  and  C_25
    2  A    between atoms: C_1  and  C_34
    3  A    between atoms: S_2  and  C_34
    4  A    between atoms: S_2  and  C_41
    5  A    between atoms: C_3  and  S_8
    6  A    between atoms: C_3  and  N_27
    7  A    between atoms: C_4  and  C_36
    8  A    between atoms: N_5  and  C_25
    9  A    between atoms: S_8  and  C_36
   10  A    between atoms: C_12  and  C_22
   11  A    between atoms: C_12  and  C_31
   12  A    between atoms: C_35  and  C_41
                            x       y       z     vdW  Elec       q    Type
                         _______ _______ _______ _____ _____    ______ ____

>  <TORSDO>
F 12

$$$$
=
 OpenBabel10232407583D

 44 49  0  0  1  0  0  0  0  0999 V2000
  188.0690  177.8380  138.2870 C   0  0  1  0  0  3  0  0  0  0  0  0
  188.5990  178.4760  139.5090 N   0  0  0  0  0  0  0  0  0  0  0  0
  185.7780  178.3130  139.2820 C   0  0  0  0  0  0  0  0  0  0  0  0
  184.3840  178.3930  139.1420 C   0  0  0  0  0  0  0  0  0  0  0  0
  184.6250  177.7090  136.8680 N   0  0  0  0  0  0  0  0  0  0  0  0
  181.2160  178.0750  135.5070 C   0  0  0  0  0  3  0  0  0  0  0  0
  181.8110  179.9480  139.1430 N   0  0  0  0  0  0  0  0  0  0  0  0
  183.5850  178.7510  140.2830 N   0  0  0  0  0  0  0  0  0  0  0  0
  183.8120  178.0480  137.9060 C   0  0  0  0  0  0  0  0  0  0  0  0
  187.8220  178.0600  140.6760 C   0  0  0  0  0  2  0  0  0  0  0  0
  181.7470  179.3810  137.9770 C   0  0  0  0  0  0  0  0  0  0  0  0
  182.4690  179.4250  140.3080 C   0  0  0  0  0  3  0  0  0  0  0  0
  186.4280  178.6600  140.5920 C   0  0  0  0  0  2  0  0  0  0  0  0
  180.8310  179.4800  135.7180 C   0  0  0  0  0  0  0  0  0  0  0  0
  181.0590  180.0860  136.8830 C   0  0  0  0  0  2  0  0  0  0  0  0
  186.5660  177.9850  138.1650 C   0  0  0  0  0  0  0  0  0  0  0  0
  180.1360  180.2160  134.6320 C   0  0  0  0  0  1  0  0  0  0  0  0
  182.3220  178.0090  137.7470 C   0  0  0  0  0  0  0  0  0  0  0  0
  185.9510  177.6770  136.9930 N   0  0  0  0  0  0  0  0  0  0  0  0
  181.8850  177.3890  136.4390 C   0  0  0  0  0  3  0  0  0  0  0  0
  190.0030  178.0970  139.7300 C   0  0  0  0  0  2  0  0  0  0  0  0
  190.1810  177.0600  140.8370 C   0  0  0  0  0  2  0  0  0  0  0  0
  191.5080  177.2870  141.5290 C   0  0  0  0  0  2  0  0  0  0  0  0
  191.2260  177.8660  143.2270 S   0  0  0  0  0  0  0  0  0  0  0  0
  190.1780  176.4420  143.6490 C   0  0  0  0  0  2  0  0  0  0  0  0
  185.6510  178.5980  146.9550 C   0  0  0  0  0  3  0  0  0  0  0  0
  185.5530  178.2060  144.4840 C   0  0  0  0  0  2  0  0  0  0  0  0
  186.8260  177.5260  144.6970 N   0  0  0  0  0  0  0  0  0  0  0  0
  187.0670  178.1690  146.9890 C   0  0  0  0  0  3  0  0  0  0  0  0
  188.9410  176.9040  144.3340 C   0  0  0  0  0  0  0  0  0  0  0  0
  188.8890  177.2510  145.6840 O   0  0  0  0  0  0  0  0  0  0  0  0
  184.9420  178.5950  145.8130 C   0  0  0  0  0  3  0  0  0  0  0  0
  187.7620  177.0760  143.7270 C   0  0  0  0  0  3  0  0  0  0  0  0
  187.5860  177.6630  145.8780 C   0  0  0  0  0  0  0  0  0  0  0  0
  188.7670  178.4070  137.0570 C   0  0  0  0  0  2  0  0  0  0  0  0
  189.0380  177.0820  135.8430 S   0  0  0  0  0  0  0  0  0  0  0  0
  189.6870  175.9330  137.0940 C   0  0  0  0  0  2  0  0  0  0  0  0
  191.1430  175.9760  137.1260 N   0  0  0  0  0  2  0  0  0  0  0  0
  191.9560  174.8060  137.2500 C   0  0  0  0  0  0  0  0  0  0  0  0
  191.4300  173.6680  137.3780 O   0  0  0  0  0  0  0  0  0  0  0  0
  193.4390  174.9340  137.2100 C   0  0  0  0  0  2  0  0  0  0  0  0
  194.6240  176.9090  136.2610 O   0  0  0  0  0  1  0  0  0  0  0  0
  193.5360  175.4360  134.8820 O   0  0  0  0  0  0  0  0  0  0  0  0
  193.8520  175.7740  136.0520 C   0  0  0  0  0  0  0  0  0  0  0  0
  1 35  1  6  0  0  0
  1  2  1  0  0  0  0
  2 21  1  0  0  0  0
  2 10  1  0  0  0  0
  3 13  1  0  0  0  0
  4  3  1  0  0  0  0
  4  8  1  0  0  0  0
  5 19  2  0  0  0  0
  5  9  1  0  0  0  0
  6 14  2  0  0  0  0
  6 20  1  0  0  0  0
  7 12  1  0  0  0  0
  8 12  2  0  0  0  0
  9  4  2  0  0  0  0
 11  7  2  0  0  0  0
 13 10  1  0  0  0  0
 14 15  1  0  0  0  0
 15 11  1  0  0  0  0
 16  1  1  0  0  0  0
 16  3  2  0  0  0  0
 17 14  1  0  0  0  0
 18  9  1  0  0  0  0
 18 11  1  0  0  0  0
 19 16  1  0  0  0  0
 20 18  2  0  0  0  0
 21 22  1  0  0  0  0
 22 23  1  0  0  0  0
 23 24  1  0  0  0  0
 24 25  1  0  0  0  0
 25 30  1  0  0  0  0
 26 29  1  0  0  0  0
 27 28  1  0  0  0  0
 27 32  1  0  0  0  0
 28 34  1  0  0  0  0
 30 31  1  0  0  0  0
 31 34  1  0  0  0  0
 32 26  2  0  0  0  0
 33 30  2  0  0  0  0
 33 28  1  0  0  0  0
 34 29  2  0  0  0  0
 36 35  1  0  0  0  0
 36 37  1  0  0  0  0
 37 38  1  0  0  0  0
 38 39  1  0  0  0  0
 39 40  2  0  0  0  0
 41 39  1  0  0  0  0
 43 44  2  0  0  0  0
 44 42  1  0  0  0  0
 44 41  1  0  0  0  0
M  END
>  <MODEL>
5

>  <REMARK>
 VINA RESULT:      -7.3      3.228      7.749
  Name = 
  12 active torsions:
  status: ('A' for Active; 'I' for Inactive)
    1  A    between atoms: C_1  and  C_25
    2  A    between atoms: C_1  and  C_34
    3  A    between atoms: S_2  and  C_34
    4  A    between atoms: S_2  and  C_41
    5  A    between atoms: C_3  and  S_8
    6  A    between atoms: C_3  and  N_27
    7  A    between atoms: C_4  and  C_36
    8  A    between atoms: N_5  and  C_25
    9  A    between atoms: S_8  and  C_36
   10  A    between atoms: C_12  and  C_22
   11  A    between atoms: C_12  and  C_31
   12  A    between atoms: C_35  and  C_41
                            x       y       z     vdW  Elec       q    Type
                         _______ _______ _______ _____ _____    ______ ____

>  <TORSDO>
F 12

$$$$
=
 OpenBabel10232407583D

 44 49  0  0  1  0  0  0  0  0999 V2000
  185.8060  178.1650  142.6290 C   0  0  1  0  0  3  0  0  0  0  0  0
  185.6970  178.5890  144.0400 N   0  0  0  0  0  0  0  0  0  0  0  0
  183.3360  178.7500  142.4780 C   0  0  0  0  0  0  0  0  0  0  0  0
  182.1890  178.9910  141.7080 C   0  0  0  0  0  0  0  0  0  0  0  0
  183.4800  178.5700  139.7460 N   0  0  0  0  0  0  0  0  0  0  0  0
  181.1720  179.4540  137.0070 C   0  0  0  0  0  3  0  0  0  0  0  0
  179.9890  180.7950  140.7330 N   0  0  0  0  0  0  0  0  0  0  0  0
  180.9490  179.2880  142.3730 N   0  0  0  0  0  0  0  0  0  0  0  0
  182.2770  178.8620  140.3120 C   0  0  0  0  0  0  0  0  0  0  0  0
  184.4380  178.1160  144.6160 C   0  0  0  0  0  2  0  0  0  0  0  0
  180.4800  180.3850  139.6030 C   0  0  0  0  0  0  0  0  0  0  0  0
  179.9820  180.0660  141.9720 C   0  0  0  0  0  3  0  0  0  0  0  0
  183.2800  178.8640  143.9760 C   0  0  0  0  0  2  0  0  0  0  0  0
  180.7780  180.8550  137.2280 C   0  0  0  0  0  0  0  0  0  0  0  0
  180.4320  181.2860  138.4410 C   0  0  0  0  0  3  0  0  0  0  0  0
  184.5560  178.4820  141.8330 C   0  0  2  0  0  3  0  0  0  0  0  0
  180.7210  181.7870  136.0740 C   0  0  0  0  0  1  0  0  0  0  0  0
  181.0510  178.9980  139.4610 C   0  0  0  0  0  0  0  0  0  0  0  0
  184.5770  178.3860  140.4780 N   0  0  0  0  0  0  0  0  0  0  0  0
  181.2820  178.5930  138.0230 C   0  0  0  0  0  3  0  0  0  0  0  0
  186.8050  178.0420  144.8370 C   0  0  0  0  0  2  0  0  0  0  0  0
  186.3460  177.3930  146.1420 C   0  0  0  0  0  2  0  0  0  0  0  0
  186.9060  178.1710  147.3140 C   0  0  0  0  0  2  0  0  0  0  0  0
  187.8850  177.0670  148.3730 S   0  0  0  0  0  0  0  0  0  0  0  0
  189.4210  178.0020  148.1070 C   0  0  0  0  0  2  0  0  0  0  0  0
  191.6000  177.8410  142.5130 C   0  0  0  0  0  3  0  0  0  0  0  0
  191.5750  175.8970  144.0900 C   0  0  0  0  0  2  0  0  0  0  0  0
  190.7280  176.7650  144.9020 N   0  0  0  0  0  0  0  0  0  0  0  0
  191.0090  178.7190  143.5480 C   0  0  0  0  0  3  0  0  0  0  0  0
  189.9230  177.7750  146.7250 C   0  0  0  0  0  0  0  0  0  0  0  0
  190.0790  178.7930  145.7830 O   0  0  0  0  0  0  0  0  0  0  0  0
  191.8400  176.5400  142.7450 C   0  0  0  0  0  3  0  0  0  0  0  0
  190.3140  176.5890  146.2500 C   0  0  0  0  0  3  0  0  0  0  0  0
  190.6080  178.1540  144.6800 C   0  0  0  0  0  0  0  0  0  0  0  0
  187.0310  178.8050  141.9850 C   0  0  0  0  0  2  0  0  0  0  0  0
  188.1740  177.5060  141.4290 S   0  0  0  0  0  0  0  0  0  0  0  0
  188.6160  178.4060  139.9110 C   0  0  0  0  0  2  0  0  0  0  0  0
  188.4340  177.5590  138.7400 N   0  0  0  0  0  2  0  0  0  0  0  0
  188.7310  177.9930  137.4100 C   0  0  0  0  0  0  0  0  0  0  0  0
  189.1360  179.1650  137.1910 O   0  0  0  0  0  0  0  0  0  0  0  0
  188.5770  177.0400  136.2760 C   0  0  0  0  0  2  0  0  0  0  0  0
  186.6660  175.4840  136.6370 O   0  0  0  0  0  1  0  0  0  0  0  0
  186.3600  177.4550  135.5050 O   0  0  0  0  0  0  0  0  0  0  0  0
  187.1450  176.6730  136.1020 C   0  0  0  0  0  0  0  0  0  0  0  0
  1 35  1  6  0  0  0
  1  2  1  0  0  0  0
  2 10  1  0  0  0  0
  2 21  1  0  0  0  0
  3 13  1  0  0  0  0
  4  8  1  0  0  0  0
  4  3  2  0  0  0  0
  5  9  1  0  0  0  0
  5 19  2  0  0  0  0
  6 14  1  0  0  0  0
  6 20  2  0  0  0  0
  7 12  1  0  0  0  0
  9  4  1  0  0  0  0
 11  7  2  0  0  0  0
 12  8  2  0  0  0  0
 13 10  1  0  0  0  0
 14 15  2  0  0  0  0
 15 11  1  0  0  0  0
 16 19  1  6  0  0  0
 16  3  1  0  0  0  0
 16  1  1  0  0  0  0
 17 14  1  0  0  0  0
 18 11  1  0  0  0  0
 18  9  2  0  0  0  0
 20 18  1  0  0  0  0
 21 22  1  0  0  0  0
 22 23  1  0  0  0  0
 23 24  1  0  0  0  0
 25 24  1  0  0  0  0
 26 32  2  0  0  0  0
 26 29  1  0  0  0  0
 27 28  1  0  0  0  0
 28 33  1  0  0  0  0
 29 34  2  0  0  0  0
 30 25  1  0  0  0  0
 31 30  1  0  0  0  0
 32 27  1  0  0  0  0
 33 30  2  0  0  0  0
 34 28  1  0  0  0  0
 34 31  1  0  0  0  0
 36 35  1  0  0  0  0
 37 36  1  0  0  0  0
 38 37  1  0  0  0  0
 39 38  1  0  0  0  0
 40 39  2  0  0  0  0
 41 39  1  0  0  0  0
 43 44  2  0  0  0  0
 44 41  1  0  0  0  0
 44 42  1  0  0  0  0
M  END
>  <MODEL>
6

>  <REMARK>
 VINA RESULT:      -7.3      4.151      9.910
  Name = 
  12 active torsions:
  status: ('A' for Active; 'I' for Inactive)
    1  A    between atoms: C_1  and  C_25
    2  A    between atoms: C_1  and  C_34
    3  A    between atoms: S_2  and  C_34
    4  A    between atoms: S_2  and  C_41
    5  A    between atoms: C_3  and  S_8
    6  A    between atoms: C_3  and  N_27
    7  A    between atoms: C_4  and  C_36
    8  A    between atoms: N_5  and  C_25
    9  A    between atoms: S_8  and  C_36
   10  A    between atoms: C_12  and  C_22
   11  A    between atoms: C_12  and  C_31
   12  A    between atoms: C_35  and  C_41
                            x       y       z     vdW  Elec       q    Type
                         _______ _______ _______ _____ _____    ______ ____

>  <TORSDO>
F 12

$$$$
=
 OpenBabel10232407583D

 44 49  0  0  1  0  0  0  0  0999 V2000
  188.9820  177.5880  137.7680 C   0  0  1  0  0  3  0  0  0  0  0  0
  189.9630  176.5070  137.9950 N   0  0  0  0  0  0  0  0  0  0  0  0
  187.4310  175.7310  136.9840 C   0  0  0  0  0  0  0  0  0  0  0  0
  186.1480  175.2870  136.6310 C   0  0  0  0  0  0  0  0  0  0  0  0
  185.3260  177.4870  137.0530 N   0  0  0  0  0  0  0  0  0  0  0  0
  181.6700  177.0990  136.7470 C   0  0  0  0  0  3  0  0  0  0  0  0
  183.7420  173.5370  137.0690 N   0  0  0  0  0  0  0  0  0  0  0  0
  185.9720  173.9260  136.2000 N   0  0  0  0  0  0  0  0  0  0  0  0
  185.0900  176.2110  136.6430 C   0  0  0  0  0  0  0  0  0  0  0  0
  189.9090  175.5350  136.9040 C   0  0  0  0  0  2  0  0  0  0  0  0
  183.1830  174.7090  137.0380 C   0  0  0  0  0  0  0  0  0  0  0  0
  184.9410  173.1490  136.3780 C   0  0  0  0  0  3  0  0  0  0  0  0
  188.5930  174.7770  136.9700 C   0  0  0  0  0  2  0  0  0  0  0  0
  181.2760  176.0680  137.7210 C   0  0  0  0  0  0  0  0  0  0  0  0
  181.9720  174.9370  137.8420 C   0  0  0  0  0  3  0  0  0  0  0  0
  187.6050  177.0540  137.4280 C   0  0  2  0  0  3  0  0  0  0  0  0
  180.0590  176.2720  138.5480 C   0  0  0  0  0  1  0  0  0  0  0  0
  183.7280  175.8070  136.1640 C   0  0  0  0  0  0  0  0  0  0  0  0
  186.5370  177.8930  137.4300 N   0  0  0  0  0  0  0  0  0  0  0  0
  182.7830  176.9780  136.0180 C   0  0  0  0  0  3  0  0  0  0  0  0
  191.3290  177.0470  138.0660 C   0  0  0  0  0  2  0  0  0  0  0  0
  192.1590  176.4430  139.1970 C   0  0  0  0  0  2  0  0  0  0  0  0
  192.0800  177.3420  140.4130 C   0  0  0  0  0  2  0  0  0  0  0  0
  191.1000  176.5360  141.7120 S   0  0  0  0  0  0  0  0  0  0  0  0
  191.6420  177.7070  142.9930 C   0  0  0  0  0  2  0  0  0  0  0  0
  187.1480  177.6650  146.9760 C   0  0  0  0  0  3  0  0  0  0  0  0
  189.5260  177.0870  147.5030 C   0  0  0  0  0  2  0  0  0  0  0  0
  189.7870  177.6050  146.1640 N   0  0  0  0  0  0  0  0  0  0  0  0
  187.4890  177.8640  145.5490 C   0  0  0  0  0  3  0  0  0  0  0  0
  190.6630  177.7270  144.1120 C   0  0  0  0  0  0  0  0  0  0  0  0
  189.2940  177.9370  143.9380 O   0  0  0  0  0  0  0  0  0  0  0  0
  188.0820  177.3320  147.8830 C   0  0  0  0  0  3  0  0  0  0  0  0
  190.9760  177.5070  145.3930 C   0  0  0  0  0  3  0  0  0  0  0  0
  188.7700  177.8240  145.2100 C   0  0  0  0  0  0  0  0  0  0  0  0
  188.9190  178.5010  138.9870 C   0  0  0  0  0  2  0  0  0  0  0  0
  188.3570  177.5500  140.4300 S   0  0  0  0  0  0  0  0  0  0  0  0
  187.6490  179.0140  141.2440 C   0  0  0  0  0  2  0  0  0  0  0  0
  186.3720  178.6900  141.8660 N   0  0  0  0  0  2  0  0  0  0  0  0
  185.1120  178.9700  141.2510 C   0  0  0  0  0  0  0  0  0  0  0  0
  185.0550  179.5560  140.1370 O   0  0  0  0  0  0  0  0  0  0  0  0
  183.8550  178.5470  141.9270 C   0  0  0  0  0  2  0  0  0  0  0  0
  181.7530  178.7420  140.6050 O   0  0  0  0  0  1  0  0  0  0  0  0
  183.1160  176.9160  140.3540 O   0  0  0  0  0  0  0  0  0  0  0  0
  182.8880  178.0120  140.9310 C   0  0  0  0  0  0  0  0  0  0  0  0
  1  2  1  0  0  0  0
  1 35  1  1  0  0  0
  2 21  1  0  0  0  0
  4  9  1  0  0  0  0
  4  3  2  0  0  0  0
  5 19  2  0  0  0  0
  6 14  1  0  0  0  0
  8 12  2  0  0  0  0
  8  4  1  0  0  0  0
  9  5  1  0  0  0  0
 10 13  1  0  0  0  0
 10  2  1  0  0  0  0
 11  7  2  0  0  0  0
 11 15  1  0  0  0  0
 12  7  1  0  0  0  0
 13  3  1  0  0  0  0
 14 15  2  0  0  0  0
 14 17  1  0  0  0  0
 16  3  1  6  0  0  0
 16 19  1  0  0  0  0
 16  1  1  0  0  0  0
 18  9  2  0  0  0  0
 18 11  1  0  0  0  0
 20 18  1  0  0  0  0
 20  6  2  0  0  0  0
 21 22  1  0  0  0  0
 22 23  1  0  0  0  0
 23 24  1  0  0  0  0
 24 25  1  0  0  0  0
 25 30  1  0  0  0  0
 26 32  2  0  0  0  0
 27 32  1  0  0  0  0
 28 27  1  0  0  0  0
 29 26  1  0  0  0  0
 30 33  2  0  0  0  0
 31 30  1  0  0  0  0
 31 34  1  0  0  0  0
 33 28  1  0  0  0  0
 34 29  2  0  0  0  0
 34 28  1  0  0  0  0
 35 36  1  0  0  0  0
 36 37  1  0  0  0  0
 37 38  1  0  0  0  0
 39 38  1  0  0  0  0
 39 41  1  0  0  0  0
 40 39  2  0  0  0  0
 42 44  1  0  0  0  0
 43 44  2  0  0  0  0
 44 41  1  0  0  0  0
M  END
>  <MODEL>
7

>  <REMARK>
 VINA RESULT:      -7.2      3.814      9.478
  Name = 
  12 active torsions:
  status: ('A' for Active; 'I' for Inactive)
    1  A    between atoms: C_1  and  C_25
    2  A    between atoms: C_1  and  C_34
    3  A    between atoms: S_2  and  C_34
    4  A    between atoms: S_2  and  C_41
    5  A    between atoms: C_3  and  S_8
    6  A    between atoms: C_3  and  N_27
    7  A    between atoms: C_4  and  C_36
    8  A    between atoms: N_5  and  C_25
    9  A    between atoms: S_8  and  C_36
   10  A    between atoms: C_12  and  C_22
   11  A    between atoms: C_12  and  C_31
   12  A    between atoms: C_35  and  C_41
                            x       y       z     vdW  Elec       q    Type
                         _______ _______ _______ _____ _____    ______ ____

>  <TORSDO>
F 12

$$$$
=
 OpenBabel10232407583D

 44 49  0  0  1  0  0  0  0  0999 V2000
  188.7240  177.7440  137.8190 C   0  0  1  0  0  3  0  0  0  0  0  0
  189.3090  176.4080  137.5870 N   0  0  0  0  0  0  0  0  0  0  0  0
  186.4820  176.5870  137.4980 C   0  0  0  0  0  0  0  0  0  0  0  0
  185.0830  176.5990  137.5980 C   0  0  0  0  0  0  0  0  0  0  0  0
  185.2140  178.8160  138.4690 N   0  0  0  0  0  0  0  0  0  0  0  0
  181.7390  179.5390  139.4740 C   0  0  0  0  0  3  0  0  0  0  0  0
  182.5030  175.5460  138.7290 N   0  0  0  0  0  0  0  0  0  0  0  0
  184.3390  175.4520  137.1480 N   0  0  0  0  0  0  0  0  0  0  0  0
  184.4520  177.7630  138.0680 C   0  0  0  0  0  0  0  0  0  0  0  0
  188.5940  175.7200  136.5130 C   0  0  0  0  0  2  0  0  0  0  0  0
  182.3840  176.8100  138.9990 C   0  0  0  0  0  0  0  0  0  0  0  0
  183.2220  174.9770  137.6230 C   0  0  0  0  0  3  0  0  0  0  0  0
  187.1940  175.3660  136.9870 C   0  0  0  0  0  2  0  0  0  0  0  0
  181.3560  178.4930  140.4360 C   0  0  0  0  0  0  0  0  0  0  0  0
  181.6390  177.2110  140.2030 C   0  0  0  0  0  3  0  0  0  0  0  0
  187.2150  177.6960  137.9570 C   0  0  2  0  0  3  0  0  0  0  0  0
  180.6030  178.8670  141.6600 C   0  0  0  0  0  1  0  0  0  0  0  0
  182.9560  177.8590  138.0820 C   0  0  0  0  0  0  0  0  0  0  0  0
  186.5440  178.7850  138.4150 N   0  0  0  0  0  0  0  0  0  0  0  0
  182.4570  179.2540  138.3850 C   0  0  0  0  0  3  0  0  0  0  0  0
  190.7250  176.5180  137.2030 C   0  0  0  0  0  2  0  0  0  0  0  0
  191.1200  175.5670  136.0750 C   0  0  0  0  0  2  0  0  0  0  0  0
  192.5770  175.7800  135.7260 C   0  0  0  0  0  2  0  0  0  0  0  0
  193.5220  176.1610  137.2290 S   0  0  0  0  0  0  0  0  0  0  0  0
  194.0630  174.4400  137.4510 C   0  0  0  0  0  2  0  0  0  0  0  0
  199.9030  174.4560  138.8520 C   0  0  0  0  0  3  0  0  0  0  0  0
  198.8720  173.0550  137.0520 C   0  0  0  0  0  2  0  0  0  0  0  0
  197.6930  173.8760  137.3020 N   0  0  0  0  0  0  0  0  0  0  0  0
  198.5760  174.9950  139.2240 C   0  0  0  0  0  3  0  0  0  0  0  0
  195.5410  174.3880  137.6180 C   0  0  0  0  0  0  0  0  0  0  0  0
  196.2250  175.0420  138.6420 O   0  0  0  0  0  0  0  0  0  0  0  0
  200.0510  173.5840  137.8410 C   0  0  0  0  0  3  0  0  0  0  0  0
  196.3640  173.6820  136.8370 C   0  0  0  0  0  3  0  0  0  0  0  0
  197.5450  174.6850  138.4490 C   0  0  0  0  0  0  0  0  0  0  0  0
  189.3560  178.3840  139.0500 C   0  0  0  0  0  2  0  0  0  0  0  0
  189.1500  177.2840  140.4810 S   0  0  0  0  0  0  0  0  0  0  0  0
  188.3430  178.5720  141.4810 C   0  0  0  0  0  2  0  0  0  0  0  0
  187.1490  178.0470  142.1300 N   0  0  0  0  0  2  0  0  0  0  0  0
  185.9020  178.7460  142.1530 C   0  0  0  0  0  0  0  0  0  0  0  0
  185.7950  179.8880  141.6310 O   0  0  0  0  0  0  0  0  0  0  0  0
  184.7140  178.1080  142.7840 C   0  0  0  0  0  2  0  0  0  0  0  0
  185.2300  178.7590  145.1320 O   0  0  0  0  0  1  0  0  0  0  0  0
  183.3000  179.4810  144.1260 O   0  0  0  0  0  0  0  0  0  0  0  0
  184.3630  178.8100  144.0490 C   0  0  0  0  0  0  0  0  0  0  0  0
  1 16  1  0  0  0  0
  1 35  1  1  0  0  0
  2  1  1  0  0  0  0
  3  4  2  0  0  0  0
  4  9  1  0  0  0  0
  6 14  1  0  0  0  0
  7 11  2  0  0  0  0
  8  4  1  0  0  0  0
  8 12  2  0  0  0  0
  9 18  2  0  0  0  0
  9  5  1  0  0  0  0
 10 13  1  0  0  0  0
 10  2  1  0  0  0  0
 11 15  1  0  0  0  0
 12  7  1  0  0  0  0
 13  3  1  0  0  0  0
 14 17  1  0  0  0  0
 15 14  2  0  0  0  0
 16  3  1  6  0  0  0
 16 19  1  0  0  0  0
 18 20  1  0  0  0  0
 18 11  1  0  0  0  0
 19  5  2  0  0  0  0
 20  6  2  0  0  0  0
 21  2  1  0  0  0  0
 22 21  1  0  0  0  0
 23 22  1  0  0  0  0
 23 24  1  0  0  0  0
 24 25  1  0  0  0  0
 25 30  1  0  0  0  0
 26 29  1  0  0  0  0
 27 28  1  0  0  0  0
 27 32  1  0  0  0  0
 28 34  1  0  0  0  0
 30 31  1  0  0  0  0
 32 26  2  0  0  0  0
 33 28  1  0  0  0  0
 33 30  2  0  0  0  0
 34 31  1  0  0  0  0
 34 29  2  0  0  0  0
 35 36  1  0  0  0  0
 36 37  1  0  0  0  0
 37 38  1  0  0  0  0
 38 39  1  0  0  0  0
 39 41  1  0  0  0  0
 40 39  2  0  0  0  0
 41 44  1  0  0  0  0
 44 43  2  0  0  0  0
 44 42  1  0  0  0  0
M  END
>  <MODEL>
8

>  <REMARK>
 VINA RESULT:      -7.0      2.742     10.172
  Name = 
  12 active torsions:
  status: ('A' for Active; 'I' for Inactive)
    1  A    between atoms: C_1  and  C_25
    2  A    between atoms: C_1  and  C_34
    3  A    between atoms: S_2  and  C_34
    4  A    between atoms: S_2  and  C_41
    5  A    between atoms: C_3  and  S_8
    6  A    between atoms: C_3  and  N_27
    7  A    between atoms: C_4  and  C_36
    8  A    between atoms: N_5  and  C_25
    9  A    between atoms: S_8  and  C_36
   10  A    between atoms: C_12  and  C_22
   11  A    between atoms: C_12  and  C_31
   12  A    between atoms: C_35  and  C_41
                            x       y       z     vdW  Elec       q    Type
                         _______ _______ _______ _____ _____    ______ ____

>  <TORSDO>
F 12

$$$$
=
 OpenBabel10232407583D

 44 49  0  0  1  0  0  0  0  0999 V2000
  188.6900  177.7750  137.6300 C   0  0  1  0  0  3  0  0  0  0  0  0
  189.2660  176.4490  137.3260 N   0  0  0  0  0  0  0  0  0  0  0  0
  186.4370  176.6250  137.3680 C   0  0  0  0  0  0  0  0  0  0  0  0
  185.0430  176.6300  137.5280 C   0  0  0  0  0  0  0  0  0  0  0  0
  185.2110  178.8160  138.4690 N   0  0  0  0  0  0  0  0  0  0  0  0
  181.7830  179.4970  139.6490 C   0  0  0  0  0  3  0  0  0  0  0  0
  182.5160  175.5330  138.7350 N   0  0  0  0  0  0  0  0  0  0  0  0
  184.2810  175.4980  137.0720 N   0  0  0  0  0  0  0  0  0  0  0  0
  184.4330  177.7760  138.0650 C   0  0  0  0  0  0  0  0  0  0  0  0
  188.5040  175.7970  136.2610 C   0  0  0  0  0  2  0  0  0  0  0  0
  182.4080  176.7870  139.0530 C   0  0  0  0  0  0  0  0  0  0  0  0
  183.1860  175.0040  137.5790 C   0  0  0  0  0  3  0  0  0  0  0  0
  187.1270  175.4230  136.7840 C   0  0  0  0  0  2  0  0  0  0  0  0
  181.4430  178.4170  140.5900 C   0  0  0  0  0  0  0  0  0  0  0  0
  181.7160  177.1440  140.3010 C   0  0  0  0  0  3  0  0  0  0  0  0
  187.1890  177.7180  137.8320 C   0  0  2  0  0  3  0  0  0  0  0  0
  180.7440  178.7480  141.8580 C   0  0  0  0  0  1  0  0  0  0  0  0
  182.9390  177.8680  138.1480 C   0  0  0  0  0  0  0  0  0  0  0  0
  186.5380  178.7890  138.3560 N   0  0  0  0  0  0  0  0  0  0  0  0
  182.4530  179.2500  138.5200 C   0  0  0  0  0  3  0  0  0  0  0  0
  190.6630  176.5750  136.8850 C   0  0  0  0  0  2  0  0  0  0  0  0
  191.0720  175.5140  135.8650 C   0  0  0  0  0  2  0  0  0  0  0  0
  192.5810  175.4000  135.8370 C   0  0  0  0  0  2  0  0  0  0  0  0
  193.2590  175.7940  137.4740 S   0  0  0  0  0  0  0  0  0  0  0  0
  193.9330  174.1230  137.7130 C   0  0  0  0  0  2  0  0  0  0  0  0
  199.8880  174.3900  138.4420 C   0  0  0  0  0  3  0  0  0  0  0  0
  198.2110  175.3410  140.0400 C   0  0  0  0  0  2  0  0  0  0  0  0
  197.2490  174.6100  139.2230 N   0  0  0  0  0  0  0  0  0  0  0  0
  198.8070  173.9620  137.5260 C   0  0  0  0  0  3  0  0  0  0  0  0
  195.3720  174.2010  138.0810 C   0  0  0  0  0  0  0  0  0  0  0  0
  196.4080  173.7990  137.2370 O   0  0  0  0  0  0  0  0  0  0  0  0
  199.6220  175.0020  139.6090 C   0  0  0  0  0  3  0  0  0  0  0  0
  195.8300  174.6990  139.2340 C   0  0  0  0  0  3  0  0  0  0  0  0
  197.5550  174.0910  137.9470 C   0  0  0  0  0  0  0  0  0  0  0  0
  189.3750  178.3740  138.8530 C   0  0  0  0  0  2  0  0  0  0  0  0
  189.7350  177.0580  140.0530 S   0  0  0  0  0  0  0  0  0  0  0  0
  188.6090  177.7510  141.3020 C   0  0  0  0  0  2  0  0  0  0  0  0
  189.3400  178.1180  142.5070 N   0  0  0  0  0  2  0  0  0  0  0  0
  189.1680  177.4470  143.7580 C   0  0  0  0  0  0  0  0  0  0  0  0
  188.3300  176.5130  143.8780 O   0  0  0  0  0  0  0  0  0  0  0  0
  190.0030  177.8440  144.9250 C   0  0  0  0  0  2  0  0  0  0  0  0
  191.9410  176.9110  146.1810 O   0  0  0  0  0  1  0  0  0  0  0  0
  191.5990  176.3440  143.9860 O   0  0  0  0  0  0  0  0  0  0  0  0
  191.2290  177.0030  144.9930 C   0  0  0  0  0  0  0  0  0  0  0  0
  1 16  1  0  0  0  0
  1 35  1  1  0  0  0
  2  1  1  0  0  0  0
  3  4  2  0  0  0  0
  4  9  1  0  0  0  0
  6 14  1  0  0  0  0
  7 11  2  0  0  0  0
  8  4  1  0  0  0  0
  8 12  2  0  0  0  0
  9 18  2  0  0  0  0
  9  5  1  0  0  0  0
 10 13  1  0  0  0  0
 10  2  1  0  0  0  0
 11 15  1  0  0  0  0
 12  7  1  0  0  0  0
 13  3  1  0  0  0  0
 14 17  1  0  0  0  0
 15 14  2  0  0  0  0
 16  3  1  6  0  0  0
 16 19  1  0  0  0  0
 18 20  1  0  0  0  0
 18 11  1  0  0  0  0
 19  5  2  0  0  0  0
 20  6  2  0  0  0  0
 21  2  1  0  0  0  0
 22 21  1  0  0  0  0
 23 22  1  0  0  0  0
 23 24  1  0  0  0  0
 24 25  1  0  0  0  0
 25 30  1  0  0  0  0
 26 32  2  0  0  0  0
 28 33  1  0  0  0  0
 28 27  1  0  0  0  0
 29 34  2  0  0  0  0
 29 26  1  0  0  0  0
 30 33  2  0  0  0  0
 31 34  1  0  0  0  0
 31 30  1  0  0  0  0
 32 27  1  0  0  0  0
 34 28  1  0  0  0  0
 35 36  1  0  0  0  0
 36 37  1  0  0  0  0
 37 38  1  0  0  0  0
 38 39  1  0  0  0  0
 39 40  2  0  0  0  0
 39 41  1  0  0  0  0
 41 44  1  0  0  0  0
 43 44  2  0  0  0  0
 44 42  1  0  0  0  0
M  END
>  <MODEL>
9

>  <REMARK>
 VINA RESULT:      -6.9      2.727      9.232
  Name = 
  12 active torsions:
  status: ('A' for Active; 'I' for Inactive)
    1  A    between atoms: C_1  and  C_25
    2  A    between atoms: C_1  and  C_34
    3  A    between atoms: S_2  and  C_34
    4  A    between atoms: S_2  and  C_41
    5  A    between atoms: C_3  and  S_8
    6  A    between atoms: C_3  and  N_27
    7  A    between atoms: C_4  and  C_36
    8  A    between atoms: N_5  and  C_25
    9  A    between atoms: S_8  and  C_36
   10  A    between atoms: C_12  and  C_22
   11  A    between atoms: C_12  and  C_31
   12  A    between atoms: C_35  and  C_41
                            x       y       z     vdW  Elec       q    Type
                         _______ _______ _______ _____ _____    ______ ____

>  <TORSDO>
F 12

$$$$
