=
 OpenBabel10232410113D

 62 68  0  0  1  0  0  0  0  0999 V2000
  189.6780  176.9000  143.7250 C   0  0  0  0  0  0  0  0  0  0  0  0
  188.3780  177.2010  146.1580 O   0  0  0  0  0  0  0  0  0  0  0  0
  189.6260  177.2740  137.5420 C   0  0  1  0  0  3  0  0  0  0  0  0
  191.6770  176.3080  147.3410 C   0  0  0  0  0  0  0  0  0  0  0  0
  190.2730  176.4780  142.4120 C   0  0  0  0  0  2  0  0  0  0  0  0
  188.2610  176.5850  135.6730 C   0  0  0  0  0  2  0  0  0  0  0  0
  190.0970  176.9460  139.9340 C   0  0  0  0  0  0  0  0  0  0  0  0
  190.7960  176.7690  136.9860 O   0  0  0  0  0  0  0  0  0  0  0  0
  188.4780  177.6900  136.6990 C   0  0  1  0  0  3  0  0  0  0  0  0
  189.3010  177.2800  138.8230 C   0  0  0  0  0  0  0  0  0  0  0  0
  189.4860  176.9500  141.2130 C   0  0  0  0  0  0  0  0  0  0  0  0
  190.4410  176.8270  147.3740 C   0  0  0  0  0  3  0  0  0  0  0  0
  192.4020  176.1520  146.0630 C   0  0  0  0  0  3  0  0  0  0  0  0
  187.9650  177.5900  138.9540 C   0  0  0  0  0  0  0  0  0  0  0  0
  187.5100  177.3890  142.6000 O   0  0  0  0  0  0  0  0  0  0  0  0
  187.6220  177.3500  144.9850 C   0  0  0  0  0  0  0  0  0  0  0  0
  190.7150  175.9620  135.8080 C   0  0  1  0  0  3  0  0  0  0  0  0
  187.4000  177.8110  137.7530 C   0  0  1  0  0  3  0  0  0  0  0  0
  188.2310  177.2320  143.7890 C   0  0  0  0  0  0  0  0  0  0  0  0
  187.3540  177.6250  140.2100 C   0  0  0  0  0  3  0  0  0  0  0  0
  191.8060  176.3940  144.8920 C   0  0  0  0  0  3  0  0  0  0  0  0
  188.1180  177.3150  141.3450 C   0  0  0  0  0  0  0  0  0  0  0  0
  189.7940  177.3810  146.1370 C   0  0  1  0  0  3  0  0  0  0  0  0
  189.5590  176.3810  134.8760 C   0  0  0  0  0  2  0  0  0  0  0  0
  190.4000  176.8510  144.8590 C   0  0  0  0  0  0  0  0  0  0  0  0
  185.9690  178.2880  137.5070 C   0  0  2  0  0  0  0  0  0  0  0  0
  185.9950  179.3490  136.5880 O   0  0  0  0  0  1  0  0  0  0  0  0
  184.1950  177.9600  139.0280 N   0  0  0  0  0  2  0  0  0  0  0  0
  185.3510  178.7260  138.7760 N   0  0  0  0  0  0  0  0  0  0  0  0
  183.0660  178.8150  139.0980 C   0  0  0  0  0  3  0  0  0  0  0  0
  184.8360  180.0000  138.6380 O   0  0  0  0  0  0  0  0  0  0  0  0
  183.4680  180.0470  138.8580 C   0  0  0  0  0  3  0  0  0  0  0  0
  185.7620  175.8650  137.1850 O   0  0  0  0  0  1  0  0  0  0  0  0
  185.1660  177.1000  136.9190 C   0  0  2  0  0  3  0  0  0  0  0  0
  184.9280  177.2460  135.5170 O   0  0  0  0  0  0  0  0  0  0  0  0
  184.8540  176.1500  134.6540 C   0  0  0  0  0  3  0  0  0  0  0  0
  183.7480  175.6080  134.3830 O   0  0  0  0  0  0  0  0  0  0  0  0
  186.1490  177.6540  145.0610 C   0  0  0  0  0  2  0  0  0  0  0  0
  185.8060  179.1310  145.2920 C   0  0  1  0  0  3  0  0  0  0  0  0
  184.6190  179.4670  144.6380 O   0  0  0  0  0  0  0  0  0  0  0  0
  184.9600  179.5190  143.2860 C   0  0  0  0  0  1  0  0  0  0  0  0
  185.7190  179.4500  146.7820 C   0  0  0  0  0  2  0  0  0  0  0  0
  185.1630  178.2640  147.5490 C   0  0  0  0  0  1  0  0  0  0  0  0
  192.3370  175.8730  148.6050 C   0  0  0  0  0  2  0  0  0  0  0  0
  192.8360  177.0260  149.3390 N   0  0  0  0  0  2  0  0  0  0  0  0
  194.1350  176.7740  149.6140 O   0  0  0  0  0  1  0  0  0  0  0  0
  192.0600  175.9260  135.0970 C   0  0  0  0  0  2  0  0  0  0  0  0
  193.2050  175.7740  136.0850 C   0  0  0  0  0  2  0  0  0  0  0  0
  194.3470  174.9810  135.4680 C   0  0  1  0  0  3  0  0  0  0  0  0
  195.5070  177.0590  135.4470 O   0  0  0  0  0  0  0  0  0  0  0  0
  195.5950  175.8100  135.3160 C   0  0  0  0  0  0  0  0  0  0  0  0
  196.8350  175.2570  134.9780 O   0  0  0  0  0  0  0  0  0  0  0  0
  198.0170  175.4630  135.7380 C   0  0  2  0  0  3  0  0  0  0  0  0
  199.0010  174.3420  135.4650 C   0  0  0  0  0  1  0  0  0  0  0  0
  197.6970  175.4740  137.0920 O   0  0  0  0  0  1  0  0  0  0  0  0
  194.6100  173.8530  136.2490 O   0  0  0  0  0  0  0  0  0  0  0  0
  194.3160  174.2440  137.5570 C   0  0  0  0  0  2  0  0  0  0  0  0
  195.2240  173.5080  138.5220 C   0  0  0  0  0  1  0  0  0  0  0  0
  191.5610  176.6370  139.7730 C   0  0  0  0  0  2  0  0  0  0  0  0
  192.4290  177.7170  140.4060 C   0  0  0  0  0  2  0  0  0  0  0  0
  193.8050  177.7450  139.7690 C   0  0  0  0  0  2  0  0  0  0  0  0
  194.5300  176.6310  140.1860 O   0  0  0  0  0  1  0  0  0  0  0  0
  1 19  1  0  0  0  0
  1 25  2  0  0  0  0
  3  8  1  6  0  0  0
  3 10  1  0  0  0  0
  4 12  2  0  0  0  0
  4 44  1  0  0  0  0
  5  1  1  0  0  0  0
  7 11  1  0  0  0  0
  9  6  1  6  0  0  0
  9  3  1  0  0  0  0
  9 18  1  0  0  0  0
 10 14  1  0  0  0  0
 10  7  2  0  0  0  0
 11 22  2  0  0  0  0
 11  5  1  0  0  0  0
 13  4  1  0  0  0  0
 14 20  2  0  0  0  0
 15 19  1  0  0  0  0
 16 38  1  0  0  0  0
 16  2  1  0  0  0  0
 17 47  1  6  0  0  0
 17  8  1  0  0  0  0
 18 26  1  1  0  0  0
 18 14  1  0  0  0  0
 19 16  2  0  0  0  0
 20 22  1  0  0  0  0
 21 13  2  0  0  0  0
 22 15  1  0  0  0  0
 23  2  1  0  0  0  0
 23 12  1  1  0  0  0
 24  6  1  0  0  0  0
 24 17  1  0  0  0  0
 25 21  1  0  0  0  0
 25 23  1  0  0  0  0
 26 27  1  6  0  0  0
 26 29  1  0  0  0  0
 28 30  1  0  0  0  0
 29 28  1  0  0  0  0
 31 29  1  0  0  0  0
 31 32  1  0  0  0  0
 32 30  2  0  0  0  0
 34 33  1  6  0  0  0
 34 26  1  0  0  0  0
 35 34  1  0  0  0  0
 36 35  1  0  0  0  0
 37 36  2  0  0  0  0
 39 38  1  1  0  0  0
 39 42  1  0  0  0  0
 40 39  1  0  0  0  0
 41 40  1  0  0  0  0
 42 43  1  0  0  0  0
 44 45  1  0  0  0  0
 45 46  1  0  0  0  0
 47 48  1  0  0  0  0
 49 48  1  1  0  0  0
 49 56  1  0  0  0  0
 51 50  2  0  0  0  0
 51 49  1  0  0  0  0
 52 51  1  0  0  0  0
 52 53  1  0  0  0  0
 53 54  1  1  0  0  0
 53 55  1  0  0  0  0
 56 57  1  0  0  0  0
 57 58  1  0  0  0  0
 59  7  1  0  0  0  0
 59 60  1  0  0  0  0
 61 62  1  0  0  0  0
 61 60  1  0  0  0  0
M  END
>  <MODEL>
1

>  <REMARK>
 VINA RESULT:      -6.4      0.000      0.000
  Name = 
  22 active torsions:
  status: ('A' for Active; 'I' for Inactive)
    1  A    between atoms: C_1  and  C_12
    2  A    between atoms: C_1  and  C_19
    3  A    between atoms: C_2  and  C_36
    4  A    between atoms: C_2  and  C_49
    5  A    between atoms: N_4  and  C_23
    6  A    between atoms: O_5  and  C_53
    7  A    between atoms: C_8  and  C_12
    8  A    between atoms: C_11  and  O_62
    9  A    between atoms: O_13  and  C_41
   10  A    between atoms: O_13  and  C_54
   11  A    between atoms: N_14  and  C_24
   12  A    between atoms: C_15  and  C_23
   13  A    between atoms: C_24  and  C_38
   14  A    between atoms: C_24  and  C_54
   15  A    between atoms: C_34  and  C_58
   16  A    between atoms: C_35  and  O_50
   17  A    between atoms: C_36  and  C_48
   18  A    between atoms: C_36  and  O_50
   19  A    between atoms: C_37  and  C_49
   20  A    between atoms: C_39  and  C_53
   21  A    between atoms: C_48  and  O_62
   22  A    between atoms: C_53  and  C_58
                            x       y       z     vdW  Elec       q    Type
                         _______ _______ _______ _____ _____    ______ ____

>  <TORSDO>
F 22

$$$$
=
 OpenBabel10232410113D

 62 68  0  0  1  0  0  0  0  0999 V2000
  190.2940  177.1180  139.0680 C   0  0  0  0  0  0  0  0  0  0  0  0
  192.8390  177.1040  140.1730 O   0  0  0  0  0  0  0  0  0  0  0  0
  184.2250  178.2360  139.6080 C   0  0  1  0  0  3  0  0  0  0  0  0
  193.6450  176.1220  136.7870 C   0  0  0  0  0  0  0  0  0  0  0  0
  188.8970  176.8670  138.5760 C   0  0  0  0  0  2  0  0  0  0  0  0
  182.3980  177.7580  141.1140 C   0  0  0  0  0  2  0  0  0  0  0  0
  186.5160  177.6280  138.9490 C   0  0  0  0  0  0  0  0  0  0  0  0
  183.5230  177.8180  138.4830 O   0  0  0  0  0  0  0  0  0  0  0  0
  183.5310  178.7340  140.8220 C   0  0  1  0  0  3  0  0  0  0  0  0
  185.5190  178.0820  139.8320 C   0  0  0  0  0  0  0  0  0  0  0  0
  187.8290  177.4690  139.4580 C   0  0  0  0  0  0  0  0  0  0  0  0
  193.8370  176.6150  138.0200 C   0  0  0  0  0  3  0  0  0  0  0  0
  192.3050  176.1310  136.1650 C   0  0  0  0  0  3  0  0  0  0  0  0
  185.7900  178.3550  141.1540 C   0  0  0  0  0  0  0  0  0  0  0  0
  189.4090  177.7090  141.3200 O   0  0  0  0  0  0  0  0  0  0  0  0
  191.7560  177.3830  141.0200 C   0  0  0  0  0  0  0  0  0  0  0  0
  182.2650  177.1590  138.6540 C   0  0  1  0  0  3  0  0  0  0  0  0
  184.6720  178.7120  141.8140 C   0  0  1  0  0  3  0  0  0  0  0  0
  190.5100  177.4190  140.5060 C   0  0  0  0  0  0  0  0  0  0  0  0
  187.0850  178.2300  141.6650 C   0  0  0  0  0  3  0  0  0  0  0  0
  191.2220  176.5040  136.8520 C   0  0  0  0  0  3  0  0  0  0  0  0
  188.1110  177.7960  140.8120 C   0  0  0  0  0  0  0  0  0  0  0  0
  192.7310  177.3060  138.7640 C   0  0  1  0  0  3  0  0  0  0  0  0
  181.4840  177.6710  139.8810 C   0  0  0  0  0  2  0  0  0  0  0  0
  191.3540  176.9420  138.2580 C   0  0  0  0  0  0  0  0  0  0  0  0
  184.5980  179.1940  143.2620 C   0  0  2  0  0  0  0  0  0  0  0  0
  185.5600  180.2000  143.4550 O   0  0  0  0  0  1  0  0  0  0  0  0
  184.8860  178.5510  145.5130 N   0  0  0  0  0  2  0  0  0  0  0  0
  184.8420  178.0700  144.1890 N   0  0  0  0  0  0  0  0  0  0  0  0
  186.1530  178.2610  146.0810 C   0  0  0  0  0  3  0  0  0  0  0  0
  186.1190  177.5760  144.0130 O   0  0  0  0  0  0  0  0  0  0  0  0
  186.8900  177.6730  145.1610 C   0  0  0  0  0  3  0  0  0  0  0  0
  183.2030  181.0130  144.1340 O   0  0  0  0  0  1  0  0  0  0  0  0
  183.1790  179.7700  143.4990 C   0  0  2  0  0  3  0  0  0  0  0  0
  182.3370  178.8620  144.2130 O   0  0  0  0  0  0  0  0  0  0  0  0
  181.0500  178.5380  143.7770 C   0  0  0  0  0  3  0  0  0  0  0  0
  180.1480  179.4170  143.7020 O   0  0  0  0  0  0  0  0  0  0  0  0
  191.9820  177.6550  142.4840 C   0  0  0  0  0  2  0  0  0  0  0  0
  190.9150  177.0740  143.4200 C   0  0  1  0  0  3  0  0  0  0  0  0
  191.3020  175.8140  143.8830 O   0  0  0  0  0  0  0  0  0  0  0  0
  190.3720  174.9320  143.3330 C   0  0  0  0  0  1  0  0  0  0  0  0
  190.6270  178.0190  144.5820 C   0  0  0  0  0  2  0  0  0  0  0  0
  190.3050  177.2340  145.8410 C   0  0  0  0  0  1  0  0  0  0  0  0
  194.7920  175.5460  136.0270 C   0  0  0  0  0  2  0  0  0  0  0  0
  195.8370  176.5440  135.8560 N   0  0  0  0  0  2  0  0  0  0  0  0
  197.0130  175.8780  135.8930 O   0  0  0  0  0  1  0  0  0  0  0  0
  181.4530  177.2270  137.3690 C   0  0  0  0  0  2  0  0  0  0  0  0
  181.0510  175.8410  136.8930 C   0  0  0  0  0  2  0  0  0  0  0  0
  182.1100  175.2610  135.9680 C   0  0  1  0  0  3  0  0  0  0  0  0
  181.2310  173.0590  136.1730 O   0  0  0  0  0  0  0  0  0  0  0  0
  182.2660  173.7740  136.1490 C   0  0  0  0  0  0  0  0  0  0  0  0
  183.5090  173.1620  136.3490 O   0  0  0  0  0  0  0  0  0  0  0  0
  184.6200  173.8210  136.9380 C   0  0  2  0  0  3  0  0  0  0  0  0
  185.7420  173.9350  135.9250 C   0  0  0  0  0  1  0  0  0  0  0  0
  185.0630  173.0860  138.0340 O   0  0  0  0  0  1  0  0  0  0  0  0
  181.7840  175.5530  134.6410 O   0  0  0  0  0  0  0  0  0  0  0  0
  182.4860  176.7250  134.3470 C   0  0  0  0  0  2  0  0  0  0  0  0
  183.9740  176.4660  134.4580 C   0  0  0  0  0  1  0  0  0  0  0  0
  186.2050  177.3610  137.5010 C   0  0  0  0  0  2  0  0  0  0  0  0
  186.8210  178.4220  136.5970 C   0  0  0  0  0  2  0  0  0  0  0  0
  187.2190  177.8260  135.2600 C   0  0  0  0  0  2  0  0  0  0  0  0
  188.5980  177.9370  135.0970 O   0  0  0  0  0  1  0  0  0  0  0  0
  1 19  1  0  0  0  0
  2 16  1  0  0  0  0
  3  8  1  1  0  0  0
  3 10  1  0  0  0  0
  3  9  1  0  0  0  0
  4 12  2  0  0  0  0
  5  1  1  0  0  0  0
  5 11  1  0  0  0  0
  7 11  2  0  0  0  0
  7 10  1  0  0  0  0
  8 17  1  0  0  0  0
  9  6  1  1  0  0  0
  9 18  1  0  0  0  0
 10 14  2  0  0  0  0
 11 22  1  0  0  0  0
 13  4  1  0  0  0  0
 13 21  2  0  0  0  0
 14 20  1  0  0  0  0
 14 18  1  0  0  0  0
 16 38  1  0  0  0  0
 17 47  1  6  0  0  0
 17 24  1  0  0  0  0
 18 26  1  6  0  0  0
 19 16  2  0  0  0  0
 19 15  1  0  0  0  0
 21 25  1  0  0  0  0
 22 15  1  0  0  0  0
 22 20  2  0  0  0  0
 23 12  1  6  0  0  0
 23  2  1  0  0  0  0
 24  6  1  0  0  0  0
 25 23  1  0  0  0  0
 25  1  2  0  0  0  0
 26 27  1  1  0  0  0
 26 34  1  0  0  0  0
 26 29  1  0  0  0  0
 28 30  1  0  0  0  0
 29 28  1  0  0  0  0
 31 29  1  0  0  0  0
 31 32  1  0  0  0  0
 32 30  2  0  0  0  0
 34 33  1  1  0  0  0
 34 35  1  0  0  0  0
 36 35  1  0  0  0  0
 37 36  2  0  0  0  0
 39 38  1  6  0  0  0
 39 40  1  0  0  0  0
 39 42  1  0  0  0  0
 41 40  1  0  0  0  0
 42 43  1  0  0  0  0
 44  4  1  0  0  0  0
 45 46  1  0  0  0  0
 45 44  1  0  0  0  0
 48 47  1  0  0  0  0
 49 51  1  0  0  0  0
 49 48  1  1  0  0  0
 51 50  2  0  0  0  0
 51 52  1  0  0  0  0
 52 53  1  0  0  0  0
 53 54  1  6  0  0  0
 53 55  1  0  0  0  0
 56 49  1  0  0  0  0
 57 58  1  0  0  0  0
 57 56  1  0  0  0  0
 59  7  1  0  0  0  0
 60 59  1  0  0  0  0
 61 60  1  0  0  0  0
 62 61  1  0  0  0  0
M  END
>  <MODEL>
2

>  <REMARK>
 VINA RESULT:      -4.0      2.770      8.835
  Name = 
  22 active torsions:
  status: ('A' for Active; 'I' for Inactive)
    1  A    between atoms: C_1  and  C_12
    2  A    between atoms: C_1  and  C_19
    3  A    between atoms: C_2  and  C_36
    4  A    between atoms: C_2  and  C_49
    5  A    between atoms: N_4  and  C_23
    6  A    between atoms: O_5  and  C_53
    7  A    between atoms: C_8  and  C_12
    8  A    between atoms: C_11  and  O_62
    9  A    between atoms: O_13  and  C_41
   10  A    between atoms: O_13  and  C_54
   11  A    between atoms: N_14  and  C_24
   12  A    between atoms: C_15  and  C_23
   13  A    between atoms: C_24  and  C_38
   14  A    between atoms: C_24  and  C_54
   15  A    between atoms: C_34  and  C_58
   16  A    between atoms: C_35  and  O_50
   17  A    between atoms: C_36  and  C_48
   18  A    between atoms: C_36  and  O_50
   19  A    between atoms: C_37  and  C_49
   20  A    between atoms: C_39  and  C_53
   21  A    between atoms: C_48  and  O_62
   22  A    between atoms: C_53  and  C_58
                            x       y       z     vdW  Elec       q    Type
                         _______ _______ _______ _____ _____    ______ ____

>  <TORSDO>
F 22

$$$$
=
 OpenBabel10232410113D

 62 68  0  0  1  0  0  0  0  0999 V2000
  188.4650  177.4310  143.1780 C   0  0  0  0  0  0  0  0  0  0  0  0
  189.5850  177.4100  145.7160 O   0  0  0  0  0  0  0  0  0  0  0  0
  189.0550  176.6950  137.0550 C   0  0  1  0  0  3  0  0  0  0  0  0
  186.1300  178.0330  146.5850 C   0  0  0  0  0  0  0  0  0  0  0  0
  187.9410  177.7110  141.7980 C   0  0  0  0  0  2  0  0  0  0  0  0
  190.4960  177.4060  135.2520 C   0  0  0  0  0  2  0  0  0  0  0  0
  188.3620  177.1160  139.3780 C   0  0  0  0  0  0  0  0  0  0  0  0
  187.8910  177.0450  136.3800 O   0  0  0  0  0  0  0  0  0  0  0  0
  190.3030  176.3480  136.3310 C   0  0  1  0  0  3  0  0  0  0  0  0
  189.2750  176.7990  138.3550 C   0  0  0  0  0  0  0  0  0  0  0  0
  188.8650  177.2510  140.6960 C   0  0  0  0  0  0  0  0  0  0  0  0
  187.4040  177.6460  146.7460 C   0  0  0  0  0  3  0  0  0  0  0  0
  185.5000  178.0390  145.2490 C   0  0  0  0  0  3  0  0  0  0  0  0
  190.6190  176.6350  138.6060 C   0  0  0  0  0  0  0  0  0  0  0  0
  190.7540  177.0980  142.2540 O   0  0  0  0  0  0  0  0  0  0  0  0
  190.4440  177.2680  144.6160 C   0  0  0  0  0  0  0  0  0  0  0  0
  187.9900  177.7840  135.1600 C   0  0  1  0  0  3  0  0  0  0  0  0
  191.2990  176.4000  137.4690 C   0  0  1  0  0  3  0  0  0  0  0  0
  189.9260  177.2530  143.3720 C   0  0  0  0  0  0  0  0  0  0  0  0
  191.1260  176.7370  139.9050 C   0  0  0  0  0  3  0  0  0  0  0  0
  186.2090  177.7890  144.1440 C   0  0  0  0  0  3  0  0  0  0  0  0
  190.2450  177.0350  140.9550 C   0  0  0  0  0  0  0  0  0  0  0  0
  188.1990  177.0860  145.6010 C   0  0  1  0  0  3  0  0  0  0  0  0
  189.2530  177.4290  134.3480 C   0  0  0  0  0  2  0  0  0  0  0  0
  187.6510  177.4750  144.2490 C   0  0  0  0  0  0  0  0  0  0  0  0
  192.7840  176.0570  137.3650 C   0  0  2  0  0  0  0  0  0  0  0  0
  193.4770  176.7230  138.3890 O   0  0  0  0  0  1  0  0  0  0  0  0
  193.7970  175.3280  135.3630 N   0  0  0  0  0  2  0  0  0  0  0  0
  193.3120  176.4620  136.0450 N   0  0  0  0  0  0  0  0  0  0  0  0
  195.1780  175.4960  135.0860 C   0  0  0  0  0  3  0  0  0  0  0  0
  194.4530  177.2210  136.2020 O   0  0  0  0  0  0  0  0  0  0  0  0
  195.5620  176.6460  135.6020 C   0  0  0  0  0  3  0  0  0  0  0  0
  191.7060  173.8880  137.7550 O   0  0  0  0  0  1  0  0  0  0  0  0
  192.9310  174.5240  137.5380 C   0  0  2  0  0  3  0  0  0  0  0  0
  193.8600  174.1800  138.5680 O   0  0  0  0  0  0  0  0  0  0  0  0
  195.0450  173.4900  138.3030 C   0  0  0  0  0  3  0  0  0  0  0  0
  196.1280  174.1070  138.1080 O   0  0  0  0  0  0  0  0  0  0  0  0
  191.9290  177.1200  144.8230 C   0  0  0  0  0  2  0  0  0  0  0  0
  192.3300  176.2650  146.0320 C   0  0  1  0  0  3  0  0  0  0  0  0
  191.4440  176.4680  147.0920 O   0  0  0  0  0  0  0  0  0  0  0  0
  192.2140  176.2860  148.2410 C   0  0  0  0  0  1  0  0  0  0  0  0
  192.4090  174.7880  145.6610 C   0  0  0  0  0  2  0  0  0  0  0  0
  191.9610  174.5740  144.2260 C   0  0  0  0  0  1  0  0  0  0  0  0
  185.3300  178.4740  147.7640 C   0  0  0  0  0  2  0  0  0  0  0  0
  185.5830  179.8780  148.0500 N   0  0  0  0  0  2  0  0  0  0  0  0
  186.9070  180.0750  147.8670 O   0  0  0  0  0  1  0  0  0  0  0  0
  186.7110  177.6420  134.3490 C   0  0  0  0  0  2  0  0  0  0  0  0
  186.2100  176.2070  134.3500 C   0  0  0  0  0  2  0  0  0  0  0  0
  185.4430  175.9040  135.6280 C   0  0  1  0  0  3  0  0  0  0  0  0
  183.4140  177.1370  135.4610 O   0  0  0  0  0  0  0  0  0  0  0  0
  183.9530  176.0000  135.4300 C   0  0  0  0  0  0  0  0  0  0  0  0
  183.1360  174.8750  135.2720 O   0  0  0  0  0  0  0  0  0  0  0  0
  182.8460  173.9640  136.3210 C   0  0  2  0  0  3  0  0  0  0  0  0
  182.2330  172.7020  135.7480 C   0  0  0  0  0  1  0  0  0  0  0  0
  181.9450  174.5520  137.2060 O   0  0  0  0  0  1  0  0  0  0  0  0
  185.7870  174.6310  136.0910 O   0  0  0  0  0  0  0  0  0  0  0  0
  186.5900  174.0870  135.0870 C   0  0  0  0  0  2  0  0  0  0  0  0
  185.9800  172.7890  134.5970 C   0  0  0  0  0  1  0  0  0  0  0  0
  186.8930  177.2660  139.0870 C   0  0  0  0  0  2  0  0  0  0  0  0
  186.4810  178.7320  139.0460 C   0  0  0  0  0  2  0  0  0  0  0  0
  184.9900  178.8800  139.2740 C   0  0  0  0  0  2  0  0  0  0  0  0
  184.6360  180.2230  139.1610 O   0  0  0  0  0  1  0  0  0  0  0  0
  1 19  1  0  0  0  0
  1 25  2  0  0  0  0
  3  8  1  6  0  0  0
  3 10  1  0  0  0  0
  4 12  2  0  0  0  0
  4 44  1  0  0  0  0
  5  1  1  0  0  0  0
  7 11  1  0  0  0  0
  9  6  1  6  0  0  0
  9  3  1  0  0  0  0
  9 18  1  0  0  0  0
 10 14  1  0  0  0  0
 10  7  2  0  0  0  0
 11 22  2  0  0  0  0
 11  5  1  0  0  0  0
 13  4  1  0  0  0  0
 14 20  2  0  0  0  0
 15 19  1  0  0  0  0
 16 38  1  0  0  0  0
 16  2  1  0  0  0  0
 17 47  1  6  0  0  0
 17  8  1  0  0  0  0
 18 26  1  1  0  0  0
 18 14  1  0  0  0  0
 19 16  2  0  0  0  0
 20 22  1  0  0  0  0
 21 25  1  0  0  0  0
 21 13  2  0  0  0  0
 22 15  1  0  0  0  0
 23  2  1  0  0  0  0
 23 12  1  1  0  0  0
 24 17  1  0  0  0  0
 24  6  1  0  0  0  0
 25 23  1  0  0  0  0
 26 34  1  0  0  0  0
 26 27  1  1  0  0  0
 28 29  1  0  0  0  0
 29 31  1  0  0  0  0
 29 26  1  0  0  0  0
 30 28  1  0  0  0  0
 30 32  2  0  0  0  0
 32 31  1  0  0  0  0
 34 33  1  1  0  0  0
 34 35  1  0  0  0  0
 36 35  1  0  0  0  0
 37 36  2  0  0  0  0
 39 38  1  6  0  0  0
 39 40  1  0  0  0  0
 40 41  1  0  0  0  0
 42 39  1  0  0  0  0
 43 42  1  0  0  0  0
 44 45  1  0  0  0  0
 46 45  1  0  0  0  0
 47 48  1  0  0  0  0
 49 48  1  6  0  0  0
 49 56  1  0  0  0  0
 51 50  2  0  0  0  0
 51 49  1  0  0  0  0
 52 51  1  0  0  0  0
 52 53  1  0  0  0  0
 53 54  1  6  0  0  0
 53 55  1  0  0  0  0
 57 56  1  0  0  0  0
 58 57  1  0  0  0  0
 59  7  1  0  0  0  0
 60 59  1  0  0  0  0
 60 61  1  0  0  0  0
 62 61  1  0  0  0  0
M  END
>  <MODEL>
3

>  <REMARK>
 VINA RESULT:      -3.9      2.628      7.999
  Name = 
  22 active torsions:
  status: ('A' for Active; 'I' for Inactive)
    1  A    between atoms: C_1  and  C_12
    2  A    between atoms: C_1  and  C_19
    3  A    between atoms: C_2  and  C_36
    4  A    between atoms: C_2  and  C_49
    5  A    between atoms: N_4  and  C_23
    6  A    between atoms: O_5  and  C_53
    7  A    between atoms: C_8  and  C_12
    8  A    between atoms: C_11  and  O_62
    9  A    between atoms: O_13  and  C_41
   10  A    between atoms: O_13  and  C_54
   11  A    between atoms: N_14  and  C_24
   12  A    between atoms: C_15  and  C_23
   13  A    between atoms: C_24  and  C_38
   14  A    between atoms: C_24  and  C_54
   15  A    between atoms: C_34  and  C_58
   16  A    between atoms: C_35  and  O_50
   17  A    between atoms: C_36  and  C_48
   18  A    between atoms: C_36  and  O_50
   19  A    between atoms: C_37  and  C_49
   20  A    between atoms: C_39  and  C_53
   21  A    between atoms: C_48  and  O_62
   22  A    between atoms: C_53  and  C_58
                            x       y       z     vdW  Elec       q    Type
                         _______ _______ _______ _____ _____    ______ ____

>  <TORSDO>
F 22

$$$$
