=
 OpenBabel10232408523D

 51 54  0  0  1  0  0  0  0  0999 V2000
  191.4680  176.0610  146.9600 C   0  0  0  0  0  0  0  0  0  0  0  0
  187.4450  177.3130  137.4640 C   0  0  0  0  0  1  0  0  0  0  0  0
  192.1100  177.4670  142.4300 C   0  0  0  0  0  2  0  0  0  0  0  0
  191.9040  177.4800  140.9150 C   0  0  1  0  0  3  0  0  0  0  0  0
  190.5420  177.1170  147.2130 N   0  0  0  0  0  0  0  0  0  0  0  0
  193.1460  176.9650  140.1960 C   0  0  0  0  0  2  0  0  0  0  0  0
  187.9960  177.5870  141.2350 C   0  0  0  0  0  3  0  0  0  0  0  0
  191.1340  176.4940  144.5080 C   0  0  0  0  0  0  0  0  0  0  0  0
  186.2170  178.8050  142.3140 C   0  0  0  0  0  3  0  0  0  0  0  0
  187.4120  177.7900  139.9640 C   0  0  0  0  0  0  0  0  0  0  0  0
  190.4790  176.9910  139.1990 C   0  0  2  0  0  3  0  0  0  0  0  0
  187.2250  177.9560  144.8940 C   0  0  0  0  0  1  0  0  0  0  0  0
  188.0610  177.2480  138.7800 N   0  0  0  0  0  0  0  0  0  0  0  0
  190.2010  177.4150  144.8360 C   0  0  0  0  0  0  0  0  0  0  0  0
  189.9480  177.7450  146.2470 C   0  0  0  0  0  3  0  0  0  0  0  0
  189.4800  178.2290  143.7960 C   0  0  0  0  0  2  0  0  0  0  0  0
  191.8250  175.6690  145.5540 C   0  0  0  0  0  2  0  0  0  0  0  0
  190.7810  176.7070  140.5420 O   0  0  0  0  0  0  0  0  0  0  0  0
  191.5300  176.2120  143.0840 C   0  0  0  0  0  2  0  0  0  0  0  0
  191.9900  175.4510  147.9280 O   0  0  0  0  0  0  0  0  0  0  0  0
  188.0560  177.9150  143.6880 N   0  0  0  0  0  0  0  0  0  0  0  0
  185.6210  179.0270  141.0780 C   0  0  0  0  0  3  0  0  0  0  0  0
  192.9130  177.1420  138.6960 C   0  0  2  0  0  3  0  0  0  0  0  0
  189.1660  176.2950  138.8660 C   0  0  0  0  0  2  0  0  0  0  0  0
  186.2000  178.5400  139.8940 C   0  0  0  0  0  0  0  0  0  0  0  0
  191.5990  176.4620  138.2940 C   0  0  0  0  0  2  0  0  0  0  0  0
  187.4160  178.0870  142.4100 C   0  0  0  0  0  0  0  0  0  0  0  0
  194.1300  176.6880  137.8720 C   0  0  2  0  0  3  0  0  0  0  0  0
  193.8780  176.9480  136.5210 O   0  0  0  0  0  1  0  0  0  0  0  0
  194.3870  175.1910  138.0610 C   0  0  2  0  0  3  0  0  0  0  0  0
  195.3990  174.9800  139.0010 O   0  0  0  0  0  1  0  0  0  0  0  0
  194.7830  174.5110  136.7570 C   0  0  0  0  0  2  0  0  0  0  0  0
  196.3540  172.6550  136.5950 N   0  0  0  0  0  1  0  0  0  0  0  0
  196.2390  174.0810  136.8430 C   0  0  1  0  0  3  0  0  0  0  0  0
  197.3450  176.1540  136.3730 O   0  0  0  0  0  1  0  0  0  0  0  0
  198.3120  174.2320  135.6240 O   0  0  0  0  0  1  0  0  0  0  0  0
  197.0990  174.8790  135.8640 C   0  0  0  0  0  3  0  0  0  0  0  0
  185.5760  178.7980  138.6690 O   0  0  0  0  0  0  0  0  0  0  0  0
  184.2200  178.5560  138.4400 C   0  0  0  0  0  3  0  0  0  0  0  0
  183.8410  177.4580  137.8770 N   0  0  0  0  0  0  0  0  0  0  0  0
  182.4220  177.2360  137.6230 C   0  0  0  0  0  2  0  0  0  0  0  0
  182.0540  175.7570  137.7450 C   0  0  2  0  0  0  0  0  0  0  0  0
  181.7200  175.2900  136.4600 O   0  0  0  0  0  1  0  0  0  0  0  0
  180.8220  175.6880  138.6700 C   0  0  0  0  0  3  0  0  0  0  0  0
  181.0850  176.2900  139.9050 O   0  0  0  0  0  1  0  0  0  0  0  0
  180.3860  174.3770  138.8710 O   0  0  0  0  0  1  0  0  0  0  0  0
  183.1620  175.0630  138.3280 O   0  0  0  0  0  0  0  0  0  0  0  0
  183.7280  174.0480  137.5120 C   0  0  0  0  0  0  0  0  0  0  0  0
  182.7750  173.0750  137.3060 F   0  0  0  0  0  0  0  0  0  0  0  0
  184.8070  173.4470  138.1370 F   0  0  0  0  0  0  0  0  0  0  0  0
  184.1140  174.5300  136.2710 F   0  0  0  0  0  0  0  0  0  0  0  0
  1  5  1  0  0  0  0
  1 20  2  0  0  0  0
  2 13  1  0  0  0  0
  3 19  1  0  0  0  0
  4  6  1  6  0  0  0
  4  3  1  0  0  0  0
  7 27  1  0  0  0  0
  8 14  2  0  0  0  0
  8 17  1  0  0  0  0
  9 27  2  0  0  0  0
 10  7  2  0  0  0  0
 11 26  1  6  0  0  0
 11 18  1  0  0  0  0
 13 24  1  0  0  0  0
 13 10  1  0  0  0  0
 14 15  1  0  0  0  0
 15  5  2  0  0  0  0
 16 14  1  0  0  0  0
 17  1  1  0  0  0  0
 18  4  1  0  0  0  0
 19  8  1  0  0  0  0
 21 16  1  0  0  0  0
 21 12  1  0  0  0  0
 22  9  1  0  0  0  0
 23 28  1  6  0  0  0
 23  6  1  0  0  0  0
 24 11  1  0  0  0  0
 25 10  1  0  0  0  0
 25 22  2  0  0  0  0
 26 23  1  0  0  0  0
 27 21  1  0  0  0  0
 28 29  1  6  0  0  0
 28 30  1  0  0  0  0
 30 31  1  1  0  0  0
 32 34  1  0  0  0  0
 32 30  1  0  0  0  0
 34 33  1  6  0  0  0
 36 37  1  0  0  0  0
 37 35  1  0  0  0  0
 37 34  1  0  0  0  0
 38 25  1  0  0  0  0
 39 38  1  0  0  0  0
 40 39  2  0  0  0  0
 41 42  1  0  0  0  0
 41 40  1  0  0  0  0
 42 43  1  6  0  0  0
 42 47  1  0  0  0  0
 42 44  1  0  0  0  0
 44 46  1  0  0  0  0
 44 45  1  0  0  0  0
 48 50  1  0  0  0  0
 48 47  1  0  0  0  0
 49 48  1  0  0  0  0
 51 48  1  0  0  0  0
M  END
>  <MODEL>
1

>  <REMARK>
 VINA RESULT:      -7.3      0.000      0.000
  Name = 
  12 active torsions:
  status: ('A' for Active; 'I' for Inactive)
    1  A    between atoms: C_4  and  C_18
    2  A    between atoms: C_4  and  C_42
    3  A    between atoms: C_8  and  C_43
    4  A    between atoms: C_15  and  O_35
    5  A    between atoms: C_18  and  C_19
    6  A    between atoms: C_19  and  CA_23
    7  A    between atoms: C_22  and  CA_23
    8  A    between atoms: C_27  and  C_43
    9  A    between atoms: C_27  and  N_49
   10  A    between atoms: C_28  and  O_47
   11  A    between atoms: O_35  and  C_43
   12  A    between atoms: C_46  and  O_47
                            x       y       z     vdW  Elec       q    Type
                         _______ _______ _______ _____ _____    ______ ____

>  <TORSDO>
F 12

$$$$
=
 OpenBabel10232408523D

 51 54  0  0  1  0  0  0  0  0999 V2000
  181.2460  178.6610  139.8210 C   0  0  0  0  0  0  0  0  0  0  0  0
  191.0350  176.1090  142.1850 C   0  0  0  0  0  1  0  0  0  0  0  0
  184.9230  179.0490  142.8600 C   0  0  0  0  0  2  0  0  0  0  0  0
  186.1880  178.6200  143.6050 C   0  0  1  0  0  3  0  0  0  0  0  0
  181.9470  179.3670  138.7990 N   0  0  0  0  0  0  0  0  0  0  0  0
  185.8940  178.4000  145.0850 C   0  0  0  0  0  2  0  0  0  0  0  0
  187.9900  177.4670  140.3190 C   0  0  0  0  0  3  0  0  0  0  0  0
  183.4560  178.3410  140.9730 C   0  0  0  0  0  0  0  0  0  0  0  0
  188.5640  178.2310  138.1050 C   0  0  0  0  0  3  0  0  0  0  0  0
  189.3380  177.1420  140.5940 C   0  0  0  0  0  0  0  0  0  0  0  0
  188.0310  177.2730  143.5780 C   0  0  2  0  0  3  0  0  0  0  0  0
  185.7460  178.4340  137.4640 C   0  0  0  0  0  1  0  0  0  0  0  0
  189.6910  176.5810  141.8890 N   0  0  0  0  0  0  0  0  0  0  0  0
  184.0500  178.9410  139.9180 C   0  0  0  0  0  0  0  0  0  0  0  0
  183.2360  179.4990  138.8260 C   0  0  0  0  0  3  0  0  0  0  0  0
  185.5340  179.1800  139.8640 C   0  0  0  0  0  2  0  0  0  0  0  0
  181.9780  178.0820  140.9990 C   0  0  0  0  0  2  0  0  0  0  0  0
  186.7410  177.4460  143.0480 O   0  0  0  0  0  0  0  0  0  0  0  0
  184.2240  177.8720  142.1780 C   0  0  0  0  0  2  0  0  0  0  0  0
  179.9990  178.5210  139.7320 O   0  0  0  0  0  0  0  0  0  0  0  0
  186.2220  178.3840  138.8480 N   0  0  0  0  0  0  0  0  0  0  0  0
  189.8990  177.9290  138.3480 C   0  0  0  0  0  3  0  0  0  0  0  0
  187.2250  178.1140  145.7790 C   0  0  2  0  0  3  0  0  0  0  0  0
  188.6810  176.1120  142.8360 C   0  0  0  0  0  2  0  0  0  0  0  0
  190.3100  177.3930  139.5800 C   0  0  0  0  0  0  0  0  0  0  0  0
  187.9350  176.9520  145.0750 C   0  0  0  0  0  2  0  0  0  0  0  0
  187.5920  178.0100  139.0890 C   0  0  0  0  0  0  0  0  0  0  0  0
  187.0480  177.9150  147.2940 C   0  0  2  0  0  3  0  0  0  0  0  0
  186.3220  178.9950  147.8060 O   0  0  0  0  0  1  0  0  0  0  0  0
  188.4060  177.8400  147.9950 C   0  0  2  0  0  3  0  0  0  0  0  0
  189.0860  179.0550  147.8850 O   0  0  0  0  0  1  0  0  0  0  0  0
  189.2850  176.7350  147.4230 C   0  0  0  0  0  2  0  0  0  0  0  0
  191.6150  176.8910  148.1210 N   0  0  0  0  0  1  0  0  0  0  0  0
  190.6590  177.3070  147.1100 C   0  0  1  0  0  3  0  0  0  0  0  0
  191.6800  177.9710  145.0460 O   0  0  0  0  0  1  0  0  0  0  0  0
  192.0530  175.8490  145.7900 O   0  0  0  0  0  1  0  0  0  0  0  0
  191.1180  176.8830  145.7150 C   0  0  0  0  0  3  0  0  0  0  0  0
  191.6650  177.1170  139.7900 O   0  0  0  0  0  0  0  0  0  0  0  0
  192.5980  177.0570  138.7530 C   0  0  0  0  0  3  0  0  0  0  0  0
  192.8110  175.9450  138.1320 N   0  0  0  0  0  0  0  0  0  0  0  0
  193.8090  175.8980  137.0690 C   0  0  0  0  0  2  0  0  0  0  0  0
  194.4330  174.5090  136.9450 C   0  0  2  0  0  0  0  0  0  0  0  0
  195.5320  174.6070  136.0710 O   0  0  0  0  0  1  0  0  0  0  0  0
  193.3520  173.5950  136.3330 C   0  0  0  0  0  3  0  0  0  0  0  0
  193.6720  172.2450  136.5160 O   0  0  0  0  0  1  0  0  0  0  0  0
  193.1520  173.8490  134.9750 O   0  0  0  0  0  1  0  0  0  0  0  0
  194.7920  174.0570  138.2550 O   0  0  0  0  0  0  0  0  0  0  0  0
  196.1890  173.9860  138.5010 C   0  0  0  0  0  0  0  0  0  0  0  0
  196.6210  172.7160  138.1900 F   0  0  0  0  0  0  0  0  0  0  0  0
  196.4740  174.2060  139.8380 F   0  0  0  0  0  0  0  0  0  0  0  0
  196.9040  174.8790  137.7170 F   0  0  0  0  0  0  0  0  0  0  0  0
  1 17  1  0  0  0  0
  4  3  1  6  0  0  0
  4  6  1  0  0  0  0
  5 15  2  0  0  0  0
  5  1  1  0  0  0  0
  6 23  1  0  0  0  0
  7 10  1  0  0  0  0
  8 17  1  0  0  0  0
  8 19  1  0  0  0  0
  9 22  2  0  0  0  0
  9 27  1  0  0  0  0
 10 13  1  0  0  0  0
 11 24  1  6  0  0  0
 11 26  1  0  0  0  0
 12 21  1  0  0  0  0
 13  2  1  0  0  0  0
 13 24  1  0  0  0  0
 14  8  2  0  0  0  0
 15 14  1  0  0  0  0
 16 14  1  0  0  0  0
 18 11  1  0  0  0  0
 18  4  1  0  0  0  0
 19  3  1  0  0  0  0
 20  1  2  0  0  0  0
 21 27  1  0  0  0  0
 21 16  1  0  0  0  0
 22 25  1  0  0  0  0
 23 28  1  1  0  0  0
 25 38  1  0  0  0  0
 25 10  2  0  0  0  0
 26 23  1  0  0  0  0
 27  7  2  0  0  0  0
 28 29  1  1  0  0  0
 28 30  1  0  0  0  0
 30 31  1  6  0  0  0
 32 30  1  0  0  0  0
 34 32  1  0  0  0  0
 34 33  1  1  0  0  0
 35 37  1  0  0  0  0
 37 36  1  0  0  0  0
 37 34  1  0  0  0  0
 39 38  1  0  0  0  0
 40 39  2  0  0  0  0
 41 40  1  0  0  0  0
 42 43  1  6  0  0  0
 42 41  1  0  0  0  0
 42 47  1  0  0  0  0
 44 45  1  0  0  0  0
 44 42  1  0  0  0  0
 46 44  1  0  0  0  0
 47 48  1  0  0  0  0
 48 50  1  0  0  0  0
 49 48  1  0  0  0  0
 51 48  1  0  0  0  0
M  END
>  <MODEL>
2

>  <REMARK>
 VINA RESULT:      -7.3      3.906      9.954
  Name = 
  12 active torsions:
  status: ('A' for Active; 'I' for Inactive)
    1  A    between atoms: C_4  and  C_18
    2  A    between atoms: C_4  and  C_42
    3  A    between atoms: C_8  and  C_43
    4  A    between atoms: C_15  and  O_35
    5  A    between atoms: C_18  and  C_19
    6  A    between atoms: C_19  and  CA_23
    7  A    between atoms: C_22  and  CA_23
    8  A    between atoms: C_27  and  C_43
    9  A    between atoms: C_27  and  N_49
   10  A    between atoms: C_28  and  O_47
   11  A    between atoms: O_35  and  C_43
   12  A    between atoms: C_46  and  O_47
                            x       y       z     vdW  Elec       q    Type
                         _______ _______ _______ _____ _____    ______ ____

>  <TORSDO>
F 12

$$$$
=
 OpenBabel10232408523D

 51 54  0  0  1  0  0  0  0  0999 V2000
  185.9770  179.1560  146.7000 C   0  0  0  0  0  0  0  0  0  0  0  0
  187.6970  178.2080  136.4990 C   0  0  0  0  0  1  0  0  0  0  0  0
  184.3650  177.7290  142.4250 C   0  0  0  0  0  2  0  0  0  0  0  0
  184.2060  177.7360  140.9040 C   0  0  1  0  0  3  0  0  0  0  0  0
  187.0000  178.1610  146.7050 N   0  0  0  0  0  0  0  0  0  0  0  0
  182.7980  178.1710  140.5100 C   0  0  0  0  0  2  0  0  0  0  0  0
  188.0760  177.8830  140.2870 C   0  0  0  0  0  3  0  0  0  0  0  0
  185.7440  178.7560  144.2310 C   0  0  0  0  0  0  0  0  0  0  0  0
  190.1340  176.7800  140.8890 C   0  0  0  0  0  3  0  0  0  0  0  0
  188.3530  177.7240  138.9090 C   0  0  0  0  0  0  0  0  0  0  0  0
  185.1480  178.3240  138.9090 C   0  0  2  0  0  3  0  0  0  0  0  0
  189.7160  177.5510  143.6510 C   0  0  0  0  0  1  0  0  0  0  0  0
  187.4080  178.2280  137.9240 N   0  0  0  0  0  0  0  0  0  0  0  0
  186.7840  177.8960  144.3100 C   0  0  0  0  0  0  0  0  0  0  0  0
  187.3850  177.5780  145.6140 C   0  0  0  0  0  3  0  0  0  0  0  0
  187.2870  177.1350  143.1130 C   0  0  0  0  0  2  0  0  0  0  0  0
  185.2720  179.5290  145.4270 C   0  0  0  0  0  2  0  0  0  0  0  0
  185.1570  178.5820  140.2900 O   0  0  0  0  0  0  0  0  0  0  0  0
  185.0040  179.0170  142.9470 C   0  0  0  0  0  2  0  0  0  0  0  0
  185.6630  179.7260  147.7760 O   0  0  0  0  0  0  0  0  0  0  0  0
  188.6220  177.5430  142.6770 N   0  0  0  0  0  0  0  0  0  0  0  0
  190.4310  176.6020  139.5430 C   0  0  0  0  0  3  0  0  0  0  0  0
  182.6780  178.0160  138.9940 C   0  0  2  0  0  3  0  0  0  0  0  0
  186.2980  179.1060  138.2880 C   0  0  0  0  0  2  0  0  0  0  0  0
  189.5580  177.0560  138.5400 C   0  0  0  0  0  0  0  0  0  0  0  0
  183.8140  178.7820  138.3060 C   0  0  0  0  0  2  0  0  0  0  0  0
  188.9490  177.4180  141.2800 C   0  0  0  0  0  0  0  0  0  0  0  0
  181.2740  178.3930  138.4920 C   0  0  2  0  0  3  0  0  0  0  0  0
  180.3250  177.7340  139.2800 O   0  0  0  0  0  1  0  0  0  0  0  0
  181.0920  177.9810  137.0290 C   0  0  2  0  0  3  0  0  0  0  0  0
  180.3550  178.9440  136.3350 O   0  0  0  0  0  1  0  0  0  0  0  0
  180.3860  176.6380  136.8970 C   0  0  0  0  0  2  0  0  0  0  0  0
  182.5100  176.3110  135.7470 N   0  0  0  0  0  1  0  0  0  0  0  0
  181.3500  175.6290  136.2930 C   0  0  1  0  0  3  0  0  0  0  0  0
  183.0670  174.8390  137.7670 O   0  0  0  0  0  1  0  0  0  0  0  0
  180.8980  174.5980  138.4240 O   0  0  0  0  0  1  0  0  0  0  0  0
  181.7660  174.5870  137.3300 C   0  0  0  0  0  3  0  0  0  0  0  0
  189.8870  176.8440  137.1970 O   0  0  0  0  0  0  0  0  0  0  0  0
  190.7480  175.8270  136.7770 C   0  0  0  0  0  3  0  0  0  0  0  0
  191.9040  176.1160  136.2810 N   0  0  0  0  0  0  0  0  0  0  0  0
  192.7770  175.0410  135.8240 C   0  0  0  0  0  2  0  0  0  0  0  0
  194.2130  175.2390  136.3070 C   0  0  2  0  0  0  0  0  0  0  0  0
  194.1610  175.8660  137.5670 O   0  0  0  0  0  1  0  0  0  0  0  0
  194.8950  176.1690  135.2830 C   0  0  0  0  0  3  0  0  0  0  0  0
  196.0960  175.6160  134.8240 O   0  0  0  0  0  1  0  0  0  0  0  0
  195.1340  177.4430  135.8020 O   0  0  0  0  0  1  0  0  0  0  0  0
  194.8600  173.9620  136.3380 O   0  0  0  0  0  0  0  0  0  0  0  0
  195.5810  173.6860  137.5300 C   0  0  0  0  0  0  0  0  0  0  0  0
  196.3370  172.5530  137.3280 F   0  0  0  0  0  0  0  0  0  0  0  0
  194.7210  173.4300  138.5860 F   0  0  0  0  0  0  0  0  0  0  0  0
  196.4440  174.7160  137.8690 F   0  0  0  0  0  0  0  0  0  0  0  0
  1  5  1  0  0  0  0
  1 20  2  0  0  0  0
  2 13  1  0  0  0  0
  3 19  1  0  0  0  0
  4  6  1  1  0  0  0
  4  3  1  0  0  0  0
  7 27  1  0  0  0  0
  8 14  2  0  0  0  0
  8 17  1  0  0  0  0
  9 27  2  0  0  0  0
 10  7  2  0  0  0  0
 11 24  1  6  0  0  0
 11 18  1  0  0  0  0
 13 24  1  0  0  0  0
 13 10  1  0  0  0  0
 14 15  1  0  0  0  0
 15  5  2  0  0  0  0
 16 14  1  0  0  0  0
 17  1  1  0  0  0  0
 18  4  1  0  0  0  0
 19  8  1  0  0  0  0
 21 16  1  0  0  0  0
 21 12  1  0  0  0  0
 22  9  1  0  0  0  0
 23 28  1  6  0  0  0
 23  6  1  0  0  0  0
 25 10  1  0  0  0  0
 25 22  2  0  0  0  0
 26 11  1  0  0  0  0
 26 23  1  0  0  0  0
 27 21  1  0  0  0  0
 28 29  1  1  0  0  0
 30 31  1  6  0  0  0
 30 28  1  0  0  0  0
 32 30  1  0  0  0  0
 34 33  1  1  0  0  0
 34 32  1  0  0  0  0
 34 37  1  0  0  0  0
 37 35  1  0  0  0  0
 37 36  1  0  0  0  0
 38 25  1  0  0  0  0
 39 38  1  0  0  0  0
 40 39  2  0  0  0  0
 41 40  1  0  0  0  0
 41 42  1  0  0  0  0
 42 47  1  0  0  0  0
 42 43  1  1  0  0  0
 44 46  1  0  0  0  0
 44 42  1  0  0  0  0
 45 44  1  0  0  0  0
 47 48  1  0  0  0  0
 48 51  1  0  0  0  0
 48 50  1  0  0  0  0
 49 48  1  0  0  0  0
M  END
>  <MODEL>
3

>  <REMARK>
 VINA RESULT:      -7.2      3.531      9.931
  Name = 
  12 active torsions:
  status: ('A' for Active; 'I' for Inactive)
    1  A    between atoms: C_4  and  C_18
    2  A    between atoms: C_4  and  C_42
    3  A    between atoms: C_8  and  C_43
    4  A    between atoms: C_15  and  O_35
    5  A    between atoms: C_18  and  C_19
    6  A    between atoms: C_19  and  CA_23
    7  A    between atoms: C_22  and  CA_23
    8  A    between atoms: C_27  and  C_43
    9  A    between atoms: C_27  and  N_49
   10  A    between atoms: C_28  and  O_47
   11  A    between atoms: O_35  and  C_43
   12  A    between atoms: C_46  and  O_47
                            x       y       z     vdW  Elec       q    Type
                         _______ _______ _______ _____ _____    ______ ____

>  <TORSDO>
F 12

$$$$
=
 OpenBabel10232408523D

 51 54  0  0  1  0  0  0  0  0999 V2000
  190.7860  176.9510  145.5030 C   0  0  0  0  0  0  0  0  0  0  0  0
  187.7250  176.2900  135.5970 C   0  0  0  0  0  1  0  0  0  0  0  0
  191.8610  177.5190  140.8730 C   0  0  0  0  0  2  0  0  0  0  0  0
  191.8090  177.2450  139.3700 C   0  0  1  0  0  3  0  0  0  0  0  0
  189.8230  178.0030  145.4630 N   0  0  0  0  0  0  0  0  0  0  0  0
  193.1260  176.6500  138.8830 C   0  0  0  0  0  2  0  0  0  0  0  0
  187.8880  177.2740  139.2860 C   0  0  0  0  0  3  0  0  0  0  0  0
  190.6950  176.9120  142.9920 C   0  0  0  0  0  0  0  0  0  0  0  0
  185.9890  178.6080  139.9410 C   0  0  0  0  0  3  0  0  0  0  0  0
  187.4320  177.2190  137.9480 C   0  0  0  0  0  0  0  0  0  0  0  0
  190.5730  176.3990  137.6460 C   0  0  2  0  0  3  0  0  0  0  0  0
  186.7450  178.2850  142.7200 C   0  0  0  0  0  1  0  0  0  0  0  0
  188.2060  176.4900  136.9550 N   0  0  0  0  0  0  0  0  0  0  0  0
  189.7200  177.8460  143.0500 C   0  0  0  0  0  0  0  0  0  0  0  0
  189.3200  178.4210  144.3440 C   0  0  0  0  0  3  0  0  0  0  0  0
  189.0940  178.4280  141.8120 C   0  0  0  0  0  2  0  0  0  0  0  0
  191.2890  176.3190  144.2360 C   0  0  0  0  0  2  0  0  0  0  0  0
  190.7420  176.3790  139.0410 O   0  0  0  0  0  0  0  0  0  0  0  0
  191.2380  176.3860  141.6920 C   0  0  0  0  0  2  0  0  0  0  0  0
  191.2170  176.5480  146.6140 O   0  0  0  0  0  0  0  0  0  0  0  0
  187.6930  178.0500  141.6280 N   0  0  0  0  0  0  0  0  0  0  0  0
  185.5180  178.5780  138.6340 C   0  0  0  0  0  3  0  0  0  0  0  0
  193.0430  176.5380  137.3610 C   0  0  2  0  0  3  0  0  0  0  0  0
  189.3120  175.6080  137.3240 C   0  0  0  0  0  2  0  0  0  0  0  0
  186.2210  177.9000  137.6230 C   0  0  0  0  0  0  0  0  0  0  0  0
  191.7870  175.7510  136.9680 C   0  0  0  0  0  2  0  0  0  0  0  0
  187.1830  177.9620  140.2850 C   0  0  0  0  0  0  0  0  0  0  0  0
  194.3440  175.9830  136.7580 C   0  0  2  0  0  3  0  0  0  0  0  0
  194.1390  175.7430  135.3950 O   0  0  0  0  0  1  0  0  0  0  0  0
  194.7500  174.6780  137.4470 C   0  0  2  0  0  3  0  0  0  0  0  0
  195.8210  174.8930  138.3170 O   0  0  0  0  0  1  0  0  0  0  0  0
  195.1430  173.6000  136.4450 C   0  0  0  0  0  2  0  0  0  0  0  0
  193.5770  172.1020  135.3310 N   0  0  0  0  0  1  0  0  0  0  0  0
  194.2080  172.4120  136.6020 C   0  0  1  0  0  3  0  0  0  0  0  0
  196.0810  170.9360  136.3640 O   0  0  0  0  0  1  0  0  0  0  0  0
  195.3570  171.4150  138.4710 O   0  0  0  0  0  1  0  0  0  0  0  0
  194.9590  171.1990  137.1500 C   0  0  0  0  0  3  0  0  0  0  0  0
  185.7210  177.9070  136.3170 O   0  0  0  0  0  0  0  0  0  0  0  0
  184.5210  177.2890  135.9600 C   0  0  0  0  0  3  0  0  0  0  0  0
  184.2520  176.0980  136.3770 N   0  0  0  0  0  0  0  0  0  0  0  0
  183.0040  175.4600  135.9710 C   0  0  0  0  0  2  0  0  0  0  0  0
  182.6640  174.2700  136.8670 C   0  0  2  0  0  0  0  0  0  0  0  0
  182.3060  173.1930  136.0330 O   0  0  0  0  0  1  0  0  0  0  0  0
  181.4550  174.6980  137.7240 C   0  0  0  0  0  3  0  0  0  0  0  0
  180.5540  175.4640  136.9750 O   0  0  0  0  0  1  0  0  0  0  0  0
  181.8400  175.4090  138.8620 O   0  0  0  0  0  1  0  0  0  0  0  0
  183.7970  173.9900  137.6960 O   0  0  0  0  0  0  0  0  0  0  0  0
  184.5190  172.8190  137.3460 C   0  0  0  0  0  0  0  0  0  0  0  0
  183.7320  171.7240  137.6250 F   0  0  0  0  0  0  0  0  0  0  0  0
  185.6760  172.7020  138.0970 F   0  0  0  0  0  0  0  0  0  0  0  0
  184.8320  172.7820  135.9960 F   0  0  0  0  0  0  0  0  0  0  0  0
  1 20  2  0  0  0  0
  2 13  1  0  0  0  0
  3 19  1  0  0  0  0
  4  6  1  1  0  0  0
  4  3  1  0  0  0  0
  5  1  1  0  0  0  0
  7 27  1  0  0  0  0
  8 14  2  0  0  0  0
  8 17  1  0  0  0  0
  9 27  2  0  0  0  0
 10  7  2  0  0  0  0
 11 26  1  6  0  0  0
 11 18  1  0  0  0  0
 13 24  1  0  0  0  0
 13 10  1  0  0  0  0
 14 15  1  0  0  0  0
 15  5  2  0  0  0  0
 16 14  1  0  0  0  0
 17  1  1  0  0  0  0
 18  4  1  0  0  0  0
 19  8  1  0  0  0  0
 21 16  1  0  0  0  0
 21 12  1  0  0  0  0
 22  9  1  0  0  0  0
 23 28  1  1  0  0  0
 23  6  1  0  0  0  0
 24 11  1  0  0  0  0
 25 10  1  0  0  0  0
 25 22  2  0  0  0  0
 26 23  1  0  0  0  0
 27 21  1  0  0  0  0
 28 29  1  6  0  0  0
 28 30  1  0  0  0  0
 30 31  1  1  0  0  0
 32 34  1  0  0  0  0
 32 30  1  0  0  0  0
 34 33  1  6  0  0  0
 34 37  1  0  0  0  0
 35 37  1  0  0  0  0
 37 36  1  0  0  0  0
 38 25  1  0  0  0  0
 39 38  1  0  0  0  0
 39 40  2  0  0  0  0
 41 40  1  0  0  0  0
 41 42  1  0  0  0  0
 42 43  1  6  0  0  0
 42 47  1  0  0  0  0
 42 44  1  0  0  0  0
 44 46  1  0  0  0  0
 45 44  1  0  0  0  0
 48 49  1  0  0  0  0
 48 47  1  0  0  0  0
 48 50  1  0  0  0  0
 51 48  1  0  0  0  0
M  END
>  <MODEL>
4

>  <REMARK>
 VINA RESULT:      -6.5      1.732      2.237
  Name = 
  12 active torsions:
  status: ('A' for Active; 'I' for Inactive)
    1  A    between atoms: C_4  and  C_18
    2  A    between atoms: C_4  and  C_42
    3  A    between atoms: C_8  and  C_43
    4  A    between atoms: C_15  and  O_35
    5  A    between atoms: C_18  and  C_19
    6  A    between atoms: C_19  and  CA_23
    7  A    between atoms: C_22  and  CA_23
    8  A    between atoms: C_27  and  C_43
    9  A    between atoms: C_27  and  N_49
   10  A    between atoms: C_28  and  O_47
   11  A    between atoms: O_35  and  C_43
   12  A    between atoms: C_46  and  O_47
                            x       y       z     vdW  Elec       q    Type
                         _______ _______ _______ _____ _____    ______ ____

>  <TORSDO>
F 12

$$$$
=
 OpenBabel10232408523D

 51 54  0  0  1  0  0  0  0  0999 V2000
  189.1480  178.0280  147.9990 C   0  0  0  0  0  0  0  0  0  0  0  0
  187.0480  178.6210  137.8420 C   0  0  0  0  0  1  0  0  0  0  0  0
  185.9780  177.4190  144.4650 C   0  0  0  0  0  2  0  0  0  0  0  0
  185.2970  177.6820  143.1210 C   0  0  1  0  0  3  0  0  0  0  0  0
  189.9790  176.9790  147.5050 N   0  0  0  0  0  0  0  0  0  0  0  0
  183.9040  178.2680  143.3260 C   0  0  0  0  0  2  0  0  0  0  0  0
  188.6910  177.6660  141.1570 C   0  0  0  0  0  3  0  0  0  0  0  0
  188.0160  178.0470  145.7560 C   0  0  0  0  0  0  0  0  0  0  0  0
  190.6800  176.3440  140.8220 C   0  0  0  0  0  3  0  0  0  0  0  0
  188.4450  177.7120  139.7650 C   0  0  0  0  0  0  0  0  0  0  0  0
  185.5420  178.5180  141.0110 C   0  0  2  0  0  3  0  0  0  0  0  0
  191.3550  176.6870  143.6190 C   0  0  0  0  0  1  0  0  0  0  0  0
  187.2830  178.4300  139.2650 N   0  0  0  0  0  0  0  0  0  0  0  0
  188.9060  177.1180  145.3410 C   0  0  0  0  0  0  0  0  0  0  0  0
  189.8840  176.5540  146.2850 C   0  0  0  0  0  3  0  0  0  0  0  0
  188.8610  176.5270  143.9580 C   0  0  0  0  0  2  0  0  0  0  0  0
  188.0910  178.6480  147.1290 C   0  0  0  0  0  2  0  0  0  0  0  0
  186.0660  178.5490  142.3140 O   0  0  0  0  0  0  0  0  0  0  0  0
  186.9100  178.5600  144.8750 C   0  0  0  0  0  2  0  0  0  0  0  0
  189.3030  178.4380  149.1780 O   0  0  0  0  0  0  0  0  0  0  0  0
  189.9960  176.9090  143.1190 N   0  0  0  0  0  0  0  0  0  0  0  0
  190.4620  176.3650  139.4490 C   0  0  0  0  0  3  0  0  0  0  0  0
  183.2410  178.3670  141.9530 C   0  0  2  0  0  3  0  0  0  0  0  0
  186.4860  179.3110  140.1160 C   0  0  0  0  0  2  0  0  0  0  0  0
  189.3530  177.0320  138.9000 C   0  0  0  0  0  0  0  0  0  0  0  0
  184.1470  179.1560  140.9990 C   0  0  0  0  0  2  0  0  0  0  0  0
  189.7940  176.9890  141.6960 C   0  0  0  0  0  0  0  0  0  0  0  0
  181.8070  178.9130  142.0490 C   0  0  2  0  0  3  0  0  0  0  0  0
  181.0570  178.0600  142.8650 O   0  0  0  0  0  1  0  0  0  0  0  0
  181.1590  178.9890  140.6650 C   0  0  2  0  0  3  0  0  0  0  0  0
  180.2800  180.0720  140.5910 O   0  0  0  0  0  1  0  0  0  0  0  0
  180.3970  177.7170  140.3200 C   0  0  0  0  0  2  0  0  0  0  0  0
  181.8570  178.1130  138.4100 N   0  0  0  0  0  1  0  0  0  0  0  0
  180.8430  177.2260  138.9520 C   0  0  1  0  0  3  0  0  0  0  0  0
  182.6230  175.7680  139.6220 O   0  0  0  0  0  1  0  0  0  0  0  0
  180.4870  174.9880  139.7710 O   0  0  0  0  0  1  0  0  0  0  0  0
  181.3590  175.7900  139.0320 C   0  0  0  0  0  3  0  0  0  0  0  0
  189.1620  177.0170  137.5150 O   0  0  0  0  0  0  0  0  0  0  0  0
  188.9390  175.8440  136.7910 C   0  0  0  0  0  3  0  0  0  0  0  0
  187.7540  175.5580  136.3630 N   0  0  0  0  0  0  0  0  0  0  0  0
  187.5370  174.3160  135.6310 C   0  0  0  0  0  2  0  0  0  0  0  0
  186.2320  173.6390  136.0480 C   0  0  2  0  0  0  0  0  0  0  0  0
  186.2660  173.4620  137.4440 O   0  0  0  0  0  1  0  0  0  0  0  0
  186.2040  172.2680  135.3420 C   0  0  0  0  0  3  0  0  0  0  0  0
  185.2140  171.4420  135.8870 O   0  0  0  0  0  1  0  0  0  0  0  0
  187.4390  171.6190  135.3990 O   0  0  0  0  0  1  0  0  0  0  0  0
  185.1400  174.4540  135.6090 O   0  0  0  0  0  0  0  0  0  0  0  0
  184.2180  174.8170  136.6260 C   0  0  0  0  0  0  0  0  0  0  0  0
  184.8600  175.6470  137.5180 F   0  0  0  0  0  0  0  0  0  0  0  0
  183.7870  173.7050  137.3300 F   0  0  0  0  0  0  0  0  0  0  0  0
  183.1250  175.5040  136.1210 F   0  0  0  0  0  0  0  0  0  0  0  0
  1 20  2  0  0  0  0
  2 13  1  0  0  0  0
  3 19  1  0  0  0  0
  4  6  1  1  0  0  0
  4  3  1  0  0  0  0
  5  1  1  0  0  0  0
  7 27  1  0  0  0  0
  8 17  1  0  0  0  0
  9 27  2  0  0  0  0
 10  7  2  0  0  0  0
 11 24  1  6  0  0  0
 11 18  1  0  0  0  0
 13 10  1  0  0  0  0
 13 24  1  0  0  0  0
 14  8  2  0  0  0  0
 14 15  1  0  0  0  0
 15  5  2  0  0  0  0
 16 14  1  0  0  0  0
 17  1  1  0  0  0  0
 18  4  1  0  0  0  0
 19  8  1  0  0  0  0
 21 12  1  0  0  0  0
 21 16  1  0  0  0  0
 22  9  1  0  0  0  0
 23 28  1  1  0  0  0
 23  6  1  0  0  0  0
 25 22  2  0  0  0  0
 25 10  1  0  0  0  0
 26 11  1  0  0  0  0
 26 23  1  0  0  0  0
 27 21  1  0  0  0  0
 28 29  1  1  0  0  0
 30 31  1  1  0  0  0
 30 28  1  0  0  0  0
 32 30  1  0  0  0  0
 34 33  1  1  0  0  0
 34 37  1  0  0  0  0
 34 32  1  0  0  0  0
 37 35  1  0  0  0  0
 37 36  1  0  0  0  0
 38 25  1  0  0  0  0
 39 38  1  0  0  0  0
 40 39  2  0  0  0  0
 41 42  1  0  0  0  0
 41 40  1  0  0  0  0
 42 43  1  1  0  0  0
 44 46  1  0  0  0  0
 44 45  1  0  0  0  0
 44 42  1  0  0  0  0
 47 42  1  0  0  0  0
 47 48  1  0  0  0  0
 48 50  1  0  0  0  0
 48 49  1  0  0  0  0
 51 48  1  0  0  0  0
M  END
>  <MODEL>
5

>  <REMARK>
 VINA RESULT:      -6.5      3.505      8.167
  Name = 
  12 active torsions:
  status: ('A' for Active; 'I' for Inactive)
    1  A    between atoms: C_4  and  C_18
    2  A    between atoms: C_4  and  C_42
    3  A    between atoms: C_8  and  C_43
    4  A    between atoms: C_15  and  O_35
    5  A    between atoms: C_18  and  C_19
    6  A    between atoms: C_19  and  CA_23
    7  A    between atoms: C_22  and  CA_23
    8  A    between atoms: C_27  and  C_43
    9  A    between atoms: C_27  and  N_49
   10  A    between atoms: C_28  and  O_47
   11  A    between atoms: O_35  and  C_43
   12  A    between atoms: C_46  and  O_47
                            x       y       z     vdW  Elec       q    Type
                         _______ _______ _______ _____ _____    ______ ____

>  <TORSDO>
F 12

$$$$
=
 OpenBabel10232408523D

 51 54  0  0  1  0  0  0  0  0999 V2000
  180.7010  177.9050  135.5660 C   0  0  0  0  0  0  0  0  0  0  0  0
  188.7990  178.7480  142.0180 C   0  0  0  0  0  1  0  0  0  0  0  0
  184.9440  176.2180  137.0000 C   0  0  0  0  0  2  0  0  0  0  0  0
  186.3580  176.2670  137.5790 C   0  0  1  0  0  3  0  0  0  0  0  0
  180.0810  177.5460  136.8000 N   0  0  0  0  0  0  0  0  0  0  0  0
  187.3960  175.9820  136.4980 C   0  0  0  0  0  2  0  0  0  0  0  0
  185.2330  178.3500  140.7060 C   0  0  0  0  0  3  0  0  0  0  0  0
  182.9170  177.6420  136.7200 C   0  0  0  0  0  0  0  0  0  0  0  0
  183.6150  178.3600  142.4930 C   0  0  0  0  0  3  0  0  0  0  0  0
  186.3020  178.4590  141.6250 C   0  0  0  0  0  0  0  0  0  0  0  0
  187.8060  177.4000  138.9330 C   0  0  2  0  0  3  0  0  0  0  0  0
  181.4870  178.6000  140.5410 C   0  0  0  0  0  1  0  0  0  0  0  0
  187.6700  178.5090  141.1330 N   0  0  0  0  0  0  0  0  0  0  0  0
  182.2480  177.4020  137.8690 C   0  0  0  0  0  0  0  0  0  0  0  0
  180.7790  177.3180  137.8690 C   0  0  0  0  0  3  0  0  0  0  0  0
  182.9570  177.0870  139.1580 C   0  0  0  0  0  2  0  0  0  0  0  0
  182.1970  177.9840  135.4490 C   0  0  0  0  0  2  0  0  0  0  0  0
  186.6250  177.5170  138.1800 O   0  0  0  0  0  0  0  0  0  0  0  0
  184.4180  177.6060  136.6330 C   0  0  0  0  0  2  0  0  0  0  0  0
  179.9830  178.1590  134.5640 O   0  0  0  0  0  0  0  0  0  0  0  0
  182.8250  178.1320  140.1720 N   0  0  0  0  0  0  0  0  0  0  0  0
  184.6440  178.4600  143.4230 C   0  0  0  0  0  3  0  0  0  0  0  0
  188.7610  175.9100  137.1810 C   0  0  2  0  0  3  0  0  0  0  0  0
  187.9820  178.6940  139.7170 C   0  0  0  0  0  2  0  0  0  0  0  0
  185.9880  178.5030  143.0160 C   0  0  0  0  0  0  0  0  0  0  0  0
  189.0000  177.1890  137.9930 C   0  0  0  0  0  2  0  0  0  0  0  0
  183.8950  178.2970  141.1220 C   0  0  0  0  0  0  0  0  0  0  0  0
  189.8830  175.5850  136.1800 C   0  0  2  0  0  3  0  0  0  0  0  0
  189.3040  175.1340  134.9900 O   0  0  0  0  0  1  0  0  0  0  0  0
  190.8100  174.5020  136.7350 C   0  0  2  0  0  3  0  0  0  0  0  0
  190.0820  173.5510  137.4550 O   0  0  0  0  0  1  0  0  0  0  0  0
  191.8870  175.0810  137.6430 C   0  0  0  0  0  2  0  0  0  0  0  0
  193.0920  173.5590  136.1690 N   0  0  0  0  0  1  0  0  0  0  0  0
  193.2490  174.6100  137.1590 C   0  0  1  0  0  3  0  0  0  0  0  0
  193.8270  176.9280  137.3490 O   0  0  0  0  0  1  0  0  0  0  0  0
  195.4230  175.4870  136.5970 O   0  0  0  0  0  1  0  0  0  0  0  0
  194.0580  175.7780  136.5940 C   0  0  0  0  0  3  0  0  0  0  0  0
  186.9940  178.5890  143.9840 O   0  0  0  0  0  0  0  0  0  0  0  0
  187.8250  177.5160  144.3150 C   0  0  0  0  0  3  0  0  0  0  0  0
  188.7950  177.6770  145.1510 N   0  0  0  0  0  0  0  0  0  0  0  0
  189.6670  176.5500  145.4640 C   0  0  0  0  0  2  0  0  0  0  0  0
  191.1060  176.8140  145.0230 C   0  0  2  0  0  0  0  0  0  0  0  0
  191.2750  178.2080  144.9190 O   0  0  0  0  0  1  0  0  0  0  0  0
  191.2670  176.1580  143.6370 C   0  0  0  0  0  3  0  0  0  0  0  0
  191.8490  174.8890  143.7460 O   0  0  0  0  0  1  0  0  0  0  0  0
  192.0210  176.9450  142.7640 O   0  0  0  0  0  1  0  0  0  0  0  0
  191.9880  176.2080  145.9740 O   0  0  0  0  0  0  0  0  0  0  0  0
  191.5140  176.2090  147.3130 C   0  0  0  0  0  0  0  0  0  0  0  0
  192.5590  176.5520  148.1430 F   0  0  0  0  0  0  0  0  0  0  0  0
  191.0790  174.9500  147.6910 F   0  0  0  0  0  0  0  0  0  0  0  0
  190.4990  177.1330  147.5080 F   0  0  0  0  0  0  0  0  0  0  0  0
  1  5  1  0  0  0  0
  3  4  1  0  0  0  0
  4  6  1  6  0  0  0
  4 18  1  0  0  0  0
  5 15  2  0  0  0  0
  6 23  1  0  0  0  0
  7 27  2  0  0  0  0
  7 10  1  0  0  0  0
  8 14  2  0  0  0  0
  9 22  2  0  0  0  0
 10 25  2  0  0  0  0
 11 26  1  6  0  0  0
 11 24  1  0  0  0  0
 13 10  1  0  0  0  0
 13  2  1  0  0  0  0
 14 16  1  0  0  0  0
 15 14  1  0  0  0  0
 16 21  1  0  0  0  0
 17  1  1  0  0  0  0
 17  8  1  0  0  0  0
 18 11  1  0  0  0  0
 19  8  1  0  0  0  0
 19  3  1  0  0  0  0
 20  1  2  0  0  0  0
 21 12  1  0  0  0  0
 21 27  1  0  0  0  0
 23 28  1  6  0  0  0
 23 26  1  0  0  0  0
 24 13  1  0  0  0  0
 25 22  1  0  0  0  0
 25 38  1  0  0  0  0
 27  9  1  0  0  0  0
 28 29  1  6  0  0  0
 28 30  1  0  0  0  0
 30 31  1  1  0  0  0
 30 32  1  0  0  0  0
 34 33  1  6  0  0  0
 34 32  1  0  0  0  0
 37 36  1  0  0  0  0
 37 34  1  0  0  0  0
 37 35  1  0  0  0  0
 38 39  1  0  0  0  0
 39 40  2  0  0  0  0
 40 41  1  0  0  0  0
 42 43  1  6  0  0  0
 42 41  1  0  0  0  0
 42 47  1  0  0  0  0
 44 45  1  0  0  0  0
 44 42  1  0  0  0  0
 46 44  1  0  0  0  0
 47 48  1  0  0  0  0
 48 51  1  0  0  0  0
 48 50  1  0  0  0  0
 48 49  1  0  0  0  0
M  END
>  <MODEL>
6

>  <REMARK>
 VINA RESULT:      -6.4      3.863      8.815
  Name = 
  12 active torsions:
  status: ('A' for Active; 'I' for Inactive)
    1  A    between atoms: C_4  and  C_18
    2  A    between atoms: C_4  and  C_42
    3  A    between atoms: C_8  and  C_43
    4  A    between atoms: C_15  and  O_35
    5  A    between atoms: C_18  and  C_19
    6  A    between atoms: C_19  and  CA_23
    7  A    between atoms: C_22  and  CA_23
    8  A    between atoms: C_27  and  C_43
    9  A    between atoms: C_27  and  N_49
   10  A    between atoms: C_28  and  O_47
   11  A    between atoms: O_35  and  C_43
   12  A    between atoms: C_46  and  O_47
                            x       y       z     vdW  Elec       q    Type
                         _______ _______ _______ _____ _____    ______ ____

>  <TORSDO>
F 12

$$$$
=
 OpenBabel10232408523D

 51 54  0  0  1  0  0  0  0  0999 V2000
  188.8690  178.0160  148.1570 C   0  0  0  0  0  0  0  0  0  0  0  0
  187.5530  178.6470  137.8710 C   0  0  0  0  0  1  0  0  0  0  0  0
  185.9920  177.3870  144.3850 C   0  0  0  0  0  2  0  0  0  0  0  0
  185.4120  177.6480  142.9940 C   0  0  1  0  0  3  0  0  0  0  0  0
  189.7520  176.9820  147.7230 N   0  0  0  0  0  0  0  0  0  0  0  0
  184.0000  178.2140  143.0940 C   0  0  0  0  0  2  0  0  0  0  0  0
  188.9480  177.6930  141.2980 C   0  0  0  0  0  3  0  0  0  0  0  0
  187.9150  178.0340  145.8330 C   0  0  0  0  0  0  0  0  0  0  0  0
  190.9760  176.4020  141.1110 C   0  0  0  0  0  3  0  0  0  0  0  0
  188.8100  177.7450  139.8920 C   0  0  0  0  0  0  0  0  0  0  0  0
  185.8080  178.5020  140.9130 C   0  0  2  0  0  3  0  0  0  0  0  0
  191.4280  176.7350  143.9530 C   0  0  0  0  0  1  0  0  0  0  0  0
  187.6800  178.4500  139.3070 N   0  0  0  0  0  0  0  0  0  0  0  0
  188.8470  177.1200  145.4830 C   0  0  0  0  0  0  0  0  0  0  0  0
  189.7570  176.5640  146.4960 C   0  0  0  0  0  3  0  0  0  0  0  0
  188.9170  176.5380  144.0970 C   0  0  0  0  0  2  0  0  0  0  0  0
  187.8750  178.6270  147.2110 C   0  0  0  0  0  2  0  0  0  0  0  0
  186.2300  178.5320  142.2540 O   0  0  0  0  0  0  0  0  0  0  0  0
  186.8730  178.5380  144.8720 C   0  0  0  0  0  2  0  0  0  0  0  0
  188.9270  178.4200  149.3470 O   0  0  0  0  0  0  0  0  0  0  0  0
  190.1090  176.9410  143.3510 N   0  0  0  0  0  0  0  0  0  0  0  0
  190.8640  176.4290  139.7250 C   0  0  0  0  0  3  0  0  0  0  0  0
  183.4440  178.3130  141.6740 C   0  0  2  0  0  3  0  0  0  0  0  0
  186.8070  179.3140  140.0990 C   0  0  0  0  0  2  0  0  0  0  0  0
  189.7920  177.0840  139.0960 C   0  0  0  0  0  0  0  0  0  0  0  0
  184.4090  179.1210  140.7970 C   0  0  0  0  0  2  0  0  0  0  0  0
  190.0170  177.0280  141.9170 C   0  0  0  0  0  0  0  0  0  0  0  0
  181.9990  178.8380  141.6620 C   0  0  2  0  0  3  0  0  0  0  0  0
  181.4950  178.7930  142.9660 O   0  0  0  0  0  1  0  0  0  0  0  0
  181.1170  177.9840  140.7480 C   0  0  2  0  0  3  0  0  0  0  0  0
  181.8970  177.1140  139.9840 O   0  0  0  0  0  1  0  0  0  0  0  0
  180.2720  178.8360  139.8100 C   0  0  0  0  0  2  0  0  0  0  0  0
  180.6370  178.7870  137.4010 N   0  0  0  0  0  1  0  0  0  0  0  0
  181.1410  179.3130  138.6570 C   0  0  1  0  0  3  0  0  0  0  0  0
  180.3600  181.3770  139.5930 O   0  0  0  0  0  1  0  0  0  0  0  0
  182.5110  181.2870  138.8460 O   0  0  0  0  0  1  0  0  0  0  0  0
  181.2070  180.8400  138.6230 C   0  0  0  0  0  3  0  0  0  0  0  0
  189.7090  177.0750  137.7000 O   0  0  0  0  0  0  0  0  0  0  0  0
  190.8060  176.8230  136.8740 C   0  0  0  0  0  3  0  0  0  0  0  0
  191.0540  175.6230  136.4680 N   0  0  0  0  0  0  0  0  0  0  0  0
  192.2200  175.3760  135.6280 C   0  0  0  0  0  2  0  0  0  0  0  0
  193.2600  174.5180  136.3470 C   0  0  2  0  0  0  0  0  0  0  0  0
  192.6220  173.8900  137.4340 O   0  0  0  0  0  1  0  0  0  0  0  0
  194.3480  175.4840  136.8580 C   0  0  0  0  0  3  0  0  0  0  0  0
  194.1510  175.7920  138.2090 O   0  0  0  0  0  1  0  0  0  0  0  0
  194.4020  176.6620  136.1110 O   0  0  0  0  0  1  0  0  0  0  0  0
  193.8110  173.5910  135.4040 O   0  0  0  0  0  0  0  0  0  0  0  0
  194.4670  172.4710  135.9810 C   0  0  0  0  0  0  0  0  0  0  0  0
  193.5790  171.4180  136.0130 F   0  0  0  0  0  0  0  0  0  0  0  0
  194.8490  172.7330  137.2850 F   0  0  0  0  0  0  0  0  0  0  0  0
  195.5690  172.0730  135.2410 F   0  0  0  0  0  0  0  0  0  0  0  0
  1 20  2  0  0  0  0
  2 13  1  0  0  0  0
  3 19  1  0  0  0  0
  4  6  1  1  0  0  0
  4  3  1  0  0  0  0
  5  1  1  0  0  0  0
  7 27  1  0  0  0  0
  8 17  1  0  0  0  0
  9 27  2  0  0  0  0
 10  7  2  0  0  0  0
 11 24  1  6  0  0  0
 11 18  1  0  0  0  0
 13 10  1  0  0  0  0
 13 24  1  0  0  0  0
 14  8  2  0  0  0  0
 14 15  1  0  0  0  0
 15  5  2  0  0  0  0
 16 14  1  0  0  0  0
 17  1  1  0  0  0  0
 18  4  1  0  0  0  0
 19  8  1  0  0  0  0
 21 12  1  0  0  0  0
 21 16  1  0  0  0  0
 22  9  1  0  0  0  0
 23 28  1  1  0  0  0
 23  6  1  0  0  0  0
 25 22  2  0  0  0  0
 25 10  1  0  0  0  0
 26 11  1  0  0  0  0
 26 23  1  0  0  0  0
 27 21  1  0  0  0  0
 28 29  1  1  0  0  0
 30 31  1  6  0  0  0
 30 28  1  0  0  0  0
 32 30  1  0  0  0  0
 34 33  1  6  0  0  0
 34 32  1  0  0  0  0
 37 34  1  0  0  0  0
 37 36  1  0  0  0  0
 37 35  1  0  0  0  0
 38 25  1  0  0  0  0
 39 38  1  0  0  0  0
 40 39  2  0  0  0  0
 41 42  1  0  0  0  0
 41 40  1  0  0  0  0
 42 44  1  0  0  0  0
 42 43  1  1  0  0  0
 44 45  1  0  0  0  0
 46 44  1  0  0  0  0
 47 48  1  0  0  0  0
 47 42  1  0  0  0  0
 48 49  1  0  0  0  0
 48 50  1  0  0  0  0
 51 48  1  0  0  0  0
M  END
>  <MODEL>
7

>  <REMARK>
 VINA RESULT:      -6.4      3.472      9.666
  Name = 
  12 active torsions:
  status: ('A' for Active; 'I' for Inactive)
    1  A    between atoms: C_4  and  C_18
    2  A    between atoms: C_4  and  C_42
    3  A    between atoms: C_8  and  C_43
    4  A    between atoms: C_15  and  O_35
    5  A    between atoms: C_18  and  C_19
    6  A    between atoms: C_19  and  CA_23
    7  A    between atoms: C_22  and  CA_23
    8  A    between atoms: C_27  and  C_43
    9  A    between atoms: C_27  and  N_49
   10  A    between atoms: C_28  and  O_47
   11  A    between atoms: O_35  and  C_43
   12  A    between atoms: C_46  and  O_47
                            x       y       z     vdW  Elec       q    Type
                         _______ _______ _______ _____ _____    ______ ____

>  <TORSDO>
F 12

$$$$
=
 OpenBabel10232408523D

 51 54  0  0  1  0  0  0  0  0999 V2000
  185.9570  178.4180  145.4110 C   0  0  0  0  0  0  0  0  0  0  0  0
  186.4750  175.7910  135.3730 C   0  0  0  0  0  1  0  0  0  0  0  0
  188.4910  178.3720  141.3510 C   0  0  0  0  0  2  0  0  0  0  0  0
  188.9690  177.8560  139.9930 C   0  0  1  0  0  3  0  0  0  0  0  0
  184.9950  179.3180  144.8620 N   0  0  0  0  0  0  0  0  0  0  0  0
  190.4100  177.3660  140.0770 C   0  0  0  0  0  2  0  0  0  0  0  0
  185.3150  177.3660  138.6560 C   0  0  0  0  0  3  0  0  0  0  0  0
  186.7220  177.9670  143.0610 C   0  0  0  0  0  0  0  0  0  0  0  0
  183.2190  178.5310  138.3980 C   0  0  0  0  0  3  0  0  0  0  0  0
  185.3420  177.0390  137.2800 C   0  0  0  0  0  0  0  0  0  0  0  0
  188.4480  176.5930  138.1630 C   0  0  2  0  0  3  0  0  0  0  0  0
  183.0120  178.7570  141.2790 C   0  0  0  0  0  1  0  0  0  0  0  0
  186.4540  176.2660  136.7480 N   0  0  0  0  0  0  0  0  0  0  0  0
  185.7230  178.7640  142.6220 C   0  0  0  0  0  0  0  0  0  0  0  0
  184.8710  179.4820  143.5830 C   0  0  0  0  0  3  0  0  0  0  0  0
  185.5140  179.0550  141.1610 C   0  0  0  0  0  2  0  0  0  0  0  0
  186.9010  177.6620  144.5200 C   0  0  0  0  0  2  0  0  0  0  0  0
  188.1380  176.8180  139.5150 O   0  0  0  0  0  0  0  0  0  0  0  0
  187.7070  177.3140  142.1300 C   0  0  0  0  0  2  0  0  0  0  0  0
  186.0140  178.2570  146.6570 O   0  0  0  0  0  0  0  0  0  0  0  0
  184.2870  178.4750  140.6160 N   0  0  0  0  0  0  0  0  0  0  0  0
  183.2210  178.2320  137.0400 C   0  0  0  0  0  3  0  0  0  0  0  0
  190.8540  177.0020  138.6610 C   0  0  2  0  0  3  0  0  0  0  0  0
  187.4280  175.6050  137.6140 C   0  0  0  0  0  2  0  0  0  0  0  0
  184.2690  177.4980  136.4600 C   0  0  0  0  0  0  0  0  0  0  0  0
  189.8620  176.0070  138.0480 C   0  0  0  0  0  2  0  0  0  0  0  0
  184.2690  178.1080  139.2240 C   0  0  0  0  0  0  0  0  0  0  0  0
  192.3180  176.5300  138.6250 C   0  0  2  0  0  3  0  0  0  0  0  0
  193.1470  177.6210  138.9070 O   0  0  0  0  0  1  0  0  0  0  0  0
  192.6740  175.9650  137.2480 C   0  0  2  0  0  3  0  0  0  0  0  0
  192.7500  174.5710  137.2930 O   0  0  0  0  0  1  0  0  0  0  0  0
  193.9980  176.5100  136.7320 C   0  0  0  0  0  2  0  0  0  0  0  0
  194.0610  175.9810  134.3530 N   0  0  0  0  0  1  0  0  0  0  0  0
  194.5380  175.5720  135.6630 C   0  0  1  0  0  3  0  0  0  0  0  0
  196.5020  175.2150  136.9880 O   0  0  0  0  0  1  0  0  0  0  0  0
  196.5580  174.5830  134.7990 O   0  0  0  0  0  1  0  0  0  0  0  0
  196.0650  175.5280  135.7010 C   0  0  0  0  0  3  0  0  0  0  0  0
  184.2400  177.2300  135.0870 O   0  0  0  0  0  0  0  0  0  0  0  0
  183.5210  176.1680  134.5340 C   0  0  0  0  0  3  0  0  0  0  0  0
  182.9870  175.2760  135.2990 N   0  0  0  0  0  0  0  0  0  0  0  0
  182.2620  174.1600  134.7000 C   0  0  0  0  0  2  0  0  0  0  0  0
  182.2600  172.9360  135.6140 C   0  0  2  0  0  0  0  0  0  0  0  0
  182.6350  171.8210  134.8410 O   0  0  0  0  0  1  0  0  0  0  0  0
  180.8120  172.7670  136.1180 C   0  0  0  0  0  3  0  0  0  0  0  0
  180.5940  173.5150  137.2810 O   0  0  0  0  0  1  0  0  0  0  0  0
  180.4870  171.4300  136.3520 O   0  0  0  0  0  1  0  0  0  0  0  0
  183.1480  173.1880  136.7080 O   0  0  0  0  0  0  0  0  0  0  0  0
  184.1010  172.1630  136.9520 C   0  0  0  0  0  0  0  0  0  0  0  0
  184.8090  172.4900  138.0880 F   0  0  0  0  0  0  0  0  0  0  0  0
  185.0080  172.0660  135.9110 F   0  0  0  0  0  0  0  0  0  0  0  0
  183.5020  170.9330  137.1670 F   0  0  0  0  0  0  0  0  0  0  0  0
  1 20  2  0  0  0  0
  2 13  1  0  0  0  0
  3 19  1  0  0  0  0
  4  6  1  1  0  0  0
  4  3  1  0  0  0  0
  5  1  1  0  0  0  0
  7 27  1  0  0  0  0
  8 17  1  0  0  0  0
  9 27  2  0  0  0  0
 10  7  2  0  0  0  0
 11 24  1  1  0  0  0
 11 18  1  0  0  0  0
 13 10  1  0  0  0  0
 13 24  1  0  0  0  0
 14  8  2  0  0  0  0
 14 15  1  0  0  0  0
 15  5  2  0  0  0  0
 16 14  1  0  0  0  0
 17  1  1  0  0  0  0
 18  4  1  0  0  0  0
 19  8  1  0  0  0  0
 21 16  1  0  0  0  0
 21 12  1  0  0  0  0
 22  9  1  0  0  0  0
 23 28  1  1  0  0  0
 23  6  1  0  0  0  0
 25 22  2  0  0  0  0
 25 10  1  0  0  0  0
 26 11  1  0  0  0  0
 26 23  1  0  0  0  0
 27 21  1  0  0  0  0
 28 29  1  6  0  0  0
 30 31  1  1  0  0  0
 30 28  1  0  0  0  0
 32 30  1  0  0  0  0
 34 33  1  6  0  0  0
 34 37  1  0  0  0  0
 34 32  1  0  0  0  0
 36 37  1  0  0  0  0
 37 35  1  0  0  0  0
 38 25  1  0  0  0  0
 39 38  1  0  0  0  0
 39 40  2  0  0  0  0
 41 40  1  0  0  0  0
 41 42  1  0  0  0  0
 42 43  1  6  0  0  0
 42 44  1  0  0  0  0
 42 47  1  0  0  0  0
 44 46  1  0  0  0  0
 44 45  1  0  0  0  0
 47 48  1  0  0  0  0
 48 51  1  0  0  0  0
 48 49  1  0  0  0  0
 50 48  1  0  0  0  0
M  END
>  <MODEL>
8

>  <REMARK>
 VINA RESULT:      -6.3      2.809      3.865
  Name = 
  12 active torsions:
  status: ('A' for Active; 'I' for Inactive)
    1  A    between atoms: C_4  and  C_18
    2  A    between atoms: C_4  and  C_42
    3  A    between atoms: C_8  and  C_43
    4  A    between atoms: C_15  and  O_35
    5  A    between atoms: C_18  and  C_19
    6  A    between atoms: C_19  and  CA_23
    7  A    between atoms: C_22  and  CA_23
    8  A    between atoms: C_27  and  C_43
    9  A    between atoms: C_27  and  N_49
   10  A    between atoms: C_28  and  O_47
   11  A    between atoms: O_35  and  C_43
   12  A    between atoms: C_46  and  O_47
                            x       y       z     vdW  Elec       q    Type
                         _______ _______ _______ _____ _____    ______ ____

>  <TORSDO>
F 12

$$$$
=
 OpenBabel10232408523D

 51 54  0  0  1  0  0  0  0  0999 V2000
  193.6920  176.3050  136.5870 C   0  0  0  0  0  0  0  0  0  0  0  0
  185.4060  179.5410  141.9520 C   0  0  0  0  0  1  0  0  0  0  0  0
  191.1650  176.1380  140.6480 C   0  0  0  0  0  2  0  0  0  0  0  0
  190.2430  176.6460  141.7570 C   0  0  1  0  0  3  0  0  0  0  0  0
  192.6480  175.6720  135.8490 N   0  0  0  0  0  0  0  0  0  0  0  0
  191.0120  176.8160  143.0630 C   0  0  0  0  0  2  0  0  0  0  0  0
  187.5770  177.9930  139.2160 C   0  0  0  0  0  3  0  0  0  0  0  0
  192.0000  176.7680  138.3850 C   0  0  0  0  0  0  0  0  0  0  0  0
  186.2660  177.3150  137.3090 C   0  0  0  0  0  3  0  0  0  0  0  0
  186.4180  178.4130  139.9080 C   0  0  0  0  0  0  0  0  0  0  0  0
  188.5990  178.1290  142.3140 C   0  0  2  0  0  3  0  0  0  0  0  0
  188.7060  176.9130  135.7980 C   0  0  0  0  0  1  0  0  0  0  0  0
  186.5430  178.9750  141.2440 N   0  0  0  0  0  0  0  0  0  0  0  0
  191.0540  176.2350  137.5810 C   0  0  0  0  0  0  0  0  0  0  0  0
  191.4300  175.6370  136.2900 C   0  0  0  0  0  3  0  0  0  0  0  0
  189.6170  176.1080  138.0080 C   0  0  0  0  0  2  0  0  0  0  0  0
  193.4240  176.9140  137.9340 C   0  0  0  0  0  2  0  0  0  0  0  0
  189.6330  177.8690  141.3990 O   0  0  0  0  0  0  0  0  0  0  0  0
  191.6970  177.2710  139.7700 C   0  0  0  0  0  2  0  0  0  0  0  0
  194.8520  176.3520  136.1020 O   0  0  0  0  0  0  0  0  0  0  0  0
  188.7040  176.9730  137.2620 N   0  0  0  0  0  0  0  0  0  0  0  0
  185.1070  177.7130  137.9650 C   0  0  0  0  0  3  0  0  0  0  0  0
  190.0000  177.1880  144.1460 C   0  0  2  0  0  3  0  0  0  0  0  0
  187.8370  179.3490  141.8130 C   0  0  0  0  0  2  0  0  0  0  0  0
  185.1560  178.2540  139.2610 C   0  0  0  0  0  0  0  0  0  0  0  0
  189.1930  178.4140  143.7000 C   0  0  0  0  0  2  0  0  0  0  0  0
  187.5170  177.4440  137.9270 C   0  0  0  0  0  0  0  0  0  0  0  0
  190.6680  177.3450  145.5220 C   0  0  2  0  0  3  0  0  0  0  0  0
  191.5860  176.3050  145.6950 O   0  0  0  0  0  1  0  0  0  0  0  0
  189.6260  177.2940  146.6420 C   0  0  2  0  0  3  0  0  0  0  0  0
  189.8150  176.1620  147.4380 O   0  0  0  0  0  1  0  0  0  0  0  0
  188.2030  177.2760  146.0990 C   0  0  0  0  0  2  0  0  0  0  0  0
  188.0220  178.4320  148.2370 N   0  0  0  0  0  1  0  0  0  0  0  0
  187.2620  177.8270  147.1580 C   0  0  1  0  0  3  0  0  0  0  0  0
  185.3610  178.1680  145.7390 O   0  0  0  0  0  1  0  0  0  0  0  0
  185.6090  179.5390  147.5430 O   0  0  0  0  0  1  0  0  0  0  0  0
  186.2850  178.8310  146.5470 C   0  0  0  0  0  3  0  0  0  0  0  0
  183.9650  178.6280  139.8930 O   0  0  0  0  0  0  0  0  0  0  0  0
  182.7380  178.0190  139.6240 C   0  0  0  0  0  3  0  0  0  0  0  0
  182.4780  177.5730  138.4410 N   0  0  0  0  0  0  0  0  0  0  0  0
  181.1800  176.9620  138.1750 C   0  0  0  0  0  2  0  0  0  0  0  0
  181.3090  175.4640  137.9040 C   0  0  2  0  0  0  0  0  0  0  0  0
  181.1180  175.2580  136.5240 O   0  0  0  0  0  1  0  0  0  0  0  0
  180.1820  174.7760  138.7020 C   0  0  0  0  0  3  0  0  0  0  0  0
  180.3800  174.9230  140.0800 O   0  0  0  0  0  1  0  0  0  0  0  0
  180.0620  173.4210  138.3870 O   0  0  0  0  0  1  0  0  0  0  0  0
  182.5920  175.0300  138.3680 O   0  0  0  0  0  0  0  0  0  0  0  0
  183.3580  174.3070  137.4150 C   0  0  0  0  0  0  0  0  0  0  0  0
  184.4720  173.8020  138.0480 F   0  0  0  0  0  0  0  0  0  0  0  0
  183.7980  175.1350  136.3960 F   0  0  0  0  0  0  0  0  0  0  0  0
  182.6550  173.2390  136.8800 F   0  0  0  0  0  0  0  0  0  0  0  0
  1 17  1  0  0  0  0
  4  3  1  6  0  0  0
  4  6  1  0  0  0  0
  5 15  2  0  0  0  0
  5  1  1  0  0  0  0
  6 23  1  0  0  0  0
  7 10  1  0  0  0  0
  8 19  1  0  0  0  0
  9 27  1  0  0  0  0
  9 22  2  0  0  0  0
 10 13  1  0  0  0  0
 11 24  1  6  0  0  0
 11 26  1  0  0  0  0
 12 21  1  0  0  0  0
 13 24  1  0  0  0  0
 13  2  1  0  0  0  0
 14 16  1  0  0  0  0
 14  8  2  0  0  0  0
 15 14  1  0  0  0  0
 17  8  1  0  0  0  0
 18  4  1  0  0  0  0
 18 11  1  0  0  0  0
 19  3  1  0  0  0  0
 20  1  2  0  0  0  0
 21 27  1  0  0  0  0
 21 16  1  0  0  0  0
 22 25  1  0  0  0  0
 23 28  1  1  0  0  0
 25 38  1  0  0  0  0
 25 10  2  0  0  0  0
 26 23  1  0  0  0  0
 27  7  2  0  0  0  0
 28 29  1  1  0  0  0
 28 30  1  0  0  0  0
 30 31  1  6  0  0  0
 32 30  1  0  0  0  0
 32 34  1  0  0  0  0
 34 33  1  1  0  0  0
 35 37  1  0  0  0  0
 37 34  1  0  0  0  0
 37 36  1  0  0  0  0
 39 38  1  0  0  0  0
 40 39  2  0  0  0  0
 41 40  1  0  0  0  0
 42 43  1  6  0  0  0
 42 41  1  0  0  0  0
 42 47  1  0  0  0  0
 42 44  1  0  0  0  0
 44 45  1  0  0  0  0
 46 44  1  0  0  0  0
 48 49  1  0  0  0  0
 48 47  1  0  0  0  0
 50 48  1  0  0  0  0
 51 48  1  0  0  0  0
M  END
>  <MODEL>
9

>  <REMARK>
 VINA RESULT:      -6.3      2.143      7.504
  Name = 
  12 active torsions:
  status: ('A' for Active; 'I' for Inactive)
    1  A    between atoms: C_4  and  C_18
    2  A    between atoms: C_4  and  C_42
    3  A    between atoms: C_8  and  C_43
    4  A    between atoms: C_15  and  O_35
    5  A    between atoms: C_18  and  C_19
    6  A    between atoms: C_19  and  CA_23
    7  A    between atoms: C_22  and  CA_23
    8  A    between atoms: C_27  and  C_43
    9  A    between atoms: C_27  and  N_49
   10  A    between atoms: C_28  and  O_47
   11  A    between atoms: O_35  and  C_43
   12  A    between atoms: C_46  and  O_47
                            x       y       z     vdW  Elec       q    Type
                         _______ _______ _______ _____ _____    ______ ____

>  <TORSDO>
F 12

$$$$
