=
 OpenBabel10222422123D

 29 32  0  0  1  0  0  0  0  0999 V2000
  189.2990  176.8910  143.6800 C   0  0  0  0  0  3  0  0  0  0  0  0
  185.9460  178.4260  143.2720 C   0  0  0  0  0  0  0  0  0  0  0  0
  183.6470  178.8440  142.5390 N   0  0  0  0  0  0  0  0  0  0  0  0
  188.0310  177.3910  144.0040 C   0  0  0  0  0  0  0  0  0  0  0  0
  185.4830  178.4050  144.5980 C   0  0  0  0  0  0  0  0  0  0  0  0
  187.5550  177.3800  145.3310 C   0  0  0  0  0  0  0  0  0  0  0  0
  186.2850  177.8880  145.6160 C   0  0  0  0  0  3  0  0  0  0  0  0
  183.1890  178.8270  143.7580 C   0  0  0  0  0  0  0  0  0  0  0  0
  187.7150  177.9350  141.6590 C   0  0  0  0  0  3  0  0  0  0  0  0
  187.2240  177.9230  142.9700 C   0  0  0  0  0  0  0  0  0  0  0  0
  185.0630  179.0430  142.2200 C   0  0  0  0  0  2  0  0  0  0  0  0
  184.1340  178.9720  144.9290 C   0  0  0  0  0  2  0  0  0  0  0  0
  189.7430  176.9180  142.3960 N   0  0  0  0  0  0  0  0  0  0  0  0
  188.9880  177.4220  141.3810 C   0  0  0  0  0  0  0  0  0  0  0  0
  189.3630  176.2680  138.2440 N   0  0  0  0  0  2  0  0  0  0  0  0
  189.9670  176.2950  139.4680 O   0  0  0  0  0  0  0  0  0  0  0  0
  189.2040  177.6580  137.8180 C   0  0  2  0  0  3  0  0  0  0  0  0
  189.5080  177.4320  140.0460 N   0  0  0  0  0  0  0  0  0  0  0  0
  189.1520  178.4420  139.0870 C   0  0  0  0  0  2  0  0  0  0  0  0
  186.9330  178.5240  137.8830 N   0  0  0  0  0  1  0  0  0  0  0  0
  187.9020  177.8250  137.0580 C   0  0  0  0  0  2  0  0  0  0  0  0
  181.8170  178.6740  143.9600 O   0  0  0  0  0  0  0  0  0  0  0  0
  180.8520  179.2310  143.0800 C   0  0  0  0  0  1  0  0  0  0  0  0
  188.3650  176.8150  146.4540 C   0  0  0  0  0  2  0  0  0  0  0  0
  189.3040  177.8760  147.0050 C   0  0  0  0  0  2  0  0  0  0  0  0
  190.4170  177.2320  147.8160 C   0  0  0  0  0  2  0  0  0  0  0  0
  191.8300  177.3170  145.8970 O   0  0  0  0  0  0  0  0  0  0  0  0
  191.4700  176.6760  146.9190 C   0  0  0  0  0  0  0  0  0  0  0  0
  192.0320  175.4360  147.1910 O   0  0  0  0  0  1  0  0  0  0  0  0
  1  4  1  0  0  0  0
  2  5  1  0  0  0  0
  3  8  2  0  0  0  0
  4  6  2  0  0  0  0
  5 12  1  0  0  0  0
  5  7  2  0  0  0  0
  6  7  1  0  0  0  0
  6 24  1  0  0  0  0
  8 22  1  0  0  0  0
  8 12  1  0  0  0  0
  9 10  1  0  0  0  0
 10  2  2  0  0  0  0
 10  4  1  0  0  0  0
 11  3  1  0  0  0  0
 11  2  1  0  0  0  0
 13  1  2  0  0  0  0
 14  9  2  0  0  0  0
 14 13  1  0  0  0  0
 15 16  1  0  0  0  0
 16 18  1  0  0  0  0
 17 21  1  1  0  0  0
 17 15  1  0  0  0  0
 17 19  1  0  0  0  0
 18 14  1  0  0  0  0
 19 18  1  0  0  0  0
 21 20  1  0  0  0  0
 23 22  1  0  0  0  0
 24 25  1  0  0  0  0
 25 26  1  0  0  0  0
 27 28  2  0  0  0  0
 28 29  1  0  0  0  0
 28 26  1  0  0  0  0
M  END
>  <MODEL>
1

>  <REMARK>
 VINA RESULT:      -8.9      0.000      0.000
  Name = 
  7 active torsions:
  status: ('A' for Active; 'I' for Inactive)
    1  A    between atoms: C_2  and  C_16
    2  A    between atoms: C_2  and  C_17
    3  A    between atoms: O_6  and  C_13
    4  A    between atoms: C_11  and  C_24
    5  A    between atoms: C_15  and  C_18
    6  A    between atoms: C_17  and  C_24
    7  A    between atoms: N_23  and  C_27
                            x       y       z     vdW  Elec       q    Type
                         _______ _______ _______ _____ _____    ______ ____

>  <TORSDO>
F 7

$$$$
=
 OpenBabel10222422123D

 29 32  0  0  1  0  0  0  0  0999 V2000
  186.3860  178.6010  140.8010 C   0  0  0  0  0  3  0  0  0  0  0  0
  188.1130  177.5470  143.9110 C   0  0  0  0  0  0  0  0  0  0  0  0
  189.7010  177.4320  145.7720 N   0  0  0  0  0  0  0  0  0  0  0  0
  186.5980  178.3010  142.1530 C   0  0  0  0  0  0  0  0  0  0  0  0
  187.0770  177.6850  144.8490 C   0  0  0  0  0  0  0  0  0  0  0  0
  185.5660  178.4320  143.1040 C   0  0  0  0  0  0  0  0  0  0  0  0
  185.8150  178.1220  144.4440 C   0  0  0  0  0  3  0  0  0  0  0  0
  188.7610  177.5630  146.6640 C   0  0  0  0  0  0  0  0  0  0  0  0
  188.8890  177.7160  141.6000 C   0  0  0  0  0  3  0  0  0  0  0  0
  187.8770  177.8500  142.5580 C   0  0  0  0  0  0  0  0  0  0  0  0
  189.4410  177.0210  144.3900 C   0  0  0  0  0  2  0  0  0  0  0  0
  187.3160  177.3300  146.2860 C   0  0  0  0  0  2  0  0  0  0  0  0
  187.3920  178.4620  139.8980 N   0  0  0  0  0  0  0  0  0  0  0  0
  188.6320  178.0320  140.2600 C   0  0  0  0  0  0  0  0  0  0  0  0
  191.2840  176.5740  138.7920 N   0  0  0  0  0  2  0  0  0  0  0  0
  190.9320  177.6050  139.6150 O   0  0  0  0  0  0  0  0  0  0  0  0
  190.5740  176.7780  137.5290 C   0  0  2  0  0  3  0  0  0  0  0  0
  189.6550  177.8950  139.2650 N   0  0  0  0  0  0  0  0  0  0  0  0
  189.3620  177.5670  137.8960 C   0  0  0  0  0  2  0  0  0  0  0  0
  190.7430  174.3590  137.7150 N   0  0  0  0  0  1  0  0  0  0  0  0
  190.1580  175.4410  136.9440 C   0  0  0  0  0  2  0  0  0  0  0  0
  189.1130  177.9180  147.9660 O   0  0  0  0  0  0  0  0  0  0  0  0
  188.1510  178.0630  149.0010 C   0  0  0  0  0  1  0  0  0  0  0  0
  184.2040  178.9190  142.7270 C   0  0  0  0  0  2  0  0  0  0  0  0
  183.4530  179.3830  143.9650 C   0  0  0  0  0  2  0  0  0  0  0  0
  182.0880  178.7190  144.0390 C   0  0  0  0  0  2  0  0  0  0  0  0
  180.6190  180.3030  143.0290 O   0  0  0  0  0  1  0  0  0  0  0  0
  181.2080  179.1940  142.9330 C   0  0  0  0  0  0  0  0  0  0  0  0
  181.0120  178.4010  141.8100 O   0  0  0  0  0  0  0  0  0  0  0  0
  1  4  1  0  0  0  0
  2 11  1  0  0  0  0
  2  5  1  0  0  0  0
  3  8  2  0  0  0  0
  4 10  1  0  0  0  0
  4  6  2  0  0  0  0
  5 12  1  0  0  0  0
  6  7  1  0  0  0  0
  7  5  2  0  0  0  0
  8 22  1  0  0  0  0
  9 10  1  0  0  0  0
 10  2  2  0  0  0  0
 11  3  1  0  0  0  0
 12  8  1  0  0  0  0
 13 14  1  0  0  0  0
 13  1  2  0  0  0  0
 14  9  2  0  0  0  0
 15 16  1  0  0  0  0
 17 21  1  1  0  0  0
 17 19  1  0  0  0  0
 17 15  1  0  0  0  0
 18 16  1  0  0  0  0
 18 14  1  0  0  0  0
 19 18  1  0  0  0  0
 21 20  1  0  0  0  0
 22 23  1  0  0  0  0
 24  6  1  0  0  0  0
 24 25  1  0  0  0  0
 25 26  1  0  0  0  0
 28 27  1  0  0  0  0
 28 26  1  0  0  0  0
 29 28  2  0  0  0  0
M  END
>  <MODEL>
2

>  <REMARK>
 VINA RESULT:      -8.9      1.872      5.899
  Name = 
  7 active torsions:
  status: ('A' for Active; 'I' for Inactive)
    1  A    between atoms: C_2  and  C_16
    2  A    between atoms: C_2  and  C_17
    3  A    between atoms: O_6  and  C_13
    4  A    between atoms: C_11  and  C_24
    5  A    between atoms: C_15  and  C_18
    6  A    between atoms: C_17  and  C_24
    7  A    between atoms: N_23  and  C_27
                            x       y       z     vdW  Elec       q    Type
                         _______ _______ _______ _____ _____    ______ ____

>  <TORSDO>
F 7

$$$$
=
 OpenBabel10222422123D

 29 32  0  0  1  0  0  0  0  0999 V2000
  186.6970  178.4430  141.0570 C   0  0  0  0  0  3  0  0  0  0  0  0
  189.4870  177.1280  143.1200 C   0  0  0  0  0  0  0  0  0  0  0  0
  191.6530  176.9020  144.2380 N   0  0  0  0  0  0  0  0  0  0  0  0
  187.4050  177.9780  142.1730 C   0  0  0  0  0  0  0  0  0  0  0  0
  188.8670  177.0390  144.3770 C   0  0  0  0  0  0  0  0  0  0  0  0
  186.7940  177.8800  143.4400 C   0  0  0  0  0  0  0  0  0  0  0  0
  187.5310  177.4110  144.5300 C   0  0  0  0  0  3  0  0  0  0  0  0
  191.1060  176.8210  145.4180 C   0  0  0  0  0  0  0  0  0  0  0  0
  189.3470  177.6880  140.7450 C   0  0  0  0  0  3  0  0  0  0  0  0
  188.7570  177.5940  142.0110 C   0  0  0  0  0  0  0  0  0  0  0  0
  190.9150  176.6650  142.9960 C   0  0  0  0  0  2  0  0  0  0  0  0
  189.6330  176.5120  145.5530 C   0  0  0  0  0  2  0  0  0  0  0  0
  187.3020  178.5230  139.8420 N   0  0  0  0  0  0  0  0  0  0  0  0
  188.6020  178.1620  139.6580 C   0  0  0  0  0  0  0  0  0  0  0  0
  189.8790  176.9540  136.7890 N   0  0  0  0  0  2  0  0  0  0  0  0
  190.2360  177.4740  138.0010 O   0  0  0  0  0  0  0  0  0  0  0  0
  189.0680  177.9690  136.1160 C   0  0  2  0  0  3  0  0  0  0  0  0
  189.1880  178.2590  138.3530 N   0  0  0  0  0  0  0  0  0  0  0  0
  188.4700  178.7740  137.2200 C   0  0  0  0  0  2  0  0  0  0  0  0
  186.6710  177.6340  135.8780 N   0  0  0  0  0  1  0  0  0  0  0  0
  187.9660  177.3040  135.3110 C   0  0  0  0  0  2  0  0  0  0  0  0
  191.9020  177.0220  146.5460 O   0  0  0  0  0  0  0  0  0  0  0  0
  192.1970  175.9800  147.4640 C   0  0  0  0  0  1  0  0  0  0  0  0
  185.3720  178.2880  143.6630 C   0  0  0  0  0  2  0  0  0  0  0  0
  185.2820  179.2460  144.8400 C   0  0  0  0  0  2  0  0  0  0  0  0
  185.0140  178.4820  146.1270 C   0  0  0  0  0  2  0  0  0  0  0  0
  185.8250  180.1010  147.6780 O   0  0  0  0  0  0  0  0  0  0  0  0
  185.9290  178.9360  147.2120 C   0  0  0  0  0  0  0  0  0  0  0  0
  186.9190  178.0870  147.6870 O   0  0  0  0  0  1  0  0  0  0  0  0
  1  4  1  0  0  0  0
  2  5  1  0  0  0  0
  3  8  2  0  0  0  0
  4  6  2  0  0  0  0
  5  7  2  0  0  0  0
  5 12  1  0  0  0  0
  6 24  1  0  0  0  0
  6  7  1  0  0  0  0
  8 12  1  0  0  0  0
  8 22  1  0  0  0  0
  9 10  1  0  0  0  0
 10  4  1  0  0  0  0
 10  2  2  0  0  0  0
 11  2  1  0  0  0  0
 11  3  1  0  0  0  0
 13  1  2  0  0  0  0
 14 13  1  0  0  0  0
 14  9  2  0  0  0  0
 15 16  1  0  0  0  0
 16 18  1  0  0  0  0
 17 21  1  1  0  0  0
 17 15  1  0  0  0  0
 17 19  1  0  0  0  0
 18 14  1  0  0  0  0
 19 18  1  0  0  0  0
 21 20  1  0  0  0  0
 22 23  1  0  0  0  0
 24 25  1  0  0  0  0
 25 26  1  0  0  0  0
 26 28  1  0  0  0  0
 28 27  2  0  0  0  0
 28 29  1  0  0  0  0
M  END
>  <MODEL>
3

>  <REMARK>
 VINA RESULT:      -8.4      2.128      5.202
  Name = 
  7 active torsions:
  status: ('A' for Active; 'I' for Inactive)
    1  A    between atoms: C_2  and  C_16
    2  A    between atoms: C_2  and  C_17
    3  A    between atoms: O_6  and  C_13
    4  A    between atoms: C_11  and  C_24
    5  A    between atoms: C_15  and  C_18
    6  A    between atoms: C_17  and  C_24
    7  A    between atoms: N_23  and  C_27
                            x       y       z     vdW  Elec       q    Type
                         _______ _______ _______ _____ _____    ______ ____

>  <TORSDO>
F 7

$$$$
=
 OpenBabel10222422123D

 29 32  0  0  1  0  0  0  0  0999 V2000
  188.5890  178.0400  140.3500 C   0  0  0  0  0  3  0  0  0  0  0  0
  189.9540  177.0230  143.6470 C   0  0  0  0  0  0  0  0  0  0  0  0
  191.3280  176.9250  145.6720 N   0  0  0  0  0  0  0  0  0  0  0  0
  188.6500  177.7610  141.7220 C   0  0  0  0  0  0  0  0  0  0  0  0
  188.8240  177.1880  144.4640 C   0  0  0  0  0  0  0  0  0  0  0  0
  187.5210  177.9200  142.5530 C   0  0  0  0  0  0  0  0  0  0  0  0
  187.6190  177.6310  143.9160 C   0  0  0  0  0  3  0  0  0  0  0  0
  190.2980  177.0810  146.4530 C   0  0  0  0  0  0  0  0  0  0  0  0
  190.9800  177.1440  141.4320 C   0  0  0  0  0  3  0  0  0  0  0  0
  189.8710  177.3050  142.2720 C   0  0  0  0  0  0  0  0  0  0  0  0
  191.2150  176.4920  144.2770 C   0  0  0  0  0  2  0  0  0  0  0  0
  188.9000  176.8570  145.9240 C   0  0  0  0  0  2  0  0  0  0  0  0
  189.6870  177.8740  139.5650 N   0  0  0  0  0  0  0  0  0  0  0  0
  190.8740  177.4380  140.0670 C   0  0  0  0  0  0  0  0  0  0  0  0
  193.9070  176.2840  139.1810 N   0  0  0  0  0  2  0  0  0  0  0  0
  193.2660  177.3910  139.6570 O   0  0  0  0  0  0  0  0  0  0  0  0
  193.3010  175.9660  137.8880 C   0  0  2  0  0  3  0  0  0  0  0  0
  191.9980  177.2730  139.1920 N   0  0  0  0  0  0  0  0  0  0  0  0
  191.9190  176.5250  137.9670 C   0  0  0  0  0  2  0  0  0  0  0  0
  194.4840  173.8550  138.1230 N   0  0  0  0  0  1  0  0  0  0  0  0
  193.2350  174.4620  137.7000 C   0  0  0  0  0  2  0  0  0  0  0  0
  190.5100  177.4560  147.7810 O   0  0  0  0  0  0  0  0  0  0  0  0
  189.5280  178.1420  148.5430 C   0  0  0  0  0  1  0  0  0  0  0  0
  186.2140  178.4140  142.0200 C   0  0  0  0  0  2  0  0  0  0  0  0
  185.0840  178.0060  142.9510 C   0  0  0  0  0  2  0  0  0  0  0  0
  184.0920  179.1470  143.1150 C   0  0  0  0  0  2  0  0  0  0  0  0
  182.0250  178.7270  144.2260 O   0  0  0  0  0  0  0  0  0  0  0  0
  183.2590  178.9520  144.3350 C   0  0  0  0  0  0  0  0  0  0  0  0
  183.8350  179.0500  145.5940 O   0  0  0  0  0  1  0  0  0  0  0  0
  1  4  1  0  0  0  0
  2 11  1  0  0  0  0
  2  5  1  0  0  0  0
  3  8  2  0  0  0  0
  4 10  1  0  0  0  0
  4  6  2  0  0  0  0
  5 12  1  0  0  0  0
  6  7  1  0  0  0  0
  7  5  2  0  0  0  0
  8 22  1  0  0  0  0
  9 10  1  0  0  0  0
 10  2  2  0  0  0  0
 11  3  1  0  0  0  0
 12  8  1  0  0  0  0
 13 14  1  0  0  0  0
 13  1  2  0  0  0  0
 14  9  2  0  0  0  0
 15 16  1  0  0  0  0
 17 21  1  1  0  0  0
 17 19  1  0  0  0  0
 17 15  1  0  0  0  0
 18 16  1  0  0  0  0
 18 14  1  0  0  0  0
 19 18  1  0  0  0  0
 21 20  1  0  0  0  0
 22 23  1  0  0  0  0
 24  6  1  0  0  0  0
 24 25  1  0  0  0  0
 25 26  1  0  0  0  0
 26 28  1  0  0  0  0
 27 28  2  0  0  0  0
 28 29  1  0  0  0  0
M  END
>  <MODEL>
4

>  <REMARK>
 VINA RESULT:      -8.2      2.497      6.118
  Name = 
  7 active torsions:
  status: ('A' for Active; 'I' for Inactive)
    1  A    between atoms: C_2  and  C_16
    2  A    between atoms: C_2  and  C_17
    3  A    between atoms: O_6  and  C_13
    4  A    between atoms: C_11  and  C_24
    5  A    between atoms: C_15  and  C_18
    6  A    between atoms: C_17  and  C_24
    7  A    between atoms: N_23  and  C_27
                            x       y       z     vdW  Elec       q    Type
                         _______ _______ _______ _____ _____    ______ ____

>  <TORSDO>
F 7

$$$$
=
 OpenBabel10222422123D

 29 32  0  0  1  0  0  0  0  0999 V2000
  189.9580  177.0620  141.7310 C   0  0  0  0  0  3  0  0  0  0  0  0
  186.5460  178.4750  142.0900 C   0  0  0  0  0  0  0  0  0  0  0  0
  184.1470  178.8740  141.8090 N   0  0  0  0  0  0  0  0  0  0  0  0
  188.7510  177.4560  142.3230 C   0  0  0  0  0  0  0  0  0  0  0  0
  186.3160  178.2660  143.4600 C   0  0  0  0  0  0  0  0  0  0  0  0
  188.5080  177.2550  143.6970 C   0  0  0  0  0  0  0  0  0  0  0  0
  187.2920  177.6630  144.2530 C   0  0  0  0  0  3  0  0  0  0  0  0
  183.9030  178.6810  143.0740 C   0  0  0  0  0  0  0  0  0  0  0  0
  188.0260  178.2760  140.1560 C   0  0  0  0  0  3  0  0  0  0  0  0
  187.7670  178.0750  141.5170 C   0  0  0  0  0  0  0  0  0  0  0  0
  185.4820  179.1780  141.2890 C   0  0  0  0  0  2  0  0  0  0  0  0
  185.0300  178.7210  144.0810 C   0  0  0  0  0  2  0  0  0  0  0  0
  190.1760  177.2710  140.4060 N   0  0  0  0  0  0  0  0  0  0  0  0
  189.2460  177.8630  139.6060 C   0  0  0  0  0  0  0  0  0  0  0  0
  189.7010  176.9070  136.4130 N   0  0  0  0  0  2  0  0  0  0  0  0
  190.3780  177.2430  137.5510 O   0  0  0  0  0  0  0  0  0  0  0  0
  188.8780  178.0620  136.0530 C   0  0  2  0  0  3  0  0  0  0  0  0
  189.5310  178.0660  138.2160 N   0  0  0  0  0  0  0  0  0  0  0  0
  188.6380  178.7760  137.3410 C   0  0  0  0  0  2  0  0  0  0  0  0
  186.5390  177.5760  136.5050 N   0  0  0  0  0  1  0  0  0  0  0  0
  187.5570  177.5980  135.4700 C   0  0  0  0  0  2  0  0  0  0  0  0
  182.5890  178.4390  143.4780 O   0  0  0  0  0  0  0  0  0  0  0  0
  181.4760  179.0720  142.8640 C   0  0  0  0  0  1  0  0  0  0  0  0
  189.5120  176.5920  144.5860 C   0  0  0  0  0  2  0  0  0  0  0  0
  190.0680  177.5950  145.5840 C   0  0  0  0  0  2  0  0  0  0  0  0
  190.1290  176.9830  146.9740 C   0  0  0  0  0  2  0  0  0  0  0  0
  187.8510  177.0250  147.6770 O   0  0  0  0  0  0  0  0  0  0  0  0
  189.0130  177.4880  147.8230 C   0  0  0  0  0  0  0  0  0  0  0  0
  189.2460  178.4920  148.7540 O   0  0  0  0  0  1  0  0  0  0  0  0
  1  4  1  0  0  0  0
  2  5  1  0  0  0  0
  3  8  2  0  0  0  0
  4  6  2  0  0  0  0
  5 12  1  0  0  0  0
  5  7  2  0  0  0  0
  6  7  1  0  0  0  0
  6 24  1  0  0  0  0
  8 22  1  0  0  0  0
  8 12  1  0  0  0  0
  9 10  1  0  0  0  0
 10  2  2  0  0  0  0
 10  4  1  0  0  0  0
 11  3  1  0  0  0  0
 11  2  1  0  0  0  0
 13  1  2  0  0  0  0
 14  9  2  0  0  0  0
 14 13  1  0  0  0  0
 15 16  1  0  0  0  0
 16 18  1  0  0  0  0
 17 21  1  1  0  0  0
 17 15  1  0  0  0  0
 17 19  1  0  0  0  0
 18 14  1  0  0  0  0
 19 18  1  0  0  0  0
 21 20  1  0  0  0  0
 23 22  1  0  0  0  0
 24 25  1  0  0  0  0
 25 26  1  0  0  0  0
 26 28  1  0  0  0  0
 27 28  2  0  0  0  0
 28 29  1  0  0  0  0
M  END
>  <MODEL>
5

>  <REMARK>
 VINA RESULT:      -8.2      1.619      1.997
  Name = 
  7 active torsions:
  status: ('A' for Active; 'I' for Inactive)
    1  A    between atoms: C_2  and  C_16
    2  A    between atoms: C_2  and  C_17
    3  A    between atoms: O_6  and  C_13
    4  A    between atoms: C_11  and  C_24
    5  A    between atoms: C_15  and  C_18
    6  A    between atoms: C_17  and  C_24
    7  A    between atoms: N_23  and  C_27
                            x       y       z     vdW  Elec       q    Type
                         _______ _______ _______ _____ _____    ______ ____

>  <TORSDO>
F 7

$$$$
=
 OpenBabel10222422123D

 29 32  0  0  1  0  0  0  0  0999 V2000
  185.8910  178.1810  144.3240 C   0  0  0  0  0  3  0  0  0  0  0  0
  188.5200  177.4630  141.8070 C   0  0  0  0  0  0  0  0  0  0  0  0
  190.1480  177.7250  139.9960 N   0  0  0  0  0  0  0  0  0  0  0  0
  187.1210  177.7900  143.7780 C   0  0  0  0  0  0  0  0  0  0  0  0
  189.5640  177.0180  142.6340 C   0  0  0  0  0  0  0  0  0  0  0  0
  188.1760  177.3390  144.5980 C   0  0  0  0  0  0  0  0  0  0  0  0
  189.3880  176.9560  144.0170 C   0  0  0  0  0  3  0  0  0  0  0  0
  191.1360  177.3200  140.7420 C   0  0  0  0  0  0  0  0  0  0  0  0
  186.2320  178.2890  141.5750 C   0  0  0  0  0  3  0  0  0  0  0  0
  187.2920  177.8470  142.3750 C   0  0  0  0  0  0  0  0  0  0  0  0
  188.7430  177.4610  140.3170 C   0  0  0  0  0  2  0  0  0  0  0  0
  190.8630  176.5760  142.0290 C   0  0  0  0  0  2  0  0  0  0  0  0
  184.8830  178.6070  143.5170 N   0  0  0  0  0  0  0  0  0  0  0  0
  185.0210  178.6730  142.1640 C   0  0  0  0  0  0  0  0  0  0  0  0
  183.2090  178.9210  139.3410 N   0  0  0  0  0  2  0  0  0  0  0  0
  184.1270  179.5870  140.1020 O   0  0  0  0  0  0  0  0  0  0  0  0
  182.0380  178.6950  140.1880 C   0  0  2  0  0  3  0  0  0  0  0  0
  183.9240  179.1220  141.3590 N   0  0  0  0  0  0  0  0  0  0  0  0
  182.5730  178.6840  141.5820 C   0  0  0  0  0  2  0  0  0  0  0  0
  182.4350  176.4290  139.4010 N   0  0  0  0  0  1  0  0  0  0  0  0
  181.4140  177.3500  139.8670 C   0  0  0  0  0  2  0  0  0  0  0  0
  192.4430  177.5830  140.3300 O   0  0  0  0  0  0  0  0  0  0  0  0
  193.0230  176.9590  139.1940 C   0  0  0  0  0  1  0  0  0  0  0  0
  188.0460  177.2760  146.0860 C   0  0  0  0  0  2  0  0  0  0  0  0
  189.3120  177.8030  146.7430 C   0  0  0  0  0  2  0  0  0  0  0  0
  190.0350  176.6860  147.4780 C   0  0  0  0  0  2  0  0  0  0  0  0
  191.8960  177.0570  146.0340 O   0  0  0  0  0  0  0  0  0  0  0  0
  191.4940  176.7130  147.1770 C   0  0  0  0  0  0  0  0  0  0  0  0
  192.4120  176.3300  148.1460 O   0  0  0  0  0  1  0  0  0  0  0  0
  2 10  2  0  0  0  0
  2  5  1  0  0  0  0
  3 11  1  0  0  0  0
  3  8  2  0  0  0  0
  4  1  1  0  0  0  0
  4  6  2  0  0  0  0
  5  7  2  0  0  0  0
  6 24  1  0  0  0  0
  7  6  1  0  0  0  0
  8 12  1  0  0  0  0
  9 14  2  0  0  0  0
  9 10  1  0  0  0  0
 10  4  1  0  0  0  0
 11  2  1  0  0  0  0
 12  5  1  0  0  0  0
 13  1  2  0  0  0  0
 14 13  1  0  0  0  0
 15 16  1  0  0  0  0
 15 17  1  0  0  0  0
 16 18  1  0  0  0  0
 17 21  1  6  0  0  0
 17 19  1  0  0  0  0
 18 19  1  0  0  0  0
 18 14  1  0  0  0  0
 20 21  1  0  0  0  0
 22  8  1  0  0  0  0
 23 22  1  0  0  0  0
 24 25  1  0  0  0  0
 25 26  1  0  0  0  0
 27 28  2  0  0  0  0
 28 26  1  0  0  0  0
 28 29  1  0  0  0  0
M  END
>  <MODEL>
6

>  <REMARK>
 VINA RESULT:      -8.1      2.100      5.643
  Name = 
  7 active torsions:
  status: ('A' for Active; 'I' for Inactive)
    1  A    between atoms: C_2  and  C_16
    2  A    between atoms: C_2  and  C_17
    3  A    between atoms: O_6  and  C_13
    4  A    between atoms: C_11  and  C_24
    5  A    between atoms: C_15  and  C_18
    6  A    between atoms: C_17  and  C_24
    7  A    between atoms: N_23  and  C_27
                            x       y       z     vdW  Elec       q    Type
                         _______ _______ _______ _____ _____    ______ ____

>  <TORSDO>
F 7

$$$$
=
 OpenBabel10222422123D

 29 32  0  0  1  0  0  0  0  0999 V2000
  186.8770  178.1080  142.4380 C   0  0  0  0  0  3  0  0  0  0  0  0
  189.6470  176.9740  144.6310 C   0  0  0  0  0  0  0  0  0  0  0  0
  191.7910  176.8620  145.8090 N   0  0  0  0  0  0  0  0  0  0  0  0
  187.5690  177.7210  143.5930 C   0  0  0  0  0  0  0  0  0  0  0  0
  189.0000  176.9380  145.8770 C   0  0  0  0  0  0  0  0  0  0  0  0
  186.9300  177.6760  144.8500 C   0  0  0  0  0  0  0  0  0  0  0  0
  187.6520  177.2840  145.9800 C   0  0  0  0  0  3  0  0  0  0  0  0
  191.2180  176.8300  146.9780 C   0  0  0  0  0  0  0  0  0  0  0  0
  189.5500  177.4020  142.2270 C   0  0  0  0  0  3  0  0  0  0  0  0
  188.9330  177.3620  143.4830 C   0  0  0  0  0  0  0  0  0  0  0  0
  191.0880  176.5400  144.5640 C   0  0  0  0  0  2  0  0  0  0  0  0
  189.7490  176.4930  147.0970 C   0  0  0  0  0  2  0  0  0  0  0  0
  187.5090  178.1370  141.2350 N   0  0  0  0  0  0  0  0  0  0  0  0
  188.8200  177.7990  141.0990 C   0  0  0  0  0  0  0  0  0  0  0  0
  189.6310  176.5890  138.0670 N   0  0  0  0  0  2  0  0  0  0  0  0
  190.1240  176.7750  139.3270 O   0  0  0  0  0  0  0  0  0  0  0  0
  189.2750  177.9110  137.5520 C   0  0  2  0  0  3  0  0  0  0  0  0
  189.4350  177.8400  139.8050 N   0  0  0  0  0  0  0  0  0  0  0  0
  188.9910  178.7300  138.7670 C   0  0  0  0  0  2  0  0  0  0  0  0
  187.1040  178.8820  137.0440 N   0  0  0  0  0  1  0  0  0  0  0  0
  188.0270  177.8170  136.6940 C   0  0  0  0  0  2  0  0  0  0  0  0
  191.9830  177.1110  148.1110 O   0  0  0  0  0  0  0  0  0  0  0  0
  192.8860  176.1690  148.6710 C   0  0  0  0  0  1  0  0  0  0  0  0
  185.4950  178.0600  145.0180 C   0  0  0  0  0  2  0  0  0  0  0  0
  185.2330  179.4040  144.3560 C   0  0  0  0  0  2  0  0  0  0  0  0
  183.7630  179.7750  144.4710 C   0  0  0  0  0  2  0  0  0  0  0  0
  181.8550  178.4160  144.0290 O   0  0  0  0  0  1  0  0  0  0  0  0
  182.9290  178.9080  143.5920 C   0  0  0  0  0  0  0  0  0  0  0  0
  183.3490  178.6150  142.3020 O   0  0  0  0  0  0  0  0  0  0  0  0
  1  4  1  0  0  0  0
  2  5  1  0  0  0  0
  3  8  2  0  0  0  0
  4  6  2  0  0  0  0
  5  7  2  0  0  0  0
  5 12  1  0  0  0  0
  6 24  1  0  0  0  0
  6  7  1  0  0  0  0
  8 12  1  0  0  0  0
  8 22  1  0  0  0  0
  9 10  1  0  0  0  0
 10  4  1  0  0  0  0
 10  2  2  0  0  0  0
 11  2  1  0  0  0  0
 11  3  1  0  0  0  0
 13  1  2  0  0  0  0
 14 13  1  0  0  0  0
 14  9  2  0  0  0  0
 15 16  1  0  0  0  0
 16 18  1  0  0  0  0
 17 21  1  6  0  0  0
 17 15  1  0  0  0  0
 17 19  1  0  0  0  0
 18 14  1  0  0  0  0
 19 18  1  0  0  0  0
 21 20  1  0  0  0  0
 22 23  1  0  0  0  0
 25 26  1  0  0  0  0
 25 24  1  0  0  0  0
 28 27  1  0  0  0  0
 28 26  1  0  0  0  0
 29 28  2  0  0  0  0
M  END
>  <MODEL>
7

>  <REMARK>
 VINA RESULT:      -8.1      1.393      5.945
  Name = 
  7 active torsions:
  status: ('A' for Active; 'I' for Inactive)
    1  A    between atoms: C_2  and  C_16
    2  A    between atoms: C_2  and  C_17
    3  A    between atoms: O_6  and  C_13
    4  A    between atoms: C_11  and  C_24
    5  A    between atoms: C_15  and  C_18
    6  A    between atoms: C_17  and  C_24
    7  A    between atoms: N_23  and  C_27
                            x       y       z     vdW  Elec       q    Type
                         _______ _______ _______ _____ _____    ______ ____

>  <TORSDO>
F 7

$$$$
=
 OpenBabel10222422123D

 29 32  0  0  1  0  0  0  0  0999 V2000
  187.9050  178.0050  140.0760 C   0  0  0  0  0  3  0  0  0  0  0  0
  189.6670  176.8370  143.1250 C   0  0  0  0  0  0  0  0  0  0  0  0
  191.3610  176.5350  144.8670 N   0  0  0  0  0  0  0  0  0  0  0  0
  188.1750  177.7580  141.4280 C   0  0  0  0  0  0  0  0  0  0  0  0
  188.7620  177.2370  144.1230 C   0  0  0  0  0  0  0  0  0  0  0  0
  187.2740  178.1510  142.4390 C   0  0  0  0  0  0  0  0  0  0  0  0
  187.5760  177.8860  143.7780 C   0  0  0  0  0  3  0  0  0  0  0  0
  190.5450  176.9060  145.8120 C   0  0  0  0  0  0  0  0  0  0  0  0
  190.2540  176.6990  140.7570 C   0  0  0  0  0  3  0  0  0  0  0  0
  189.3740  177.0920  141.7730 C   0  0  0  0  0  0  0  0  0  0  0  0
  190.9060  176.0930  143.5460 C   0  0  0  0  0  2  0  0  0  0  0  0
  189.0550  176.9380  145.5620 C   0  0  0  0  0  2  0  0  0  0  0  0
  188.7830  177.6110  139.1160 N   0  0  0  0  0  0  0  0  0  0  0  0
  189.9450  176.9710  139.4180 C   0  0  0  0  0  0  0  0  0  0  0  0
  191.4650  174.7650  137.3840 N   0  0  0  0  0  2  0  0  0  0  0  0
  191.6550  175.5050  138.5160 O   0  0  0  0  0  0  0  0  0  0  0  0
  191.1760  175.7100  136.3050 C   0  0  2  0  0  3  0  0  0  0  0  0
  190.8310  176.5700  138.3660 N   0  0  0  0  0  0  0  0  0  0  0  0
  190.5920  176.9020  136.9870 C   0  0  0  0  0  2  0  0  0  0  0  0
  188.8800  174.9610  136.0240 N   0  0  0  0  0  1  0  0  0  0  0  0
  190.1570  175.1150  135.3510 C   0  0  0  0  0  2  0  0  0  0  0  0
  191.0710  177.2690  147.0530 O   0  0  0  0  0  0  0  0  0  0  0  0
  191.9760  176.4400  147.7670 C   0  0  0  0  0  1  0  0  0  0  0  0
  186.0010  178.8710  142.1250 C   0  0  0  0  0  2  0  0  0  0  0  0
  185.2110  179.1160  143.4000 C   0  0  0  0  0  2  0  0  0  0  0  0
  183.7290  178.8790  143.1610 C   0  0  0  0  0  2  0  0  0  0  0  0
  183.5850  179.0870  145.5320 O   0  0  0  0  0  1  0  0  0  0  0  0
  182.9820  178.8560  144.4510 C   0  0  0  0  0  0  0  0  0  0  0  0
  181.6280  178.5500  144.4660 O   0  0  0  0  0  0  0  0  0  0  0  0
  1  4  1  0  0  0  0
  2 11  1  0  0  0  0
  2  5  1  0  0  0  0
  3  8  2  0  0  0  0
  4 10  1  0  0  0  0
  4  6  2  0  0  0  0
  5 12  1  0  0  0  0
  6  7  1  0  0  0  0
  7  5  2  0  0  0  0
  8 22  1  0  0  0  0
  9 10  1  0  0  0  0
 10  2  2  0  0  0  0
 11  3  1  0  0  0  0
 12  8  1  0  0  0  0
 13 14  1  0  0  0  0
 13  1  2  0  0  0  0
 14  9  2  0  0  0  0
 15 16  1  0  0  0  0
 17 21  1  6  0  0  0
 17 19  1  0  0  0  0
 17 15  1  0  0  0  0
 18 16  1  0  0  0  0
 18 14  1  0  0  0  0
 19 18  1  0  0  0  0
 21 20  1  0  0  0  0
 22 23  1  0  0  0  0
 24  6  1  0  0  0  0
 24 25  1  0  0  0  0
 26 25  1  0  0  0  0
 26 28  1  0  0  0  0
 28 29  2  0  0  0  0
 28 27  1  0  0  0  0
M  END
>  <MODEL>
8

>  <REMARK>
 VINA RESULT:      -7.5      1.978      5.973
  Name = 
  7 active torsions:
  status: ('A' for Active; 'I' for Inactive)
    1  A    between atoms: C_2  and  C_16
    2  A    between atoms: C_2  and  C_17
    3  A    between atoms: O_6  and  C_13
    4  A    between atoms: C_11  and  C_24
    5  A    between atoms: C_15  and  C_18
    6  A    between atoms: C_17  and  C_24
    7  A    between atoms: N_23  and  C_27
                            x       y       z     vdW  Elec       q    Type
                         _______ _______ _______ _____ _____    ______ ____

>  <TORSDO>
F 7

$$$$
=
 OpenBabel10222422123D

 29 32  0  0  1  0  0  0  0  0999 V2000
  190.3790  177.0280  142.4490 C   0  0  0  0  0  3  0  0  0  0  0  0
  187.5570  178.2770  140.3890 C   0  0  0  0  0  0  0  0  0  0  0  0
  185.8210  178.4460  138.6700 N   0  0  0  0  0  0  0  0  0  0  0  0
  189.1000  177.4860  142.1050 C   0  0  0  0  0  0  0  0  0  0  0  0
  186.5550  178.4090  141.3640 C   0  0  0  0  0  0  0  0  0  0  0  0
  188.0860  177.6260  143.0750 C   0  0  0  0  0  0  0  0  0  0  0  0
  186.8230  178.0870  142.6960 C   0  0  0  0  0  3  0  0  0  0  0  0
  184.8710  178.5650  139.5530 C   0  0  0  0  0  0  0  0  0  0  0  0
  189.8550  177.6840  139.8060 C   0  0  0  0  0  3  0  0  0  0  0  0
  188.8350  177.8200  140.7560 C   0  0  0  0  0  0  0  0  0  0  0  0
  187.2330  178.6890  138.9770 C   0  0  0  0  0  2  0  0  0  0  0  0
  185.2010  178.9280  140.9830 C   0  0  0  0  0  2  0  0  0  0  0  0
  191.3450  176.9070  141.5000 N   0  0  0  0  0  0  0  0  0  0  0  0
  191.1180  177.2190  140.1950 C   0  0  0  0  0  0  0  0  0  0  0  0
  194.1190  176.1740  139.0930 N   0  0  0  0  0  2  0  0  0  0  0  0
  193.4690  177.2650  139.5960 O   0  0  0  0  0  0  0  0  0  0  0  0
  193.4270  175.7990  137.8600 C   0  0  2  0  0  3  0  0  0  0  0  0
  192.1740  177.0810  139.2360 N   0  0  0  0  0  0  0  0  0  0  0  0
  192.0330  176.3010  138.0370 C   0  0  0  0  0  2  0  0  0  0  0  0
  192.2470  173.8780  136.9490 N   0  0  0  0  0  1  0  0  0  0  0  0
  193.4130  174.2890  137.7090 C   0  0  0  0  0  2  0  0  0  0  0  0
  183.5500  178.3550  139.1540 O   0  0  0  0  0  0  0  0  0  0  0  0
  182.7130  179.4110  138.7080 C   0  0  0  0  0  1  0  0  0  0  0  0
  188.3140  177.2720  144.5100 C   0  0  0  0  0  2  0  0  0  0  0  0
  186.9950  177.2790  145.2660 C   0  0  0  0  0  2  0  0  0  0  0  0
  187.1300  178.0600  146.5630 C   0  0  0  0  0  2  0  0  0  0  0  0
  185.9840  179.9190  147.5210 O   0  0  0  0  0  1  0  0  0  0  0  0
  185.9100  178.8760  146.8180 C   0  0  0  0  0  0  0  0  0  0  0  0
  184.6830  178.4720  146.3090 O   0  0  0  0  0  0  0  0  0  0  0  0
  2 10  2  0  0  0  0
  2  5  1  0  0  0  0
  3 11  1  0  0  0  0
  3  8  2  0  0  0  0
  4  1  1  0  0  0  0
  4  6  2  0  0  0  0
  5  7  2  0  0  0  0
  6 24  1  0  0  0  0
  7  6  1  0  0  0  0
  8 12  1  0  0  0  0
  9 14  2  0  0  0  0
  9 10  1  0  0  0  0
 10  4  1  0  0  0  0
 11  2  1  0  0  0  0
 12  5  1  0  0  0  0
 13  1  2  0  0  0  0
 14 13  1  0  0  0  0
 15 16  1  0  0  0  0
 17 21  1  1  0  0  0
 17 19  1  0  0  0  0
 17 15  1  0  0  0  0
 18 16  1  0  0  0  0
 18 14  1  0  0  0  0
 19 18  1  0  0  0  0
 20 21  1  0  0  0  0
 22  8  1  0  0  0  0
 23 22  1  0  0  0  0
 24 25  1  0  0  0  0
 25 26  1  0  0  0  0
 26 28  1  0  0  0  0
 28 27  1  0  0  0  0
 29 28  2  0  0  0  0
M  END
>  <MODEL>
9

>  <REMARK>
 VINA RESULT:      -7.4      3.042      4.289
  Name = 
  7 active torsions:
  status: ('A' for Active; 'I' for Inactive)
    1  A    between atoms: C_2  and  C_16
    2  A    between atoms: C_2  and  C_17
    3  A    between atoms: O_6  and  C_13
    4  A    between atoms: C_11  and  C_24
    5  A    between atoms: C_15  and  C_18
    6  A    between atoms: C_17  and  C_24
    7  A    between atoms: N_23  and  C_27
                            x       y       z     vdW  Elec       q    Type
                         _______ _______ _______ _____ _____    ______ ____

>  <TORSDO>
F 7

$$$$
