=
 OpenBabel10232409043D

 57 64  0  0  1  0  0  0  0  0999 V2000
  190.3930  174.9420  136.2730 C   0  0  2  0  0  3  0  0  0  0  0  0
  191.4580  175.5280  137.2180 C   0  0  0  0  0  0  0  0  0  0  0  0
  190.8640  174.6700  134.9620 O   0  0  0  0  0  0  0  0  0  0  0  0
  193.1340  175.1220  135.4560 C   0  0  0  0  0  2  0  0  0  0  0  0
  192.7340  175.6600  136.7970 C   0  0  0  0  0  0  0  0  0  0  0  0
  192.1280  174.0700  135.0250 C   0  0  0  0  0  2  0  0  0  0  0  0
  187.7840  174.1040  137.1130 O   0  0  0  0  0  0  0  0  0  0  0  0
  186.0820  177.0880  135.5150 C   0  0  1  0  0  0  0  0  0  0  0  0
  185.5960  176.8440  136.7830 C   0  0  2  0  0  3  0  0  0  0  0  0
  187.8400  175.1940  136.4830 C   0  0  0  0  0  0  0  0  0  0  0  0
  185.3810  176.6700  134.3960 F   0  0  0  0  0  0  0  0  0  0  0  0
  189.1530  175.8440  136.1180 C   0  0  2  0  0  3  0  0  0  0  0  0
  187.1730  178.1370  135.3440 C   0  0  0  0  0  2  0  0  0  0  0  0
  188.2910  177.6090  134.4780 C   0  0  0  0  0  3  0  0  0  0  0  0
  186.6560  175.9310  136.2480 N   0  0  0  0  0  0  0  0  0  0  0  0
  189.1360  176.6130  134.8120 C   0  0  0  0  0  3  0  0  0  0  0  0
  184.2630  176.1150  136.8040 C   0  0  0  0  0  2  0  0  0  0  0  0
  183.3340  176.8600  137.6420 N   0  0  0  0  0  2  0  0  0  0  0  0
  182.2990  178.0170  135.8920 O   0  0  0  0  0  0  0  0  0  0  0  0
  182.5600  177.9460  137.1260 C   0  0  0  0  0  0  0  0  0  0  0  0
  181.3290  179.5370  140.3680 C   0  0  1  0  0  3  0  0  0  0  0  0
  181.8180  178.4580  139.4080 C   0  0  0  0  0  2  0  0  0  0  0  0
  181.3260  181.8750  138.5050 O   0  0  0  0  0  1  0  0  0  0  0  0
  180.8810  179.7510  137.4690 C   0  0  0  0  0  2  0  0  0  0  0  0
  180.3880  180.8430  138.4200 C   0  0  1  0  0  3  0  0  0  0  0  0
  182.1160  179.0430  138.0320 C   0  0  2  0  0  3  0  0  0  0  0  0
  180.1030  180.2690  139.8090 C   0  0  0  0  0  2  0  0  0  0  0  0
  181.0790  178.9620  141.7660 C   0  0  0  0  0  2  0  0  0  0  0  0
  183.5240  179.1850  144.7520 C   0  0  0  0  0  2  0  0  0  0  0  0
  182.3160  178.7890  142.5960 C   0  0  0  0  0  0  0  0  0  0  0  0
  182.2350  178.6760  144.0990 C   0  0  0  0  0  2  0  0  0  0  0  0
  183.4810  178.5670  141.9800 C   0  0  0  0  0  3  0  0  0  0  0  0
  184.7190  178.3620  142.7570 C   0  0  0  0  0  3  0  0  0  0  0  0
  184.7370  178.6130  144.0680 C   0  0  0  0  0  3  0  0  0  0  0  0
  194.6700  175.3840  138.4510 C   0  0  0  0  0  0  0  0  0  0  0  0
  194.9950  175.7870  139.5990 O   0  0  0  0  0  0  0  0  0  0  0  0
  193.7350  176.1660  137.6940 N   0  0  0  0  0  2  0  0  0  0  0  0
  194.7710  172.9000  138.1840 C   0  0  0  0  0  3  0  0  0  0  0  0
  196.4130  171.8740  136.8290 C   0  0  0  0  0  3  0  0  0  0  0  0
  196.4080  174.2300  137.0410 C   0  0  0  0  0  0  0  0  0  0  0  0
  195.3350  171.7850  137.6490 N   0  0  0  0  0  0  0  0  0  0  0  0
  196.9740  175.4220  136.7240 F   0  0  0  0  0  0  0  0  0  0  0  0
  196.9410  173.0870  136.5320 N   0  0  0  0  0  0  0  0  0  0  0  0
  195.3010  174.1640  137.9010 C   0  0  0  0  0  0  0  0  0  0  0  0
  191.1760  175.7310  138.6510 C   0  0  0  0  0  3  0  0  0  0  0  0
  190.8260  176.8780  139.1290 N   0  0  0  0  0  0  0  0  0  0  0  0
  189.4380  177.2590  145.0570 C   0  0  0  0  0  0  0  0  0  0  0  0
  189.1780  177.0790  142.3040 C   0  0  0  0  0  0  0  0  0  0  0  0
  191.6190  177.3260  141.7560 S   0  0  0  0  0  0  0  0  0  0  0  0
  190.4030  177.2860  142.9110 C   0  0  0  0  0  0  0  0  0  0  0  0
  190.4910  177.0660  140.5020 C   0  0  0  0  0  0  0  0  0  0  0  0
  190.5440  177.3630  144.2600 N   0  0  0  0  0  0  0  0  0  0  0  0
  188.1690  177.0430  144.4850 C   0  0  0  0  0  3  0  0  0  0  0  0
  188.0340  176.9530  143.0870 C   0  0  0  0  0  3  0  0  0  0  0  0
  189.2170  176.9510  140.9550 N   0  0  0  0  0  0  0  0  0  0  0  0
  188.3030  177.0790  147.1740 N   0  0  0  0  0  1  0  0  0  0  0  0
  189.5930  177.3030  146.5410 C   0  0  0  0  0  2  0  0  0  0  0  0
  1  3  1  6  0  0  0
  1  2  1  0  0  0  0
  2 45  1  0  0  0  0
  3  6  1  0  0  0  0
  4  5  1  0  0  0  0
  5  2  2  0  0  0  0
  5 37  1  0  0  0  0
  6  4  1  0  0  0  0
  8 11  1  6  0  0  0
  8 15  1  0  0  0  0
  8  9  1  0  0  0  0
  9 17  1  6  0  0  0
 10  7  2  0  0  0  0
 12 16  1  6  0  0  0
 12  1  1  0  0  0  0
 12 10  1  0  0  0  0
 13  8  1  0  0  0  0
 14 16  2  0  0  0  0
 14 13  1  0  0  0  0
 15 10  1  0  0  0  0
 15  9  1  0  0  0  0
 17 18  1  0  0  0  0
 19 20  2  0  0  0  0
 20 18  1  0  0  0  0
 21 28  1  1  0  0  0
 22 21  1  0  0  0  0
 24 26  1  0  0  0  0
 24 25  1  0  0  0  0
 25 23  1  1  0  0  0
 25 27  1  0  0  0  0
 26 20  1  6  0  0  0
 26 22  1  0  0  0  0
 27 21  1  0  0  0  0
 28 30  1  0  0  0  0
 30 31  1  0  0  0  0
 31 29  1  0  0  0  0
 32 30  2  0  0  0  0
 32 33  1  0  0  0  0
 33 34  2  0  0  0  0
 34 29  1  0  0  0  0
 35 36  2  0  0  0  0
 37 35  1  0  0  0  0
 39 41  1  0  0  0  0
 40 44  2  0  0  0  0
 41 38  2  0  0  0  0
 42 40  1  0  0  0  0
 43 39  2  0  0  0  0
 43 40  1  0  0  0  0
 44 38  1  0  0  0  0
 44 35  1  0  0  0  0
 45 46  2  0  0  0  0
 46 51  1  0  0  0  0
 47 57  1  0  0  0  0
 48 50  2  0  0  0  0
 48 54  1  0  0  0  0
 49 50  1  0  0  0  0
 50 52  1  0  0  0  0
 51 55  2  0  0  0  0
 51 49  1  0  0  0  0
 52 47  2  0  0  0  0
 53 47  1  0  0  0  0
 54 53  2  0  0  0  0
 55 48  1  0  0  0  0
 57 56  1  0  0  0  0
M  END
>  <MODEL>
1

>  <REMARK>
 VINA RESULT:      -9.3      0.000      0.000
  Name = 
  11 active torsions:
  status: ('A' for Active; 'I' for Inactive)
    1  A    between atoms: C_2  and  N_19
    2  A    between atoms: C_2  and  C_24
    3  A    between atoms: C_3  and  C_8
    4  A    between atoms: C_4  and  C_9
    5  A    between atoms: C_5  and  C_49
    6  A    between atoms: C_9  and  C_20
    7  A    between atoms: C_14  and  C_41
    8  A    between atoms: C_15  and  C_30
    9  A    between atoms: C_18  and  N_35
   10  A    between atoms: C_46  and  N_51
   11  A    between atoms: C_54  and  C_56
                            x       y       z     vdW  Elec       q    Type
                         _______ _______ _______ _____ _____    ______ ____

>  <TORSDO>
F 11

$$$$
=
 OpenBabel10232409043D

 57 64  0  0  1  0  0  0  0  0999 V2000
  191.2200  176.0350  136.2940 C   0  0  2  0  0  3  0  0  0  0  0  0
  191.3390  174.5040  136.3960 C   0  0  0  0  0  0  0  0  0  0  0  0
  192.4480  176.6990  136.0400 O   0  0  0  0  0  0  0  0  0  0  0  0
  193.6900  174.7150  135.6850 C   0  0  0  0  0  2  0  0  0  0  0  0
  192.5250  173.9020  136.1630 C   0  0  0  0  0  0  0  0  0  0  0  0
  193.1750  176.0020  135.0660 C   0  0  0  0  0  2  0  0  0  0  0  0
  192.4450  175.7820  138.8730 O   0  0  0  0  0  0  0  0  0  0  0  0
  189.4980  177.3570  140.6590 C   0  0  1  0  0  0  0  0  0  0  0  0
  190.6990  177.8550  141.1210 C   0  0  2  0  0  3  0  0  0  0  0  0
  191.3140  176.3380  138.8490 C   0  0  0  0  0  0  0  0  0  0  0  0
  188.8170  176.3800  141.3670 F   0  0  0  0  0  0  0  0  0  0  0  0
  190.6190  176.6860  137.5550 C   0  0  2  0  0  3  0  0  0  0  0  0
  188.7480  178.1430  139.5920 C   0  0  0  0  0  2  0  0  0  0  0  0
  188.2960  177.2330  138.4770 C   0  0  0  0  0  3  0  0  0  0  0  0
  190.7370  176.8090  140.0510 N   0  0  0  0  0  0  0  0  0  0  0  0
  189.1070  176.5990  137.6060 C   0  0  0  0  0  3  0  0  0  0  0  0
  191.1530  177.2490  142.4390 C   0  0  0  0  0  2  0  0  0  0  0  0
  190.2110  177.6320  143.4810 N   0  0  0  0  0  2  0  0  0  0  0  0
  191.6380  177.1850  145.2790 O   0  0  0  0  0  0  0  0  0  0  0  0
  190.4570  177.3480  144.8610 C   0  0  0  0  0  0  0  0  0  0  0  0
  186.9900  177.9700  146.3270 C   0  0  1  0  0  3  0  0  0  0  0  0
  188.1760  178.0900  145.3750 C   0  0  0  0  0  2  0  0  0  0  0  0
  188.1350  176.0190  148.2820 O   0  0  0  0  0  1  0  0  0  0  0  0
  189.7420  177.4750  147.2410 C   0  0  0  0  0  2  0  0  0  0  0  0
  188.5610  177.3480  148.2060 C   0  0  1  0  0  3  0  0  0  0  0  0
  189.3160  177.1710  145.8020 C   0  0  2  0  0  3  0  0  0  0  0  0
  187.4050  178.2520  147.7750 C   0  0  0  0  0  2  0  0  0  0  0  0
  185.8240  178.8510  145.8700 C   0  0  0  0  0  2  0  0  0  0  0  0
  185.9600  178.4530  142.0270 C   0  0  0  0  0  2  0  0  0  0  0  0
  185.3810  178.6130  144.4580 C   0  0  0  0  0  0  0  0  0  0  0  0
  186.3130  177.9900  143.4450 C   0  0  0  0  0  2  0  0  0  0  0  0
  184.0960  178.8040  144.1420 C   0  0  0  0  0  3  0  0  0  0  0  0
  183.6110  178.5540  142.7710 C   0  0  0  0  0  3  0  0  0  0  0  0
  184.4790  178.3500  141.7780 C   0  0  0  0  0  3  0  0  0  0  0  0
  193.7800  171.6860  135.8940 C   0  0  0  0  0  0  0  0  0  0  0  0
  193.6100  170.5650  135.3460 O   0  0  0  0  0  0  0  0  0  0  0  0
  192.6230  172.4700  136.2160 N   0  0  0  0  0  2  0  0  0  0  0  0
  196.1060  172.3290  135.2380 C   0  0  0  0  0  3  0  0  0  0  0  0
  197.6910  173.0230  136.8470 C   0  0  0  0  0  3  0  0  0  0  0  0
  195.5220  172.4110  137.5630 C   0  0  0  0  0  0  0  0  0  0  0  0
  197.3530  172.7670  135.5580 N   0  0  0  0  0  0  0  0  0  0  0  0
  194.6460  172.2390  138.5850 F   0  0  0  0  0  0  0  0  0  0  0  0
  196.7810  172.8440  137.8360 N   0  0  0  0  0  0  0  0  0  0  0  0
  195.1500  172.1280  136.2390 C   0  0  0  0  0  0  0  0  0  0  0  0
  190.1400  173.6530  136.5100 C   0  0  0  0  0  3  0  0  0  0  0  0
  189.0150  173.9710  135.9590 N   0  0  0  0  0  0  0  0  0  0  0  0
  183.9430  170.5820  135.8740 C   0  0  0  0  0  0  0  0  0  0  0  0
  185.8040  172.5090  136.5840 C   0  0  0  0  0  0  0  0  0  0  0  0
  187.6390  171.7320  135.0510 S   0  0  0  0  0  0  0  0  0  0  0  0
  186.0920  171.5160  135.6650 C   0  0  0  0  0  0  0  0  0  0  0  0
  187.8700  173.1220  136.0130 C   0  0  0  0  0  0  0  0  0  0  0  0
  185.1830  170.5750  135.3000 N   0  0  0  0  0  0  0  0  0  0  0  0
  183.6020  171.5750  136.8120 C   0  0  0  0  0  3  0  0  0  0  0  0
  184.5450  172.5540  137.1760 C   0  0  0  0  0  3  0  0  0  0  0  0
  186.7920  173.4150  136.7830 N   0  0  0  0  0  0  0  0  0  0  0  0
  181.5970  170.1480  135.5480 N   0  0  0  0  0  1  0  0  0  0  0  0
  182.9280  169.5740  135.4470 C   0  0  0  0  0  2  0  0  0  0  0  0
  1  3  1  1  0  0  0
  1  2  1  0  0  0  0
  1 12  1  0  0  0  0
  2 45  1  0  0  0  0
  4  5  1  0  0  0  0
  5 37  1  0  0  0  0
  5  2  2  0  0  0  0
  6  4  1  0  0  0  0
  6  3  1  0  0  0  0
  8  9  1  0  0  0  0
  8 11  1  1  0  0  0
  9 17  1  1  0  0  0
 10  7  2  0  0  0  0
 10 15  1  0  0  0  0
 12 16  1  1  0  0  0
 12 10  1  0  0  0  0
 13  8  1  0  0  0  0
 14 13  1  0  0  0  0
 15  8  1  0  0  0  0
 15  9  1  0  0  0  0
 16 14  2  0  0  0  0
 17 18  1  0  0  0  0
 18 20  1  0  0  0  0
 20 19  2  0  0  0  0
 21 28  1  6  0  0  0
 21 27  1  0  0  0  0
 22 26  1  0  0  0  0
 22 21  1  0  0  0  0
 24 25  1  0  0  0  0
 25 23  1  6  0  0  0
 26 20  1  6  0  0  0
 26 24  1  0  0  0  0
 27 25  1  0  0  0  0
 29 31  1  0  0  0  0
 30 28  1  0  0  0  0
 31 30  1  0  0  0  0
 32 30  2  0  0  0  0
 33 32  1  0  0  0  0
 34 29  1  0  0  0  0
 34 33  2  0  0  0  0
 35 37  1  0  0  0  0
 35 44  1  0  0  0  0
 36 35  2  0  0  0  0
 38 41  2  0  0  0  0
 38 44  1  0  0  0  0
 39 43  2  0  0  0  0
 40 43  1  0  0  0  0
 40 42  1  0  0  0  0
 41 39  1  0  0  0  0
 44 40  2  0  0  0  0
 46 51  1  0  0  0  0
 46 45  2  0  0  0  0
 47 53  1  0  0  0  0
 48 55  1  0  0  0  0
 48 54  1  0  0  0  0
 49 50  1  0  0  0  0
 49 51  1  0  0  0  0
 50 48  2  0  0  0  0
 51 55  2  0  0  0  0
 52 50  1  0  0  0  0
 52 47  2  0  0  0  0
 53 54  2  0  0  0  0
 57 56  1  0  0  0  0
 57 47  1  0  0  0  0
M  END
>  <MODEL>
2

>  <REMARK>
 VINA RESULT:      -8.1      3.833      7.516
  Name = 
  11 active torsions:
  status: ('A' for Active; 'I' for Inactive)
    1  A    between atoms: C_2  and  N_19
    2  A    between atoms: C_2  and  C_24
    3  A    between atoms: C_3  and  C_8
    4  A    between atoms: C_4  and  C_9
    5  A    between atoms: C_5  and  C_49
    6  A    between atoms: C_9  and  C_20
    7  A    between atoms: C_14  and  C_41
    8  A    between atoms: C_15  and  C_30
    9  A    between atoms: C_18  and  N_35
   10  A    between atoms: C_46  and  N_51
   11  A    between atoms: C_54  and  C_56
                            x       y       z     vdW  Elec       q    Type
                         _______ _______ _______ _____ _____    ______ ____

>  <TORSDO>
F 11

$$$$
=
 OpenBabel10232409043D

 57 64  0  0  1  0  0  0  0  0999 V2000
  191.1050  177.3830  140.0800 C   0  0  2  0  0  3  0  0  0  0  0  0
  190.7960  176.3400  138.9910 C   0  0  0  0  0  0  0  0  0  0  0  0
  192.4850  177.5260  140.3750 O   0  0  0  0  0  0  0  0  0  0  0  0
  193.2230  176.1320  138.6100 C   0  0  0  0  0  2  0  0  0  0  0  0
  191.8060  175.7170  138.3480 C   0  0  0  0  0  0  0  0  0  0  0  0
  193.2280  177.5360  139.1870 C   0  0  0  0  0  2  0  0  0  0  0  0
  188.5520  178.5170  140.7260 O   0  0  0  0  0  0  0  0  0  0  0  0
  188.6900  177.3090  144.3140 C   0  0  1  0  0  0  0  0  0  0  0  0
  187.4520  177.0830  143.7480 C   0  0  2  0  0  3  0  0  0  0  0  0
  189.1280  177.8830  141.6510 C   0  0  0  0  0  0  0  0  0  0  0  0
  188.8970  178.3920  145.1540 F   0  0  0  0  0  0  0  0  0  0  0  0
  190.3950  177.0970  141.4180 C   0  0  2  0  0  3  0  0  0  0  0  0
  189.7030  176.1730  144.3240 C   0  0  0  0  0  2  0  0  0  0  0  0
  191.0530  176.6560  143.8510 C   0  0  0  0  0  3  0  0  0  0  0  0
  188.4970  177.7520  142.9100 N   0  0  0  0  0  0  0  0  0  0  0  0
  191.3440  177.0630  142.5990 C   0  0  0  0  0  3  0  0  0  0  0  0
  186.3950  178.0990  144.1480 C   0  0  0  0  0  2  0  0  0  0  0  0
  185.1970  177.8650  143.3560 N   0  0  0  0  0  2  0  0  0  0  0  0
  184.3800  180.0530  143.4910 O   0  0  0  0  0  0  0  0  0  0  0  0
  184.1440  178.8300  143.2780 C   0  0  0  0  0  0  0  0  0  0  0  0
  181.0250  178.1020  141.2050 C   0  0  1  0  0  3  0  0  0  0  0  0
  182.4580  178.5120  141.5230 C   0  0  0  0  0  2  0  0  0  0  0  0
  180.0640  177.5130  143.9740 O   0  0  0  0  0  1  0  0  0  0  0  0
  181.7480  179.2230  143.8260 C   0  0  0  0  0  2  0  0  0  0  0  0
  180.3060  178.8120  143.5210 C   0  0  1  0  0  3  0  0  0  0  0  0
  182.7440  178.3890  143.0160 C   0  0  2  0  0  3  0  0  0  0  0  0
  180.0150  178.9150  142.0220 C   0  0  0  0  0  2  0  0  0  0  0  0
  180.7510  178.1740  139.6990 C   0  0  0  0  0  2  0  0  0  0  0  0
  182.5780  181.4420  138.7340 C   0  0  0  0  0  2  0  0  0  0  0  0
  181.0180  179.5140  139.0830 C   0  0  0  0  0  0  0  0  0  0  0  0
  182.4150  179.9190  138.6750 C   0  0  0  0  0  2  0  0  0  0  0  0
  179.9820  180.2870  138.7430 C   0  0  0  0  0  3  0  0  0  0  0  0
  180.1980  181.6020  138.1080 C   0  0  0  0  0  3  0  0  0  0  0  0
  181.4210  182.1340  138.0650 C   0  0  0  0  0  3  0  0  0  0  0  0
  192.1840  174.6820  136.0360 C   0  0  0  0  0  0  0  0  0  0  0  0
  191.5060  174.3570  135.0250 O   0  0  0  0  0  0  0  0  0  0  0  0
  191.5160  174.7770  137.3020 N   0  0  0  0  0  2  0  0  0  0  0  0
  194.1420  176.1180  135.4380 C   0  0  0  0  0  3  0  0  0  0  0  0
  196.3600  175.3460  135.7020 C   0  0  0  0  0  3  0  0  0  0  0  0
  194.5690  173.9100  136.2720 C   0  0  0  0  0  0  0  0  0  0  0  0
  195.4830  176.3190  135.3460 N   0  0  0  0  0  0  0  0  0  0  0  0
  194.1560  172.7000  136.7270 F   0  0  0  0  0  0  0  0  0  0  0  0
  195.9010  174.1550  136.1590 N   0  0  0  0  0  0  0  0  0  0  0  0
  193.6420  174.8950  135.8990 C   0  0  0  0  0  0  0  0  0  0  0  0
  189.4290  176.1730  138.4630 C   0  0  0  0  0  3  0  0  0  0  0  0
  188.9120  177.0000  137.6150 N   0  0  0  0  0  0  0  0  0  0  0  0
  183.2200  176.1150  135.6080 C   0  0  0  0  0  0  0  0  0  0  0  0
  185.8680  175.6580  136.2830 C   0  0  0  0  0  0  0  0  0  0  0  0
  186.4420  178.0350  136.8700 S   0  0  0  0  0  0  0  0  0  0  0  0
  185.3130  176.9250  136.3130 C   0  0  0  0  0  0  0  0  0  0  0  0
  187.6150  176.8100  137.0530 C   0  0  0  0  0  0  0  0  0  0  0  0
  184.0130  177.1580  135.9970 N   0  0  0  0  0  0  0  0  0  0  0  0
  183.7390  174.8070  135.5660 C   0  0  0  0  0  3  0  0  0  0  0  0
  185.0840  174.5720  135.9070 C   0  0  0  0  0  3  0  0  0  0  0  0
  187.1570  175.5830  136.6990 N   0  0  0  0  0  0  0  0  0  0  0  0
  181.3800  177.6540  135.8230 N   0  0  0  0  0  1  0  0  0  0  0  0
  181.7810  176.3600  135.2970 C   0  0  0  0  0  2  0  0  0  0  0  0
  1  2  1  6  0  0  0
  1  3  1  0  0  0  0
  1 12  1  0  0  0  0
  4  6  1  0  0  0  0
  5  4  1  0  0  0  0
  5  2  2  0  0  0  0
  6  3  1  0  0  0  0
  7 10  2  0  0  0  0
  8 13  1  0  0  0  0
  8 11  1  1  0  0  0
  9 17  1  1  0  0  0
  9  8  1  0  0  0  0
 10 15  1  0  0  0  0
 12 10  1  0  0  0  0
 12 16  1  1  0  0  0
 14 13  1  0  0  0  0
 15  9  1  0  0  0  0
 15  8  1  0  0  0  0
 16 14  2  0  0  0  0
 18 17  1  0  0  0  0
 20 18  1  0  0  0  0
 20 19  2  0  0  0  0
 21 28  1  6  0  0  0
 21 22  1  0  0  0  0
 21 27  1  0  0  0  0
 22 26  1  0  0  0  0
 25 24  1  0  0  0  0
 25 23  1  6  0  0  0
 26 20  1  6  0  0  0
 26 24  1  0  0  0  0
 27 25  1  0  0  0  0
 30 28  1  0  0  0  0
 31 29  1  0  0  0  0
 31 30  1  0  0  0  0
 32 30  2  0  0  0  0
 33 32  1  0  0  0  0
 34 33  2  0  0  0  0
 34 29  1  0  0  0  0
 35 37  1  0  0  0  0
 36 35  2  0  0  0  0
 37  5  1  0  0  0  0
 38 44  1  0  0  0  0
 39 43  2  0  0  0  0
 40 42  1  0  0  0  0
 41 38  2  0  0  0  0
 41 39  1  0  0  0  0
 43 40  1  0  0  0  0
 44 35  1  0  0  0  0
 44 40  2  0  0  0  0
 45  2  1  0  0  0  0
 46 45  2  0  0  0  0
 47 52  1  0  0  0  0
 48 50  1  0  0  0  0
 48 55  1  0  0  0  0
 49 51  1  0  0  0  0
 50 49  1  0  0  0  0
 51 46  1  0  0  0  0
 52 50  2  0  0  0  0
 53 47  2  0  0  0  0
 53 54  1  0  0  0  0
 54 48  2  0  0  0  0
 55 51  2  0  0  0  0
 57 47  1  0  0  0  0
 57 56  1  0  0  0  0
M  END
>  <MODEL>
3

>  <REMARK>
 VINA RESULT:      -7.7      2.879      6.651
  Name = 
  11 active torsions:
  status: ('A' for Active; 'I' for Inactive)
    1  A    between atoms: C_2  and  N_19
    2  A    between atoms: C_2  and  C_24
    3  A    between atoms: C_3  and  C_8
    4  A    between atoms: C_4  and  C_9
    5  A    between atoms: C_5  and  C_49
    6  A    between atoms: C_9  and  C_20
    7  A    between atoms: C_14  and  C_41
    8  A    between atoms: C_15  and  C_30
    9  A    between atoms: C_18  and  N_35
   10  A    between atoms: C_46  and  N_51
   11  A    between atoms: C_54  and  C_56
                            x       y       z     vdW  Elec       q    Type
                         _______ _______ _______ _____ _____    ______ ____

>  <TORSDO>
F 11

$$$$
=
 OpenBabel10232409043D

 57 64  0  0  1  0  0  0  0  0999 V2000
  184.7220  179.1310  143.0440 C   0  0  2  0  0  3  0  0  0  0  0  0
  185.8660  178.1020  142.9980 C   0  0  0  0  0  0  0  0  0  0  0  0
  184.2260  179.3930  144.3470 O   0  0  0  0  0  0  0  0  0  0  0  0
  185.8930  178.1380  145.4630 C   0  0  0  0  0  2  0  0  0  0  0  0
  186.3680  177.6010  144.1460 C   0  0  0  0  0  0  0  0  0  0  0  0
  185.2920  179.5150  145.2470 C   0  0  0  0  0  2  0  0  0  0  0  0
  184.6380  179.5990  140.2170 O   0  0  0  0  0  0  0  0  0  0  0  0
  180.9850  178.6280  139.9530 C   0  0  1  0  0  0  0  0  0  0  0  0
  181.7360  178.0680  138.9400 C   0  0  2  0  0  3  0  0  0  0  0  0
  183.5730  179.1760  140.7410 C   0  0  0  0  0  0  0  0  0  0  0  0
  180.2260  179.7640  139.7250 F   0  0  0  0  0  0  0  0  0  0  0  0
  183.5080  178.7320  142.1820 C   0  0  2  0  0  3  0  0  0  0  0  0
  180.6950  177.7920  141.1910 C   0  0  0  0  0  2  0  0  0  0  0  0
  180.9670  178.5840  142.4470 C   0  0  0  0  0  3  0  0  0  0  0  0
  182.4360  178.9440  139.9310 N   0  0  0  0  0  0  0  0  0  0  0  0
  182.1810  178.9950  142.8650 C   0  0  0  0  0  3  0  0  0  0  0  0
  181.6220  178.7950  137.6110 C   0  0  0  0  0  2  0  0  0  0  0  0
  182.6100  178.2490  136.6910 N   0  0  0  0  0  2  0  0  0  0  0  0
  181.4720  176.2500  136.2650 O   0  0  0  0  0  0  0  0  0  0  0  0
  182.5630  176.8880  136.2560 C   0  0  0  0  0  0  0  0  0  0  0  0
  185.2230  174.1530  136.3050 C   0  0  1  0  0  3  0  0  0  0  0  0
  183.9380  174.8950  136.6550 C   0  0  0  0  0  2  0  0  0  0  0  0
  186.3880  176.0980  134.3560 O   0  0  0  0  0  1  0  0  0  0  0  0
  185.0390  177.0810  136.0870 C   0  0  0  0  0  2  0  0  0  0  0  0
  186.3340  176.3490  135.7290 C   0  0  1  0  0  3  0  0  0  0  0  0
  183.8170  176.1880  135.8560 C   0  0  2  0  0  3  0  0  0  0  0  0
  186.4560  175.0410  136.5130 C   0  0  0  0  0  2  0  0  0  0  0  0
  185.3220  172.8280  137.0670 C   0  0  0  0  0  2  0  0  0  0  0  0
  183.3870  169.6570  135.9970 C   0  0  0  0  0  2  0  0  0  0  0  0
  184.9110  171.6240  136.2750 C   0  0  0  0  0  0  0  0  0  0  0  0
  183.4720  171.1670  136.2420 C   0  0  0  0  0  2  0  0  0  0  0  0
  185.8030  171.0520  135.4590 C   0  0  0  0  0  3  0  0  0  0  0  0
  185.4340  169.8820  134.6390 C   0  0  0  0  0  3  0  0  0  0  0  0
  184.2820  169.2440  134.8590 C   0  0  0  0  0  3  0  0  0  0  0  0
  188.7100  176.7990  144.8030 C   0  0  0  0  0  0  0  0  0  0  0  0
  189.7570  176.3820  144.2410 O   0  0  0  0  0  0  0  0  0  0  0  0
  187.4650  176.6740  144.1030 N   0  0  0  0  0  2  0  0  0  0  0  0
  188.0150  176.7960  147.2050 C   0  0  0  0  0  3  0  0  0  0  0  0
  188.9660  178.2950  148.7640 C   0  0  0  0  0  3  0  0  0  0  0  0
  189.6690  178.3860  146.5080 C   0  0  0  0  0  0  0  0  0  0  0  0
  188.1140  177.2790  148.4720 N   0  0  0  0  0  0  0  0  0  0  0  0
  190.4490  178.9670  145.5610 F   0  0  0  0  0  0  0  0  0  0  0  0
  189.7330  178.8390  147.7880 N   0  0  0  0  0  0  0  0  0  0  0  0
  188.7880  177.3450  146.1770 C   0  0  0  0  0  0  0  0  0  0  0  0
  186.5910  177.8260  141.7440 C   0  0  0  0  0  3  0  0  0  0  0  0
  187.7740  178.2910  141.5160 N   0  0  0  0  0  0  0  0  0  0  0  0
  190.7670  176.5390  136.4970 C   0  0  0  0  0  0  0  0  0  0  0  0
  190.2150  177.1980  139.1310 C   0  0  0  0  0  0  0  0  0  0  0  0
  187.8680  178.0120  138.7510 S   0  0  0  0  0  0  0  0  0  0  0  0
  189.2980  177.4050  138.1170 C   0  0  0  0  0  0  0  0  0  0  0  0
  188.5060  177.9760  140.3320 C   0  0  0  0  0  0  0  0  0  0  0  0
  189.5530  177.0740  136.8250 N   0  0  0  0  0  0  0  0  0  0  0  0
  191.7320  176.3050  137.4950 C   0  0  0  0  0  3  0  0  0  0  0  0
  191.4560  176.6400  138.8340 C   0  0  0  0  0  3  0  0  0  0  0  0
  189.7800  177.5110  140.3760 N   0  0  0  0  0  0  0  0  0  0  0  0
  191.1810  174.6930  135.0060 N   0  0  0  0  0  1  0  0  0  0  0  0
  191.0370  176.1370  135.0850 C   0  0  0  0  0  2  0  0  0  0  0  0
  1  2  1  1  0  0  0
  1  3  1  0  0  0  0
  2  5  2  0  0  0  0
  3  6  1  0  0  0  0
  5  4  1  0  0  0  0
  6  4  1  0  0  0  0
  7 10  2  0  0  0  0
  8 11  1  6  0  0  0
  8 13  1  0  0  0  0
  9 17  1  6  0  0  0
  9 15  1  0  0  0  0
  9  8  1  0  0  0  0
 10 12  1  0  0  0  0
 12 16  1  1  0  0  0
 12  1  1  0  0  0  0
 13 14  1  0  0  0  0
 14 16  2  0  0  0  0
 15  8  1  0  0  0  0
 15 10  1  0  0  0  0
 18 17  1  0  0  0  0
 20 19  2  0  0  0  0
 20 18  1  0  0  0  0
 21 27  1  0  0  0  0
 21 22  1  0  0  0  0
 21 28  1  1  0  0  0
 25 23  1  6  0  0  0
 25 24  1  0  0  0  0
 25 27  1  0  0  0  0
 26 24  1  0  0  0  0
 26 20  1  1  0  0  0
 26 22  1  0  0  0  0
 29 31  1  0  0  0  0
 30 28  1  0  0  0  0
 31 30  1  0  0  0  0
 32 30  2  0  0  0  0
 33 34  2  0  0  0  0
 33 32  1  0  0  0  0
 34 29  1  0  0  0  0
 35 44  1  0  0  0  0
 36 35  2  0  0  0  0
 37  5  1  0  0  0  0
 37 35  1  0  0  0  0
 38 41  1  0  0  0  0
 40 43  2  0  0  0  0
 41 39  2  0  0  0  0
 42 40  1  0  0  0  0
 43 39  1  0  0  0  0
 44 40  1  0  0  0  0
 44 38  2  0  0  0  0
 45  2  1  0  0  0  0
 46 45  2  0  0  0  0
 47 52  2  0  0  0  0
 47 53  1  0  0  0  0
 48 55  1  0  0  0  0
 49 51  1  0  0  0  0
 50 49  1  0  0  0  0
 50 48  2  0  0  0  0
 51 55  2  0  0  0  0
 51 46  1  0  0  0  0
 52 50  1  0  0  0  0
 53 54  2  0  0  0  0
 54 48  1  0  0  0  0
 56 57  1  0  0  0  0
 57 47  1  0  0  0  0
M  END
>  <MODEL>
4

>  <REMARK>
 VINA RESULT:      -7.5      3.492      9.100
  Name = 
  11 active torsions:
  status: ('A' for Active; 'I' for Inactive)
    1  A    between atoms: C_2  and  N_19
    2  A    between atoms: C_2  and  C_24
    3  A    between atoms: C_3  and  C_8
    4  A    between atoms: C_4  and  C_9
    5  A    between atoms: C_5  and  C_49
    6  A    between atoms: C_9  and  C_20
    7  A    between atoms: C_14  and  C_41
    8  A    between atoms: C_15  and  C_30
    9  A    between atoms: C_18  and  N_35
   10  A    between atoms: C_46  and  N_51
   11  A    between atoms: C_54  and  C_56
                            x       y       z     vdW  Elec       q    Type
                         _______ _______ _______ _____ _____    ______ ____

>  <TORSDO>
F 11

$$$$
=
 OpenBabel10232409043D

 57 64  0  0  1  0  0  0  0  0999 V2000
  188.9870  176.7210  139.8170 C   0  0  2  0  0  3  0  0  0  0  0  0
  189.5820  176.7230  138.3980 C   0  0  0  0  0  0  0  0  0  0  0  0
  188.1300  177.8170  140.0920 O   0  0  0  0  0  0  0  0  0  0  0  0
  188.1190  178.6370  137.8710 C   0  0  0  0  0  2  0  0  0  0  0  0
  189.2060  177.6690  137.5100 C   0  0  0  0  0  0  0  0  0  0  0  0
  187.2870  178.0490  138.9970 C   0  0  0  0  0  2  0  0  0  0  0  0
  188.3020  176.5240  142.5940 O   0  0  0  0  0  0  0  0  0  0  0  0
  191.8490  177.2130  143.7340 C   0  0  1  0  0  0  0  0  0  0  0  0
  191.2830  176.1680  144.4340 C   0  0  2  0  0  3  0  0  0  0  0  0
  189.5170  176.7400  142.3370 C   0  0  0  0  0  0  0  0  0  0  0  0
  191.9130  178.4820  144.2860 F   0  0  0  0  0  0  0  0  0  0  0  0
  190.0570  176.7080  140.9270 C   0  0  2  0  0  3  0  0  0  0  0  0
  192.7320  176.8920  142.5360 C   0  0  0  0  0  2  0  0  0  0  0  0
  192.3560  177.7480  141.3500 C   0  0  0  0  0  3  0  0  0  0  0  0
  190.4490  176.8500  143.3940 N   0  0  0  0  0  0  0  0  0  0  0  0
  191.1970  177.6710  140.6660 C   0  0  0  0  0  3  0  0  0  0  0  0
  190.7810  176.5500  145.8170 C   0  0  0  0  0  2  0  0  0  0  0  0
  189.5610  177.3310  145.6740 N   0  0  0  0  0  2  0  0  0  0  0  0
  188.8570  177.0960  147.8920 O   0  0  0  0  0  0  0  0  0  0  0  0
  188.5570  177.3540  146.6920 C   0  0  0  0  0  0  0  0  0  0  0  0
  185.6090  178.1880  144.4190 C   0  0  1  0  0  3  0  0  0  0  0  0
  187.0450  177.8880  144.8350 C   0  0  0  0  0  2  0  0  0  0  0  0
  184.2880  178.0380  147.0960 O   0  0  0  0  0  1  0  0  0  0  0  0
  186.5720  178.7880  147.1320 C   0  0  0  0  0  2  0  0  0  0  0  0
  185.1280  179.0920  146.7290 C   0  0  1  0  0  3  0  0  0  0  0  0
  187.1340  177.6100  146.3320 C   0  0  2  0  0  3  0  0  0  0  0  0
  185.0250  179.3540  145.2250 C   0  0  0  0  0  2  0  0  0  0  0  0
  185.5080  178.4150  142.9070 C   0  0  0  0  0  2  0  0  0  0  0  0
  182.5570  178.7170  140.4280 C   0  0  0  0  0  2  0  0  0  0  0  0
  184.1060  178.4660  142.3790 C   0  0  0  0  0  0  0  0  0  0  0  0
  183.7810  177.9830  140.9860 C   0  0  0  0  0  2  0  0  0  0  0  0
  183.1130  178.7900  143.2130 C   0  0  0  0  0  3  0  0  0  0  0  0
  181.7140  178.8250  142.7440 C   0  0  0  0  0  3  0  0  0  0  0  0
  181.4420  178.7520  141.4390 C   0  0  0  0  0  3  0  0  0  0  0  0
  189.4240  176.6740  135.1600 C   0  0  0  0  0  0  0  0  0  0  0  0
  190.3350  176.3420  134.3570 O   0  0  0  0  0  0  0  0  0  0  0  0
  189.7290  177.6430  136.1730 N   0  0  0  0  0  2  0  0  0  0  0  0
  187.8390  174.7410  135.1960 C   0  0  0  0  0  3  0  0  0  0  0  0
  185.5320  175.0330  134.7760 C   0  0  0  0  0  3  0  0  0  0  0  0
  186.9600  176.9160  134.6990 C   0  0  0  0  0  0  0  0  0  0  0  0
  186.5840  174.2310  135.0790 N   0  0  0  0  0  0  0  0  0  0  0  0
  187.1070  178.2500  134.4940 F   0  0  0  0  0  0  0  0  0  0  0  0
  185.7240  176.3620  134.5880 N   0  0  0  0  0  0  0  0  0  0  0  0
  188.0670  176.1070  134.9990 C   0  0  0  0  0  0  0  0  0  0  0  0
  190.3740  175.5820  137.9020 C   0  0  0  0  0  3  0  0  0  0  0  0
  191.6590  175.6350  137.7850 N   0  0  0  0  0  0  0  0  0  0  0  0
  195.0930  171.0690  135.6430 C   0  0  0  0  0  0  0  0  0  0  0  0
  192.8960  172.6570  136.2200 C   0  0  0  0  0  0  0  0  0  0  0  0
  194.0920  174.2900  137.7130 S   0  0  0  0  0  0  0  0  0  0  0  0
  194.1420  172.9040  136.7680 C   0  0  0  0  0  0  0  0  0  0  0  0
  192.4370  174.5140  137.3650 C   0  0  0  0  0  0  0  0  0  0  0  0
  195.2290  172.1400  136.4810 N   0  0  0  0  0  0  0  0  0  0  0  0
  193.8440  170.7800  135.0580 C   0  0  0  0  0  3  0  0  0  0  0  0
  192.7270  171.5840  135.3510 C   0  0  0  0  0  3  0  0  0  0  0  0
  191.9350  173.5560  136.5460 N   0  0  0  0  0  0  0  0  0  0  0  0
  196.6930  169.4580  136.4450 N   0  0  0  0  0  1  0  0  0  0  0  0
  196.2910  170.2500  135.2950 C   0  0  0  0  0  2  0  0  0  0  0  0
  1  2  1  6  0  0  0
  1  3  1  0  0  0  0
  1 12  1  0  0  0  0
  4  6  1  0  0  0  0
  5  4  1  0  0  0  0
  5  2  2  0  0  0  0
  6  3  1  0  0  0  0
  8 11  1  1  0  0  0
  8  9  1  0  0  0  0
  9 17  1  1  0  0  0
 10  7  2  0  0  0  0
 10 15  1  0  0  0  0
 12 16  1  6  0  0  0
 12 10  1  0  0  0  0
 13  8  1  0  0  0  0
 14 13  1  0  0  0  0
 15  8  1  0  0  0  0
 15  9  1  0  0  0  0
 16 14  2  0  0  0  0
 18 17  1  0  0  0  0
 18 20  1  0  0  0  0
 20 19  2  0  0  0  0
 21 28  1  6  0  0  0
 21 22  1  0  0  0  0
 21 27  1  0  0  0  0
 22 26  1  0  0  0  0
 25 23  1  6  0  0  0
 25 24  1  0  0  0  0
 26 20  1  1  0  0  0
 26 24  1  0  0  0  0
 27 25  1  0  0  0  0
 29 31  1  0  0  0  0
 29 34  1  0  0  0  0
 30 28  1  0  0  0  0
 30 32  2  0  0  0  0
 31 30  1  0  0  0  0
 33 32  1  0  0  0  0
 34 33  2  0  0  0  0
 35 37  1  0  0  0  0
 36 35  2  0  0  0  0
 37  5  1  0  0  0  0
 39 41  2  0  0  0  0
 40 44  1  0  0  0  0
 41 38  1  0  0  0  0
 42 40  1  0  0  0  0
 43 40  2  0  0  0  0
 43 39  1  0  0  0  0
 44 35  1  0  0  0  0
 44 38  2  0  0  0  0
 45  2  1  0  0  0  0
 46 45  2  0  0  0  0
 47 52  1  0  0  0  0
 48 55  1  0  0  0  0
 48 50  1  0  0  0  0
 50 49  1  0  0  0  0
 51 49  1  0  0  0  0
 51 46  1  0  0  0  0
 52 50  2  0  0  0  0
 53 54  1  0  0  0  0
 53 47  2  0  0  0  0
 54 48  2  0  0  0  0
 55 51  2  0  0  0  0
 57 47  1  0  0  0  0
 57 56  1  0  0  0  0
M  END
>  <MODEL>
5

>  <REMARK>
 VINA RESULT:      -7.4      3.180      8.497
  Name = 
  11 active torsions:
  status: ('A' for Active; 'I' for Inactive)
    1  A    between atoms: C_2  and  N_19
    2  A    between atoms: C_2  and  C_24
    3  A    between atoms: C_3  and  C_8
    4  A    between atoms: C_4  and  C_9
    5  A    between atoms: C_5  and  C_49
    6  A    between atoms: C_9  and  C_20
    7  A    between atoms: C_14  and  C_41
    8  A    between atoms: C_15  and  C_30
    9  A    between atoms: C_18  and  N_35
   10  A    between atoms: C_46  and  N_51
   11  A    between atoms: C_54  and  C_56
                            x       y       z     vdW  Elec       q    Type
                         _______ _______ _______ _____ _____    ______ ____

>  <TORSDO>
F 11

$$$$
=
 OpenBabel10232409043D

 57 64  0  0  1  0  0  0  0  0999 V2000
  188.3170  176.5510  136.4360 C   0  0  2  0  0  3  0  0  0  0  0  0
  187.6850  177.2080  137.6770 C   0  0  0  0  0  0  0  0  0  0  0  0
  187.7340  176.9490  135.2050 O   0  0  0  0  0  0  0  0  0  0  0  0
  186.3620  178.6280  136.1550 C   0  0  0  0  0  2  0  0  0  0  0  0
  186.7230  178.1440  137.5280 C   0  0  0  0  0  0  0  0  0  0  0  0
  187.5110  178.3320  135.2080 C   0  0  0  0  0  2  0  0  0  0  0  0
  189.9400  174.9350  134.7120 O   0  0  0  0  0  0  0  0  0  0  0  0
  188.1670  171.7350  135.6960 C   0  0  1  0  0  0  0  0  0  0  0  0
  189.5360  171.5700  135.6680 C   0  0  2  0  0  3  0  0  0  0  0  0
  189.0820  174.3210  135.4020 C   0  0  0  0  0  0  0  0  0  0  0  0
  187.3810  171.3040  134.6390 F   0  0  0  0  0  0  0  0  0  0  0  0
  188.2670  175.0110  136.4700 C   0  0  2  0  0  3  0  0  0  0  0  0
  187.4980  172.0330  137.0310 C   0  0  0  0  0  2  0  0  0  0  0  0
  186.5290  173.1830  136.8980 C   0  0  0  0  0  3  0  0  0  0  0  0
  188.9830  172.9140  135.3080 N   0  0  0  0  0  0  0  0  0  0  0  0
  186.8650  174.4640  136.6460 C   0  0  0  0  0  3  0  0  0  0  0  0
  190.0510  170.8820  134.4150 C   0  0  0  0  0  2  0  0  0  0  0  0
  191.5020  170.7960  134.4890 N   0  0  0  0  0  2  0  0  0  0  0  0
  191.5830  168.5600  135.1720 O   0  0  0  0  0  0  0  0  0  0  0  0
  192.1610  169.6810  135.0940 C   0  0  0  0  0  0  0  0  0  0  0  0
  195.3650  171.5100  136.0690 C   0  0  1  0  0  3  0  0  0  0  0  0
  193.9720  171.2890  135.4890 C   0  0  0  0  0  2  0  0  0  0  0  0
  195.9300  168.7380  137.0360 O   0  0  0  0  0  1  0  0  0  0  0  0
  194.5140  168.8670  135.0970 C   0  0  0  0  0  2  0  0  0  0  0  0
  195.9130  169.0740  135.6800 C   0  0  1  0  0  3  0  0  0  0  0  0
  193.5100  169.8520  135.7050 C   0  0  2  0  0  3  0  0  0  0  0  0
  196.3770  170.5190  135.4850 C   0  0  0  0  0  2  0  0  0  0  0  0
  195.8090  172.9660  135.9020 C   0  0  0  0  0  2  0  0  0  0  0  0
  193.4310  176.0000  135.6040 C   0  0  0  0  0  2  0  0  0  0  0  0
  194.7600  173.9790  136.2510 C   0  0  0  0  0  0  0  0  0  0  0  0
  193.8920  174.6000  135.1820 C   0  0  0  0  0  2  0  0  0  0  0  0
  194.4850  174.2060  137.5390 C   0  0  0  0  0  3  0  0  0  0  0  0
  193.4410  175.1740  137.9280 C   0  0  0  0  0  3  0  0  0  0  0  0
  192.9120  175.9940  137.0170 C   0  0  0  0  0  3  0  0  0  0  0  0
  184.7720  178.8950  139.0070 C   0  0  0  0  0  0  0  0  0  0  0  0
  184.3700  179.9430  139.5790 O   0  0  0  0  0  0  0  0  0  0  0  0
  186.1660  178.7870  138.6850 N   0  0  0  0  0  2  0  0  0  0  0  0
  183.4510  177.4720  137.4320 C   0  0  0  0  0  3  0  0  0  0  0  0
  182.0930  175.7040  138.2150 C   0  0  0  0  0  3  0  0  0  0  0  0
  183.2900  177.0120  139.7800 C   0  0  0  0  0  0  0  0  0  0  0  0
  182.5980  176.4400  137.1930 N   0  0  0  0  0  0  0  0  0  0  0  0
  183.6020  177.2690  141.0760 F   0  0  0  0  0  0  0  0  0  0  0  0
  182.4390  175.9920  139.4950 N   0  0  0  0  0  0  0  0  0  0  0  0
  183.8170  177.7960  138.7430 C   0  0  0  0  0  0  0  0  0  0  0  0
  188.2660  177.0170  139.0180 C   0  0  0  0  0  3  0  0  0  0  0  0
  189.0670  177.8790  139.5510 N   0  0  0  0  0  0  0  0  0  0  0  0
  191.1260  176.8410  145.1990 C   0  0  0  0  0  0  0  0  0  0  0  0
  189.5100  177.6530  143.1000 C   0  0  0  0  0  0  0  0  0  0  0  0
  191.1390  177.1450  141.2540 S   0  0  0  0  0  0  0  0  0  0  0  0
  190.7970  177.1910  142.8960 C   0  0  0  0  0  0  0  0  0  0  0  0
  189.5830  177.7310  140.8730 C   0  0  0  0  0  0  0  0  0  0  0  0
  191.5940  176.7780  143.9160 N   0  0  0  0  0  0  0  0  0  0  0  0
  189.8200  177.3010  145.4560 C   0  0  0  0  0  3  0  0  0  0  0  0
  188.9970  177.7150  144.3920 C   0  0  0  0  0  3  0  0  0  0  0  0
  188.8200  177.9540  141.9720 N   0  0  0  0  0  0  0  0  0  0  0  0
  191.3830  176.7240  147.5910 N   0  0  0  0  0  1  0  0  0  0  0  0
  191.9820  176.3520  146.3200 C   0  0  0  0  0  2  0  0  0  0  0  0
  1  3  1  6  0  0  0
  1 12  1  0  0  0  0
  1  2  1  0  0  0  0
  2 45  1  0  0  0  0
  3  6  1  0  0  0  0
  4  5  1  0  0  0  0
  5  2  2  0  0  0  0
  5 37  1  0  0  0  0
  6  4  1  0  0  0  0
  7 10  2  0  0  0  0
  8 11  1  6  0  0  0
  8 13  1  0  0  0  0
  9 17  1  6  0  0  0
  9  8  1  0  0  0  0
 10 12  1  0  0  0  0
 12 16  1  6  0  0  0
 14 13  1  0  0  0  0
 15 10  1  0  0  0  0
 15  9  1  0  0  0  0
 15  8  1  0  0  0  0
 16 14  2  0  0  0  0
 17 18  1  0  0  0  0
 18 20  1  0  0  0  0
 20 19  2  0  0  0  0
 21 28  1  6  0  0  0
 22 26  1  0  0  0  0
 22 21  1  0  0  0  0
 24 25  1  0  0  0  0
 24 26  1  0  0  0  0
 25 23  1  1  0  0  0
 26 20  1  6  0  0  0
 27 25  1  0  0  0  0
 27 21  1  0  0  0  0
 28 30  1  0  0  0  0
 29 34  1  0  0  0  0
 30 32  2  0  0  0  0
 31 29  1  0  0  0  0
 31 30  1  0  0  0  0
 32 33  1  0  0  0  0
 34 33  2  0  0  0  0
 35 36  2  0  0  0  0
 37 35  1  0  0  0  0
 38 44  1  0  0  0  0
 39 43  2  0  0  0  0
 40 42  1  0  0  0  0
 41 38  2  0  0  0  0
 41 39  1  0  0  0  0
 43 40  1  0  0  0  0
 44 35  1  0  0  0  0
 44 40  2  0  0  0  0
 45 46  2  0  0  0  0
 46 51  1  0  0  0  0
 47 53  1  0  0  0  0
 47 57  1  0  0  0  0
 48 54  1  0  0  0  0
 49 50  1  0  0  0  0
 50 48  2  0  0  0  0
 50 52  1  0  0  0  0
 51 49  1  0  0  0  0
 51 55  2  0  0  0  0
 52 47  2  0  0  0  0
 54 53  2  0  0  0  0
 55 48  1  0  0  0  0
 57 56  1  0  0  0  0
M  END
>  <MODEL>
6

>  <REMARK>
 VINA RESULT:      -7.4      3.272     10.342
  Name = 
  11 active torsions:
  status: ('A' for Active; 'I' for Inactive)
    1  A    between atoms: C_2  and  N_19
    2  A    between atoms: C_2  and  C_24
    3  A    between atoms: C_3  and  C_8
    4  A    between atoms: C_4  and  C_9
    5  A    between atoms: C_5  and  C_49
    6  A    between atoms: C_9  and  C_20
    7  A    between atoms: C_14  and  C_41
    8  A    between atoms: C_15  and  C_30
    9  A    between atoms: C_18  and  N_35
   10  A    between atoms: C_46  and  N_51
   11  A    between atoms: C_54  and  C_56
                            x       y       z     vdW  Elec       q    Type
                         _______ _______ _______ _____ _____    ______ ____

>  <TORSDO>
F 11

$$$$
=
 OpenBabel10232409043D

 57 64  0  0  1  0  0  0  0  0999 V2000
  192.1180  176.1390  137.4110 C   0  0  2  0  0  3  0  0  0  0  0  0
  192.1290  174.6420  137.0520 C   0  0  0  0  0  0  0  0  0  0  0  0
  193.3930  176.6680  137.7410 O   0  0  0  0  0  0  0  0  0  0  0  0
  194.5910  174.7160  137.1430 C   0  0  0  0  0  2  0  0  0  0  0  0
  193.2990  173.9720  136.9860 C   0  0  0  0  0  0  0  0  0  0  0  0
  194.3550  176.1850  136.8440 C   0  0  0  0  0  2  0  0  0  0  0  0
  189.5250  177.2950  137.0150 O   0  0  0  0  0  0  0  0  0  0  0  0
  189.0140  177.9330  140.7140 C   0  0  1  0  0  0  0  0  0  0  0  0
  187.8860  177.3970  140.1300 C   0  0  2  0  0  3  0  0  0  0  0  0
  189.9160  177.2070  138.2100 C   0  0  0  0  0  0  0  0  0  0  0  0
  189.1050  179.2940  140.9610 F   0  0  0  0  0  0  0  0  0  0  0  0
  191.1830  176.4780  138.5880 C   0  0  2  0  0  3  0  0  0  0  0  0
  189.9790  176.9960  141.4270 C   0  0  0  0  0  2  0  0  0  0  0  0
  191.4030  177.2750  141.0100 C   0  0  0  0  0  3  0  0  0  0  0  0
  189.0760  177.6500  139.2580 N   0  0  0  0  0  0  0  0  0  0  0  0
  191.9140  177.0590  139.7810 C   0  0  0  0  0  3  0  0  0  0  0  0
  186.8050  178.4190  139.8200 C   0  0  0  0  0  2  0  0  0  0  0  0
  185.7170  178.2540  140.7740 N   0  0  0  0  0  2  0  0  0  0  0  0
  184.0280  179.0390  139.3590 O   0  0  0  0  0  0  0  0  0  0  0  0
  184.4180  178.8040  140.5370 C   0  0  0  0  0  0  0  0  0  0  0  0
  183.3750  179.1190  144.1940 C   0  0  1  0  0  3  0  0  0  0  0  0
  184.2450  178.7920  142.9850 C   0  0  0  0  0  2  0  0  0  0  0  0
  180.9500  180.1480  142.7800 O   0  0  0  0  0  1  0  0  0  0  0  0
  182.1850  178.4670  141.5840 C   0  0  0  0  0  2  0  0  0  0  0  0
  181.3000  178.7960  142.7880 C   0  0  1  0  0  3  0  0  0  0  0  0
  183.5420  179.1700  141.6860 C   0  0  2  0  0  3  0  0  0  0  0  0
  182.0060  178.4370  144.0980 C   0  0  0  0  0  2  0  0  0  0  0  0
  184.1010  178.7900  145.5020 C   0  0  0  0  0  2  0  0  0  0  0  0
  187.2050  177.0640  143.9730 C   0  0  0  0  0  2  0  0  0  0  0  0
  185.5140  178.3210  145.3270 C   0  0  0  0  0  0  0  0  0  0  0  0
  186.1070  178.1340  143.9510 C   0  0  0  0  0  2  0  0  0  0  0  0
  186.3020  178.2280  146.4030 C   0  0  0  0  0  3  0  0  0  0  0  0
  187.7080  177.7980  146.2740 C   0  0  0  0  0  3  0  0  0  0  0  0
  188.1510  177.2860  145.1230 C   0  0  0  0  0  3  0  0  0  0  0  0
  194.3330  171.9200  135.8560 C   0  0  0  0  0  0  0  0  0  0  0  0
  193.9900  171.0100  135.0550 O   0  0  0  0  0  0  0  0  0  0  0  0
  193.3090  172.5870  136.6080 N   0  0  0  0  0  2  0  0  0  0  0  0
  196.4700  172.9490  135.0650 C   0  0  0  0  0  3  0  0  0  0  0  0
  198.4300  172.8800  136.3820 C   0  0  0  0  0  3  0  0  0  0  0  0
  196.4600  171.8600  137.2010 C   0  0  0  0  0  0  0  0  0  0  0  0
  197.7800  173.2580  135.2520 N   0  0  0  0  0  0  0  0  0  0  0  0
  195.8440  171.1580  138.1860 F   0  0  0  0  0  0  0  0  0  0  0  0
  197.7720  172.1880  137.3440 N   0  0  0  0  0  0  0  0  0  0  0  0
  195.7680  172.2280  136.0370 C   0  0  0  0  0  0  0  0  0  0  0  0
  190.9160  173.9730  136.5450 C   0  0  0  0  0  3  0  0  0  0  0  0
  189.8640  173.8070  137.2750 N   0  0  0  0  0  0  0  0  0  0  0  0
  184.7560  171.0120  135.4550 C   0  0  0  0  0  0  0  0  0  0  0  0
  187.4260  171.7180  135.6840 C   0  0  0  0  0  0  0  0  0  0  0  0
  187.0870  173.6720  137.2290 S   0  0  0  0  0  0  0  0  0  0  0  0
  186.4230  172.4350  136.3100 C   0  0  0  0  0  0  0  0  0  0  0  0
  188.6670  173.2170  136.7720 C   0  0  0  0  0  0  0  0  0  0  0  0
  185.1120  172.0900  136.2150 N   0  0  0  0  0  0  0  0  0  0  0  0
  185.7430  170.2480  134.8020 C   0  0  0  0  0  3  0  0  0  0  0  0
  187.1000  170.6050  134.9150 C   0  0  0  0  0  3  0  0  0  0  0  0
  188.6870  172.1460  135.9400 N   0  0  0  0  0  0  0  0  0  0  0  0
  182.4730  171.7550  135.6440 N   0  0  0  0  0  1  0  0  0  0  0  0
  183.3220  170.6050  135.3790 C   0  0  0  0  0  2  0  0  0  0  0  0
  1  2  1  1  0  0  0
  1  3  1  0  0  0  0
  1 12  1  0  0  0  0
  5  2  2  0  0  0  0
  5  4  1  0  0  0  0
  6  4  1  0  0  0  0
  6  3  1  0  0  0  0
  7 10  2  0  0  0  0
  8 11  1  1  0  0  0
  8 13  1  0  0  0  0
  9 17  1  6  0  0  0
  9  8  1  0  0  0  0
 10 12  1  0  0  0  0
 10 15  1  0  0  0  0
 12 16  1  1  0  0  0
 14 13  1  0  0  0  0
 15  9  1  0  0  0  0
 15  8  1  0  0  0  0
 16 14  2  0  0  0  0
 17 18  1  0  0  0  0
 19 20  2  0  0  0  0
 20 18  1  0  0  0  0
 21 28  1  1  0  0  0
 22 21  1  0  0  0  0
 24 26  1  0  0  0  0
 24 25  1  0  0  0  0
 25 23  1  1  0  0  0
 25 27  1  0  0  0  0
 26 20  1  6  0  0  0
 26 22  1  0  0  0  0
 27 21  1  0  0  0  0
 29 34  1  0  0  0  0
 30 28  1  0  0  0  0
 30 32  2  0  0  0  0
 31 29  1  0  0  0  0
 31 30  1  0  0  0  0
 33 32  1  0  0  0  0
 34 33  2  0  0  0  0
 35 44  1  0  0  0  0
 35 37  1  0  0  0  0
 36 35  2  0  0  0  0
 37  5  1  0  0  0  0
 38 41  2  0  0  0  0
 38 44  1  0  0  0  0
 39 43  2  0  0  0  0
 40 43  1  0  0  0  0
 40 42  1  0  0  0  0
 41 39  1  0  0  0  0
 44 40  2  0  0  0  0
 45  2  1  0  0  0  0
 45 46  2  0  0  0  0
 47 52  1  0  0  0  0
 48 55  1  0  0  0  0
 48 50  1  0  0  0  0
 50 49  1  0  0  0  0
 51 49  1  0  0  0  0
 51 46  1  0  0  0  0
 52 50  2  0  0  0  0
 53 54  1  0  0  0  0
 53 47  2  0  0  0  0
 54 48  2  0  0  0  0
 55 51  2  0  0  0  0
 57 47  1  0  0  0  0
 57 56  1  0  0  0  0
M  END
>  <MODEL>
7

>  <REMARK>
 VINA RESULT:      -7.3      3.188      6.062
  Name = 
  11 active torsions:
  status: ('A' for Active; 'I' for Inactive)
    1  A    between atoms: C_2  and  N_19
    2  A    between atoms: C_2  and  C_24
    3  A    between atoms: C_3  and  C_8
    4  A    between atoms: C_4  and  C_9
    5  A    between atoms: C_5  and  C_49
    6  A    between atoms: C_9  and  C_20
    7  A    between atoms: C_14  and  C_41
    8  A    between atoms: C_15  and  C_30
    9  A    between atoms: C_18  and  N_35
   10  A    between atoms: C_46  and  N_51
   11  A    between atoms: C_54  and  C_56
                            x       y       z     vdW  Elec       q    Type
                         _______ _______ _______ _____ _____    ______ ____

>  <TORSDO>
F 11

$$$$
=
 OpenBabel10232409043D

 57 64  0  0  1  0  0  0  0  0999 V2000
  182.8830  174.3270  136.8020 C   0  0  2  0  0  3  0  0  0  0  0  0
  184.1930  173.9980  136.0630 C   0  0  0  0  0  0  0  0  0  0  0  0
  181.7260  173.7470  136.2210 O   0  0  0  0  0  0  0  0  0  0  0  0
  182.9140  172.4360  134.6480 C   0  0  0  0  0  2  0  0  0  0  0  0
  184.1810  173.1500  135.0130 C   0  0  0  0  0  0  0  0  0  0  0  0
  181.9910  172.4210  135.8530 C   0  0  0  0  0  2  0  0  0  0  0  0
  183.3380  175.7810  139.2300 O   0  0  0  0  0  0  0  0  0  0  0  0
  181.6690  178.9160  137.9090 C   0  0  1  0  0  0  0  0  0  0  0  0
  182.8500  179.2040  138.5610 C   0  0  2  0  0  3  0  0  0  0  0  0
  182.7700  176.4160  138.3000 C   0  0  0  0  0  0  0  0  0  0  0  0
  180.4490  179.0880  138.5450 F   0  0  0  0  0  0  0  0  0  0  0  0
  182.6090  175.8390  136.9150 C   0  0  2  0  0  3  0  0  0  0  0  0
  181.6890  178.7810  136.3930 C   0  0  0  0  0  2  0  0  0  0  0  0
  180.9530  177.5380  135.9570 C   0  0  0  0  0  3  0  0  0  0  0  0
  182.4170  177.7730  138.4910 N   0  0  0  0  0  0  0  0  0  0  0  0
  181.3490  176.2710  136.1930 C   0  0  0  0  0  3  0  0  0  0  0  0
  182.6650  179.7210  139.9780 C   0  0  0  0  0  2  0  0  0  0  0  0
  183.6890  179.1340  140.8290 N   0  0  0  0  0  2  0  0  0  0  0  0
  182.2570  178.5820  142.5940 O   0  0  0  0  0  0  0  0  0  0  0  0
  183.4350  178.8080  142.1980 C   0  0  0  0  0  0  0  0  0  0  0  0
  186.7340  177.6890  143.7550 C   0  0  1  0  0  3  0  0  0  0  0  0
  185.5810  177.7580  142.7600 C   0  0  0  0  0  2  0  0  0  0  0  0
  185.7740  179.7020  145.7470 O   0  0  0  0  0  1  0  0  0  0  0  0
  184.0360  178.5050  144.5940 C   0  0  0  0  0  2  0  0  0  0  0  0
  185.1840  178.4430  145.6030 C   0  0  1  0  0  3  0  0  0  0  0  0
  184.5530  178.8010  143.1840 C   0  0  2  0  0  3  0  0  0  0  0  0
  186.2300  177.4120  145.1760 C   0  0  0  0  0  2  0  0  0  0  0  0
  187.7950  176.6800  143.3040 C   0  0  0  0  0  2  0  0  0  0  0  0
  191.5090  176.6350  144.3760 C   0  0  0  0  0  2  0  0  0  0  0  0
  189.2090  177.1280  143.5170 C   0  0  0  0  0  0  0  0  0  0  0  0
  190.3500  176.1380  143.5050 C   0  0  0  0  0  2  0  0  0  0  0  0
  189.4730  178.4380  143.5520 C   0  0  0  0  0  3  0  0  0  0  0  0
  190.8550  178.9250  143.7310 C   0  0  0  0  0  3  0  0  0  0  0  0
  191.8250  178.0770  144.0810 C   0  0  0  0  0  3  0  0  0  0  0  0
  186.2640  171.7010  134.6650 C   0  0  0  0  0  0  0  0  0  0  0  0
  187.5090  171.8510  134.5440 O   0  0  0  0  0  0  0  0  0  0  0  0
  185.4110  172.8110  134.3530 N   0  0  0  0  0  2  0  0  0  0  0  0
  184.4310  170.2710  135.5840 C   0  0  0  0  0  3  0  0  0  0  0  0
  184.6620  167.9250  135.7440 C   0  0  0  0  0  3  0  0  0  0  0  0
  186.4580  169.2000  134.8820 C   0  0  0  0  0  0  0  0  0  0  0  0
  183.9270  169.0530  135.9170 N   0  0  0  0  0  0  0  0  0  0  0  0
  187.7200  169.2320  134.3820 F   0  0  0  0  0  0  0  0  0  0  0  0
  185.9160  168.0040  135.2320 N   0  0  0  0  0  0  0  0  0  0  0  0
  185.7240  170.3820  135.0620 C   0  0  0  0  0  0  0  0  0  0  0  0
  185.5000  174.3990  136.6160 C   0  0  0  0  0  3  0  0  0  0  0  0
  186.2900  175.2120  135.9970 N   0  0  0  0  0  0  0  0  0  0  0  0
  191.5940  176.7260  138.6040 C   0  0  0  0  0  0  0  0  0  0  0  0
  188.8770  176.5380  138.0930 C   0  0  0  0  0  0  0  0  0  0  0  0
  189.0680  175.3060  135.9100 S   0  0  0  0  0  0  0  0  0  0  0  0
  189.8230  176.0490  137.2110 C   0  0  0  0  0  0  0  0  0  0  0  0
  187.5270  175.6530  136.5550 C   0  0  0  0  0  0  0  0  0  0  0  0
  191.1570  176.1240  137.4580 N   0  0  0  0  0  0  0  0  0  0  0  0
  190.6680  177.2370  139.5350 C   0  0  0  0  0  3  0  0  0  0  0  0
  189.2870  177.1440  139.2770 C   0  0  0  0  0  3  0  0  0  0  0  0
  187.5870  176.3180  137.7370 N   0  0  0  0  0  0  0  0  0  0  0  0
  193.7890  176.0700  137.8610 N   0  0  0  0  0  1  0  0  0  0  0  0
  193.0560  176.7770  138.8990 C   0  0  0  0  0  2  0  0  0  0  0  0
  1  2  1  6  0  0  0
  1 12  1  0  0  0  0
  2 45  1  0  0  0  0
  3  1  1  0  0  0  0
  4  5  1  0  0  0  0
  4  6  1  0  0  0  0
  5  2  2  0  0  0  0
  6  3  1  0  0  0  0
  8 15  1  0  0  0  0
  8 11  1  1  0  0  0
  8  9  1  0  0  0  0
  9 17  1  1  0  0  0
 10 15  1  0  0  0  0
 10  7  2  0  0  0  0
 12 16  1  1  0  0  0
 12 10  1  0  0  0  0
 13  8  1  0  0  0  0
 14 16  2  0  0  0  0
 14 13  1  0  0  0  0
 15  9  1  0  0  0  0
 17 18  1  0  0  0  0
 18 20  1  0  0  0  0
 20 19  2  0  0  0  0
 21 28  1  6  0  0  0
 21 27  1  0  0  0  0
 22 26  1  0  0  0  0
 22 21  1  0  0  0  0
 24 25  1  0  0  0  0
 25 23  1  6  0  0  0
 26 20  1  6  0  0  0
 26 24  1  0  0  0  0
 27 25  1  0  0  0  0
 28 30  1  0  0  0  0
 30 32  2  0  0  0  0
 31 30  1  0  0  0  0
 31 29  1  0  0  0  0
 32 33  1  0  0  0  0
 33 34  2  0  0  0  0
 34 29  1  0  0  0  0
 35 44  1  0  0  0  0
 36 35  2  0  0  0  0
 37 35  1  0  0  0  0
 37  5  1  0  0  0  0
 38 41  1  0  0  0  0
 39 41  2  0  0  0  0
 40 44  1  0  0  0  0
 40 43  2  0  0  0  0
 42 40  1  0  0  0  0
 43 39  1  0  0  0  0
 44 38  2  0  0  0  0
 46 51  1  0  0  0  0
 46 45  2  0  0  0  0
 47 57  1  0  0  0  0
 47 53  1  0  0  0  0
 48 54  1  0  0  0  0
 49 51  1  0  0  0  0
 49 50  1  0  0  0  0
 50 52  1  0  0  0  0
 50 48  2  0  0  0  0
 51 55  2  0  0  0  0
 52 47  2  0  0  0  0
 54 53  2  0  0  0  0
 55 48  1  0  0  0  0
 56 57  1  0  0  0  0
M  END
>  <MODEL>
8

>  <REMARK>
 VINA RESULT:      -7.3      3.740      7.857
  Name = 
  11 active torsions:
  status: ('A' for Active; 'I' for Inactive)
    1  A    between atoms: C_2  and  N_19
    2  A    between atoms: C_2  and  C_24
    3  A    between atoms: C_3  and  C_8
    4  A    between atoms: C_4  and  C_9
    5  A    between atoms: C_5  and  C_49
    6  A    between atoms: C_9  and  C_20
    7  A    between atoms: C_14  and  C_41
    8  A    between atoms: C_15  and  C_30
    9  A    between atoms: C_18  and  N_35
   10  A    between atoms: C_46  and  N_51
   11  A    between atoms: C_54  and  C_56
                            x       y       z     vdW  Elec       q    Type
                         _______ _______ _______ _____ _____    ______ ____

>  <TORSDO>
F 11

$$$$
=
 OpenBabel10232409043D

 57 64  0  0  1  0  0  0  0  0999 V2000
  185.3620  178.8750  143.6390 C   0  0  2  0  0  3  0  0  0  0  0  0
  186.3280  177.7230  143.3100 C   0  0  0  0  0  0  0  0  0  0  0  0
  185.2070  179.1290  145.0260 O   0  0  0  0  0  0  0  0  0  0  0  0
  186.9110  177.6310  145.7040 C   0  0  0  0  0  2  0  0  0  0  0  0
  187.0070  177.1090  144.3020 C   0  0  0  0  0  0  0  0  0  0  0  0
  186.4550  179.0790  145.6620 C   0  0  0  0  0  2  0  0  0  0  0  0
  184.7150  179.4620  140.9080 O   0  0  0  0  0  0  0  0  0  0  0  0
  181.0000  178.9670  141.4640 C   0  0  1  0  0  0  0  0  0  0  0  0
  181.4270  178.3570  140.3020 C   0  0  2  0  0  3  0  0  0  0  0  0
  183.7460  179.1550  141.6540 C   0  0  0  0  0  0  0  0  0  0  0  0
  180.3630  180.1970  141.4250 F   0  0  0  0  0  0  0  0  0  0  0  0
  183.9450  178.6660  143.0680 C   0  0  2  0  0  3  0  0  0  0  0  0
  180.8850  178.1240  142.7270 C   0  0  0  0  0  2  0  0  0  0  0  0
  181.5300  178.8250  143.8970 C   0  0  0  0  0  3  0  0  0  0  0  0
  182.4380  179.0990  141.1190 N   0  0  0  0  0  0  0  0  0  0  0  0
  182.8490  179.0650  144.0350 C   0  0  0  0  0  3  0  0  0  0  0  0
  181.1170  179.1450  139.0400 C   0  0  0  0  0  2  0  0  0  0  0  0
  182.0900  178.7930  138.0160 N   0  0  0  0  0  2  0  0  0  0  0  0
  180.6340  179.0290  136.2010 O   0  0  0  0  0  0  0  0  0  0  0  0
  181.7020  178.5380  136.6640 C   0  0  0  0  0  0  0  0  0  0  0  0
  182.5390  175.3660  134.7150 C   0  0  1  0  0  3  0  0  0  0  0  0
  181.7320  176.3460  135.5600 C   0  0  0  0  0  2  0  0  0  0  0  0
  185.0650  176.9390  134.4300 O   0  0  0  0  0  1  0  0  0  0  0  0
  183.8610  177.3150  136.4770 C   0  0  0  0  0  2  0  0  0  0  0  0
  184.6830  176.3390  135.6320 C   0  0  1  0  0  3  0  0  0  0  0  0
  182.5190  177.6290  135.8110 C   0  0  2  0  0  3  0  0  0  0  0  0
  183.8950  175.0560  135.3600 C   0  0  0  0  0  2  0  0  0  0  0  0
  181.7310  174.0990  134.4170 C   0  0  0  0  0  2  0  0  0  0  0  0
  182.6540  171.6210  137.2370 C   0  0  0  0  0  2  0  0  0  0  0  0
  182.2320  172.8660  135.1060 C   0  0  0  0  0  0  0  0  0  0  0  0
  181.6270  172.4020  136.4090 C   0  0  0  0  0  2  0  0  0  0  0  0
  183.1110  172.0840  134.4710 C   0  0  0  0  0  3  0  0  0  0  0  0
  183.6110  170.8450  135.1000 C   0  0  0  0  0  3  0  0  0  0  0  0
  183.3670  170.6010  136.3900 C   0  0  0  0  0  3  0  0  0  0  0  0
  189.2580  176.2350  143.4480 C   0  0  0  0  0  0  0  0  0  0  0  0
  189.6900  175.3720  142.6390 O   0  0  0  0  0  0  0  0  0  0  0  0
  187.9400  176.0630  143.9890 N   0  0  0  0  0  2  0  0  0  0  0  0
  190.1490  178.5500  143.1300 C   0  0  0  0  0  3  0  0  0  0  0  0
  191.7070  179.4870  144.6380 C   0  0  0  0  0  3  0  0  0  0  0  0
  190.9370  177.2810  145.0060 C   0  0  0  0  0  0  0  0  0  0  0  0
  190.9320  179.5870  143.5290 N   0  0  0  0  0  0  0  0  0  0  0  0
  190.9740  176.1530  145.7600 F   0  0  0  0  0  0  0  0  0  0  0  0
  191.7060  178.3420  145.3660 N   0  0  0  0  0  0  0  0  0  0  0  0
  190.1350  177.3540  143.8570 C   0  0  0  0  0  0  0  0  0  0  0  0
  186.7130  177.4260  141.9180 C   0  0  0  0  0  3  0  0  0  0  0  0
  187.5010  178.1950  141.2420 N   0  0  0  0  0  0  0  0  0  0  0  0
  189.5620  177.2120  135.5860 C   0  0  0  0  0  0  0  0  0  0  0  0
  187.9460  178.0060  137.6920 C   0  0  0  0  0  0  0  0  0  0  0  0
  189.3260  176.9860  139.5290 S   0  0  0  0  0  0  0  0  0  0  0  0
  189.0850  177.2470  137.8890 C   0  0  0  0  0  0  0  0  0  0  0  0
  187.9270  177.8820  139.9180 C   0  0  0  0  0  0  0  0  0  0  0  0
  189.8920  176.8640  136.8650 N   0  0  0  0  0  0  0  0  0  0  0  0
  188.4130  177.9870  135.3350 C   0  0  0  0  0  3  0  0  0  0  0  0
  187.5900  178.3910  136.4020 C   0  0  0  0  0  3  0  0  0  0  0  0
  187.2920  178.3690  138.8220 N   0  0  0  0  0  0  0  0  0  0  0  0
  191.6200  176.1140  134.9830 N   0  0  0  0  0  1  0  0  0  0  0  0
  190.4660  176.8270  134.4610 C   0  0  0  0  0  2  0  0  0  0  0  0
  1  2  1  1  0  0  0
  1  3  1  0  0  0  0
  2  5  2  0  0  0  0
  3  6  1  0  0  0  0
  5  4  1  0  0  0  0
  6  4  1  0  0  0  0
  7 10  2  0  0  0  0
  8 11  1  6  0  0  0
  8 13  1  0  0  0  0
  9 17  1  6  0  0  0
  9 15  1  0  0  0  0
  9  8  1  0  0  0  0
 10 12  1  0  0  0  0
 12  1  1  0  0  0  0
 12 16  1  1  0  0  0
 13 14  1  0  0  0  0
 14 16  2  0  0  0  0
 15  8  1  0  0  0  0
 15 10  1  0  0  0  0
 18 17  1  0  0  0  0
 19 20  2  0  0  0  0
 20 18  1  0  0  0  0
 21 28  1  1  0  0  0
 21 27  1  0  0  0  0
 21 22  1  0  0  0  0
 22 26  1  0  0  0  0
 25 23  1  6  0  0  0
 25 24  1  0  0  0  0
 26 24  1  0  0  0  0
 26 20  1  1  0  0  0
 27 25  1  0  0  0  0
 28 30  1  0  0  0  0
 30 31  1  0  0  0  0
 31 29  1  0  0  0  0
 32 33  1  0  0  0  0
 32 30  2  0  0  0  0
 33 34  2  0  0  0  0
 34 29  1  0  0  0  0
 35 44  1  0  0  0  0
 35 37  1  0  0  0  0
 36 35  2  0  0  0  0
 37  5  1  0  0  0  0
 38 41  2  0  0  0  0
 38 44  1  0  0  0  0
 39 43  2  0  0  0  0
 40 43  1  0  0  0  0
 40 42  1  0  0  0  0
 41 39  1  0  0  0  0
 44 40  2  0  0  0  0
 45  2  1  0  0  0  0
 46 45  2  0  0  0  0
 47 52  1  0  0  0  0
 48 50  1  0  0  0  0
 48 55  1  0  0  0  0
 49 51  1  0  0  0  0
 50 49  1  0  0  0  0
 51 46  1  0  0  0  0
 52 50  2  0  0  0  0
 53 47  2  0  0  0  0
 53 54  1  0  0  0  0
 54 48  2  0  0  0  0
 55 51  2  0  0  0  0
 57 56  1  0  0  0  0
 57 47  1  0  0  0  0
M  END
>  <MODEL>
9

>  <REMARK>
 VINA RESULT:      -7.2      3.800      8.555
  Name = 
  11 active torsions:
  status: ('A' for Active; 'I' for Inactive)
    1  A    between atoms: C_2  and  N_19
    2  A    between atoms: C_2  and  C_24
    3  A    between atoms: C_3  and  C_8
    4  A    between atoms: C_4  and  C_9
    5  A    between atoms: C_5  and  C_49
    6  A    between atoms: C_9  and  C_20
    7  A    between atoms: C_14  and  C_41
    8  A    between atoms: C_15  and  C_30
    9  A    between atoms: C_18  and  N_35
   10  A    between atoms: C_46  and  N_51
   11  A    between atoms: C_54  and  C_56
                            x       y       z     vdW  Elec       q    Type
                         _______ _______ _______ _____ _____    ______ ____

>  <TORSDO>
F 11

$$$$
