=
 OpenBabel10232409533D

 34 35  0  0  1  0  0  0  0  0999 V2000
  185.8540  178.8470  139.9090 N   0  0  0  0  0  0  0  0  0  0  0  0
  184.9030  178.9220  142.7790 C   0  0  1  0  0  3  0  0  0  0  0  0
  186.2150  178.5270  142.2720 N   0  0  0  0  0  2  0  0  0  0  0  0
  186.6440  178.5190  140.8950 C   0  0  0  0  0  0  0  0  0  0  0  0
  183.8220  178.1680  142.0630 C   0  0  0  0  0  3  0  0  0  0  0  0
  183.6200  178.3460  140.7580 C   0  0  0  0  0  0  0  0  0  0  0  0
  184.4780  179.3260  140.0140 C   0  0  0  0  0  2  0  0  0  0  0  0
  188.6550  177.2360  141.4630 N   0  0  0  0  0  0  0  0  0  0  0  0
  189.9200  176.7960  141.2220 C   0  0  0  0  0  0  0  0  0  0  0  0
  188.6830  178.4840  139.4390 C   0  0  0  0  0  3  0  0  0  0  0  0
  188.0160  178.0710  140.6000 C   0  0  1  0  0  3  0  0  0  0  0  0
  189.9470  178.0450  139.1990 N   0  0  0  0  0  0  0  0  0  0  0  0
  190.5790  177.2090  140.0650 C   0  0  0  0  0  2  0  0  0  0  0  0
  190.5700  175.9120  142.1390 N   0  0  0  0  0  2  0  0  0  0  0  0
  190.6000  176.1750  143.5170 N   0  0  0  0  0  2  0  0  0  0  0  0
  191.5440  177.2600  143.7320 C   0  0  0  0  0  2  0  0  0  0  0  0
  191.4840  177.7050  145.1930 C   0  0  0  0  0  2  0  0  0  0  0  0
  190.8720  176.7110  146.0850 N   0  0  0  0  0  0  0  0  0  0  0  0
  191.9030  176.1000  146.9110 C   0  0  0  0  0  1  0  0  0  0  0  0
  189.9070  177.3530  146.9670 C   0  0  0  0  0  2  0  0  0  0  0  0
  188.5350  177.3520  146.3200 C   0  0  0  0  0  2  0  0  0  0  0  0
  187.5530  177.8450  147.2680 N   0  0  0  0  0  2  0  0  0  0  0  0
  188.1650  177.7650  148.5810 C   0  0  0  0  0  1  0  0  0  0  0  0
  185.6180  177.6140  144.6510 F   0  0  0  0  0  0  0  0  0  0  0  0
  185.2770  179.8230  144.9470 F   0  0  0  0  0  0  0  0  0  0  0  0
  183.5210  178.4490  144.6610 F   0  0  0  0  0  0  0  0  0  0  0  0
  184.8300  178.6930  144.2860 C   0  0  0  0  0  0  0  0  0  0  0  0
  182.9530  176.5080  139.1840 N   0  0  0  0  0  2  0  0  0  0  0  0
  182.5790  177.5850  140.0480 C   0  0  0  0  0  0  0  0  0  0  0  0
  181.3610  177.8790  140.2010 O   0  0  0  0  0  0  0  0  0  0  0  0
  180.9790  176.5810  137.0470 C   0  0  0  0  0  1  0  0  0  0  0  0
  182.4660  174.3840  137.6370 O   0  0  0  0  0  0  0  0  0  0  0  0
  180.6040  174.9690  139.3800 O   0  0  0  0  0  1  0  0  0  0  0  0
  181.7760  175.5490  138.3070 P   0  0  1  0  0  0  0  0  0  0  0  0
  1  7  1  0  0  0  0
  1  4  2  0  0  0  0
  2 27  1  1  0  0  0
  3  2  1  0  0  0  0
  4  3  1  0  0  0  0
  5  2  1  0  0  0  0
  6  5  2  0  0  0  0
  7  6  1  0  0  0  0
  9  8  2  0  0  0  0
  9 14  1  0  0  0  0
 10 11  1  0  0  0  0
 11  4  1  6  0  0  0
 11  8  1  0  0  0  0
 12 10  2  0  0  0  0
 12 13  1  0  0  0  0
 13  9  1  0  0  0  0
 14 15  1  0  0  0  0
 15 16  1  0  0  0  0
 16 17  1  0  0  0  0
 17 18  1  0  0  0  0
 18 19  1  0  0  0  0
 18 20  1  0  0  0  0
 21 20  1  0  0  0  0
 21 22  1  0  0  0  0
 22 23  1  0  0  0  0
 27 24  1  0  0  0  0
 27 26  1  0  0  0  0
 27 25  1  0  0  0  0
 28 29  1  0  0  0  0
 29 30  2  0  0  0  0
 29  6  1  0  0  0  0
 32 34  2  0  0  0  0
 34 31  1  6  0  0  0
 34 28  1  0  0  0  0
 34 33  1  0  0  0  0
M  END
>  <MODEL>
1

>  <REMARK>
 VINA RESULT:      -7.4      0.000      0.000
  Name = 
  12 active torsions:
  status: ('A' for Active; 'I' for Inactive)
    1  A    between atoms: N_3  and  C_26
    2  A    between atoms: N_4  and  P_28
    3  A    between atoms: N_5  and  C_19
    4  A    between atoms: N_5  and  C_25
    5  A    between atoms: C_6  and  N_22
    6  A    between atoms: C_8  and  C_31
    7  A    between atoms: C_9  and  C_33
    8  A    between atoms: C_19  and  C_26
    9  A    between atoms: C_21  and  C_23
   10  A    between atoms: N_22  and  N_30
   11  A    between atoms: C_25  and  C_27
   12  A    between atoms: C_27  and  N_30
                            x       y       z     vdW  Elec       q    Type
                         _______ _______ _______ _____ _____    ______ ____

>  <TORSDO>
F 12

$$$$
=
 OpenBabel10232409533D

 34 35  0  0  1  0  0  0  0  0999 V2000
  187.5590  176.5100  143.4470 N   0  0  0  0  0  0  0  0  0  0  0  0
  189.8030  176.5890  145.4740 C   0  0  1  0  0  3  0  0  0  0  0  0
  188.4820  177.2090  145.5630 N   0  0  0  0  0  2  0  0  0  0  0  0
  187.4260  177.1380  144.5840 C   0  0  0  0  0  0  0  0  0  0  0  0
  190.4690  176.9720  144.1880 C   0  0  0  0  0  3  0  0  0  0  0  0
  189.9620  176.5830  143.0180 C   0  0  0  0  0  0  0  0  0  0  0  0
  188.7200  175.7410  143.0050 C   0  0  0  0  0  2  0  0  0  0  0  0
  185.2570  178.0380  143.8760 N   0  0  0  0  0  0  0  0  0  0  0  0
  184.0820  178.6850  144.1020 C   0  0  0  0  0  0  0  0  0  0  0  0
  185.8830  178.3410  146.1510 C   0  0  0  0  0  3  0  0  0  0  0  0
  186.1680  177.8500  144.8700 C   0  0  1  0  0  3  0  0  0  0  0  0
  184.7090  178.9880  146.3750 N   0  0  0  0  0  0  0  0  0  0  0  0
  183.8020  179.1700  145.3790 C   0  0  0  0  0  2  0  0  0  0  0  0
  183.1360  178.8640  143.0460 N   0  0  0  0  0  2  0  0  0  0  0  0
  181.7530  178.8670  143.2900 N   0  0  0  0  0  2  0  0  0  0  0  0
  181.0940  179.2370  142.0480 C   0  0  0  0  0  2  0  0  0  0  0  0
  181.7350  178.4790  140.8860 C   0  0  0  0  0  2  0  0  0  0  0  0
  181.4300  179.0550  139.5700 N   0  0  0  0  0  0  0  0  0  0  0  0
  180.3240  179.9940  139.6950 C   0  0  0  0  0  1  0  0  0  0  0  0
  182.5840  179.7820  139.0590 C   0  0  0  0  0  2  0  0  0  0  0  0
  183.7810  178.8550  138.9680 C   0  0  0  0  0  2  0  0  0  0  0  0
  184.9830  179.5780  139.3400 N   0  0  0  0  0  2  0  0  0  0  0  0
  185.5540  178.8790  140.4760 C   0  0  0  0  0  1  0  0  0  0  0  0
  191.8820  177.4720  146.2620 F   0  0  0  0  0  0  0  0  0  0  0  0
  190.0000  177.9720  147.3990 F   0  0  0  0  0  0  0  0  0  0  0  0
  190.8480  175.8920  147.4990 F   0  0  0  0  0  0  0  0  0  0  0  0
  190.6530  176.9890  146.6780 C   0  0  0  0  0  0  0  0  0  0  0  0
  190.2200  176.3370  140.5340 N   0  0  0  0  0  2  0  0  0  0  0  0
  190.5990  176.9830  141.7520 C   0  0  0  0  0  0  0  0  0  0  0  0
  191.4730  177.8930  141.7410 O   0  0  0  0  0  0  0  0  0  0  0  0
  190.5990  175.4280  137.7950 C   0  0  0  0  0  1  0  0  0  0  0  0
  190.3140  178.0430  138.4790 O   0  0  0  0  0  0  0  0  0  0  0  0
  192.5960  176.9570  139.1570 O   0  0  0  0  0  1  0  0  0  0  0  0
  190.9260  176.7580  138.9840 P   0  0  1  0  0  0  0  0  0  0  0  0
  1  4  2  0  0  0  0
  2  3  1  0  0  0  0
  2 27  1  1  0  0  0
  4  3  1  0  0  0  0
  5  2  1  0  0  0  0
  6  5  2  0  0  0  0
  7  6  1  0  0  0  0
  7  1  1  0  0  0  0
  8  9  2  0  0  0  0
  8 11  1  0  0  0  0
  9 13  1  0  0  0  0
 10 12  2  0  0  0  0
 11  4  1  1  0  0  0
 11 10  1  0  0  0  0
 13 12  1  0  0  0  0
 14 15  1  0  0  0  0
 14  9  1  0  0  0  0
 16 15  1  0  0  0  0
 17 16  1  0  0  0  0
 18 19  1  0  0  0  0
 18 17  1  0  0  0  0
 20 18  1  0  0  0  0
 21 20  1  0  0  0  0
 21 22  1  0  0  0  0
 22 23  1  0  0  0  0
 24 27  1  0  0  0  0
 27 25  1  0  0  0  0
 27 26  1  0  0  0  0
 28 29  1  0  0  0  0
 29  6  1  0  0  0  0
 30 29  2  0  0  0  0
 32 34  2  0  0  0  0
 34 31  1  6  0  0  0
 34 33  1  0  0  0  0
 34 28  1  0  0  0  0
M  END
>  <MODEL>
2

>  <REMARK>
 VINA RESULT:      -6.9      4.274      8.414
  Name = 
  12 active torsions:
  status: ('A' for Active; 'I' for Inactive)
    1  A    between atoms: N_3  and  C_26
    2  A    between atoms: N_4  and  P_28
    3  A    between atoms: N_5  and  C_19
    4  A    between atoms: N_5  and  C_25
    5  A    between atoms: C_6  and  N_22
    6  A    between atoms: C_8  and  C_31
    7  A    between atoms: C_9  and  C_33
    8  A    between atoms: C_19  and  C_26
    9  A    between atoms: C_21  and  C_23
   10  A    between atoms: N_22  and  N_30
   11  A    between atoms: C_25  and  C_27
   12  A    between atoms: C_27  and  N_30
                            x       y       z     vdW  Elec       q    Type
                         _______ _______ _______ _____ _____    ______ ____

>  <TORSDO>
F 12

$$$$
=
 OpenBabel10232409533D

 34 35  0  0  1  0  0  0  0  0999 V2000
  184.5210  179.3610  140.8200 N   0  0  0  0  0  0  0  0  0  0  0  0
  182.1750  177.7070  139.8690 C   0  0  1  0  0  3  0  0  0  0  0  0
  182.6890  177.8460  141.2300 N   0  0  0  0  0  2  0  0  0  0  0  0
  183.8030  178.6590  141.6540 C   0  0  0  0  0  0  0  0  0  0  0  0
  183.2820  177.3300  138.9320 C   0  0  0  0  0  3  0  0  0  0  0  0
  184.2930  178.1670  138.7030 C   0  0  0  0  0  0  0  0  0  0  0  0
  184.3020  179.5040  139.3840 C   0  0  0  0  0  2  0  0  0  0  0  0
  185.3380  178.0830  143.4770 N   0  0  0  0  0  0  0  0  0  0  0  0
  185.7100  178.0570  144.7860 C   0  0  0  0  0  0  0  0  0  0  0  0
  183.3240  179.2090  144.0520 C   0  0  0  0  0  3  0  0  0  0  0  0
  184.1640  178.6460  143.0820 C   0  0  1  0  0  3  0  0  0  0  0  0
  183.6950  179.1820  145.3590 N   0  0  0  0  0  0  0  0  0  0  0  0
  184.8700  178.6200  145.7470 C   0  0  0  0  0  2  0  0  0  0  0  0
  186.9510  177.4680  145.1780 N   0  0  0  0  0  2  0  0  0  0  0  0
  187.4870  177.6640  146.4610 N   0  0  0  0  0  2  0  0  0  0  0  0
  188.8970  177.9780  146.2990 C   0  0  0  0  0  2  0  0  0  0  0  0
  189.5490  176.9400  145.3860 C   0  0  0  0  0  2  0  0  0  0  0  0
  190.1810  177.5220  144.1950 N   0  0  0  0  0  0  0  0  0  0  0  0
  191.5580  177.8800  144.5020 C   0  0  0  0  0  1  0  0  0  0  0  0
  190.1980  176.5510  143.1080 C   0  0  0  0  0  2  0  0  0  0  0  0
  188.9360  176.6840  142.2770 C   0  0  0  0  0  2  0  0  0  0  0  0
  189.1850  177.5790  141.1610 N   0  0  0  0  0  2  0  0  0  0  0  0
  188.0620  178.4960  141.1060 C   0  0  0  0  0  1  0  0  0  0  0  0
  180.3570  176.7540  138.6390 F   0  0  0  0  0  0  0  0  0  0  0  0
  181.5780  175.4070  139.9730 F   0  0  0  0  0  0  0  0  0  0  0  0
  180.1720  176.9080  140.8830 F   0  0  0  0  0  0  0  0  0  0  0  0
  181.0480  176.6780  139.8360 C   0  0  0  0  0  0  0  0  0  0  0  0
  186.6270  178.5130  137.8470 N   0  0  0  0  0  2  0  0  0  0  0  0
  185.3960  177.7860  137.8060 C   0  0  0  0  0  0  0  0  0  0  0  0
  185.2580  176.8210  137.0040 O   0  0  0  0  0  0  0  0  0  0  0  0
  188.6220  176.4780  137.2580 C   0  0  0  0  0  1  0  0  0  0  0  0
  187.5520  178.1180  135.3720 O   0  0  0  0  0  0  0  0  0  0  0  0
  189.2150  179.2670  137.0340 O   0  0  0  0  0  1  0  0  0  0  0  0
  187.9910  178.1200  136.8170 P   0  0  1  0  0  0  0  0  0  0  0  0
  1  4  2  0  0  0  0
  2 27  1  1  0  0  0
  2  3  1  0  0  0  0
  3  4  1  0  0  0  0
  5  2  1  0  0  0  0
  6  5  2  0  0  0  0
  6  7  1  0  0  0  0
  7  1  1  0  0  0  0
  8  9  2  0  0  0  0
  9 14  1  0  0  0  0
  9 13  1  0  0  0  0
 10 12  2  0  0  0  0
 11  4  1  6  0  0  0
 11  8  1  0  0  0  0
 11 10  1  0  0  0  0
 12 13  1  0  0  0  0
 14 15  1  0  0  0  0
 16 15  1  0  0  0  0
 17 16  1  0  0  0  0
 18 19  1  0  0  0  0
 18 17  1  0  0  0  0
 20 18  1  0  0  0  0
 21 20  1  0  0  0  0
 22 21  1  0  0  0  0
 23 22  1  0  0  0  0
 24 27  1  0  0  0  0
 27 25  1  0  0  0  0
 27 26  1  0  0  0  0
 29 28  1  0  0  0  0
 29  6  1  0  0  0  0
 30 29  2  0  0  0  0
 32 34  2  0  0  0  0
 34 33  1  0  0  0  0
 34 31  1  1  0  0  0
 34 28  1  0  0  0  0
M  END
>  <MODEL>
3

>  <REMARK>
 VINA RESULT:      -6.8      3.302      5.495
  Name = 
  12 active torsions:
  status: ('A' for Active; 'I' for Inactive)
    1  A    between atoms: N_3  and  C_26
    2  A    between atoms: N_4  and  P_28
    3  A    between atoms: N_5  and  C_19
    4  A    between atoms: N_5  and  C_25
    5  A    between atoms: C_6  and  N_22
    6  A    between atoms: C_8  and  C_31
    7  A    between atoms: C_9  and  C_33
    8  A    between atoms: C_19  and  C_26
    9  A    between atoms: C_21  and  C_23
   10  A    between atoms: N_22  and  N_30
   11  A    between atoms: C_25  and  C_27
   12  A    between atoms: C_27  and  N_30
                            x       y       z     vdW  Elec       q    Type
                         _______ _______ _______ _____ _____    ______ ____

>  <TORSDO>
F 12

$$$$
=
 OpenBabel10232409533D

 34 35  0  0  1  0  0  0  0  0999 V2000
  184.6970  179.4110  140.6830 N   0  0  0  0  0  0  0  0  0  0  0  0
  182.4280  177.7340  139.5920 C   0  0  1  0  0  3  0  0  0  0  0  0
  182.8840  177.8460  140.9760 N   0  0  0  0  0  2  0  0  0  0  0  0
  183.9610  178.6700  141.4670 C   0  0  0  0  0  0  0  0  0  0  0  0
  183.5810  177.4070  138.6910 C   0  0  0  0  0  3  0  0  0  0  0  0
  184.5810  178.2720  138.5260 C   0  0  0  0  0  0  0  0  0  0  0  0
  184.5320  179.5890  139.2430 C   0  0  0  0  0  2  0  0  0  0  0  0
  185.3960  178.0070  143.3420 N   0  0  0  0  0  0  0  0  0  0  0  0
  185.7140  177.9500  144.6630 C   0  0  0  0  0  0  0  0  0  0  0  0
  183.4110  179.2140  143.8510 C   0  0  0  0  0  3  0  0  0  0  0  0
  184.2650  178.6260  142.9080 C   0  0  1  0  0  3  0  0  0  0  0  0
  183.7290  179.1570  145.1710 N   0  0  0  0  0  0  0  0  0  0  0  0
  184.8620  178.5390  145.5970 C   0  0  0  0  0  2  0  0  0  0  0  0
  186.9120  177.3020  145.0960 N   0  0  0  0  0  2  0  0  0  0  0  0
  187.9050  177.9920  145.8100 N   0  0  0  0  0  2  0  0  0  0  0  0
  189.0670  178.1010  144.9430 C   0  0  0  0  0  2  0  0  0  0  0  0
  189.2620  176.7880  144.1850 C   0  0  0  0  0  2  0  0  0  0  0  0
  190.6710  176.4650  143.9250 N   0  0  0  0  0  0  0  0  0  0  0  0
  191.0670  177.0150  142.6370 C   0  0  0  0  0  1  0  0  0  0  0  0
  191.5200  177.0560  144.9500 C   0  0  0  0  0  2  0  0  0  0  0  0
  191.8900  176.0090  145.9830 C   0  0  0  0  0  2  0  0  0  0  0  0
  191.8200  176.5930  147.3100 N   0  0  0  0  0  2  0  0  0  0  0  0
  192.6950  175.8050  148.1580 C   0  0  0  0  0  1  0  0  0  0  0  0
  180.2080  177.0780  140.1960 F   0  0  0  0  0  0  0  0  0  0  0  0
  180.9820  176.5080  138.1570 F   0  0  0  0  0  0  0  0  0  0  0  0
  181.7830  175.4750  139.9860 F   0  0  0  0  0  0  0  0  0  0  0  0
  181.3270  176.6820  139.4850 C   0  0  0  0  0  0  0  0  0  0  0  0
  185.7310  176.7140  136.9290 N   0  0  0  0  0  2  0  0  0  0  0  0
  185.7280  177.9400  137.6650 C   0  0  0  0  0  0  0  0  0  0  0  0
  186.7050  178.7340  137.5750 O   0  0  0  0  0  0  0  0  0  0  0  0
  186.8470  174.5140  135.3840 C   0  0  0  0  0  1  0  0  0  0  0  0
  187.0580  177.1220  134.6460 O   0  0  0  0  0  0  0  0  0  0  0  0
  188.5220  176.4230  136.7000 O   0  0  0  0  0  1  0  0  0  0  0  0
  187.0550  176.2470  135.8770 P   0  0  1  0  0  0  0  0  0  0  0  0
  1  4  2  0  0  0  0
  2 27  1  1  0  0  0
  2  3  1  0  0  0  0
  3  4  1  0  0  0  0
  5  2  1  0  0  0  0
  6  5  2  0  0  0  0
  6  7  1  0  0  0  0
  7  1  1  0  0  0  0
  8  9  2  0  0  0  0
  9 14  1  0  0  0  0
  9 13  1  0  0  0  0
 10 12  2  0  0  0  0
 11  4  1  6  0  0  0
 11  8  1  0  0  0  0
 11 10  1  0  0  0  0
 12 13  1  0  0  0  0
 14 15  1  0  0  0  0
 16 15  1  0  0  0  0
 17 16  1  0  0  0  0
 18 17  1  0  0  0  0
 18 20  1  0  0  0  0
 19 18  1  0  0  0  0
 20 21  1  0  0  0  0
 21 22  1  0  0  0  0
 22 23  1  0  0  0  0
 25 27  1  0  0  0  0
 27 26  1  0  0  0  0
 27 24  1  0  0  0  0
 28 29  1  0  0  0  0
 29  6  1  0  0  0  0
 30 29  2  0  0  0  0
 32 34  2  0  0  0  0
 34 31  1  6  0  0  0
 34 33  1  0  0  0  0
 34 28  1  0  0  0  0
M  END
>  <MODEL>
4

>  <REMARK>
 VINA RESULT:      -6.5      3.531      5.159
  Name = 
  12 active torsions:
  status: ('A' for Active; 'I' for Inactive)
    1  A    between atoms: N_3  and  C_26
    2  A    between atoms: N_4  and  P_28
    3  A    between atoms: N_5  and  C_19
    4  A    between atoms: N_5  and  C_25
    5  A    between atoms: C_6  and  N_22
    6  A    between atoms: C_8  and  C_31
    7  A    between atoms: C_9  and  C_33
    8  A    between atoms: C_19  and  C_26
    9  A    between atoms: C_21  and  C_23
   10  A    between atoms: N_22  and  N_30
   11  A    between atoms: C_25  and  C_27
   12  A    between atoms: C_27  and  N_30
                            x       y       z     vdW  Elec       q    Type
                         _______ _______ _______ _____ _____    ______ ____

>  <TORSDO>
F 12

$$$$
=
 OpenBabel10232409533D

 34 35  0  0  1  0  0  0  0  0999 V2000
  186.5980  178.7280  141.7550 N   0  0  0  0  0  0  0  0  0  0  0  0
  185.3890  178.8260  144.5260 C   0  0  1  0  0  3  0  0  0  0  0  0
  186.6180  178.1600  144.0990 N   0  0  0  0  0  2  0  0  0  0  0  0
  187.1780  178.1460  142.7700 C   0  0  0  0  0  0  0  0  0  0  0  0
  184.2440  178.4130  143.6500 C   0  0  0  0  0  3  0  0  0  0  0  0
  184.2310  178.7290  142.3560 C   0  0  0  0  0  0  0  0  0  0  0  0
  185.3710  179.5210  141.7860 C   0  0  0  0  0  2  0  0  0  0  0  0
  189.2290  177.7120  141.4990 N   0  0  0  0  0  0  0  0  0  0  0  0
  190.3940  177.0490  141.2680 C   0  0  0  0  0  0  0  0  0  0  0  0
  188.8190  176.3650  143.4160 C   0  0  0  0  0  3  0  0  0  0  0  0
  188.4280  177.3980  142.5530 C   0  0  1  0  0  3  0  0  0  0  0  0
  189.9830  175.7030  143.1850 N   0  0  0  0  0  0  0  0  0  0  0  0
  190.7790  176.0230  142.1310 C   0  0  0  0  0  2  0  0  0  0  0  0
  191.2250  177.4010  140.1600 N   0  0  0  0  0  2  0  0  0  0  0  0
  190.7340  177.4040  138.8440 N   0  0  0  0  0  2  0  0  0  0  0  0
  191.2170  176.1940  138.1980 C   0  0  0  0  0  2  0  0  0  0  0  0
  190.0330  175.4100  137.6340 C   0  0  0  0  0  2  0  0  0  0  0  0
  189.4290  176.0310  136.4480 N   0  0  0  0  0  0  0  0  0  0  0  0
  189.2540  175.0270  135.4090 C   0  0  0  0  0  1  0  0  0  0  0  0
  188.1180  176.5750  136.7770 C   0  0  0  0  0  2  0  0  0  0  0  0
  187.9620  177.9540  136.1660 C   0  0  0  0  0  2  0  0  0  0  0  0
  187.1600  178.7850  137.0450 N   0  0  0  0  0  2  0  0  0  0  0  0
  186.9900  178.0420  138.2800 C   0  0  0  0  0  1  0  0  0  0  0  0
  185.6990  177.3190  146.3580 F   0  0  0  0  0  0  0  0  0  0  0  0
  185.6030  179.5300  146.7870 F   0  0  0  0  0  0  0  0  0  0  0  0
  183.7380  178.4230  146.1950 F   0  0  0  0  0  0  0  0  0  0  0  0
  185.1040  178.5140  145.9930 C   0  0  0  0  0  0  0  0  0  0  0  0
  183.4040  177.6280  140.2570 N   0  0  0  0  0  2  0  0  0  0  0  0
  183.1220  178.2990  141.4880 C   0  0  0  0  0  0  0  0  0  0  0  0
  181.9270  178.5190  141.8290 O   0  0  0  0  0  0  0  0  0  0  0  0
  181.1600  178.5020  138.6230 C   0  0  0  0  0  1  0  0  0  0  0  0
  182.7630  176.4060  137.9690 O   0  0  0  0  0  0  0  0  0  0  0  0
  181.1380  175.9820  139.9770 O   0  0  0  0  0  1  0  0  0  0  0  0
  182.1420  177.0790  139.1700 P   0  0  1  0  0  0  0  0  0  0  0  0
  1  7  1  0  0  0  0
  1  4  2  0  0  0  0
  2 27  1  1  0  0  0
  3  2  1  0  0  0  0
  4  3  1  0  0  0  0
  5  2  1  0  0  0  0
  6  5  2  0  0  0  0
  7  6  1  0  0  0  0
  8 11  1  0  0  0  0
  9  8  2  0  0  0  0
  9 13  1  0  0  0  0
 11  4  1  1  0  0  0
 11 10  1  0  0  0  0
 12 10  2  0  0  0  0
 13 12  1  0  0  0  0
 14  9  1  0  0  0  0
 15 14  1  0  0  0  0
 16 15  1  0  0  0  0
 17 16  1  0  0  0  0
 18 20  1  0  0  0  0
 18 17  1  0  0  0  0
 19 18  1  0  0  0  0
 21 20  1  0  0  0  0
 21 22  1  0  0  0  0
 22 23  1  0  0  0  0
 27 26  1  0  0  0  0
 27 24  1  0  0  0  0
 27 25  1  0  0  0  0
 28 29  1  0  0  0  0
 29 30  2  0  0  0  0
 29  6  1  0  0  0  0
 32 34  2  0  0  0  0
 34 31  1  6  0  0  0
 34 33  1  0  0  0  0
 34 28  1  0  0  0  0
M  END
>  <MODEL>
5

>  <REMARK>
 VINA RESULT:      -6.3      2.187      5.146
  Name = 
  12 active torsions:
  status: ('A' for Active; 'I' for Inactive)
    1  A    between atoms: N_3  and  C_26
    2  A    between atoms: N_4  and  P_28
    3  A    between atoms: N_5  and  C_19
    4  A    between atoms: N_5  and  C_25
    5  A    between atoms: C_6  and  N_22
    6  A    between atoms: C_8  and  C_31
    7  A    between atoms: C_9  and  C_33
    8  A    between atoms: C_19  and  C_26
    9  A    between atoms: C_21  and  C_23
   10  A    between atoms: N_22  and  N_30
   11  A    between atoms: C_25  and  C_27
   12  A    between atoms: C_27  and  N_30
                            x       y       z     vdW  Elec       q    Type
                         _______ _______ _______ _____ _____    ______ ____

>  <TORSDO>
F 12

$$$$
=
 OpenBabel10232409533D

 34 35  0  0  1  0  0  0  0  0999 V2000
  185.3460  178.6870  141.6400 N   0  0  0  0  0  0  0  0  0  0  0  0
  182.4090  178.9950  142.2930 C   0  0  1  0  0  3  0  0  0  0  0  0
  183.5050  178.6600  143.1990 N   0  0  0  0  0  2  0  0  0  0  0  0
  184.9010  178.5380  142.8590 C   0  0  0  0  0  0  0  0  0  0  0  0
  182.4170  178.0780  141.1070 C   0  0  0  0  0  3  0  0  0  0  0  0
  183.4320  178.0940  140.2440 C   0  0  0  0  0  0  0  0  0  0  0  0
  184.5630  179.0560  140.4640 C   0  0  0  0  0  2  0  0  0  0  0  0
  187.0460  177.6210  143.6150 N   0  0  0  0  0  0  0  0  0  0  0  0
  187.9480  177.2820  144.5750 C   0  0  0  0  0  0  0  0  0  0  0  0
  185.5380  178.4030  145.2790 C   0  0  0  0  0  3  0  0  0  0  0  0
  185.8460  178.1790  143.9310 C   0  0  1  0  0  3  0  0  0  0  0  0
  186.4380  178.0630  146.2380 N   0  0  0  0  0  0  0  0  0  0  0  0
  187.6370  177.5080  145.9160 C   0  0  0  0  0  2  0  0  0  0  0  0
  189.2070  176.7050  144.2210 N   0  0  0  0  0  2  0  0  0  0  0  0
  189.4220  176.1260  142.9600 N   0  0  0  0  0  2  0  0  0  0  0  0
  190.3770  176.9650  142.2550 C   0  0  0  0  0  2  0  0  0  0  0  0
  190.1910  176.7930  140.7470 C   0  0  0  0  0  2  0  0  0  0  0  0
  188.8760  177.2340  140.2650 N   0  0  0  0  0  0  0  0  0  0  0  0
  188.6580  178.6220  140.6460 C   0  0  0  0  0  1  0  0  0  0  0  0
  188.8180  177.1500  138.8110 C   0  0  0  0  0  2  0  0  0  0  0  0
  189.1990  178.4850  138.2010 C   0  0  0  0  0  2  0  0  0  0  0  0
  188.7880  178.5150  136.8090 N   0  0  0  0  0  2  0  0  0  0  0  0
  188.4980  177.1450  136.4310 C   0  0  0  0  0  1  0  0  0  0  0  0
  180.2390  177.9980  142.4410 F   0  0  0  0  0  0  0  0  0  0  0  0
  181.2960  178.5650  144.3500 F   0  0  0  0  0  0  0  0  0  0  0  0
  180.4650  180.1700  143.0130 F   0  0  0  0  0  0  0  0  0  0  0  0
  181.0750  178.9280  143.0340 C   0  0  0  0  0  0  0  0  0  0  0  0
  184.2250  177.5060  137.9360 N   0  0  0  0  0  2  0  0  0  0  0  0
  183.4570  177.1730  139.0960 C   0  0  0  0  0  0  0  0  0  0  0  0
  182.8050  176.0930  139.1330 O   0  0  0  0  0  0  0  0  0  0  0  0
  185.1570  174.9220  136.9770 C   0  0  0  0  0  1  0  0  0  0  0  0
  182.9170  176.1460  136.0440 O   0  0  0  0  0  1  0  0  0  0  0  0
  185.1760  177.2390  135.3000 O   0  0  0  0  0  0  0  0  0  0  0  0
  184.3120  176.4620  136.5290 P   0  0  1  0  0  0  0  0  0  0  0  0
  1  4  2  0  0  0  0
  2 27  1  1  0  0  0
  2  3  1  0  0  0  0
  4  3  1  0  0  0  0
  5  2  1  0  0  0  0
  6  7  1  0  0  0  0
  6  5  2  0  0  0  0
  7  1  1  0  0  0  0
  8 11  1  0  0  0  0
  8  9  2  0  0  0  0
  9 13  1  0  0  0  0
 10 12  2  0  0  0  0
 11  4  1  6  0  0  0
 11 10  1  0  0  0  0
 13 12  1  0  0  0  0
 14  9  1  0  0  0  0
 15 14  1  0  0  0  0
 16 15  1  0  0  0  0
 17 16  1  0  0  0  0
 18 19  1  0  0  0  0
 18 17  1  0  0  0  0
 20 18  1  0  0  0  0
 21 20  1  0  0  0  0
 22 21  1  0  0  0  0
 23 22  1  0  0  0  0
 24 27  1  0  0  0  0
 26 27  1  0  0  0  0
 27 25  1  0  0  0  0
 28 29  1  0  0  0  0
 29 30  2  0  0  0  0
 29  6  1  0  0  0  0
 32 34  1  0  0  0  0
 33 34  2  0  0  0  0
 34 31  1  1  0  0  0
 34 28  1  0  0  0  0
M  END
>  <MODEL>
6

>  <REMARK>
 VINA RESULT:      -6.2      2.246      5.183
  Name = 
  12 active torsions:
  status: ('A' for Active; 'I' for Inactive)
    1  A    between atoms: N_3  and  C_26
    2  A    between atoms: N_4  and  P_28
    3  A    between atoms: N_5  and  C_19
    4  A    between atoms: N_5  and  C_25
    5  A    between atoms: C_6  and  N_22
    6  A    between atoms: C_8  and  C_31
    7  A    between atoms: C_9  and  C_33
    8  A    between atoms: C_19  and  C_26
    9  A    between atoms: C_21  and  C_23
   10  A    between atoms: N_22  and  N_30
   11  A    between atoms: C_25  and  C_27
   12  A    between atoms: C_27  and  N_30
                            x       y       z     vdW  Elec       q    Type
                         _______ _______ _______ _____ _____    ______ ____

>  <TORSDO>
F 12

$$$$
=
 OpenBabel10232409533D

 34 35  0  0  1  0  0  0  0  0999 V2000
  187.8370  176.3760  143.4540 N   0  0  0  0  0  0  0  0  0  0  0  0
  190.3830  176.5300  145.0800 C   0  0  1  0  0  3  0  0  0  0  0  0
  189.0810  177.1230  145.3810 N   0  0  0  0  0  2  0  0  0  0  0  0
  187.8790  177.0160  144.5920 C   0  0  0  0  0  0  0  0  0  0  0  0
  190.8180  176.9090  143.6970 C   0  0  0  0  0  3  0  0  0  0  0  0
  190.1330  176.4950  142.6320 C   0  0  0  0  0  0  0  0  0  0  0  0
  188.9250  175.6270  142.8330 C   0  0  0  0  0  2  0  0  0  0  0  0
  185.7530  178.1670  144.1830 N   0  0  0  0  0  0  0  0  0  0  0  0
  184.6210  178.8030  144.5900 C   0  0  0  0  0  0  0  0  0  0  0  0
  186.4380  177.8970  146.4440 C   0  0  0  0  0  3  0  0  0  0  0  0
  186.6700  177.7060  145.0750 C   0  0  1  0  0  3  0  0  0  0  0  0
  185.3080  178.5320  146.8500 N   0  0  0  0  0  0  0  0  0  0  0  0
  184.3940  178.9890  145.9530 C   0  0  0  0  0  2  0  0  0  0  0  0
  183.6660  179.2720  143.6350 N   0  0  0  0  0  2  0  0  0  0  0  0
  182.3570  178.7680  143.5960 N   0  0  0  0  0  2  0  0  0  0  0  0
  181.8860  178.8890  142.2260 C   0  0  0  0  0  2  0  0  0  0  0  0
  183.0030  178.4850  141.2650 C   0  0  0  0  0  2  0  0  0  0  0  0
  182.5440  178.2760  139.8860 N   0  0  0  0  0  0  0  0  0  0  0  0
  182.7490  176.8850  139.5100 C   0  0  0  0  0  1  0  0  0  0  0  0
  181.1200  178.5680  139.7800 C   0  0  0  0  0  2  0  0  0  0  0  0
  180.8530  179.3970  138.5380 C   0  0  0  0  0  2  0  0  0  0  0  0
  181.9150  180.3710  138.3690 N   0  0  0  0  0  2  0  0  0  0  0  0
  181.2860  181.5990  137.9220 C   0  0  0  0  0  1  0  0  0  0  0  0
  190.7980  177.1950  147.3410 F   0  0  0  0  0  0  0  0  0  0  0  0
  192.3610  175.9690  146.2740 F   0  0  0  0  0  0  0  0  0  0  0  0
  192.0440  178.1200  145.7020 F   0  0  0  0  0  0  0  0  0  0  0  0
  191.4110  176.9630  146.1220 C   0  0  0  0  0  0  0  0  0  0  0  0
  190.1150  176.1150  140.1500 N   0  0  0  0  0  2  0  0  0  0  0  0
  190.5410  176.8910  141.2740 C   0  0  0  0  0  0  0  0  0  0  0  0
  191.2640  177.9110  141.1010 O   0  0  0  0  0  0  0  0  0  0  0  0
  192.3590  176.5340  138.3460 C   0  0  0  0  0  1  0  0  0  0  0  0
  189.9740  175.4980  137.5550 O   0  0  0  0  0  0  0  0  0  0  0  0
  189.9460  178.0530  138.1160 O   0  0  0  0  0  1  0  0  0  0  0  0
  190.5530  176.5230  138.5010 P   0  0  1  0  0  0  0  0  0  0  0  0
  1  4  2  0  0  0  0
  2  3  1  0  0  0  0
  2 27  1  1  0  0  0
  4  3  1  0  0  0  0
  5  2  1  0  0  0  0
  6  7  1  0  0  0  0
  6  5  2  0  0  0  0
  7  1  1  0  0  0  0
  8  9  2  0  0  0  0
  8 11  1  0  0  0  0
  9 13  1  0  0  0  0
 10 12  2  0  0  0  0
 11  4  1  1  0  0  0
 11 10  1  0  0  0  0
 13 12  1  0  0  0  0
 14  9  1  0  0  0  0
 15 14  1  0  0  0  0
 16 15  1  0  0  0  0
 17 16  1  0  0  0  0
 18 17  1  0  0  0  0
 19 18  1  0  0  0  0
 20 18  1  0  0  0  0
 21 20  1  0  0  0  0
 22 21  1  0  0  0  0
 23 22  1  0  0  0  0
 26 27  1  0  0  0  0
 27 25  1  0  0  0  0
 27 24  1  0  0  0  0
 28 29  1  0  0  0  0
 29  6  1  0  0  0  0
 30 29  2  0  0  0  0
 32 34  2  0  0  0  0
 33 34  1  0  0  0  0
 34 31  1  6  0  0  0
 34 28  1  0  0  0  0
M  END
>  <MODEL>
7

>  <REMARK>
 VINA RESULT:      -6.1      4.107      8.511
  Name = 
  12 active torsions:
  status: ('A' for Active; 'I' for Inactive)
    1  A    between atoms: N_3  and  C_26
    2  A    between atoms: N_4  and  P_28
    3  A    between atoms: N_5  and  C_19
    4  A    between atoms: N_5  and  C_25
    5  A    between atoms: C_6  and  N_22
    6  A    between atoms: C_8  and  C_31
    7  A    between atoms: C_9  and  C_33
    8  A    between atoms: C_19  and  C_26
    9  A    between atoms: C_21  and  C_23
   10  A    between atoms: N_22  and  N_30
   11  A    between atoms: C_25  and  C_27
   12  A    between atoms: C_27  and  N_30
                            x       y       z     vdW  Elec       q    Type
                         _______ _______ _______ _____ _____    ______ ____

>  <TORSDO>
F 12

$$$$
=
 OpenBabel10232409533D

 34 35  0  0  1  0  0  0  0  0999 V2000
  186.2990  178.7560  141.0340 N   0  0  0  0  0  0  0  0  0  0  0  0
  185.1810  179.0380  143.8300 C   0  0  1  0  0  3  0  0  0  0  0  0
  186.4630  178.4670  143.4230 N   0  0  0  0  0  2  0  0  0  0  0  0
  186.9760  178.3620  142.0800 C   0  0  0  0  0  0  0  0  0  0  0  0
  184.0620  178.4030  143.0600 C   0  0  0  0  0  3  0  0  0  0  0  0
  183.9690  178.5640  141.7410 C   0  0  0  0  0  0  0  0  0  0  0  0
  184.9910  179.4060  141.0340 C   0  0  0  0  0  2  0  0  0  0  0  0
  188.7950  177.5820  140.6330 N   0  0  0  0  0  0  0  0  0  0  0  0
  190.0130  177.0160  140.4160 C   0  0  0  0  0  0  0  0  0  0  0  0
  189.0590  177.2990  142.9790 C   0  0  0  0  0  3  0  0  0  0  0  0
  188.2960  177.7380  141.8890 C   0  0  1  0  0  3  0  0  0  0  0  0
  190.2750  176.7330  142.7620 N   0  0  0  0  0  0  0  0  0  0  0  0
  190.7690  176.5830  141.5050 C   0  0  0  0  0  2  0  0  0  0  0  0
  190.5220  176.8710  139.0880 N   0  0  0  0  0  2  0  0  0  0  0  0
  190.9440  175.6260  138.5950 N   0  0  0  0  0  2  0  0  0  0  0  0
  191.5190  175.8540  137.2780 C   0  0  0  0  0  2  0  0  0  0  0  0
  193.0230  176.0920  137.4130 C   0  0  0  0  0  2  0  0  0  0  0  0
  193.8100  175.4990  136.3250 N   0  0  0  0  0  0  0  0  0  0  0  0
  194.5860  176.5380  135.6630 C   0  0  0  0  0  1  0  0  0  0  0  0
  194.7390  174.5100  136.8560 C   0  0  0  0  0  2  0  0  0  0  0  0
  194.6770  174.5040  138.3710 C   0  0  0  0  0  2  0  0  0  0  0  0
  195.6690  173.5810  138.8920 N   0  0  0  0  0  2  0  0  0  0  0  0
  196.7770  173.5900  137.9570 C   0  0  0  0  0  1  0  0  0  0  0  0
  185.6070  179.8910  146.0250 F   0  0  0  0  0  0  0  0  0  0  0  0
  183.6310  178.8810  145.6270 F   0  0  0  0  0  0  0  0  0  0  0  0
  185.5110  177.6540  145.7410 F   0  0  0  0  0  0  0  0  0  0  0  0
  184.9830  178.8670  145.3340 C   0  0  0  0  0  0  0  0  0  0  0  0
  183.2120  176.9960  139.9330 N   0  0  0  0  0  2  0  0  0  0  0  0
  182.8890  177.9170  140.9780 C   0  0  0  0  0  0  0  0  0  0  0  0
  181.6820  178.1710  141.2470 O   0  0  0  0  0  0  0  0  0  0  0  0
  182.7860  175.0330  137.8270 C   0  0  0  0  0  1  0  0  0  0  0  0
  181.0640  175.4060  139.8970 O   0  0  0  0  0  1  0  0  0  0  0  0
  181.0900  177.3190  138.1110 O   0  0  0  0  0  0  0  0  0  0  0  0
  181.9850  176.1780  138.9820 P   0  0  1  0  0  0  0  0  0  0  0  0
  1  7  1  0  0  0  0
  1  4  2  0  0  0  0
  2 27  1  1  0  0  0
  3  2  1  0  0  0  0
  4  3  1  0  0  0  0
  5  2  1  0  0  0  0
  6  5  2  0  0  0  0
  7  6  1  0  0  0  0
  8 11  1  0  0  0  0
  9  8  2  0  0  0  0
  9 13  1  0  0  0  0
 11  4  1  1  0  0  0
 11 10  1  0  0  0  0
 12 10  2  0  0  0  0
 13 12  1  0  0  0  0
 14  9  1  0  0  0  0
 15 14  1  0  0  0  0
 16 17  1  0  0  0  0
 16 15  1  0  0  0  0
 18 20  1  0  0  0  0
 18 17  1  0  0  0  0
 19 18  1  0  0  0  0
 20 21  1  0  0  0  0
 21 22  1  0  0  0  0
 23 22  1  0  0  0  0
 27 25  1  0  0  0  0
 27 26  1  0  0  0  0
 27 24  1  0  0  0  0
 28 29  1  0  0  0  0
 29 30  2  0  0  0  0
 29  6  1  0  0  0  0
 33 34  2  0  0  0  0
 34 31  1  6  0  0  0
 34 32  1  0  0  0  0
 34 28  1  0  0  0  0
M  END
>  <MODEL>
8

>  <REMARK>
 VINA RESULT:      -6.1      2.950      5.616
  Name = 
  12 active torsions:
  status: ('A' for Active; 'I' for Inactive)
    1  A    between atoms: N_3  and  C_26
    2  A    between atoms: N_4  and  P_28
    3  A    between atoms: N_5  and  C_19
    4  A    between atoms: N_5  and  C_25
    5  A    between atoms: C_6  and  N_22
    6  A    between atoms: C_8  and  C_31
    7  A    between atoms: C_9  and  C_33
    8  A    between atoms: C_19  and  C_26
    9  A    between atoms: C_21  and  C_23
   10  A    between atoms: N_22  and  N_30
   11  A    between atoms: C_25  and  C_27
   12  A    between atoms: C_27  and  N_30
                            x       y       z     vdW  Elec       q    Type
                         _______ _______ _______ _____ _____    ______ ____

>  <TORSDO>
F 12

$$$$
=
 OpenBabel10232409533D

 34 35  0  0  1  0  0  0  0  0999 V2000
  185.1770  178.8090  138.6550 N   0  0  0  0  0  0  0  0  0  0  0  0
  184.6180  178.9850  141.6220 C   0  0  1  0  0  3  0  0  0  0  0  0
  185.8640  178.6060  140.9580 N   0  0  0  0  0  2  0  0  0  0  0  0
  186.1040  178.5490  139.5370 C   0  0  0  0  0  0  0  0  0  0  0  0
  183.4790  178.1680  141.0910 C   0  0  0  0  0  3  0  0  0  0  0  0
  183.0970  178.2810  139.8190 C   0  0  0  0  0  0  0  0  0  0  0  0
  183.8120  179.2520  138.9260 C   0  0  0  0  0  2  0  0  0  0  0  0
  188.4580  178.0130  139.9710 N   0  0  0  0  0  0  0  0  0  0  0  0
  189.7020  177.6230  139.5860 C   0  0  0  0  0  0  0  0  0  0  0  0
  187.6860  177.8390  137.7290 C   0  0  0  0  0  3  0  0  0  0  0  0
  187.4390  178.1280  139.0770 C   0  0  0  0  0  0  0  0  0  0  0  0
  188.9300  177.4490  137.3440 N   0  0  0  0  0  0  0  0  0  0  0  0
  189.9430  177.3330  138.2430 C   0  0  0  0  0  3  0  0  0  0  0  0
  190.7560  177.5000  140.5440 N   0  0  0  0  0  2  0  0  0  0  0  0
  190.5830  177.8900  141.8810 N   0  0  0  0  0  2  0  0  0  0  0  0
  191.2940  176.9280  142.7090 C   0  0  0  0  0  2  0  0  0  0  0  0
  190.4140  176.5260  143.8930 C   0  0  0  0  0  2  0  0  0  0  0  0
  189.0640  177.1020  143.8420 N   0  0  0  0  0  0  0  0  0  0  0  0
  188.1260  176.1020  143.3540 C   0  0  0  0  0  1  0  0  0  0  0  0
  188.6390  177.5080  145.1750 C   0  0  0  0  0  2  0  0  0  0  0  0
  189.8500  177.6850  146.0720 C   0  0  0  0  0  2  0  0  0  0  0  0
  189.4960  177.3360  147.4360 N   0  0  0  0  0  2  0  0  0  0  0  0
  188.0500  177.2290  147.4770 C   0  0  0  0  0  1  0  0  0  0  0  0
  185.1490  180.0150  143.7150 F   0  0  0  0  0  0  0  0  0  0  0  0
  183.5430  178.4330  143.6700 F   0  0  0  0  0  0  0  0  0  0  0  0
  185.6990  177.8470  143.4150 F   0  0  0  0  0  0  0  0  0  0  0  0
  184.7570  178.8220  143.1340 C   0  0  0  0  0  0  0  0  0  0  0  0
  182.2940  176.2680  138.5530 N   0  0  0  0  0  2  0  0  0  0  0  0
  181.9980  177.4590  139.2880 C   0  0  0  0  0  0  0  0  0  0  0  0
  180.7980  177.8000  139.4820 O   0  0  0  0  0  0  0  0  0  0  0  0
  179.9830  174.6380  139.2390 C   0  0  0  0  0  1  0  0  0  0  0  0
  180.2100  176.0070  136.9020 O   0  0  0  0  0  0  0  0  0  0  0  0
  181.7570  173.9080  137.1160 O   0  0  0  0  0  1  0  0  0  0  0  0
  181.0440  175.2300  137.8930 P   0  0  1  0  0  0  0  0  0  0  0  0
  1  7  1  0  0  0  0
  1  4  2  0  0  0  0
  2 27  1  1  0  0  0
  3  2  1  0  0  0  0
  4  3  1  0  0  0  0
  5  2  1  0  0  0  0
  6  5  2  0  0  0  0
  7  6  1  0  0  0  0
  9  8  2  0  0  0  0
  9 14  1  0  0  0  0
 10 11  2  0  0  0  0
 11  4  1  0  0  0  0
 11  8  1  0  0  0  0
 12 10  1  0  0  0  0
 12 13  2  0  0  0  0
 13  9  1  0  0  0  0
 14 15  1  0  0  0  0
 15 16  1  0  0  0  0
 16 17  1  0  0  0  0
 18 17  1  0  0  0  0
 18 20  1  0  0  0  0
 19 18  1  0  0  0  0
 20 21  1  0  0  0  0
 21 22  1  0  0  0  0
 22 23  1  0  0  0  0
 27 26  1  0  0  0  0
 27 25  1  0  0  0  0
 27 24  1  0  0  0  0
 28 29  1  0  0  0  0
 29 30  2  0  0  0  0
 29  6  1  0  0  0  0
 32 34  2  0  0  0  0
 33 34  1  0  0  0  0
 34 28  1  0  0  0  0
 34 31  1  1  0  0  0
M  END
>  <MODEL>
9

>  <REMARK>
 VINA RESULT:      -6.0      1.562      2.082
  Name = 
  12 active torsions:
  status: ('A' for Active; 'I' for Inactive)
    1  A    between atoms: N_3  and  C_26
    2  A    between atoms: N_4  and  P_28
    3  A    between atoms: N_5  and  C_19
    4  A    between atoms: N_5  and  C_25
    5  A    between atoms: C_6  and  N_22
    6  A    between atoms: C_8  and  C_31
    7  A    between atoms: C_9  and  C_33
    8  A    between atoms: C_19  and  C_26
    9  A    between atoms: C_21  and  C_23
   10  A    between atoms: N_22  and  N_30
   11  A    between atoms: C_25  and  C_27
   12  A    between atoms: C_27  and  N_30
                            x       y       z     vdW  Elec       q    Type
                         _______ _______ _______ _____ _____    ______ ____

>  <TORSDO>
F 12

$$$$
