=
 OpenBabel10232411233D

 37 40  0  0  1  0  0  0  0  0999 V2000
  185.8510  177.8690  137.4870 C   0  0  0  0  0  3  0  0  0  0  0  0
  189.2640  177.4350  139.8490 C   0  0  0  0  0  0  0  0  0  0  0  0
  189.3220  178.0390  141.1410 N   0  0  0  0  0  2  0  0  0  0  0  0
  190.2550  176.0910  138.1040 C   0  0  0  0  0  3  0  0  0  0  0  0
  185.8450  177.5090  145.3530 C   0  0  1  0  0  3  0  0  0  0  0  0
  190.3300  176.6630  139.3770 C   0  0  0  0  0  3  0  0  0  0  0  0
  186.9460  177.1540  136.9890 C   0  0  0  0  0  3  0  0  0  0  0  0
  189.3190  177.2330  142.3490 C   0  0  0  0  0  2  0  0  0  0  0  0
  184.3860  178.4600  140.6120 N   0  0  0  0  0  0  0  0  0  0  0  0
  189.1490  176.2750  137.3320 N   0  0  0  0  0  0  0  0  0  0  0  0
  184.7450  179.1200  139.3610 C   0  0  0  0  0  2  0  0  0  0  0  0
  185.6050  179.9400  141.9460 O   0  0  0  0  0  0  0  0  0  0  0  0
  185.9300  178.4420  138.7610 C   0  0  0  0  0  0  0  0  0  0  0  0
  188.0940  177.0120  137.7710 C   0  0  0  0  0  0  0  0  0  0  0  0
  185.2390  177.7750  142.9190 C   0  0  0  0  0  2  0  0  0  0  0  0
  187.9470  177.0290  142.7980 N   0  0  0  0  0  2  0  0  0  0  0  0
  188.1370  177.6140  139.0420 C   0  0  0  0  0  0  0  0  0  0  0  0
  188.1050  177.5050  145.1480 C   0  0  0  0  0  2  0  0  0  0  0  0
  187.6670  178.0300  143.8250 C   0  0  2  0  0  3  0  0  0  0  0  0
  187.0650  178.3120  139.4970 N   0  0  0  0  0  0  0  0  0  0  0  0
  185.0930  178.7930  141.8200 C   0  0  0  0  0  0  0  0  0  0  0  0
  186.1590  178.2420  144.0500 C   0  0  2  0  0  3  0  0  0  0  0  0
  187.1330  177.2340  145.9300 N   0  0  0  0  0  2  0  0  0  0  0  0
  185.8020  179.5390  146.7180 N   0  0  0  0  0  1  0  0  0  0  0  0
  185.0220  178.3890  146.2930 C   0  0  1  0  0  3  0  0  0  0  0  0
  183.7680  178.8790  145.5950 C   0  0  0  0  0  1  0  0  0  0  0  0
  183.5320  177.2790  140.5400 C   0  0  0  0  0  2  0  0  0  0  0  0
  182.5170  177.4220  139.4180 C   0  0  0  0  0  2  0  0  0  0  0  0
  181.1290  175.3790  138.7540 C   0  0  0  0  0  0  0  0  0  0  0  0
  181.4170  176.4910  139.6110 N   0  0  0  0  0  2  0  0  0  0  0  0
  180.0460  174.7610  138.9290 O   0  0  0  0  0  0  0  0  0  0  0  0
  182.0410  174.9560  137.7140 N   0  0  0  0  0  0  0  0  0  0  0  0
  183.3130  175.4240  137.7170 O   0  0  0  0  0  1  0  0  0  0  0  0
  182.8020  173.6790  135.7560 C   0  0  0  0  0  1  0  0  0  0  0  0
  180.4900  174.5110  135.8400 C   0  0  0  0  0  1  0  0  0  0  0  0
  181.1690  172.6880  137.3380 C   0  0  0  0  0  1  0  0  0  0  0  0
  181.6370  173.9790  136.6850 C   0  0  0  0  0  0  0  0  0  0  0  0
  1 13  1  0  0  0  0
  2  3  1  0  0  0  0
  3  8  1  0  0  0  0
  4  6  2  0  0  0  0
  5 23  1  0  0  0  0
  5 25  1  1  0  0  0
  6  2  1  0  0  0  0
  7  1  2  0  0  0  0
  7 14  1  0  0  0  0
  8 16  1  0  0  0  0
  9 21  1  0  0  0  0
 10 14  2  0  0  0  0
 10  4  1  0  0  0  0
 11  9  1  0  0  0  0
 13 11  1  0  0  0  0
 13 20  2  0  0  0  0
 14 17  1  0  0  0  0
 16 19  1  0  0  0  0
 17 20  1  0  0  0  0
 17  2  2  0  0  0  0
 18 23  1  0  0  0  0
 19 22  1  0  0  0  0
 19 18  1  1  0  0  0
 21 12  2  0  0  0  0
 21 15  1  0  0  0  0
 22 15  1  6  0  0  0
 22  5  1  0  0  0  0
 25 26  1  6  0  0  0
 25 24  1  0  0  0  0
 27  9  1  0  0  0  0
 28 30  1  0  0  0  0
 28 27  1  0  0  0  0
 29 31  2  0  0  0  0
 29 30  1  0  0  0  0
 32 33  1  0  0  0  0
 32 29  1  0  0  0  0
 34 37  1  0  0  0  0
 35 37  1  0  0  0  0
 37 36  1  0  0  0  0
 37 32  1  0  0  0  0
M  END
>  <MODEL>
1

>  <REMARK>
 VINA RESULT:      -8.1      0.000      0.000
  Name = 
  5 active torsions:
  status: ('A' for Active; 'I' for Inactive)
    1  A    between atoms: C_7  and  C_9
    2  A    between atoms: N_13  and  C_34
    3  A    between atoms: N_14  and  C_25
    4  A    between atoms: C_22  and  N_36
    5  A    between atoms: C_25  and  C_34
                            x       y       z     vdW  Elec       q    Type
                         _______ _______ _______ _____ _____    ______ ____

>  <TORSDO>
F 5

$$$$
=
 OpenBabel10232411233D

 37 40  0  0  1  0  0  0  0  0999 V2000
  185.2320  177.4530  136.7080 C   0  0  0  0  0  3  0  0  0  0  0  0
  186.6900  173.5480  136.5420 C   0  0  0  0  0  0  0  0  0  0  0  0
  187.9480  173.2780  135.9230 N   0  0  0  0  0  2  0  0  0  0  0  0
  184.7180  172.8010  137.7210 C   0  0  0  0  0  3  0  0  0  0  0  0
  192.8540  175.4980  136.9810 C   0  0  1  0  0  3  0  0  0  0  0  0
  185.9530  172.5150  137.1310 C   0  0  0  0  0  3  0  0  0  0  0  0
  184.4630  176.4100  137.2360 C   0  0  0  0  0  3  0  0  0  0  0  0
  189.0970  172.8570  136.7060 C   0  0  0  0  0  2  0  0  0  0  0  0
  188.6340  178.1960  136.3360 N   0  0  0  0  0  0  0  0  0  0  0  0
  184.2410  174.0760  137.7320 N   0  0  0  0  0  0  0  0  0  0  0  0
  187.3530  178.2630  135.6390 C   0  0  0  0  0  2  0  0  0  0  0  0
  189.6790  176.9510  134.6600 O   0  0  0  0  0  0  0  0  0  0  0  0
  186.4650  177.1650  136.1160 C   0  0  0  0  0  0  0  0  0  0  0  0
  184.9420  175.0990  137.1770 C   0  0  0  0  0  0  0  0  0  0  0  0
  190.6460  176.7100  136.8450 C   0  0  0  0  0  2  0  0  0  0  0  0
  189.8560  174.0270  137.1310 N   0  0  0  0  0  2  0  0  0  0  0  0
  186.1830  174.8500  136.5620 C   0  0  0  0  0  0  0  0  0  0  0  0
  192.1130  173.3860  136.6100 C   0  0  0  0  0  2  0  0  0  0  0  0
  190.9500  174.2110  136.1800 C   0  0  2  0  0  3  0  0  0  0  0  0
  186.9030  175.8800  136.0480 N   0  0  0  0  0  0  0  0  0  0  0  0
  189.6450  177.2830  135.8780 C   0  0  0  0  0  0  0  0  0  0  0  0
  191.5370  175.6340  136.2200 C   0  0  2  0  0  3  0  0  0  0  0  0
  193.0960  174.0820  137.0310 N   0  0  0  0  0  2  0  0  0  0  0  0
  195.2610  175.5660  136.5460 N   0  0  0  0  0  1  0  0  0  0  0  0
  193.9900  176.2020  136.2400 C   0  0  1  0  0  3  0  0  0  0  0  0
  193.7620  176.1430  134.7420 C   0  0  0  0  0  1  0  0  0  0  0  0
  188.7330  178.8360  137.6430 C   0  0  0  0  0  2  0  0  0  0  0  0
  188.4490  177.8350  138.7510 C   0  0  0  0  0  2  0  0  0  0  0  0
  188.0460  178.2070  141.2490 C   0  0  0  0  0  0  0  0  0  0  0  0
  187.7890  178.4910  139.8680 N   0  0  0  0  0  2  0  0  0  0  0  0
  187.2810  178.7150  142.1110 O   0  0  0  0  0  0  0  0  0  0  0  0
  189.1480  177.3690  141.6680 N   0  0  0  0  0  0  0  0  0  0  0  0
  190.1280  177.0700  140.7810 O   0  0  0  0  0  1  0  0  0  0  0  0
  187.9480  176.2700  143.5100 C   0  0  0  0  0  1  0  0  0  0  0  0
  189.6040  178.0170  144.0100 C   0  0  0  0  0  1  0  0  0  0  0  0
  190.3660  175.8430  143.1620 C   0  0  0  0  0  1  0  0  0  0  0  0
  189.2630  176.8830  143.0560 C   0  0  0  0  0  0  0  0  0  0  0  0
  1  7  1  0  0  0  0
  2 17  1  0  0  0  0
  2  6  2  0  0  0  0
  3  2  1  0  0  0  0
  3  8  1  0  0  0  0
  4 10  2  0  0  0  0
  5 25  1  6  0  0  0
  5 23  1  0  0  0  0
  6  4  1  0  0  0  0
  8 16  1  0  0  0  0
  9 27  1  0  0  0  0
 11 13  1  0  0  0  0
 11  9  1  0  0  0  0
 12 21  2  0  0  0  0
 13  1  2  0  0  0  0
 14  7  2  0  0  0  0
 14 10  1  0  0  0  0
 17 14  1  0  0  0  0
 18 23  1  0  0  0  0
 19 22  1  0  0  0  0
 19 18  1  1  0  0  0
 19 16  1  0  0  0  0
 20 13  1  0  0  0  0
 20 17  2  0  0  0  0
 21  9  1  0  0  0  0
 21 15  1  0  0  0  0
 22 15  1  1  0  0  0
 22  5  1  0  0  0  0
 25 26  1  6  0  0  0
 25 24  1  0  0  0  0
 27 28  1  0  0  0  0
 28 30  1  0  0  0  0
 29 32  1  0  0  0  0
 29 31  2  0  0  0  0
 30 29  1  0  0  0  0
 32 37  1  0  0  0  0
 33 32  1  0  0  0  0
 37 36  1  0  0  0  0
 37 34  1  0  0  0  0
 37 35  1  0  0  0  0
M  END
>  <MODEL>
2

>  <REMARK>
 VINA RESULT:      -7.9      3.487      8.472
  Name = 
  5 active torsions:
  status: ('A' for Active; 'I' for Inactive)
    1  A    between atoms: C_7  and  C_9
    2  A    between atoms: N_13  and  C_34
    3  A    between atoms: N_14  and  C_25
    4  A    between atoms: C_22  and  N_36
    5  A    between atoms: C_25  and  C_34
                            x       y       z     vdW  Elec       q    Type
                         _______ _______ _______ _____ _____    ______ ____

>  <TORSDO>
F 5

$$$$
=
 OpenBabel10232411233D

 37 40  0  0  1  0  0  0  0  0999 V2000
  185.4000  178.7840  142.1320 C   0  0  0  0  0  3  0  0  0  0  0  0
  184.2370  177.8160  138.2430 C   0  0  0  0  0  0  0  0  0  0  0  0
  185.1680  177.9300  137.1680 N   0  0  0  0  0  2  0  0  0  0  0  0
  182.0420  177.2530  139.0810 C   0  0  0  0  0  3  0  0  0  0  0  0
  190.1490  175.6840  136.6710 C   0  0  1  0  0  3  0  0  0  0  0  0
  182.9400  177.3450  138.0130 C   0  0  0  0  0  3  0  0  0  0  0  0
  184.0830  178.3770  141.8890 C   0  0  0  0  0  3  0  0  0  0  0  0
  185.6790  176.7530  136.4870 C   0  0  0  0  0  2  0  0  0  0  0  0
  188.5710  178.1230  140.8020 N   0  0  0  0  0  0  0  0  0  0  0  0
  182.4280  177.6090  140.3370 N   0  0  0  0  0  0  0  0  0  0  0  0
  187.7310  179.2060  141.3020 C   0  0  0  0  0  2  0  0  0  0  0  0
  188.9370  179.1300  138.7270 O   0  0  0  0  0  0  0  0  0  0  0  0
  186.2960  178.8780  141.0620 C   0  0  0  0  0  0  0  0  0  0  0  0
  183.6850  178.0600  140.5890 C   0  0  0  0  0  0  0  0  0  0  0  0
  189.1690  176.7400  138.7400 C   0  0  0  0  0  2  0  0  0  0  0  0
  186.8980  176.2980  137.1440 N   0  0  0  0  0  2  0  0  0  0  0  0
  184.6140  178.1790  139.5390 C   0  0  0  0  0  0  0  0  0  0  0  0
  188.3720  175.9290  135.2820 C   0  0  0  0  0  2  0  0  0  0  0  0
  188.0290  176.8490  136.4020 C   0  0  2  0  0  3  0  0  0  0  0  0
  185.8830  178.5860  139.8010 N   0  0  0  0  0  0  0  0  0  0  0  0
  188.8970  178.0640  139.4020 C   0  0  0  0  0  0  0  0  0  0  0  0
  189.3330  176.8500  137.2230 C   0  0  2  0  0  3  0  0  0  0  0  0
  189.4840  175.3250  135.4470 N   0  0  0  0  0  2  0  0  0  0  0  0
  192.4560  175.7350  137.4880 N   0  0  0  0  0  1  0  0  0  0  0  0
  191.5890  176.1100  136.3830 C   0  0  1  0  0  3  0  0  0  0  0  0
  192.0940  175.4440  135.1170 C   0  0  0  0  0  1  0  0  0  0  0  0
  188.8040  176.9800  141.6780 C   0  0  0  0  0  2  0  0  0  0  0  0
  189.3780  177.4350  143.0090 C   0  0  0  0  0  2  0  0  0  0  0  0
  188.4460  177.6470  145.3810 C   0  0  0  0  0  0  0  0  0  0  0  0
  188.3080  177.7020  143.9560 N   0  0  0  0  0  2  0  0  0  0  0  0
  187.4020  177.7210  146.0820 O   0  0  0  0  0  0  0  0  0  0  0  0
  189.7360  177.5150  146.0220 N   0  0  0  0  0  0  0  0  0  0  0  0
  190.8610  177.7280  145.2980 O   0  0  0  0  0  1  0  0  0  0  0  0
  188.9000  176.0950  147.8460 C   0  0  0  0  0  1  0  0  0  0  0  0
  189.5140  178.4300  148.3090 C   0  0  0  0  0  1  0  0  0  0  0  0
  191.2780  176.8000  147.7990 C   0  0  0  0  0  1  0  0  0  0  0  0
  189.8540  177.2140  147.4610 C   0  0  0  0  0  0  0  0  0  0  0  0
  2 17  1  0  0  0  0
  3  2  1  0  0  0  0
  4 10  2  0  0  0  0
  5 25  1  6  0  0  0
  5 22  1  0  0  0  0
  6  2  2  0  0  0  0
  6  4  1  0  0  0  0
  7  1  1  0  0  0  0
  8 16  1  0  0  0  0
  8  3  1  0  0  0  0
  9 11  1  0  0  0  0
  9 27  1  0  0  0  0
 10 14  1  0  0  0  0
 12 21  2  0  0  0  0
 13 11  1  0  0  0  0
 13  1  2  0  0  0  0
 14  7  2  0  0  0  0
 15 21  1  0  0  0  0
 17 20  2  0  0  0  0
 17 14  1  0  0  0  0
 18 23  1  0  0  0  0
 19 18  1  6  0  0  0
 19 16  1  0  0  0  0
 19 22  1  0  0  0  0
 20 13  1  0  0  0  0
 21  9  1  0  0  0  0
 22 15  1  1  0  0  0
 23  5  1  0  0  0  0
 25 26  1  6  0  0  0
 25 24  1  0  0  0  0
 27 28  1  0  0  0  0
 28 30  1  0  0  0  0
 29 32  1  0  0  0  0
 29 31  2  0  0  0  0
 30 29  1  0  0  0  0
 32 37  1  0  0  0  0
 33 32  1  0  0  0  0
 37 36  1  0  0  0  0
 37 34  1  0  0  0  0
 37 35  1  0  0  0  0
M  END
>  <MODEL>
3

>  <REMARK>
 VINA RESULT:      -7.8      3.113      8.918
  Name = 
  5 active torsions:
  status: ('A' for Active; 'I' for Inactive)
    1  A    between atoms: C_7  and  C_9
    2  A    between atoms: N_13  and  C_34
    3  A    between atoms: N_14  and  C_25
    4  A    between atoms: C_22  and  N_36
    5  A    between atoms: C_25  and  C_34
                            x       y       z     vdW  Elec       q    Type
                         _______ _______ _______ _____ _____    ______ ____

>  <TORSDO>
F 5

$$$$
=
 OpenBabel10232411233D

 37 40  0  0  1  0  0  0  0  0999 V2000
  191.4430  177.1810  144.3620 C   0  0  0  0  0  3  0  0  0  0  0  0
  187.8460  177.9740  146.3220 C   0  0  0  0  0  0  0  0  0  0  0  0
  186.8650  178.8100  145.7080 N   0  0  0  0  0  2  0  0  0  0  0  0
  188.5790  176.5780  148.1520 C   0  0  0  0  0  3  0  0  0  0  0  0
  184.5350  178.3270  140.7640 C   0  0  1  0  0  3  0  0  0  0  0  0
  187.5980  177.3830  147.5650 C   0  0  0  0  0  3  0  0  0  0  0  0
  191.2220  176.6460  145.6360 C   0  0  0  0  0  3  0  0  0  0  0  0
  185.6020  178.2670  145.2390 C   0  0  0  0  0  2  0  0  0  0  0  0
  189.5110  178.0120  141.5630 N   0  0  0  0  0  0  0  0  0  0  0  0
  189.7630  176.3620  147.5150 N   0  0  0  0  0  0  0  0  0  0  0  0
  190.6220  178.4860  142.3820 C   0  0  0  0  0  2  0  0  0  0  0  0
  188.2430  179.9520  141.8510 O   0  0  0  0  0  0  0  0  0  0  0  0
  190.4620  177.9880  143.7780 C   0  0  0  0  0  0  0  0  0  0  0  0
  190.0240  176.9140  146.3010 C   0  0  0  0  0  0  0  0  0  0  0  0
  186.9690  177.9850  141.3250 C   0  0  0  0  0  2  0  0  0  0  0  0
  185.7350  177.8520  143.8470 N   0  0  0  0  0  2  0  0  0  0  0  0
  189.0680  177.7410  145.6840 C   0  0  0  0  0  0  0  0  0  0  0  0
  183.7610  178.7880  142.8460 C   0  0  0  0  0  2  0  0  0  0  0  0
  185.2330  178.9410  143.0140 C   0  0  2  0  0  3  0  0  0  0  0  0
  189.3120  178.2560  144.4510 N   0  0  0  0  0  0  0  0  0  0  0  0
  188.2580  178.7170  141.5890 C   0  0  0  0  0  0  0  0  0  0  0  0
  185.7290  178.8510  141.5580 C   0  0  2  0  0  3  0  0  0  0  0  0
  183.4190  178.4610  141.6610 N   0  0  0  0  0  2  0  0  0  0  0  0
  185.2640  178.8030  138.4770 N   0  0  0  0  0  1  0  0  0  0  0  0
  184.3030  179.1640  139.5060 C   0  0  1  0  0  3  0  0  0  0  0  0
  182.9030  178.9340  138.9690 C   0  0  0  0  0  1  0  0  0  0  0  0
  189.6140  176.6800  140.9790 C   0  0  0  0  0  2  0  0  0  0  0  0
  190.2110  176.7520  139.5830 C   0  0  0  0  0  2  0  0  0  0  0  0
  189.1670  178.0890  137.6690 C   0  0  0  0  0  0  0  0  0  0  0  0
  189.8320  177.9970  138.9360 N   0  0  0  0  0  2  0  0  0  0  0  0
  189.0580  179.2250  137.1380 O   0  0  0  0  0  0  0  0  0  0  0  0
  188.6240  176.9260  137.0020 N   0  0  0  0  0  0  0  0  0  0  0  0
  188.4810  175.7700  137.6950 O   0  0  0  0  0  1  0  0  0  0  0  0
  189.3210  177.3420  134.6820 C   0  0  0  0  0  1  0  0  0  0  0  0
  187.0820  178.0380  135.4210 C   0  0  0  0  0  1  0  0  0  0  0  0
  187.5800  175.6460  135.1800 C   0  0  0  0  0  1  0  0  0  0  0  0
  188.1640  176.9850  135.6020 C   0  0  0  0  0  0  0  0  0  0  0  0
  1  7  1  0  0  0  0
  2  6  2  0  0  0  0
  3  2  1  0  0  0  0
  5 25  1  6  0  0  0
  5 22  1  0  0  0  0
  5 23  1  0  0  0  0
  6  4  1  0  0  0  0
  7 14  2  0  0  0  0
  8  3  1  0  0  0  0
  9 21  1  0  0  0  0
  9 11  1  0  0  0  0
 10  4  2  0  0  0  0
 11 13  1  0  0  0  0
 13  1  2  0  0  0  0
 13 20  1  0  0  0  0
 14 10  1  0  0  0  0
 15 21  1  0  0  0  0
 16  8  1  0  0  0  0
 17 14  1  0  0  0  0
 17  2  1  0  0  0  0
 19 18  1  6  0  0  0
 19 16  1  0  0  0  0
 20 17  2  0  0  0  0
 21 12  2  0  0  0  0
 22 15  1  1  0  0  0
 22 19  1  0  0  0  0
 23 18  1  0  0  0  0
 24 25  1  0  0  0  0
 25 26  1  6  0  0  0
 27  9  1  0  0  0  0
 28 27  1  0  0  0  0
 29 30  1  0  0  0  0
 30 28  1  0  0  0  0
 31 29  2  0  0  0  0
 32 29  1  0  0  0  0
 32 33  1  0  0  0  0
 34 37  1  0  0  0  0
 35 37  1  0  0  0  0
 36 37  1  0  0  0  0
 37 32  1  0  0  0  0
M  END
>  <MODEL>
4

>  <REMARK>
 VINA RESULT:      -7.7      3.133      6.875
  Name = 
  5 active torsions:
  status: ('A' for Active; 'I' for Inactive)
    1  A    between atoms: C_7  and  C_9
    2  A    between atoms: N_13  and  C_34
    3  A    between atoms: N_14  and  C_25
    4  A    between atoms: C_22  and  N_36
    5  A    between atoms: C_25  and  C_34
                            x       y       z     vdW  Elec       q    Type
                         _______ _______ _______ _____ _____    ______ ____

>  <TORSDO>
F 5

$$$$
=
 OpenBabel10232411233D

 37 40  0  0  1  0  0  0  0  0999 V2000
  189.4230  177.3410  139.5500 C   0  0  0  0  0  3  0  0  0  0  0  0
  186.9350  178.1430  142.8020 C   0  0  0  0  0  0  0  0  0  0  0  0
  185.7190  178.8660  142.6130 N   0  0  0  0  0  2  0  0  0  0  0  0
  188.4890  176.9690  144.2320 C   0  0  0  0  0  3  0  0  0  0  0  0
  181.5710  177.7910  139.1860 C   0  0  1  0  0  3  0  0  0  0  0  0
  187.2870  177.6640  144.0690 C   0  0  0  0  0  3  0  0  0  0  0  0
  189.8070  176.9220  140.8290 C   0  0  0  0  0  3  0  0  0  0  0  0
  184.4280  178.2190  142.7670 C   0  0  0  0  0  2  0  0  0  0  0  0
  186.4260  177.8000  137.7980 N   0  0  0  0  0  0  0  0  0  0  0  0
  189.3070  176.7500  143.1660 N   0  0  0  0  0  0  0  0  0  0  0  0
  187.7350  178.4050  138.0290 C   0  0  0  0  0  2  0  0  0  0  0  0
  185.2370  179.6940  138.4710 O   0  0  0  0  0  0  0  0  0  0  0  0
  188.2220  178.0380  139.3900 C   0  0  0  0  0  0  0  0  0  0  0  0
  188.9830  177.1940  141.9230 C   0  0  0  0  0  0  0  0  0  0  0  0
  184.0350  177.6260  138.6730 C   0  0  0  0  0  2  0  0  0  0  0  0
  183.9960  177.6770  141.4830 N   0  0  0  0  0  2  0  0  0  0  0  0
  187.7880  177.9090  141.7200 C   0  0  0  0  0  0  0  0  0  0  0  0
  181.7120  178.4140  141.3630 C   0  0  0  0  0  2  0  0  0  0  0  0
  183.0980  178.6550  140.8740 C   0  0  2  0  0  3  0  0  0  0  0  0
  187.4450  178.3130  140.4700 N   0  0  0  0  0  0  0  0  0  0  0  0
  185.2460  178.4420  138.3100 C   0  0  0  0  0  0  0  0  0  0  0  0
  182.9390  178.4480  139.3560 C   0  0  2  0  0  3  0  0  0  0  0  0
  180.9310  177.9570  140.4630 N   0  0  0  0  0  2  0  0  0  0  0  0
  181.2820  179.8240  137.8540 N   0  0  0  0  0  1  0  0  0  0  0  0
  180.7590  178.4890  138.0950 C   0  0  1  0  0  3  0  0  0  0  0  0
  180.8220  177.6990  136.8020 C   0  0  0  0  0  1  0  0  0  0  0  0
  186.3870  176.4240  137.3170 C   0  0  0  0  0  2  0  0  0  0  0  0
  187.6470  176.0960  136.5320 C   0  0  0  0  0  2  0  0  0  0  0  0
  189.7090  174.6380  136.9350 C   0  0  0  0  0  0  0  0  0  0  0  0
  188.3220  174.9490  137.1170 N   0  0  0  0  0  2  0  0  0  0  0  0
  190.1260  173.5230  137.3450 O   0  0  0  0  0  0  0  0  0  0  0  0
  190.6260  175.5630  136.3050 N   0  0  0  0  0  0  0  0  0  0  0  0
  190.2530  176.8540  136.1340 O   0  0  0  0  0  1  0  0  0  0  0  0
  192.8810  175.0210  137.1220 C   0  0  0  0  0  1  0  0  0  0  0  0
  192.6130  176.1630  134.9610 C   0  0  0  0  0  1  0  0  0  0  0  0
  191.9320  173.8140  135.1740 C   0  0  0  0  0  1  0  0  0  0  0  0
  191.9830  175.1480  135.9010 C   0  0  0  0  0  0  0  0  0  0  0  0
  1  7  1  0  0  0  0
  2  6  2  0  0  0  0
  3  8  1  0  0  0  0
  3  2  1  0  0  0  0
  5 25  1  6  0  0  0
  5 22  1  0  0  0  0
  5 23  1  0  0  0  0
  6  4  1  0  0  0  0
  7 14  2  0  0  0  0
  9 11  1  0  0  0  0
  9 21  1  0  0  0  0
 10  4  2  0  0  0  0
 11 13  1  0  0  0  0
 13  1  2  0  0  0  0
 13 20  1  0  0  0  0
 14 10  1  0  0  0  0
 16  8  1  0  0  0  0
 17 14  1  0  0  0  0
 17  2  1  0  0  0  0
 19 18  1  1  0  0  0
 19 16  1  0  0  0  0
 20 17  2  0  0  0  0
 21 12  2  0  0  0  0
 21 15  1  0  0  0  0
 22 15  1  1  0  0  0
 22 19  1  0  0  0  0
 23 18  1  0  0  0  0
 24 25  1  0  0  0  0
 25 26  1  6  0  0  0
 27  9  1  0  0  0  0
 28 30  1  0  0  0  0
 28 27  1  0  0  0  0
 29 30  1  0  0  0  0
 29 31  2  0  0  0  0
 32 29  1  0  0  0  0
 33 32  1  0  0  0  0
 35 37  1  0  0  0  0
 36 37  1  0  0  0  0
 37 32  1  0  0  0  0
 37 34  1  0  0  0  0
M  END
>  <MODEL>
5

>  <REMARK>
 VINA RESULT:      -7.5      2.711      6.873
  Name = 
  5 active torsions:
  status: ('A' for Active; 'I' for Inactive)
    1  A    between atoms: C_7  and  C_9
    2  A    between atoms: N_13  and  C_34
    3  A    between atoms: N_14  and  C_25
    4  A    between atoms: C_22  and  N_36
    5  A    between atoms: C_25  and  C_34
                            x       y       z     vdW  Elec       q    Type
                         _______ _______ _______ _____ _____    ______ ____

>  <TORSDO>
F 5

$$$$
=
 OpenBabel10232411233D

 37 40  0  0  1  0  0  0  0  0999 V2000
  191.4730  177.1780  144.5480 C   0  0  0  0  0  3  0  0  0  0  0  0
  187.7790  178.0560  146.2780 C   0  0  0  0  0  0  0  0  0  0  0  0
  186.8370  178.8700  145.5810 N   0  0  0  0  0  2  0  0  0  0  0  0
  188.4060  176.7290  148.1980 C   0  0  0  0  0  3  0  0  0  0  0  0
  184.7740  178.2050  140.5400 C   0  0  1  0  0  3  0  0  0  0  0  0
  187.4620  177.5140  147.5280 C   0  0  0  0  0  3  0  0  0  0  0  0
  191.1810  176.6930  145.8270 C   0  0  0  0  0  3  0  0  0  0  0  0
  185.5980  178.3130  145.0650 C   0  0  0  0  0  2  0  0  0  0  0  0
  189.6990  177.9070  141.6180 N   0  0  0  0  0  0  0  0  0  0  0  0
  189.6210  176.4850  147.6340 N   0  0  0  0  0  0  0  0  0  0  0  0
  190.7660  178.4080  142.4780 C   0  0  0  0  0  2  0  0  0  0  0  0
  188.4260  179.8600  141.7640 O   0  0  0  0  0  0  0  0  0  0  0  0
  190.5280  177.9650  143.8810 C   0  0  0  0  0  0  0  0  0  0  0  0
  189.9500  176.9900  146.4160 C   0  0  0  0  0  0  0  0  0  0  0  0
  187.1730  177.8780  141.2450 C   0  0  0  0  0  2  0  0  0  0  0  0
  185.8040  177.8440  143.6990 N   0  0  0  0  0  2  0  0  0  0  0  0
  189.0320  177.7950  145.7170 C   0  0  0  0  0  0  0  0  0  0  0  0
  183.8910  178.7470  142.5590 C   0  0  0  0  0  2  0  0  0  0  0  0
  185.3530  178.9030  142.7990 C   0  0  2  0  0  3  0  0  0  0  0  0
  189.3450  178.2610  144.4800 N   0  0  0  0  0  0  0  0  0  0  0  0
  188.4490  178.6150  141.5500 C   0  0  0  0  0  0  0  0  0  0  0  0
  185.9260  178.7550  141.3770 C   0  0  2  0  0  3  0  0  0  0  0  0
  183.6120  178.3760  141.3700 N   0  0  0  0  0  2  0  0  0  0  0  0
  185.6990  178.6800  138.3250 N   0  0  0  0  0  1  0  0  0  0  0  0
  184.6140  178.9930  139.2410 C   0  0  1  0  0  3  0  0  0  0  0  0
  183.2960  178.6500  138.5730 C   0  0  0  0  0  1  0  0  0  0  0  0
  189.8260  176.5520  141.0920 C   0  0  0  0  0  2  0  0  0  0  0  0
  190.0650  176.5820  139.5910 C   0  0  0  0  0  2  0  0  0  0  0  0
  192.3330  176.3980  138.4250 C   0  0  0  0  0  0  0  0  0  0  0  0
  191.4080  177.0540  139.3030 N   0  0  0  0  0  2  0  0  0  0  0  0
  193.5230  176.8100  138.4030 O   0  0  0  0  0  0  0  0  0  0  0  0
  191.9350  175.2970  137.5760 N   0  0  0  0  0  0  0  0  0  0  0  0
  190.6160  175.0510  137.3840 O   0  0  0  0  0  1  0  0  0  0  0  0
  192.2780  173.2180  136.3100 C   0  0  0  0  0  1  0  0  0  0  0  0
  194.0560  174.0440  137.7940 C   0  0  0  0  0  1  0  0  0  0  0  0
  193.5510  175.2640  135.7230 C   0  0  0  0  0  1  0  0  0  0  0  0
  192.9310  174.4740  136.8650 C   0  0  0  0  0  0  0  0  0  0  0  0
  1  7  1  0  0  0  0
  2  6  2  0  0  0  0
  3  2  1  0  0  0  0
  5 25  1  6  0  0  0
  5 23  1  0  0  0  0
  5 22  1  0  0  0  0
  6  4  1  0  0  0  0
  7 14  2  0  0  0  0
  8  3  1  0  0  0  0
  9 11  1  0  0  0  0
 10  4  2  0  0  0  0
 11 13  1  0  0  0  0
 13 20  1  0  0  0  0
 13  1  2  0  0  0  0
 14 10  1  0  0  0  0
 15 21  1  0  0  0  0
 16  8  1  0  0  0  0
 17  2  1  0  0  0  0
 17 14  1  0  0  0  0
 19 18  1  6  0  0  0
 19 16  1  0  0  0  0
 20 17  2  0  0  0  0
 21  9  1  0  0  0  0
 21 12  2  0  0  0  0
 22 15  1  1  0  0  0
 22 19  1  0  0  0  0
 23 18  1  0  0  0  0
 24 25  1  0  0  0  0
 25 26  1  6  0  0  0
 27  9  1  0  0  0  0
 28 27  1  0  0  0  0
 29 30  1  0  0  0  0
 30 28  1  0  0  0  0
 31 29  2  0  0  0  0
 32 29  1  0  0  0  0
 33 32  1  0  0  0  0
 34 37  1  0  0  0  0
 36 37  1  0  0  0  0
 37 32  1  0  0  0  0
 37 35  1  0  0  0  0
M  END
>  <MODEL>
6

>  <REMARK>
 VINA RESULT:      -7.5      3.460      8.004
  Name = 
  5 active torsions:
  status: ('A' for Active; 'I' for Inactive)
    1  A    between atoms: C_7  and  C_9
    2  A    between atoms: N_13  and  C_34
    3  A    between atoms: N_14  and  C_25
    4  A    between atoms: C_22  and  N_36
    5  A    between atoms: C_25  and  C_34
                            x       y       z     vdW  Elec       q    Type
                         _______ _______ _______ _____ _____    ______ ____

>  <TORSDO>
F 5

$$$$
=
 OpenBabel10232411233D

 37 40  0  0  1  0  0  0  0  0999 V2000
  185.6210  178.3420  146.1700 C   0  0  0  0  0  3  0  0  0  0  0  0
  189.6210  177.3180  146.7700 C   0  0  0  0  0  0  0  0  0  0  0  0
  190.3350  176.5990  145.7640 N   0  0  0  0  0  2  0  0  0  0  0  0
  189.5390  178.4120  148.9220 C   0  0  0  0  0  3  0  0  0  0  0  0
  191.0280  177.8540  140.4680 C   0  0  1  0  0  3  0  0  0  0  0  0
  190.2620  177.7190  147.9470 C   0  0  0  0  0  3  0  0  0  0  0  0
  186.2440  178.6830  147.3760 C   0  0  0  0  0  3  0  0  0  0  0  0
  191.4060  177.2250  145.0100 C   0  0  0  0  0  2  0  0  0  0  0  0
  186.5590  177.9710  142.8170 N   0  0  0  0  0  0  0  0  0  0  0  0
  188.2240  178.7040  148.7260 N   0  0  0  0  0  0  0  0  0  0  0  0
  185.7430  177.3630  143.8630 C   0  0  0  0  0  2  0  0  0  0  0  0
  187.7900  176.0290  142.4060 O   0  0  0  0  0  0  0  0  0  0  0  0
  186.3450  177.6470  145.1970 C   0  0  0  0  0  0  0  0  0  0  0  0
  187.5800  178.3360  147.5860 C   0  0  0  0  0  0  0  0  0  0  0  0
  188.9010  178.0710  141.8050 C   0  0  0  0  0  2  0  0  0  0  0  0
  190.8610  177.8430  143.8060 N   0  0  0  0  0  2  0  0  0  0  0  0
  188.2700  177.6260  146.5860 C   0  0  0  0  0  0  0  0  0  0  0  0
  192.3950  177.0970  142.1130 C   0  0  0  0  0  2  0  0  0  0  0  0
  191.0440  176.8980  142.7070 C   0  0  2  0  0  3  0  0  0  0  0  0
  187.6380  177.2990  145.4300 N   0  0  0  0  0  0  0  0  0  0  0  0
  187.7350  177.2890  142.3470 C   0  0  0  0  0  0  0  0  0  0  0  0
  190.1230  177.1990  141.5090 C   0  0  2  0  0  3  0  0  0  0  0  0
  192.3620  177.6040  140.9420 N   0  0  0  0  0  2  0  0  0  0  0  0
  190.4820  175.8150  139.2300 N   0  0  0  0  0  1  0  0  0  0  0  0
  190.8300  177.2200  139.0920 C   0  0  1  0  0  3  0  0  0  0  0  0
  189.7180  177.9270  138.3390 C   0  0  0  0  0  1  0  0  0  0  0  0
  186.3240  179.3740  142.4980 C   0  0  0  0  0  2  0  0  0  0  0  0
  185.0130  179.5380  141.7450 C   0  0  0  0  0  2  0  0  0  0  0  0
  184.3330  178.6350  139.4510 C   0  0  0  0  0  0  0  0  0  0  0  0
  185.2230  179.3480  140.3200 N   0  0  0  0  0  2  0  0  0  0  0  0
  184.7190  178.3870  138.2790 O   0  0  0  0  0  0  0  0  0  0  0  0
  183.0210  178.2060  139.8840 N   0  0  0  0  0  0  0  0  0  0  0  0
  182.4980  178.7180  141.0240 O   0  0  0  0  0  1  0  0  0  0  0  0
  181.8510  177.8980  137.7440 C   0  0  0  0  0  1  0  0  0  0  0  0
  180.9180  176.9070  139.7910 C   0  0  0  0  0  1  0  0  0  0  0  0
  182.9820  175.9810  138.8380 C   0  0  0  0  0  1  0  0  0  0  0  0
  182.2120  177.2690  139.0800 C   0  0  0  0  0  0  0  0  0  0  0  0
  1  7  1  0  0  0  0
  2  6  2  0  0  0  0
  3  2  1  0  0  0  0
  5 25  1  6  0  0  0
  5 23  1  0  0  0  0
  5 22  1  0  0  0  0
  6  4  1  0  0  0  0
  7 14  2  0  0  0  0
  8  3  1  0  0  0  0
  9 11  1  0  0  0  0
 10  4  2  0  0  0  0
 11 13  1  0  0  0  0
 13 20  1  0  0  0  0
 13  1  2  0  0  0  0
 14 10  1  0  0  0  0
 15 21  1  0  0  0  0
 16  8  1  0  0  0  0
 17  2  1  0  0  0  0
 17 14  1  0  0  0  0
 19 18  1  6  0  0  0
 19 16  1  0  0  0  0
 20 17  2  0  0  0  0
 21 12  2  0  0  0  0
 21  9  1  0  0  0  0
 22 15  1  1  0  0  0
 22 19  1  0  0  0  0
 23 18  1  0  0  0  0
 25 26  1  1  0  0  0
 25 24  1  0  0  0  0
 27  9  1  0  0  0  0
 28 27  1  0  0  0  0
 29 32  1  0  0  0  0
 29 30  1  0  0  0  0
 30 28  1  0  0  0  0
 31 29  2  0  0  0  0
 32 33  1  0  0  0  0
 34 37  1  0  0  0  0
 36 37  1  0  0  0  0
 37 35  1  0  0  0  0
 37 32  1  0  0  0  0
M  END
>  <MODEL>
7

>  <REMARK>
 VINA RESULT:      -7.3      2.432      6.558
  Name = 
  5 active torsions:
  status: ('A' for Active; 'I' for Inactive)
    1  A    between atoms: C_7  and  C_9
    2  A    between atoms: N_13  and  C_34
    3  A    between atoms: N_14  and  C_25
    4  A    between atoms: C_22  and  N_36
    5  A    between atoms: C_25  and  C_34
                            x       y       z     vdW  Elec       q    Type
                         _______ _______ _______ _____ _____    ______ ____

>  <TORSDO>
F 5

$$$$
=
 OpenBabel10232411233D

 37 40  0  0  1  0  0  0  0  0999 V2000
  189.4320  177.3250  139.5430 C   0  0  0  0  0  3  0  0  0  0  0  0
  186.9670  178.1400  142.8090 C   0  0  0  0  0  0  0  0  0  0  0  0
  185.7490  178.8610  142.6250 N   0  0  0  0  0  2  0  0  0  0  0  0
  188.5340  176.9760  144.2340 C   0  0  0  0  0  3  0  0  0  0  0  0
  181.5770  177.7620  139.2350 C   0  0  1  0  0  3  0  0  0  0  0  0
  187.3290  177.6690  144.0760 C   0  0  0  0  0  3  0  0  0  0  0  0
  189.8260  176.9130  140.8210 C   0  0  0  0  0  3  0  0  0  0  0  0
  184.4600  178.2120  142.7920 C   0  0  0  0  0  2  0  0  0  0  0  0
  186.4220  177.7710  137.8100 N   0  0  0  0  0  0  0  0  0  0  0  0
  189.3440  176.7520  143.1620 N   0  0  0  0  0  0  0  0  0  0  0  0
  187.7310  178.3790  138.0290 C   0  0  0  0  0  2  0  0  0  0  0  0
  185.2350  179.6670  138.4830 O   0  0  0  0  0  0  0  0  0  0  0  0
  188.2280  178.0200  139.3880 C   0  0  0  0  0  0  0  0  0  0  0  0
  189.0100  177.1900  141.9190 C   0  0  0  0  0  0  0  0  0  0  0  0
  184.0370  177.5980  138.7040 C   0  0  0  0  0  2  0  0  0  0  0  0
  184.0190  177.6630  141.5140 N   0  0  0  0  0  2  0  0  0  0  0  0
  187.8130  177.9030  141.7220 C   0  0  0  0  0  0  0  0  0  0  0  0
  181.7330  178.3960  141.4080 C   0  0  0  0  0  2  0  0  0  0  0  0
  183.1150  178.6370  140.9070 C   0  0  2  0  0  3  0  0  0  0  0  0
  187.4590  178.2990  140.4730 N   0  0  0  0  0  0  0  0  0  0  0  0
  185.2440  178.4140  138.3290 C   0  0  0  0  0  0  0  0  0  0  0  0
  182.9450  178.4220  139.3910 C   0  0  2  0  0  3  0  0  0  0  0  0
  180.9460  177.9330  140.5160 N   0  0  0  0  0  2  0  0  0  0  0  0
  181.3030  179.7700  137.8620 N   0  0  0  0  0  1  0  0  0  0  0  0
  180.7560  178.4540  138.1460 C   0  0  1  0  0  3  0  0  0  0  0  0
  180.7710  177.6320  136.8710 C   0  0  0  0  0  1  0  0  0  0  0  0
  186.3810  176.3930  137.3370 C   0  0  0  0  0  2  0  0  0  0  0  0
  185.9870  176.3420  135.8690 C   0  0  0  0  0  2  0  0  0  0  0  0
  185.2860  173.9330  135.3760 C   0  0  0  0  0  0  0  0  0  0  0  0
  186.2250  175.0150  135.3280 N   0  0  0  0  0  2  0  0  0  0  0  0
  185.6820  172.7880  135.0340 O   0  0  0  0  0  0  0  0  0  0  0  0
  183.9150  174.1260  135.7960 N   0  0  0  0  0  0  0  0  0  0  0  0
  183.4180  175.3840  135.8780 O   0  0  0  0  0  1  0  0  0  0  0  0
  183.7320  171.9750  136.9710 C   0  0  0  0  0  1  0  0  0  0  0  0
  182.6250  172.2690  134.7950 C   0  0  0  0  0  1  0  0  0  0  0  0
  181.7540  173.4570  136.7590 C   0  0  0  0  0  1  0  0  0  0  0  0
  183.0270  172.9820  136.0770 C   0  0  0  0  0  0  0  0  0  0  0  0
  1  7  1  0  0  0  0
  2  6  2  0  0  0  0
  3  8  1  0  0  0  0
  3  2  1  0  0  0  0
  5 25  1  6  0  0  0
  5 22  1  0  0  0  0
  5 23  1  0  0  0  0
  6  4  1  0  0  0  0
  7 14  2  0  0  0  0
  9 11  1  0  0  0  0
  9 21  1  0  0  0  0
 10  4  2  0  0  0  0
 11 13  1  0  0  0  0
 13  1  2  0  0  0  0
 13 20  1  0  0  0  0
 14 10  1  0  0  0  0
 16  8  1  0  0  0  0
 17 14  1  0  0  0  0
 17  2  1  0  0  0  0
 19 18  1  1  0  0  0
 19 16  1  0  0  0  0
 20 17  2  0  0  0  0
 21 12  2  0  0  0  0
 21 15  1  0  0  0  0
 22 15  1  1  0  0  0
 22 19  1  0  0  0  0
 23 18  1  0  0  0  0
 24 25  1  0  0  0  0
 25 26  1  6  0  0  0
 27  9  1  0  0  0  0
 28 27  1  0  0  0  0
 29 32  1  0  0  0  0
 30 29  1  0  0  0  0
 30 28  1  0  0  0  0
 31 29  2  0  0  0  0
 32 33  1  0  0  0  0
 32 37  1  0  0  0  0
 35 37  1  0  0  0  0
 37 36  1  0  0  0  0
 37 34  1  0  0  0  0
M  END
>  <MODEL>
8

>  <REMARK>
 VINA RESULT:      -7.1      2.039      5.284
  Name = 
  5 active torsions:
  status: ('A' for Active; 'I' for Inactive)
    1  A    between atoms: C_7  and  C_9
    2  A    between atoms: N_13  and  C_34
    3  A    between atoms: N_14  and  C_25
    4  A    between atoms: C_22  and  N_36
    5  A    between atoms: C_25  and  C_34
                            x       y       z     vdW  Elec       q    Type
                         _______ _______ _______ _____ _____    ______ ____

>  <TORSDO>
F 5

$$$$
=
 OpenBabel10232411233D

 37 40  0  0  1  0  0  0  0  0999 V2000
  184.8060  176.4900  137.4100 C   0  0  0  0  0  3  0  0  0  0  0  0
  186.3230  173.0910  135.5240 C   0  0  0  0  0  0  0  0  0  0  0  0
  187.6200  173.1210  134.9290 N   0  0  0  0  0  2  0  0  0  0  0  0
  184.2910  171.9140  136.0940 C   0  0  0  0  0  3  0  0  0  0  0  0
  192.4210  174.5000  137.2000 C   0  0  1  0  0  3  0  0  0  0  0  0
  185.5640  171.9160  135.5150 C   0  0  0  0  0  3  0  0  0  0  0  0
  184.0200  175.3340  137.3400 C   0  0  0  0  0  3  0  0  0  0  0  0
  188.7230  172.3610  135.4920 C   0  0  0  0  0  2  0  0  0  0  0  0
  188.2140  177.2600  137.6380 N   0  0  0  0  0  0  0  0  0  0  0  0
  183.7970  173.0440  136.6710 N   0  0  0  0  0  0  0  0  0  0  0  0
  186.9790  177.6680  136.9770 C   0  0  0  0  0  2  0  0  0  0  0  0
  189.3780  176.9260  135.6410 O   0  0  0  0  0  0  0  0  0  0  0  0
  186.0780  176.4900  136.8290 C   0  0  0  0  0  0  0  0  0  0  0  0
  184.5190  174.1960  136.7040 C   0  0  0  0  0  0  0  0  0  0  0  0
  190.2100  175.6730  137.5130 C   0  0  0  0  0  2  0  0  0  0  0  0
  189.4390  173.1830  136.4610 N   0  0  0  0  0  2  0  0  0  0  0  0
  185.7980  174.2410  136.1200 C   0  0  0  0  0  0  0  0  0  0  0  0
  191.7320  172.8210  135.8400 C   0  0  0  0  0  2  0  0  0  0  0  0
  190.5870  173.7710  135.7750 C   0  0  2  0  0  3  0  0  0  0  0  0
  186.5350  175.3790  136.1940 N   0  0  0  0  0  0  0  0  0  0  0  0
  189.2650  176.6500  136.8680 C   0  0  0  0  0  0  0  0  0  0  0  0
  191.1520  174.9990  136.5130 C   0  0  2  0  0  3  0  0  0  0  0  0
  192.6780  173.2210  136.5960 N   0  0  0  0  0  2  0  0  0  0  0  0
  193.6390  176.4770  137.9730 N   0  0  0  0  0  1  0  0  0  0  0  0
  193.5920  175.4490  136.9470 C   0  0  1  0  0  3  0  0  0  0  0  0
  194.9030  174.6850  136.9600 C   0  0  0  0  0  1  0  0  0  0  0  0
  188.2240  177.2120  139.0960 C   0  0  0  0  0  2  0  0  0  0  0  0
  189.1150  178.3060  139.6610 C   0  0  0  0  0  2  0  0  0  0  0  0
  190.8210  177.6130  141.4360 C   0  0  0  0  0  0  0  0  0  0  0  0
  190.3930  177.7520  140.0750 N   0  0  0  0  0  2  0  0  0  0  0  0
  192.0180  177.2880  141.6510 O   0  0  0  0  0  0  0  0  0  0  0  0
  189.9220  177.8310  142.5480 N   0  0  0  0  0  0  0  0  0  0  0  0
  188.5870  177.8900  142.3200 O   0  0  0  0  0  1  0  0  0  0  0  0
  191.2270  176.6920  144.2920 C   0  0  0  0  0  1  0  0  0  0  0  0
  189.2720  178.0410  144.9250 C   0  0  0  0  0  1  0  0  0  0  0  0
  191.2920  179.1640  144.0960 C   0  0  0  0  0  1  0  0  0  0  0  0
  190.4200  177.9290  143.9340 C   0  0  0  0  0  0  0  0  0  0  0  0
  2 17  1  0  0  0  0
  3  8  1  0  0  0  0
  3  2  1  0  0  0  0
  4 10  2  0  0  0  0
  5 25  1  6  0  0  0
  6  2  2  0  0  0  0
  6  4  1  0  0  0  0
  7  1  1  0  0  0  0
  8 16  1  0  0  0  0
  9 27  1  0  0  0  0
 10 14  1  0  0  0  0
 11  9  1  0  0  0  0
 12 21  2  0  0  0  0
 13 11  1  0  0  0  0
 13  1  2  0  0  0  0
 14  7  2  0  0  0  0
 17 20  2  0  0  0  0
 17 14  1  0  0  0  0
 18 23  1  0  0  0  0
 19 18  1  1  0  0  0
 19 16  1  0  0  0  0
 19 22  1  0  0  0  0
 20 13  1  0  0  0  0
 21 15  1  0  0  0  0
 21  9  1  0  0  0  0
 22  5  1  0  0  0  0
 22 15  1  1  0  0  0
 23  5  1  0  0  0  0
 25 26  1  1  0  0  0
 25 24  1  0  0  0  0
 27 28  1  0  0  0  0
 28 30  1  0  0  0  0
 29 31  2  0  0  0  0
 29 32  1  0  0  0  0
 30 29  1  0  0  0  0
 32 37  1  0  0  0  0
 33 32  1  0  0  0  0
 37 36  1  0  0  0  0
 37 34  1  0  0  0  0
 37 35  1  0  0  0  0
M  END
>  <MODEL>
9

>  <REMARK>
 VINA RESULT:      -7.1      3.681      9.014
  Name = 
  5 active torsions:
  status: ('A' for Active; 'I' for Inactive)
    1  A    between atoms: C_7  and  C_9
    2  A    between atoms: N_13  and  C_34
    3  A    between atoms: N_14  and  C_25
    4  A    between atoms: C_22  and  N_36
    5  A    between atoms: C_25  and  C_34
                            x       y       z     vdW  Elec       q    Type
                         _______ _______ _______ _____ _____    ______ ____

>  <TORSDO>
F 5

$$$$
