=
 OpenBabel10232408233D

 30 33  0  0  1  0  0  0  0  0999 V2000
  189.5830  177.2450  141.3840 C   0  0  0  0  0  0  0  0  0  0  0  0
  188.3320  177.5600  141.5840 N   0  0  0  0  0  0  0  0  0  0  0  0
  187.5990  177.2880  137.2240 C   0  0  0  0  0  1  0  0  0  0  0  0
  190.2150  177.5940  140.0700 C   0  0  1  0  0  3  0  0  0  0  0  0
  189.5450  175.8350  137.8850 C   0  0  0  0  0  0  0  0  0  0  0  0
  189.2200  174.9560  136.9930 N   0  0  0  0  0  2  0  0  0  0  0  0
  191.0990  176.4690  139.5920 C   0  0  0  0  0  3  0  0  0  0  0  0
  188.6240  179.1040  139.1230 O   0  0  0  0  0  0  0  0  0  0  0  0
  188.7610  177.0220  138.0640 N   0  0  0  0  0  0  0  0  0  0  0  0
  190.7590  175.6700  138.6250 N   0  0  0  0  0  0  0  0  0  0  0  0
  189.1680  177.9690  139.0590 C   0  0  0  0  0  0  0  0  0  0  0  0
  187.4910  177.9850  145.2880 C   0  0  1  0  0  3  0  0  0  0  0  0
  188.2590  178.1070  143.9620 C   0  0  0  0  0  2  0  0  0  0  0  0
  185.3170  177.6730  146.2910 O   0  0  0  0  0  1  0  0  0  0  0  0
  186.1430  177.8600  142.6050 C   0  0  0  0  0  2  0  0  0  0  0  0
  187.5770  177.3600  142.8130 C   0  0  1  0  0  3  0  0  0  0  0  0
  186.0540  177.4620  145.1240 C   0  0  1  0  0  3  0  0  0  0  0  0
  185.3540  178.0870  143.9040 C   0  0  1  0  0  3  0  0  0  0  0  0
  185.1090  179.5850  144.0770 C   0  0  0  0  0  2  0  0  0  0  0  0
  183.6470  179.8870  144.1550 C   0  0  0  0  0  3  0  0  0  0  0  0
  182.7850  178.9410  144.0960 N   0  0  0  0  0  2  0  0  0  0  0  0
  188.2820  177.1920  146.3260 C   0  0  0  0  0  2  0  0  0  0  0  0
  189.6720  177.7640  146.5530 C   0  0  0  0  0  3  0  0  0  0  0  0
  189.9420  177.8310  148.0410 C   0  0  0  0  0  2  0  0  0  0  0  0
  190.5380  176.7120  147.2150 C   0  0  0  0  0  2  0  0  0  0  0  0
  191.4870  177.0560  143.1150 C   0  0  0  0  0  3  0  0  0  0  0  0
  191.1330  175.0020  143.6620 N   0  0  0  0  0  0  0  0  0  0  0  0
  190.2520  175.3110  142.7600 O   0  0  0  0  0  0  0  0  0  0  0  0
  191.9080  176.0480  143.9040 N   0  0  0  0  0  0  0  0  0  0  0  0
  190.4250  176.5550  142.3870 C   0  0  0  0  0  0  0  0  0  0  0  0
  1  2  2  0  0  0  0
  1 30  1  0  0  0  0
  3  9  1  0  0  0  0
  4  1  1  1  0  0  0
  5  9  1  0  0  0  0
  5 10  1  0  0  0  0
  6  5  2  0  0  0  0
  7  4  1  0  0  0  0
  9 11  1  0  0  0  0
 10  7  2  0  0  0  0
 11  8  2  0  0  0  0
 11  4  1  0  0  0  0
 12 22  1  1  0  0  0
 13 12  1  0  0  0  0
 15 16  1  0  0  0  0
 15 18  1  0  0  0  0
 16  2  1  6  0  0  0
 16 13  1  0  0  0  0
 17 12  1  0  0  0  0
 17 14  1  1  0  0  0
 18 19  1  1  0  0  0
 18 17  1  0  0  0  0
 19 20  1  0  0  0  0
 21 20  2  0  0  0  0
 22 23  1  0  0  0  0
 23 25  1  0  0  0  0
 23 24  1  0  0  0  0
 25 24  1  0  0  0  0
 26 29  1  0  0  0  0
 27 29  2  0  0  0  0
 28 27  1  0  0  0  0
 30 28  1  0  0  0  0
 30 26  2  0  0  0  0
M  END
>  <MODEL>
1

>  <REMARK>
 VINA RESULT:      -8.0      0.000      0.000
  Name = 
  7 active torsions:
  status: ('A' for Active; 'I' for Inactive)
    1  A    between atoms: C_2  and  C_22
    2  A    between atoms: C_3  and  C_4
    3  A    between atoms: C_3  and  C_28
    4  A    between atoms: C_5  and  C_22
    5  A    between atoms: C_8  and  C_10
    6  A    between atoms: C_10  and  C_29
    7  A    between atoms: C_18  and  N_21
                            x       y       z     vdW  Elec       q    Type
                         _______ _______ _______ _____ _____    ______ ____

>  <TORSDO>
F 7

$$$$
=
 OpenBabel10232408233D

 30 33  0  0  1  0  0  0  0  0999 V2000
  188.0920  178.2570  139.8670 C   0  0  0  0  0  0  0  0  0  0  0  0
  188.9950  178.0250  140.7810 N   0  0  0  0  0  0  0  0  0  0  0  0
  187.9240  174.3190  137.4800 C   0  0  0  0  0  1  0  0  0  0  0  0
  188.4470  178.0420  138.4270 C   0  0  1  0  0  3  0  0  0  0  0  0
  190.0040  175.6740  137.8910 C   0  0  0  0  0  0  0  0  0  0  0  0
  190.7420  174.6190  137.7730 N   0  0  0  0  0  2  0  0  0  0  0  0
  189.9440  178.0410  138.2460 C   0  0  0  0  0  3  0  0  0  0  0  0
  186.5770  176.7930  137.6210 O   0  0  0  0  0  0  0  0  0  0  0  0
  188.5780  175.5880  137.7720 N   0  0  0  0  0  0  0  0  0  0  0  0
  190.6270  176.9550  138.0360 N   0  0  0  0  0  0  0  0  0  0  0  0
  187.8050  176.7880  137.9020 C   0  0  0  0  0  0  0  0  0  0  0  0
  187.8450  176.8890  144.2440 C   0  0  1  0  0  3  0  0  0  0  0  0
  188.0380  176.8900  142.7190 C   0  0  0  0  0  2  0  0  0  0  0  0
  188.7620  177.6250  146.3530 O   0  0  0  0  0  1  0  0  0  0  0  0
  190.1830  178.2110  142.8970 C   0  0  0  0  0  2  0  0  0  0  0  0
  188.8100  178.1150  142.2220 C   0  0  1  0  0  3  0  0  0  0  0  0
  188.7470  177.8920  144.9820 C   0  0  1  0  0  3  0  0  0  0  0  0
  190.1730  177.9110  144.4040 C   0  0  1  0  0  3  0  0  0  0  0  0
  190.9200  176.6010  144.6510 C   0  0  0  0  0  2  0  0  0  0  0  0
  191.8570  176.7230  145.8090 C   0  0  0  0  0  3  0  0  0  0  0  0
  191.8300  175.8630  146.7580 N   0  0  0  0  0  2  0  0  0  0  0  0
  186.3750  177.0400  144.6260 C   0  0  0  0  0  2  0  0  0  0  0  0
  186.0170  178.4720  144.9910 C   0  0  0  0  0  3  0  0  0  0  0  0
  184.5260  178.6680  144.8180 C   0  0  0  0  0  2  0  0  0  0  0  0
  185.1050  178.4620  146.2000 C   0  0  0  0  0  2  0  0  0  0  0  0
  186.1320  178.9280  141.4060 C   0  0  0  0  0  3  0  0  0  0  0  0
  184.7430  179.4450  139.8410 N   0  0  0  0  0  0  0  0  0  0  0  0
  185.8390  179.0600  139.2630 O   0  0  0  0  0  0  0  0  0  0  0  0
  184.8860  179.3770  141.1560 N   0  0  0  0  0  0  0  0  0  0  0  0
  186.7210  178.7270  140.1720 C   0  0  0  0  0  0  0  0  0  0  0  0
  1 30  1  0  0  0  0
  1  2  2  0  0  0  0
  3  9  1  0  0  0  0
  4  1  1  1  0  0  0
  5 10  1  0  0  0  0
  6  5  2  0  0  0  0
  7  4  1  0  0  0  0
  8 11  2  0  0  0  0
  9  5  1  0  0  0  0
  9 11  1  0  0  0  0
 10  7  2  0  0  0  0
 11  4  1  0  0  0  0
 12 22  1  6  0  0  0
 12 17  1  0  0  0  0
 13 12  1  0  0  0  0
 15 18  1  0  0  0  0
 16  2  1  6  0  0  0
 16 13  1  0  0  0  0
 16 15  1  0  0  0  0
 17 14  1  1  0  0  0
 18 19  1  6  0  0  0
 18 17  1  0  0  0  0
 19 20  1  0  0  0  0
 20 21  2  0  0  0  0
 22 23  1  0  0  0  0
 23 25  1  0  0  0  0
 24 23  1  0  0  0  0
 24 25  1  0  0  0  0
 27 29  2  0  0  0  0
 28 27  1  0  0  0  0
 28 30  1  0  0  0  0
 29 26  1  0  0  0  0
 30 26  2  0  0  0  0
M  END
>  <MODEL>
2

>  <REMARK>
 VINA RESULT:      -7.6      2.078      4.776
  Name = 
  7 active torsions:
  status: ('A' for Active; 'I' for Inactive)
    1  A    between atoms: C_2  and  C_22
    2  A    between atoms: C_3  and  C_4
    3  A    between atoms: C_3  and  C_28
    4  A    between atoms: C_5  and  C_22
    5  A    between atoms: C_8  and  C_10
    6  A    between atoms: C_10  and  C_29
    7  A    between atoms: C_18  and  N_21
                            x       y       z     vdW  Elec       q    Type
                         _______ _______ _______ _____ _____    ______ ____

>  <TORSDO>
F 7

$$$$
=
 OpenBabel10232408233D

 30 33  0  0  1  0  0  0  0  0999 V2000
  188.4460  178.0560  140.9640 C   0  0  0  0  0  0  0  0  0  0  0  0
  187.2070  178.2840  140.6220 N   0  0  0  0  0  0  0  0  0  0  0  0
  188.3950  176.7220  136.5540 C   0  0  0  0  0  1  0  0  0  0  0  0
  189.5250  178.2370  139.9390 C   0  0  1  0  0  3  0  0  0  0  0  0
  190.0410  175.9310  138.2860 C   0  0  0  0  0  0  0  0  0  0  0  0
  190.2230  174.8250  137.6400 N   0  0  0  0  0  2  0  0  0  0  0  0
  190.6510  177.2640  140.1790 C   0  0  0  0  0  3  0  0  0  0  0  0
  188.3120  179.0990  138.0690 O   0  0  0  0  0  0  0  0  0  0  0  0
  189.1210  176.9190  137.8020 N   0  0  0  0  0  0  0  0  0  0  0  0
  190.8440  176.2140  139.4370 N   0  0  0  0  0  0  0  0  0  0  0  0
  188.9610  178.1310  138.5500 C   0  0  0  0  0  0  0  0  0  0  0  0
  184.6030  179.6090  143.0850 C   0  0  1  0  0  3  0  0  0  0  0  0
  185.8450  179.5790  142.1810 C   0  0  0  0  0  2  0  0  0  0  0  0
  182.4030  178.6850  143.4540 O   0  0  0  0  0  1  0  0  0  0  0  0
  184.8140  177.8410  140.6660 C   0  0  0  0  0  2  0  0  0  0  0  0
  186.0440  178.2240  141.4960 C   0  0  1  0  0  3  0  0  0  0  0  0
  183.6370  178.4360  142.8500 C   0  0  1  0  0  3  0  0  0  0  0  0
  183.4700  178.1270  141.3510 C   0  0  1  0  0  3  0  0  0  0  0  0
  182.7610  179.2520  140.5990 C   0  0  0  0  0  2  0  0  0  0  0  0
  183.3730  179.4720  139.2540 C   0  0  0  0  0  3  0  0  0  0  0  0
  183.8800  180.6100  138.9500 N   0  0  0  0  0  2  0  0  0  0  0  0
  184.9810  179.7630  144.5570 C   0  0  0  0  0  2  0  0  0  0  0  0
  184.9910  178.4320  145.2930 C   0  0  0  0  0  3  0  0  0  0  0  0
  186.4220  178.0530  145.6100 C   0  0  0  0  0  2  0  0  0  0  0  0
  185.5400  178.6430  146.6880 C   0  0  0  0  0  2  0  0  0  0  0  0
  188.6690  176.3950  142.9260 C   0  0  0  0  0  3  0  0  0  0  0  0
  189.7320  177.7140  144.2590 N   0  0  0  0  0  0  0  0  0  0  0  0
  189.5060  178.3800  143.1680 O   0  0  0  0  0  0  0  0  0  0  0  0
  189.2330  176.4920  144.1460 N   0  0  0  0  0  0  0  0  0  0  0  0
  188.8550  177.6230  142.3200 C   0  0  0  0  0  0  0  0  0  0  0  0
  1 30  1  0  0  0  0
  2  1  2  0  0  0  0
  3  9  1  0  0  0  0
  4  7  1  0  0  0  0
  4  1  1  1  0  0  0
  5 10  1  0  0  0  0
  6  5  2  0  0  0  0
  8 11  2  0  0  0  0
  9  5  1  0  0  0  0
  9 11  1  0  0  0  0
 10  7  2  0  0  0  0
 11  4  1  0  0  0  0
 12 22  1  1  0  0  0
 13 12  1  0  0  0  0
 15 18  1  0  0  0  0
 15 16  1  0  0  0  0
 16  2  1  6  0  0  0
 16 13  1  0  0  0  0
 17 12  1  0  0  0  0
 17 14  1  6  0  0  0
 18 19  1  6  0  0  0
 18 17  1  0  0  0  0
 20 19  1  0  0  0  0
 21 20  2  0  0  0  0
 22 23  1  0  0  0  0
 23 24  1  0  0  0  0
 23 25  1  0  0  0  0
 24 25  1  0  0  0  0
 26 29  1  0  0  0  0
 28 27  1  0  0  0  0
 29 27  2  0  0  0  0
 30 26  2  0  0  0  0
 30 28  1  0  0  0  0
M  END
>  <MODEL>
3

>  <REMARK>
 VINA RESULT:      -7.3      2.335      3.127
  Name = 
  7 active torsions:
  status: ('A' for Active; 'I' for Inactive)
    1  A    between atoms: C_2  and  C_22
    2  A    between atoms: C_3  and  C_4
    3  A    between atoms: C_3  and  C_28
    4  A    between atoms: C_5  and  C_22
    5  A    between atoms: C_8  and  C_10
    6  A    between atoms: C_10  and  C_29
    7  A    between atoms: C_18  and  N_21
                            x       y       z     vdW  Elec       q    Type
                         _______ _______ _______ _____ _____    ______ ____

>  <TORSDO>
F 7

$$$$
=
 OpenBabel10232408233D

 30 33  0  0  1  0  0  0  0  0999 V2000
  189.9520  177.6550  141.5250 C   0  0  0  0  0  0  0  0  0  0  0  0
  189.0000  178.4430  141.9470 N   0  0  0  0  0  0  0  0  0  0  0  0
  187.5930  176.9790  137.6240 C   0  0  0  0  0  1  0  0  0  0  0  0
  190.4450  177.8060  140.1170 C   0  0  1  0  0  3  0  0  0  0  0  0
  189.6520  175.7040  138.3100 C   0  0  0  0  0  0  0  0  0  0  0  0
  189.2830  174.6850  137.6030 N   0  0  0  0  0  2  0  0  0  0  0  0
  191.3280  176.6440  139.7370 C   0  0  0  0  0  3  0  0  0  0  0  0
  188.7110  179.1020  139.1060 O   0  0  0  0  0  0  0  0  0  0  0  0
  188.8370  176.8810  138.3770 N   0  0  0  0  0  0  0  0  0  0  0  0
  190.9340  175.6920  138.9440 N   0  0  0  0  0  0  0  0  0  0  0  0
  189.2940  177.9870  139.1670 C   0  0  0  0  0  0  0  0  0  0  0  0
  186.8930  177.2560  144.9060 C   0  0  1  0  0  3  0  0  0  0  0  0
  187.4830  177.3100  143.4880 C   0  0  0  0  0  2  0  0  0  0  0  0
  187.2690  177.8120  147.2250 O   0  0  0  0  0  1  0  0  0  0  0  0
  189.5940  178.4290  144.3070 C   0  0  0  0  0  2  0  0  0  0  0  0
  188.4460  178.4840  143.2920 C   0  0  1  0  0  3  0  0  0  0  0  0
  187.6370  178.1420  145.9190 C   0  0  1  0  0  3  0  0  0  0  0  0
  189.1630  178.0620  145.7360 C   0  0  1  0  0  3  0  0  0  0  0  0
  189.7210  176.6820  146.0810 C   0  0  0  0  0  2  0  0  0  0  0  0
  190.6680  176.7550  147.2340 C   0  0  0  0  0  3  0  0  0  0  0  0
  191.9330  176.6870  147.0390 N   0  0  0  0  0  2  0  0  0  0  0  0
  185.3890  177.5170  144.9010 C   0  0  0  0  0  2  0  0  0  0  0  0
  185.0600  179.0000  144.8150 C   0  0  0  0  0  3  0  0  0  0  0  0
  184.4420  179.2910  143.4640 C   0  0  0  0  0  2  0  0  0  0  0  0
  183.5610  179.1670  144.6870 C   0  0  0  0  0  2  0  0  0  0  0  0
  191.7580  176.6690  143.0810 C   0  0  0  0  0  3  0  0  0  0  0  0
  190.8370  174.7390  143.3530 N   0  0  0  0  0  0  0  0  0  0  0  0
  190.0630  175.4210  142.5650 O   0  0  0  0  0  0  0  0  0  0  0  0
  191.8870  175.4730  143.6890 N   0  0  0  0  0  0  0  0  0  0  0  0
  190.5800  176.6080  142.3620 C   0  0  0  0  0  0  0  0  0  0  0  0
  1  2  2  0  0  0  0
  1 30  1  0  0  0  0
  3  9  1  0  0  0  0
  4  1  1  1  0  0  0
  5  9  1  0  0  0  0
  5 10  1  0  0  0  0
  6  5  2  0  0  0  0
  7  4  1  0  0  0  0
  8 11  2  0  0  0  0
  9 11  1  0  0  0  0
 10  7  2  0  0  0  0
 11  4  1  0  0  0  0
 12 22  1  6  0  0  0
 12 17  1  0  0  0  0
 13 12  1  0  0  0  0
 15 18  1  0  0  0  0
 16  2  1  6  0  0  0
 16 13  1  0  0  0  0
 16 15  1  0  0  0  0
 17 14  1  1  0  0  0
 18 17  1  0  0  0  0
 18 19  1  6  0  0  0
 19 20  1  0  0  0  0
 21 20  2  0  0  0  0
 23 22  1  0  0  0  0
 24 25  1  0  0  0  0
 24 23  1  0  0  0  0
 25 23  1  0  0  0  0
 26 29  1  0  0  0  0
 27 29  2  0  0  0  0
 28 27  1  0  0  0  0
 30 28  1  0  0  0  0
 30 26  2  0  0  0  0
M  END
>  <MODEL>
4

>  <REMARK>
 VINA RESULT:      -7.1      1.472      3.654
  Name = 
  7 active torsions:
  status: ('A' for Active; 'I' for Inactive)
    1  A    between atoms: C_2  and  C_22
    2  A    between atoms: C_3  and  C_4
    3  A    between atoms: C_3  and  C_28
    4  A    between atoms: C_5  and  C_22
    5  A    between atoms: C_8  and  C_10
    6  A    between atoms: C_10  and  C_29
    7  A    between atoms: C_18  and  N_21
                            x       y       z     vdW  Elec       q    Type
                         _______ _______ _______ _____ _____    ______ ____

>  <TORSDO>
F 7

$$$$
=
 OpenBabel10232408233D

 30 33  0  0  1  0  0  0  0  0999 V2000
  190.3580  176.2030  139.2420 C   0  0  0  0  0  0  0  0  0  0  0  0
  190.8070  176.0870  140.4630 N   0  0  0  0  0  0  0  0  0  0  0  0
  193.4780  176.5210  135.8650 C   0  0  0  0  0  1  0  0  0  0  0  0
  190.7270  175.1580  138.2330 C   0  0  1  0  0  3  0  0  0  0  0  0
  191.0170  176.1160  135.5280 C   0  0  0  0  0  0  0  0  0  0  0  0
  191.0690  176.6430  134.3480 N   0  0  0  0  0  2  0  0  0  0  0  0
  189.6560  175.0390  137.1780 C   0  0  0  0  0  3  0  0  0  0  0  0
  193.1140  175.1830  138.3220 O   0  0  0  0  0  0  0  0  0  0  0  0
  192.1900  176.0410  136.3490 N   0  0  0  0  0  0  0  0  0  0  0  0
  189.8000  175.5080  135.9740 N   0  0  0  0  0  0  0  0  0  0  0  0
  192.0820  175.4400  137.6460 C   0  0  0  0  0  0  0  0  0  0  0  0
  188.9290  177.2740  143.5720 C   0  0  1  0  0  3  0  0  0  0  0  0
  189.2850  176.4250  142.3410 C   0  0  0  0  0  2  0  0  0  0  0  0
  189.7980  178.7500  145.2740 O   0  0  0  0  0  1  0  0  0  0  0  0
  191.7260  177.0520  142.4990 C   0  0  0  0  0  2  0  0  0  0  0  0
  190.5000  176.9650  141.5830 C   0  0  1  0  0  3  0  0  0  0  0  0
  190.0400  178.2500  143.9930 C   0  0  1  0  0  3  0  0  0  0  0  0
  191.4330  177.6020  143.9030 C   0  0  1  0  0  3  0  0  0  0  0  0
  191.6210  176.4800  144.9220 C   0  0  0  0  0  2  0  0  0  0  0  0
  192.0180  175.2040  144.2530 C   0  0  0  0  0  3  0  0  0  0  0  0
  192.4350  174.2100  144.9480 N   0  0  0  0  0  2  0  0  0  0  0  0
  187.5790  177.9680  143.4060 C   0  0  0  0  0  2  0  0  0  0  0  0
  186.5050  177.3650  144.2980 C   0  0  0  0  0  3  0  0  0  0  0  0
  186.3460  178.2270  145.5320 C   0  0  0  0  0  2  0  0  0  0  0  0
  185.3460  178.3340  144.4020 C   0  0  0  0  0  2  0  0  0  0  0  0
  188.1500  177.5190  139.0190 C   0  0  0  0  0  3  0  0  0  0  0  0
  188.9420  179.1550  137.8610 N   0  0  0  0  0  0  0  0  0  0  0  0
  189.9260  178.3400  138.0880 O   0  0  0  0  0  0  0  0  0  0  0  0
  187.8360  178.6830  138.4170 N   0  0  0  0  0  0  0  0  0  0  0  0
  189.4970  177.3200  138.7890 C   0  0  0  0  0  0  0  0  0  0  0  0
  1  2  2  0  0  0  0
  3  9  1  0  0  0  0
  4  1  1  1  0  0  0
  5 10  1  0  0  0  0
  5  9  1  0  0  0  0
  6  5  2  0  0  0  0
  7  4  1  0  0  0  0
  9 11  1  0  0  0  0
 10  7  2  0  0  0  0
 11  4  1  0  0  0  0
 11  8  2  0  0  0  0
 12 22  1  6  0  0  0
 12 17  1  0  0  0  0
 13 12  1  0  0  0  0
 15 18  1  0  0  0  0
 16  2  1  6  0  0  0
 16 13  1  0  0  0  0
 16 15  1  0  0  0  0
 17 14  1  1  0  0  0
 18 17  1  0  0  0  0
 18 19  1  1  0  0  0
 20 19  1  0  0  0  0
 20 21  2  0  0  0  0
 22 23  1  0  0  0  0
 23 25  1  0  0  0  0
 23 24  1  0  0  0  0
 25 24  1  0  0  0  0
 27 28  1  0  0  0  0
 27 29  2  0  0  0  0
 28 30  1  0  0  0  0
 29 26  1  0  0  0  0
 30 26  2  0  0  0  0
 30  1  1  0  0  0  0
M  END
>  <MODEL>
5

>  <REMARK>
 VINA RESULT:      -7.0      2.495      5.251
  Name = 
  7 active torsions:
  status: ('A' for Active; 'I' for Inactive)
    1  A    between atoms: C_2  and  C_22
    2  A    between atoms: C_3  and  C_4
    3  A    between atoms: C_3  and  C_28
    4  A    between atoms: C_5  and  C_22
    5  A    between atoms: C_8  and  C_10
    6  A    between atoms: C_10  and  C_29
    7  A    between atoms: C_18  and  N_21
                            x       y       z     vdW  Elec       q    Type
                         _______ _______ _______ _____ _____    ______ ____

>  <TORSDO>
F 7

$$$$
=
 OpenBabel10232408233D

 30 33  0  0  1  0  0  0  0  0999 V2000
  184.7170  178.9630  141.4740 C   0  0  0  0  0  0  0  0  0  0  0  0
  185.9870  178.7550  141.2480 N   0  0  0  0  0  0  0  0  0  0  0  0
  183.4490  175.6550  138.5250 C   0  0  0  0  0  1  0  0  0  0  0  0
  183.7850  179.0830  140.3060 C   0  0  1  0  0  3  0  0  0  0  0  0
  184.6660  177.7660  137.8960 C   0  0  0  0  0  0  0  0  0  0  0  0
  185.1820  177.1870  136.8610 N   0  0  0  0  0  2  0  0  0  0  0  0
  184.4630  179.7900  139.1590 C   0  0  0  0  0  3  0  0  0  0  0  0
  182.3420  177.2030  140.6080 O   0  0  0  0  0  0  0  0  0  0  0  0
  183.8010  177.0460  138.7840 N   0  0  0  0  0  0  0  0  0  0  0  0
  184.8790  179.1670  138.0960 N   0  0  0  0  0  0  0  0  0  0  0  0
  183.2480  177.7360  139.9120 C   0  0  0  0  0  0  0  0  0  0  0  0
  187.8610  176.9030  144.0160 C   0  0  1  0  0  3  0  0  0  0  0  0
  186.7790  177.2170  142.9710 C   0  0  0  0  0  2  0  0  0  0  0  0
  190.1710  177.2400  144.6320 O   0  0  0  0  0  1  0  0  0  0  0  0
  188.3910  178.5640  141.5690 C   0  0  0  0  0  2  0  0  0  0  0  0
  187.0200  178.5480  142.2530 C   0  0  1  0  0  3  0  0  0  0  0  0
  189.1210  177.7750  143.8840 C   0  0  1  0  0  3  0  0  0  0  0  0
  189.5290  177.9680  142.4120 C   0  0  1  0  0  3  0  0  0  0  0  0
  189.9970  176.6680  141.7610 C   0  0  0  0  0  2  0  0  0  0  0  0
  190.6830  176.9320  140.4590 C   0  0  0  0  0  3  0  0  0  0  0  0
  190.4830  176.1630  139.4540 N   0  0  0  0  0  2  0  0  0  0  0  0
  187.2950  176.9130  145.4340 C   0  0  0  0  0  2  0  0  0  0  0  0
  187.2710  178.3090  146.0370 C   0  0  0  0  0  3  0  0  0  0  0  0
  186.1190  178.4060  147.0140 C   0  0  0  0  0  2  0  0  0  0  0  0
  187.5300  178.2100  147.5250 C   0  0  0  0  0  2  0  0  0  0  0  0
  184.5390  179.9070  143.8680 C   0  0  0  0  0  3  0  0  0  0  0  0
  182.8140  178.7630  144.4670 N   0  0  0  0  0  0  0  0  0  0  0  0
  183.0880  178.4240  143.2450 O   0  0  0  0  0  0  0  0  0  0  0  0
  183.6840  179.6710  144.8820 N   0  0  0  0  0  0  0  0  0  0  0  0
  184.1360  179.0900  142.8290 C   0  0  0  0  0  0  0  0  0  0  0  0
  1 30  1  0  0  0  0
  2  1  2  0  0  0  0
  3  9  1  0  0  0  0
  4  1  1  1  0  0  0
  5 10  1  0  0  0  0
  5  9  1  0  0  0  0
  6  5  2  0  0  0  0
  7  4  1  0  0  0  0
  9 11  1  0  0  0  0
 10  7  2  0  0  0  0
 11  4  1  0  0  0  0
 11  8  2  0  0  0  0
 12 22  1  1  0  0  0
 13 12  1  0  0  0  0
 15 16  1  0  0  0  0
 15 18  1  0  0  0  0
 16  2  1  6  0  0  0
 16 13  1  0  0  0  0
 17 12  1  0  0  0  0
 17 14  1  1  0  0  0
 18 19  1  6  0  0  0
 18 17  1  0  0  0  0
 20 19  1  0  0  0  0
 21 20  2  0  0  0  0
 22 23  1  0  0  0  0
 23 24  1  0  0  0  0
 23 25  1  0  0  0  0
 24 25  1  0  0  0  0
 26 29  1  0  0  0  0
 27 29  2  0  0  0  0
 28 27  1  0  0  0  0
 30 28  1  0  0  0  0
 30 26  2  0  0  0  0
M  END
>  <MODEL>
6

>  <REMARK>
 VINA RESULT:      -6.9      2.815      5.753
  Name = 
  7 active torsions:
  status: ('A' for Active; 'I' for Inactive)
    1  A    between atoms: C_2  and  C_22
    2  A    between atoms: C_3  and  C_4
    3  A    between atoms: C_3  and  C_28
    4  A    between atoms: C_5  and  C_22
    5  A    between atoms: C_8  and  C_10
    6  A    between atoms: C_10  and  C_29
    7  A    between atoms: C_18  and  N_21
                            x       y       z     vdW  Elec       q    Type
                         _______ _______ _______ _____ _____    ______ ____

>  <TORSDO>
F 7

$$$$
=
 OpenBabel10232408233D

 30 33  0  0  1  0  0  0  0  0999 V2000
  184.9560  178.4770  141.0820 C   0  0  0  0  0  0  0  0  0  0  0  0
  186.2510  178.3090  141.0830 N   0  0  0  0  0  0  0  0  0  0  0  0
  181.2740  180.8270  139.6130 C   0  0  0  0  0  1  0  0  0  0  0  0
  184.2030  178.2930  139.7990 C   0  0  1  0  0  3  0  0  0  0  0  0
  181.3310  178.3490  140.0460 C   0  0  0  0  0  0  0  0  0  0  0  0
  180.0590  178.3380  140.2800 N   0  0  0  0  0  2  0  0  0  0  0  0
  183.3390  177.0590  139.8640 C   0  0  0  0  0  3  0  0  0  0  0  0
  184.0110  180.5360  138.9960 O   0  0  0  0  0  0  0  0  0  0  0  0
  182.0060  179.5710  139.7230 N   0  0  0  0  0  0  0  0  0  0  0  0
  182.0480  177.1110  140.0070 N   0  0  0  0  0  0  0  0  0  0  0  0
  183.4150  179.5290  139.4640 C   0  0  0  0  0  0  0  0  0  0  0  0
  187.8930  177.1020  144.3160 C   0  0  1  0  0  3  0  0  0  0  0  0
  186.9570  177.1230  143.0960 C   0  0  0  0  0  2  0  0  0  0  0  0
  190.0120  177.8560  145.1940 O   0  0  0  0  0  1  0  0  0  0  0  0
  188.5790  178.5240  141.7590 C   0  0  0  0  0  2  0  0  0  0  0  0
  187.1310  178.3800  142.2400 C   0  0  1  0  0  3  0  0  0  0  0  0
  189.0320  178.1330  144.2400 C   0  0  1  0  0  3  0  0  0  0  0  0
  189.6380  178.2110  142.8270 C   0  0  1  0  0  3  0  0  0  0  0  0
  190.3700  176.9290  142.4350 C   0  0  0  0  0  2  0  0  0  0  0  0
  190.6600  176.8990  140.9690 C   0  0  0  0  0  3  0  0  0  0  0  0
  191.7430  177.4100  140.5110 N   0  0  0  0  0  2  0  0  0  0  0  0
  187.1140  177.1940  145.6250 C   0  0  0  0  0  2  0  0  0  0  0  0
  186.2920  178.4690  145.7200 C   0  0  0  0  0  3  0  0  0  0  0  0
  185.1020  178.2250  146.6250 C   0  0  0  0  0  2  0  0  0  0  0  0
  186.3110  178.9650  147.1510 C   0  0  0  0  0  2  0  0  0  0  0  0
  184.3330  179.9380  143.1160 C   0  0  0  0  0  3  0  0  0  0  0  0
  182.6800  178.7360  143.7980 N   0  0  0  0  0  0  0  0  0  0  0  0
  183.1620  178.1530  142.7440 O   0  0  0  0  0  0  0  0  0  0  0  0
  183.3740  179.8340  144.0560 N   0  0  0  0  0  0  0  0  0  0  0  0
  184.1770  178.8430  142.2870 C   0  0  0  0  0  0  0  0  0  0  0  0
  1  2  2  0  0  0  0
  1 30  1  0  0  0  0
  3  9  1  0  0  0  0
  4  7  1  0  0  0  0
  4  1  1  1  0  0  0
  5  6  2  0  0  0  0
  7 10  2  0  0  0  0
  8 11  2  0  0  0  0
  9  5  1  0  0  0  0
 10  5  1  0  0  0  0
 11  9  1  0  0  0  0
 11  4  1  0  0  0  0
 12 22  1  1  0  0  0
 13 12  1  0  0  0  0
 15 16  1  0  0  0  0
 15 18  1  0  0  0  0
 16  2  1  6  0  0  0
 16 13  1  0  0  0  0
 17 12  1  0  0  0  0
 17 14  1  1  0  0  0
 18 19  1  6  0  0  0
 18 17  1  0  0  0  0
 20 19  1  0  0  0  0
 21 20  2  0  0  0  0
 22 23  1  0  0  0  0
 23 24  1  0  0  0  0
 23 25  1  0  0  0  0
 24 25  1  0  0  0  0
 26 29  1  0  0  0  0
 27 29  2  0  0  0  0
 28 27  1  0  0  0  0
 30 28  1  0  0  0  0
 30 26  2  0  0  0  0
M  END
>  <MODEL>
7

>  <REMARK>
 VINA RESULT:      -6.8      2.963      6.398
  Name = 
  7 active torsions:
  status: ('A' for Active; 'I' for Inactive)
    1  A    between atoms: C_2  and  C_22
    2  A    between atoms: C_3  and  C_4
    3  A    between atoms: C_3  and  C_28
    4  A    between atoms: C_5  and  C_22
    5  A    between atoms: C_8  and  C_10
    6  A    between atoms: C_10  and  C_29
    7  A    between atoms: C_18  and  N_21
                            x       y       z     vdW  Elec       q    Type
                         _______ _______ _______ _____ _____    ______ ____

>  <TORSDO>
F 7

$$$$
=
 OpenBabel10232408233D

 30 33  0  0  1  0  0  0  0  0999 V2000
  190.2880  176.7860  138.2740 C   0  0  0  0  0  0  0  0  0  0  0  0
  190.8760  176.6790  139.4340 N   0  0  0  0  0  0  0  0  0  0  0  0
  187.7670  175.1280  134.7900 C   0  0  0  0  0  1  0  0  0  0  0  0
  190.7440  175.9080  137.1480 C   0  0  1  0  0  3  0  0  0  0  0  0
  188.9710  173.7280  136.4990 C   0  0  0  0  0  0  0  0  0  0  0  0
  188.1320  172.7590  136.3290 N   0  0  0  0  0  2  0  0  0  0  0  0
  190.9400  174.4910  137.6270 C   0  0  0  0  0  3  0  0  0  0  0  0
  189.8220  177.0070  135.2370 O   0  0  0  0  0  0  0  0  0  0  0  0
  188.8320  174.9540  135.7690 N   0  0  0  0  0  0  0  0  0  0  0  0
  190.1080  173.5330  137.3460 N   0  0  0  0  0  0  0  0  0  0  0  0
  189.7940  175.9940  135.9860 C   0  0  0  0  0  0  0  0  0  0  0  0
  188.9050  177.4130  142.6250 C   0  0  1  0  0  3  0  0  0  0  0  0
  189.3080  176.7370  141.3050 C   0  0  0  0  0  2  0  0  0  0  0  0
  189.7010  178.6770  144.5220 O   0  0  0  0  0  1  0  0  0  0  0  0
  191.7290  177.3960  141.5980 C   0  0  0  0  0  2  0  0  0  0  0  0
  190.5240  177.3980  140.6500 C   0  0  1  0  0  3  0  0  0  0  0  0
  189.9820  178.3520  143.1940 C   0  0  1  0  0  3  0  0  0  0  0  0
  191.3930  177.7540  143.0540 C   0  0  1  0  0  3  0  0  0  0  0  0
  191.5900  176.5140  143.9250 C   0  0  0  0  0  2  0  0  0  0  0  0
  191.6070  176.8710  145.3760 C   0  0  0  0  0  3  0  0  0  0  0  0
  191.9810  176.0120  146.2510 N   0  0  0  0  0  2  0  0  0  0  0  0
  187.5420  178.0910  142.5190 C   0  0  0  0  0  2  0  0  0  0  0  0
  186.4600  177.3350  143.2740 C   0  0  0  0  0  3  0  0  0  0  0  0
  186.8230  177.2890  144.7430 C   0  0  0  0  0  2  0  0  0  0  0  0
  185.7880  178.2780  144.2510 C   0  0  0  0  0  2  0  0  0  0  0  0
  187.8260  177.5520  138.1730 C   0  0  0  0  0  3  0  0  0  0  0  0
  188.2060  179.5380  137.4270 N   0  0  0  0  0  0  0  0  0  0  0  0
  189.3580  178.9530  137.5500 O   0  0  0  0  0  0  0  0  0  0  0  0
  187.2440  178.7080  137.8000 N   0  0  0  0  0  0  0  0  0  0  0  0
  189.1850  177.7340  137.9990 C   0  0  0  0  0  0  0  0  0  0  0  0
  1  2  2  0  0  0  0
  3  9  1  0  0  0  0
  4  7  1  0  0  0  0
  4  1  1  1  0  0  0
  5 10  1  0  0  0  0
  6  5  2  0  0  0  0
  8 11  2  0  0  0  0
  9 11  1  0  0  0  0
  9  5  1  0  0  0  0
 10  7  2  0  0  0  0
 11  4  1  0  0  0  0
 12 22  1  6  0  0  0
 12 17  1  0  0  0  0
 13 12  1  0  0  0  0
 15 18  1  0  0  0  0
 16  2  1  6  0  0  0
 16 13  1  0  0  0  0
 16 15  1  0  0  0  0
 17 14  1  1  0  0  0
 18 17  1  0  0  0  0
 18 19  1  1  0  0  0
 19 20  1  0  0  0  0
 20 21  2  0  0  0  0
 22 23  1  0  0  0  0
 23 25  1  0  0  0  0
 23 24  1  0  0  0  0
 25 24  1  0  0  0  0
 27 28  1  0  0  0  0
 27 29  2  0  0  0  0
 28 30  1  0  0  0  0
 29 26  1  0  0  0  0
 30 26  2  0  0  0  0
 30  1  1  0  0  0  0
M  END
>  <MODEL>
8

>  <REMARK>
 VINA RESULT:      -6.7      2.494      5.205
  Name = 
  7 active torsions:
  status: ('A' for Active; 'I' for Inactive)
    1  A    between atoms: C_2  and  C_22
    2  A    between atoms: C_3  and  C_4
    3  A    between atoms: C_3  and  C_28
    4  A    between atoms: C_5  and  C_22
    5  A    between atoms: C_8  and  C_10
    6  A    between atoms: C_10  and  C_29
    7  A    between atoms: C_18  and  N_21
                            x       y       z     vdW  Elec       q    Type
                         _______ _______ _______ _____ _____    ______ ____

>  <TORSDO>
F 7

$$$$
=
 OpenBabel10232408233D

 30 33  0  0  1  0  0  0  0  0999 V2000
  188.1750  178.1660  139.4800 C   0  0  0  0  0  0  0  0  0  0  0  0
  187.4160  178.3350  140.5290 N   0  0  0  0  0  0  0  0  0  0  0  0
  186.3250  176.1030  135.7980 C   0  0  0  0  0  1  0  0  0  0  0  0
  187.7680  178.7980  138.1830 C   0  0  1  0  0  3  0  0  0  0  0  0
  188.5220  177.3310  135.8180 C   0  0  0  0  0  0  0  0  0  0  0  0
  188.9540  176.6190  134.8270 N   0  0  0  0  0  2  0  0  0  0  0  0
  188.9810  179.1160  137.3450 C   0  0  0  0  0  3  0  0  0  0  0  0
  185.5810  177.8980  137.8420 O   0  0  0  0  0  0  0  0  0  0  0  0
  187.2160  177.1080  136.3640 N   0  0  0  0  0  0  0  0  0  0  0  0
  189.3160  178.4190  136.3010 N   0  0  0  0  0  0  0  0  0  0  0  0
  186.7800  177.9290  137.4560 C   0  0  0  0  0  0  0  0  0  0  0  0
  188.9810  178.3730  144.0150 C   0  0  1  0  0  3  0  0  0  0  0  0
  188.6840  178.7880  142.5660 C   0  0  0  0  0  2  0  0  0  0  0  0
  188.1050  177.2630  145.9730 O   0  0  0  0  0  1  0  0  0  0  0  0
  186.3670  177.7870  142.6550 C   0  0  0  0  0  2  0  0  0  0  0  0
  187.6850  177.8550  141.8760 C   0  0  1  0  0  3  0  0  0  0  0  0
  187.9790  177.3550  144.5850 C   0  0  1  0  0  3  0  0  0  0  0  0
  186.5330  177.6890  144.1800 C   0  0  1  0  0  3  0  0  0  0  0  0
  186.0330  178.9850  144.8150 C   0  0  0  0  0  2  0  0  0  0  0  0
  184.7910  178.7520  145.6120 C   0  0  0  0  0  3  0  0  0  0  0  0
  184.8510  178.6330  146.8870 N   0  0  0  0  0  2  0  0  0  0  0  0
  190.4290  177.9200  144.1860 C   0  0  0  0  0  2  0  0  0  0  0  0
  190.5470  176.4140  144.3590 C   0  0  0  0  0  3  0  0  0  0  0  0
  190.5000  175.7550  142.9970 C   0  0  0  0  0  2  0  0  0  0  0  0
  191.8260  175.9390  143.7010 C   0  0  0  0  0  2  0  0  0  0  0  0
  189.6530  176.1050  139.0030 C   0  0  0  0  0  3  0  0  0  0  0  0
  191.4760  176.8990  139.8340 N   0  0  0  0  0  0  0  0  0  0  0  0
  190.5640  177.8110  139.9810 O   0  0  0  0  0  0  0  0  0  0  0  0
  190.9530  175.8390  139.2380 N   0  0  0  0  0  0  0  0  0  0  0  0
  189.4280  177.3770  139.4950 C   0  0  0  0  0  0  0  0  0  0  0  0
  1 30  1  0  0  0  0
  1  2  2  0  0  0  0
  3  9  1  0  0  0  0
  4  1  1  1  0  0  0
  5 10  1  0  0  0  0
  5  9  1  0  0  0  0
  6  5  2  0  0  0  0
  7  4  1  0  0  0  0
  9 11  1  0  0  0  0
 10  7  2  0  0  0  0
 11  8  2  0  0  0  0
 11  4  1  0  0  0  0
 12 22  1  6  0  0  0
 12 17  1  0  0  0  0
 13 12  1  0  0  0  0
 15 18  1  0  0  0  0
 16  2  1  6  0  0  0
 16 13  1  0  0  0  0
 16 15  1  0  0  0  0
 17 14  1  1  0  0  0
 18 17  1  0  0  0  0
 18 19  1  1  0  0  0
 19 20  1  0  0  0  0
 20 21  2  0  0  0  0
 22 23  1  0  0  0  0
 24 25  1  0  0  0  0
 24 23  1  0  0  0  0
 25 23  1  0  0  0  0
 26 29  1  0  0  0  0
 26 30  2  0  0  0  0
 27 28  1  0  0  0  0
 29 27  2  0  0  0  0
 30 28  1  0  0  0  0
M  END
>  <MODEL>
9

>  <REMARK>
 VINA RESULT:      -6.6      2.236      3.087
  Name = 
  7 active torsions:
  status: ('A' for Active; 'I' for Inactive)
    1  A    between atoms: C_2  and  C_22
    2  A    between atoms: C_3  and  C_4
    3  A    between atoms: C_3  and  C_28
    4  A    between atoms: C_5  and  C_22
    5  A    between atoms: C_8  and  C_10
    6  A    between atoms: C_10  and  C_29
    7  A    between atoms: C_18  and  N_21
                            x       y       z     vdW  Elec       q    Type
                         _______ _______ _______ _____ _____    ______ ____

>  <TORSDO>
F 7

$$$$
