=
 OpenBabel10232412043D

 42 46  0  0  1  0  0  0  0  0999 V2000
  182.9640  178.8170  140.8730 C   0  0  0  0  0  0  0  0  0  0  0  0
  182.9360  177.4670  137.2570 C   0  0  0  0  0  3  0  0  0  0  0  0
  186.1840  178.4980  139.5690 N   0  0  0  0  0  0  0  0  0  0  0  0
  184.0750  178.8080  138.8730 C   0  0  0  0  0  0  0  0  0  0  0  0
  185.2990  178.4270  138.4430 C   0  0  0  0  0  0  0  0  0  0  0  0
  185.4070  177.5980  137.3150 C   0  0  0  0  0  0  0  0  0  0  0  0
  185.5110  178.8670  140.5980 N   0  0  0  0  0  0  0  0  0  0  0  0
  184.1560  179.0800  140.1940 C   0  0  0  0  0  0  0  0  0  0  0  0
  182.9070  178.2900  138.3900 C   0  0  0  0  0  0  0  0  0  0  0  0
  181.8480  178.2270  139.7100 S   0  0  0  0  0  0  0  0  0  0  0  0
  184.2020  177.1610  136.6910 C   0  0  0  0  0  3  0  0  0  0  0  0
  182.7820  178.7840  142.2990 N   0  0  0  0  0  0  0  0  0  0  0  0
  181.6100  179.2820  142.8890 C   0  0  0  0  0  0  0  0  0  0  0  0
  180.6440  179.6920  143.3760 N   0  0  0  0  0  0  0  0  0  0  0  0
  183.8270  178.2800  143.1790 C   0  0  0  0  0  2  0  0  0  0  0  0
  184.2160  179.3250  144.2150 C   0  0  0  0  0  2  0  0  0  0  0  0
  184.1870  178.7270  145.6100 C   0  0  0  0  0  2  0  0  0  0  0  0
  187.2750  178.2990  147.3610 C   0  0  0  0  0  0  0  0  0  0  0  0
  187.7070  177.9830  146.0810 C   0  0  0  0  0  0  0  0  0  0  0  0
  185.5760  178.4560  146.0730 C   0  0  0  0  0  0  0  0  0  0  0  0
  185.9650  178.5970  147.3550 N   0  0  0  0  0  2  0  0  0  0  0  0
  188.0930  178.3190  148.6060 C   0  0  0  0  0  1  0  0  0  0  0  0
  186.6150  178.0810  145.2390 C   0  0  0  0  0  3  0  0  0  0  0  0
  189.0340  177.6070  145.6670 N   0  0  0  0  0  0  0  0  0  0  0  0
  192.0790  175.8480  147.0330 C   0  0  0  0  0  1  0  0  0  0  0  0
  191.2890  176.9240  146.3150 C   0  0  1  0  0  3  0  0  0  0  0  0
  191.6320  176.9320  144.9510 O   0  0  0  0  0  0  0  0  0  0  0  0
  189.5480  177.9600  144.3420 C   0  0  0  0  0  2  0  0  0  0  0  0
  191.0690  178.1000  144.4070 C   0  0  0  0  0  2  0  0  0  0  0  0
  189.7940  176.6490  146.4720 C   0  0  0  0  0  2  0  0  0  0  0  0
  186.7520  177.1250  136.8530 C   0  0  2  0  0  3  0  0  0  0  0  0
  187.4420  179.4000  136.5630 O   0  0  0  0  0  1  0  0  0  0  0  0
  187.4440  178.1480  135.9460 C   0  0  1  0  0  3  0  0  0  0  0  0
  188.8690  177.7380  135.5850 C   0  0  0  0  0  2  0  0  0  0  0  0
  189.7890  178.1000  136.6560 N   0  0  0  0  0  2  0  0  0  0  0  0
  189.9460  177.3250  137.8460 C   0  0  0  0  0  0  0  0  0  0  0  0
  189.7480  177.9190  139.0250 C   0  0  0  0  0  3  0  0  0  0  0  0
  190.3560  175.8860  137.7640 C   0  0  0  0  0  1  0  0  0  0  0  0
  189.8830  177.2230  140.3410 C   0  0  0  0  0  2  0  0  0  0  0  0
  191.3230  177.2800  140.8220 C   0  0  0  0  0  1  0  0  0  0  0  0
  186.8670  174.8910  137.1930 O   0  0  0  0  0  1  0  0  0  0  0  0
  186.6560  175.8130  136.2220 N   0  0  0  0  0  2  0  0  0  0  0  0
  1 12  1  0  0  0  0
  2  9  1  0  0  0  0
  3  7  2  0  0  0  0
  4  8  1  0  0  0  0
  5  4  1  0  0  0  0
  5  3  1  0  0  0  0
  6  5  2  0  0  0  0
  8  7  1  0  0  0  0
  8  1  2  0  0  0  0
  9  4  2  0  0  0  0
  9 10  1  0  0  0  0
 10  1  1  0  0  0  0
 11  2  2  0  0  0  0
 11  6  1  0  0  0  0
 12 13  1  0  0  0  0
 12 15  1  0  0  0  0
 13 14  3  0  0  0  0
 15 16  1  0  0  0  0
 16 17  1  0  0  0  0
 17 20  1  0  0  0  0
 18 22  1  0  0  0  0
 19 18  2  0  0  0  0
 20 21  1  0  0  0  0
 21 18  1  0  0  0  0
 23 20  2  0  0  0  0
 23 19  1  0  0  0  0
 24 19  1  0  0  0  0
 24 30  1  0  0  0  0
 26 30  1  0  0  0  0
 26 25  1  1  0  0  0
 27 26  1  0  0  0  0
 28 29  1  0  0  0  0
 28 24  1  0  0  0  0
 29 27  1  0  0  0  0
 31 42  1  6  0  0  0
 31  6  1  0  0  0  0
 33 32  1  1  0  0  0
 33 31  1  0  0  0  0
 34 33  1  0  0  0  0
 34 35  1  0  0  0  0
 35 36  1  0  0  0  0
 36 37  2  0  0  0  0
 37 39  1  0  0  0  0
 38 36  1  0  0  0  0
 39 40  1  0  0  0  0
 42 41  1  0  0  0  0
M  END
>  <MODEL>
1

>  <REMARK>
 VINA RESULT:      -8.3      0.000      0.000
  Name = 
  14 active torsions:
  status: ('A' for Active; 'I' for Inactive)
    1  A    between atoms: N_1  and  C_10
    2  A    between atoms: N_3  and  C_4
    3  A    between atoms: N_3  and  C_6
    4  A    between atoms: N_3  and  C_9
    5  A    between atoms: C_9  and  C_29
    6  A    between atoms: C_13  and  C_32
    7  A    between atoms: C_19  and  C_23
    8  A    between atoms: C_19  and  N_33
    9  A    between atoms: C_20  and  C_36
   10  A    between atoms: C_22  and  C_31
   11  A    between atoms: C_23  and  C_31
   12  A    between atoms: C_29  and  C_32
   13  A    between atoms: C_30  and  N_33
   14  A    between atoms: C_31  and  N_39
                            x       y       z     vdW  Elec       q    Type
                         _______ _______ _______ _____ _____    ______ ____

>  <TORSDO>
F 14

$$$$
=
 OpenBabel10232412043D

 42 46  0  0  1  0  0  0  0  0999 V2000
  189.2360  177.1300  145.3320 C   0  0  0  0  0  0  0  0  0  0  0  0
  191.9970  177.6340  142.6820 C   0  0  0  0  0  3  0  0  0  0  0  0
  188.0610  176.5700  142.0950 N   0  0  0  0  0  0  0  0  0  0  0  0
  189.9750  176.4990  143.2610 C   0  0  0  0  0  0  0  0  0  0  0  0
  189.4920  176.5490  141.9990 C   0  0  0  0  0  0  0  0  0  0  0  0
  190.2940  177.0770  140.9740 C   0  0  0  0  0  0  0  0  0  0  0  0
  187.7330  176.5640  143.3360 N   0  0  0  0  0  0  0  0  0  0  0  0
  188.9300  176.5140  144.1160 C   0  0  0  0  0  0  0  0  0  0  0  0
  191.1390  177.0990  143.6520 C   0  0  0  0  0  0  0  0  0  0  0  0
  190.8720  177.6400  145.2340 S   0  0  0  0  0  0  0  0  0  0  0  0
  191.5830  177.5760  141.3250 C   0  0  0  0  0  3  0  0  0  0  0  0
  188.3020  177.5080  146.3580 N   0  0  0  0  0  0  0  0  0  0  0  0
  188.7470  178.0010  147.5930 C   0  0  0  0  0  0  0  0  0  0  0  0
  189.1140  178.4070  148.6130 N   0  0  0  0  0  0  0  0  0  0  0  0
  186.8660  177.3430  146.1660 C   0  0  0  0  0  2  0  0  0  0  0  0
  186.2500  178.6040  145.5770 C   0  0  0  0  0  2  0  0  0  0  0  0
  184.7580  178.6460  145.8560 C   0  0  0  0  0  2  0  0  0  0  0  0
  182.3890  178.9900  143.2000 C   0  0  0  0  0  0  0  0  0  0  0  0
  183.4860  178.5780  142.4580 C   0  0  0  0  0  0  0  0  0  0  0  0
  184.0050  178.7230  144.5740 C   0  0  0  0  0  0  0  0  0  0  0  0
  182.7060  179.0730  144.5030 N   0  0  0  0  0  2  0  0  0  0  0  0
  181.0280  179.3160  142.6870 C   0  0  0  0  0  1  0  0  0  0  0  0
  184.5390  178.4020  143.3380 C   0  0  0  0  0  3  0  0  0  0  0  0
  183.5600  178.3700  141.0360 N   0  0  0  0  0  0  0  0  0  0  0  0
  182.3410  175.9380  138.4220 C   0  0  0  0  0  1  0  0  0  0  0  0
  183.3250  176.8270  139.1550 C   0  0  1  0  0  3  0  0  0  0  0  0
  183.7400  177.8710  138.3080 O   0  0  0  0  0  0  0  0  0  0  0  0
  184.3330  179.2650  140.1730 C   0  0  0  0  0  2  0  0  0  0  0  0
  184.8270  178.4930  138.9490 C   0  0  0  0  0  2  0  0  0  0  0  0
  182.6580  177.4050  140.4020 C   0  0  0  0  0  2  0  0  0  0  0  0
  189.7580  177.1870  139.5790 C   0  0  2  0  0  3  0  0  0  0  0  0
  190.8560  175.2240  138.7560 O   0  0  0  0  0  1  0  0  0  0  0  0
  190.7200  176.5970  138.5420 C   0  0  1  0  0  3  0  0  0  0  0  0
  190.2700  176.8680  137.1090 C   0  0  0  0  0  2  0  0  0  0  0  0
  189.8190  175.6360  136.4760 N   0  0  0  0  0  2  0  0  0  0  0  0
  188.4470  175.3690  136.1740 C   0  0  0  0  0  0  0  0  0  0  0  0
  187.5350  176.2940  136.4820 C   0  0  0  0  0  3  0  0  0  0  0  0
  188.0490  174.0640  135.5550 C   0  0  0  0  0  1  0  0  0  0  0  0
  186.0710  176.1370  136.2230 C   0  0  0  0  0  2  0  0  0  0  0  0
  185.5570  177.2960  135.3870 C   0  0  0  0  0  1  0  0  0  0  0  0
  188.1460  178.7650  139.7480 O   0  0  0  0  0  1  0  0  0  0  0  0
  189.3960  178.5650  139.2660 N   0  0  0  0  0  2  0  0  0  0  0  0
  1 12  1  0  0  0  0
  2  9  1  0  0  0  0
  3  7  2  0  0  0  0
  4  9  2  0  0  0  0
  4  8  1  0  0  0  0
  5  3  1  0  0  0  0
  5  4  1  0  0  0  0
  6 11  1  0  0  0  0
  6  5  2  0  0  0  0
  7  8  1  0  0  0  0
  8  1  2  0  0  0  0
  9 10  1  0  0  0  0
 10  1  1  0  0  0  0
 11  2  2  0  0  0  0
 12 13  1  0  0  0  0
 13 14  3  0  0  0  0
 15 12  1  0  0  0  0
 16 17  1  0  0  0  0
 16 15  1  0  0  0  0
 18 21  1  0  0  0  0
 19 18  2  0  0  0  0
 19 23  1  0  0  0  0
 20 17  1  0  0  0  0
 21 20  1  0  0  0  0
 22 18  1  0  0  0  0
 23 20  2  0  0  0  0
 24 19  1  0  0  0  0
 26 25  1  6  0  0  0
 26 30  1  0  0  0  0
 27 29  1  0  0  0  0
 27 26  1  0  0  0  0
 28 24  1  0  0  0  0
 29 28  1  0  0  0  0
 30 24  1  0  0  0  0
 31 42  1  6  0  0  0
 31  6  1  0  0  0  0
 33 32  1  1  0  0  0
 33 31  1  0  0  0  0
 34 33  1  0  0  0  0
 35 34  1  0  0  0  0
 36 35  1  0  0  0  0
 36 37  2  0  0  0  0
 38 36  1  0  0  0  0
 39 37  1  0  0  0  0
 40 39  1  0  0  0  0
 42 41  1  0  0  0  0
M  END
>  <MODEL>
2

>  <REMARK>
 VINA RESULT:      -8.2      2.641      6.924
  Name = 
  14 active torsions:
  status: ('A' for Active; 'I' for Inactive)
    1  A    between atoms: N_1  and  C_10
    2  A    between atoms: N_3  and  C_4
    3  A    between atoms: N_3  and  C_6
    4  A    between atoms: N_3  and  C_9
    5  A    between atoms: C_9  and  C_29
    6  A    between atoms: C_13  and  C_32
    7  A    between atoms: C_19  and  C_23
    8  A    between atoms: C_19  and  N_33
    9  A    between atoms: C_20  and  C_36
   10  A    between atoms: C_22  and  C_31
   11  A    between atoms: C_23  and  C_31
   12  A    between atoms: C_29  and  C_32
   13  A    between atoms: C_30  and  N_33
   14  A    between atoms: C_31  and  N_39
                            x       y       z     vdW  Elec       q    Type
                         _______ _______ _______ _____ _____    ______ ____

>  <TORSDO>
F 14

$$$$
=
 OpenBabel10232412043D

 42 46  0  0  1  0  0  0  0  0999 V2000
  186.4790  177.5630  137.5970 C   0  0  0  0  0  0  0  0  0  0  0  0
  182.8370  177.5360  136.3190 C   0  0  0  0  0  3  0  0  0  0  0  0
  184.3960  179.5790  139.5370 N   0  0  0  0  0  0  0  0  0  0  0  0
  184.2840  177.7790  138.2050 C   0  0  0  0  0  0  0  0  0  0  0  0
  183.5220  178.7440  138.7660 C   0  0  0  0  0  0  0  0  0  0  0  0
  182.3040  179.0990  138.1630 C   0  0  0  0  0  0  0  0  0  0  0  0
  185.5970  179.1450  139.4080 N   0  0  0  0  0  0  0  0  0  0  0  0
  185.5690  177.9900  138.5660 C   0  0  0  0  0  0  0  0  0  0  0  0
  184.0390  177.2390  136.9740 C   0  0  0  0  0  0  0  0  0  0  0  0
  185.5590  176.9280  136.2940 S   0  0  0  0  0  0  0  0  0  0  0  0
  181.9430  178.4410  136.9510 C   0  0  0  0  0  3  0  0  0  0  0  0
  187.8890  177.8410  137.5670 N   0  0  0  0  0  0  0  0  0  0  0  0
  188.6090  177.7940  136.3640 C   0  0  0  0  0  0  0  0  0  0  0  0
  189.2040  177.7550  135.3720 N   0  0  0  0  0  0  0  0  0  0  0  0
  188.6260  178.1300  138.7910 C   0  0  0  0  0  2  0  0  0  0  0  0
  189.5530  176.9790  139.1510 C   0  0  0  0  0  2  0  0  0  0  0  0
  190.5800  177.4250  140.1770 C   0  0  0  0  0  2  0  0  0  0  0  0
  188.6460  176.8940  143.1370 C   0  0  0  0  0  0  0  0  0  0  0  0
  189.8700  177.1730  143.7260 C   0  0  2  0  0  3  0  0  0  0  0  0
  190.0370  177.2400  141.5500 C   0  0  0  0  0  0  0  0  0  0  0  0
  188.7470  176.9420  141.7980 N   0  0  0  0  0  0  0  0  0  0  0  0
  187.3670  176.5740  143.8310 C   0  0  0  0  0  1  0  0  0  0  0  0
  190.7790  177.3980  142.7080 C   0  0  0  0  0  3  0  0  0  0  0  0
  190.1820  177.2190  145.1310 N   0  0  2  0  0  0  0  0  0  0  0  0
  192.6060  175.6920  147.5860 C   0  0  0  0  0  1  0  0  0  0  0  0
  191.2690  176.1580  147.0460 C   0  0  1  0  0  3  0  0  0  0  0  0
  190.7730  177.2030  147.8460 O   0  0  0  0  0  0  0  0  0  0  0  0
  189.4000  178.0370  146.0600 C   0  0  0  0  0  2  0  0  0  0  0  0
  189.4380  177.4060  147.4520 C   0  0  0  0  0  2  0  0  0  0  0  0
  191.4420  176.6430  145.6070 C   0  0  0  0  0  2  0  0  0  0  0  0
  181.4690  180.2010  138.7420 C   0  0  2  0  0  3  0  0  0  0  0  0
  180.1210  178.3000  139.2960 O   0  0  0  0  0  1  0  0  0  0  0  0
  180.2820  179.6630  139.5490 C   0  0  1  0  0  3  0  0  0  0  0  0
  180.4380  179.9090  141.0480 C   0  0  0  0  0  2  0  0  0  0  0  0
  181.3350  178.9210  141.6340 N   0  0  0  0  0  2  0  0  0  0  0  0
  181.6290  178.8650  143.0320 C   0  0  0  0  0  0  0  0  0  0  0  0
  182.8910  179.0500  143.4250 C   0  0  0  0  0  3  0  0  0  0  0  0
  180.5440  178.5730  144.0220 C   0  0  0  0  0  1  0  0  0  0  0  0
  183.3310  179.0130  144.8540 C   0  0  0  0  0  2  0  0  0  0  0  0
  184.8480  179.0100  144.9380 C   0  0  0  0  0  1  0  0  0  0  0  0
  181.4400  182.3700  138.1000 O   0  0  0  0  0  1  0  0  0  0  0  0
  181.0460  181.1350  137.7050 N   0  0  0  0  0  2  0  0  0  0  0  0
  1  8  2  0  0  0  0
  2 11  2  0  0  0  0
  2  9  1  0  0  0  0
  4  8  1  0  0  0  0
  4  5  1  0  0  0  0
  5  3  1  0  0  0  0
  6 31  1  0  0  0  0
  6  5  2  0  0  0  0
  7  3  2  0  0  0  0
  8  7  1  0  0  0  0
  9  4  2  0  0  0  0
 10  9  1  0  0  0  0
 10  1  1  0  0  0  0
 11  6  1  0  0  0  0
 12  1  1  0  0  0  0
 12 15  1  0  0  0  0
 13 12  1  0  0  0  0
 14 13  3  0  0  0  0
 15 16  1  0  0  0  0
 16 17  1  0  0  0  0
 17 20  1  0  0  0  0
 18 19  1  0  0  0  0
 18 22  1  0  0  0  0
 19 23  1  6  0  0  0
 19 24  1  0  0  0  0
 20 21  1  0  0  0  0
 20 23  2  0  0  0  0
 21 18  2  0  0  0  0
 24 30  1  6  0  0  0
 24 28  1  0  0  0  0
 26 25  1  1  0  0  0
 26 27  1  0  0  0  0
 28 29  1  0  0  0  0
 29 27  1  0  0  0  0
 30 26  1  0  0  0  0
 31 42  1  6  0  0  0
 31 33  1  0  0  0  0
 33 32  1  1  0  0  0
 33 34  1  0  0  0  0
 34 35  1  0  0  0  0
 35 36  1  0  0  0  0
 36 37  2  0  0  0  0
 36 38  1  0  0  0  0
 37 39  1  0  0  0  0
 39 40  1  0  0  0  0
 42 41  1  0  0  0  0
M  END
>  <MODEL>
3

>  <REMARK>
 VINA RESULT:      -8.0      2.495      6.375
  Name = 
  14 active torsions:
  status: ('A' for Active; 'I' for Inactive)
    1  A    between atoms: N_1  and  C_10
    2  A    between atoms: N_3  and  C_4
    3  A    between atoms: N_3  and  C_6
    4  A    between atoms: N_3  and  C_9
    5  A    between atoms: C_9  and  C_29
    6  A    between atoms: C_13  and  C_32
    7  A    between atoms: C_19  and  C_23
    8  A    between atoms: C_19  and  N_33
    9  A    between atoms: C_20  and  C_36
   10  A    between atoms: C_22  and  C_31
   11  A    between atoms: C_23  and  C_31
   12  A    between atoms: C_29  and  C_32
   13  A    between atoms: C_30  and  N_33
   14  A    between atoms: C_31  and  N_39
                            x       y       z     vdW  Elec       q    Type
                         _______ _______ _______ _____ _____    ______ ____

>  <TORSDO>
F 14

$$$$
=
 OpenBabel10232412043D

 42 46  0  0  1  0  0  0  0  0999 V2000
  189.2740  177.1050  145.3790 C   0  0  0  0  0  0  0  0  0  0  0  0
  191.9910  177.5430  142.6720 C   0  0  0  0  0  3  0  0  0  0  0  0
  188.0270  176.5430  142.1700 N   0  0  0  0  0  0  0  0  0  0  0  0
  189.9620  176.4460  143.2990 C   0  0  0  0  0  0  0  0  0  0  0  0
  189.4550  176.4960  142.0460 C   0  0  0  0  0  0  0  0  0  0  0  0
  190.2450  177.0030  141.0020 C   0  0  0  0  0  0  0  0  0  0  0  0
  187.7230  176.5510  143.4170 N   0  0  0  0  0  0  0  0  0  0  0  0
  188.9340  176.4860  144.1740 C   0  0  0  0  0  0  0  0  0  0  0  0
  191.1430  177.0300  143.6620 C   0  0  0  0  0  0  0  0  0  0  0  0
  190.9160  177.5870  145.2450 S   0  0  0  0  0  0  0  0  0  0  0  0
  191.5490  177.4820  141.3240 C   0  0  0  0  0  3  0  0  0  0  0  0
  188.3670  177.5070  146.4200 N   0  0  0  0  0  0  0  0  0  0  0  0
  188.8440  178.0160  147.6370 C   0  0  0  0  0  0  0  0  0  0  0  0
  189.2380  178.4350  148.6410 N   0  0  0  0  0  0  0  0  0  0  0  0
  186.9260  177.3510  146.2640 C   0  0  0  0  0  2  0  0  0  0  0  0
  186.2940  178.6360  145.7500 C   0  0  0  0  0  2  0  0  0  0  0  0
  184.7950  178.6250  145.9940 C   0  0  0  0  0  2  0  0  0  0  0  0
  182.4860  179.0180  143.2920 C   0  0  0  0  0  0  0  0  0  0  0  0
  183.5950  178.6020  142.5700 C   0  0  0  0  0  0  0  0  0  0  0  0
  184.0700  178.7220  144.6970 C   0  0  0  0  0  0  0  0  0  0  0  0
  182.7760  179.0850  144.6030 N   0  0  0  0  0  2  0  0  0  0  0  0
  181.1400  179.3610  142.7540 C   0  0  0  0  0  1  0  0  0  0  0  0
  184.6270  178.4080  143.4700 C   0  0  0  0  0  3  0  0  0  0  0  0
  183.6970  178.4060  141.1470 N   0  0  0  0  0  0  0  0  0  0  0  0
  182.4470  176.0560  138.4740 C   0  0  0  0  0  1  0  0  0  0  0  0
  183.4470  176.8960  139.2420 C   0  0  1  0  0  3  0  0  0  0  0  0
  183.9270  177.9310  138.4190 O   0  0  0  0  0  0  0  0  0  0  0  0
  184.5280  179.2780  140.3150 C   0  0  0  0  0  2  0  0  0  0  0  0
  185.0210  178.5010  139.0950 C   0  0  0  0  0  2  0  0  0  0  0  0
  182.7730  177.4870  140.4800 C   0  0  0  0  0  2  0  0  0  0  0  0
  189.6840  177.1120  139.6170 C   0  0  2  0  0  3  0  0  0  0  0  0
  189.3860  175.6630  137.7330 O   0  0  0  0  0  1  0  0  0  0  0  0
  190.3350  176.1170  138.6490 C   0  0  1  0  0  3  0  0  0  0  0  0
  191.5340  176.7160  137.9170 C   0  0  0  0  0  2  0  0  0  0  0  0
  191.8560  175.9250  136.7370 N   0  0  0  0  0  2  0  0  0  0  0  0
  193.0410  175.1330  136.6270 C   0  0  0  0  0  0  0  0  0  0  0  0
  193.5200  174.5470  137.7250 C   0  0  0  0  0  3  0  0  0  0  0  0
  193.7400  174.9970  135.3080 C   0  0  0  0  0  1  0  0  0  0  0  0
  194.7500  173.6970  137.7460 C   0  0  0  0  0  2  0  0  0  0  0  0
  195.5740  173.9920  138.9870 C   0  0  0  0  0  1  0  0  0  0  0  0
  188.5740  178.7690  138.5490 O   0  0  0  0  0  1  0  0  0  0  0  0
  189.7660  178.4840  139.1270 N   0  0  0  0  0  2  0  0  0  0  0  0
  1 12  1  0  0  0  0
  2  9  1  0  0  0  0
  3  7  2  0  0  0  0
  4  9  2  0  0  0  0
  4  8  1  0  0  0  0
  5  3  1  0  0  0  0
  5  4  1  0  0  0  0
  6 11  1  0  0  0  0
  6  5  2  0  0  0  0
  7  8  1  0  0  0  0
  8  1  2  0  0  0  0
  9 10  1  0  0  0  0
 10  1  1  0  0  0  0
 11  2  2  0  0  0  0
 12 13  1  0  0  0  0
 13 14  3  0  0  0  0
 15 12  1  0  0  0  0
 16 17  1  0  0  0  0
 16 15  1  0  0  0  0
 18 21  1  0  0  0  0
 19 18  2  0  0  0  0
 19 23  1  0  0  0  0
 20 17  1  0  0  0  0
 21 20  1  0  0  0  0
 22 18  1  0  0  0  0
 23 20  2  0  0  0  0
 24 19  1  0  0  0  0
 26 25  1  6  0  0  0
 26 30  1  0  0  0  0
 27 29  1  0  0  0  0
 27 26  1  0  0  0  0
 28 24  1  0  0  0  0
 29 28  1  0  0  0  0
 30 24  1  0  0  0  0
 31 42  1  6  0  0  0
 31  6  1  0  0  0  0
 33 32  1  6  0  0  0
 33 31  1  0  0  0  0
 34 33  1  0  0  0  0
 35 34  1  0  0  0  0
 36 35  1  0  0  0  0
 36 37  2  0  0  0  0
 37 39  1  0  0  0  0
 38 36  1  0  0  0  0
 39 40  1  0  0  0  0
 41 42  1  0  0  0  0
M  END
>  <MODEL>
4

>  <REMARK>
 VINA RESULT:      -7.9      2.837      6.888
  Name = 
  14 active torsions:
  status: ('A' for Active; 'I' for Inactive)
    1  A    between atoms: N_1  and  C_10
    2  A    between atoms: N_3  and  C_4
    3  A    between atoms: N_3  and  C_6
    4  A    between atoms: N_3  and  C_9
    5  A    between atoms: C_9  and  C_29
    6  A    between atoms: C_13  and  C_32
    7  A    between atoms: C_19  and  C_23
    8  A    between atoms: C_19  and  N_33
    9  A    between atoms: C_20  and  C_36
   10  A    between atoms: C_22  and  C_31
   11  A    between atoms: C_23  and  C_31
   12  A    between atoms: C_29  and  C_32
   13  A    between atoms: C_30  and  N_33
   14  A    between atoms: C_31  and  N_39
                            x       y       z     vdW  Elec       q    Type
                         _______ _______ _______ _____ _____    ______ ____

>  <TORSDO>
F 14

$$$$
=
 OpenBabel10232412043D

 42 46  0  0  1  0  0  0  0  0999 V2000
  183.1560  179.0930  141.0600 C   0  0  0  0  0  0  0  0  0  0  0  0
  183.1880  177.6260  137.4900 C   0  0  0  0  0  3  0  0  0  0  0  0
  186.3950  178.4410  139.9410 N   0  0  0  0  0  0  0  0  0  0  0  0
  184.3620  178.9150  139.1240 C   0  0  0  0  0  0  0  0  0  0  0  0
  185.5660  178.4120  138.7710 C   0  0  0  0  0  0  0  0  0  0  0  0
  185.6550  177.5370  137.6760 C   0  0  0  0  0  0  0  0  0  0  0  0
  185.7070  178.9050  140.9200 N   0  0  0  0  0  0  0  0  0  0  0  0
  184.4000  179.2240  140.4380 C   0  0  0  0  0  0  0  0  0  0  0  0
  183.1770  178.4870  138.5940 C   0  0  0  0  0  0  0  0  0  0  0  0
  182.0510  178.5660  139.8570 S   0  0  0  0  0  0  0  0  0  0  0  0
  184.4480  177.1880  137.0020 C   0  0  0  0  0  3  0  0  0  0  0  0
  182.9000  179.1260  142.4740 N   0  0  0  0  0  0  0  0  0  0  0  0
  181.6430  178.7730  142.9890 C   0  0  0  0  0  0  0  0  0  0  0  0
  180.6070  178.4820  143.4140 N   0  0  0  0  0  0  0  0  0  0  0  0
  183.9190  179.5750  143.4140 C   0  0  0  0  0  2  0  0  0  0  0  0
  184.5430  178.3930  144.1420 C   0  0  0  0  0  2  0  0  0  0  0  0
  184.5800  178.6510  145.6380 C   0  0  0  0  0  2  0  0  0  0  0  0
  187.5580  178.1160  147.5430 C   0  0  0  0  0  0  0  0  0  0  0  0
  188.0020  177.6530  146.3140 C   0  0  0  0  0  0  0  0  0  0  0  0
  185.9230  178.3040  146.1790 C   0  0  0  0  0  0  0  0  0  0  0  0
  186.2810  178.5240  147.4590 N   0  0  0  0  0  2  0  0  0  0  0  0
  188.3330  178.1760  148.8150 C   0  0  0  0  0  1  0  0  0  0  0  0
  186.9520  177.7690  145.4220 C   0  0  0  0  0  3  0  0  0  0  0  0
  189.3030  177.1300  145.9870 N   0  0  0  0  0  0  0  0  0  0  0  0
  192.3620  175.7540  147.7150 C   0  0  0  0  0  1  0  0  0  0  0  0
  191.5670  176.5960  146.7370 C   0  0  1  0  0  3  0  0  0  0  0  0
  191.8570  176.1910  145.4210 O   0  0  0  0  0  0  0  0  0  0  0  0
  189.7730  177.0620  144.6020 C   0  0  0  0  0  2  0  0  0  0  0  0
  191.2980  177.1660  144.5740 C   0  0  0  0  0  2  0  0  0  0  0  0
  190.0750  176.4270  147.0150 C   0  0  0  0  0  2  0  0  0  0  0  0
  186.9720  176.9300  137.3010 C   0  0  2  0  0  3  0  0  0  0  0  0
  187.3400  179.2250  136.7220 O   0  0  0  0  0  1  0  0  0  0  0  0
  187.9450  177.9670  136.7290 C   0  0  1  0  0  3  0  0  0  0  0  0
  189.2620  178.0180  137.5000 C   0  0  0  0  0  2  0  0  0  0  0  0
  190.2580  177.1690  136.8600 N   0  0  0  0  0  2  0  0  0  0  0  0
  191.2480  176.4400  137.5890 C   0  0  0  0  0  0  0  0  0  0  0  0
  191.9180  175.4720  136.9610 C   0  0  0  0  0  3  0  0  0  0  0  0
  191.4980  176.7420  139.0350 C   0  0  0  0  0  1  0  0  0  0  0  0
  192.9740  174.6350  137.6100 C   0  0  0  0  0  2  0  0  0  0  0  0
  193.4580  173.5610  136.6510 C   0  0  0  0  0  1  0  0  0  0  0  0
  187.3620  174.7230  136.9890 O   0  0  0  0  0  1  0  0  0  0  0  0
  186.7880  175.7990  136.3980 N   0  0  0  0  0  2  0  0  0  0  0  0
  1 12  1  0  0  0  0
  2  9  1  0  0  0  0
  3  7  2  0  0  0  0
  4  8  1  0  0  0  0
  5  4  1  0  0  0  0
  5  3  1  0  0  0  0
  6  5  2  0  0  0  0
  8  7  1  0  0  0  0
  8  1  2  0  0  0  0
  9  4  2  0  0  0  0
  9 10  1  0  0  0  0
 10  1  1  0  0  0  0
 11  2  2  0  0  0  0
 11  6  1  0  0  0  0
 12 13  1  0  0  0  0
 12 15  1  0  0  0  0
 13 14  3  0  0  0  0
 15 16  1  0  0  0  0
 16 17  1  0  0  0  0
 17 20  1  0  0  0  0
 18 22  1  0  0  0  0
 19 18  2  0  0  0  0
 20 21  1  0  0  0  0
 21 18  1  0  0  0  0
 23 20  2  0  0  0  0
 23 19  1  0  0  0  0
 24 19  1  0  0  0  0
 24 30  1  0  0  0  0
 26 30  1  0  0  0  0
 26 25  1  1  0  0  0
 27 26  1  0  0  0  0
 28 24  1  0  0  0  0
 29 28  1  0  0  0  0
 29 27  1  0  0  0  0
 31 42  1  6  0  0  0
 31  6  1  0  0  0  0
 33 32  1  1  0  0  0
 33 31  1  0  0  0  0
 33 34  1  0  0  0  0
 35 34  1  0  0  0  0
 35 36  1  0  0  0  0
 36 38  1  0  0  0  0
 37 36  2  0  0  0  0
 37 39  1  0  0  0  0
 40 39  1  0  0  0  0
 42 41  1  0  0  0  0
M  END
>  <MODEL>
5

>  <REMARK>
 VINA RESULT:      -7.8      1.064      1.538
  Name = 
  14 active torsions:
  status: ('A' for Active; 'I' for Inactive)
    1  A    between atoms: N_1  and  C_10
    2  A    between atoms: N_3  and  C_4
    3  A    between atoms: N_3  and  C_6
    4  A    between atoms: N_3  and  C_9
    5  A    between atoms: C_9  and  C_29
    6  A    between atoms: C_13  and  C_32
    7  A    between atoms: C_19  and  C_23
    8  A    between atoms: C_19  and  N_33
    9  A    between atoms: C_20  and  C_36
   10  A    between atoms: C_22  and  C_31
   11  A    between atoms: C_23  and  C_31
   12  A    between atoms: C_29  and  C_32
   13  A    between atoms: C_30  and  N_33
   14  A    between atoms: C_31  and  N_39
                            x       y       z     vdW  Elec       q    Type
                         _______ _______ _______ _____ _____    ______ ____

>  <TORSDO>
F 14

$$$$
=
 OpenBabel10232412043D

 42 46  0  0  1  0  0  0  0  0999 V2000
  190.2120  177.3600  138.4000 C   0  0  0  0  0  0  0  0  0  0  0  0
  186.5070  178.1520  137.6630 C   0  0  0  0  0  3  0  0  0  0  0  0
  188.5490  174.6400  136.9830 N   0  0  0  0  0  0  0  0  0  0  0  0
  188.4320  176.8790  137.0450 C   0  0  0  0  0  0  0  0  0  0  0  0
  187.7070  175.7770  136.7480 C   0  0  0  0  0  0  0  0  0  0  0  0
  186.3060  175.8370  136.8090 C   0  0  0  0  0  0  0  0  0  0  0  0
  189.6830  175.0530  137.4200 N   0  0  0  0  0  0  0  0  0  0  0  0
  189.6520  176.4810  137.4700 C   0  0  0  0  0  0  0  0  0  0  0  0
  187.8990  178.0150  137.5850 C   0  0  0  0  0  0  0  0  0  0  0  0
  189.0770  178.6260  138.6370 S   0  0  0  0  0  0  0  0  0  0  0  0
  185.7070  177.0630  137.2240 C   0  0  0  0  0  3  0  0  0  0  0  0
  191.3790  177.1220  139.2060 N   0  0  0  0  0  0  0  0  0  0  0  0
  192.5450  176.5790  138.6460 C   0  0  0  0  0  0  0  0  0  0  0  0
  193.5060  176.1310  138.1830 N   0  0  0  0  0  0  0  0  0  0  0  0
  191.3710  177.3900  140.6390 C   0  0  0  0  0  2  0  0  0  0  0  0
  190.1210  176.8170  141.2910 C   0  0  0  0  0  2  0  0  0  0  0  0
  190.4830  176.0490  142.5500 C   0  0  0  0  0  2  0  0  0  0  0  0
  189.3590  177.2980  145.7060 C   0  0  0  0  0  0  0  0  0  0  0  0
  188.1730  177.4090  144.9950 C   0  0  2  0  0  3  0  0  0  0  0  0
  189.7580  176.6200  143.7180 C   0  0  0  0  0  0  0  0  0  0  0  0
  190.3330  176.8050  144.9220 N   0  0  0  0  0  0  0  0  0  0  0  0
  189.5880  177.6590  147.1330 C   0  0  0  0  0  1  0  0  0  0  0  0
  188.4200  176.9740  143.7060 C   0  0  0  0  0  3  0  0  0  0  0  0
  186.9030  177.8930  145.4700 N   0  0  2  0  0  0  0  0  0  0  0  0
  183.6210  179.1590  144.1070 C   0  0  0  0  0  1  0  0  0  0  0  0
  184.8500  179.1310  144.9920 C   0  0  1  0  0  3  0  0  0  0  0  0
  184.4660  178.9150  146.3280 O   0  0  0  0  0  0  0  0  0  0  0  0
  186.6280  178.0370  146.9000 C   0  0  0  0  0  2  0  0  0  0  0  0
  185.6080  179.1560  147.1140 C   0  0  0  0  0  2  0  0  0  0  0  0
  185.7830  178.0110  144.5330 C   0  0  0  0  0  2  0  0  0  0  0  0
  185.4860  174.6130  136.5320 C   0  0  2  0  0  3  0  0  0  0  0  0
  183.4370  174.2170  135.3550 O   0  0  0  0  0  1  0  0  0  0  0  0
  183.9910  174.9330  136.4180 C   0  0  1  0  0  3  0  0  0  0  0  0
  183.2320  174.6370  137.7090 C   0  0  0  0  0  2  0  0  0  0  0  0
  182.0610  175.4970  137.8180 N   0  0  0  0  0  2  0  0  0  0  0  0
  181.9680  176.5760  138.7510 C   0  0  0  0  0  0  0  0  0  0  0  0
  182.9710  176.7630  139.6110 C   0  0  0  0  0  3  0  0  0  0  0  0
  180.7530  177.4530  138.7750 C   0  0  0  0  0  1  0  0  0  0  0  0
  182.9960  177.8500  140.6370 C   0  0  0  0  0  2  0  0  0  0  0  0
  184.0920  178.8510  140.3180 C   0  0  0  0  0  1  0  0  0  0  0  0
  185.9090  172.4130  136.8410 O   0  0  0  0  0  1  0  0  0  0  0  0
  185.7480  173.5740  137.5210 N   0  0  0  0  0  2  0  0  0  0  0  0
  1 10  1  0  0  0  0
  1 12  1  0  0  0  0
  3  7  2  0  0  0  0
  4  8  1  0  0  0  0
  4  9  2  0  0  0  0
  5  6  2  0  0  0  0
  5  3  1  0  0  0  0
  5  4  1  0  0  0  0
  6 11  1  0  0  0  0
  7  8  1  0  0  0  0
  8  1  2  0  0  0  0
  9  2  1  0  0  0  0
  9 10  1  0  0  0  0
 11  2  2  0  0  0  0
 12 15  1  0  0  0  0
 13 12  1  0  0  0  0
 14 13  3  0  0  0  0
 15 16  1  0  0  0  0
 16 17  1  0  0  0  0
 17 20  1  0  0  0  0
 18 22  1  0  0  0  0
 19 23  1  6  0  0  0
 19 24  1  0  0  0  0
 19 18  1  0  0  0  0
 20 21  1  0  0  0  0
 21 18  2  0  0  0  0
 23 20  2  0  0  0  0
 24 30  1  1  0  0  0
 24 28  1  0  0  0  0
 26 25  1  6  0  0  0
 26 27  1  0  0  0  0
 27 29  1  0  0  0  0
 28 29  1  0  0  0  0
 30 26  1  0  0  0  0
 31  6  1  0  0  0  0
 31 42  1  1  0  0  0
 33 32  1  6  0  0  0
 33 31  1  0  0  0  0
 33 34  1  0  0  0  0
 34 35  1  0  0  0  0
 35 36  1  0  0  0  0
 36 38  1  0  0  0  0
 36 37  2  0  0  0  0
 37 39  1  0  0  0  0
 40 39  1  0  0  0  0
 41 42  1  0  0  0  0
M  END
>  <MODEL>
6

>  <REMARK>
 VINA RESULT:      -7.6      3.010      6.525
  Name = 
  14 active torsions:
  status: ('A' for Active; 'I' for Inactive)
    1  A    between atoms: N_1  and  C_10
    2  A    between atoms: N_3  and  C_4
    3  A    between atoms: N_3  and  C_6
    4  A    between atoms: N_3  and  C_9
    5  A    between atoms: C_9  and  C_29
    6  A    between atoms: C_13  and  C_32
    7  A    between atoms: C_19  and  C_23
    8  A    between atoms: C_19  and  N_33
    9  A    between atoms: C_20  and  C_36
   10  A    between atoms: C_22  and  C_31
   11  A    between atoms: C_23  and  C_31
   12  A    between atoms: C_29  and  C_32
   13  A    between atoms: C_30  and  N_33
   14  A    between atoms: C_31  and  N_39
                            x       y       z     vdW  Elec       q    Type
                         _______ _______ _______ _____ _____    ______ ____

>  <TORSDO>
F 14

$$$$
=
 OpenBabel10232412043D

 42 46  0  0  1  0  0  0  0  0999 V2000
  185.8870  178.6010  139.4870 C   0  0  0  0  0  0  0  0  0  0  0  0
  189.5150  177.2870  139.3810 C   0  0  0  0  0  3  0  0  0  0  0  0
  187.1660  178.0290  142.6820 N   0  0  0  0  0  0  0  0  0  0  0  0
  187.8770  178.5170  140.6120 C   0  0  0  0  0  0  0  0  0  0  0  0
  188.3000  178.0410  141.8050 C   0  0  0  0  0  0  0  0  0  0  0  0
  189.4340  177.2140  141.8540 C   0  0  0  0  0  0  0  0  0  0  0  0
  186.1400  178.4440  142.0310 N   0  0  0  0  0  0  0  0  0  0  0  0
  186.5530  178.7710  140.7030 C   0  0  0  0  0  0  0  0  0  0  0  0
  188.3750  178.1000  139.4090 C   0  0  0  0  0  0  0  0  0  0  0  0
  187.0650  178.1140  138.3370 S   0  0  0  0  0  0  0  0  0  0  0  0
  190.0730  176.8830  140.6230 C   0  0  0  0  0  3  0  0  0  0  0  0
  184.4630  178.5710  139.2890 N   0  0  0  0  0  0  0  0  0  0  0  0
  183.7430  179.7500  139.0460 C   0  0  0  0  0  0  0  0  0  0  0  0
  183.1490  180.7230  138.8460 N   0  0  0  0  0  0  0  0  0  0  0  0
  183.7160  177.3240  139.3850 C   0  0  0  0  0  2  0  0  0  0  0  0
  182.6160  177.2680  138.3350 C   0  0  0  0  0  2  0  0  0  0  0  0
  183.2150  177.1340  136.9450 C   0  0  0  0  0  2  0  0  0  0  0  0
  184.5790  173.8310  137.0500 C   0  0  0  0  0  0  0  0  0  0  0  0
  185.6850  174.5050  136.5530 C   0  0  0  0  0  0  0  0  0  0  0  0
  184.0220  175.8860  136.8600 C   0  0  0  0  0  0  0  0  0  0  0  0
  183.5580  174.6820  137.2460 N   0  0  0  0  0  2  0  0  0  0  0  0
  184.4720  172.3740  137.3420 C   0  0  0  0  0  1  0  0  0  0  0  0
  185.3350  175.8370  136.4250 C   0  0  0  0  0  3  0  0  0  0  0  0
  186.9710  173.9570  136.2100 N   0  0  0  0  0  0  0  0  0  0  0  0
  190.6250  174.5160  136.9650 C   0  0  0  0  0  1  0  0  0  0  0  0
  189.3940  174.2640  136.1180 C   0  0  1  0  0  3  0  0  0  0  0  0
  189.4840  172.9940  135.5190 O   0  0  0  0  0  0  0  0  0  0  0  0
  187.1000  172.8490  135.2610 C   0  0  0  0  0  2  0  0  0  0  0  0
  188.4560  172.9330  134.5610 C   0  0  0  0  0  2  0  0  0  0  0  0
  188.1470  174.3350  136.9980 C   0  0  0  0  0  2  0  0  0  0  0  0
  189.8890  176.6360  143.1600 C   0  0  2  0  0  3  0  0  0  0  0  0
  191.4700  178.4300  143.0050 O   0  0  0  0  0  1  0  0  0  0  0  0
  190.8340  177.5810  143.9130 C   0  0  1  0  0  3  0  0  0  0  0  0
  190.1110  178.3950  144.9830 C   0  0  0  0  0  2  0  0  0  0  0  0
  189.6350  177.5240  146.0490 N   0  0  0  0  0  2  0  0  0  0  0  0
  188.3490  177.6640  146.6570 C   0  0  0  0  0  0  0  0  0  0  0  0
  187.2730  177.7130  145.8680 C   0  0  0  0  0  3  0  0  0  0  0  0
  188.2240  177.7850  148.1450 C   0  0  0  0  0  1  0  0  0  0  0  0
  185.8740  177.8600  146.3770 C   0  0  0  0  0  2  0  0  0  0  0  0
  185.1490  178.9550  145.6140 C   0  0  0  0  0  1  0  0  0  0  0  0
  191.5900  175.2630  143.7400 O   0  0  0  0  0  1  0  0  0  0  0  0
  190.4770  175.3150  142.9700 N   0  0  0  0  0  2  0  0  0  0  0  0
  1  8  2  0  0  0  0
  2  9  2  0  0  0  0
  2 11  1  0  0  0  0
  4  8  1  0  0  0  0
  4  5  2  0  0  0  0
  5  6  1  0  0  0  0
  5  3  1  0  0  0  0
  6 31  1  0  0  0  0
  7  3  2  0  0  0  0
  8  7  1  0  0  0  0
  9  4  1  0  0  0  0
 10  9  1  0  0  0  0
 10  1  1  0  0  0  0
 11  6  2  0  0  0  0
 12 15  1  0  0  0  0
 12  1  1  0  0  0  0
 13 12  1  0  0  0  0
 14 13  3  0  0  0  0
 16 15  1  0  0  0  0
 17 16  1  0  0  0  0
 18 21  1  0  0  0  0
 18 22  1  0  0  0  0
 19 18  2  0  0  0  0
 20 17  1  0  0  0  0
 20 21  1  0  0  0  0
 23 19  1  0  0  0  0
 23 20  2  0  0  0  0
 24 19  1  0  0  0  0
 24 30  1  0  0  0  0
 26 25  1  1  0  0  0
 26 30  1  0  0  0  0
 27 26  1  0  0  0  0
 28 24  1  0  0  0  0
 29 28  1  0  0  0  0
 29 27  1  0  0  0  0
 31 42  1  6  0  0  0
 31 33  1  0  0  0  0
 33 32  1  6  0  0  0
 33 34  1  0  0  0  0
 34 35  1  0  0  0  0
 35 36  1  0  0  0  0
 36 38  1  0  0  0  0
 37 39  1  0  0  0  0
 37 36  2  0  0  0  0
 40 39  1  0  0  0  0
 42 41  1  0  0  0  0
M  END
>  <MODEL>
7

>  <REMARK>
 VINA RESULT:      -7.5      2.643      8.177
  Name = 
  14 active torsions:
  status: ('A' for Active; 'I' for Inactive)
    1  A    between atoms: N_1  and  C_10
    2  A    between atoms: N_3  and  C_4
    3  A    between atoms: N_3  and  C_6
    4  A    between atoms: N_3  and  C_9
    5  A    between atoms: C_9  and  C_29
    6  A    between atoms: C_13  and  C_32
    7  A    between atoms: C_19  and  C_23
    8  A    between atoms: C_19  and  N_33
    9  A    between atoms: C_20  and  C_36
   10  A    between atoms: C_22  and  C_31
   11  A    between atoms: C_23  and  C_31
   12  A    between atoms: C_29  and  C_32
   13  A    between atoms: C_30  and  N_33
   14  A    between atoms: C_31  and  N_39
                            x       y       z     vdW  Elec       q    Type
                         _______ _______ _______ _____ _____    ______ ____

>  <TORSDO>
F 14

$$$$
=
 OpenBabel10232412043D

 42 46  0  0  1  0  0  0  0  0999 V2000
  183.7000  178.2810  140.4550 C   0  0  0  0  0  0  0  0  0  0  0  0
  183.7990  176.4880  137.0390 C   0  0  0  0  0  3  0  0  0  0  0  0
  186.8020  178.6090  138.8950 N   0  0  0  0  0  0  0  0  0  0  0  0
  184.6460  178.2800  138.3730 C   0  0  0  0  0  0  0  0  0  0  0  0
  185.8980  178.1660  137.8740 C   0  0  0  0  0  0  0  0  0  0  0  0
  186.1490  177.2450  136.8450 C   0  0  0  0  0  0  0  0  0  0  0  0
  186.1210  178.9330  139.9340 N   0  0  0  0  0  0  0  0  0  0  0  0
  184.7360  178.7410  139.6400 C   0  0  0  0  0  0  0  0  0  0  0  0
  183.6270  177.4240  138.0670 C   0  0  0  0  0  0  0  0  0  0  0  0
  182.7060  177.2760  139.4800 S   0  0  0  0  0  0  0  0  0  0  0  0
  185.0640  176.4370  136.3930 C   0  0  0  0  0  3  0  0  0  0  0  0
  183.6220  178.3970  141.8860 N   0  0  0  0  0  0  0  0  0  0  0  0
  182.4220  178.7580  142.5180 C   0  0  0  0  0  0  0  0  0  0  0  0
  181.4320  179.0560  143.0380 N   0  0  0  0  0  0  0  0  0  0  0  0
  184.7980  178.1940  142.7230 C   0  0  0  0  0  2  0  0  0  0  0  0
  184.8100  179.1710  143.8890 C   0  0  0  0  0  2  0  0  0  0  0  0
  184.6270  178.4320  145.2030 C   0  0  0  0  0  2  0  0  0  0  0  0
  187.5210  178.1630  147.2860 C   0  0  0  0  0  0  0  0  0  0  0  0
  188.0460  177.6340  146.1160 C   0  0  0  0  0  0  0  0  0  0  0  0
  185.9530  178.1830  145.8330 C   0  0  0  0  0  0  0  0  0  0  0  0
  186.2340  178.5090  147.1090 N   0  0  0  0  0  2  0  0  0  0  0  0
  188.2260  178.3470  148.5850 C   0  0  0  0  0  1  0  0  0  0  0  0
  187.0400  177.6410  145.1690 C   0  0  0  0  0  3  0  0  0  0  0  0
  189.3820  177.1450  145.8930 N   0  0  0  0  0  0  0  0  0  0  0  0
  192.3230  175.8250  147.8540 C   0  0  0  0  0  1  0  0  0  0  0  0
  191.5900  176.6580  146.8210 C   0  0  1  0  0  3  0  0  0  0  0  0
  191.9960  176.2750  145.5300 O   0  0  0  0  0  0  0  0  0  0  0  0
  189.9650  177.1040  144.5510 C   0  0  0  0  0  2  0  0  0  0  0  0
  191.4840  177.2450  144.6490 C   0  0  0  0  0  2  0  0  0  0  0  0
  190.0840  176.4500  146.9740 C   0  0  0  0  0  2  0  0  0  0  0  0
  187.5390  177.0670  136.3130 C   0  0  2  0  0  3  0  0  0  0  0  0
  187.8650  175.6070  138.1830 O   0  0  0  0  0  1  0  0  0  0  0  0
  188.2010  175.7900  136.8410 C   0  0  1  0  0  3  0  0  0  0  0  0
  187.8190  174.5560  136.0270 C   0  0  0  0  0  2  0  0  0  0  0  0
  187.3220  173.5030  136.9020 N   0  0  0  0  0  2  0  0  0  0  0  0
  186.2170  172.6620  136.5630 C   0  0  0  0  0  0  0  0  0  0  0  0
  185.0550  172.8530  137.1910 C   0  0  0  0  0  3  0  0  0  0  0  0
  186.3790  171.5720  135.5480 C   0  0  0  0  0  1  0  0  0  0  0  0
  183.8260  172.0420  136.9320 C   0  0  0  0  0  2  0  0  0  0  0  0
  182.5960  172.9330  136.9330 C   0  0  0  0  0  1  0  0  0  0  0  0
  189.6470  177.8580  136.5260 O   0  0  0  0  0  1  0  0  0  0  0  0
  188.3510  178.2500  136.5720 N   0  0  0  0  0  2  0  0  0  0  0  0
  1 12  1  0  0  0  0
  2  9  1  0  0  0  0
  3  7  2  0  0  0  0
  4  8  1  0  0  0  0
  5  4  1  0  0  0  0
  5  3  1  0  0  0  0
  6  5  2  0  0  0  0
  8  7  1  0  0  0  0
  8  1  2  0  0  0  0
  9  4  2  0  0  0  0
  9 10  1  0  0  0  0
 10  1  1  0  0  0  0
 11  6  1  0  0  0  0
 11  2  2  0  0  0  0
 12 13  1  0  0  0  0
 12 15  1  0  0  0  0
 13 14  3  0  0  0  0
 15 16  1  0  0  0  0
 16 17  1  0  0  0  0
 17 20  1  0  0  0  0
 18 22  1  0  0  0  0
 19 18  2  0  0  0  0
 20 21  1  0  0  0  0
 21 18  1  0  0  0  0
 23 20  2  0  0  0  0
 23 19  1  0  0  0  0
 24 19  1  0  0  0  0
 24 30  1  0  0  0  0
 26 30  1  0  0  0  0
 26 25  1  1  0  0  0
 27 26  1  0  0  0  0
 28 29  1  0  0  0  0
 28 24  1  0  0  0  0
 29 27  1  0  0  0  0
 31 42  1  1  0  0  0
 31 33  1  0  0  0  0
 31  6  1  0  0  0  0
 33 32  1  1  0  0  0
 34 33  1  0  0  0  0
 34 35  1  0  0  0  0
 36 35  1  0  0  0  0
 36 37  2  0  0  0  0
 38 36  1  0  0  0  0
 39 40  1  0  0  0  0
 39 37  1  0  0  0  0
 41 42  1  0  0  0  0
M  END
>  <MODEL>
8

>  <REMARK>
 VINA RESULT:      -7.5      2.019      3.185
  Name = 
  14 active torsions:
  status: ('A' for Active; 'I' for Inactive)
    1  A    between atoms: N_1  and  C_10
    2  A    between atoms: N_3  and  C_4
    3  A    between atoms: N_3  and  C_6
    4  A    between atoms: N_3  and  C_9
    5  A    between atoms: C_9  and  C_29
    6  A    between atoms: C_13  and  C_32
    7  A    between atoms: C_19  and  C_23
    8  A    between atoms: C_19  and  N_33
    9  A    between atoms: C_20  and  C_36
   10  A    between atoms: C_22  and  C_31
   11  A    between atoms: C_23  and  C_31
   12  A    between atoms: C_29  and  C_32
   13  A    between atoms: C_30  and  N_33
   14  A    between atoms: C_31  and  N_39
                            x       y       z     vdW  Elec       q    Type
                         _______ _______ _______ _____ _____    ______ ____

>  <TORSDO>
F 14

$$$$
=
 OpenBabel10232412043D

 42 46  0  0  1  0  0  0  0  0999 V2000
  187.5950  178.3640  140.6240 C   0  0  0  0  0  0  0  0  0  0  0  0
  184.2690  178.5540  142.5730 C   0  0  0  0  0  3  0  0  0  0  0  0
  184.8300  178.3610  138.4980 N   0  0  0  0  0  0  0  0  0  0  0  0
  185.4200  179.0670  140.5430 C   0  0  0  0  0  0  0  0  0  0  0  0
  184.3410  178.8020  139.7710 C   0  0  0  0  0  0  0  0  0  0  0  0
  183.1190  178.4790  140.3830 C   0  0  0  0  0  0  0  0  0  0  0  0
  186.1130  178.3400  138.5350 N   0  0  0  0  0  0  0  0  0  0  0  0
  186.5310  178.7890  139.8260 C   0  0  0  0  0  0  0  0  0  0  0  0
  185.4540  178.8630  141.8940 C   0  0  0  0  0  0  0  0  0  0  0  0
  187.0320  178.3590  142.2460 S   0  0  0  0  0  0  0  0  0  0  0  0
  183.0820  178.4080  141.8060 C   0  0  0  0  0  3  0  0  0  0  0  0
  188.8280  177.7840  140.1660 N   0  0  0  0  0  0  0  0  0  0  0  0
  189.2660  177.9670  138.8460 C   0  0  0  0  0  0  0  0  0  0  0  0
  189.6270  178.1180  137.7560 N   0  0  0  0  0  0  0  0  0  0  0  0
  189.6370  176.9460  141.0420 C   0  0  0  0  0  2  0  0  0  0  0  0
  190.7950  177.7380  141.6330 C   0  0  0  0  0  2  0  0  0  0  0  0
  191.6790  176.8370  142.4770 C   0  0  0  0  0  2  0  0  0  0  0  0
  191.1870  176.5410  146.0060 C   0  0  0  0  0  0  0  0  0  0  0  0
  189.9590  177.0860  145.6620 C   0  0  2  0  0  3  0  0  0  0  0  0
  191.2140  176.8520  143.8910 C   0  0  0  0  0  0  0  0  0  0  0  0
  191.9570  176.3890  144.9150 N   0  0  0  0  0  0  0  0  0  0  0  0
  191.6500  176.1600  147.3700 C   0  0  0  0  0  1  0  0  0  0  0  0
  189.9650  177.2920  144.2940 C   0  0  0  0  0  3  0  0  0  0  0  0
  188.8600  177.4040  146.5360 N   0  0  2  0  0  0  0  0  0  0  0  0
  185.2310  178.4180  146.3350 C   0  0  0  0  0  1  0  0  0  0  0  0
  186.6700  178.4550  146.8090 C   0  0  1  0  0  3  0  0  0  0  0  0
  186.7280  178.1100  148.1720 O   0  0  0  0  0  0  0  0  0  0  0  0
  189.0220  177.4220  147.9910 C   0  0  0  0  0  2  0  0  0  0  0  0
  188.0320  178.4130  148.6030 C   0  0  0  0  0  2  0  0  0  0  0  0
  187.5020  177.4700  145.9890 C   0  0  0  0  0  2  0  0  0  0  0  0
  181.9250  178.1340  139.5450 C   0  0  2  0  0  3  0  0  0  0  0  0
  181.4470  180.4520  139.9160 O   0  0  0  0  0  1  0  0  0  0  0  0
  180.8560  179.2330  139.5820 C   0  0  1  0  0  3  0  0  0  0  0  0
  180.1000  179.3550  138.2620 C   0  0  0  0  0  2  0  0  0  0  0  0
  180.9840  179.8450  137.2130 N   0  0  0  0  0  2  0  0  0  0  0  0
  180.7290  181.0400  136.4710 C   0  0  0  0  0  0  0  0  0  0  0  0
  180.7510  182.2080  137.1170 C   0  0  0  0  0  3  0  0  0  0  0  0
  180.4130  180.9700  135.0090 C   0  0  0  0  0  1  0  0  0  0  0  0
  180.4980  183.5270  136.4600 C   0  0  0  0  0  2  0  0  0  0  0  0
  181.4810  184.5670  136.9690 C   0  0  0  0  0  1  0  0  0  0  0  0
  182.0640  175.9020  139.2070 O   0  0  0  0  0  1  0  0  0  0  0  0
  181.3830  176.8330  139.9180 N   0  0  0  0  0  2  0  0  0  0  0  0
  1 10  1  0  0  0  0
  3  7  2  0  0  0  0
  3  5  1  0  0  0  0
  4  9  2  0  0  0  0
  5  6  2  0  0  0  0
  5  4  1  0  0  0  0
  6 11  1  0  0  0  0
  7  8  1  0  0  0  0
  8  4  1  0  0  0  0
  8  1  2  0  0  0  0
  9 10  1  0  0  0  0
  9  2  1  0  0  0  0
 11  2  2  0  0  0  0
 12  1  1  0  0  0  0
 12 15  1  0  0  0  0
 13 12  1  0  0  0  0
 14 13  3  0  0  0  0
 15 16  1  0  0  0  0
 16 17  1  0  0  0  0
 17 20  1  0  0  0  0
 18 22  1  0  0  0  0
 19 23  1  1  0  0  0
 19 18  1  0  0  0  0
 19 24  1  0  0  0  0
 20 23  2  0  0  0  0
 20 21  1  0  0  0  0
 21 18  2  0  0  0  0
 24 30  1  1  0  0  0
 24 28  1  0  0  0  0
 26 25  1  6  0  0  0
 26 27  1  0  0  0  0
 27 29  1  0  0  0  0
 28 29  1  0  0  0  0
 30 26  1  0  0  0  0
 31 33  1  0  0  0  0
 31 42  1  1  0  0  0
 31  6  1  0  0  0  0
 33 32  1  6  0  0  0
 34 33  1  0  0  0  0
 35 34  1  0  0  0  0
 36 37  2  0  0  0  0
 36 35  1  0  0  0  0
 38 36  1  0  0  0  0
 39 40  1  0  0  0  0
 39 37  1  0  0  0  0
 41 42  1  0  0  0  0
M  END
>  <MODEL>
9

>  <REMARK>
 VINA RESULT:      -7.4      3.095      6.711
  Name = 
  14 active torsions:
  status: ('A' for Active; 'I' for Inactive)
    1  A    between atoms: N_1  and  C_10
    2  A    between atoms: N_3  and  C_4
    3  A    between atoms: N_3  and  C_6
    4  A    between atoms: N_3  and  C_9
    5  A    between atoms: C_9  and  C_29
    6  A    between atoms: C_13  and  C_32
    7  A    between atoms: C_19  and  C_23
    8  A    between atoms: C_19  and  N_33
    9  A    between atoms: C_20  and  C_36
   10  A    between atoms: C_22  and  C_31
   11  A    between atoms: C_23  and  C_31
   12  A    between atoms: C_29  and  C_32
   13  A    between atoms: C_30  and  N_33
   14  A    between atoms: C_31  and  N_39
                            x       y       z     vdW  Elec       q    Type
                         _______ _______ _______ _____ _____    ______ ____

>  <TORSDO>
F 14

$$$$
