=
 OpenBabel10222421593D

 44 48  0  0  1  0  0  0  0  0999 V2000
  189.6990  177.1260  141.0290 C   0  0  2  0  0  3  0  0  0  0  0  0
  191.8510  177.0900  139.8270 C   0  0  0  0  0  0  0  0  0  0  0  0
  189.4370  174.9820  135.1980 N   0  0  0  0  0  0  0  0  0  0  0  0
  188.6470  177.0710  136.7910 C   0  0  0  0  0  0  0  0  0  0  0  0
  188.7060  176.0010  134.6810 C   0  0  0  0  0  3  0  0  0  0  0  0
  193.2990  177.4220  139.7930 C   0  0  0  0  0  1  0  0  0  0  0  0
  188.3120  177.0290  135.4750 N   0  0  0  0  0  0  0  0  0  0  0  0
  191.0770  177.4840  140.9240 O   0  0  0  0  0  0  0  0  0  0  0  0
  189.4110  176.0240  137.3520 C   0  0  0  0  0  0  0  0  0  0  0  0
  191.3090  176.4770  138.8150 N   0  0  0  0  0  0  0  0  0  0  0  0
  188.1230  178.2090  137.6360 C   0  0  2  0  0  3  0  0  0  0  0  0
  188.8820  178.3720  138.9540 C   0  0  0  0  0  2  0  0  0  0  0  0
  189.8940  176.0900  138.7820 C   0  0  1  0  0  3  0  0  0  0  0  0
  189.7930  174.9650  136.5100 C   0  0  0  0  0  0  0  0  0  0  0  0
  189.0340  177.0200  139.6490 C   0  0  1  0  0  3  0  0  0  0  0  0
  184.4700  177.3720  137.0910 C   0  0  0  0  0  3  0  0  0  0  0  0
  185.8530  177.4500  136.9180 C   0  0  0  0  0  3  0  0  0  0  0  0
  186.6430  178.1060  137.8650 C   0  0  0  0  0  0  0  0  0  0  0  0
  186.0380  178.6920  138.9880 C   0  0  0  0  0  3  0  0  0  0  0  0
  183.8640  177.9350  138.2240 C   0  0  0  0  0  0  0  0  0  0  0  0
  184.6530  178.6140  139.1610 C   0  0  0  0  0  3  0  0  0  0  0  0
  182.7150  175.7880  139.4570 O   0  0  0  0  0  1  0  0  0  0  0  0
  181.7390  176.8130  137.5490 C   0  0  0  0  0  2  0  0  0  0  0  0
  182.3640  177.9420  138.3540 C   0  0  1  0  0  3  0  0  0  0  0  0
  181.7540  176.7220  139.0600 C   0  0  2  0  0  3  0  0  0  0  0  0
  188.9450  177.9050  142.1300 C   0  0  2  0  0  3  0  0  0  0  0  0
  189.8590  178.4080  143.2340 C   0  0  0  0  0  1  0  0  0  0  0  0
  187.6780  177.2640  142.7090 C   0  0  2  0  0  3  0  0  0  0  0  0
  186.5390  178.0250  142.4430 O   0  0  0  0  0  1  0  0  0  0  0  0
  187.8130  177.0180  144.1760 C   0  0  0  0  0  3  0  0  0  0  0  0
  186.9830  177.6030  145.0340 C   0  0  0  0  0  3  0  0  0  0  0  0
  187.1280  177.3570  146.4980 C   0  0  0  0  0  2  0  0  0  0  0  0
  188.4280  177.9560  147.0030 C   0  0  0  0  0  2  0  0  0  0  0  0
  189.3720  176.8550  147.4520 C   0  0  0  0  0  2  0  0  0  0  0  0
  190.6610  176.9080  146.6550 C   0  0  0  0  0  2  0  0  0  0  0  0
  191.7570  176.9290  147.5210 O   0  0  0  0  0  0  0  0  0  0  0  0
  192.3370  175.6690  147.3830 C   0  0  0  0  0  1  0  0  0  0  0  0
  190.5960  173.8130  137.0300 C   0  0  0  0  0  2  0  0  0  0  0  0
  191.5570  173.2940  135.9690 C   0  0  0  0  0  2  0  0  0  0  0  0
  192.7860  174.0780  135.9740 N   0  0  0  0  0  2  0  0  0  0  0  0
  194.6240  174.4470  137.5920 C   0  0  0  0  0  0  0  0  0  0  0  0
  194.8710  175.6210  137.1110 N   0  0  0  0  0  2  0  0  0  0  0  0
  195.4000  173.9510  138.7570 C   0  0  0  0  0  1  0  0  0  0  0  0
  193.5610  173.6500  137.0640 N   0  0  0  0  0  2  0  0  0  0  0  0
  1 26  1  1  0  0  0
  2  8  1  0  0  0  0
  3 14  1  0  0  0  0
  4  9  1  0  0  0  0
  4 11  1  0  0  0  0
  5  3  2  0  0  0  0
  5  7  1  0  0  0  0
  6  2  1  0  0  0  0
  7  4  2  0  0  0  0
  8  1  1  0  0  0  0
 10  2  2  0  0  0  0
 11 18  1  1  0  0  0
 11 12  1  0  0  0  0
 13  9  1  6  0  0  0
 13 10  1  0  0  0  0
 13 15  1  0  0  0  0
 14 38  1  0  0  0  0
 14  9  2  0  0  0  0
 15 12  1  6  0  0  0
 15  1  1  0  0  0  0
 16 20  1  0  0  0  0
 17 16  2  0  0  0  0
 17 18  1  0  0  0  0
 18 19  2  0  0  0  0
 19 21  1  0  0  0  0
 20 21  2  0  0  0  0
 23 24  1  0  0  0  0
 23 25  1  0  0  0  0
 24 20  1  6  0  0  0
 24 25  1  0  0  0  0
 25 22  1  6  0  0  0
 26 28  1  0  0  0  0
 26 27  1  1  0  0  0
 28 29  1  1  0  0  0
 28 30  1  0  0  0  0
 30 31  2  0  0  0  0
 31 32  1  0  0  0  0
 32 33  1  0  0  0  0
 33 34  1  0  0  0  0
 35 34  1  0  0  0  0
 35 36  1  0  0  0  0
 37 36  1  0  0  0  0
 39 40  1  0  0  0  0
 39 38  1  0  0  0  0
 40 44  1  0  0  0  0
 41 43  1  0  0  0  0
 42 41  2  0  0  0  0
 44 41  1  0  0  0  0
M  END
>  <MODEL>
1

>  <REMARK>
 VINA RESULT:      -7.8      0.000      0.000
  Name = 
  14 active torsions:
  status: ('A' for Active; 'I' for Inactive)
    1  A    between atoms: C_2  and  C_31
    2  A    between atoms: C_4  and  O_27
    3  A    between atoms: C_4  and  C_36
    4  A    between atoms: C_8  and  C_23
    5  A    between atoms: C_8  and  N_42
    6  A    between atoms: C_11  and  C_34
    7  A    between atoms: C_11  and  C_38
    8  A    between atoms: C_12  and  C_13
    9  A    between atoms: C_12  and  C_31
   10  A    between atoms: C_23  and  C_41
   11  A    between atoms: C_24  and  C_26
   12  A    between atoms: N_29  and  N_42
   13  A    between atoms: C_30  and  C_33
   14  A    between atoms: C_34  and  C_36
                            x       y       z     vdW  Elec       q    Type
                         _______ _______ _______ _____ _____    ______ ____

>  <TORSDO>
F 14

$$$$
=
 OpenBabel10222421593D

 44 48  0  0  1  0  0  0  0  0999 V2000
  190.1060  177.0210  141.0700 C   0  0  2  0  0  3  0  0  0  0  0  0
  192.1820  177.0050  139.7410 C   0  0  0  0  0  0  0  0  0  0  0  0
  189.4680  175.1090  135.1880 N   0  0  0  0  0  0  0  0  0  0  0  0
  188.8040  177.1440  136.9040 C   0  0  0  0  0  0  0  0  0  0  0  0
  188.7220  176.1560  134.7550 C   0  0  0  0  0  3  0  0  0  0  0  0
  193.6300  177.3200  139.6330 C   0  0  0  0  0  1  0  0  0  0  0  0
  188.3910  177.1570  135.6100 N   0  0  0  0  0  0  0  0  0  0  0  0
  191.4800  177.3650  140.8970 O   0  0  0  0  0  0  0  0  0  0  0  0
  189.5840  176.0660  137.3780 C   0  0  0  0  0  0  0  0  0  0  0  0
  191.5720  176.4390  138.7410 N   0  0  0  0  0  0  0  0  0  0  0  0
  188.3470  178.2540  137.8210 C   0  0  2  0  0  3  0  0  0  0  0  0
  189.1850  178.3570  139.0970 C   0  0  0  0  0  2  0  0  0  0  0  0
  190.1520  176.0700  138.7780 C   0  0  1  0  0  3  0  0  0  0  0  0
  189.9000  175.0360  136.4740 C   0  0  0  0  0  0  0  0  0  0  0  0
  189.3590  176.9770  139.7300 C   0  0  1  0  0  3  0  0  0  0  0  0
  185.0740  178.4930  139.7100 C   0  0  0  0  0  3  0  0  0  0  0  0
  186.4260  178.6000  139.3800 C   0  0  0  0  0  3  0  0  0  0  0  0
  186.8820  178.1610  138.1350 C   0  0  0  0  0  0  0  0  0  0  0  0
  185.9750  177.6050  137.2200 C   0  0  0  0  0  3  0  0  0  0  0  0
  184.1600  177.9600  138.7890 C   0  0  0  0  0  0  0  0  0  0  0  0
  184.6210  177.4960  137.5500 C   0  0  0  0  0  3  0  0  0  0  0  0
  182.4390  180.0390  138.3850 O   0  0  0  0  0  1  0  0  0  0  0  0
  182.3270  178.6740  140.3260 C   0  0  0  0  0  2  0  0  0  0  0  0
  182.7240  177.7460  139.1870 C   0  0  1  0  0  3  0  0  0  0  0  0
  181.7840  178.9350  138.9370 C   0  0  2  0  0  3  0  0  0  0  0  0
  189.4300  177.7650  142.2430 C   0  0  2  0  0  3  0  0  0  0  0  0
  190.4260  178.4210  143.1840 C   0  0  0  0  0  1  0  0  0  0  0  0
  188.3410  177.0180  143.0220 C   0  0  2  0  0  3  0  0  0  0  0  0
  187.0690  177.5300  142.7650 O   0  0  0  0  0  1  0  0  0  0  0  0
  188.6210  177.0230  144.4890 C   0  0  0  0  0  3  0  0  0  0  0  0
  187.7020  177.4590  145.3470 C   0  0  0  0  0  3  0  0  0  0  0  0
  187.9910  177.4660  146.8100 C   0  0  0  0  0  2  0  0  0  0  0  0
  186.9300  178.2610  147.5490 C   0  0  0  0  0  2  0  0  0  0  0  0
  185.9980  178.9380  146.5600 C   0  0  0  0  0  2  0  0  0  0  0  0
  184.6040  178.3520  146.6620 C   0  0  0  0  0  2  0  0  0  0  0  0
  183.7230  179.0760  145.8550 O   0  0  0  0  0  0  0  0  0  0  0  0
  184.3990  179.2270  144.6450 C   0  0  0  0  0  1  0  0  0  0  0  0
  190.7150  173.8550  136.9010 C   0  0  0  0  0  2  0  0  0  0  0  0
  191.8300  173.5720  135.9030 C   0  0  0  0  0  2  0  0  0  0  0  0
  192.9610  174.4590  136.1440 N   0  0  0  0  0  2  0  0  0  0  0  0
  194.9010  174.4860  137.6840 C   0  0  0  0  0  0  0  0  0  0  0  0
  195.5270  175.3460  136.9500 N   0  0  0  0  0  2  0  0  0  0  0  0
  195.5120  174.0180  138.9540 C   0  0  0  0  0  1  0  0  0  0  0  0
  193.5910  174.0360  137.3250 N   0  0  0  0  0  2  0  0  0  0  0  0
  1 26  1  1  0  0  0
  2  8  1  0  0  0  0
  3 14  1  0  0  0  0
  4  9  1  0  0  0  0
  4 11  1  0  0  0  0
  5  3  2  0  0  0  0
  5  7  1  0  0  0  0
  6  2  1  0  0  0  0
  7  4  2  0  0  0  0
  8  1  1  0  0  0  0
 10 13  1  0  0  0  0
 10  2  2  0  0  0  0
 11 18  1  1  0  0  0
 11 12  1  0  0  0  0
 13  9  1  6  0  0  0
 13 15  1  0  0  0  0
 14 38  1  0  0  0  0
 14  9  2  0  0  0  0
 15 12  1  6  0  0  0
 15  1  1  0  0  0  0
 17 16  1  0  0  0  0
 18 17  2  0  0  0  0
 19 21  2  0  0  0  0
 19 18  1  0  0  0  0
 20 16  2  0  0  0  0
 21 20  1  0  0  0  0
 24 20  1  6  0  0  0
 24 23  1  0  0  0  0
 25 22  1  6  0  0  0
 25 24  1  0  0  0  0
 25 23  1  0  0  0  0
 26 28  1  0  0  0  0
 26 27  1  1  0  0  0
 28 29  1  1  0  0  0
 28 30  1  0  0  0  0
 30 31  2  0  0  0  0
 31 32  1  0  0  0  0
 32 33  1  0  0  0  0
 34 35  1  0  0  0  0
 34 33  1  0  0  0  0
 36 35  1  0  0  0  0
 37 36  1  0  0  0  0
 39 40  1  0  0  0  0
 39 38  1  0  0  0  0
 40 44  1  0  0  0  0
 41 43  1  0  0  0  0
 42 41  2  0  0  0  0
 44 41  1  0  0  0  0
M  END
>  <MODEL>
2

>  <REMARK>
 VINA RESULT:      -7.6      1.597      2.528
  Name = 
  14 active torsions:
  status: ('A' for Active; 'I' for Inactive)
    1  A    between atoms: C_2  and  C_31
    2  A    between atoms: C_4  and  O_27
    3  A    between atoms: C_4  and  C_36
    4  A    between atoms: C_8  and  C_23
    5  A    between atoms: C_8  and  N_42
    6  A    between atoms: C_11  and  C_34
    7  A    between atoms: C_11  and  C_38
    8  A    between atoms: C_12  and  C_13
    9  A    between atoms: C_12  and  C_31
   10  A    between atoms: C_23  and  C_41
   11  A    between atoms: C_24  and  C_26
   12  A    between atoms: N_29  and  N_42
   13  A    between atoms: C_30  and  C_33
   14  A    between atoms: C_34  and  C_36
                            x       y       z     vdW  Elec       q    Type
                         _______ _______ _______ _____ _____    ______ ____

>  <TORSDO>
F 14

$$$$
=
 OpenBabel10222421593D

 44 48  0  0  1  0  0  0  0  0999 V2000
  189.9450  176.9940  141.1570 C   0  0  2  0  0  3  0  0  0  0  0  0
  192.1110  177.1420  139.9890 C   0  0  0  0  0  0  0  0  0  0  0  0
  189.8230  175.4120  135.1450 N   0  0  0  0  0  0  0  0  0  0  0  0
  188.9460  177.3120  136.9180 C   0  0  0  0  0  0  0  0  0  0  0  0
  189.0650  176.4510  134.7170 C   0  0  0  0  0  3  0  0  0  0  0  0
  193.5480  177.5210  140.0080 C   0  0  0  0  0  1  0  0  0  0  0  0
  188.6280  177.3850  135.5990 N   0  0  0  0  0  0  0  0  0  0  0  0
  191.3120  177.4040  141.1080 O   0  0  0  0  0  0  0  0  0  0  0  0
  189.7370  176.2410  137.3880 C   0  0  0  0  0  0  0  0  0  0  0  0
  191.6020  176.6120  138.9150 N   0  0  0  0  0  0  0  0  0  0  0  0
  188.3750  178.3460  137.8590 C   0  0  2  0  0  3  0  0  0  0  0  0
  189.1120  178.4070  139.1990 C   0  0  0  0  0  2  0  0  0  0  0  0
  190.2010  176.1840  138.8250 C   0  0  1  0  0  3  0  0  0  0  0  0
  190.1640  175.2800  136.4540 C   0  0  0  0  0  0  0  0  0  0  0  0
  189.3010  177.0000  139.7640 C   0  0  1  0  0  3  0  0  0  0  0  0
  184.7570  177.4510  137.1830 C   0  0  0  0  0  3  0  0  0  0  0  0
  186.1390  177.5900  137.0380 C   0  0  0  0  0  3  0  0  0  0  0  0
  186.8960  178.1750  138.0560 C   0  0  0  0  0  0  0  0  0  0  0  0
  186.2590  178.6300  139.2210 C   0  0  0  0  0  3  0  0  0  0  0  0
  184.1210  177.8820  138.3560 C   0  0  0  0  0  0  0  0  0  0  0  0
  184.8750  178.4920  139.3660 C   0  0  0  0  0  3  0  0  0  0  0  0
  183.0130  175.5010  139.1020 O   0  0  0  0  0  1  0  0  0  0  0  0
  182.0290  176.8780  137.4340 C   0  0  0  0  0  2  0  0  0  0  0  0
  182.6200  177.8300  138.4630 C   0  0  1  0  0  3  0  0  0  0  0  0
  182.0340  176.4770  138.8930 C   0  0  2  0  0  3  0  0  0  0  0  0
  189.1530  177.6390  142.3160 C   0  0  2  0  0  3  0  0  0  0  0  0
  189.9270  178.7360  143.0270 C   0  0  0  0  0  1  0  0  0  0  0  0
  188.4760  176.7000  143.3200 C   0  0  2  0  0  3  0  0  0  0  0  0
  188.7590  175.3590  143.0550 O   0  0  0  0  0  1  0  0  0  0  0  0
  187.0000  176.9240  143.3680 C   0  0  0  0  0  3  0  0  0  0  0  0
  186.4790  178.0620  142.9170 C   0  0  0  0  0  3  0  0  0  0  0  0
  185.0050  178.2810  142.9730 C   0  0  0  0  0  2  0  0  0  0  0  0
  184.6960  179.5720  143.7100 C   0  0  0  0  0  2  0  0  0  0  0  0
  183.8130  179.2910  144.9120 C   0  0  0  0  0  2  0  0  0  0  0  0
  184.5430  178.4140  145.9100 C   0  0  0  0  0  2  0  0  0  0  0  0
  185.2820  179.2080  146.7910 O   0  0  0  0  0  0  0  0  0  0  0  0
  186.4310  178.4630  147.0550 C   0  0  0  0  0  1  0  0  0  0  0  0
  190.9980  174.1100  136.8740 C   0  0  0  0  0  2  0  0  0  0  0  0
  192.0600  173.7930  135.8290 C   0  0  0  0  0  2  0  0  0  0  0  0
  193.2460  173.2360  136.4660 N   0  0  0  0  0  2  0  0  0  0  0  0
  195.1810  174.7820  136.4460 C   0  0  0  0  0  0  0  0  0  0  0  0
  194.9300  175.1800  137.6500 N   0  0  0  0  0  2  0  0  0  0  0  0
  196.3690  175.3090  135.7290 C   0  0  0  0  0  1  0  0  0  0  0  0
  194.3700  173.7800  135.8260 N   0  0  0  0  0  2  0  0  0  0  0  0
  1 26  1  1  0  0  0
  2  6  1  0  0  0  0
  2  8  1  0  0  0  0
  3 14  1  0  0  0  0
  4  9  1  0  0  0  0
  4 11  1  0  0  0  0
  5  3  2  0  0  0  0
  5  7  1  0  0  0  0
  7  4  2  0  0  0  0
  8  1  1  0  0  0  0
 10  2  2  0  0  0  0
 11 18  1  1  0  0  0
 11 12  1  0  0  0  0
 13  9  1  6  0  0  0
 13 10  1  0  0  0  0
 13 15  1  0  0  0  0
 14 38  1  0  0  0  0
 14  9  2  0  0  0  0
 15 12  1  6  0  0  0
 15  1  1  0  0  0  0
 16 20  1  0  0  0  0
 17 16  2  0  0  0  0
 17 18  1  0  0  0  0
 18 19  2  0  0  0  0
 19 21  1  0  0  0  0
 20 21  2  0  0  0  0
 23 24  1  0  0  0  0
 23 25  1  0  0  0  0
 24 20  1  6  0  0  0
 24 25  1  0  0  0  0
 25 22  1  6  0  0  0
 26 27  1  1  0  0  0
 26 28  1  0  0  0  0
 28 29  1  6  0  0  0
 28 30  1  0  0  0  0
 31 32  1  0  0  0  0
 31 30  2  0  0  0  0
 32 33  1  0  0  0  0
 33 34  1  0  0  0  0
 34 35  1  0  0  0  0
 35 36  1  0  0  0  0
 36 37  1  0  0  0  0
 39 40  1  0  0  0  0
 39 38  1  0  0  0  0
 41 42  2  0  0  0  0
 43 41  1  0  0  0  0
 44 41  1  0  0  0  0
 44 40  1  0  0  0  0
M  END
>  <MODEL>
3

>  <REMARK>
 VINA RESULT:      -7.2      1.721      2.438
  Name = 
  14 active torsions:
  status: ('A' for Active; 'I' for Inactive)
    1  A    between atoms: C_2  and  C_31
    2  A    between atoms: C_4  and  O_27
    3  A    between atoms: C_4  and  C_36
    4  A    between atoms: C_8  and  C_23
    5  A    between atoms: C_8  and  N_42
    6  A    between atoms: C_11  and  C_34
    7  A    between atoms: C_11  and  C_38
    8  A    between atoms: C_12  and  C_13
    9  A    between atoms: C_12  and  C_31
   10  A    between atoms: C_23  and  C_41
   11  A    between atoms: C_24  and  C_26
   12  A    between atoms: N_29  and  N_42
   13  A    between atoms: C_30  and  C_33
   14  A    between atoms: C_34  and  C_36
                            x       y       z     vdW  Elec       q    Type
                         _______ _______ _______ _____ _____    ______ ____

>  <TORSDO>
F 14

$$$$
=
 OpenBabel10222421593D

 44 48  0  0  1  0  0  0  0  0999 V2000
  183.5870  179.2190  142.1320 C   0  0  2  0  0  3  0  0  0  0  0  0
  181.1880  178.7410  142.4370 C   0  0  0  0  0  0  0  0  0  0  0  0
  180.2560  178.9440  136.8890 N   0  0  0  0  0  0  0  0  0  0  0  0
  182.2290  177.6520  138.2890 C   0  0  0  0  0  0  0  0  0  0  0  0
  180.8280  177.8210  136.3890 C   0  0  0  0  0  3  0  0  0  0  0  0
  180.0620  178.3910  143.3410 C   0  0  0  0  0  1  0  0  0  0  0  0
  181.8090  177.1880  137.0830 N   0  0  0  0  0  0  0  0  0  0  0  0
  182.4870  178.8200  142.9500 O   0  0  0  0  0  0  0  0  0  0  0  0
  181.6470  178.8180  138.8320 C   0  0  0  0  0  0  0  0  0  0  0  0
  180.9600  178.9260  141.1690 N   0  0  0  0  0  0  0  0  0  0  0  0
  183.3690  176.9410  138.9800 C   0  0  2  0  0  3  0  0  0  0  0  0
  183.4730  177.2840  140.4680 C   0  0  0  0  0  2  0  0  0  0  0  0
  182.0110  179.3010  140.2170 C   0  0  1  0  0  3  0  0  0  0  0  0
  180.6430  179.4600  138.0850 C   0  0  0  0  0  0  0  0  0  0  0  0
  183.3890  178.7970  140.6700 C   0  0  1  0  0  3  0  0  0  0  0  0
  186.4470  176.2810  136.8740 C   0  0  0  0  0  3  0  0  0  0  0  0
  185.2140  176.1180  137.5100 C   0  0  0  0  0  3  0  0  0  0  0  0
  184.6780  177.1560  138.2770 C   0  0  0  0  0  0  0  0  0  0  0  0
  185.3890  178.3580  138.4110 C   0  0  0  0  0  3  0  0  0  0  0  0
  187.1480  177.4900  136.9860 C   0  0  0  0  0  0  0  0  0  0  0  0
  186.6230  178.5210  137.7760 C   0  0  0  0  0  3  0  0  0  0  0  0
  189.2270  176.4620  138.4250 O   0  0  0  0  0  1  0  0  0  0  0  0
  189.4090  178.5170  137.2460 C   0  0  0  0  0  2  0  0  0  0  0  0
  188.5240  177.6230  136.3900 C   0  0  1  0  0  3  0  0  0  0  0  0
  189.6680  177.0260  137.2240 C   0  0  2  0  0  3  0  0  0  0  0  0
  184.9640  178.9440  142.7770 C   0  0  2  0  0  3  0  0  0  0  0  0
  186.0280  178.5570  141.7640 C   0  0  0  0  0  1  0  0  0  0  0  0
  185.0010  178.0200  143.9990 C   0  0  2  0  0  3  0  0  0  0  0  0
  184.1860  178.4850  145.0320 O   0  0  0  0  0  1  0  0  0  0  0  0
  186.3980  177.8140  144.4850 C   0  0  0  0  0  3  0  0  0  0  0  0
  186.7270  178.1270  145.7350 C   0  0  0  0  0  3  0  0  0  0  0  0
  188.1260  177.9250  146.2120 C   0  0  0  0  0  2  0  0  0  0  0  0
  189.0200  177.5220  145.0530 C   0  0  0  0  0  2  0  0  0  0  0  0
  190.2770  176.8460  145.5720 C   0  0  0  0  0  2  0  0  0  0  0  0
  190.3430  176.9430  147.0830 C   0  0  0  0  0  2  0  0  0  0  0  0
  191.6680  176.8240  147.5110 O   0  0  0  0  0  0  0  0  0  0  0  0
  192.1750  175.7470  146.7830 C   0  0  0  0  0  1  0  0  0  0  0  0
  179.9820  180.7060  138.5870 C   0  0  0  0  0  2  0  0  0  0  0  0
  180.9070  181.9080  138.4470 C   0  0  0  0  0  2  0  0  0  0  0  0
  181.2800  182.0980  137.0520 N   0  0  0  0  0  2  0  0  0  0  0  0
  181.0060  184.5460  136.7880 C   0  0  0  0  0  0  0  0  0  0  0  0
  182.1170  184.7810  137.4060 N   0  0  0  0  0  2  0  0  0  0  0  0
  180.2180  185.6760  136.2350 C   0  0  0  0  0  1  0  0  0  0  0  0
  180.5650  183.2040  136.5640 N   0  0  0  0  0  2  0  0  0  0  0  0
  1 26  1  1  0  0  0
  1  8  1  0  0  0  0
  2  8  1  0  0  0  0
  2  6  1  0  0  0  0
  3 14  1  0  0  0  0
  4  9  1  0  0  0  0
  4 11  1  0  0  0  0
  5  3  2  0  0  0  0
  5  7  1  0  0  0  0
  7  4  2  0  0  0  0
 10  2  2  0  0  0  0
 11 18  1  6  0  0  0
 11 12  1  0  0  0  0
 13  9  1  6  0  0  0
 13 15  1  0  0  0  0
 13 10  1  0  0  0  0
 14 38  1  0  0  0  0
 14  9  2  0  0  0  0
 15 12  1  1  0  0  0
 15  1  1  0  0  0  0
 16 20  2  0  0  0  0
 16 17  1  0  0  0  0
 17 18  2  0  0  0  0
 18 19  1  0  0  0  0
 20 21  1  0  0  0  0
 21 19  2  0  0  0  0
 24 20  1  1  0  0  0
 24 25  1  0  0  0  0
 24 23  1  0  0  0  0
 25 23  1  0  0  0  0
 25 22  1  1  0  0  0
 26 27  1  6  0  0  0
 26 28  1  0  0  0  0
 28 30  1  0  0  0  0
 28 29  1  1  0  0  0
 30 31  2  0  0  0  0
 31 32  1  0  0  0  0
 33 34  1  0  0  0  0
 33 32  1  0  0  0  0
 34 35  1  0  0  0  0
 35 36  1  0  0  0  0
 37 36  1  0  0  0  0
 39 38  1  0  0  0  0
 40 39  1  0  0  0  0
 41 42  2  0  0  0  0
 43 41  1  0  0  0  0
 44 41  1  0  0  0  0
 44 40  1  0  0  0  0
M  END
>  <MODEL>
4

>  <REMARK>
 VINA RESULT:      -6.4      4.571      8.526
  Name = 
  14 active torsions:
  status: ('A' for Active; 'I' for Inactive)
    1  A    between atoms: C_2  and  C_31
    2  A    between atoms: C_4  and  O_27
    3  A    between atoms: C_4  and  C_36
    4  A    between atoms: C_8  and  C_23
    5  A    between atoms: C_8  and  N_42
    6  A    between atoms: C_11  and  C_34
    7  A    between atoms: C_11  and  C_38
    8  A    between atoms: C_12  and  C_13
    9  A    between atoms: C_12  and  C_31
   10  A    between atoms: C_23  and  C_41
   11  A    between atoms: C_24  and  C_26
   12  A    between atoms: N_29  and  N_42
   13  A    between atoms: C_30  and  C_33
   14  A    between atoms: C_34  and  C_36
                            x       y       z     vdW  Elec       q    Type
                         _______ _______ _______ _____ _____    ______ ____

>  <TORSDO>
F 14

$$$$
=
 OpenBabel10222421593D

 44 48  0  0  1  0  0  0  0  0999 V2000
  183.6780  178.7310  140.9390 C   0  0  2  0  0  3  0  0  0  0  0  0
  181.2180  178.8150  141.0640 C   0  0  0  0  0  0  0  0  0  0  0  0
  180.7330  178.2590  135.4830 N   0  0  0  0  0  0  0  0  0  0  0  0
  182.2750  176.8470  137.2580 C   0  0  0  0  0  0  0  0  0  0  0  0
  181.0780  176.9740  135.2210 C   0  0  0  0  0  3  0  0  0  0  0  0
  179.9830  178.8620  141.8900 C   0  0  0  0  0  1  0  0  0  0  0  0
  181.8470  176.2810  136.0990 N   0  0  0  0  0  0  0  0  0  0  0  0
  182.4640  178.7110  141.6910 O   0  0  0  0  0  0  0  0  0  0  0  0
  181.9270  178.1820  137.5550 C   0  0  0  0  0  0  0  0  0  0  0  0
  181.1220  178.8240  139.7660 N   0  0  0  0  0  0  0  0  0  0  0  0
  183.1820  176.0450  138.1630 C   0  0  2  0  0  3  0  0  0  0  0  0
  183.2560  176.6070  139.5840 C   0  0  0  0  0  2  0  0  0  0  0  0
  182.2930  178.8080  138.8810 C   0  0  1  0  0  3  0  0  0  0  0  0
  181.1410  178.8800  136.6210 C   0  0  0  0  0  0  0  0  0  0  0  0
  183.4920  178.1160  139.5450 C   0  0  1  0  0  3  0  0  0  0  0  0
  186.3630  174.3820  136.9550 C   0  0  0  0  0  3  0  0  0  0  0  0
  185.0780  174.5740  137.4680 C   0  0  0  0  0  3  0  0  0  0  0  0
  184.5500  175.8640  137.5740 C   0  0  0  0  0  0  0  0  0  0  0  0
  185.3220  176.9650  137.1700 C   0  0  0  0  0  3  0  0  0  0  0  0
  187.1270  175.4780  136.5280 C   0  0  0  0  0  0  0  0  0  0  0  0
  186.6080  176.7730  136.6580 C   0  0  0  0  0  3  0  0  0  0  0  0
  189.0930  176.1400  138.3020 O   0  0  0  0  0  1  0  0  0  0  0  0
  189.2860  176.6050  135.9800 C   0  0  0  0  0  2  0  0  0  0  0  0
  188.5490  175.2770  136.0780 C   0  0  1  0  0  3  0  0  0  0  0  0
  189.6280  175.6530  137.1050 C   0  0  2  0  0  3  0  0  0  0  0  0
  184.9140  178.2930  141.7560 C   0  0  2  0  0  3  0  0  0  0  0  0
  184.6930  178.3750  143.2570 C   0  0  0  0  0  1  0  0  0  0  0  0
  186.2700  178.8880  141.3630 C   0  0  2  0  0  3  0  0  0  0  0  0
  186.4640  178.8810  139.9810 O   0  0  0  0  0  1  0  0  0  0  0  0
  187.3940  178.1860  142.0530 C   0  0  0  0  0  3  0  0  0  0  0  0
  188.3600  177.6080  141.3450 C   0  0  0  0  0  3  0  0  0  0  0  0
  189.4760  176.9040  142.0410 C   0  0  0  0  0  2  0  0  0  0  0  0
  189.3040  177.0110  143.5460 C   0  0  0  0  0  2  0  0  0  0  0  0
  190.6600  177.0590  144.2260 C   0  0  0  0  0  2  0  0  0  0  0  0
  190.4930  177.1650  145.7290 C   0  0  0  0  0  2  0  0  0  0  0  0
  191.7430  177.1220  146.3520 O   0  0  0  0  0  0  0  0  0  0  0  0
  191.6850  175.9990  147.1760 C   0  0  0  0  0  1  0  0  0  0  0  0
  180.7370  180.3020  136.8580 C   0  0  0  0  0  2  0  0  0  0  0  0
  179.9820  180.8620  135.6590 C   0  0  0  0  0  2  0  0  0  0  0  0
  180.5810  182.1190  135.2280 N   0  0  0  0  0  2  0  0  0  0  0  0
  180.7930  184.4010  136.1670 C   0  0  0  0  0  0  0  0  0  0  0  0
  180.9690  184.9140  134.9940 N   0  0  0  0  0  2  0  0  0  0  0  0
  180.7490  185.2860  137.3580 C   0  0  0  0  0  1  0  0  0  0  0  0
  180.5650  182.9980  136.3230 N   0  0  0  0  0  2  0  0  0  0  0  0
  1  8  1  0  0  0  0
  1 26  1  1  0  0  0
  2  8  1  0  0  0  0
  2  6  1  0  0  0  0
  3 14  1  0  0  0  0
  4  9  1  0  0  0  0
  4 11  1  0  0  0  0
  5  3  2  0  0  0  0
  5  7  1  0  0  0  0
  7  4  2  0  0  0  0
 10  2  2  0  0  0  0
 11 18  1  6  0  0  0
 11 12  1  0  0  0  0
 13  9  1  6  0  0  0
 13 15  1  0  0  0  0
 13 10  1  0  0  0  0
 14 38  1  0  0  0  0
 14  9  2  0  0  0  0
 15 12  1  1  0  0  0
 15  1  1  0  0  0  0
 16 17  1  0  0  0  0
 17 18  2  0  0  0  0
 19 18  1  0  0  0  0
 20 21  1  0  0  0  0
 20 16  2  0  0  0  0
 21 19  2  0  0  0  0
 23 24  1  0  0  0  0
 23 25  1  0  0  0  0
 24 20  1  1  0  0  0
 24 25  1  0  0  0  0
 25 22  1  1  0  0  0
 26 27  1  1  0  0  0
 28 29  1  6  0  0  0
 28 26  1  0  0  0  0
 28 30  1  0  0  0  0
 31 32  1  0  0  0  0
 31 30  2  0  0  0  0
 32 33  1  0  0  0  0
 33 34  1  0  0  0  0
 34 35  1  0  0  0  0
 35 36  1  0  0  0  0
 36 37  1  0  0  0  0
 39 38  1  0  0  0  0
 40 39  1  0  0  0  0
 40 44  1  0  0  0  0
 41 44  1  0  0  0  0
 41 43  1  0  0  0  0
 42 41  2  0  0  0  0
M  END
>  <MODEL>
5

>  <REMARK>
 VINA RESULT:      -6.3      4.442      8.547
  Name = 
  14 active torsions:
  status: ('A' for Active; 'I' for Inactive)
    1  A    between atoms: C_2  and  C_31
    2  A    between atoms: C_4  and  O_27
    3  A    between atoms: C_4  and  C_36
    4  A    between atoms: C_8  and  C_23
    5  A    between atoms: C_8  and  N_42
    6  A    between atoms: C_11  and  C_34
    7  A    between atoms: C_11  and  C_38
    8  A    between atoms: C_12  and  C_13
    9  A    between atoms: C_12  and  C_31
   10  A    between atoms: C_23  and  C_41
   11  A    between atoms: C_24  and  C_26
   12  A    between atoms: N_29  and  N_42
   13  A    between atoms: C_30  and  C_33
   14  A    between atoms: C_34  and  C_36
                            x       y       z     vdW  Elec       q    Type
                         _______ _______ _______ _____ _____    ______ ____

>  <TORSDO>
F 14

$$$$
=
 OpenBabel10222421593D

 44 48  0  0  1  0  0  0  0  0999 V2000
  189.9410  176.9760  140.8980 C   0  0  2  0  0  3  0  0  0  0  0  0
  191.5560  176.9290  139.0370 C   0  0  0  0  0  0  0  0  0  0  0  0
  187.5800  175.3310  135.3870 N   0  0  0  0  0  0  0  0  0  0  0  0
  187.5290  177.3200  137.2750 C   0  0  0  0  0  0  0  0  0  0  0  0
  186.7970  176.4240  135.2110 C   0  0  0  0  0  3  0  0  0  0  0  0
  192.9300  177.1880  138.5330 C   0  0  0  0  0  1  0  0  0  0  0  0
  186.7700  177.4030  136.1510 N   0  0  0  0  0  0  0  0  0  0  0  0
  191.2280  177.2710  140.3530 O   0  0  0  0  0  0  0  0  0  0  0  0
  188.3550  176.1930  137.4790 C   0  0  0  0  0  0  0  0  0  0  0  0
  190.6620  176.4290  138.2350 N   0  0  0  0  0  0  0  0  0  0  0  0
  187.4060  178.4100  138.3130 C   0  0  2  0  0  3  0  0  0  0  0  0
  188.5720  178.4270  139.3030 C   0  0  0  0  0  2  0  0  0  0  0  0
  189.2930  176.1180  138.6620 C   0  0  1  0  0  3  0  0  0  0  0  0
  188.3520  175.1880  136.4960 C   0  0  0  0  0  0  0  0  0  0  0  0
  188.8460  177.0170  139.8230 C   0  0  1  0  0  3  0  0  0  0  0  0
  184.8100  178.7140  141.0540 C   0  0  0  0  0  3  0  0  0  0  0  0
  186.0190  178.7790  140.3580 C   0  0  0  0  0  3  0  0  0  0  0  0
  186.0850  178.3650  139.0250 C   0  0  0  0  0  0  0  0  0  0  0  0
  184.9310  177.8780  138.3920 C   0  0  0  0  0  3  0  0  0  0  0  0
  183.6500  178.2500  140.4160 C   0  0  0  0  0  0  0  0  0  0  0  0
  183.7210  177.8120  139.0880 C   0  0  0  0  0  3  0  0  0  0  0  0
  181.5630  179.8800  139.7560 O   0  0  0  0  0  1  0  0  0  0  0  0
  182.0600  179.3270  142.0120 C   0  0  0  0  0  2  0  0  0  0  0  0
  182.3750  178.0800  141.1990 C   0  0  1  0  0  3  0  0  0  0  0  0
  181.2200  179.0090  140.7940 C   0  0  2  0  0  3  0  0  0  0  0  0
  189.6610  177.7000  142.2340 C   0  0  2  0  0  3  0  0  0  0  0  0
  190.9130  178.2790  142.8710 C   0  0  0  0  0  1  0  0  0  0  0  0
  188.8010  176.9660  143.2700 C   0  0  2  0  0  3  0  0  0  0  0  0
  188.6060  175.6260  142.9330 O   0  0  0  0  0  1  0  0  0  0  0  0
  187.4910  177.6510  143.4760 C   0  0  0  0  0  3  0  0  0  0  0  0
  186.7610  177.3940  144.5570 C   0  0  0  0  0  3  0  0  0  0  0  0
  185.4500  178.0780  144.7520 C   0  0  0  0  0  2  0  0  0  0  0  0
  185.1610  178.2430  146.2330 C   0  0  0  0  0  2  0  0  0  0  0  0
  186.1770  179.1770  146.8650 C   0  0  0  0  0  2  0  0  0  0  0  0
  187.0550  178.4190  147.8420 C   0  0  0  0  0  2  0  0  0  0  0  0
  188.3630  178.3580  147.3580 O   0  0  0  0  0  0  0  0  0  0  0  0
  188.7830  177.0590  147.6460 C   0  0  0  0  0  1  0  0  0  0  0  0
  189.1930  173.9590  136.6430 C   0  0  0  0  0  2  0  0  0  0  0  0
  190.0040  173.6980  135.3800 C   0  0  0  0  0  2  0  0  0  0  0  0
  190.0110  172.2740  135.0700 N   0  0  0  0  0  2  0  0  0  0  0  0
  187.7450  171.2760  135.1230 C   0  0  0  0  0  0  0  0  0  0  0  0
  187.8670  170.9580  136.3710 N   0  0  0  0  0  2  0  0  0  0  0  0
  186.4730  170.9920  134.4130 C   0  0  0  0  0  1  0  0  0  0  0  0
  188.7940  171.9670  134.4410 N   0  0  0  0  0  2  0  0  0  0  0  0
  1 26  1  1  0  0  0
  2  8  1  0  0  0  0
  3 14  1  0  0  0  0
  4  9  1  0  0  0  0
  4 11  1  0  0  0  0
  5  3  2  0  0  0  0
  5  7  1  0  0  0  0
  6  2  1  0  0  0  0
  7  4  2  0  0  0  0
  8  1  1  0  0  0  0
 10 13  1  0  0  0  0
 10  2  2  0  0  0  0
 11 18  1  1  0  0  0
 11 12  1  0  0  0  0
 13  9  1  6  0  0  0
 13 15  1  0  0  0  0
 14 38  1  0  0  0  0
 14  9  2  0  0  0  0
 15 12  1  6  0  0  0
 15  1  1  0  0  0  0
 17 16  2  0  0  0  0
 18 17  1  0  0  0  0
 19 18  2  0  0  0  0
 19 21  1  0  0  0  0
 20 16  1  0  0  0  0
 21 20  2  0  0  0  0
 24 20  1  6  0  0  0
 24 23  1  0  0  0  0
 25 22  1  6  0  0  0
 25 24  1  0  0  0  0
 25 23  1  0  0  0  0
 26 27  1  1  0  0  0
 26 28  1  0  0  0  0
 28 29  1  6  0  0  0
 28 30  1  0  0  0  0
 30 31  2  0  0  0  0
 31 32  1  0  0  0  0
 32 33  1  0  0  0  0
 33 34  1  0  0  0  0
 34 35  1  0  0  0  0
 36 37  1  0  0  0  0
 36 35  1  0  0  0  0
 39 38  1  0  0  0  0
 40 39  1  0  0  0  0
 41 42  2  0  0  0  0
 43 41  1  0  0  0  0
 44 40  1  0  0  0  0
 44 41  1  0  0  0  0
M  END
>  <MODEL>
6

>  <REMARK>
 VINA RESULT:      -6.0      2.201      3.401
  Name = 
  14 active torsions:
  status: ('A' for Active; 'I' for Inactive)
    1  A    between atoms: C_2  and  C_31
    2  A    between atoms: C_4  and  O_27
    3  A    between atoms: C_4  and  C_36
    4  A    between atoms: C_8  and  C_23
    5  A    between atoms: C_8  and  N_42
    6  A    between atoms: C_11  and  C_34
    7  A    between atoms: C_11  and  C_38
    8  A    between atoms: C_12  and  C_13
    9  A    between atoms: C_12  and  C_31
   10  A    between atoms: C_23  and  C_41
   11  A    between atoms: C_24  and  C_26
   12  A    between atoms: N_29  and  N_42
   13  A    between atoms: C_30  and  C_33
   14  A    between atoms: C_34  and  C_36
                            x       y       z     vdW  Elec       q    Type
                         _______ _______ _______ _____ _____    ______ ____

>  <TORSDO>
F 14

$$$$
=
 OpenBabel10222421593D

 44 48  0  0  1  0  0  0  0  0999 V2000
  188.3840  175.0260  136.7830 C   0  0  2  0  0  3  0  0  0  0  0  0
  187.8310  177.3330  137.4510 C   0  0  0  0  0  0  0  0  0  0  0  0
  192.2150  177.5560  140.9760 N   0  0  0  0  0  0  0  0  0  0  0  0
  192.0960  176.6810  138.3780 C   0  0  0  0  0  0  0  0  0  0  0  0
  193.3110  177.6210  140.1790 C   0  0  0  0  0  3  0  0  0  0  0  0
  186.9890  178.5450  137.2760 C   0  0  0  0  0  1  0  0  0  0  0  0
  193.2490  177.1810  138.8960 N   0  0  0  0  0  0  0  0  0  0  0  0
  187.6450  176.2340  136.6050 O   0  0  0  0  0  0  0  0  0  0  0  0
  190.9410  176.6060  139.1870 C   0  0  0  0  0  0  0  0  0  0  0  0
  188.7620  177.3240  138.3600 N   0  0  0  0  0  0  0  0  0  0  0  0
  192.1100  176.1480  136.9650 C   0  0  2  0  0  3  0  0  0  0  0  0
  190.7080  176.0020  136.3690 C   0  0  0  0  0  2  0  0  0  0  0  0
  189.6160  176.1580  138.6150 C   0  0  1  0  0  3  0  0  0  0  0  0
  191.0380  177.0560  140.5160 C   0  0  0  0  0  0  0  0  0  0  0  0
  189.7820  175.2950  137.3570 C   0  0  1  0  0  3  0  0  0  0  0  0
  195.0170  173.7200  136.9500 C   0  0  0  0  0  3  0  0  0  0  0  0
  194.2650  174.8890  137.0830 C   0  0  0  0  0  3  0  0  0  0  0  0
  192.8870  174.8690  136.8520 C   0  0  0  0  0  0  0  0  0  0  0  0
  192.2650  173.6680  136.4780 C   0  0  0  0  0  3  0  0  0  0  0  0
  194.3940  172.5130  136.6000 C   0  0  0  0  0  0  0  0  0  0  0  0
  193.0170  172.4970  136.3440 C   0  0  0  0  0  3  0  0  0  0  0  0
  194.9810  170.9590  138.7660 O   0  0  0  0  0  1  0  0  0  0  0  0
  196.5700  171.3760  137.0500 C   0  0  0  0  0  2  0  0  0  0  0  0
  195.2210  171.2800  136.3530 C   0  0  1  0  0  3  0  0  0  0  0  0
  195.5250  170.4270  137.5930 C   0  0  2  0  0  3  0  0  0  0  0  0
  188.2770  174.0590  135.5820 C   0  0  2  0  0  3  0  0  0  0  0  0
  187.3320  174.5560  134.5020 C   0  0  0  0  0  1  0  0  0  0  0  0
  188.0380  172.5760  135.8870 C   0  0  2  0  0  3  0  0  0  0  0  0
  188.5800  171.7460  134.9040 O   0  0  0  0  0  1  0  0  0  0  0  0
  186.5860  172.2840  136.0770 C   0  0  0  0  0  3  0  0  0  0  0  0
  185.9500  172.7190  137.1610 C   0  0  0  0  0  3  0  0  0  0  0  0
  184.5010  172.4190  137.3460 C   0  0  0  0  0  2  0  0  0  0  0  0
  183.6780  173.6820  137.1710 C   0  0  0  0  0  2  0  0  0  0  0  0
  184.5550  174.9080  137.3450 C   0  0  0  0  0  2  0  0  0  0  0  0
  183.7140  176.1090  137.7300 C   0  0  0  0  0  2  0  0  0  0  0  0
  182.8940  175.7890  138.8150 O   0  0  0  0  0  0  0  0  0  0  0  0
  182.9320  176.9200  139.6290 C   0  0  0  0  0  1  0  0  0  0  0  0
  189.8610  177.0020  141.4400 C   0  0  0  0  0  2  0  0  0  0  0  0
  190.1220  176.0510  142.6000 C   0  0  0  0  0  2  0  0  0  0  0  0
  189.4790  176.5450  143.8110 N   0  0  0  0  0  2  0  0  0  0  0  0
  187.3360  177.6440  144.3890 C   0  0  0  0  0  0  0  0  0  0  0  0
  187.7870  178.0150  145.5420 N   0  0  0  0  0  2  0  0  0  0  0  0
  185.9650  178.0350  143.9740 C   0  0  0  0  0  1  0  0  0  0  0  0
  188.1710  176.9260  143.4760 N   0  0  0  0  0  2  0  0  0  0  0  0
  1 26  1  6  0  0  0
  1 15  1  0  0  0  0
  2 10  2  0  0  0  0
  4  7  2  0  0  0  0
  4  9  1  0  0  0  0
  5  3  2  0  0  0  0
  6  2  1  0  0  0  0
  7  5  1  0  0  0  0
  8  1  1  0  0  0  0
  8  2  1  0  0  0  0
  9 14  2  0  0  0  0
 11 18  1  1  0  0  0
 11  4  1  0  0  0  0
 12 11  1  0  0  0  0
 13 10  1  6  0  0  0
 13  9  1  0  0  0  0
 14  3  1  0  0  0  0
 14 38  1  0  0  0  0
 15 12  1  6  0  0  0
 15 13  1  0  0  0  0
 16 17  1  0  0  0  0
 18 17  2  0  0  0  0
 19 18  1  0  0  0  0
 20 16  2  0  0  0  0
 21 19  2  0  0  0  0
 21 20  1  0  0  0  0
 23 25  1  0  0  0  0
 24 20  1  1  0  0  0
 24 23  1  0  0  0  0
 24 25  1  0  0  0  0
 25 22  1  1  0  0  0
 26 27  1  6  0  0  0
 26 28  1  0  0  0  0
 28 29  1  6  0  0  0
 28 30  1  0  0  0  0
 30 31  2  0  0  0  0
 31 32  1  0  0  0  0
 33 34  1  0  0  0  0
 33 32  1  0  0  0  0
 34 35  1  0  0  0  0
 35 36  1  0  0  0  0
 36 37  1  0  0  0  0
 38 39  1  0  0  0  0
 39 40  1  0  0  0  0
 41 42  2  0  0  0  0
 43 41  1  0  0  0  0
 44 40  1  0  0  0  0
 44 41  1  0  0  0  0
M  END
>  <MODEL>
7

>  <REMARK>
 VINA RESULT:      -6.0      3.319      9.217
  Name = 
  14 active torsions:
  status: ('A' for Active; 'I' for Inactive)
    1  A    between atoms: C_2  and  C_31
    2  A    between atoms: C_4  and  O_27
    3  A    between atoms: C_4  and  C_36
    4  A    between atoms: C_8  and  C_23
    5  A    between atoms: C_8  and  N_42
    6  A    between atoms: C_11  and  C_34
    7  A    between atoms: C_11  and  C_38
    8  A    between atoms: C_12  and  C_13
    9  A    between atoms: C_12  and  C_31
   10  A    between atoms: C_23  and  C_41
   11  A    between atoms: C_24  and  C_26
   12  A    between atoms: N_29  and  N_42
   13  A    between atoms: C_30  and  C_33
   14  A    between atoms: C_34  and  C_36
                            x       y       z     vdW  Elec       q    Type
                         _______ _______ _______ _____ _____    ______ ____

>  <TORSDO>
F 14

$$$$
=
 OpenBabel10222421593D

 44 48  0  0  1  0  0  0  0  0999 V2000
  183.0700  178.0700  141.7630 C   0  0  2  0  0  3  0  0  0  0  0  0
  184.3290  179.4130  143.4020 C   0  0  0  0  0  0  0  0  0  0  0  0
  189.2510  177.4520  141.4990 N   0  0  0  0  0  0  0  0  0  0  0  0
  187.0950  178.4240  140.1080 C   0  0  0  0  0  0  0  0  0  0  0  0
  189.4230  178.0350  140.2860 C   0  0  0  0  0  3  0  0  0  0  0  0
  184.3330  180.4400  144.4760 C   0  0  0  0  0  1  0  0  0  0  0  0
  188.3520  178.5080  139.5990 N   0  0  0  0  0  0  0  0  0  0  0  0
  183.1310  179.0980  142.7520 O   0  0  0  0  0  0  0  0  0  0  0  0
  186.8910  177.8240  141.3700 C   0  0  0  0  0  0  0  0  0  0  0  0
  185.4480  178.8510  143.0470 N   0  0  0  0  0  0  0  0  0  0  0  0
  185.9390  178.9100  139.2660 C   0  0  2  0  0  3  0  0  0  0  0  0
  184.6640  179.1430  140.0800 C   0  0  0  0  0  2  0  0  0  0  0  0
  185.5250  177.8100  142.0160 C   0  0  1  0  0  3  0  0  0  0  0  0
  188.0170  177.3300  142.0530 C   0  0  0  0  0  0  0  0  0  0  0  0
  184.3900  177.9470  140.9900 C   0  0  1  0  0  3  0  0  0  0  0  0
  184.0930  176.9310  136.6160 C   0  0  0  0  0  3  0  0  0  0  0  0
  184.3620  177.7880  137.6850 C   0  0  0  0  0  3  0  0  0  0  0  0
  185.6800  178.0130  138.0900 C   0  0  0  0  0  0  0  0  0  0  0  0
  186.7320  177.3680  137.4210 C   0  0  0  0  0  3  0  0  0  0  0  0
  185.1430  176.3040  135.9300 C   0  0  0  0  0  0  0  0  0  0  0  0
  186.4630  176.5090  136.3510 C   0  0  0  0  0  3  0  0  0  0  0  0
  184.4180  173.7980  136.7330 O   0  0  0  0  0  1  0  0  0  0  0  0
  185.8480  174.1560  134.8700 C   0  0  0  0  0  2  0  0  0  0  0  0
  184.8440  175.2990  134.8490 C   0  0  1  0  0  3  0  0  0  0  0  0
  184.4320  173.9020  135.3390 C   0  0  2  0  0  3  0  0  0  0  0  0
  181.7590  178.0830  140.9440 C   0  0  2  0  0  3  0  0  0  0  0  0
  181.6150  176.8750  140.0350 C   0  0  0  0  0  1  0  0  0  0  0  0
  181.3980  179.3770  140.2070 C   0  0  2  0  0  3  0  0  0  0  0  0
  180.3570  180.0640  140.8350 O   0  0  0  0  0  1  0  0  0  0  0  0
  181.0630  179.1150  138.7760 C   0  0  0  0  0  3  0  0  0  0  0  0
  181.3510  180.0170  137.8420 C   0  0  0  0  0  3  0  0  0  0  0  0
  181.0090  179.7500  136.4150 C   0  0  0  0  0  2  0  0  0  0  0  0
  180.4030  180.9890  135.7820 C   0  0  0  0  0  2  0  0  0  0  0  0
  180.5920  182.1900  136.6920 C   0  0  0  0  0  2  0  0  0  0  0  0
  180.7420  183.4560  135.8720 C   0  0  0  0  0  2  0  0  0  0  0  0
  180.3820  184.5660  136.6390 O   0  0  0  0  0  0  0  0  0  0  0  0
  181.5130  184.8440  137.4050 C   0  0  0  0  0  1  0  0  0  0  0  0
  187.8830  176.6730  143.3920 C   0  0  0  0  0  2  0  0  0  0  0  0
  189.1650  176.8180  144.2010 C   0  0  0  0  0  2  0  0  0  0  0  0
  189.1440  178.0610  144.9610 N   0  0  0  0  0  2  0  0  0  0  0  0
  187.9440  177.8350  147.1160 C   0  0  0  0  0  0  0  0  0  0  0  0
  186.8230  178.1930  146.5790 N   0  0  0  0  0  2  0  0  0  0  0  0
  187.9840  177.4530  148.5500 C   0  0  0  0  0  1  0  0  0  0  0  0
  189.1310  177.7280  146.3250 N   0  0  0  0  0  2  0  0  0  0  0  0
  1 26  1  6  0  0  0
  1  8  1  0  0  0  0
  2  6  1  0  0  0  0
  3 14  1  0  0  0  0
  4  9  1  0  0  0  0
  5  3  2  0  0  0  0
  7  4  2  0  0  0  0
  7  5  1  0  0  0  0
  8  2  1  0  0  0  0
  9 14  2  0  0  0  0
 10  2  2  0  0  0  0
 11 18  1  6  0  0  0
 11 12  1  0  0  0  0
 11  4  1  0  0  0  0
 13  9  1  6  0  0  0
 13 10  1  0  0  0  0
 14 38  1  0  0  0  0
 15 12  1  1  0  0  0
 15  1  1  0  0  0  0
 15 13  1  0  0  0  0
 16 17  1  0  0  0  0
 17 18  2  0  0  0  0
 19 18  1  0  0  0  0
 20 21  1  0  0  0  0
 20 16  2  0  0  0  0
 21 19  2  0  0  0  0
 23 25  1  0  0  0  0
 24 23  1  0  0  0  0
 24 25  1  0  0  0  0
 24 20  1  1  0  0  0
 25 22  1  1  0  0  0
 26 27  1  6  0  0  0
 28 29  1  1  0  0  0
 28 26  1  0  0  0  0
 30 28  1  0  0  0  0
 31 30  2  0  0  0  0
 32 31  1  0  0  0  0
 33 32  1  0  0  0  0
 33 34  1  0  0  0  0
 35 36  1  0  0  0  0
 35 34  1  0  0  0  0
 36 37  1  0  0  0  0
 38 39  1  0  0  0  0
 39 40  1  0  0  0  0
 40 44  1  0  0  0  0
 41 43  1  0  0  0  0
 42 41  2  0  0  0  0
 44 41  1  0  0  0  0
M  END
>  <MODEL>
8

>  <REMARK>
 VINA RESULT:      -6.0      4.030      8.830
  Name = 
  14 active torsions:
  status: ('A' for Active; 'I' for Inactive)
    1  A    between atoms: C_2  and  C_31
    2  A    between atoms: C_4  and  O_27
    3  A    between atoms: C_4  and  C_36
    4  A    between atoms: C_8  and  C_23
    5  A    between atoms: C_8  and  N_42
    6  A    between atoms: C_11  and  C_34
    7  A    between atoms: C_11  and  C_38
    8  A    between atoms: C_12  and  C_13
    9  A    between atoms: C_12  and  C_31
   10  A    between atoms: C_23  and  C_41
   11  A    between atoms: C_24  and  C_26
   12  A    between atoms: N_29  and  N_42
   13  A    between atoms: C_30  and  C_33
   14  A    between atoms: C_34  and  C_36
                            x       y       z     vdW  Elec       q    Type
                         _______ _______ _______ _____ _____    ______ ____

>  <TORSDO>
F 14

$$$$
=
 OpenBabel10222421593D

 44 48  0  0  1  0  0  0  0  0999 V2000
  189.8880  176.5410  141.9200 C   0  0  2  0  0  3  0  0  0  0  0  0
  191.6400  177.0310  140.2570 C   0  0  0  0  0  0  0  0  0  0  0  0
  187.8960  177.0680  136.0540 N   0  0  0  0  0  0  0  0  0  0  0  0
  187.7840  178.2800  138.5130 C   0  0  0  0  0  0  0  0  0  0  0  0
  187.1770  178.2050  136.2270 C   0  0  0  0  0  3  0  0  0  0  0  0
  193.0590  177.3550  139.9570 C   0  0  0  0  0  1  0  0  0  0  0  0
  187.1190  178.7980  137.4470 N   0  0  0  0  0  0  0  0  0  0  0  0
  191.2250  176.9180  141.5890 O   0  0  0  0  0  0  0  0  0  0  0  0
  188.5420  177.0990  138.3580 C   0  0  0  0  0  0  0  0  0  0  0  0
  190.7910  176.9020  139.2810 N   0  0  0  0  0  0  0  0  0  0  0  0
  187.6270  178.9490  139.8580 C   0  0  2  0  0  3  0  0  0  0  0  0
  188.7120  178.5440  140.8570 C   0  0  0  0  0  2  0  0  0  0  0  0
  189.3810  176.5550  139.4910 C   0  0  1  0  0  3  0  0  0  0  0  0
  188.5720  176.4990  137.0860 C   0  0  0  0  0  0  0  0  0  0  0  0
  188.8840  177.0250  140.8660 C   0  0  1  0  0  3  0  0  0  0  0  0
  184.7540  178.9110  142.3250 C   0  0  0  0  0  3  0  0  0  0  0  0
  186.0120  179.1180  141.7570 C   0  0  0  0  0  3  0  0  0  0  0  0
  186.2540  178.7500  140.4310 C   0  0  0  0  0  0  0  0  0  0  0  0
  185.2260  178.1640  139.6760 C   0  0  0  0  0  3  0  0  0  0  0  0
  183.7170  178.3480  141.5650 C   0  0  0  0  0  0  0  0  0  0  0  0
  183.9660  177.9560  140.2440 C   0  0  0  0  0  3  0  0  0  0  0  0
  181.5410  179.7460  140.6940 O   0  0  0  0  0  1  0  0  0  0  0  0
  181.8620  179.2210  142.9890 C   0  0  0  0  0  2  0  0  0  0  0  0
  182.3960  178.0280  142.2100 C   0  0  1  0  0  3  0  0  0  0  0  0
  181.1930  178.8280  141.6900 C   0  0  2  0  0  3  0  0  0  0  0  0
  189.5360  176.7740  143.4060 C   0  0  2  0  0  3  0  0  0  0  0  0
  188.2800  177.6080  143.5950 C   0  0  0  0  0  1  0  0  0  0  0  0
  190.6600  177.2480  144.3350 C   0  0  2  0  0  3  0  0  0  0  0  0
  191.4900  176.1970  144.7280 O   0  0  0  0  0  1  0  0  0  0  0  0
  190.1160  177.9610  145.5290 C   0  0  0  0  0  3  0  0  0  0  0  0
  189.8490  177.2930  146.6470 C   0  0  0  0  0  3  0  0  0  0  0  0
  189.3010  178.0120  147.8330 C   0  0  0  0  0  2  0  0  0  0  0  0
  187.8460  178.3770  147.5980 C   0  0  0  0  0  2  0  0  0  0  0  0
  187.0950  177.1910  147.0190 C   0  0  0  0  0  2  0  0  0  0  0  0
  186.0520  177.6620  146.0250 C   0  0  0  0  0  2  0  0  0  0  0  0
  185.7340  179.0000  146.2660 O   0  0  0  0  0  0  0  0  0  0  0  0
  184.4080  179.1260  145.8510 C   0  0  0  0  0  1  0  0  0  0  0  0
  189.3460  175.2400  136.8420 C   0  0  0  0  0  2  0  0  0  0  0  0
  188.4290  174.1210  136.3670 C   0  0  0  0  0  2  0  0  0  0  0  0
  187.1120  174.2540  136.9760 N   0  0  0  0  0  2  0  0  0  0  0  0
  185.0190  172.9330  137.0780 C   0  0  0  0  0  0  0  0  0  0  0  0
  184.4040  173.8760  137.7140 N   0  0  0  0  0  2  0  0  0  0  0  0
  184.2860  171.6970  136.7050 C   0  0  0  0  0  1  0  0  0  0  0  0
  186.3780  173.0990  136.6640 N   0  0  0  0  0  2  0  0  0  0  0  0
  1 26  1  1  0  0  0
  2  8  1  0  0  0  0
  3  5  2  0  0  0  0
  3 14  1  0  0  0  0
  4 11  1  0  0  0  0
  5  7  1  0  0  0  0
  6  2  1  0  0  0  0
  7  4  2  0  0  0  0
  8  1  1  0  0  0  0
  9  4  1  0  0  0  0
 10 13  1  0  0  0  0
 10  2  2  0  0  0  0
 11 18  1  1  0  0  0
 11 12  1  0  0  0  0
 13  9  1  6  0  0  0
 13 15  1  0  0  0  0
 14  9  2  0  0  0  0
 15 12  1  6  0  0  0
 15  1  1  0  0  0  0
 17 16  1  0  0  0  0
 18 17  2  0  0  0  0
 19 21  2  0  0  0  0
 19 18  1  0  0  0  0
 20 16  2  0  0  0  0
 21 20  1  0  0  0  0
 24 20  1  6  0  0  0
 24 23  1  0  0  0  0
 25 22  1  6  0  0  0
 25 24  1  0  0  0  0
 25 23  1  0  0  0  0
 26 27  1  6  0  0  0
 26 28  1  0  0  0  0
 28 29  1  1  0  0  0
 28 30  1  0  0  0  0
 30 31  2  0  0  0  0
 31 32  1  0  0  0  0
 33 32  1  0  0  0  0
 34 33  1  0  0  0  0
 35 36  1  0  0  0  0
 35 34  1  0  0  0  0
 37 36  1  0  0  0  0
 38 14  1  0  0  0  0
 39 38  1  0  0  0  0
 39 40  1  0  0  0  0
 41 42  2  0  0  0  0
 43 41  1  0  0  0  0
 44 40  1  0  0  0  0
 44 41  1  0  0  0  0
M  END
>  <MODEL>
9

>  <REMARK>
 VINA RESULT:      -5.9      2.501      4.462
  Name = 
  14 active torsions:
  status: ('A' for Active; 'I' for Inactive)
    1  A    between atoms: C_2  and  C_31
    2  A    between atoms: C_4  and  O_27
    3  A    between atoms: C_4  and  C_36
    4  A    between atoms: C_8  and  C_23
    5  A    between atoms: C_8  and  N_42
    6  A    between atoms: C_11  and  C_34
    7  A    between atoms: C_11  and  C_38
    8  A    between atoms: C_12  and  C_13
    9  A    between atoms: C_12  and  C_31
   10  A    between atoms: C_23  and  C_41
   11  A    between atoms: C_24  and  C_26
   12  A    between atoms: N_29  and  N_42
   13  A    between atoms: C_30  and  C_33
   14  A    between atoms: C_34  and  C_36
                            x       y       z     vdW  Elec       q    Type
                         _______ _______ _______ _____ _____    ______ ____

>  <TORSDO>
F 14

$$$$
