=
 OpenBabel10232409533D

 59 69  0  0  1  0  0  0  0  0999 V2000
  185.1470  176.0370  137.2630 C   0  0  1  0  0  3  0  0  0  0  0  0
  182.4010  177.9180  137.5570 C   0  0  0  0  0  2  0  0  0  0  0  0
  183.8930  173.7880  137.2810 C   0  0  0  0  0  2  0  0  0  0  0  0
  180.5460  178.9010  134.4620 C   0  0  0  0  0  2  0  0  0  0  0  0
  190.6710  175.3770  139.0100 F   0  0  0  0  0  0  0  0  0  0  0  0
  183.5890  180.5310  138.6500 C   0  0  0  0  0  2  0  0  0  0  0  0
  179.9820  180.7050  136.3870 C   0  0  0  0  0  2  0  0  0  0  0  0
  188.7580  174.8870  135.7550 C   0  0  2  0  0  3  0  0  0  0  0  0
  184.4140  176.7420  138.4180 C   0  0  0  0  0  2  0  0  0  0  0  0
  180.3340  181.9430  137.2060 C   0  0  0  0  0  2  0  0  0  0  0  0
  190.2530  177.5250  136.3300 C   0  0  0  0  0  2  0  0  0  0  0  0
  184.2820  175.0390  136.4630 C   0  0  1  0  0  3  0  0  0  0  0  0
  187.2110  176.8660  136.5650 C   0  0  2  0  0  3  0  0  0  0  0  0
  182.0900  180.7890  138.6100 C   0  0  0  0  0  2  0  0  0  0  0  0
  187.9060  176.1280  135.4040 C   0  0  0  0  0  2  0  0  0  0  0  0
  189.9360  175.7850  137.9180 C   0  0  2  0  0  0  0  0  0  0  0  0
  184.9620  173.1780  137.9910 O   0  0  0  0  0  0  0  0  0  0  0  0
  190.8540  176.2170  136.8040 C   0  0  1  0  0  3  0  0  0  0  0  0
  187.6410  176.5210  137.8680 O   0  0  0  0  0  0  0  0  0  0  0  0
  183.8390  178.1040  138.0180 C   0  0  2  0  0  3  0  0  0  0  0  0
  187.9590  173.6300  135.9560 C   0  0  0  0  0  0  0  0  0  0  0  0
  183.9100  179.1280  139.1630 C   0  0  1  0  0  3  0  0  0  0  0  0
  186.9080  173.7160  136.7580 C   0  0  0  0  0  3  0  0  0  0  0  0
  185.8050  176.9510  136.4120 O   0  0  0  0  0  0  0  0  0  0  0  0
  185.4150  171.8990  135.9420 C   0  0  0  0  0  3  0  0  0  0  0  0
  187.6020  171.4240  134.9220 N   0  0  0  0  0  0  0  0  0  0  0  0
  188.9760  176.9380  138.0900 C   0  0  2  0  0  3  0  0  0  0  0  0
  182.3080  178.0460  136.0430 C   0  0  2  0  0  3  0  0  0  0  0  0
  188.4140  172.3580  135.3400 C   0  0  0  0  0  0  0  0  0  0  0  0
  180.8510  177.9560  135.6200 C   0  0  0  0  0  2  0  0  0  0  0  0
  186.1690  171.3470  134.9920 C   0  0  0  0  0  3  0  0  0  0  0  0
  181.7920  181.9400  137.6580 C   0  0  2  0  0  3  0  0  0  0  0  0
  180.9450  180.6490  134.8400 S   0  0  0  0  0  0  0  0  0  0  0  0
  183.0790  175.6560  135.7930 C   0  0  0  0  0  0  0  0  0  0  0  0
  190.0140  174.9410  136.6620 C   0  0  2  0  0  3  0  0  0  0  0  0
  182.0450  174.9690  135.5720 O   0  0  0  0  0  0  0  0  0  0  0  0
  189.3880  178.0390  137.3110 O   0  0  0  0  0  0  0  0  0  0  0  0
  190.2970  171.0970  134.4820 O   0  0  0  0  0  1  0  0  0  0  0  0
  189.8090  172.2050  135.0890 N   0  0  0  0  0  2  0  0  0  0  0  0
  183.1140  177.0240  135.3820 N   0  0  0  0  0  2  0  0  0  0  0  0
  185.9590  172.6390  137.1310 C   0  0  2  0  0  3  0  0  0  0  0  0
  182.2390  184.3210  137.5530 N   0  0  0  0  0  2  0  0  0  0  0  0
  182.1520  183.2600  138.2670 C   0  0  0  0  0  3  0  0  0  0  0  0
  185.2930  179.1620  139.8140 C   0  0  0  0  0  2  0  0  0  0  0  0
  185.1960  179.5450  141.1810 O   0  0  0  0  0  0  0  0  0  0  0  0
  185.4680  178.6520  142.2150 C   0  0  0  0  0  0  0  0  0  0  0  0
  186.8140  178.4230  142.6410 N   0  0  0  0  0  2  0  0  0  0  0  0
  184.5170  178.0280  142.7550 O   0  0  0  0  0  0  0  0  0  0  0  0
  189.4370  177.3330  144.0560 N   0  0  2  0  0  0  0  0  0  0  0  0
  190.0390  178.1760  146.1760 N   0  0  0  0  0  2  0  0  0  0  0  0
  188.1680  177.7880  144.5430 C   0  0  2  0  0  0  0  0  0  0  0  0
  187.7830  176.3000  142.7610 O   0  0  0  0  0  0  0  0  0  0  0  0
  188.5990  177.7830  146.0110 C   0  0  2  0  0  0  0  0  0  0  0  0
  187.6840  176.7490  145.6220 C   0  0  0  0  0  2  0  0  0  0  0  0
  187.1670  177.3190  143.5210 C   0  0  2  0  0  3  0  0  0  0  0  0
  189.0960  176.1530  143.2650 C   0  0  1  0  0  3  0  0  0  0  0  0
  189.7680  177.0050  145.4400 C   0  0  1  0  0  3  0  0  0  0  0  0
  190.6460  177.3240  141.9790 C   0  0  0  0  0  1  0  0  0  0  0  0
  190.0280  176.0240  142.1590 N   0  0  0  0  0  2  0  0  0  0  0  0
  1  9  1  1  0  0  0
  3 17  1  0  0  0  0
  4 33  1  0  0  0  0
  4 30  1  0  0  0  0
  6 22  1  0  0  0  0
  7 10  1  0  0  0  0
  8 15  1  1  0  0  0
  8 21  1  0  0  0  0
  8 35  1  0  0  0  0
 10 32  1  0  0  0  0
 11 37  1  0  0  0  0
 12  1  1  0  0  0  0
 12  3  1  1  0  0  0
 13 15  1  6  0  0  0
 13 19  1  0  0  0  0
 14  6  1  0  0  0  0
 16 27  1  0  0  0  0
 16  5  1  1  0  0  0
 18 11  1  6  0  0  0
 18 16  1  0  0  0  0
 19 27  1  0  0  0  0
 20  2  1  1  0  0  0
 20  9  1  0  0  0  0
 20 22  1  0  0  0  0
 21 23  2  0  0  0  0
 22 44  1  6  0  0  0
 23 41  1  0  0  0  0
 24 13  1  0  0  0  0
 24  1  1  0  0  0  0
 25 41  1  0  0  0  0
 26 31  1  0  0  0  0
 26 29  2  0  0  0  0
 27 37  1  6  0  0  0
 28 30  1  6  0  0  0
 28  2  1  0  0  0  0
 29 21  1  0  0  0  0
 31 25  2  0  0  0  0
 32 43  1  1  0  0  0
 32 14  1  0  0  0  0
 33  7  1  0  0  0  0
 34 12  1  0  0  0  0
 35 18  1  0  0  0  0
 35 16  1  0  0  0  0
 36 34  2  0  0  0  0
 38 39  1  0  0  0  0
 39 29  1  0  0  0  0
 40 34  1  0  0  0  0
 40 28  1  0  0  0  0
 41 17  1  0  0  0  0
 42 43  2  0  0  0  0
 44 45  1  0  0  0  0
 45 46  1  0  0  0  0
 46 47  1  0  0  0  0
 46 48  2  0  0  0  0
 47 55  1  0  0  0  0
 49 51  1  0  0  0  0
 49 57  1  0  0  0  0
 51 54  1  0  0  0  0
 51 53  1  0  0  0  0
 52 56  1  0  0  0  0
 52 55  1  0  0  0  0
 53 50  1  0  0  0  0
 54 53  1  0  0  0  0
 55 51  1  0  0  0  0
 56 49  1  0  0  0  0
 57 53  1  0  0  0  0
 57 50  1  0  0  0  0
 58 59  1  0  0  0  0
 59 56  1  0  0  0  0
M  END
>  <MODEL>
1

>  <REMARK>
 VINA RESULT:      -8.5      0.000      0.000
  Name = 
  6 active torsions:
  status: ('A' for Active; 'I' for Inactive)
    1  A    between atoms: C_13  and  O_23
    2  A    between atoms: O_23  and  C_57
    3  A    between atoms: N_27  and  C_40
    4  A    between atoms: C_33  and  C_57
    5  A    between atoms: N_37  and  C_43
    6  A    between atoms: C_46  and  C_49
                            x       y       z     vdW  Elec       q    Type
                         _______ _______ _______ _____ _____    ______ ____

>  <TORSDO>
F 6

$$$$
=
 OpenBabel10232409533D

 59 69  0  0  1  0  0  0  0  0999 V2000
  186.0050  178.3850  141.8960 C   0  0  1  0  0  3  0  0  0  0  0  0
  184.2960  178.2390  139.0290 C   0  0  0  0  0  2  0  0  0  0  0  0
  184.2680  179.8300  143.1310 C   0  0  0  0  0  2  0  0  0  0  0  0
  181.7230  175.5590  138.5950 C   0  0  0  0  0  2  0  0  0  0  0  0
  191.3050  179.0020  144.2480 F   0  0  0  0  0  0  0  0  0  0  0  0
  186.5310  177.5410  137.0420 C   0  0  0  0  0  2  0  0  0  0  0  0
  182.5410  176.3410  136.1460 C   0  0  0  0  0  2  0  0  0  0  0  0
  188.1870  176.9630  145.0350 C   0  0  2  0  0  3  0  0  0  0  0  0
  186.0440  179.1340  140.5520 C   0  0  0  0  0  2  0  0  0  0  0  0
  183.5390  176.3050  134.9940 C   0  0  0  0  0  2  0  0  0  0  0  0
  190.4880  175.7580  143.3660 C   0  0  0  0  0  2  0  0  0  0  0  0
  184.6400  178.4220  142.6170 C   0  0  1  0  0  3  0  0  0  0  0  0
  187.7540  176.9400  142.4310 C   0  0  2  0  0  3  0  0  0  0  0  0
  185.2920  177.6930  136.1730 C   0  0  0  0  0  2  0  0  0  0  0  0
  187.6700  176.2110  143.7870 C   0  0  0  0  0  2  0  0  0  0  0  0
  190.3470  178.0410  144.0090 C   0  0  2  0  0  0  0  0  0  0  0  0
  185.3030  180.5080  143.8310 O   0  0  0  0  0  0  0  0  0  0  0  0
  190.8170  176.7000  144.5070 C   0  0  1  0  0  3  0  0  0  0  0  0
  188.5530  178.1070  142.3990 O   0  0  0  0  0  0  0  0  0  0  0  0
  185.7820  178.2200  139.3510 C   0  0  2  0  0  3  0  0  0  0  0  0
  187.2090  177.9500  145.6060 C   0  0  0  0  0  0  0  0  0  0  0  0
  186.6060  178.6240  138.1170 C   0  0  1  0  0  3  0  0  0  0  0  0
  186.6480  178.7940  144.7530 C   0  0  0  0  0  3  0  0  0  0  0  0
  186.4990  177.0670  141.7860 O   0  0  0  0  0  0  0  0  0  0  0  0
  184.4930  179.3740  145.8540 C   0  0  0  0  0  3  0  0  0  0  0  0
  185.8360  178.3100  147.6190 N   0  0  0  0  0  0  0  0  0  0  0  0
  189.9210  177.7920  142.5820 C   0  0  2  0  0  3  0  0  0  0  0  0
  183.6390  176.9380  139.4690 C   0  0  2  0  0  3  0  0  0  0  0  0
  186.9820  178.0010  147.0730 C   0  0  0  0  0  0  0  0  0  0  0  0
  182.1800  176.9430  139.0460 C   0  0  0  0  0  2  0  0  0  0  0  0
  184.6010  178.7120  147.0060 C   0  0  0  0  0  3  0  0  0  0  0  0
  184.9850  176.3710  135.4800 C   0  0  2  0  0  3  0  0  0  0  0  0
  182.7330  174.8830  137.2240 S   0  0  0  0  0  0  0  0  0  0  0  0
  183.5070  177.8030  141.8360 C   0  0  0  0  0  0  0  0  0  0  0  0
  189.6590  177.4210  145.2080 C   0  0  2  0  0  3  0  0  0  0  0  0
  182.3220  178.1950  142.0060 O   0  0  0  0  0  0  0  0  0  0  0  0
  190.2850  176.4890  142.1830 O   0  0  0  0  0  0  0  0  0  0  0  0
  187.8980  177.5430  149.2690 O   0  0  0  0  0  1  0  0  0  0  0  0
  188.0450  177.5750  147.9230 N   0  0  0  0  0  2  0  0  0  0  0  0
  183.7720  176.7470  140.9100 N   0  0  0  0  0  2  0  0  0  0  0  0
  185.6610  179.8620  145.0460 C   0  0  2  0  0  3  0  0  0  0  0  0
  186.7180  175.1070  134.3510 N   0  0  0  0  0  2  0  0  0  0  0  0
  185.9290  176.1170  134.3460 C   0  0  0  0  0  3  0  0  0  0  0  0
  188.0780  178.8520  138.4630 C   0  0  0  0  0  2  0  0  0  0  0  0
  188.6000  177.7470  139.1910 O   0  0  0  0  0  0  0  0  0  0  0  0
  189.7730  177.1020  138.8050 C   0  0  0  0  0  0  0  0  0  0  0  0
  189.7260  175.9700  137.9320 N   0  0  0  0  0  2  0  0  0  0  0  0
  190.8760  177.5130  139.2520 O   0  0  0  0  0  0  0  0  0  0  0  0
  191.2200  174.6720  135.4520 N   0  0  2  0  0  0  0  0  0  0  0  0
  192.9140  175.8960  134.3550 N   0  0  0  0  0  2  0  0  0  0  0  0
  191.6280  175.5710  136.4910 C   0  0  2  0  0  0  0  0  0  0  0  0
  190.4430  173.7940  137.4770 O   0  0  0  0  0  0  0  0  0  0  0  0
  192.9870  175.8740  135.8550 C   0  0  2  0  0  0  0  0  0  0  0  0
  193.0130  175.0570  137.0340 C   0  0  0  0  0  2  0  0  0  0  0  0
  190.8820  175.1140  137.7170 C   0  0  2  0  0  3  0  0  0  0  0  0
  190.8710  173.4520  136.1740 C   0  0  1  0  0  3  0  0  0  0  0  0
  192.6090  174.6810  135.0000 C   0  0  1  0  0  3  0  0  0  0  0  0
  188.6700  172.7190  136.3860 C   0  0  0  0  0  1  0  0  0  0  0  0
  189.7990  172.7640  135.4760 N   0  0  0  0  0  2  0  0  0  0  0  0
  1  9  1  6  0  0  0
  1 12  1  0  0  0  0
  3 17  1  0  0  0  0
  4 30  1  0  0  0  0
  6 22  1  0  0  0  0
  7 33  1  0  0  0  0
  8 15  1  6  0  0  0
  8 35  1  0  0  0  0
  8 21  1  0  0  0  0
 10 32  1  0  0  0  0
 10  7  1  0  0  0  0
 12  3  1  6  0  0  0
 13 15  1  1  0  0  0
 14  6  1  0  0  0  0
 16  5  1  1  0  0  0
 16 18  1  0  0  0  0
 16 35  1  0  0  0  0
 17 41  1  0  0  0  0
 18 11  1  6  0  0  0
 18 35  1  0  0  0  0
 19 13  1  0  0  0  0
 19 27  1  0  0  0  0
 20  2  1  6  0  0  0
 20  9  1  0  0  0  0
 21 29  1  0  0  0  0
 22 44  1  1  0  0  0
 22 20  1  0  0  0  0
 23 41  1  0  0  0  0
 23 21  2  0  0  0  0
 24  1  1  0  0  0  0
 24 13  1  0  0  0  0
 25 31  2  0  0  0  0
 27 37  1  1  0  0  0
 27 16  1  0  0  0  0
 28  2  1  1  0  0  0
 28 40  1  0  0  0  0
 29 26  2  0  0  0  0
 29 39  1  0  0  0  0
 30 28  1  0  0  0  0
 31 26  1  0  0  0  0
 32 43  1  6  0  0  0
 32 14  1  0  0  0  0
 33  4  1  0  0  0  0
 34 36  2  0  0  0  0
 34 12  1  0  0  0  0
 37 11  1  0  0  0  0
 39 38  1  0  0  0  0
 40 34  1  0  0  0  0
 41 25  1  0  0  0  0
 43 42  2  0  0  0  0
 44 45  1  0  0  0  0
 46 45  1  0  0  0  0
 46 48  2  0  0  0  0
 47 46  1  0  0  0  0
 49 56  1  0  0  0  0
 49 51  1  0  0  0  0
 50 57  1  0  0  0  0
 50 53  1  0  0  0  0
 51 54  1  0  0  0  0
 51 55  1  0  0  0  0
 52 55  1  0  0  0  0
 53 51  1  0  0  0  0
 53 54  1  0  0  0  0
 55 47  1  0  0  0  0
 56 52  1  0  0  0  0
 57 49  1  0  0  0  0
 57 53  1  0  0  0  0
 59 56  1  0  0  0  0
 59 58  1  0  0  0  0
M  END
>  <MODEL>
2

>  <REMARK>
 VINA RESULT:      -5.7      3.239      8.271
  Name = 
  6 active torsions:
  status: ('A' for Active; 'I' for Inactive)
    1  A    between atoms: C_13  and  O_23
    2  A    between atoms: O_23  and  C_57
    3  A    between atoms: N_27  and  C_40
    4  A    between atoms: C_33  and  C_57
    5  A    between atoms: N_37  and  C_43
    6  A    between atoms: C_46  and  C_49
                            x       y       z     vdW  Elec       q    Type
                         _______ _______ _______ _____ _____    ______ ____

>  <TORSDO>
F 6

$$$$
