=
 OpenBabel10232407433D

 36 38  0  0  1  0  0  0  0  0999 V2000
  187.6420  177.6030  145.0110 C   0  0  2  0  0  3  0  0  0  0  0  0
  185.6350  178.3290  143.6300 C   0  0  0  0  0  0  0  0  0  0  0  0
  183.8080  177.9150  141.8120 C   0  0  0  0  0  3  0  0  0  0  0  0
  186.6470  177.5660  146.1850 C   0  0  2  0  0  3  0  0  0  0  0  0
  185.5060  178.6050  146.1200 C   0  0  0  0  0  2  0  0  0  0  0  0
  188.4860  178.8750  145.0270 C   0  0  0  0  0  1  0  0  0  0  0  0
  184.7190  178.1240  142.7230 C   0  0  0  0  0  0  0  0  0  0  0  0
  186.8530  177.4390  143.6970 C   0  0  1  0  0  3  0  0  0  0  0  0
  185.3590  179.2850  144.7510 C   0  0  0  0  0  2  0  0  0  0  0  0
  189.3260  177.4880  140.1730 C   0  0  0  0  0  0  0  0  0  0  0  0
  187.7060  177.4710  142.4590 C   0  0  0  0  0  0  0  0  0  0  0  0
  190.1840  177.4960  138.9600 C   0  0  0  0  0  1  0  0  0  0  0  0
  188.3510  178.4750  140.3440 C   0  0  0  0  0  3  0  0  0  0  0  0
  187.5440  178.4680  141.4850 C   0  0  0  0  0  3  0  0  0  0  0  0
  189.4920  176.4930  141.1400 C   0  0  0  0  0  3  0  0  0  0  0  0
  188.6830  176.4860  142.2810 C   0  0  0  0  0  3  0  0  0  0  0  0
  182.5260  178.9650  139.8500 C   0  0  1  0  0  3  0  0  0  0  0  0
  184.1790  180.2650  139.1340 N   0  0  0  0  0  0  0  0  0  0  0  0
  182.9000  179.9060  138.9150 C   0  0  0  0  0  0  0  0  0  0  0  0
  183.6490  178.7800  140.6330 C   0  0  0  0  0  0  0  0  0  0  0  0
  184.6360  179.5740  140.1710 N   0  0  0  0  0  0  0  0  0  0  0  0
  181.2170  178.4590  140.0920 N   0  0  0  0  0  1  0  0  0  0  0  0
  182.0740  180.5310  137.9260 N   0  0  0  0  0  2  0  0  0  0  0  0
  181.0770  181.5260  138.1800 C   0  0  0  0  0  0  0  0  0  0  0  0
  180.6340  181.7050  139.3470 O   0  0  0  0  0  0  0  0  0  0  0  0
  180.5660  182.2610  137.1110 O   0  0  0  0  0  0  0  0  0  0  0  0
  180.3430  183.6590  137.2000 C   0  0  0  0  0  2  0  0  0  0  0  0
  181.0470  184.3580  136.0580 C   0  0  0  0  0  1  0  0  0  0  0  0
  187.2920  177.4430  147.5640 C   0  0  0  0  0  2  0  0  0  0  0  0
  188.4860  176.4990  147.5660 C   0  0  0  0  0  2  0  0  0  0  0  0
  189.7800  177.2770  147.7520 C   0  0  0  0  0  2  0  0  0  0  0  0
  190.9790  176.4720  147.2720 C   0  0  0  0  0  2  0  0  0  0  0  0
  191.6600  177.1760  146.1100 C   0  0  0  0  0  2  0  0  0  0  0  0
  191.2870  176.5060  144.7970 C   0  0  0  0  0  2  0  0  0  0  0  0
  191.6720  178.8050  143.9100 C   0  0  0  0  0  1  0  0  0  0  0  0
  191.7670  177.3220  143.6070 C   0  0  0  0  0  2  0  0  0  0  0  0
  1  6  1  6  0  0  0
  1  4  1  0  0  0  0
  2  8  1  0  0  0  0
  2  9  1  0  0  0  0
  3  7  2  0  0  0  0
  4 29  1  1  0  0  0
  5  4  1  0  0  0  0
  7  2  2  0  0  0  0
  8 11  1  6  0  0  0
  8  1  1  0  0  0  0
  9  5  1  0  0  0  0
 10 13  2  0  0  0  0
 10 15  1  0  0  0  0
 12 10  1  0  0  0  0
 13 14  1  0  0  0  0
 14 11  2  0  0  0  0
 15 16  2  0  0  0  0
 16 11  1  0  0  0  0
 17 22  1  1  0  0  0
 17 20  1  0  0  0  0
 18 21  1  0  0  0  0
 19 18  2  0  0  0  0
 19 17  1  0  0  0  0
 20  3  1  0  0  0  0
 21 20  2  0  0  0  0
 23 24  1  0  0  0  0
 23 19  1  0  0  0  0
 24 25  2  0  0  0  0
 26 27  1  0  0  0  0
 26 24  1  0  0  0  0
 28 27  1  0  0  0  0
 29 30  1  0  0  0  0
 30 31  1  0  0  0  0
 32 31  1  0  0  0  0
 33 32  1  0  0  0  0
 34 33  1  0  0  0  0
 36 35  1  0  0  0  0
 36 34  1  0  0  0  0
M  END
>  <MODEL>
1

>  <REMARK>
 VINA RESULT:      -8.0      0.000      0.000
  Name = 
  12 active torsions:
  status: ('A' for Active; 'I' for Inactive)
    1  A    between atoms: O_3  and  C_7
    2  A    between atoms: O_3  and  C_30
    3  A    between atoms: C_4  and  C_33
    4  A    between atoms: C_6  and  C_11
    5  A    between atoms: C_6  and  C_26
    6  A    between atoms: C_9  and  C_23
    7  A    between atoms: C_10  and  C_15
    8  A    between atoms: C_10  and  C_20
    9  A    between atoms: C_11  and  C_17
   10  A    between atoms: C_15  and  C_25
   11  A    between atoms: N_19  and  C_21
   12  A    between atoms: C_20  and  C_26
                            x       y       z     vdW  Elec       q    Type
                         _______ _______ _______ _____ _____    ______ ____

>  <TORSDO>
F 12

$$$$
=
 OpenBabel10232407433D

 36 38  0  0  1  0  0  0  0  0999 V2000
  189.0650  178.0250  143.5760 C   0  0  2  0  0  3  0  0  0  0  0  0
  189.2220  177.6250  141.0710 C   0  0  0  0  0  0  0  0  0  0  0  0
  188.9670  178.3890  138.5870 C   0  0  0  0  0  3  0  0  0  0  0  0
  190.6040  178.0120  143.5360 C   0  0  2  0  0  3  0  0  0  0  0  0
  191.2300  177.0830  142.4730 C   0  0  0  0  0  2  0  0  0  0  0  0
  188.5020  176.6950  144.0710 C   0  0  0  0  0  1  0  0  0  0  0  0
  189.0970  178.0050  139.8280 C   0  0  0  0  0  0  0  0  0  0  0  0
  188.5430  178.4000  142.1750 C   0  0  1  0  0  3  0  0  0  0  0  0
  190.2320  176.5750  141.4210 C   0  0  0  0  0  2  0  0  0  0  0  0
  184.2450  178.4850  141.9190 C   0  0  0  0  0  0  0  0  0  0  0  0
  187.0430  178.4370  142.0670 C   0  0  0  0  0  0  0  0  0  0  0  0
  182.7620  178.5130  141.8420 C   0  0  0  0  0  1  0  0  0  0  0  0
  185.0090  178.7970  140.7910 C   0  0  0  0  0  3  0  0  0  0  0  0
  186.4040  178.7720  140.8630 C   0  0  0  0  0  3  0  0  0  0  0  0
  184.8760  178.1500  143.1200 C   0  0  0  0  0  3  0  0  0  0  0  0
  186.2730  178.1250  143.1930 C   0  0  0  0  0  3  0  0  0  0  0  0
  188.3130  176.4290  137.0610 C   0  0  1  0  0  3  0  0  0  0  0  0
  186.3920  177.2900  136.3520 N   0  0  0  0  0  0  0  0  0  0  0  0
  187.2070  176.2220  136.2660 C   0  0  0  0  0  0  0  0  0  0  0  0
  188.1170  177.6770  137.6200 C   0  0  0  0  0  0  0  0  0  0  0  0
  186.9500  178.1770  137.1660 N   0  0  0  0  0  0  0  0  0  0  0  0
  189.3230  175.4840  137.4010 N   0  0  0  0  0  1  0  0  0  0  0  0
  186.8620  175.0360  135.5400 N   0  0  0  0  0  2  0  0  0  0  0  0
  186.2110  173.8850  136.0860 C   0  0  0  0  0  0  0  0  0  0  0  0
  186.1690  173.7040  137.3330 O   0  0  0  0  0  0  0  0  0  0  0  0
  185.6680  172.9390  135.2180 O   0  0  0  0  0  0  0  0  0  0  0  0
  185.8170  171.5450  135.4380 C   0  0  0  0  0  2  0  0  0  0  0  0
  184.4540  170.9120  135.6160 C   0  0  0  0  0  1  0  0  0  0  0  0
  191.2770  177.9260  144.9040 C   0  0  0  0  0  2  0  0  0  0  0  0
  191.6620  176.4990  145.2750 C   0  0  0  0  0  2  0  0  0  0  0  0
  191.3690  176.2340  146.7430 C   0  0  0  0  0  2  0  0  0  0  0  0
  190.4710  177.3140  147.3280 C   0  0  0  0  0  2  0  0  0  0  0  0
  189.0720  176.7700  147.5660 C   0  0  0  0  0  2  0  0  0  0  0  0
  188.0780  177.9140  147.6980 C   0  0  0  0  0  2  0  0  0  0  0  0
  185.9520  178.8900  146.8300 C   0  0  0  0  0  1  0  0  0  0  0  0
  186.8240  177.6500  146.8790 C   0  0  0  0  0  2  0  0  0  0  0  0
  1  6  1  6  0  0  0
  2  9  1  0  0  0  0
  2  8  1  0  0  0  0
  3  7  2  0  0  0  0
  4  1  1  0  0  0  0
  4 29  1  1  0  0  0
  5  4  1  0  0  0  0
  7  2  2  0  0  0  0
  8 11  1  1  0  0  0
  8  1  1  0  0  0  0
  9  5  1  0  0  0  0
 10 15  1  0  0  0  0
 11 16  1  0  0  0  0
 12 10  1  0  0  0  0
 13 14  1  0  0  0  0
 13 10  2  0  0  0  0
 14 11  2  0  0  0  0
 15 16  2  0  0  0  0
 17 22  1  1  0  0  0
 17 20  1  0  0  0  0
 18 21  1  0  0  0  0
 19 18  2  0  0  0  0
 19 17  1  0  0  0  0
 20  3  1  0  0  0  0
 21 20  2  0  0  0  0
 23 24  1  0  0  0  0
 23 19  1  0  0  0  0
 24 25  2  0  0  0  0
 26 27  1  0  0  0  0
 26 24  1  0  0  0  0
 27 28  1  0  0  0  0
 29 30  1  0  0  0  0
 30 31  1  0  0  0  0
 31 32  1  0  0  0  0
 32 33  1  0  0  0  0
 33 34  1  0  0  0  0
 35 36  1  0  0  0  0
 36 34  1  0  0  0  0
M  END
>  <MODEL>
2

>  <REMARK>
 VINA RESULT:      -7.7      4.070      6.419
  Name = 
  12 active torsions:
  status: ('A' for Active; 'I' for Inactive)
    1  A    between atoms: O_3  and  C_7
    2  A    between atoms: O_3  and  C_30
    3  A    between atoms: C_4  and  C_33
    4  A    between atoms: C_6  and  C_11
    5  A    between atoms: C_6  and  C_26
    6  A    between atoms: C_9  and  C_23
    7  A    between atoms: C_10  and  C_15
    8  A    between atoms: C_10  and  C_20
    9  A    between atoms: C_11  and  C_17
   10  A    between atoms: C_15  and  C_25
   11  A    between atoms: N_19  and  C_21
   12  A    between atoms: C_20  and  C_26
                            x       y       z     vdW  Elec       q    Type
                         _______ _______ _______ _____ _____    ______ ____

>  <TORSDO>
F 12

$$$$
=
 OpenBabel10232407433D

 36 38  0  0  1  0  0  0  0  0999 V2000
  188.7380  178.0140  143.8900 C   0  0  2  0  0  3  0  0  0  0  0  0
  190.3480  177.0650  142.1670 C   0  0  0  0  0  0  0  0  0  0  0  0
  191.8450  177.2770  140.0390 C   0  0  0  0  0  3  0  0  0  0  0  0
  189.9300  177.9090  144.8590 C   0  0  2  0  0  3  0  0  0  0  0  0
  190.8990  176.7370  144.5920 C   0  0  0  0  0  2  0  0  0  0  0  0
  187.7580  176.8570  144.0720 C   0  0  0  0  0  1  0  0  0  0  0  0
  191.0990  177.1680  141.1040 C   0  0  0  0  0  0  0  0  0  0  0  0
  189.2850  178.0990  142.4510 C   0  0  1  0  0  3  0  0  0  0  0  0
  190.7050  176.0650  143.2250 C   0  0  0  0  0  2  0  0  0  0  0  0
  186.1990  178.3800  139.4620 C   0  0  0  0  0  0  0  0  0  0  0  0
  188.2200  178.1920  141.3930 C   0  0  0  0  0  0  0  0  0  0  0  0
  185.1270  178.4810  138.4380 C   0  0  0  0  0  1  0  0  0  0  0  0
  187.4750  177.9430  139.0960 C   0  0  0  0  0  3  0  0  0  0  0  0
  188.4830  177.8480  140.0580 C   0  0  0  0  0  3  0  0  0  0  0  0
  185.9310  178.7230  140.7900 C   0  0  0  0  0  3  0  0  0  0  0  0
  186.9410  178.6290  141.7530 C   0  0  0  0  0  3  0  0  0  0  0  0
  192.5010  176.2950  137.7580 C   0  0  1  0  0  3  0  0  0  0  0  0
  190.7850  174.8970  137.5800 N   0  0  0  0  0  0  0  0  0  0  0  0
  191.9070  175.3290  136.9750 C   0  0  0  0  0  0  0  0  0  0  0  0
  191.6730  176.4180  138.8570 C   0  0  0  0  0  0  0  0  0  0  0  0
  190.6390  175.5640  138.7180 N   0  0  0  0  0  0  0  0  0  0  0  0
  193.7890  176.8780  137.5830 N   0  0  0  0  0  1  0  0  0  0  0  0
  192.4140  174.7500  135.7670 N   0  0  0  0  0  2  0  0  0  0  0  0
  193.3810  173.6980  135.6900 C   0  0  0  0  0  0  0  0  0  0  0  0
  194.0960  173.4100  136.6880 O   0  0  0  0  0  0  0  0  0  0  0  0
  193.5570  173.0280  134.4790 O   0  0  0  0  0  0  0  0  0  0  0  0
  193.7660  171.6260  134.4220 C   0  0  0  0  0  2  0  0  0  0  0  0
  192.4870  170.9080  134.7970 C   0  0  0  0  0  1  0  0  0  0  0  0
  189.5710  178.0890  146.3330 C   0  0  0  0  0  2  0  0  0  0  0  0
  189.0850  176.7970  146.9760 C   0  0  0  0  0  2  0  0  0  0  0  0
  187.9880  177.0860  147.9880 C   0  0  0  0  0  2  0  0  0  0  0  0
  187.2880  178.4010  147.6790 C   0  0  0  0  0  2  0  0  0  0  0  0
  185.9580  178.1460  146.9880 C   0  0  0  0  0  2  0  0  0  0  0  0
  185.6880  179.2260  145.9510 C   0  0  0  0  0  2  0  0  0  0  0  0
  183.4030  178.9710  144.9830 C   0  0  0  0  0  1  0  0  0  0  0  0
  184.8780  178.6790  144.7870 C   0  0  0  0  0  2  0  0  0  0  0  0
  1  6  1  6  0  0  0
  1  4  1  0  0  0  0
  2  8  1  0  0  0  0
  2  9  1  0  0  0  0
  3  7  2  0  0  0  0
  4 29  1  1  0  0  0
  5  4  1  0  0  0  0
  7  2  2  0  0  0  0
  8 11  1  6  0  0  0
  8  1  1  0  0  0  0
  9  5  1  0  0  0  0
 10 15  1  0  0  0  0
 11 16  1  0  0  0  0
 12 10  1  0  0  0  0
 13 10  2  0  0  0  0
 13 14  1  0  0  0  0
 14 11  2  0  0  0  0
 15 16  2  0  0  0  0
 17 22  1  1  0  0  0
 17 20  1  0  0  0  0
 18 21  1  0  0  0  0
 19 18  2  0  0  0  0
 19 17  1  0  0  0  0
 20  3  1  0  0  0  0
 21 20  2  0  0  0  0
 23 19  1  0  0  0  0
 24 23  1  0  0  0  0
 24 25  2  0  0  0  0
 26 24  1  0  0  0  0
 27 26  1  0  0  0  0
 27 28  1  0  0  0  0
 29 30  1  0  0  0  0
 30 31  1  0  0  0  0
 32 31  1  0  0  0  0
 33 32  1  0  0  0  0
 34 33  1  0  0  0  0
 36 35  1  0  0  0  0
 36 34  1  0  0  0  0
M  END
>  <MODEL>
3

>  <REMARK>
 VINA RESULT:      -7.6      5.489      8.583
  Name = 
  12 active torsions:
  status: ('A' for Active; 'I' for Inactive)
    1  A    between atoms: O_3  and  C_7
    2  A    between atoms: O_3  and  C_30
    3  A    between atoms: C_4  and  C_33
    4  A    between atoms: C_6  and  C_11
    5  A    between atoms: C_6  and  C_26
    6  A    between atoms: C_9  and  C_23
    7  A    between atoms: C_10  and  C_15
    8  A    between atoms: C_10  and  C_20
    9  A    between atoms: C_11  and  C_17
   10  A    between atoms: C_15  and  C_25
   11  A    between atoms: N_19  and  C_21
   12  A    between atoms: C_20  and  C_26
                            x       y       z     vdW  Elec       q    Type
                         _______ _______ _______ _____ _____    ______ ____

>  <TORSDO>
F 12

$$$$
=
 OpenBabel10232407433D

 36 38  0  0  1  0  0  0  0  0999 V2000
  189.0980  178.0460  143.8150 C   0  0  2  0  0  3  0  0  0  0  0  0
  189.3040  177.2910  141.3980 C   0  0  0  0  0  0  0  0  0  0  0  0
  189.1710  177.7120  138.8240 C   0  0  0  0  0  3  0  0  0  0  0  0
  190.6340  177.9410  143.8360 C   0  0  2  0  0  3  0  0  0  0  0  0
  191.2340  176.8390  142.9360 C   0  0  0  0  0  2  0  0  0  0  0  0
  188.4400  176.8320  144.4670 C   0  0  0  0  0  1  0  0  0  0  0  0
  189.2400  177.4990  140.1100 C   0  0  0  0  0  0  0  0  0  0  0  0
  188.6410  178.2500  142.3570 C   0  0  1  0  0  3  0  0  0  0  0  0
  190.2380  176.2450  141.9270 C   0  0  0  0  0  2  0  0  0  0  0  0
  184.3660  178.5280  141.9250 C   0  0  0  0  0  0  0  0  0  0  0  0
  187.1500  178.3550  142.1880 C   0  0  0  0  0  0  0  0  0  0  0  0
  182.8900  178.6200  141.7870 C   0  0  0  0  0  1  0  0  0  0  0  0
  185.1920  178.9090  140.8640 C   0  0  0  0  0  3  0  0  0  0  0  0
  186.5810  178.8220  140.9940 C   0  0  0  0  0  3  0  0  0  0  0  0
  184.9280  178.0610  143.1160 C   0  0  0  0  0  3  0  0  0  0  0  0
  186.3190  177.9750  143.2470 C   0  0  0  0  0  3  0  0  0  0  0  0
  187.1030  177.2840  137.3620 C   0  0  1  0  0  3  0  0  0  0  0  0
  187.6880  175.2510  136.6840 N   0  0  0  0  0  0  0  0  0  0  0  0
  186.7430  176.2040  136.5840 C   0  0  0  0  0  0  0  0  0  0  0  0
  188.3080  176.9210  137.9330 C   0  0  0  0  0  0  0  0  0  0  0  0
  188.6330  175.6830  137.5100 N   0  0  0  0  0  0  0  0  0  0  0  0
  186.4860  178.5670  137.3990 N   0  0  0  0  0  1  0  0  0  0  0  0
  185.6240  176.1020  135.6960 N   0  0  0  0  0  2  0  0  0  0  0  0
  184.2760  175.8210  136.0850 C   0  0  0  0  0  0  0  0  0  0  0  0
  184.0250  175.3310  137.2200 O   0  0  0  0  0  0  0  0  0  0  0  0
  183.2470  176.0480  135.1720 O   0  0  0  0  0  0  0  0  0  0  0  0
  181.9480  176.4400  135.5880 C   0  0  0  0  0  2  0  0  0  0  0  0
  181.9420  177.9200  135.9010 C   0  0  0  0  0  1  0  0  0  0  0  0
  191.2600  178.0090  145.2270 C   0  0  0  0  0  2  0  0  0  0  0  0
  191.6070  176.6320  145.7780 C   0  0  0  0  0  2  0  0  0  0  0  0
  191.2750  176.5520  147.2590 C   0  0  0  0  0  2  0  0  0  0  0  0
  189.7700  176.5220  147.4830 C   0  0  0  0  0  2  0  0  0  0  0  0
  189.2990  177.8290  148.0990 C   0  0  0  0  0  2  0  0  0  0  0  0
  187.7970  177.7880  148.3360 C   0  0  0  0  0  2  0  0  0  0  0  0
  185.8500  178.2110  146.8350 C   0  0  0  0  0  1  0  0  0  0  0  0
  187.0780  178.8210  147.4830 C   0  0  0  0  0  2  0  0  0  0  0  0
  1  4  1  0  0  0  0
  1  6  1  6  0  0  0
  2  9  1  0  0  0  0
  2  8  1  0  0  0  0
  3  7  2  0  0  0  0
  4 29  1  1  0  0  0
  5  4  1  0  0  0  0
  7  2  2  0  0  0  0
  8 11  1  1  0  0  0
  8  1  1  0  0  0  0
  9  5  1  0  0  0  0
 10 15  1  0  0  0  0
 11 16  1  0  0  0  0
 12 10  1  0  0  0  0
 13 14  1  0  0  0  0
 13 10  2  0  0  0  0
 14 11  2  0  0  0  0
 15 16  2  0  0  0  0
 17 22  1  6  0  0  0
 17 20  1  0  0  0  0
 18 21  1  0  0  0  0
 19 18  2  0  0  0  0
 19 17  1  0  0  0  0
 20  3  1  0  0  0  0
 21 20  2  0  0  0  0
 23 24  1  0  0  0  0
 23 19  1  0  0  0  0
 24 25  2  0  0  0  0
 26 27  1  0  0  0  0
 26 24  1  0  0  0  0
 27 28  1  0  0  0  0
 29 30  1  0  0  0  0
 30 31  1  0  0  0  0
 31 32  1  0  0  0  0
 32 33  1  0  0  0  0
 33 34  1  0  0  0  0
 35 36  1  0  0  0  0
 36 34  1  0  0  0  0
M  END
>  <MODEL>
4

>  <REMARK>
 VINA RESULT:      -7.5      3.133      5.291
  Name = 
  12 active torsions:
  status: ('A' for Active; 'I' for Inactive)
    1  A    between atoms: O_3  and  C_7
    2  A    between atoms: O_3  and  C_30
    3  A    between atoms: C_4  and  C_33
    4  A    between atoms: C_6  and  C_11
    5  A    between atoms: C_6  and  C_26
    6  A    between atoms: C_9  and  C_23
    7  A    between atoms: C_10  and  C_15
    8  A    between atoms: C_10  and  C_20
    9  A    between atoms: C_11  and  C_17
   10  A    between atoms: C_15  and  C_25
   11  A    between atoms: N_19  and  C_21
   12  A    between atoms: C_20  and  C_26
                            x       y       z     vdW  Elec       q    Type
                         _______ _______ _______ _____ _____    ______ ____

>  <TORSDO>
F 12

$$$$
=
 OpenBabel10232407433D

 36 38  0  0  1  0  0  0  0  0999 V2000
  188.7380  177.4860  143.8340 C   0  0  2  0  0  3  0  0  0  0  0  0
  190.6530  176.9710  142.2440 C   0  0  0  0  0  0  0  0  0  0  0  0
  192.3580  177.6440  140.3840 C   0  0  0  0  0  3  0  0  0  0  0  0
  189.8070  177.3750  144.9370 C   0  0  2  0  0  3  0  0  0  0  0  0
  190.9420  176.3660  144.6610 C   0  0  0  0  0  2  0  0  0  0  0  0
  187.8980  176.2140  143.7340 C   0  0  0  0  0  1  0  0  0  0  0  0
  191.5080  177.3050  141.3150 C   0  0  0  0  0  0  0  0  0  0  0  0
  189.4400  177.8330  142.5070 C   0  0  1  0  0  3  0  0  0  0  0  0
  191.0020  175.8770  143.2060 C   0  0  0  0  0  2  0  0  0  0  0  0
  186.8140  178.1660  139.1110 C   0  0  0  0  0  0  0  0  0  0  0  0
  188.5090  177.9570  141.3320 C   0  0  0  0  0  0  0  0  0  0  0  0
  185.9140  178.2740  137.9340 C   0  0  0  0  0  1  0  0  0  0  0  0
  186.4230  178.7060  140.3400 C   0  0  0  0  0  3  0  0  0  0  0  0
  187.2690  178.6040  141.4470 C   0  0  0  0  0  3  0  0  0  0  0  0
  188.0480  177.5220  138.9910 C   0  0  0  0  0  3  0  0  0  0  0  0
  188.8940  177.4190  140.1000 C   0  0  0  0  0  3  0  0  0  0  0  0
  193.4760  176.1760  138.5980 C   0  0  1  0  0  3  0  0  0  0  0  0
  191.7850  176.1950  137.1590 N   0  0  0  0  0  0  0  0  0  0  0  0
  193.0260  175.7220  137.3770 C   0  0  0  0  0  0  0  0  0  0  0  0
  192.4410  176.9460  139.0920 C   0  0  0  0  0  0  0  0  0  0  0  0
  191.4340  176.9460  138.1950 N   0  0  0  0  0  0  0  0  0  0  0  0
  194.6510  175.7680  139.2930 N   0  0  0  0  0  1  0  0  0  0  0  0
  193.6740  174.7980  136.4950 N   0  0  0  0  0  2  0  0  0  0  0  0
  194.9670  174.9740  135.9090 C   0  0  0  0  0  0  0  0  0  0  0  0
  195.5090  176.1120  135.8800 O   0  0  0  0  0  0  0  0  0  0  0  0
  195.5990  173.8770  135.3240 O   0  0  0  0  0  0  0  0  0  0  0  0
  196.8870  173.4450  135.7360 C   0  0  0  0  0  2  0  0  0  0  0  0
  196.8620  173.1180  137.2130 C   0  0  0  0  0  1  0  0  0  0  0  0
  189.2520  177.3050  146.3580 C   0  0  0  0  0  2  0  0  0  0  0  0
  188.3760  178.5030  146.7010 C   0  0  0  0  0  2  0  0  0  0  0  0
  187.1010  178.0490  147.3940 C   0  0  0  0  0  2  0  0  0  0  0  0
  185.8840  178.7660  146.8280 C   0  0  0  0  0  2  0  0  0  0  0  0
  185.4490  178.1230  145.5210 C   0  0  0  0  0  2  0  0  0  0  0  0
  185.2740  179.1850  144.4450 C   0  0  0  0  0  2  0  0  0  0  0  0
  182.8060  178.8340  144.3250 C   0  0  0  0  0  1  0  0  0  0  0  0
  184.1010  178.8550  143.5350 C   0  0  0  0  0  2  0  0  0  0  0  0
  1  6  1  6  0  0  0
  1  4  1  0  0  0  0
  2  8  1  0  0  0  0
  2  9  1  0  0  0  0
  3  7  2  0  0  0  0
  4 29  1  1  0  0  0
  5  4  1  0  0  0  0
  7  2  2  0  0  0  0
  8 11  1  6  0  0  0
  8  1  1  0  0  0  0
  9  5  1  0  0  0  0
 10 13  1  0  0  0  0
 11 14  1  0  0  0  0
 12 10  1  0  0  0  0
 13 14  2  0  0  0  0
 15 10  2  0  0  0  0
 15 16  1  0  0  0  0
 16 11  2  0  0  0  0
 17 20  1  0  0  0  0
 17 22  1  1  0  0  0
 18 19  2  0  0  0  0
 18 21  1  0  0  0  0
 19 17  1  0  0  0  0
 20  3  1  0  0  0  0
 21 20  2  0  0  0  0
 23 19  1  0  0  0  0
 24 23  1  0  0  0  0
 25 24  2  0  0  0  0
 26 27  1  0  0  0  0
 26 24  1  0  0  0  0
 27 28  1  0  0  0  0
 29 30  1  0  0  0  0
 30 31  1  0  0  0  0
 32 31  1  0  0  0  0
 33 32  1  0  0  0  0
 34 33  1  0  0  0  0
 36 35  1  0  0  0  0
 36 34  1  0  0  0  0
M  END
>  <MODEL>
5

>  <REMARK>
 VINA RESULT:      -7.2      5.771      9.095
  Name = 
  12 active torsions:
  status: ('A' for Active; 'I' for Inactive)
    1  A    between atoms: O_3  and  C_7
    2  A    between atoms: O_3  and  C_30
    3  A    between atoms: C_4  and  C_33
    4  A    between atoms: C_6  and  C_11
    5  A    between atoms: C_6  and  C_26
    6  A    between atoms: C_9  and  C_23
    7  A    between atoms: C_10  and  C_15
    8  A    between atoms: C_10  and  C_20
    9  A    between atoms: C_11  and  C_17
   10  A    between atoms: C_15  and  C_25
   11  A    between atoms: N_19  and  C_21
   12  A    between atoms: C_20  and  C_26
                            x       y       z     vdW  Elec       q    Type
                         _______ _______ _______ _____ _____    ______ ____

>  <TORSDO>
F 12

$$$$
=
 OpenBabel10232407433D

 36 38  0  0  1  0  0  0  0  0999 V2000
  186.1490  178.1520  145.4330 C   0  0  2  0  0  3  0  0  0  0  0  0
  187.0320  177.8880  143.0650 C   0  0  0  0  0  0  0  0  0  0  0  0
  187.5270  178.7970  140.6680 C   0  0  0  0  0  3  0  0  0  0  0  0
  187.6310  178.0980  145.8450 C   0  0  2  0  0  3  0  0  0  0  0  0
  188.5330  177.2130  144.9570 C   0  0  0  0  0  2  0  0  0  0  0  0
  185.4510  176.8120  145.6580 C   0  0  0  0  0  1  0  0  0  0  0  0
  187.2820  178.3410  141.8660 C   0  0  0  0  0  0  0  0  0  0  0  0
  186.0660  178.6190  143.9670 C   0  0  1  0  0  3  0  0  0  0  0  0
  187.8840  176.7930  143.6300 C   0  0  0  0  0  2  0  0  0  0  0  0
  182.0710  178.8320  142.3730 C   0  0  0  0  0  0  0  0  0  0  0  0
  184.6640  178.7040  143.4260 C   0  0  0  0  0  0  0  0  0  0  0  0
  180.6960  178.8980  141.8150 C   0  0  0  0  0  1  0  0  0  0  0  0
  182.3750  179.4990  143.5630 C   0  0  0  0  0  3  0  0  0  0  0  0
  183.6680  179.4360  144.0890 C   0  0  0  0  0  3  0  0  0  0  0  0
  183.0610  178.1020  141.7090 C   0  0  0  0  0  3  0  0  0  0  0  0
  184.3550  178.0390  142.2350 C   0  0  0  0  0  3  0  0  0  0  0  0
  185.7920  178.4140  138.8130 C   0  0  1  0  0  3  0  0  0  0  0  0
  186.9570  176.8960  137.6860 N   0  0  0  0  0  0  0  0  0  0  0  0
  185.8060  177.5930  137.7060 C   0  0  0  0  0  0  0  0  0  0  0  0
  186.9920  178.1660  139.4520 C   0  0  0  0  0  0  0  0  0  0  0  0
  187.6720  177.2370  138.7500 N   0  0  0  0  0  0  0  0  0  0  0  0
  184.8560  179.4440  139.1140 N   0  0  0  0  0  1  0  0  0  0  0  0
  184.8410  177.5360  136.6490 N   0  0  0  0  0  2  0  0  0  0  0  0
  183.5630  176.8980  136.7220 C   0  0  0  0  0  0  0  0  0  0  0  0
  183.3140  176.0630  137.6340 O   0  0  0  0  0  0  0  0  0  0  0  0
  182.6110  177.1750  135.7400 O   0  0  0  0  0  0  0  0  0  0  0  0
  181.2680  177.4970  136.0680 C   0  0  0  0  0  2  0  0  0  0  0  0
  181.1830  178.9480  136.4860 C   0  0  0  0  0  1  0  0  0  0  0  0
  187.8710  177.9160  147.3420 C   0  0  0  0  0  2  0  0  0  0  0  0
  188.8720  176.8070  147.6410 C   0  0  0  0  0  2  0  0  0  0  0  0
  190.2540  177.3910  147.8900 C   0  0  0  0  0  2  0  0  0  0  0  0
  191.3360  176.5260  147.2590 C   0  0  0  0  0  2  0  0  0  0  0  0
  191.6090  176.9730  145.8330 C   0  0  0  0  0  2  0  0  0  0  0  0
  191.7260  175.7650  144.9160 C   0  0  0  0  0  2  0  0  0  0  0  0
  191.6070  177.6810  143.3220 C   0  0  0  0  0  1  0  0  0  0  0  0
  191.6060  176.1700  143.4550 C   0  0  0  0  0  2  0  0  0  0  0  0
  1  6  1  6  0  0  0
  1  4  1  0  0  0  0
  2  9  1  0  0  0  0
  2  8  1  0  0  0  0
  3  7  2  0  0  0  0
  4 29  1  1  0  0  0
  5  4  1  0  0  0  0
  7  2  2  0  0  0  0
  8 11  1  6  0  0  0
  8  1  1  0  0  0  0
  9  5  1  0  0  0  0
 10 13  1  0  0  0  0
 11 14  1  0  0  0  0
 12 10  1  0  0  0  0
 13 14  2  0  0  0  0
 15 16  1  0  0  0  0
 15 10  2  0  0  0  0
 16 11  2  0  0  0  0
 17 22  1  6  0  0  0
 17 20  1  0  0  0  0
 18 19  2  0  0  0  0
 18 21  1  0  0  0  0
 19 17  1  0  0  0  0
 20  3  1  0  0  0  0
 21 20  2  0  0  0  0
 23 24  1  0  0  0  0
 23 19  1  0  0  0  0
 24 25  2  0  0  0  0
 26 27  1  0  0  0  0
 26 24  1  0  0  0  0
 27 28  1  0  0  0  0
 29 30  1  0  0  0  0
 30 31  1  0  0  0  0
 32 31  1  0  0  0  0
 33 32  1  0  0  0  0
 34 33  1  0  0  0  0
 35 36  1  0  0  0  0
 36 34  1  0  0  0  0
M  END
>  <MODEL>
6

>  <REMARK>
 VINA RESULT:      -6.8      2.509      4.309
  Name = 
  12 active torsions:
  status: ('A' for Active; 'I' for Inactive)
    1  A    between atoms: O_3  and  C_7
    2  A    between atoms: O_3  and  C_30
    3  A    between atoms: C_4  and  C_33
    4  A    between atoms: C_6  and  C_11
    5  A    between atoms: C_6  and  C_26
    6  A    between atoms: C_9  and  C_23
    7  A    between atoms: C_10  and  C_15
    8  A    between atoms: C_10  and  C_20
    9  A    between atoms: C_11  and  C_17
   10  A    between atoms: C_15  and  C_25
   11  A    between atoms: N_19  and  C_21
   12  A    between atoms: C_20  and  C_26
                            x       y       z     vdW  Elec       q    Type
                         _______ _______ _______ _____ _____    ______ ____

>  <TORSDO>
F 12

$$$$
=
 OpenBabel10232407433D

 36 38  0  0  1  0  0  0  0  0999 V2000
  185.9870  178.2090  145.4300 C   0  0  2  0  0  3  0  0  0  0  0  0
  187.0620  177.9640  143.1400 C   0  0  0  0  0  0  0  0  0  0  0  0
  187.7220  178.8800  140.7860 C   0  0  0  0  0  3  0  0  0  0  0  0
  187.4330  178.1950  145.9580 C   0  0  2  0  0  3  0  0  0  0  0  0
  188.4250  177.3330  145.1480 C   0  0  0  0  0  2  0  0  0  0  0  0
  185.3090  176.8520  145.6040 C   0  0  0  0  0  1  0  0  0  0  0  0
  187.3950  178.4200  141.9630 C   0  0  0  0  0  0  0  0  0  0  0  0
  186.0090  178.6710  143.9600 C   0  0  1  0  0  3  0  0  0  0  0  0
  187.8950  176.8930  143.7760 C   0  0  0  0  0  2  0  0  0  0  0  0
  182.1520  178.7870  142.0480 C   0  0  0  0  0  0  0  0  0  0  0  0
  184.6530  178.7180  143.3090 C   0  0  0  0  0  0  0  0  0  0  0  0
  180.8260  178.8220  141.3800 C   0  0  0  0  0  1  0  0  0  0  0  0
  182.2800  179.2240  143.3700 C   0  0  0  0  0  3  0  0  0  0  0  0
  183.5270  179.1910  143.9990 C   0  0  0  0  0  3  0  0  0  0  0  0
  183.2710  178.3150  141.3570 C   0  0  0  0  0  3  0  0  0  0  0  0
  184.5200  178.2820  141.9870 C   0  0  0  0  0  3  0  0  0  0  0  0
  188.0110  177.3440  138.7480 C   0  0  1  0  0  3  0  0  0  0  0  0
  185.9820  177.6620  137.9010 N   0  0  0  0  0  0  0  0  0  0  0  0
  187.1470  177.0090  137.7280 C   0  0  0  0  0  0  0  0  0  0  0  0
  187.3020  178.2320  139.5340 C   0  0  0  0  0  0  0  0  0  0  0  0
  186.0800  178.4110  138.9920 N   0  0  0  0  0  0  0  0  0  0  0  0
  189.2680  176.7460  139.0480 N   0  0  0  0  0  1  0  0  0  0  0  0
  187.3500  176.0400  136.6930 N   0  0  0  0  0  2  0  0  0  0  0  0
  188.2260  176.1900  135.5720 C   0  0  0  0  0  0  0  0  0  0  0  0
  188.6580  177.3280  135.2440 O   0  0  0  0  0  0  0  0  0  0  0  0
  188.5570  175.0650  134.8160 O   0  0  0  0  0  0  0  0  0  0  0  0
  188.6990  173.7820  135.4050 C   0  0  0  0  0  2  0  0  0  0  0  0
  187.6270  172.8580  134.8700 C   0  0  0  0  0  1  0  0  0  0  0  0
  187.5580  178.0230  147.4710 C   0  0  0  0  0  2  0  0  0  0  0  0
  188.5510  176.9320  147.8520 C   0  0  0  0  0  2  0  0  0  0  0  0
  189.9580  177.5000  147.9390 C   0  0  0  0  0  2  0  0  0  0  0  0
  190.9850  176.5040  147.4210 C   0  0  0  0  0  2  0  0  0  0  0  0
  191.6100  177.0090  146.1310 C   0  0  0  0  0  2  0  0  0  0  0  0
  191.7330  175.8740  145.1260 C   0  0  0  0  0  2  0  0  0  0  0  0
  191.6070  177.9020  143.6790 C   0  0  0  0  0  1  0  0  0  0  0  0
  191.6030  176.3860  143.7000 C   0  0  0  0  0  2  0  0  0  0  0  0
  1  6  1  6  0  0  0
  1  4  1  0  0  0  0
  2  9  1  0  0  0  0
  2  8  1  0  0  0  0
  3  7  2  0  0  0  0
  4 29  1  1  0  0  0
  5  4  1  0  0  0  0
  7  2  2  0  0  0  0
  8 11  1  6  0  0  0
  8  1  1  0  0  0  0
  9  5  1  0  0  0  0
 10 13  1  0  0  0  0
 11 14  1  0  0  0  0
 12 10  1  0  0  0  0
 13 14  2  0  0  0  0
 15 16  1  0  0  0  0
 15 10  2  0  0  0  0
 16 11  2  0  0  0  0
 17 22  1  1  0  0  0
 17 20  1  0  0  0  0
 18 21  1  0  0  0  0
 19 18  2  0  0  0  0
 19 17  1  0  0  0  0
 20  3  1  0  0  0  0
 21 20  2  0  0  0  0
 23 19  1  0  0  0  0
 24 23  1  0  0  0  0
 25 24  2  0  0  0  0
 26 27  1  0  0  0  0
 26 24  1  0  0  0  0
 28 27  1  0  0  0  0
 29 30  1  0  0  0  0
 30 31  1  0  0  0  0
 32 31  1  0  0  0  0
 33 32  1  0  0  0  0
 34 33  1  0  0  0  0
 35 36  1  0  0  0  0
 36 34  1  0  0  0  0
M  END
>  <MODEL>
7

>  <REMARK>
 VINA RESULT:      -6.7      3.462      5.866
  Name = 
  12 active torsions:
  status: ('A' for Active; 'I' for Inactive)
    1  A    between atoms: O_3  and  C_7
    2  A    between atoms: O_3  and  C_30
    3  A    between atoms: C_4  and  C_33
    4  A    between atoms: C_6  and  C_11
    5  A    between atoms: C_6  and  C_26
    6  A    between atoms: C_9  and  C_23
    7  A    between atoms: C_10  and  C_15
    8  A    between atoms: C_10  and  C_20
    9  A    between atoms: C_11  and  C_17
   10  A    between atoms: C_15  and  C_25
   11  A    between atoms: N_19  and  C_21
   12  A    between atoms: C_20  and  C_26
                            x       y       z     vdW  Elec       q    Type
                         _______ _______ _______ _____ _____    ______ ____

>  <TORSDO>
F 12

$$$$
=
 OpenBabel10232407433D

 36 38  0  0  1  0  0  0  0  0999 V2000
  185.7140  178.2050  145.1550 C   0  0  2  0  0  3  0  0  0  0  0  0
  187.1300  177.9140  143.0640 C   0  0  0  0  0  0  0  0  0  0  0  0
  188.6070  176.4860  141.4530 C   0  0  0  0  0  3  0  0  0  0  0  0
  184.5310  178.3010  144.1740 C   0  0  2  0  0  3  0  0  0  0  0  0
  184.8550  178.9390  142.8060 C   0  0  0  0  0  2  0  0  0  0  0  0
  186.1550  179.5840  145.6420 C   0  0  0  0  0  1  0  0  0  0  0  0
  187.8670  177.2020  142.2560 C   0  0  0  0  0  0  0  0  0  0  0  0
  186.8560  177.4310  144.4690 C   0  0  1  0  0  3  0  0  0  0  0  0
  186.3580  179.0790  142.5220 C   0  0  0  0  0  2  0  0  0  0  0  0
  190.3530  176.9750  146.9390 C   0  0  0  0  0  0  0  0  0  0  0  0
  188.0890  177.2750  145.3160 C   0  0  0  0  0  0  0  0  0  0  0  0
  191.5530  176.8140  147.8000 C   0  0  0  0  0  1  0  0  0  0  0  0
  190.5000  177.3360  145.5970 C   0  0  0  0  0  3  0  0  0  0  0  0
  189.3720  177.4870  144.7870 C   0  0  0  0  0  3  0  0  0  0  0  0
  189.0780  176.7630  147.4710 C   0  0  0  0  0  3  0  0  0  0  0  0
  187.9480  176.9130  146.6600 C   0  0  0  0  0  3  0  0  0  0  0  0
  190.6260  176.7370  139.8860 C   0  0  1  0  0  3  0  0  0  0  0  0
  191.9850  177.6760  141.3720 N   0  0  0  0  0  0  0  0  0  0  0  0
  191.8830  177.2640  140.0940 C   0  0  0  0  0  0  0  0  0  0  0  0
  189.9880  176.8530  141.1070 C   0  0  0  0  0  0  0  0  0  0  0  0
  190.8380  177.4170  141.9880 N   0  0  0  0  0  0  0  0  0  0  0  0
  190.0410  176.3600  138.6430 N   0  0  0  0  0  1  0  0  0  0  0  0
  192.9120  177.4800  139.1220 N   0  0  0  0  0  2  0  0  0  0  0  0
  193.3280  176.5390  138.1280 C   0  0  0  0  0  0  0  0  0  0  0  0
  193.0280  175.3190  138.2340 O   0  0  0  0  0  0  0  0  0  0  0  0
  194.1160  176.9800  137.0650 O   0  0  0  0  0  0  0  0  0  0  0  0
  194.3300  176.1860  135.9090 C   0  0  0  0  0  2  0  0  0  0  0  0
  195.5470  176.6900  135.1660 C   0  0  0  0  0  1  0  0  0  0  0  0
  183.2270  178.7990  144.7930 C   0  0  0  0  0  2  0  0  0  0  0  0
  182.2340  179.2880  143.7460 C   0  0  0  0  0  2  0  0  0  0  0  0
  180.9200  178.5320  143.8650 C   0  0  0  0  0  2  0  0  0  0  0  0
  180.2010  178.4680  142.5260 C   0  0  0  0  0  2  0  0  0  0  0  0
  181.0520  179.0970  141.4350 C   0  0  0  0  0  2  0  0  0  0  0  0
  181.2420  178.1190  140.2860 C   0  0  0  0  0  2  0  0  0  0  0  0
  182.6040  176.1540  139.5730 C   0  0  0  0  0  1  0  0  0  0  0  0
  182.6100  177.4580  140.3480 C   0  0  0  0  0  2  0  0  0  0  0  0
  1  6  1  6  0  0  0
  2  8  1  0  0  0  0
  3  7  2  0  0  0  0
  4 29  1  1  0  0  0
  4  1  1  0  0  0  0
  5  4  1  0  0  0  0
  7  2  2  0  0  0  0
  8  1  1  0  0  0  0
  8 11  1  1  0  0  0
  9  5  1  0  0  0  0
  9  2  1  0  0  0  0
 10 15  1  0  0  0  0
 10 12  1  0  0  0  0
 11 16  1  0  0  0  0
 13 10  2  0  0  0  0
 14 11  2  0  0  0  0
 14 13  1  0  0  0  0
 16 15  2  0  0  0  0
 17 22  1  6  0  0  0
 17 19  1  0  0  0  0
 17 20  1  0  0  0  0
 18 21  1  0  0  0  0
 19 18  2  0  0  0  0
 20  3  1  0  0  0  0
 20 21  2  0  0  0  0
 23 19  1  0  0  0  0
 24 25  2  0  0  0  0
 24 23  1  0  0  0  0
 26 24  1  0  0  0  0
 27 26  1  0  0  0  0
 28 27  1  0  0  0  0
 30 31  1  0  0  0  0
 30 29  1  0  0  0  0
 32 31  1  0  0  0  0
 33 32  1  0  0  0  0
 34 36  1  0  0  0  0
 34 33  1  0  0  0  0
 35 36  1  0  0  0  0
M  END
>  <MODEL>
8

>  <REMARK>
 VINA RESULT:      -6.6      4.797      8.743
  Name = 
  12 active torsions:
  status: ('A' for Active; 'I' for Inactive)
    1  A    between atoms: O_3  and  C_7
    2  A    between atoms: O_3  and  C_30
    3  A    between atoms: C_4  and  C_33
    4  A    between atoms: C_6  and  C_11
    5  A    between atoms: C_6  and  C_26
    6  A    between atoms: C_9  and  C_23
    7  A    between atoms: C_10  and  C_15
    8  A    between atoms: C_10  and  C_20
    9  A    between atoms: C_11  and  C_17
   10  A    between atoms: C_15  and  C_25
   11  A    between atoms: N_19  and  C_21
   12  A    between atoms: C_20  and  C_26
                            x       y       z     vdW  Elec       q    Type
                         _______ _______ _______ _____ _____    ______ ____

>  <TORSDO>
F 12

$$$$
=
 OpenBabel10232407433D

 36 38  0  0  1  0  0  0  0  0999 V2000
  187.0650  178.2580  141.0780 C   0  0  2  0  0  3  0  0  0  0  0  0
  188.7930  177.4990  139.3760 C   0  0  0  0  0  0  0  0  0  0  0  0
  190.2990  175.6790  138.2640 C   0  0  0  0  0  3  0  0  0  0  0  0
  186.1280  178.3900  139.8630 C   0  0  2  0  0  3  0  0  0  0  0  0
  186.8140  178.7930  138.5390 C   0  0  0  0  0  2  0  0  0  0  0  0
  187.6250  179.6120  141.5090 C   0  0  0  0  0  1  0  0  0  0  0  0
  189.5460  176.5900  138.8170 C   0  0  0  0  0  0  0  0  0  0  0  0
  188.1750  177.2470  140.7300 C   0  0  1  0  0  3  0  0  0  0  0  0
  188.3450  178.6800  138.5690 C   0  0  0  0  0  2  0  0  0  0  0  0
  191.0000  176.6050  143.9160 C   0  0  0  0  0  0  0  0  0  0  0  0
  189.1770  177.0300  141.8310 C   0  0  0  0  0  0  0  0  0  0  0  0
  191.9670  176.3770  145.0200 C   0  0  0  0  0  1  0  0  0  0  0  0
  191.4150  177.2470  142.7450 C   0  0  0  0  0  3  0  0  0  0  0  0
  190.5060  177.4610  141.7060 C   0  0  0  0  0  3  0  0  0  0  0  0
  189.6770  176.1740  144.0460 C   0  0  0  0  0  3  0  0  0  0  0  0
  188.7670  176.3870  143.0050 C   0  0  0  0  0  3  0  0  0  0  0  0
  192.6760  174.8670  137.7280 C   0  0  1  0  0  3  0  0  0  0  0  0
  193.7200  176.7390  138.3080 N   0  0  0  0  0  0  0  0  0  0  0  0
  193.8980  175.4960  137.8240 C   0  0  0  0  0  0  0  0  0  0  0  0
  191.7630  175.7980  138.1850 C   0  0  0  0  0  0  0  0  0  0  0  0
  192.4250  176.9180  138.5360 N   0  0  0  0  0  0  0  0  0  0  0  0
  192.3910  173.6210  137.0990 N   0  0  0  0  0  1  0  0  0  0  0  0
  195.1700  175.0060  137.3820 N   0  0  0  0  0  2  0  0  0  0  0  0
  195.9270  173.9680  138.0100 C   0  0  0  0  0  0  0  0  0  0  0  0
  195.6700  173.6130  139.1930 O   0  0  0  0  0  0  0  0  0  0  0  0
  196.9860  173.3860  137.3140 O   0  0  0  0  0  0  0  0  0  0  0  0
  198.2300  174.0500  137.1500 C   0  0  0  0  0  2  0  0  0  0  0  0
  198.5900  174.0940  135.6810 C   0  0  0  0  0  1  0  0  0  0  0  0
  184.8290  179.1440  140.1390 C   0  0  0  0  0  2  0  0  0  0  0  0
  183.7590  178.2530  140.7560 C   0  0  0  0  0  2  0  0  0  0  0  0
  183.3390  178.7900  142.1150 C   0  0  0  0  0  2  0  0  0  0  0  0
  184.3290  178.3830  143.1970 C   0  0  0  0  0  2  0  0  0  0  0  0
  183.8870  178.9170  144.5490 C   0  0  0  0  0  2  0  0  0  0  0  0
  185.0630  178.9390  145.5150 C   0  0  0  0  0  2  0  0  0  0  0  0
  187.1000  177.6570  146.1720 C   0  0  0  0  0  1  0  0  0  0  0  0
  186.1970  178.0560  145.0200 C   0  0  0  0  0  2  0  0  0  0  0  0
  1  6  1  6  0  0  0
  2  8  1  0  0  0  0
  3  7  2  0  0  0  0
  4 29  1  1  0  0  0
  4  1  1  0  0  0  0
  5  9  1  0  0  0  0
  5  4  1  0  0  0  0
  7  2  2  0  0  0  0
  8  1  1  0  0  0  0
  8 11  1  1  0  0  0
  9  2  1  0  0  0  0
 10 15  1  0  0  0  0
 10 12  1  0  0  0  0
 11 16  1  0  0  0  0
 13 10  2  0  0  0  0
 14 11  2  0  0  0  0
 14 13  1  0  0  0  0
 16 15  2  0  0  0  0
 17 22  1  6  0  0  0
 17 19  1  0  0  0  0
 17 20  1  0  0  0  0
 18 21  1  0  0  0  0
 19 18  2  0  0  0  0
 20  3  1  0  0  0  0
 20 21  2  0  0  0  0
 23 19  1  0  0  0  0
 23 24  1  0  0  0  0
 24 25  2  0  0  0  0
 26 24  1  0  0  0  0
 27 26  1  0  0  0  0
 28 27  1  0  0  0  0
 29 30  1  0  0  0  0
 30 31  1  0  0  0  0
 31 32  1  0  0  0  0
 32 33  1  0  0  0  0
 33 34  1  0  0  0  0
 36 34  1  0  0  0  0
 36 35  1  0  0  0  0
M  END
>  <MODEL>
9

>  <REMARK>
 VINA RESULT:      -6.1      6.103      9.841
  Name = 
  12 active torsions:
  status: ('A' for Active; 'I' for Inactive)
    1  A    between atoms: O_3  and  C_7
    2  A    between atoms: O_3  and  C_30
    3  A    between atoms: C_4  and  C_33
    4  A    between atoms: C_6  and  C_11
    5  A    between atoms: C_6  and  C_26
    6  A    between atoms: C_9  and  C_23
    7  A    between atoms: C_10  and  C_15
    8  A    between atoms: C_10  and  C_20
    9  A    between atoms: C_11  and  C_17
   10  A    between atoms: C_15  and  C_25
   11  A    between atoms: N_19  and  C_21
   12  A    between atoms: C_20  and  C_26
                            x       y       z     vdW  Elec       q    Type
                         _______ _______ _______ _____ _____    ______ ____

>  <TORSDO>
F 12

$$$$
