=
 OpenBabel10232408243D

 30 32  0  0  1  0  0  0  0  0999 V2000
  191.2300  177.3150  139.9420 C   0  0  0  0  0  0  0  0  0  0  0  0
  190.1720  177.0840  140.8860 N   0  0  0  0  0  0  0  0  0  0  0  0
  188.4640  177.7580  139.2960 C   0  0  0  0  0  0  0  0  0  0  0  0
  189.5210  178.0220  138.2820 C   0  0  0  0  0  0  0  0  0  0  0  0
  188.8030  177.3000  140.5040 C   0  0  0  0  0  3  0  0  0  0  0  0
  189.2230  178.5800  137.1120 C   0  0  0  0  0  2  0  0  0  0  0  0
  192.4330  177.3220  140.3210 O   0  0  0  0  0  0  0  0  0  0  0  0
  190.9160  177.4960  138.4870 C   0  0  2  0  0  3  0  0  0  0  0  0
  186.4780  177.4410  137.8430 C   0  0  0  0  0  3  0  0  0  0  0  0
  186.7000  179.2160  141.1140 N   0  0  0  0  0  1  0  0  0  0  0  0
  185.1260  177.6290  137.5570 C   0  0  0  0  0  0  0  0  0  0  0  0
  187.0330  177.9780  139.0090 C   0  0  0  0  0  0  0  0  0  0  0  0
  184.8820  178.8670  139.5820 N   0  0  0  0  0  0  0  0  0  0  0  0
  184.3360  178.3590  138.4450 C   0  0  0  0  0  3  0  0  0  0  0  0
  186.1970  178.6950  139.8870 C   0  0  0  0  0  0  0  0  0  0  0  0
  184.4180  176.9580  136.0600 S   0  0  0  0  0  0  0  0  0  0  0  0
  185.9220  177.2870  135.0970 C   0  0  0  0  0  1  0  0  0  0  0  0
  191.4260  177.6840  142.9340 C   0  0  0  0  0  2  0  0  0  0  0  0
  189.4830  176.2570  144.4050 O   0  0  0  0  0  0  0  0  0  0  0  0
  190.4930  176.6700  142.2500 C   0  0  1  0  0  3  0  0  0  0  0  0
  189.0420  177.4820  144.9210 C   0  0  2  0  0  3  0  0  0  0  0  0
  190.2040  178.4760  144.9800 C   0  0  0  0  0  2  0  0  0  0  0  0
  190.6880  178.8510  143.5840 C   0  0  0  0  0  2  0  0  0  0  0  0
  189.2190  176.3330  143.0330 C   0  0  0  0  0  2  0  0  0  0  0  0
  189.2660  176.9590  147.2190 C   0  0  0  0  0  2  0  0  0  0  0  0
  188.5000  177.2750  146.2390 N   0  0  0  0  0  0  0  0  0  0  0  0
  191.8560  176.1750  136.5320 N   0  0  0  0  0  2  0  0  0  0  0  0
  191.1150  176.2050  137.7540 C   0  0  0  0  0  0  0  0  0  0  0  0
  190.6190  175.1470  138.2250 O   0  0  0  0  0  0  0  0  0  0  0  0
  192.0720  174.9440  135.7920 C   0  0  0  0  0  1  0  0  0  0  0  0
  1  7  2  0  0  0  0
  1  2  1  0  0  0  0
  3  5  2  0  0  0  0
  4  8  1  0  0  0  0
  4  3  1  0  0  0  0
  5  2  1  0  0  0  0
  6  4  2  0  0  0  0
  8 28  1  6  0  0  0
  8  1  1  0  0  0  0
  9 12  1  0  0  0  0
 11  9  2  0  0  0  0
 11 14  1  0  0  0  0
 12  3  1  0  0  0  0
 12 15  2  0  0  0  0
 13 15  1  0  0  0  0
 14 13  2  0  0  0  0
 15 10  1  0  0  0  0
 16 11  1  0  0  0  0
 17 16  1  0  0  0  0
 18 23  1  0  0  0  0
 19 21  1  0  0  0  0
 20  2  1  6  0  0  0
 20 18  1  0  0  0  0
 20 24  1  0  0  0  0
 21 22  1  0  0  0  0
 21 26  1  1  0  0  0
 23 22  1  0  0  0  0
 24 19  1  0  0  0  0
 26 25  2  0  0  0  0
 27 28  1  0  0  0  0
 28 29  2  0  0  0  0
 30 27  1  0  0  0  0
M  END
>  <MODEL>
1

>  <REMARK>
 VINA RESULT:      -7.4      0.000      0.000
  Name = 
  5 active torsions:
  status: ('A' for Active; 'I' for Inactive)
    1  A    between atoms: C_2  and  C_27
    2  A    between atoms: N_4  and  C_10
    3  A    between atoms: C_9  and  C_21
    4  A    between atoms: C_14  and  S_17
    5  A    between atoms: C_18  and  N_25
                            x       y       z     vdW  Elec       q    Type
                         _______ _______ _______ _____ _____    ______ ____

>  <TORSDO>
F 5

$$$$
=
 OpenBabel10232408243D

 30 32  0  0  1  0  0  0  0  0999 V2000
  191.3940  177.1850  140.0190 C   0  0  0  0  0  0  0  0  0  0  0  0
  190.2400  176.8300  140.7970 N   0  0  0  0  0  0  0  0  0  0  0  0
  188.7340  177.2040  138.9290 C   0  0  0  0  0  0  0  0  0  0  0  0
  189.8930  177.5890  138.0800 C   0  0  0  0  0  0  0  0  0  0  0  0
  188.9340  176.8350  140.1980 C   0  0  0  0  0  3  0  0  0  0  0  0
  189.7130  178.0630  136.8500 C   0  0  0  0  0  2  0  0  0  0  0  0
  192.5070  177.3760  140.5790 O   0  0  0  0  0  0  0  0  0  0  0  0
  191.2960  177.2760  138.5250 C   0  0  2  0  0  3  0  0  0  0  0  0
  186.4600  178.1940  138.8480 C   0  0  0  0  0  3  0  0  0  0  0  0
  187.7840  175.2640  136.9600 N   0  0  0  0  0  1  0  0  0  0  0  0
  185.1520  178.2200  138.3680 C   0  0  0  0  0  0  0  0  0  0  0  0
  187.3500  177.2070  138.4130 C   0  0  0  0  0  0  0  0  0  0  0  0
  185.6180  176.3040  137.0250 N   0  0  0  0  0  0  0  0  0  0  0  0
  184.7420  177.2520  137.4510 C   0  0  0  0  0  3  0  0  0  0  0  0
  186.9010  176.2570  137.4750 C   0  0  0  0  0  0  0  0  0  0  0  0
  184.0070  179.4710  138.9340 S   0  0  0  0  0  0  0  0  0  0  0  0
  184.3400  179.1080  140.6820 C   0  0  0  0  0  1  0  0  0  0  0  0
  191.3470  177.4910  142.9110 C   0  0  0  0  0  2  0  0  0  0  0  0
  189.1490  176.3640  144.2810 O   0  0  0  0  0  0  0  0  0  0  0  0
  190.3910  176.5070  142.2140 C   0  0  1  0  0  3  0  0  0  0  0  0
  188.7780  177.6610  144.6560 C   0  0  2  0  0  3  0  0  0  0  0  0
  190.0160  178.5540  144.7570 C   0  0  0  0  0  2  0  0  0  0  0  0
  190.6620  178.7680  143.3930 C   0  0  0  0  0  2  0  0  0  0  0  0
  189.0240  176.3460  142.8880 C   0  0  0  0  0  2  0  0  0  0  0  0
  186.8160  177.6330  145.9800 C   0  0  0  0  0  2  0  0  0  0  0  0
  188.0970  177.6120  145.9250 N   0  0  0  0  0  0  0  0  0  0  0  0
  192.9510  176.0130  137.0700 N   0  0  0  0  0  2  0  0  0  0  0  0
  191.7860  176.0060  137.9000 C   0  0  0  0  0  0  0  0  0  0  0  0
  191.1600  174.9330  138.1110 O   0  0  0  0  0  0  0  0  0  0  0  0
  193.4590  174.8040  136.4460 C   0  0  0  0  0  1  0  0  0  0  0  0
  1  7  2  0  0  0  0
  1  2  1  0  0  0  0
  3  5  2  0  0  0  0
  4  8  1  0  0  0  0
  4  3  1  0  0  0  0
  5  2  1  0  0  0  0
  6  4  2  0  0  0  0
  8 28  1  6  0  0  0
  8  1  1  0  0  0  0
 10 15  1  0  0  0  0
 11  9  2  0  0  0  0
 11 16  1  0  0  0  0
 12  9  1  0  0  0  0
 12  3  1  0  0  0  0
 13 14  2  0  0  0  0
 13 15  1  0  0  0  0
 14 11  1  0  0  0  0
 15 12  2  0  0  0  0
 16 17  1  0  0  0  0
 18 23  1  0  0  0  0
 19 21  1  0  0  0  0
 20  2  1  6  0  0  0
 20 24  1  0  0  0  0
 20 18  1  0  0  0  0
 21 22  1  0  0  0  0
 21 26  1  1  0  0  0
 23 22  1  0  0  0  0
 24 19  1  0  0  0  0
 26 25  2  0  0  0  0
 27 28  1  0  0  0  0
 28 29  2  0  0  0  0
 30 27  1  0  0  0  0
M  END
>  <MODEL>
2

>  <REMARK>
 VINA RESULT:      -7.2      1.557      2.110
  Name = 
  5 active torsions:
  status: ('A' for Active; 'I' for Inactive)
    1  A    between atoms: C_2  and  C_27
    2  A    between atoms: N_4  and  C_10
    3  A    between atoms: C_9  and  C_21
    4  A    between atoms: C_14  and  S_17
    5  A    between atoms: C_18  and  N_25
                            x       y       z     vdW  Elec       q    Type
                         _______ _______ _______ _____ _____    ______ ____

>  <TORSDO>
F 5

$$$$
=
 OpenBabel10232408243D

 30 32  0  0  1  0  0  0  0  0999 V2000
  190.1460  176.7440  135.9580 C   0  0  0  0  0  0  0  0  0  0  0  0
  190.9990  175.8770  136.7220 N   0  0  0  0  0  0  0  0  0  0  0  0
  190.3930  176.9510  138.8140 C   0  0  0  0  0  0  0  0  0  0  0  0
  189.5000  177.8810  138.0710 C   0  0  0  0  0  0  0  0  0  0  0  0
  191.0700  176.0090  138.1520 C   0  0  0  0  0  3  0  0  0  0  0  0
  188.9000  178.8950  138.6890 C   0  0  0  0  0  2  0  0  0  0  0  0
  190.2250  176.7710  134.7000 O   0  0  0  0  0  0  0  0  0  0  0  0
  189.1130  177.5840  136.6470 C   0  0  2  0  0  3  0  0  0  0  0  0
  189.4630  176.7410  141.1050 C   0  0  0  0  0  3  0  0  0  0  0  0
  192.9440  177.6030  140.0850 N   0  0  0  0  0  1  0  0  0  0  0  0
  189.5960  176.7970  142.4910 C   0  0  0  0  0  0  0  0  0  0  0  0
  190.5550  177.0270  140.2800 C   0  0  0  0  0  0  0  0  0  0  0  0
  191.8880  177.4080  142.2350 N   0  0  0  0  0  0  0  0  0  0  0  0
  190.8290  177.1430  143.0450 C   0  0  0  0  0  3  0  0  0  0  0  0
  191.7860  177.3560  140.8790 C   0  0  0  0  0  0  0  0  0  0  0  0
  188.1970  176.4480  143.5480 S   0  0  0  0  0  0  0  0  0  0  0  0
  189.0090  177.1660  145.0050 C   0  0  0  0  0  1  0  0  0  0  0  0
  193.1200  175.5280  135.4940 C   0  0  0  0  0  2  0  0  0  0  0  0
  193.0840  172.8600  136.4200 O   0  0  0  0  0  0  0  0  0  0  0  0
  191.8310  174.8890  136.0380 C   0  0  1  0  0  3  0  0  0  0  0  0
  194.1860  173.1740  137.2250 C   0  0  2  0  0  3  0  0  0  0  0  0
  195.0160  174.2820  136.5720 C   0  0  0  0  0  2  0  0  0  0  0  0
  194.2470  175.5970  136.5220 C   0  0  0  0  0  2  0  0  0  0  0  0
  192.0430  173.6520  136.9170 C   0  0  0  0  0  2  0  0  0  0  0  0
  196.2420  172.0920  137.6800 C   0  0  0  0  0  2  0  0  0  0  0  0
  194.9920  171.9940  137.4090 N   0  0  0  0  0  0  0  0  0  0  0  0
  187.6370  175.5470  136.9950 N   0  0  0  0  0  2  0  0  0  0  0  0
  187.7770  176.9090  136.5860 C   0  0  0  0  0  0  0  0  0  0  0  0
  186.7790  177.5550  136.1670 O   0  0  0  0  0  0  0  0  0  0  0  0
  186.3600  174.8560  136.9520 C   0  0  0  0  0  1  0  0  0  0  0  0
  1  8  1  0  0  0  0
  1  2  1  0  0  0  0
  2  5  1  0  0  0  0
  3 12  1  0  0  0  0
  4  6  2  0  0  0  0
  4  3  1  0  0  0  0
  5  3  2  0  0  0  0
  7  1  2  0  0  0  0
  8 28  1  1  0  0  0
  8  4  1  0  0  0  0
  9 11  1  0  0  0  0
 10 15  1  0  0  0  0
 11 14  2  0  0  0  0
 11 16  1  0  0  0  0
 12 15  1  0  0  0  0
 12  9  2  0  0  0  0
 13 14  1  0  0  0  0
 15 13  2  0  0  0  0
 16 17  1  0  0  0  0
 18 23  1  0  0  0  0
 19 24  1  0  0  0  0
 19 21  1  0  0  0  0
 20 18  1  1  0  0  0
 20  2  1  0  0  0  0
 20 24  1  0  0  0  0
 21 26  1  6  0  0  0
 22 21  1  0  0  0  0
 23 22  1  0  0  0  0
 26 25  2  0  0  0  0
 28 27  1  0  0  0  0
 29 28  2  0  0  0  0
 30 27  1  0  0  0  0
M  END
>  <MODEL>
3

>  <REMARK>
 VINA RESULT:      -6.8      3.442      7.061
  Name = 
  5 active torsions:
  status: ('A' for Active; 'I' for Inactive)
    1  A    between atoms: C_2  and  C_27
    2  A    between atoms: N_4  and  C_10
    3  A    between atoms: C_9  and  C_21
    4  A    between atoms: C_14  and  S_17
    5  A    between atoms: C_18  and  N_25
                            x       y       z     vdW  Elec       q    Type
                         _______ _______ _______ _____ _____    ______ ____

>  <TORSDO>
F 5

$$$$
=
 OpenBabel10232408243D

 30 32  0  0  1  0  0  0  0  0999 V2000
  192.0120  177.2500  138.9290 C   0  0  0  0  0  0  0  0  0  0  0  0
  190.8320  177.4370  139.7270 N   0  0  0  0  0  0  0  0  0  0  0  0
  189.3620  176.9060  137.8690 C   0  0  0  0  0  0  0  0  0  0  0  0
  190.5490  176.7070  136.9940 C   0  0  0  0  0  0  0  0  0  0  0  0
  189.5310  177.2310  139.1540 C   0  0  0  0  0  3  0  0  0  0  0  0
  190.4100  176.4900  135.6890 C   0  0  0  0  0  2  0  0  0  0  0  0
  193.1390  177.6170  139.3590 O   0  0  0  0  0  0  0  0  0  0  0  0
  191.9200  176.5640  137.5990 C   0  0  2  0  0  3  0  0  0  0  0  0
  187.4020  175.4750  137.3520 C   0  0  0  0  0  3  0  0  0  0  0  0
  187.7480  179.1660  136.9570 N   0  0  0  0  0  1  0  0  0  0  0  0
  186.0990  175.3030  136.8880 C   0  0  0  0  0  0  0  0  0  0  0  0
  187.9840  176.7470  137.3650 C   0  0  0  0  0  0  0  0  0  0  0  0
  185.9530  177.6460  136.4630 N   0  0  0  0  0  0  0  0  0  0  0  0
  185.3840  176.4120  136.4370 C   0  0  0  0  0  3  0  0  0  0  0  0
  187.2220  177.8420  136.9140 C   0  0  0  0  0  0  0  0  0  0  0  0
  185.3590  173.6760  136.8560 S   0  0  0  0  0  0  0  0  0  0  0  0
  186.9360  172.8560  137.2270 C   0  0  0  0  0  1  0  0  0  0  0  0
  189.5790  177.9880  141.7900 C   0  0  0  0  0  2  0  0  0  0  0  0
  191.8730  177.2280  143.2510 O   0  0  0  0  0  0  0  0  0  0  0  0
  190.9570  177.8820  141.1140 C   0  0  1  0  0  3  0  0  0  0  0  0
  191.1540  176.1170  143.7110 C   0  0  2  0  0  3  0  0  0  0  0  0
  189.6610  176.4460  143.7700 C   0  0  0  0  0  2  0  0  0  0  0  0
  189.0840  176.6690  142.3770 C   0  0  0  0  0  2  0  0  0  0  0  0
  191.9840  177.0320  141.8700 C   0  0  0  0  0  2  0  0  0  0  0  0
  191.5860  176.5860  145.9910 C   0  0  0  0  0  2  0  0  0  0  0  0
  191.6330  175.7500  145.0190 N   0  0  0  0  0  0  0  0  0  0  0  0
  193.6430  174.7000  137.5100 N   0  0  0  0  0  2  0  0  0  0  0  0
  192.2960  175.1200  137.7380 C   0  0  0  0  0  0  0  0  0  0  0  0
  191.4120  174.2820  138.0570 O   0  0  0  0  0  0  0  0  0  0  0  0
  194.0490  173.3100  137.6350 C   0  0  0  0  0  1  0  0  0  0  0  0
  1  7  2  0  0  0  0
  1  2  1  0  0  0  0
  3  5  2  0  0  0  0
  4  8  1  0  0  0  0
  4  3  1  0  0  0  0
  5  2  1  0  0  0  0
  6  4  2  0  0  0  0
  8 28  1  1  0  0  0
  8  1  1  0  0  0  0
  9 12  1  0  0  0  0
 11  9  2  0  0  0  0
 12  3  1  0  0  0  0
 13 15  1  0  0  0  0
 14 13  2  0  0  0  0
 14 11  1  0  0  0  0
 15 10  1  0  0  0  0
 15 12  2  0  0  0  0
 16 11  1  0  0  0  0
 16 17  1  0  0  0  0
 18 23  1  0  0  0  0
 19 21  1  0  0  0  0
 20  2  1  6  0  0  0
 20 18  1  0  0  0  0
 20 24  1  0  0  0  0
 21 22  1  0  0  0  0
 21 26  1  1  0  0  0
 23 22  1  0  0  0  0
 24 19  1  0  0  0  0
 26 25  2  0  0  0  0
 27 30  1  0  0  0  0
 27 28  1  0  0  0  0
 28 29  2  0  0  0  0
M  END
>  <MODEL>
4

>  <REMARK>
 VINA RESULT:      -6.6      2.257      2.703
  Name = 
  5 active torsions:
  status: ('A' for Active; 'I' for Inactive)
    1  A    between atoms: C_2  and  C_27
    2  A    between atoms: N_4  and  C_10
    3  A    between atoms: C_9  and  C_21
    4  A    between atoms: C_14  and  S_17
    5  A    between atoms: C_18  and  N_25
                            x       y       z     vdW  Elec       q    Type
                         _______ _______ _______ _____ _____    ______ ____

>  <TORSDO>
F 5

$$$$
=
 OpenBabel10232408243D

 30 32  0  0  1  0  0  0  0  0999 V2000
  182.6430  178.7870  142.3900 C   0  0  0  0  0  0  0  0  0  0  0  0
  183.8170  178.6550  141.5720 N   0  0  0  0  0  0  0  0  0  0  0  0
  182.6130  177.4310  139.8550 C   0  0  0  0  0  0  0  0  0  0  0  0
  181.3690  177.5300  140.6650 C   0  0  0  0  0  0  0  0  0  0  0  0
  183.7430  177.9870  140.3030 C   0  0  0  0  0  3  0  0  0  0  0  0
  180.2600  176.8950  140.2970 C   0  0  0  0  0  2  0  0  0  0  0  0
  182.7360  179.1900  143.5810 O   0  0  0  0  0  0  0  0  0  0  0  0
  181.2880  178.4980  141.8150 C   0  0  2  0  0  3  0  0  0  0  0  0
  182.9770  175.3800  138.5070 C   0  0  0  0  0  3  0  0  0  0  0  0
  181.9330  178.7650  137.3440 N   0  0  0  0  0  1  0  0  0  0  0  0
  183.0050  174.7030  137.2880 C   0  0  0  0  0  0  0  0  0  0  0  0
  182.6460  176.7380  138.5520 C   0  0  0  0  0  0  0  0  0  0  0  0
  182.3680  176.7130  136.1710 N   0  0  0  0  0  0  0  0  0  0  0  0
  182.7010  175.3960  136.1170 C   0  0  0  0  0  3  0  0  0  0  0  0
  182.3300  177.3960  137.3480 C   0  0  0  0  0  0  0  0  0  0  0  0
  183.4440  172.9720  137.2260 S   0  0  0  0  0  0  0  0  0  0  0  0
  185.1600  173.3000  137.7210 C   0  0  0  0  0  1  0  0  0  0  0  0
  185.3350  178.7740  143.5250 C   0  0  0  0  0  2  0  0  0  0  0  0
  187.4810  178.9800  141.7000 O   0  0  0  0  0  0  0  0  0  0  0  0
  185.0980  179.1650  142.0560 C   0  0  1  0  0  3  0  0  0  0  0  0
  187.8820  177.6990  142.1010 C   0  0  2  0  0  3  0  0  0  0  0  0
  187.4670  177.4480  143.5520 C   0  0  0  0  0  2  0  0  0  0  0  0
  185.9510  177.3880  143.6960 C   0  0  0  0  0  2  0  0  0  0  0  0
  186.2330  178.7880  141.0960 C   0  0  0  0  0  2  0  0  0  0  0  0
  189.9140  176.4980  142.2840 C   0  0  0  0  0  2  0  0  0  0  0  0
  189.3120  177.5850  141.9670 N   0  0  0  0  0  0  0  0  0  0  0  0
  180.6530  180.1850  140.0250 N   0  0  0  0  0  2  0  0  0  0  0  0
  180.6260  179.7750  141.3940 C   0  0  0  0  0  0  0  0  0  0  0  0
  180.0460  180.4820  142.2610 O   0  0  0  0  0  0  0  0  0  0  0  0
  180.0230  181.4150  139.5770 C   0  0  0  0  0  1  0  0  0  0  0  0
  1  7  2  0  0  0  0
  2 20  1  0  0  0  0
  2  1  1  0  0  0  0
  3  5  2  0  0  0  0
  3  4  1  0  0  0  0
  4  8  1  0  0  0  0
  5  2  1  0  0  0  0
  6  4  2  0  0  0  0
  8 28  1  6  0  0  0
  8  1  1  0  0  0  0
  9 12  1  0  0  0  0
 10 15  1  0  0  0  0
 11  9  2  0  0  0  0
 12  3  1  0  0  0  0
 13 15  1  0  0  0  0
 14 13  2  0  0  0  0
 14 11  1  0  0  0  0
 15 12  2  0  0  0  0
 16 11  1  0  0  0  0
 16 17  1  0  0  0  0
 18 23  1  0  0  0  0
 19 21  1  0  0  0  0
 20 24  1  6  0  0  0
 20 18  1  0  0  0  0
 21 26  1  1  0  0  0
 21 22  1  0  0  0  0
 22 23  1  0  0  0  0
 24 19  1  0  0  0  0
 26 25  2  0  0  0  0
 27 28  1  0  0  0  0
 28 29  2  0  0  0  0
 30 27  1  0  0  0  0
M  END
>  <MODEL>
5

>  <REMARK>
 VINA RESULT:      -6.6      4.139      7.313
  Name = 
  5 active torsions:
  status: ('A' for Active; 'I' for Inactive)
    1  A    between atoms: C_2  and  C_27
    2  A    between atoms: N_4  and  C_10
    3  A    between atoms: C_9  and  C_21
    4  A    between atoms: C_14  and  S_17
    5  A    between atoms: C_18  and  N_25
                            x       y       z     vdW  Elec       q    Type
                         _______ _______ _______ _____ _____    ______ ____

>  <TORSDO>
F 5

$$$$
=
 OpenBabel10232408243D

 30 32  0  0  1  0  0  0  0  0999 V2000
  188.5130  177.8290  137.5960 C   0  0  0  0  0  0  0  0  0  0  0  0
  187.9770  178.0390  138.9120 N   0  0  0  0  0  0  0  0  0  0  0  0
  185.6870  177.8600  138.1230 C   0  0  0  0  0  0  0  0  0  0  0  0
  186.1880  177.6480  136.7380 C   0  0  0  0  0  0  0  0  0  0  0  0
  186.5560  178.0230  139.1250 C   0  0  0  0  0  3  0  0  0  0  0  0
  185.3490  177.5920  135.7070 C   0  0  0  0  0  2  0  0  0  0  0  0
  189.7350  178.0370  137.3640 O   0  0  0  0  0  0  0  0  0  0  0  0
  187.6350  177.3080  136.4990 C   0  0  2  0  0  3  0  0  0  0  0  0
  183.5010  176.7100  138.3500 C   0  0  0  0  0  3  0  0  0  0  0  0
  184.3190  180.2880  139.0040 N   0  0  0  0  0  1  0  0  0  0  0  0
  182.1400  176.7140  138.6510 C   0  0  0  0  0  0  0  0  0  0  0  0
  184.2450  177.8910  138.4370 C   0  0  0  0  0  0  0  0  0  0  0  0
  182.2640  179.0480  139.1310 N   0  0  0  0  0  0  0  0  0  0  0  0
  181.5300  177.9080  139.0380 C   0  0  0  0  0  3  0  0  0  0  0  0
  183.5950  179.0710  138.8470 C   0  0  0  0  0  0  0  0  0  0  0  0
  181.1820  175.2100  138.5240 S   0  0  0  0  0  0  0  0  0  0  0  0
  182.3420  174.4680  137.3410 C   0  0  0  0  0  1  0  0  0  0  0  0
  188.1040  178.7990  141.2650 C   0  0  0  0  0  2  0  0  0  0  0  0
  190.4420  177.2370  141.5240 O   0  0  0  0  0  0  0  0  0  0  0  0
  188.8790  178.3120  140.0290 C   0  0  1  0  0  3  0  0  0  0  0  0
  189.7210  176.3810  142.3670 C   0  0  2  0  0  3  0  0  0  0  0  0
  188.6270  177.1630  143.0970 C   0  0  0  0  0  2  0  0  0  0  0  0
  187.5600  177.6650  142.1300 C   0  0  0  0  0  2  0  0  0  0  0  0
  189.8150  177.1230  140.2790 C   0  0  0  0  0  2  0  0  0  0  0  0
  191.6080  176.4470  143.7940 C   0  0  0  0  0  2  0  0  0  0  0  0
  190.6210  175.7810  143.3180 N   0  0  0  0  0  0  0  0  0  0  0  0
  188.3930  175.2880  135.1590 N   0  0  0  0  0  2  0  0  0  0  0  0
  187.8200  175.8290  136.3510 C   0  0  0  0  0  0  0  0  0  0  0  0
  187.4630  175.0670  137.2890 O   0  0  0  0  0  0  0  0  0  0  0  0
  188.5910  173.8600  134.9770 C   0  0  0  0  0  1  0  0  0  0  0  0
  1  2  1  0  0  0  0
  2  5  1  0  0  0  0
  3 12  1  0  0  0  0
  3  5  2  0  0  0  0
  4  3  1  0  0  0  0
  6  4  2  0  0  0  0
  7  1  2  0  0  0  0
  8 28  1  1  0  0  0
  8  4  1  0  0  0  0
  8  1  1  0  0  0  0
  9 12  2  0  0  0  0
  9 11  1  0  0  0  0
 11 14  2  0  0  0  0
 12 15  1  0  0  0  0
 14 13  1  0  0  0  0
 15 10  1  0  0  0  0
 15 13  2  0  0  0  0
 16 11  1  0  0  0  0
 17 16  1  0  0  0  0
 18 23  1  0  0  0  0
 19 21  1  0  0  0  0
 20  2  1  6  0  0  0
 20 24  1  0  0  0  0
 20 18  1  0  0  0  0
 21 22  1  0  0  0  0
 21 26  1  1  0  0  0
 23 22  1  0  0  0  0
 24 19  1  0  0  0  0
 26 25  2  0  0  0  0
 27 28  1  0  0  0  0
 28 29  2  0  0  0  0
 30 27  1  0  0  0  0
M  END
>  <MODEL>
6

>  <REMARK>
 VINA RESULT:      -6.6      2.386      3.510
  Name = 
  5 active torsions:
  status: ('A' for Active; 'I' for Inactive)
    1  A    between atoms: C_2  and  C_27
    2  A    between atoms: N_4  and  C_10
    3  A    between atoms: C_9  and  C_21
    4  A    between atoms: C_14  and  S_17
    5  A    between atoms: C_18  and  N_25
                            x       y       z     vdW  Elec       q    Type
                         _______ _______ _______ _____ _____    ______ ____

>  <TORSDO>
F 5

$$$$
=
 OpenBabel10232408243D

 30 32  0  0  1  0  0  0  0  0999 V2000
  190.1160  176.7160  140.8680 C   0  0  0  0  0  0  0  0  0  0  0  0
  189.2290  177.6260  140.2000 N   0  0  0  0  0  0  0  0  0  0  0  0
  187.6730  177.6440  142.0640 C   0  0  0  0  0  0  0  0  0  0  0  0
  188.5510  176.6940  142.7990 C   0  0  0  0  0  0  0  0  0  0  0  0
  188.0300  178.0770  140.8520 C   0  0  0  0  0  3  0  0  0  0  0  0
  188.1700  176.1640  143.9570 C   0  0  0  0  0  2  0  0  0  0  0  0
  191.0580  176.1640  140.2380 O   0  0  0  0  0  0  0  0  0  0  0  0
  189.9640  176.4570  142.3380 C   0  0  2  0  0  3  0  0  0  0  0  0
  186.2020  178.0600  144.0190 C   0  0  0  0  0  3  0  0  0  0  0  0
  185.5810  178.8730  140.4330 N   0  0  0  0  0  1  0  0  0  0  0  0
  185.0170  178.5310  144.5820 C   0  0  0  0  0  0  0  0  0  0  0  0
  186.4060  178.1410  142.6370 C   0  0  0  0  0  0  0  0  0  0  0  0
  184.2510  179.1660  142.4140 N   0  0  0  0  0  0  0  0  0  0  0  0
  184.0390  179.0810  143.7540 C   0  0  0  0  0  3  0  0  0  0  0  0
  185.4000  178.7180  141.8380 C   0  0  0  0  0  0  0  0  0  0  0  0
  184.7460  178.4140  146.3450 S   0  0  0  0  0  0  0  0  0  0  0  0
  186.5020  178.1000  146.6820 C   0  0  0  0  0  1  0  0  0  0  0  0
  190.1100  176.9080  138.0010 C   0  0  0  0  0  2  0  0  0  0  0  0
  188.4710  178.8850  136.8260 O   0  0  0  0  0  0  0  0  0  0  0  0
  189.5250  178.0600  138.8360 C   0  0  1  0  0  3  0  0  0  0  0  0
  187.6920  177.8520  136.2880 C   0  0  2  0  0  3  0  0  0  0  0  0
  188.5550  176.6120  136.0500 C   0  0  0  0  0  2  0  0  0  0  0  0
  189.0470  176.0150  137.3640 C   0  0  0  0  0  2  0  0  0  0  0  0
  188.3150  178.7630  138.2110 C   0  0  0  0  0  2  0  0  0  0  0  0
  186.1170  177.6660  134.5310 C   0  0  0  0  0  2  0  0  0  0  0  0
  187.1080  178.2940  135.0470 N   0  0  0  0  0  0  0  0  0  0  0  0
  190.6450  178.6840  143.3520 N   0  0  0  0  0  2  0  0  0  0  0  0
  190.9290  177.3040  143.1110 C   0  0  0  0  0  0  0  0  0  0  0  0
  191.9930  176.7860  143.5440 O   0  0  0  0  0  0  0  0  0  0  0  0
  191.5530  179.5390  144.0970 C   0  0  0  0  0  1  0  0  0  0  0  0
  1  8  1  0  0  0  0
  2  5  1  0  0  0  0
  2  1  1  0  0  0  0
  3 12  1  0  0  0  0
  3  4  1  0  0  0  0
  4  6  2  0  0  0  0
  5  3  2  0  0  0  0
  7  1  2  0  0  0  0
  8  4  1  0  0  0  0
  8 28  1  1  0  0  0
  9 11  1  0  0  0  0
 10 15  1  0  0  0  0
 11 16  1  0  0  0  0
 12  9  2  0  0  0  0
 13 14  1  0  0  0  0
 14 11  2  0  0  0  0
 15 13  2  0  0  0  0
 15 12  1  0  0  0  0
 16 17  1  0  0  0  0
 19 24  1  0  0  0  0
 20 18  1  6  0  0  0
 20  2  1  0  0  0  0
 21 26  1  6  0  0  0
 21 19  1  0  0  0  0
 22 21  1  0  0  0  0
 22 23  1  0  0  0  0
 23 18  1  0  0  0  0
 24 20  1  0  0  0  0
 25 26  2  0  0  0  0
 27 30  1  0  0  0  0
 28 27  1  0  0  0  0
 28 29  2  0  0  0  0
M  END
>  <MODEL>
7

>  <REMARK>
 VINA RESULT:      -6.6      3.066      6.721
  Name = 
  5 active torsions:
  status: ('A' for Active; 'I' for Inactive)
    1  A    between atoms: C_2  and  C_27
    2  A    between atoms: N_4  and  C_10
    3  A    between atoms: C_9  and  C_21
    4  A    between atoms: C_14  and  S_17
    5  A    between atoms: C_18  and  N_25
                            x       y       z     vdW  Elec       q    Type
                         _______ _______ _______ _____ _____    ______ ____

>  <TORSDO>
F 5

$$$$
=
 OpenBabel10232408243D

 30 32  0  0  1  0  0  0  0  0999 V2000
  189.3930  176.8020  142.6450 C   0  0  0  0  0  0  0  0  0  0  0  0
  188.7550  177.7370  141.7600 N   0  0  0  0  0  0  0  0  0  0  0  0
  186.7540  177.8320  143.1330 C   0  0  0  0  0  0  0  0  0  0  0  0
  187.3640  176.8580  144.0780 C   0  0  0  0  0  0  0  0  0  0  0  0
  187.4420  178.2380  142.0620 C   0  0  0  0  0  3  0  0  0  0  0  0
  186.6630  176.3550  145.0900 C   0  0  0  0  0  2  0  0  0  0  0  0
  190.4490  176.2090  142.2930 O   0  0  0  0  0  0  0  0  0  0  0  0
  188.8390  176.5650  144.0180 C   0  0  2  0  0  3  0  0  0  0  0  0
  184.4300  178.2040  142.3470 C   0  0  0  0  0  3  0  0  0  0  0  0
  185.9750  179.2170  145.5860 N   0  0  0  0  0  1  0  0  0  0  0  0
  183.1420  178.7060  142.5260 C   0  0  0  0  0  0  0  0  0  0  0  0
  185.3990  178.3800  143.3410 C   0  0  0  0  0  0  0  0  0  0  0  0
  183.7770  179.5410  144.6690 N   0  0  0  0  0  0  0  0  0  0  0  0
  182.8320  179.3860  143.7050 C   0  0  0  0  0  3  0  0  0  0  0  0
  185.0410  179.0580  144.5220 C   0  0  0  0  0  0  0  0  0  0  0  0
  181.9060  178.4980  141.2520 S   0  0  0  0  0  0  0  0  0  0  0  0
  182.9960  177.4500  140.2460 C   0  0  0  0  0  1  0  0  0  0  0  0
  190.1190  176.9500  139.8500 C   0  0  0  0  0  2  0  0  0  0  0  0
  188.9930  179.0470  138.3290 O   0  0  0  0  0  0  0  0  0  0  0  0
  189.4260  178.1450  140.5280 C   0  0  1  0  0  3  0  0  0  0  0  0
  188.3050  178.0770  137.5890 C   0  0  2  0  0  3  0  0  0  0  0  0
  189.1050  176.7730  137.5590 C   0  0  0  0  0  2  0  0  0  0  0  0
  189.1940  176.1410  138.9440 C   0  0  0  0  0  2  0  0  0  0  0  0
  188.4750  178.9380  139.6250 C   0  0  0  0  0  2  0  0  0  0  0  0
  187.1920  178.0460  135.5000 C   0  0  0  0  0  2  0  0  0  0  0  0
  188.0970  178.5610  136.2480 N   0  0  0  0  0  0  0  0  0  0  0  0
  189.7560  176.9100  146.3610 N   0  0  0  0  0  2  0  0  0  0  0  0
  189.5900  177.3840  145.0230 C   0  0  0  0  0  0  0  0  0  0  0  0
  190.0710  178.4960  144.6760 O   0  0  0  0  0  0  0  0  0  0  0  0
  190.4770  177.6730  147.3660 C   0  0  0  0  0  1  0  0  0  0  0  0
  1  8  1  0  0  0  0
  2  5  1  0  0  0  0
  2  1  1  0  0  0  0
  3 12  1  0  0  0  0
  3  4  1  0  0  0  0
  4  6  2  0  0  0  0
  5  3  2  0  0  0  0
  7  1  2  0  0  0  0
  8  4  1  0  0  0  0
  8 28  1  1  0  0  0
  9 11  2  0  0  0  0
  9 12  1  0  0  0  0
 11 14  1  0  0  0  0
 12 15  2  0  0  0  0
 14 13  2  0  0  0  0
 15 13  1  0  0  0  0
 15 10  1  0  0  0  0
 16 11  1  0  0  0  0
 17 16  1  0  0  0  0
 18 20  1  0  0  0  0
 19 24  1  0  0  0  0
 20 24  1  6  0  0  0
 20  2  1  0  0  0  0
 21 26  1  6  0  0  0
 21 19  1  0  0  0  0
 22 21  1  0  0  0  0
 22 23  1  0  0  0  0
 23 18  1  0  0  0  0
 25 26  2  0  0  0  0
 27 30  1  0  0  0  0
 28 27  1  0  0  0  0
 29 28  2  0  0  0  0
M  END
>  <MODEL>
8

>  <REMARK>
 VINA RESULT:      -6.3      2.897      6.512
  Name = 
  5 active torsions:
  status: ('A' for Active; 'I' for Inactive)
    1  A    between atoms: C_2  and  C_27
    2  A    between atoms: N_4  and  C_10
    3  A    between atoms: C_9  and  C_21
    4  A    between atoms: C_14  and  S_17
    5  A    between atoms: C_18  and  N_25
                            x       y       z     vdW  Elec       q    Type
                         _______ _______ _______ _____ _____    ______ ____

>  <TORSDO>
F 5

$$$$
=
 OpenBabel10232408243D

 30 32  0  0  1  0  0  0  0  0999 V2000
  190.3960  176.3910  136.9460 C   0  0  0  0  0  0  0  0  0  0  0  0
  189.5150  176.7030  138.0370 N   0  0  0  0  0  0  0  0  0  0  0  0
  187.6150  175.6640  136.9380 C   0  0  0  0  0  0  0  0  0  0  0  0
  188.4800  175.3240  135.7760 C   0  0  0  0  0  0  0  0  0  0  0  0
  188.1370  176.2970  137.9930 C   0  0  0  0  0  3  0  0  0  0  0  0
  187.9660  174.7940  134.6710 C   0  0  0  0  0  2  0  0  0  0  0  0
  191.5440  176.9090  136.8850 O   0  0  0  0  0  0  0  0  0  0  0  0
  189.9790  175.4020  135.8990 C   0  0  2  0  0  3  0  0  0  0  0  0
  185.2340  176.2790  136.6040 C   0  0  0  0  0  3  0  0  0  0  0  0
  186.6560  173.0040  137.6790 N   0  0  0  0  0  1  0  0  0  0  0  0
  183.8750  175.9700  136.6210 C   0  0  0  0  0  0  0  0  0  0  0  0
  186.1800  175.3170  136.9730 C   0  0  0  0  0  0  0  0  0  0  0  0
  184.3980  173.7610  137.3580 N   0  0  0  0  0  0  0  0  0  0  0  0
  183.4710  174.6930  137.0120 C   0  0  0  0  0  3  0  0  0  0  0  0
  185.7310  174.0360  137.3460 C   0  0  0  0  0  0  0  0  0  0  0  0
  182.6630  177.2020  136.1650 S   0  0  0  0  0  0  0  0  0  0  0  0
  182.7770  178.0350  137.7750 C   0  0  0  0  0  1  0  0  0  0  0  0
  189.0020  178.5510  139.6020 C   0  0  0  0  0  2  0  0  0  0  0  0
  190.6470  177.2530  141.4960 O   0  0  0  0  0  0  0  0  0  0  0  0
  190.0130  177.4720  139.1750 C   0  0  1  0  0  3  0  0  0  0  0  0
  189.4910  176.9740  142.2380 C   0  0  2  0  0  3  0  0  0  0  0  0
  188.4400  178.0600  142.0000 C   0  0  0  0  0  2  0  0  0  0  0  0
  187.9320  178.0390  140.5630 C   0  0  0  0  0  2  0  0  0  0  0  0
  190.4810  176.5430  140.3010 C   0  0  0  0  0  2  0  0  0  0  0  0
  189.6590  177.9270  144.3980 C   0  0  0  0  0  2  0  0  0  0  0  0
  189.8290  176.9100  143.6370 N   0  0  0  0  0  0  0  0  0  0  0  0
  191.3350  173.3660  135.2180 N   0  0  0  0  0  2  0  0  0  0  0  0
  190.5620  174.0560  136.2020 C   0  0  0  0  0  0  0  0  0  0  0  0
  190.3620  173.5380  137.3330 O   0  0  0  0  0  0  0  0  0  0  0  0
  191.9190  172.0600  135.4720 C   0  0  0  0  0  1  0  0  0  0  0  0
  1  2  1  0  0  0  0
  3 12  1  0  0  0  0
  3  5  2  0  0  0  0
  4  8  1  0  0  0  0
  4  3  1  0  0  0  0
  5  2  1  0  0  0  0
  6  4  2  0  0  0  0
  7  1  2  0  0  0  0
  8 28  1  1  0  0  0
  8  1  1  0  0  0  0
  9 11  2  0  0  0  0
  9 12  1  0  0  0  0
 11 14  1  0  0  0  0
 12 15  2  0  0  0  0
 14 13  2  0  0  0  0
 15 13  1  0  0  0  0
 15 10  1  0  0  0  0
 16 11  1  0  0  0  0
 16 17  1  0  0  0  0
 18 23  1  0  0  0  0
 19 21  1  0  0  0  0
 20  2  1  6  0  0  0
 20 18  1  0  0  0  0
 20 24  1  0  0  0  0
 21 26  1  1  0  0  0
 22 21  1  0  0  0  0
 23 22  1  0  0  0  0
 24 19  1  0  0  0  0
 26 25  2  0  0  0  0
 27 30  1  0  0  0  0
 27 28  1  0  0  0  0
 28 29  2  0  0  0  0
M  END
>  <MODEL>
9

>  <REMARK>
 VINA RESULT:      -6.2      2.649      3.649
  Name = 
  5 active torsions:
  status: ('A' for Active; 'I' for Inactive)
    1  A    between atoms: C_2  and  C_27
    2  A    between atoms: N_4  and  C_10
    3  A    between atoms: C_9  and  C_21
    4  A    between atoms: C_14  and  S_17
    5  A    between atoms: C_18  and  N_25
                            x       y       z     vdW  Elec       q    Type
                         _______ _______ _______ _____ _____    ______ ____

>  <TORSDO>
F 5

$$$$
