=
 OpenBabel10232408493D

 64 69  0  0  1  0  0  0  0  0999 V2000
  187.7050  177.2800  143.1920 C   0  0  0  0  0  0  0  0  0  0  0  0
  188.6570  177.6780  144.0300 C   0  0  0  0  0  0  0  0  0  0  0  0
  185.6090  178.0850  144.1810 C   0  0  0  0  0  0  0  0  0  0  0  0
  186.0450  178.7080  145.2800 C   0  0  0  0  0  3  0  0  0  0  0  0
  188.4550  177.9490  145.4750 C   0  0  0  0  0  0  0  0  0  0  0  0
  190.0050  177.7670  143.4090 C   0  0  0  0  0  2  0  0  0  0  0  0
  187.3100  178.4320  145.9930 C   0  0  0  0  0  3  0  0  0  0  0  0
  189.9510  176.9330  142.1410 C   0  0  1  0  0  3  0  0  0  0  0  0
  186.3350  176.9010  143.6360 C   0  0  0  0  0  2  0  0  0  0  0  0
  188.2420  176.9720  141.5220 S   0  0  0  0  0  0  0  0  0  0  0  0
  184.0970  178.5970  142.1420 C   0  0  0  0  0  0  0  0  0  0  0  0
  184.3780  178.4580  143.5430 N   0  0  0  0  0  2  0  0  0  0  0  0
  182.9540  178.9970  141.8030 O   0  0  0  0  0  0  0  0  0  0  0  0
  185.1090  178.2600  141.1150 C   0  0  0  0  0  3  0  0  0  0  0  0
  185.1580  178.7030  139.8520 C   0  0  0  0  0  0  0  0  0  0  0  0
  183.4250  180.3670  138.8640 N   0  0  0  0  0  0  0  0  0  0  0  0
  184.1970  179.6250  139.3030 C   0  0  0  0  0  0  0  0  0  0  0  0
  186.2760  178.2430  138.9770 C   0  0  0  0  0  2  0  0  0  0  0  0
  186.4410  178.0930  136.4800 C   0  0  0  0  0  3  0  0  0  0  0  0
  184.1230  176.5180  136.3760 C   0  0  0  0  0  0  0  0  0  0  0  0
  184.8070  176.8530  135.1960 C   0  0  0  0  0  3  0  0  0  0  0  0
  185.9610  177.6380  135.2490 C   0  0  0  0  0  3  0  0  0  0  0  0
  185.7640  177.7630  137.6610 C   0  0  0  0  0  0  0  0  0  0  0  0
  184.6110  176.9730  137.6050 C   0  0  0  0  0  3  0  0  0  0  0  0
  182.9620  175.7440  136.3540 O   0  0  0  0  0  0  0  0  0  0  0  0
  182.4620  175.1390  135.1670 C   0  0  0  0  0  2  0  0  0  0  0  0
  181.1230  174.4910  135.4530 C   0  0  0  0  0  2  0  0  0  0  0  0
  181.2590  172.9710  135.4150 C   0  0  0  0  0  2  0  0  0  0  0  0
  182.1960  172.4520  136.4170 N   0  0  0  0  0  0  0  0  0  0  0  0
  181.4840  171.7630  137.4950 C   0  0  0  0  0  2  0  0  0  0  0  0
  180.2420  171.3260  137.0380 O   0  0  0  0  0  1  0  0  0  0  0  0
  183.2690  171.6640  135.7780 C   0  0  0  0  0  2  0  0  0  0  0  0
  185.4660  170.2740  134.3920 C   0  0  0  0  0  1  0  0  0  0  0  0
  184.6990  172.2150  135.9290 C   0  0  2  0  0  0  0  0  0  0  0  0
  186.1630  173.8820  134.9830 O   0  0  0  0  0  1  0  0  0  0  0  0
  185.3130  172.8190  134.6670 C   0  0  1  0  0  3  0  0  0  0  0  0
  185.8380  171.4910  135.2240 C   0  0  2  0  0  0  0  0  0  0  0  0
  185.0440  172.8500  137.1260 O   0  0  0  0  0  1  0  0  0  0  0  0
  187.1910  171.4930  135.9330 C   0  0  0  0  0  2  0  0  0  0  0  0
  187.9190  170.2740  135.6260 N   0  0  0  0  0  1  0  0  0  0  0  0
  191.0850  177.6210  140.9060 S   0  0  0  0  0  0  0  0  0  0  0  0
  190.5410  176.4980  139.7000 O   0  0  0  0  0  0  0  0  0  0  0  0
  190.5200  176.2180  137.3360 C   0  0  0  0  0  0  0  0  0  0  0  0
  190.2520  176.9500  138.4180 C   0  0  0  0  0  3  0  0  0  0  0  0
  195.4640  172.8490  136.8880 N   0  0  0  0  0  1  0  0  0  0  0  0
  195.4350  175.4800  136.5780 O   0  0  0  0  0  1  0  0  0  0  0  0
  192.5170  174.6670  137.5110 N   0  0  0  0  0  0  0  0  0  0  0  0
  191.0970  174.8640  137.4670 C   0  0  0  0  0  0  0  0  0  0  0  0
  194.8300  175.0790  137.7720 C   0  0  2  0  0  3  0  0  0  0  0  0
  193.1340  173.3610  137.3900 C   0  0  0  0  0  2  0  0  0  0  0  0
  190.3260  173.8690  137.5380 O   0  0  0  0  0  0  0  0  0  0  0  0
  194.5800  173.5660  137.7920 C   0  0  1  0  0  3  0  0  0  0  0  0
  193.4560  175.7140  137.8560 C   0  0  0  0  0  2  0  0  0  0  0  0
  189.4750  177.9370  135.8750 O   0  0  0  0  0  1  0  0  0  0  0  0
  190.6880  176.2260  134.9630 O   0  0  0  0  0  0  0  0  0  0  0  0
  190.2390  176.7830  136.0020 C   0  0  0  0  0  0  0  0  0  0  0  0
  189.6420  177.7660  146.3860 C   0  0  2  0  0  3  0  0  0  0  0  0
  190.5230  176.5900  145.9730 C   0  0  1  0  0  3  0  0  0  0  0  0
  192.2210  176.2890  147.9050 N   0  0  0  0  0  2  0  0  0  0  0  0
  191.6670  177.0460  145.3720 O   0  0  0  0  0  0  0  0  0  0  0  0
  191.6380  176.5460  146.7840 C   0  0  0  0  0  0  0  0  0  0  0  0
  189.2490  177.7000  147.8340 C   0  0  0  0  0  0  0  0  0  0  0  0
  188.2810  176.6650  148.2860 C   0  0  0  0  0  1  0  0  0  0  0  0
  189.7210  178.4800  148.6460 O   0  0  0  0  0  0  0  0  0  0  0  0
  1  9  1  0  0  0  0
  1  2  2  0  0  0  0
  2  5  1  0  0  0  0
  3  4  2  0  0  0  0
  4  7  1  0  0  0  0
  5  7  2  0  0  0  0
  5 57  1  0  0  0  0
  6  2  1  0  0  0  0
  8 41  1  6  0  0  0
  8  6  1  0  0  0  0
  9  3  1  0  0  0  0
 10  8  1  0  0  0  0
 10  1  1  0  0  0  0
 11 12  1  0  0  0  0
 12  3  1  0  0  0  0
 13 11  2  0  0  0  0
 14 11  1  0  0  0  0
 15 14  2  0  0  0  0
 16 17  3  0  0  0  0
 17 15  1  0  0  0  0
 18 15  1  0  0  0  0
 19 23  1  0  0  0  0
 20 24  1  0  0  0  0
 21 22  1  0  0  0  0
 21 20  2  0  0  0  0
 22 19  2  0  0  0  0
 23 18  1  0  0  0  0
 24 23  2  0  0  0  0
 25 20  1  0  0  0  0
 26 27  1  0  0  0  0
 26 25  1  0  0  0  0
 28 27  1  0  0  0  0
 28 29  1  0  0  0  0
 29 30  1  0  0  0  0
 31 30  1  0  0  0  0
 32 34  1  0  0  0  0
 32 29  1  0  0  0  0
 34 38  1  1  0  0  0
 36 35  1  1  0  0  0
 36 37  1  0  0  0  0
 36 34  1  0  0  0  0
 37 33  1  6  0  0  0
 37 34  1  0  0  0  0
 37 39  1  0  0  0  0
 40 39  1  0  0  0  0
 42 41  1  0  0  0  0
 43 48  1  0  0  0  0
 43 44  2  0  0  0  0
 44 42  1  0  0  0  0
 47 53  1  0  0  0  0
 48 47  1  0  0  0  0
 48 51  2  0  0  0  0
 49 46  1  6  0  0  0
 49 52  1  0  0  0  0
 49 53  1  0  0  0  0
 50 47  1  0  0  0  0
 50 52  1  0  0  0  0
 52 45  1  6  0  0  0
 54 56  1  0  0  0  0
 55 56  2  0  0  0  0
 56 43  1  0  0  0  0
 57 62  1  1  0  0  0
 58 57  1  1  0  0  0
 58 61  1  0  0  0  0
 60 58  1  0  0  0  0
 60 61  1  0  0  0  0
 61 59  2  0  0  0  0
 62 63  1  0  0  0  0
 62 64  2  0  0  0  0
M  END
>  <MODEL>
1

>  <REMARK>
 VINA RESULT:      -7.0      0.000      0.000
  Name = 
  22 active torsions:
  status: ('A' for Active; 'I' for Inactive)
    1  A    between atoms: C_3  and  C_10
    2  A    between atoms: C_4  and  N_17
    3  A    between atoms: N_5  and  C_6
    4  A    between atoms: N_5  and  C_54
    5  A    between atoms: N_5  and  C_61
    6  A    between atoms: C_8  and  C_38
    7  A    between atoms: C_9  and  C_38
    8  A    between atoms: C_12  and  C_19
    9  A    between atoms: C_12  and  C_61
   10  A    between atoms: C_13  and  O_39
   11  A    between atoms: C_19  and  O_39
   12  A    between atoms: C_20  and  C_53
   13  A    between atoms: C_21  and  C_38
   14  A    between atoms: C_25  and  C_54
   15  A    between atoms: C_30  and  C_33
   16  A    between atoms: C_30  and  C_58
   17  A    between atoms: C_32  and  C_42
   18  A    between atoms: C_37  and  O_46
   19  A    between atoms: C_42  and  C_56
   20  A    between atoms: O_46  and  S_63
   21  A    between atoms: C_50  and  C_56
   22  A    between atoms: C_51  and  S_63
                            x       y       z     vdW  Elec       q    Type
                         _______ _______ _______ _____ _____    ______ ____

>  <TORSDO>
F 22

$$$$
=
 OpenBabel10232408493D

 64 69  0  0  1  0  0  0  0  0999 V2000
  186.7220  177.7020  143.8360 C   0  0  0  0  0  0  0  0  0  0  0  0
  187.9130  177.9740  144.3570 C   0  0  0  0  0  0  0  0  0  0  0  0
  185.1030  178.4640  145.5150 C   0  0  0  0  0  0  0  0  0  0  0  0
  185.9040  178.9480  146.4690 C   0  0  0  0  0  3  0  0  0  0  0  0
  188.1970  178.0930  145.8100 C   0  0  0  0  0  0  0  0  0  0  0  0
  189.0000  178.0840  143.3490 C   0  0  0  0  0  2  0  0  0  0  0  0
  187.3080  178.5550  146.7090 C   0  0  0  0  0  3  0  0  0  0  0  0
  188.4940  177.3960  142.0930 C   0  0  1  0  0  3  0  0  0  0  0  0
  185.5400  177.3220  144.6590 C   0  0  0  0  0  2  0  0  0  0  0  0
  186.6840  177.5590  142.0620 S   0  0  0  0  0  0  0  0  0  0  0  0
  183.0750  179.2770  144.1270 C   0  0  0  0  0  0  0  0  0  0  0  0
  183.7620  178.9450  145.3420 N   0  0  0  0  0  2  0  0  0  0  0  0
  181.9090  179.7430  144.2120 O   0  0  0  0  0  0  0  0  0  0  0  0
  183.7010  179.0620  142.8020 C   0  0  0  0  0  3  0  0  0  0  0  0
  183.0880  178.7060  141.6660 C   0  0  0  0  0  0  0  0  0  0  0  0
  180.5250  178.3140  141.4940 N   0  0  0  0  0  0  0  0  0  0  0  0
  181.6660  178.4900  141.5720 C   0  0  0  0  0  0  0  0  0  0  0  0
  183.9090  178.5490  140.4300 C   0  0  0  0  0  2  0  0  0  0  0  0
  182.5330  179.8240  138.7670 C   0  0  0  0  0  3  0  0  0  0  0  0
  181.9850  177.4690  137.3470 C   0  0  0  0  0  0  0  0  0  0  0  0
  181.4630  178.6990  136.9110 C   0  0  0  0  0  3  0  0  0  0  0  0
  181.7370  179.8710  137.6190 C   0  0  0  0  0  3  0  0  0  0  0  0
  183.0550  178.6020  139.2080 C   0  0  0  0  0  0  0  0  0  0  0  0
  182.7840  177.4300  138.4940 C   0  0  0  0  0  3  0  0  0  0  0  0
  181.7210  176.2800  136.6650 O   0  0  0  0  0  0  0  0  0  0  0  0
  180.8810  175.2600  137.1920 C   0  0  0  0  0  2  0  0  0  0  0  0
  181.6810  173.9870  137.3720 C   0  0  0  0  0  2  0  0  0  0  0  0
  180.7760  172.7710  137.1940 C   0  0  0  0  0  2  0  0  0  0  0  0
  181.4010  171.6970  136.4140 N   0  0  0  0  0  0  0  0  0  0  0  0
  181.4050  172.0190  134.9860 C   0  0  0  0  0  2  0  0  0  0  0  0
  180.8300  173.2730  134.7820 O   0  0  0  0  0  1  0  0  0  0  0  0
  182.7200  171.3380  136.9730 C   0  0  0  0  0  2  0  0  0  0  0  0
  184.6250  169.6940  135.4400 C   0  0  0  0  0  1  0  0  0  0  0  0
  183.9400  172.0290  136.3340 C   0  0  2  0  0  0  0  0  0  0  0  0
  184.5600  173.2520  134.3500 O   0  0  0  0  0  1  0  0  0  0  0  0
  183.9440  172.0840  134.8070 C   0  0  1  0  0  3  0  0  0  0  0  0
  184.9320  171.1790  135.5520 C   0  0  2  0  0  0  0  0  0  0  0  0
  184.4830  173.1450  136.9750 O   0  0  0  0  0  1  0  0  0  0  0  0
  186.3960  171.6090  135.6130 C   0  0  0  0  0  2  0  0  0  0  0  0
  187.2530  170.5450  135.1170 N   0  0  0  0  0  1  0  0  0  0  0  0
  189.2230  178.1750  140.6290 S   0  0  0  0  0  0  0  0  0  0  0  0
  190.0970  176.7310  140.2260 O   0  0  0  0  0  0  0  0  0  0  0  0
  191.2930  176.2310  138.2300 C   0  0  0  0  0  0  0  0  0  0  0  0
  191.2320  176.8120  139.4290 C   0  0  0  0  0  3  0  0  0  0  0  0
  185.5750  176.6430  136.4610 N   0  0  0  0  0  1  0  0  0  0  0  0
  187.0380  178.7140  137.2300 O   0  0  0  0  0  1  0  0  0  0  0  0
  189.0000  176.2250  137.1510 N   0  0  0  0  0  0  0  0  0  0  0  0
  190.1250  175.5110  137.6810 C   0  0  0  0  0  0  0  0  0  0  0  0
  187.6690  177.9550  136.2410 C   0  0  2  0  0  3  0  0  0  0  0  0
  187.7400  175.5840  136.8310 C   0  0  0  0  0  2  0  0  0  0  0  0
  190.1190  174.2510  137.6830 O   0  0  0  0  0  0  0  0  0  0  0  0
  186.9630  176.6100  136.0310 C   0  0  1  0  0  3  0  0  0  0  0  0
  189.0660  177.6060  136.7160 C   0  0  0  0  0  2  0  0  0  0  0  0
  193.7420  176.6410  138.0940 O   0  0  0  0  0  1  0  0  0  0  0  0
  192.5570  176.0770  136.2210 O   0  0  0  0  0  0  0  0  0  0  0  0
  192.5500  176.3090  137.4600 C   0  0  0  0  0  0  0  0  0  0  0  0
  189.5960  177.7720  146.2710 C   0  0  2  0  0  3  0  0  0  0  0  0
  190.3300  176.8390  145.3130 C   0  0  1  0  0  3  0  0  0  0  0  0
  192.3410  175.9130  146.6580 N   0  0  0  0  0  2  0  0  0  0  0  0
  191.3620  177.5040  144.7050 O   0  0  0  0  0  0  0  0  0  0  0  0
  191.5720  176.5360  145.8290 C   0  0  0  0  0  0  0  0  0  0  0  0
  189.6330  177.2760  147.6880 C   0  0  0  0  0  0  0  0  0  0  0  0
  189.9780  178.2170  148.7870 C   0  0  0  0  0  1  0  0  0  0  0  0
  189.3730  176.1120  147.9500 O   0  0  0  0  0  0  0  0  0  0  0  0
  1  2  2  0  0  0  0
  1  9  1  0  0  0  0
  2  5  1  0  0  0  0
  3  4  2  0  0  0  0
  4  7  1  0  0  0  0
  5 57  1  0  0  0  0
  5  7  2  0  0  0  0
  6  2  1  0  0  0  0
  8 41  1  6  0  0  0
  8  6  1  0  0  0  0
  9  3  1  0  0  0  0
 10  8  1  0  0  0  0
 10  1  1  0  0  0  0
 11 13  2  0  0  0  0
 11 12  1  0  0  0  0
 12  3  1  0  0  0  0
 14 11  1  0  0  0  0
 15 14  2  0  0  0  0
 16 17  3  0  0  0  0
 17 15  1  0  0  0  0
 18 15  1  0  0  0  0
 19 23  1  0  0  0  0
 20 24  1  0  0  0  0
 21 20  2  0  0  0  0
 21 22  1  0  0  0  0
 22 19  2  0  0  0  0
 23 18  1  0  0  0  0
 24 23  2  0  0  0  0
 25 26  1  0  0  0  0
 25 20  1  0  0  0  0
 26 27  1  0  0  0  0
 28 27  1  0  0  0  0
 29 32  1  0  0  0  0
 29 28  1  0  0  0  0
 30 29  1  0  0  0  0
 31 30  1  0  0  0  0
 34 32  1  0  0  0  0
 34 38  1  1  0  0  0
 36 35  1  1  0  0  0
 36 37  1  0  0  0  0
 36 34  1  0  0  0  0
 37 33  1  6  0  0  0
 37 39  1  0  0  0  0
 37 34  1  0  0  0  0
 40 39  1  0  0  0  0
 42 41  1  0  0  0  0
 43 44  2  0  0  0  0
 44 42  1  0  0  0  0
 47 48  1  0  0  0  0
 48 51  2  0  0  0  0
 48 43  1  0  0  0  0
 49 53  1  0  0  0  0
 49 46  1  1  0  0  0
 50 47  1  0  0  0  0
 52 49  1  0  0  0  0
 52 45  1  1  0  0  0
 52 50  1  0  0  0  0
 53 47  1  0  0  0  0
 55 56  2  0  0  0  0
 56 54  1  0  0  0  0
 56 43  1  0  0  0  0
 57 62  1  1  0  0  0
 58 61  1  0  0  0  0
 58 57  1  1  0  0  0
 60 58  1  0  0  0  0
 60 61  1  0  0  0  0
 61 59  2  0  0  0  0
 62 64  2  0  0  0  0
 62 63  1  0  0  0  0
M  END
>  <MODEL>
2

>  <REMARK>
 VINA RESULT:      -5.7      2.024      3.271
  Name = 
  22 active torsions:
  status: ('A' for Active; 'I' for Inactive)
    1  A    between atoms: C_3  and  C_10
    2  A    between atoms: C_4  and  N_17
    3  A    between atoms: N_5  and  C_6
    4  A    between atoms: N_5  and  C_54
    5  A    between atoms: N_5  and  C_61
    6  A    between atoms: C_8  and  C_38
    7  A    between atoms: C_9  and  C_38
    8  A    between atoms: C_12  and  C_19
    9  A    between atoms: C_12  and  C_61
   10  A    between atoms: C_13  and  O_39
   11  A    between atoms: C_19  and  O_39
   12  A    between atoms: C_20  and  C_53
   13  A    between atoms: C_21  and  C_38
   14  A    between atoms: C_25  and  C_54
   15  A    between atoms: C_30  and  C_33
   16  A    between atoms: C_30  and  C_58
   17  A    between atoms: C_32  and  C_42
   18  A    between atoms: C_37  and  O_46
   19  A    between atoms: C_42  and  C_56
   20  A    between atoms: O_46  and  S_63
   21  A    between atoms: C_50  and  C_56
   22  A    between atoms: C_51  and  S_63
                            x       y       z     vdW  Elec       q    Type
                         _______ _______ _______ _____ _____    ______ ____

>  <TORSDO>
F 22

$$$$
=
 OpenBabel10232408493D

 64 69  0  0  1  0  0  0  0  0999 V2000
  184.9310  179.0600  142.3160 C   0  0  0  0  0  0  0  0  0  0  0  0
  184.2010  178.6980  141.2670 C   0  0  0  0  0  0  0  0  0  0  0  0
  183.4420  178.7960  144.2480 C   0  0  0  0  0  0  0  0  0  0  0  0
  182.3220  178.3480  143.6730 C   0  0  0  0  0  3  0  0  0  0  0  0
  182.7190  178.7560  141.2040 C   0  0  0  0  0  0  0  0  0  0  0  0
  185.0070  178.2850  140.0880 C   0  0  0  0  0  2  0  0  0  0  0  0
  181.9170  178.5660  142.2680 C   0  0  0  0  0  3  0  0  0  0  0  0
  186.4020  178.8460  140.3010 C   0  0  1  0  0  3  0  0  0  0  0  0
  184.3550  179.7240  143.5190 C   0  0  0  0  0  2  0  0  0  0  0  0
  186.6930  178.9430  142.0930 S   0  0  0  0  0  0  0  0  0  0  0  0
  185.0440  178.4540  146.2530 C   0  0  0  0  0  0  0  0  0  0  0  0
  183.7590  178.4940  145.6150 N   0  0  0  0  0  2  0  0  0  0  0  0
  185.0980  178.1030  147.4600 O   0  0  0  0  0  0  0  0  0  0  0  0
  186.2780  178.8360  145.5280 C   0  0  0  0  0  3  0  0  0  0  0  0
  187.5270  178.4280  145.7870 C   0  0  0  0  0  0  0  0  0  0  0  0
  188.1100  176.7660  147.6960 N   0  0  0  0  0  0  0  0  0  0  0  0
  187.8520  177.5080  146.8470 C   0  0  0  0  0  0  0  0  0  0  0  0
  188.6350  178.9300  144.9230 C   0  0  0  0  0  2  0  0  0  0  0  0
  188.5520  176.5860  144.0380 C   0  0  0  0  0  3  0  0  0  0  0  0
  190.5000  177.1930  142.1150 C   0  0  0  0  0  0  0  0  0  0  0  0
  189.9520  175.9020  142.1860 C   0  0  0  0  0  3  0  0  0  0  0  0
  188.9810  175.6010  143.1450 C   0  0  0  0  0  3  0  0  0  0  0  0
  189.0950  177.8750  143.9740 C   0  0  0  0  0  0  0  0  0  0  0  0
  190.0630  178.1750  143.0100 C   0  0  0  0  0  3  0  0  0  0  0  0
  191.4780  177.5220  141.1750 O   0  0  0  0  0  0  0  0  0  0  0  0
  191.2910  177.3460  139.7750 C   0  0  0  0  0  2  0  0  0  0  0  0
  192.5070  176.6660  139.1820 C   0  0  0  0  0  2  0  0  0  0  0  0
  192.3130  176.4630  137.6820 C   0  0  0  0  0  2  0  0  0  0  0  0
  193.1110  175.3560  137.1430 N   0  0  0  0  0  0  0  0  0  0  0  0
  193.4910  175.6100  135.7530 C   0  0  0  0  0  2  0  0  0  0  0  0
  192.8100  174.7350  134.9080 O   0  0  0  0  0  1  0  0  0  0  0  0
  194.2340  175.0280  138.0440 C   0  0  0  0  0  2  0  0  0  0  0  0
  196.6520  174.5410  139.6570 C   0  0  0  0  0  1  0  0  0  0  0  0
  195.3580  174.1650  137.4410 C   0  0  2  0  0  0  0  0  0  0  0  0
  195.9890  171.8530  137.1690 O   0  0  0  0  0  1  0  0  0  0  0  0
  195.5760  172.8060  138.1040 C   0  0  1  0  0  3  0  0  0  0  0  0
  196.6140  173.9220  138.2680 C   0  0  2  0  0  0  0  0  0  0  0  0
  195.5500  174.1940  136.0570 O   0  0  0  0  0  1  0  0  0  0  0  0
  197.9260  173.8030  137.4970 C   0  0  0  0  0  2  0  0  0  0  0  0
  198.4300  175.1230  137.1570 N   0  0  0  0  0  1  0  0  0  0  0  0
  187.6260  177.7610  139.5210 S   0  0  0  0  0  0  0  0  0  0  0  0
  186.9430  178.0290  137.9480 O   0  0  0  0  0  0  0  0  0  0  0  0
  188.0220  176.8030  136.2160 C   0  0  0  0  0  0  0  0  0  0  0  0
  187.7570  177.9600  136.8230 C   0  0  0  0  0  3  0  0  0  0  0  0
  182.9470  173.6830  136.9320 N   0  0  0  0  0  1  0  0  0  0  0  0
  183.0800  176.0300  135.7110 O   0  0  0  0  0  1  0  0  0  0  0  0
  186.0710  175.1890  136.3380 N   0  0  0  0  0  0  0  0  0  0  0  0
  187.4140  175.5440  136.6950 C   0  0  0  0  0  0  0  0  0  0  0  0
  184.0010  175.1120  135.1990 C   0  0  2  0  0  3  0  0  0  0  0  0
  185.3490  174.1040  136.9710 C   0  0  0  0  0  2  0  0  0  0  0  0
  188.0880  174.7750  137.4310 O   0  0  0  0  0  0  0  0  0  0  0  0
  184.1260  173.8810  136.1050 C   0  0  1  0  0  3  0  0  0  0  0  0
  185.3750  175.7520  135.1990 C   0  0  0  0  0  2  0  0  0  0  0  0
  189.6610  175.6500  134.7440 O   0  0  0  0  0  1  0  0  0  0  0  0
  189.0790  177.8260  134.3460 O   0  0  0  0  0  0  0  0  0  0  0  0
  188.9390  176.7950  135.0590 C   0  0  0  0  0  0  0  0  0  0  0  0
  182.0900  178.9360  139.8450 C   0  0  2  0  0  3  0  0  0  0  0  0
  180.9460  179.9460  139.8570 C   0  0  1  0  0  3  0  0  0  0  0  0
  180.7100  180.7490  137.4060 N   0  0  0  0  0  2  0  0  0  0  0  0
  181.4410  181.2180  139.9650 O   0  0  0  0  0  0  0  0  0  0  0  0
  180.9430  180.6500  138.6710 C   0  0  0  0  0  0  0  0  0  0  0  0
  181.6880  177.6290  139.2220 C   0  0  0  0  0  0  0  0  0  0  0  0
  182.3510  176.3710  139.6620 C   0  0  0  0  0  1  0  0  0  0  0  0
  180.8190  177.5850  138.3670 O   0  0  0  0  0  0  0  0  0  0  0  0
  1  9  1  0  0  0  0
  2  1  2  0  0  0  0
  3 12  1  0  0  0  0
  4  3  2  0  0  0  0
  5  2  1  0  0  0  0
  5  7  2  0  0  0  0
  6  8  1  0  0  0  0
  6  2  1  0  0  0  0
  7  4  1  0  0  0  0
  8 41  1  6  0  0  0
  8 10  1  0  0  0  0
  9  3  1  0  0  0  0
 10  1  1  0  0  0  0
 11 13  2  0  0  0  0
 12 11  1  0  0  0  0
 14 15  2  0  0  0  0
 14 11  1  0  0  0  0
 15 17  1  0  0  0  0
 17 16  3  0  0  0  0
 18 15  1  0  0  0  0
 20 21  2  0  0  0  0
 20 24  1  0  0  0  0
 21 22  1  0  0  0  0
 22 19  2  0  0  0  0
 23 19  1  0  0  0  0
 23 18  1  0  0  0  0
 24 23  2  0  0  0  0
 25 20  1  0  0  0  0
 26 25  1  0  0  0  0
 27 26  1  0  0  0  0
 28 27  1  0  0  0  0
 29 28  1  0  0  0  0
 29 32  1  0  0  0  0
 30 29  1  0  0  0  0
 31 30  1  0  0  0  0
 34 38  1  6  0  0  0
 34 32  1  0  0  0  0
 34 36  1  0  0  0  0
 34 37  1  0  0  0  0
 36 35  1  6  0  0  0
 36 37  1  0  0  0  0
 37 33  1  1  0  0  0
 39 37  1  0  0  0  0
 40 39  1  0  0  0  0
 42 41  1  0  0  0  0
 43 48  1  0  0  0  0
 43 44  2  0  0  0  0
 44 42  1  0  0  0  0
 47 48  1  0  0  0  0
 47 50  1  0  0  0  0
 48 51  2  0  0  0  0
 49 46  1  1  0  0  0
 49 52  1  0  0  0  0
 52 45  1  1  0  0  0
 52 50  1  0  0  0  0
 53 49  1  0  0  0  0
 53 47  1  0  0  0  0
 54 56  1  0  0  0  0
 55 56  2  0  0  0  0
 56 43  1  0  0  0  0
 57 62  1  1  0  0  0
 57  5  1  0  0  0  0
 58 57  1  6  0  0  0
 58 60  1  0  0  0  0
 59 61  2  0  0  0  0
 61 58  1  0  0  0  0
 61 60  1  0  0  0  0
 62 63  1  0  0  0  0
 64 62  2  0  0  0  0
M  END
>  <MODEL>
3

>  <REMARK>
 VINA RESULT:      -5.3      2.494      8.997
  Name = 
  22 active torsions:
  status: ('A' for Active; 'I' for Inactive)
    1  A    between atoms: C_3  and  C_10
    2  A    between atoms: C_4  and  N_17
    3  A    between atoms: N_5  and  C_6
    4  A    between atoms: N_5  and  C_54
    5  A    between atoms: N_5  and  C_61
    6  A    between atoms: C_8  and  C_38
    7  A    between atoms: C_9  and  C_38
    8  A    between atoms: C_12  and  C_19
    9  A    between atoms: C_12  and  C_61
   10  A    between atoms: C_13  and  O_39
   11  A    between atoms: C_19  and  O_39
   12  A    between atoms: C_20  and  C_53
   13  A    between atoms: C_21  and  C_38
   14  A    between atoms: C_25  and  C_54
   15  A    between atoms: C_30  and  C_33
   16  A    between atoms: C_30  and  C_58
   17  A    between atoms: C_32  and  C_42
   18  A    between atoms: C_37  and  O_46
   19  A    between atoms: C_42  and  C_56
   20  A    between atoms: O_46  and  S_63
   21  A    between atoms: C_50  and  C_56
   22  A    between atoms: C_51  and  S_63
                            x       y       z     vdW  Elec       q    Type
                         _______ _______ _______ _____ _____    ______ ____

>  <TORSDO>
F 22

$$$$
=
 OpenBabel10232408493D

 64 69  0  0  1  0  0  0  0  0999 V2000
  190.0000  176.8990  138.4970 C   0  0  0  0  0  0  0  0  0  0  0  0
  190.4370  176.5740  137.2850 C   0  0  0  0  0  0  0  0  0  0  0  0
  192.0140  176.9990  139.8940 C   0  0  0  0  0  0  0  0  0  0  0  0
  192.9750  176.7070  139.0120 C   0  0  0  0  0  3  0  0  0  0  0  0
  191.6950  175.8360  137.0060 C   0  0  0  0  0  0  0  0  0  0  0  0
  189.5060  176.9520  136.1890 C   0  0  0  0  0  2  0  0  0  0  0  0
  192.8040  175.9390  137.7620 C   0  0  0  0  0  3  0  0  0  0  0  0
  188.1480  177.1710  136.8330 C   0  0  1  0  0  3  0  0  0  0  0  0
  190.6460  176.4210  139.7510 C   0  0  0  0  0  2  0  0  0  0  0  0
  188.4270  177.7320  138.5390 S   0  0  0  0  0  0  0  0  0  0  0  0
  191.4640  177.9720  142.2300 C   0  0  0  0  0  0  0  0  0  0  0  0
  192.2800  177.7880  141.0640 N   0  0  0  0  0  2  0  0  0  0  0  0
  191.8680  178.7640  143.1200 O   0  0  0  0  0  0  0  0  0  0  0  0
  190.1900  177.2370  142.4040 C   0  0  0  0  0  3  0  0  0  0  0  0
  188.9510  177.7140  142.2280 C   0  0  0  0  0  0  0  0  0  0  0  0
  188.4580  180.1500  141.4720 N   0  0  0  0  0  0  0  0  0  0  0  0
  188.6790  179.0660  141.8100 C   0  0  0  0  0  0  0  0  0  0  0  0
  187.7950  176.7960  142.4490 C   0  0  0  0  0  2  0  0  0  0  0  0
  186.0040  178.2460  141.4600 C   0  0  0  0  0  3  0  0  0  0  0  0
  184.6310  178.2970  143.9040 C   0  0  0  0  0  0  0  0  0  0  0  0
  184.1210  178.9830  142.7900 C   0  0  0  0  0  3  0  0  0  0  0  0
  184.8060  178.9570  141.5730 C   0  0  0  0  0  3  0  0  0  0  0  0
  186.5190  177.5600  142.5680 C   0  0  0  0  0  0  0  0  0  0  0  0
  185.8280  177.5840  143.7840 C   0  0  0  0  0  3  0  0  0  0  0  0
  183.9740  178.3120  145.1360 O   0  0  0  0  0  0  0  0  0  0  0  0
  184.4900  178.9900  146.2760 C   0  0  0  0  0  2  0  0  0  0  0  0
  185.9930  179.1230  146.1500 C   0  0  0  0  0  2  0  0  0  0  0  0
  186.6860  178.1580  147.1080 C   0  0  0  0  0  2  0  0  0  0  0  0
  188.1490  178.2590  147.0690 N   0  0  0  0  0  0  0  0  0  0  0  0
  188.7070  178.3360  148.4210 C   0  0  0  0  0  2  0  0  0  0  0  0
  187.8610  177.6880  149.3200 O   0  0  0  0  0  1  0  0  0  0  0  0
  188.7290  177.2010  146.2180 C   0  0  0  0  0  2  0  0  0  0  0  0
  190.0550  175.2220  147.9530 C   0  0  0  0  0  1  0  0  0  0  0  0
  190.2660  177.1140  146.1930 C   0  0  2  0  0  0  0  0  0  0  0  0
  192.0540  176.0940  144.9380 O   0  0  0  0  0  1  0  0  0  0  0  0
  190.8470  175.8350  145.5920 C   0  0  1  0  0  3  0  0  0  0  0  0
  190.9540  176.1010  147.0980 C   0  0  2  0  0  0  0  0  0  0  0  0
  190.9940  178.2800  145.9380 O   0  0  0  0  0  1  0  0  0  0  0  0
  192.3150  176.5040  147.6620 C   0  0  0  0  0  2  0  0  0  0  0  0
  192.9850  175.3460  148.2300 N   0  0  0  0  0  1  0  0  0  0  0  0
  187.2210  178.4180  135.9020 S   0  0  0  0  0  0  0  0  0  0  0  0
  185.7920  177.4340  135.8980 O   0  0  0  0  0  0  0  0  0  0  0  0
  183.7110  176.8880  136.9170 C   0  0  0  0  0  0  0  0  0  0  0  0
  184.8020  177.6520  136.8490 C   0  0  0  0  0  3  0  0  0  0  0  0
  185.5700  171.3770  135.4460 N   0  0  0  0  0  1  0  0  0  0  0  0
  186.4610  172.7270  137.5440 O   0  0  0  0  0  1  0  0  0  0  0  0
  184.1120  174.4610  136.3090 N   0  0  0  0  0  0  0  0  0  0  0  0
  183.5380  175.7390  136.0050 C   0  0  0  0  0  0  0  0  0  0  0  0
  185.0650  172.6600  137.5090 C   0  0  2  0  0  3  0  0  0  0  0  0
  184.1830  173.3800  135.3460 C   0  0  0  0  0  2  0  0  0  0  0  0
  182.8760  175.8880  134.9420 O   0  0  0  0  0  0  0  0  0  0  0  0
  184.5630  172.1540  136.1510 C   0  0  1  0  0  3  0  0  0  0  0  0
  184.5100  174.0640  137.6450 C   0  0  0  0  0  2  0  0  0  0  0  0
  182.8330  178.2970  138.7680 O   0  0  0  0  0  1  0  0  0  0  0  0
  181.6300  176.5080  138.0060 O   0  0  0  0  0  0  0  0  0  0  0  0
  182.6720  177.2120  137.9150 C   0  0  0  0  0  0  0  0  0  0  0  0
  191.7490  175.0120  135.7450 C   0  0  2  0  0  3  0  0  0  0  0  0
  191.4530  173.5360  135.9950 C   0  0  1  0  0  3  0  0  0  0  0  0
  189.0730  173.1410  135.0550 N   0  0  0  0  0  2  0  0  0  0  0  0
  190.7480  173.3870  137.1600 O   0  0  0  0  0  0  0  0  0  0  0  0
  190.1080  173.3000  135.8090 C   0  0  0  0  0  0  0  0  0  0  0  0
  193.0280  175.2140  134.9840 C   0  0  0  0  0  0  0  0  0  0  0  0
  194.0350  174.1200  134.9360 C   0  0  0  0  0  1  0  0  0  0  0  0
  193.2470  176.2610  134.3950 O   0  0  0  0  0  0  0  0  0  0  0  0
  1 10  1  0  0  0  0
  1  9  1  0  0  0  0
  2  1  2  0  0  0  0
  3 12  1  0  0  0  0
  4  3  2  0  0  0  0
  5  2  1  0  0  0  0
  5  7  2  0  0  0  0
  6  8  1  0  0  0  0
  6  2  1  0  0  0  0
  7  4  1  0  0  0  0
  8 41  1  6  0  0  0
  8 10  1  0  0  0  0
  9  3  1  0  0  0  0
 11 14  1  0  0  0  0
 11 13  2  0  0  0  0
 12 11  1  0  0  0  0
 15 14  2  0  0  0  0
 15 18  1  0  0  0  0
 16 17  3  0  0  0  0
 17 15  1  0  0  0  0
 18 23  1  0  0  0  0
 19 22  2  0  0  0  0
 19 23  1  0  0  0  0
 20 25  1  0  0  0  0
 21 20  2  0  0  0  0
 22 21  1  0  0  0  0
 23 24  2  0  0  0  0
 24 20  1  0  0  0  0
 25 26  1  0  0  0  0
 27 26  1  0  0  0  0
 27 28  1  0  0  0  0
 29 28  1  0  0  0  0
 29 30  1  0  0  0  0
 30 31  1  0  0  0  0
 32 29  1  0  0  0  0
 34 38  1  6  0  0  0
 34 32  1  0  0  0  0
 34 37  1  0  0  0  0
 36 35  1  6  0  0  0
 36 34  1  0  0  0  0
 36 37  1  0  0  0  0
 37 39  1  0  0  0  0
 37 33  1  1  0  0  0
 39 40  1  0  0  0  0
 42 41  1  0  0  0  0
 42 44  1  0  0  0  0
 43 56  1  0  0  0  0
 44 43  2  0  0  0  0
 47 53  1  0  0  0  0
 48 47  1  0  0  0  0
 48 43  1  0  0  0  0
 49 46  1  6  0  0  0
 49 53  1  0  0  0  0
 50 52  1  0  0  0  0
 50 47  1  0  0  0  0
 51 48  2  0  0  0  0
 52 45  1  6  0  0  0
 52 49  1  0  0  0  0
 56 55  2  0  0  0  0
 56 54  1  0  0  0  0
 57 62  1  1  0  0  0
 57  5  1  0  0  0  0
 58 57  1  1  0  0  0
 58 60  1  0  0  0  0
 59 61  2  0  0  0  0
 61 58  1  0  0  0  0
 61 60  1  0  0  0  0
 63 62  1  0  0  0  0
 64 62  2  0  0  0  0
M  END
>  <MODEL>
4

>  <REMARK>
 VINA RESULT:      -4.9      2.449      9.947
  Name = 
  22 active torsions:
  status: ('A' for Active; 'I' for Inactive)
    1  A    between atoms: C_3  and  C_10
    2  A    between atoms: C_4  and  N_17
    3  A    between atoms: N_5  and  C_6
    4  A    between atoms: N_5  and  C_54
    5  A    between atoms: N_5  and  C_61
    6  A    between atoms: C_8  and  C_38
    7  A    between atoms: C_9  and  C_38
    8  A    between atoms: C_12  and  C_19
    9  A    between atoms: C_12  and  C_61
   10  A    between atoms: C_13  and  O_39
   11  A    between atoms: C_19  and  O_39
   12  A    between atoms: C_20  and  C_53
   13  A    between atoms: C_21  and  C_38
   14  A    between atoms: C_25  and  C_54
   15  A    between atoms: C_30  and  C_33
   16  A    between atoms: C_30  and  C_58
   17  A    between atoms: C_32  and  C_42
   18  A    between atoms: C_37  and  O_46
   19  A    between atoms: C_42  and  C_56
   20  A    between atoms: O_46  and  S_63
   21  A    between atoms: C_50  and  C_56
   22  A    between atoms: C_51  and  S_63
                            x       y       z     vdW  Elec       q    Type
                         _______ _______ _______ _____ _____    ______ ____

>  <TORSDO>
F 22

$$$$
=
 OpenBabel10232408493D

 64 69  0  0  1  0  0  0  0  0999 V2000
  185.5770  178.9020  143.2420 C   0  0  0  0  0  0  0  0  0  0  0  0
  184.6220  178.5440  142.3900 C   0  0  0  0  0  0  0  0  0  0  0  0
  184.5860  178.6130  145.4680 C   0  0  0  0  0  0  0  0  0  0  0  0
  183.3640  178.1620  145.1680 C   0  0  0  0  0  3  0  0  0  0  0  0
  183.1670  178.5940  142.6780 C   0  0  0  0  0  0  0  0  0  0  0  0
  185.1300  178.1450  141.0510 C   0  0  0  0  0  2  0  0  0  0  0  0
  182.6390  178.3890  143.9000 C   0  0  0  0  0  3  0  0  0  0  0  0
  186.5340  178.7130  140.9350 C   0  0  1  0  0  3  0  0  0  0  0  0
  185.2980  179.5520  144.5530 C   0  0  0  0  0  2  0  0  0  0  0  0
  187.2380  178.7970  142.6090 S   0  0  0  0  0  0  0  0  0  0  0  0
  186.6160  178.2770  147.0390 C   0  0  0  0  0  0  0  0  0  0  0  0
  185.2170  178.3020  146.7190 N   0  0  0  0  0  2  0  0  0  0  0  0
  186.9550  177.9140  148.1950 O   0  0  0  0  0  0  0  0  0  0  0  0
  187.6420  178.6860  146.0520 C   0  0  0  0  0  3  0  0  0  0  0  0
  188.9150  178.2770  145.9920 C   0  0  0  0  0  0  0  0  0  0  0  0
  189.9350  176.5610  147.6540 N   0  0  0  0  0  0  0  0  0  0  0  0
  189.4820  177.3270  146.9150 C   0  0  0  0  0  0  0  0  0  0  0  0
  189.7860  178.8110  144.9030 C   0  0  0  0  0  2  0  0  0  0  0  0
  189.4950  176.4920  143.9970 C   0  0  0  0  0  3  0  0  0  0  0  0
  190.9290  177.1650  141.6840 C   0  0  0  0  0  0  0  0  0  0  0  0
  190.4130  175.8690  141.8470 C   0  0  0  0  0  3  0  0  0  0  0  0
  189.6990  175.5350  143.0000 C   0  0  0  0  0  3  0  0  0  0  0  0
  190.0070  177.7860  143.8420 C   0  0  0  0  0  0  0  0  0  0  0  0
  190.7170  178.1190  142.6850 C   0  0  0  0  0  3  0  0  0  0  0  0
  191.6540  177.5270  140.5470 O   0  0  0  0  0  0  0  0  0  0  0  0
  191.2480  177.1730  139.2300 C   0  0  0  0  0  2  0  0  0  0  0  0
  191.9070  175.8690  138.8290 C   0  0  0  0  0  2  0  0  0  0  0  0
  191.3110  175.3640  137.5190 C   0  0  0  0  0  2  0  0  0  0  0  0
  192.0410  174.2210  136.9580 N   0  0  0  0  0  0  0  0  0  0  0  0
  191.6120  173.9470  135.5850 C   0  0  0  0  0  2  0  0  0  0  0  0
  190.2250  174.0490  135.4930 O   0  0  0  0  0  1  0  0  0  0  0  0
  193.4980  174.3890  137.1310 C   0  0  0  0  0  2  0  0  0  0  0  0
  195.3520  173.5780  134.9890 C   0  0  0  0  0  1  0  0  0  0  0  0
  194.1620  175.4870  136.2790 C   0  0  2  0  0  0  0  0  0  0  0  0
  193.7270  176.8640  134.3470 O   0  0  0  0  0  1  0  0  0  0  0  0
  193.7190  175.5480  134.8180 C   0  0  1  0  0  3  0  0  0  0  0  0
  195.1300  175.0700  135.1800 C   0  0  2  0  0  0  0  0  0  0  0  0
  194.4300  176.7220  136.8760 O   0  0  0  0  0  1  0  0  0  0  0  0
  196.3000  176.0130  134.9080 C   0  0  0  0  0  2  0  0  0  0  0  0
  197.0560  176.2390  136.1290 N   0  0  0  0  0  1  0  0  0  0  0  0
  187.5440  177.6430  139.8790 S   0  0  0  0  0  0  0  0  0  0  0  0
  187.0780  178.5150  138.4530 O   0  0  0  0  0  0  0  0  0  0  0  0
  187.0690  177.2720  136.4230 C   0  0  0  0  0  0  0  0  0  0  0  0
  187.6330  178.1760  137.2250 C   0  0  0  0  0  3  0  0  0  0  0  0
  184.0900  172.0960  136.9980 N   0  0  0  0  0  1  0  0  0  0  0  0
  186.6540  172.2620  136.3490 O   0  0  0  0  0  1  0  0  0  0  0  0
  185.7200  175.2140  137.0300 N   0  0  0  0  0  0  0  0  0  0  0  0
  185.7930  176.6270  136.7940 C   0  0  0  0  0  0  0  0  0  0  0  0
  186.3500  172.9860  137.5060 C   0  0  2  0  0  3  0  0  0  0  0  0
  184.4640  174.5010  137.1520 C   0  0  0  0  0  2  0  0  0  0  0  0
  184.7530  177.3320  136.9020 O   0  0  0  0  0  0  0  0  0  0  0  0
  184.8350  173.1340  137.6920 C   0  0  1  0  0  3  0  0  0  0  0  0
  186.8750  174.3990  137.3460 C   0  0  0  0  0  2  0  0  0  0  0  0
  188.9790  177.4710  134.8430 O   0  0  0  0  0  1  0  0  0  0  0  0
  187.2070  176.1130  134.3500 O   0  0  0  0  0  0  0  0  0  0  0  0
  187.7430  176.9180  135.1580 C   0  0  0  0  0  0  0  0  0  0  0  0
  182.2350  178.7800  141.5080 C   0  0  2  0  0  3  0  0  0  0  0  0
  182.5550  180.0330  140.6970 C   0  0  1  0  0  3  0  0  0  0  0  0
  180.7150  180.1650  138.8790 N   0  0  0  0  0  2  0  0  0  0  0  0
  183.2820  179.7020  139.5840 O   0  0  0  0  0  0  0  0  0  0  0  0
  181.8200  180.0240  139.5310 C   0  0  0  0  0  0  0  0  0  0  0  0
  180.7890  178.7170  141.9110 C   0  0  0  0  0  0  0  0  0  0  0  0
  180.1100  179.9460  142.4030 C   0  0  0  0  0  1  0  0  0  0  0  0
  180.1630  177.6730  141.8300 O   0  0  0  0  0  0  0  0  0  0  0  0
  1  9  1  0  0  0  0
  2  5  1  0  0  0  0
  2  1  2  0  0  0  0
  3 12  1  0  0  0  0
  4  3  2  0  0  0  0
  5  7  2  0  0  0  0
  6  2  1  0  0  0  0
  7  4  1  0  0  0  0
  8 41  1  6  0  0  0
  8  6  1  0  0  0  0
  8 10  1  0  0  0  0
  9  3  1  0  0  0  0
 10  1  1  0  0  0  0
 11 13  2  0  0  0  0
 12 11  1  0  0  0  0
 14 11  1  0  0  0  0
 15 14  2  0  0  0  0
 15 17  1  0  0  0  0
 17 16  3  0  0  0  0
 18 15  1  0  0  0  0
 20 21  2  0  0  0  0
 20 24  1  0  0  0  0
 21 22  1  0  0  0  0
 22 19  2  0  0  0  0
 23 19  1  0  0  0  0
 23 18  1  0  0  0  0
 24 23  2  0  0  0  0
 25 20  1  0  0  0  0
 26 25  1  0  0  0  0
 27 26  1  0  0  0  0
 28 27  1  0  0  0  0
 29 32  1  0  0  0  0
 29 28  1  0  0  0  0
 30 29  1  0  0  0  0
 31 30  1  0  0  0  0
 34 38  1  1  0  0  0
 34 32  1  0  0  0  0
 36 35  1  6  0  0  0
 36 37  1  0  0  0  0
 36 34  1  0  0  0  0
 37 33  1  6  0  0  0
 37 34  1  0  0  0  0
 39 37  1  0  0  0  0
 39 40  1  0  0  0  0
 42 41  1  0  0  0  0
 43 48  1  0  0  0  0
 43 44  2  0  0  0  0
 44 42  1  0  0  0  0
 47 50  1  0  0  0  0
 47 53  1  0  0  0  0
 48 51  2  0  0  0  0
 48 47  1  0  0  0  0
 49 46  1  6  0  0  0
 49 52  1  0  0  0  0
 50 52  1  0  0  0  0
 52 45  1  6  0  0  0
 53 49  1  0  0  0  0
 54 56  1  0  0  0  0
 55 56  2  0  0  0  0
 56 43  1  0  0  0  0
 57 62  1  1  0  0  0
 57  5  1  0  0  0  0
 58 57  1  1  0  0  0
 59 61  2  0  0  0  0
 60 58  1  0  0  0  0
 61 60  1  0  0  0  0
 61 58  1  0  0  0  0
 62 63  1  0  0  0  0
 64 62  2  0  0  0  0
M  END
>  <MODEL>
5

>  <REMARK>
 VINA RESULT:      -4.6      2.389      8.324
  Name = 
  22 active torsions:
  status: ('A' for Active; 'I' for Inactive)
    1  A    between atoms: C_3  and  C_10
    2  A    between atoms: C_4  and  N_17
    3  A    between atoms: N_5  and  C_6
    4  A    between atoms: N_5  and  C_54
    5  A    between atoms: N_5  and  C_61
    6  A    between atoms: C_8  and  C_38
    7  A    between atoms: C_9  and  C_38
    8  A    between atoms: C_12  and  C_19
    9  A    between atoms: C_12  and  C_61
   10  A    between atoms: C_13  and  O_39
   11  A    between atoms: C_19  and  O_39
   12  A    between atoms: C_20  and  C_53
   13  A    between atoms: C_21  and  C_38
   14  A    between atoms: C_25  and  C_54
   15  A    between atoms: C_30  and  C_33
   16  A    between atoms: C_30  and  C_58
   17  A    between atoms: C_32  and  C_42
   18  A    between atoms: C_37  and  O_46
   19  A    between atoms: C_42  and  C_56
   20  A    between atoms: O_46  and  S_63
   21  A    between atoms: C_50  and  C_56
   22  A    between atoms: C_51  and  S_63
                            x       y       z     vdW  Elec       q    Type
                         _______ _______ _______ _____ _____    ______ ____

>  <TORSDO>
F 22

$$$$
=
 OpenBabel10232408493D

 64 69  0  0  1  0  0  0  0  0999 V2000
  189.7220  172.8460  135.0820 C   0  0  0  0  0  0  0  0  0  0  0  0
  188.6870  173.6480  135.3080 C   0  0  0  0  0  0  0  0  0  0  0  0
  191.6090  173.9020  136.2410 C   0  0  0  0  0  0  0  0  0  0  0  0
  191.0320  174.9820  136.7780 C   0  0  0  0  0  3  0  0  0  0  0  0
  188.7860  175.0980  135.6100 C   0  0  0  0  0  0  0  0  0  0  0  0
  187.3660  172.9800  135.1580 C   0  0  0  0  0  2  0  0  0  0  0  0
  189.8100  175.6510  136.2860 C   0  0  0  0  0  3  0  0  0  0  0  0
  187.6090  171.7200  134.3470 C   0  0  1  0  0  3  0  0  0  0  0  0
  191.1210  173.3400  134.9480 C   0  0  0  0  0  2  0  0  0  0  0  0
  189.3060  171.1610  134.6840 S   0  0  0  0  0  0  0  0  0  0  0  0
  193.7080  173.8730  137.7560 C   0  0  0  0  0  0  0  0  0  0  0  0
  192.7770  173.3050  136.8230 N   0  0  0  0  0  2  0  0  0  0  0  0
  194.7070  173.1860  138.0920 O   0  0  0  0  0  0  0  0  0  0  0  0
  193.4990  175.2220  138.3310 C   0  0  0  0  0  3  0  0  0  0  0  0
  193.7470  176.3990  137.7440 C   0  0  0  0  0  0  0  0  0  0  0  0
  194.6770  176.6160  135.3280 N   0  0  0  0  0  0  0  0  0  0  0  0
  194.2620  176.5180  136.4030 C   0  0  0  0  0  0  0  0  0  0  0  0
  193.4550  177.6510  138.5020 C   0  0  0  0  0  2  0  0  0  0  0  0
  191.0430  177.2560  139.0610 C   0  0  0  0  0  3  0  0  0  0  0  0
  191.6400  177.1940  141.8000 C   0  0  0  0  0  0  0  0  0  0  0  0
  190.3190  177.0170  141.3580 C   0  0  0  0  0  3  0  0  0  0  0  0
  190.0230  177.0480  139.9930 C   0  0  0  0  0  3  0  0  0  0  0  0
  192.3630  177.4340  139.4950 C   0  0  0  0  0  0  0  0  0  0  0  0
  192.6570  177.3970  140.8620 C   0  0  0  0  0  3  0  0  0  0  0  0
  191.9660  177.1770  143.1570 O   0  0  0  0  0  0  0  0  0  0  0  0
  191.6910  178.2680  144.0290 C   0  0  0  0  0  2  0  0  0  0  0  0
  190.6010  177.8760  145.0040 C   0  0  0  0  0  2  0  0  0  0  0  0
  189.2700  178.4860  144.5730 C   0  0  0  0  0  2  0  0  0  0  0  0
  188.1800  177.5060  144.5130 N   0  0  0  0  0  0  0  0  0  0  0  0
  188.2870  176.5340  145.6030 C   0  0  0  0  0  2  0  0  0  0  0  0
  187.4450  176.9020  146.6510 O   0  0  0  0  0  1  0  0  0  0  0  0
  186.8700  178.1790  144.4080 C   0  0  0  0  0  2  0  0  0  0  0  0
  183.9980  178.7990  144.1840 C   0  0  0  0  0  1  0  0  0  0  0  0
  186.2300  178.2070  143.0070 C   0  0  2  0  0  0  0  0  0  0  0  0
  185.9260  179.6880  141.1280 O   0  0  0  0  0  1  0  0  0  0  0  0
  185.7790  179.5810  142.5140 C   0  0  1  0  0  3  0  0  0  0  0  0
  184.7440  178.5150  142.8900 C   0  0  2  0  0  0  0  0  0  0  0  0
  186.7450  177.3560  142.0250 O   0  0  0  0  0  1  0  0  0  0  0  0
  183.9890  177.8150  141.7620 C   0  0  0  0  0  2  0  0  0  0  0  0
  182.8210  178.5930  141.3820 N   0  0  0  0  0  1  0  0  0  0  0  0
  186.4180  170.4420  134.8250 S   0  0  0  0  0  0  0  0  0  0  0  0
  185.1550  171.6150  135.0260 O   0  0  0  0  0  0  0  0  0  0  0  0
  182.8400  171.6240  135.5800 C   0  0  0  0  0  0  0  0  0  0  0  0
  183.8360  171.2590  134.7720 C   0  0  0  0  0  3  0  0  0  0  0  0
  182.8080  177.1910  137.8160 N   0  0  0  0  0  1  0  0  0  0  0  0
  181.9370  176.5660  135.3930 O   0  0  0  0  0  1  0  0  0  0  0  0
  182.6180  173.8210  136.8240 N   0  0  0  0  0  0  0  0  0  0  0  0
  183.1010  172.4720  136.7610 C   0  0  0  0  0  0  0  0  0  0  0  0
  181.3580  175.7730  136.3880 C   0  0  2  0  0  3  0  0  0  0  0  0
  183.0490  174.7650  137.8360 C   0  0  0  0  0  2  0  0  0  0  0  0
  183.7610  172.0000  137.7260 O   0  0  0  0  0  0  0  0  0  0  0  0
  182.0890  175.9310  137.7270 C   0  0  1  0  0  3  0  0  0  0  0  0
  181.5300  174.3160  136.0060 C   0  0  0  0  0  2  0  0  0  0  0  0
  180.4400  172.0820  135.1190 O   0  0  0  0  0  0  0  0  0  0  0  0
  181.2190  169.9320  135.1700 O   0  0  0  0  0  1  0  0  0  0  0  0
  181.4700  171.1630  135.2810 C   0  0  0  0  0  0  0  0  0  0  0  0
  187.6180  175.9680  135.2220 C   0  0  2  0  0  3  0  0  0  0  0  0
  188.0420  177.3800  134.8310 C   0  0  1  0  0  3  0  0  0  0  0  0
  187.8560  178.7830  137.0000 N   0  0  0  0  0  2  0  0  0  0  0  0
  186.9390  178.1400  134.5410 O   0  0  0  0  0  0  0  0  0  0  0  0
  187.6890  178.2590  135.8330 C   0  0  0  0  0  0  0  0  0  0  0  0
  186.5340  175.9670  136.2620 C   0  0  0  0  0  0  0  0  0  0  0  0
  185.1150  176.1320  135.8440 C   0  0  0  0  0  1  0  0  0  0  0  0
  186.8010  175.8240  137.4450 O   0  0  0  0  0  0  0  0  0  0  0  0
  1  2  2  0  0  0  0
  2  5  1  0  0  0  0
  3  4  2  0  0  0  0
  3 12  1  0  0  0  0
  5  7  2  0  0  0  0
  6  2  1  0  0  0  0
  7  4  1  0  0  0  0
  8 10  1  0  0  0  0
  8 41  1  1  0  0  0
  8  6  1  0  0  0  0
  9  1  1  0  0  0  0
  9  3  1  0  0  0  0
 10  1  1  0  0  0  0
 11 13  2  0  0  0  0
 11 14  1  0  0  0  0
 12 11  1  0  0  0  0
 15 14  2  0  0  0  0
 15 18  1  0  0  0  0
 16 17  3  0  0  0  0
 17 15  1  0  0  0  0
 18 23  1  0  0  0  0
 19 23  2  0  0  0  0
 19 22  1  0  0  0  0
 20 25  1  0  0  0  0
 21 20  1  0  0  0  0
 22 21  2  0  0  0  0
 23 24  1  0  0  0  0
 24 20  2  0  0  0  0
 25 26  1  0  0  0  0
 26 27  1  0  0  0  0
 28 27  1  0  0  0  0
 29 28  1  0  0  0  0
 29 30  1  0  0  0  0
 30 31  1  0  0  0  0
 32 29  1  0  0  0  0
 34 38  1  6  0  0  0
 34 32  1  0  0  0  0
 36 35  1  6  0  0  0
 36 37  1  0  0  0  0
 36 34  1  0  0  0  0
 37 34  1  0  0  0  0
 37 33  1  1  0  0  0
 39 37  1  0  0  0  0
 40 39  1  0  0  0  0
 41 42  1  0  0  0  0
 43 48  1  0  0  0  0
 44 42  1  0  0  0  0
 44 43  2  0  0  0  0
 47 50  1  0  0  0  0
 48 47  1  0  0  0  0
 48 51  2  0  0  0  0
 49 46  1  6  0  0  0
 49 52  1  0  0  0  0
 52 45  1  6  0  0  0
 52 50  1  0  0  0  0
 53 49  1  0  0  0  0
 53 47  1  0  0  0  0
 54 56  2  0  0  0  0
 55 56  1  0  0  0  0
 56 43  1  0  0  0  0
 57  5  1  0  0  0  0
 57 62  1  1  0  0  0
 58 57  1  1  0  0  0
 58 61  1  0  0  0  0
 60 58  1  0  0  0  0
 60 61  1  0  0  0  0
 61 59  2  0  0  0  0
 62 64  2  0  0  0  0
 63 62  1  0  0  0  0
M  END
>  <MODEL>
6

>  <REMARK>
 VINA RESULT:      -4.4      2.772     10.740
  Name = 
  22 active torsions:
  status: ('A' for Active; 'I' for Inactive)
    1  A    between atoms: C_3  and  C_10
    2  A    between atoms: C_4  and  N_17
    3  A    between atoms: N_5  and  C_6
    4  A    between atoms: N_5  and  C_54
    5  A    between atoms: N_5  and  C_61
    6  A    between atoms: C_8  and  C_38
    7  A    between atoms: C_9  and  C_38
    8  A    between atoms: C_12  and  C_19
    9  A    between atoms: C_12  and  C_61
   10  A    between atoms: C_13  and  O_39
   11  A    between atoms: C_19  and  O_39
   12  A    between atoms: C_20  and  C_53
   13  A    between atoms: C_21  and  C_38
   14  A    between atoms: C_25  and  C_54
   15  A    between atoms: C_30  and  C_33
   16  A    between atoms: C_30  and  C_58
   17  A    between atoms: C_32  and  C_42
   18  A    between atoms: C_37  and  O_46
   19  A    between atoms: C_42  and  C_56
   20  A    between atoms: O_46  and  S_63
   21  A    between atoms: C_50  and  C_56
   22  A    between atoms: C_51  and  S_63
                            x       y       z     vdW  Elec       q    Type
                         _______ _______ _______ _____ _____    ______ ____

>  <TORSDO>
F 22

$$$$
=
 OpenBabel10232408493D

 64 69  0  0  1  0  0  0  0  0999 V2000
  184.6010  179.0350  141.6770 C   0  0  0  0  0  0  0  0  0  0  0  0
  183.5050  178.4640  141.1880 C   0  0  0  0  0  0  0  0  0  0  0  0
  184.2200  179.1720  144.0970 C   0  0  0  0  0  0  0  0  0  0  0  0
  183.0120  178.6130  144.2170 C   0  0  0  0  0  3  0  0  0  0  0  0
  182.1680  178.5060  141.8300 C   0  0  0  0  0  0  0  0  0  0  0  0
  183.7050  177.8180  139.8630 C   0  0  0  0  0  2  0  0  0  0  0  0
  181.9790  178.5370  143.1630 C   0  0  0  0  0  3  0  0  0  0  0  0
  184.9740  178.4130  139.2800 C   0  0  1  0  0  3  0  0  0  0  0  0
  184.5900  179.9310  142.8670 C   0  0  0  0  0  2  0  0  0  0  0  0
  186.0570  178.8770  140.6650 S   0  0  0  0  0  0  0  0  0  0  0  0
  186.3540  178.3650  145.3200 C   0  0  0  0  0  0  0  0  0  0  0  0
  185.1670  179.1580  145.1760 N   0  0  0  0  0  2  0  0  0  0  0  0
  187.0130  178.4700  146.3870 O   0  0  0  0  0  0  0  0  0  0  0  0
  186.8140  177.4600  144.2420 C   0  0  0  0  0  3  0  0  0  0  0  0
  188.0570  177.0020  144.0460 C   0  0  0  0  0  0  0  0  0  0  0  0
  190.0510  177.6010  145.5990 N   0  0  0  0  0  0  0  0  0  0  0  0
  189.1640  177.3320  144.9080 C   0  0  0  0  0  0  0  0  0  0  0  0
  188.3070  176.0860  142.8940 C   0  0  0  0  0  2  0  0  0  0  0  0
  188.3950  177.4580  140.7980 C   0  0  0  0  0  3  0  0  0  0  0  0
  191.1980  177.3990  140.8210 C   0  0  0  0  0  0  0  0  0  0  0  0
  190.5110  178.0800  139.8030 C   0  0  0  0  0  3  0  0  0  0  0  0
  189.1150  178.1080  139.7920 C   0  0  0  0  0  3  0  0  0  0  0  0
  189.0730  176.7770  141.8160 C   0  0  0  0  0  0  0  0  0  0  0  0
  190.4710  176.7540  141.8270 C   0  0  0  0  0  3  0  0  0  0  0  0
  192.5920  177.3450  140.8540 O   0  0  0  0  0  0  0  0  0  0  0  0
  193.3850  177.1880  139.6820 C   0  0  0  0  0  2  0  0  0  0  0  0
  192.7130  176.2060  138.7440 C   0  0  0  0  0  2  0  0  0  0  0  0
  193.3520  176.2850  137.3600 C   0  0  0  0  0  2  0  0  0  0  0  0
  193.2700  175.0230  136.6160 N   0  0  0  0  0  0  0  0  0  0  0  0
  193.2490  173.8770  137.5270 C   0  0  0  0  0  2  0  0  0  0  0  0
  194.0850  172.8720  137.0420 O   0  0  0  0  0  1  0  0  0  0  0  0
  192.1650  175.0590  135.6370 C   0  0  0  0  0  2  0  0  0  0  0  0
  189.9160  173.1960  135.2450 C   0  0  0  0  0  1  0  0  0  0  0  0
  190.7810  175.4510  136.1880 C   0  0  2  0  0  0  0  0  0  0  0  0
  189.5010  175.3790  138.2310 O   0  0  0  0  0  1  0  0  0  0  0  0
  190.2710  174.6080  137.3560 C   0  0  1  0  0  3  0  0  0  0  0  0
  189.6150  174.4950  135.9760 C   0  0  2  0  0  0  0  0  0  0  0  0
  190.4440  176.8060  136.2350 O   0  0  0  0  0  1  0  0  0  0  0  0
  188.2400  175.1300  135.7790 C   0  0  0  0  0  2  0  0  0  0  0  0
  187.9260  175.2180  134.3630 N   0  0  0  0  0  1  0  0  0  0  0  0
  185.7930  177.1930  138.2200 S   0  0  0  0  0  0  0  0  0  0  0  0
  185.2360  177.9870  136.7810 O   0  0  0  0  0  0  0  0  0  0  0  0
  183.0080  177.3860  136.1990 C   0  0  0  0  0  0  0  0  0  0  0  0
  183.8870  178.2870  136.6380 C   0  0  0  0  0  3  0  0  0  0  0  0
  181.8980  171.5420  136.9770 N   0  0  0  0  0  1  0  0  0  0  0  0
  180.3320  173.4780  137.8840 O   0  0  0  0  0  1  0  0  0  0  0  0
  182.5640  174.8920  136.1320 N   0  0  0  0  0  0  0  0  0  0  0  0
  183.4340  176.0060  135.8900 C   0  0  0  0  0  0  0  0  0  0  0  0
  180.6130  173.6140  136.5210 C   0  0  2  0  0  3  0  0  0  0  0  0
  183.0150  173.5150  136.0820 C   0  0  0  0  0  2  0  0  0  0  0  0
  184.5820  175.8080  135.4080 O   0  0  0  0  0  0  0  0  0  0  0  0
  181.7500  172.6820  136.0870 C   0  0  1  0  0  3  0  0  0  0  0  0
  181.1280  175.0180  136.2720 C   0  0  0  0  0  2  0  0  0  0  0  0
  180.8910  178.3580  137.0690 O   0  0  0  0  0  1  0  0  0  0  0  0
  181.0240  177.6240  134.9070 O   0  0  0  0  0  0  0  0  0  0  0  0
  181.5990  177.7900  136.0170 C   0  0  0  0  0  0  0  0  0  0  0  0
  180.9630  178.4010  140.9300 C   0  0  2  0  0  3  0  0  0  0  0  0
  179.9820  179.5540  141.1240 C   0  0  1  0  0  3  0  0  0  0  0  0
  180.6970  181.3640  139.4170 N   0  0  0  0  0  2  0  0  0  0  0  0
  180.5180  180.4920  141.9670 O   0  0  0  0  0  0  0  0  0  0  0  0
  180.4600  180.6760  140.4820 C   0  0  0  0  0  0  0  0  0  0  0  0
  180.2910  177.0610  141.0250 C   0  0  0  0  0  0  0  0  0  0  0  0
  179.9830  176.3030  139.7820 C   0  0  0  0  0  1  0  0  0  0  0  0
  180.0030  176.5820  142.1100 O   0  0  0  0  0  0  0  0  0  0  0  0
  1  9  1  0  0  0  0
  2  1  2  0  0  0  0
  2  5  1  0  0  0  0
  3  4  2  0  0  0  0
  3 12  1  0  0  0  0
  5  7  2  0  0  0  0
  6  2  1  0  0  0  0
  7  4  1  0  0  0  0
  8 41  1  6  0  0  0
  8  6  1  0  0  0  0
  8 10  1  0  0  0  0
  9  3  1  0  0  0  0
 10  1  1  0  0  0  0
 11 13  2  0  0  0  0
 12 11  1  0  0  0  0
 14 11  1  0  0  0  0
 15 14  2  0  0  0  0
 15 17  1  0  0  0  0
 17 16  3  0  0  0  0
 18 15  1  0  0  0  0
 19 23  1  0  0  0  0
 20 25  1  0  0  0  0
 20 24  1  0  0  0  0
 21 20  2  0  0  0  0
 22 21  1  0  0  0  0
 22 19  2  0  0  0  0
 23 24  2  0  0  0  0
 23 18  1  0  0  0  0
 26 25  1  0  0  0  0
 27 26  1  0  0  0  0
 28 27  1  0  0  0  0
 29 28  1  0  0  0  0
 29 30  1  0  0  0  0
 31 30  1  0  0  0  0
 32 34  1  0  0  0  0
 32 29  1  0  0  0  0
 34 38  1  1  0  0  0
 34 36  1  0  0  0  0
 36 35  1  1  0  0  0
 37 33  1  6  0  0  0
 37 34  1  0  0  0  0
 37 36  1  0  0  0  0
 39 37  1  0  0  0  0
 40 39  1  0  0  0  0
 42 41  1  0  0  0  0
 43 44  2  0  0  0  0
 44 42  1  0  0  0  0
 47 53  1  0  0  0  0
 48 47  1  0  0  0  0
 48 43  1  0  0  0  0
 49 46  1  1  0  0  0
 50 52  1  0  0  0  0
 50 47  1  0  0  0  0
 51 48  2  0  0  0  0
 52 49  1  0  0  0  0
 52 45  1  1  0  0  0
 53 49  1  0  0  0  0
 55 56  2  0  0  0  0
 56 43  1  0  0  0  0
 56 54  1  0  0  0  0
 57 62  1  1  0  0  0
 57  5  1  0  0  0  0
 58 57  1  6  0  0  0
 58 60  1  0  0  0  0
 59 61  2  0  0  0  0
 61 58  1  0  0  0  0
 61 60  1  0  0  0  0
 62 64  2  0  0  0  0
 63 62  1  0  0  0  0
M  END
>  <MODEL>
7

>  <REMARK>
 VINA RESULT:      -4.2      2.420      8.906
  Name = 
  22 active torsions:
  status: ('A' for Active; 'I' for Inactive)
    1  A    between atoms: C_3  and  C_10
    2  A    between atoms: C_4  and  N_17
    3  A    between atoms: N_5  and  C_6
    4  A    between atoms: N_5  and  C_54
    5  A    between atoms: N_5  and  C_61
    6  A    between atoms: C_8  and  C_38
    7  A    between atoms: C_9  and  C_38
    8  A    between atoms: C_12  and  C_19
    9  A    between atoms: C_12  and  C_61
   10  A    between atoms: C_13  and  O_39
   11  A    between atoms: C_19  and  O_39
   12  A    between atoms: C_20  and  C_53
   13  A    between atoms: C_21  and  C_38
   14  A    between atoms: C_25  and  C_54
   15  A    between atoms: C_30  and  C_33
   16  A    between atoms: C_30  and  C_58
   17  A    between atoms: C_32  and  C_42
   18  A    between atoms: C_37  and  O_46
   19  A    between atoms: C_42  and  C_56
   20  A    between atoms: O_46  and  S_63
   21  A    between atoms: C_50  and  C_56
   22  A    between atoms: C_51  and  S_63
                            x       y       z     vdW  Elec       q    Type
                         _______ _______ _______ _____ _____    ______ ____

>  <TORSDO>
F 22

$$$$
=
 OpenBabel10232408493D

 64 69  0  0  1  0  0  0  0  0999 V2000
  188.4310  178.6780  143.0480 C   0  0  0  0  0  0  0  0  0  0  0  0
  187.6870  178.0340  143.9410 C   0  0  0  0  0  0  0  0  0  0  0  0
  190.7450  178.0640  143.5870 C   0  0  0  0  0  0  0  0  0  0  0  0
  190.5750  177.2400  144.6260 C   0  0  0  0  0  3  0  0  0  0  0  0
  188.1540  177.6020  145.2820 C   0  0  0  0  0  0  0  0  0  0  0  0
  186.2760  177.8340  143.5140 C   0  0  0  0  0  2  0  0  0  0  0  0
  189.4190  177.2260  145.5470 C   0  0  0  0  0  3  0  0  0  0  0  0
  186.0170  178.8310  142.3990 C   0  0  1  0  0  3  0  0  0  0  0  0
  189.7980  179.1910  143.3460 C   0  0  0  0  0  2  0  0  0  0  0  0
  187.5940  179.1280  141.5430 S   0  0  0  0  0  0  0  0  0  0  0  0
  191.9370  177.7280  141.3140 C   0  0  0  0  0  0  0  0  0  0  0  0
  191.8910  177.9670  142.7280 N   0  0  0  0  0  2  0  0  0  0  0  0
  193.0650  177.6200  140.7660 O   0  0  0  0  0  0  0  0  0  0  0  0
  190.7000  177.6320  140.5060 C   0  0  0  0  0  3  0  0  0  0  0  0
  189.6870  176.7740  140.6760 C   0  0  0  0  0  0  0  0  0  0  0  0
  189.6260  175.0030  142.5760 N   0  0  0  0  0  0  0  0  0  0  0  0
  189.6550  175.7910  141.7290 C   0  0  0  0  0  0  0  0  0  0  0  0
  188.5200  176.8530  139.7480 C   0  0  0  0  0  2  0  0  0  0  0  0
  188.7460  178.0650  137.5650 C   0  0  0  0  0  3  0  0  0  0  0  0
  190.0500  175.8600  136.4240 C   0  0  0  0  0  0  0  0  0  0  0  0
  189.8220  177.0200  135.6650 C   0  0  0  0  0  3  0  0  0  0  0  0
  189.1720  178.1180  136.2350 C   0  0  0  0  0  3  0  0  0  0  0  0
  188.9690  176.9110  138.3270 C   0  0  0  0  0  0  0  0  0  0  0  0
  189.6240  175.8150  137.7550 C   0  0  0  0  0  3  0  0  0  0  0  0
  190.6880  174.7440  135.8790 O   0  0  0  0  0  0  0  0  0  0  0  0
  191.1310  174.6930  134.5290 C   0  0  0  0  0  2  0  0  0  0  0  0
  192.6150  174.9940  134.4700 C   0  0  0  0  0  2  0  0  0  0  0  0
  193.2880  174.5590  135.7690 C   0  0  0  0  0  2  0  0  0  0  0  0
  194.5730  175.2280  136.0020 N   0  0  0  0  0  0  0  0  0  0  0  0
  194.3780  176.6470  136.3060 C   0  0  0  0  0  2  0  0  0  0  0  0
  195.3190  177.4110  135.6180 O   0  0  0  0  0  1  0  0  0  0  0  0
  195.3820  174.4860  136.9900 C   0  0  0  0  0  2  0  0  0  0  0  0
  196.9000  172.2240  135.8660 C   0  0  0  0  0  1  0  0  0  0  0  0
  196.9100  174.6210  136.8560 C   0  0  2  0  0  0  0  0  0  0  0  0
  198.5770  175.5080  135.3550 O   0  0  0  0  0  1  0  0  0  0  0  0
  197.4450  174.6910  135.4260 C   0  0  1  0  0  3  0  0  0  0  0  0
  197.6980  173.4490  136.2870 C   0  0  2  0  0  0  0  0  0  0  0  0
  197.5930  175.4040  137.7900 O   0  0  0  0  0  1  0  0  0  0  0  0
  199.1030  173.2360  136.8460 C   0  0  0  0  0  2  0  0  0  0  0  0
  200.0270  172.9110  135.7720 N   0  0  0  0  0  1  0  0  0  0  0  0
  184.7920  178.1580  141.2460 S   0  0  0  0  0  0  0  0  0  0  0  0
  183.5620  178.1530  142.4700 O   0  0  0  0  0  0  0  0  0  0  0  0
  181.4630  179.0060  141.7380 C   0  0  0  0  0  0  0  0  0  0  0  0
  182.5760  179.1340  142.4610 C   0  0  0  0  0  3  0  0  0  0  0  0
  180.9680  176.6380  136.2470 N   0  0  0  0  0  1  0  0  0  0  0  0
  181.6590  179.1520  136.7160 O   0  0  0  0  0  1  0  0  0  0  0  0
  181.5120  177.7330  139.5470 N   0  0  0  0  0  0  0  0  0  0  0  0
  181.2130  177.7820  140.9480 C   0  0  0  0  0  0  0  0  0  0  0  0
  182.4420  178.2430  137.4330 C   0  0  2  0  0  3  0  0  0  0  0  0
  181.0640  176.6580  138.6840 C   0  0  0  0  0  2  0  0  0  0  0  0
  180.7280  176.7680  141.5190 O   0  0  0  0  0  0  0  0  0  0  0  0
  181.8390  176.8330  137.3940 C   0  0  1  0  0  3  0  0  0  0  0  0
  182.4310  178.6440  138.8950 C   0  0  0  0  0  2  0  0  0  0  0  0
  180.0320  180.6390  140.5260 O   0  0  0  0  0  0  0  0  0  0  0  0
  180.0490  180.5890  142.8130 O   0  0  0  0  0  1  0  0  0  0  0  0
  180.4840  180.1110  141.7300 C   0  0  0  0  0  0  0  0  0  0  0  0
  187.1190  177.4820  146.3700 C   0  0  2  0  0  3  0  0  0  0  0  0
  185.9090  178.3810  146.1320 C   0  0  1  0  0  3  0  0  0  0  0  0
  186.0680  180.2420  147.9260 N   0  0  0  0  0  2  0  0  0  0  0  0
  184.8800  178.0160  146.9590 O   0  0  0  0  0  0  0  0  0  0  0  0
  185.7380  179.2170  147.2150 C   0  0  0  0  0  0  0  0  0  0  0  0
  187.7040  177.6690  147.7410 C   0  0  0  0  0  0  0  0  0  0  0  0
  188.8920  178.5480  147.9190 C   0  0  0  0  0  1  0  0  0  0  0  0
  187.2120  177.1170  148.7120 O   0  0  0  0  0  0  0  0  0  0  0  0
  1  9  1  0  0  0  0
  1  2  2  0  0  0  0
  2  5  1  0  0  0  0
  3  4  2  0  0  0  0
  4  7  1  0  0  0  0
  5  7  2  0  0  0  0
  5 57  1  0  0  0  0
  6  2  1  0  0  0  0
  8 41  1  6  0  0  0
  8  6  1  0  0  0  0
  9  3  1  0  0  0  0
 10  8  1  0  0  0  0
 10  1  1  0  0  0  0
 11 12  1  0  0  0  0
 12  3  1  0  0  0  0
 13 11  2  0  0  0  0
 14 15  2  0  0  0  0
 14 11  1  0  0  0  0
 15 17  1  0  0  0  0
 17 16  3  0  0  0  0
 18 15  1  0  0  0  0
 19 23  1  0  0  0  0
 20 24  1  0  0  0  0
 21 22  1  0  0  0  0
 21 20  2  0  0  0  0
 22 19  2  0  0  0  0
 23 18  1  0  0  0  0
 24 23  2  0  0  0  0
 25 20  1  0  0  0  0
 26 25  1  0  0  0  0
 27 26  1  0  0  0  0
 27 28  1  0  0  0  0
 28 29  1  0  0  0  0
 29 30  1  0  0  0  0
 29 32  1  0  0  0  0
 31 30  1  0  0  0  0
 34 32  1  0  0  0  0
 34 38  1  1  0  0  0
 36 35  1  1  0  0  0
 36 37  1  0  0  0  0
 36 34  1  0  0  0  0
 37 33  1  6  0  0  0
 37 39  1  0  0  0  0
 37 34  1  0  0  0  0
 40 39  1  0  0  0  0
 41 42  1  0  0  0  0
 43 44  2  0  0  0  0
 44 42  1  0  0  0  0
 47 48  1  0  0  0  0
 48 51  2  0  0  0  0
 48 43  1  0  0  0  0
 49 46  1  6  0  0  0
 49 53  1  0  0  0  0
 50 47  1  0  0  0  0
 52 45  1  6  0  0  0
 52 49  1  0  0  0  0
 52 50  1  0  0  0  0
 53 47  1  0  0  0  0
 54 56  2  0  0  0  0
 56 43  1  0  0  0  0
 56 55  1  0  0  0  0
 57 62  1  1  0  0  0
 58 57  1  1  0  0  0
 58 60  1  0  0  0  0
 58 61  1  0  0  0  0
 60 61  1  0  0  0  0
 61 59  2  0  0  0  0
 62 63  1  0  0  0  0
 62 64  2  0  0  0  0
M  END
>  <MODEL>
8

>  <REMARK>
 VINA RESULT:      -4.0      3.463      9.194
  Name = 
  22 active torsions:
  status: ('A' for Active; 'I' for Inactive)
    1  A    between atoms: C_3  and  C_10
    2  A    between atoms: C_4  and  N_17
    3  A    between atoms: N_5  and  C_6
    4  A    between atoms: N_5  and  C_54
    5  A    between atoms: N_5  and  C_61
    6  A    between atoms: C_8  and  C_38
    7  A    between atoms: C_9  and  C_38
    8  A    between atoms: C_12  and  C_19
    9  A    between atoms: C_12  and  C_61
   10  A    between atoms: C_13  and  O_39
   11  A    between atoms: C_19  and  O_39
   12  A    between atoms: C_20  and  C_53
   13  A    between atoms: C_21  and  C_38
   14  A    between atoms: C_25  and  C_54
   15  A    between atoms: C_30  and  C_33
   16  A    between atoms: C_30  and  C_58
   17  A    between atoms: C_32  and  C_42
   18  A    between atoms: C_37  and  O_46
   19  A    between atoms: C_42  and  C_56
   20  A    between atoms: O_46  and  S_63
   21  A    between atoms: C_50  and  C_56
   22  A    between atoms: C_51  and  S_63
                            x       y       z     vdW  Elec       q    Type
                         _______ _______ _______ _____ _____    ______ ____

>  <TORSDO>
F 22

$$$$
