=
 OpenBabel10232408473D

 55 61  0  0  1  0  0  0  0  0999 V2000
  181.8770  179.1970  140.2230 C   0  0  0  0  0  3  0  0  0  0  0  0
  182.9850  178.4620  140.3290 C   0  0  0  0  0  0  0  0  0  0  0  0
  184.7500  178.1900  138.4830 C   0  0  0  0  0  0  0  0  0  0  0  0
  185.4870  179.1210  138.9070 O   0  0  0  0  0  0  0  0  0  0  0  0
  183.5430  177.8290  139.1660 N   0  0  0  0  0  2  0  0  0  0  0  0
  183.8760  176.9730  136.5130 C   0  0  0  0  0  1  0  0  0  0  0  0
  185.1230  177.4440  137.2460 C   0  0  2  0  0  3  0  0  0  0  0  0
  186.0250  176.2670  137.5920 C   0  0  0  0  0  2  0  0  0  0  0  0
  189.4010  177.1950  136.9270 C   0  0  0  0  0  0  0  0  0  0  0  0
  191.3070  176.2150  136.3900 C   0  0  0  0  0  0  0  0  0  0  0  0
  190.6550  177.1550  137.3360 C   0  0  0  0  0  2  0  0  0  0  0  0
  188.2230  177.3400  137.6980 N   0  0  0  0  0  0  0  0  0  0  0  0
  187.4160  176.5020  137.1080 C   0  0  0  0  0  0  0  0  0  0  0  0
  190.4300  175.6160  135.5720 C   0  0  0  0  0  3  0  0  0  0  0  0
  188.0100  175.7190  136.0500 N   0  0  0  0  0  2  0  0  0  0  0  0
  189.1760  176.2480  135.9260 C   0  0  0  0  0  0  0  0  0  0  0  0
  192.7660  175.9170  136.3900 C   0  0  0  0  0  2  0  0  0  0  0  0
  194.7290  173.3500  138.1740 C   0  0  0  0  0  2  0  0  0  0  0  0
  193.3030  173.6960  135.7790 C   0  0  2  0  0  3  0  0  0  0  0  0
  193.0010  174.5840  136.9210 N   0  0  0  0  0  0  0  0  0  0  0  0
  192.4400  172.4470  135.8480 C   0  0  0  0  0  1  0  0  0  0  0  0
  194.7910  173.3340  135.6150 C   0  0  0  0  0  2  0  0  0  0  0  0
  194.0880  174.7030  137.9010 C   0  0  0  0  0  2  0  0  0  0  0  0
  195.4560  172.8730  136.9190 C   0  0  2  0  0  3  0  0  0  0  0  0
  195.6690  171.3940  136.9410 C   0  0  0  0  0  0  0  0  0  0  0  0
  195.0290  170.6240  137.9030 O   0  0  0  0  0  1  0  0  0  0  0  0
  196.4300  170.8410  136.1040 O   0  0  0  0  0  0  0  0  0  0  0  0
  183.6000  178.3460  141.6250 C   0  0  0  0  0  0  0  0  0  0  0  0
  184.1240  178.2540  142.7060 C   0  0  0  0  0  0  0  0  0  0  0  0
  186.9810  178.7050  147.5830 C   0  0  0  0  0  2  0  0  0  0  0  0
  184.1040  178.5150  145.0900 C   0  0  0  0  0  3  0  0  0  0  0  0
  188.2200  176.3850  145.2520 F   0  0  0  0  0  0  0  0  0  0  0  0
  188.1470  177.8720  147.1280 C   0  0  0  0  0  0  0  0  0  0  0  0
  186.1660  177.6370  144.0920 C   0  0  0  0  0  2  0  0  0  0  0  0
  184.7580  178.1470  143.9890 C   0  0  0  0  0  0  0  0  0  0  0  0
  188.3670  176.6210  147.9540 C   0  0  0  0  0  2  0  0  0  0  0  0
  186.1970  179.0050  146.3140 C   0  0  2  0  0  3  0  0  0  0  0  0
  189.3690  177.7650  148.0170 C   0  0  0  0  0  2  0  0  0  0  0  0
  184.7870  178.4190  146.4190 C   0  0  0  0  0  2  0  0  0  0  0  0
  186.9980  178.4650  145.0950 C   0  0  1  0  0  3  0  0  0  0  0  0
  188.2440  177.7260  145.6130 C   0  0  2  0  0  0  0  0  0  0  0  0
  189.5190  178.3600  145.0380 C   0  0  0  0  0  2  0  0  0  0  0  0
  190.5220  177.3530  144.5650 C   0  0  0  0  0  3  0  0  0  0  0  0
  190.5840  177.0300  143.2780 C   0  0  0  0  0  2  0  0  0  0  0  0
  181.1770  179.4300  138.9210 C   0  0  0  0  0  2  0  0  0  0  0  0
  180.7670  182.4290  136.6260 C   0  0  0  0  0  0  0  0  0  0  0  0
  180.4400  182.8730  135.0460 S   0  0  0  0  0  0  0  0  0  0  0  0
  180.2230  184.5880  136.8140 C   0  0  0  0  0  0  0  0  0  0  0  0
  180.0770  184.4740  135.4320 C   0  0  0  0  0  3  0  0  0  0  0  0
  183.0960  182.5390  138.3560 O   0  0  0  0  0  1  0  0  0  0  0  0
  179.9820  185.8660  137.5330 C   0  0  0  0  0  1  0  0  0  0  0  0
  182.5390  181.4100  138.9090 N   0  0  0  0  0  0  0  0  0  0  0  0
  181.0910  181.0980  137.0330 N   0  0  0  0  0  2  0  0  0  0  0  0
  180.5960  183.4600  137.4770 N   0  0  0  0  0  0  0  0  0  0  0  0
  181.6060  180.7260  138.3180 C   0  0  0  0  0  0  0  0  0  0  0  0
  1  2  2  0  0  0  0
  2 28  1  0  0  0  0
  3  4  2  0  0  0  0
  3  5  1  0  0  0  0
  5  2  1  0  0  0  0
  7  6  1  1  0  0  0
  7  8  1  0  0  0  0
  7  3  1  0  0  0  0
  9 11  1  0  0  0  0
  9 12  1  0  0  0  0
 10 17  1  0  0  0  0
 10 11  1  0  0  0  0
 13  8  1  0  0  0  0
 13 12  2  0  0  0  0
 14 16  1  0  0  0  0
 14 10  2  0  0  0  0
 15 13  1  0  0  0  0
 16 15  1  0  0  0  0
 16  9  2  0  0  0  0
 17 20  1  0  0  0  0
 19 21  1  1  0  0  0
 19 20  1  0  0  0  0
 20 23  1  0  0  0  0
 22 19  1  0  0  0  0
 22 24  1  0  0  0  0
 23 18  1  0  0  0  0
 24 25  1  6  0  0  0
 24 18  1  0  0  0  0
 25 26  1  0  0  0  0
 27 25  2  0  0  0  0
 28 29  3  0  0  0  0
 29 35  1  0  0  0  0
 31 39  1  0  0  0  0
 33 30  1  0  0  0  0
 33 36  1  0  0  0  0
 33 38  1  0  0  0  0
 35 34  1  0  0  0  0
 35 31  2  0  0  0  0
 36 38  1  0  0  0  0
 37 39  1  1  0  0  0
 37 30  1  0  0  0  0
 40 34  1  1  0  0  0
 40 41  1  0  0  0  0
 40 37  1  0  0  0  0
 41 32  1  6  0  0  0
 41 33  1  0  0  0  0
 42 41  1  0  0  0  0
 43 42  1  0  0  0  0
 44 43  2  0  0  0  0
 45  1  1  0  0  0  0
 46 53  1  0  0  0  0
 46 54  2  0  0  0  0
 47 49  1  0  0  0  0
 47 46  1  0  0  0  0
 48 54  1  0  0  0  0
 48 51  1  0  0  0  0
 49 48  2  0  0  0  0
 50 52  1  0  0  0  0
 53 55  1  0  0  0  0
 55 52  2  0  0  0  0
 55 45  1  0  0  0  0
M  END
>  <MODEL>
1

>  <REMARK>
 VINA RESULT:      -9.1      0.000      0.000
  Name = 
  13 active torsions:
  status: ('A' for Active; 'I' for Inactive)
    1  A    between atoms: C_5  and  C_28
    2  A    between atoms: C_11  and  C_55
    3  A    between atoms: C_12  and  C_33
    4  A    between atoms: C_13  and  C_54
    5  A    between atoms: C_14  and  C_16
    6  A    between atoms: C_14  and  N_17
    7  A    between atoms: C_18  and  C_37
    8  A    between atoms: C_18  and  N_39
    9  A    between atoms: C_24  and  C_47
   10  A    between atoms: C_28  and  C_53
   11  A    between atoms: C_31  and  C_40
   12  A    between atoms: C_33  and  C_43
   13  A    between atoms: C_47  and  C_54
                            x       y       z     vdW  Elec       q    Type
                         _______ _______ _______ _____ _____    ______ ____

>  <TORSDO>
F 13

$$$$
=
 OpenBabel10232408473D

 55 61  0  0  1  0  0  0  0  0999 V2000
  181.9750  178.2990  139.7880 C   0  0  0  0  0  3  0  0  0  0  0  0
  183.2920  178.1440  139.9330 C   0  0  0  0  0  0  0  0  0  0  0  0
  185.5200  178.3410  138.6720 C   0  0  0  0  0  0  0  0  0  0  0  0
  186.1650  178.7730  139.6660 O   0  0  0  0  0  0  0  0  0  0  0  0
  184.1320  178.0020  138.7760 N   0  0  0  0  0  2  0  0  0  0  0  0
  185.8250  176.8480  136.7210 C   0  0  0  0  0  1  0  0  0  0  0  0
  186.2000  178.1800  137.3530 C   0  0  2  0  0  3  0  0  0  0  0  0
  187.7090  178.2950  137.5200 C   0  0  0  0  0  2  0  0  0  0  0  0
  189.4990  175.7690  135.7540 C   0  0  0  0  0  0  0  0  0  0  0  0
  191.0470  174.2480  136.1680 C   0  0  0  0  0  0  0  0  0  0  0  0
  190.6640  175.3730  135.2790 C   0  0  0  0  0  3  0  0  0  0  0  0
  188.9610  177.0760  135.8040 N   0  0  0  0  0  0  0  0  0  0  0  0
  188.3970  177.0870  136.9810 C   0  0  0  0  0  0  0  0  0  0  0  0
  190.2140  174.1070  137.2090 C   0  0  0  0  0  3  0  0  0  0  0  0
  188.6140  175.9000  137.7750 N   0  0  0  0  0  2  0  0  0  0  0  0
  189.2010  175.1080  136.9480 C   0  0  1  0  0  3  0  0  0  0  0  0
  192.2600  173.4060  135.9670 C   0  0  0  0  0  2  0  0  0  0  0  0
  195.8210  174.0310  135.2200 C   0  0  0  0  0  2  0  0  0  0  0  0
  193.7880  174.9260  136.9400 C   0  0  2  0  0  3  0  0  0  0  0  0
  193.4080  174.2510  135.6810 N   0  0  0  0  0  0  0  0  0  0  0  0
  193.9360  176.4210  136.7060 C   0  0  0  0  0  1  0  0  0  0  0  0
  195.0340  174.3470  137.6360 C   0  0  0  0  0  2  0  0  0  0  0  0
  194.4490  173.3780  135.1240 C   0  0  0  0  0  2  0  0  0  0  0  0
  196.2240  174.1420  136.6890 C   0  0  2  0  0  3  0  0  0  0  0  0
  197.2780  175.1830  136.8870 C   0  0  0  0  0  0  0  0  0  0  0  0
  197.4380  176.1840  135.9390 O   0  0  0  0  0  0  0  0  0  0  0  0
  198.0280  175.1560  137.8990 O   0  0  0  0  0  1  0  0  0  0  0  0
  183.8320  178.1460  141.2660 C   0  0  0  0  0  0  0  0  0  0  0  0
  184.2780  178.1400  142.3860 C   0  0  0  0  0  0  0  0  0  0  0  0
  186.7300  178.9400  147.4350 C   0  0  0  0  0  2  0  0  0  0  0  0
  184.0660  178.5970  144.7310 C   0  0  0  0  0  3  0  0  0  0  0  0
  188.1000  176.4140  145.4130 F   0  0  0  0  0  0  0  0  0  0  0  0
  187.9090  178.0520  147.1500 C   0  0  0  0  0  0  0  0  0  0  0  0
  186.1810  177.6020  143.9860 C   0  0  0  0  0  2  0  0  0  0  0  0
  184.8000  178.1270  143.7230 C   0  0  0  0  0  0  0  0  0  0  0  0
  188.0280  176.8690  148.0910 C   0  0  0  0  0  2  0  0  0  0  0  0
  186.0620  179.1480  146.0850 C   0  0  2  0  0  3  0  0  0  0  0  0
  189.0490  177.9970  148.1460 C   0  0  0  0  0  2  0  0  0  0  0  0
  184.6330  178.5990  146.1160 C   0  0  0  0  0  2  0  0  0  0  0  0
  186.9480  178.4950  144.9850 C   0  0  1  0  0  3  0  0  0  0  0  0
  188.1270  177.7790  145.6650 C   0  0  2  0  0  0  0  0  0  0  0  0
  189.4610  178.3400  145.1510 C   0  0  0  0  0  2  0  0  0  0  0  0
  190.0800  177.5060  144.0720 C   0  0  0  0  0  3  0  0  0  0  0  0
  189.8240  177.7740  142.7960 C   0  0  0  0  0  2  0  0  0  0  0  0
  181.3060  178.3610  138.4510 C   0  0  0  0  0  2  0  0  0  0  0  0
  182.1740  175.4640  136.1510 C   0  0  0  0  0  0  0  0  0  0  0  0
  182.4690  175.0640  134.5530 S   0  0  0  0  0  0  0  0  0  0  0  0
  183.1790  173.4760  136.3110 C   0  0  0  0  0  0  0  0  0  0  0  0
  183.1930  173.5860  134.9200 C   0  0  0  0  0  3  0  0  0  0  0  0
  180.0600  174.9020  138.0590 O   0  0  0  0  0  1  0  0  0  0  0  0
  183.7420  172.2950  137.0170 C   0  0  0  0  0  1  0  0  0  0  0  0
  180.4020  176.1370  138.5590 N   0  0  0  0  0  0  0  0  0  0  0  0
  181.6040  176.7050  136.5730 N   0  0  0  0  0  2  0  0  0  0  0  0
  182.6250  174.5140  136.9930 N   0  0  0  0  0  0  0  0  0  0  0  0
  181.1200  176.9890  137.8920 C   0  0  0  0  0  0  0  0  0  0  0  0
  1  2  2  0  0  0  0
  2 28  1  0  0  0  0
  3  5  1  0  0  0  0
  3  4  2  0  0  0  0
  5  2  1  0  0  0  0
  7  6  1  1  0  0  0
  7  8  1  0  0  0  0
  7  3  1  0  0  0  0
  9 12  1  0  0  0  0
  9 16  1  0  0  0  0
 10 14  2  0  0  0  0
 11  9  2  0  0  0  0
 11 10  1  0  0  0  0
 12 13  2  0  0  0  0
 13  8  1  0  0  0  0
 13 15  1  0  0  0  0
 16 14  1  1  0  0  0
 16 15  1  0  0  0  0
 17 10  1  0  0  0  0
 18 24  1  0  0  0  0
 19 21  1  6  0  0  0
 19 22  1  0  0  0  0
 20 17  1  0  0  0  0
 20 19  1  0  0  0  0
 23 18  1  0  0  0  0
 23 20  1  0  0  0  0
 24 25  1  6  0  0  0
 24 22  1  0  0  0  0
 25 27  1  0  0  0  0
 26 25  2  0  0  0  0
 28 29  3  0  0  0  0
 29 35  1  0  0  0  0
 31 39  1  0  0  0  0
 33 30  1  0  0  0  0
 33 36  1  0  0  0  0
 33 38  1  0  0  0  0
 35 34  1  0  0  0  0
 35 31  2  0  0  0  0
 36 38  1  0  0  0  0
 37 39  1  1  0  0  0
 37 30  1  0  0  0  0
 40 34  1  1  0  0  0
 40 41  1  0  0  0  0
 40 37  1  0  0  0  0
 41 32  1  6  0  0  0
 41 33  1  0  0  0  0
 42 41  1  0  0  0  0
 43 42  1  0  0  0  0
 44 43  2  0  0  0  0
 45  1  1  0  0  0  0
 46 53  1  0  0  0  0
 46 54  2  0  0  0  0
 47 49  1  0  0  0  0
 47 46  1  0  0  0  0
 48 54  1  0  0  0  0
 48 51  1  0  0  0  0
 49 48  2  0  0  0  0
 50 52  1  0  0  0  0
 53 55  1  0  0  0  0
 55 45  1  0  0  0  0
 55 52  2  0  0  0  0
M  END
>  <MODEL>
2

>  <REMARK>
 VINA RESULT:      -9.0      2.849      4.234
  Name = 
  13 active torsions:
  status: ('A' for Active; 'I' for Inactive)
    1  A    between atoms: C_5  and  C_28
    2  A    between atoms: C_11  and  C_55
    3  A    between atoms: C_12  and  C_33
    4  A    between atoms: C_13  and  C_54
    5  A    between atoms: C_14  and  C_16
    6  A    between atoms: C_14  and  N_17
    7  A    between atoms: C_18  and  C_37
    8  A    between atoms: C_18  and  N_39
    9  A    between atoms: C_24  and  C_47
   10  A    between atoms: C_28  and  C_53
   11  A    between atoms: C_31  and  C_40
   12  A    between atoms: C_33  and  C_43
   13  A    between atoms: C_47  and  C_54
                            x       y       z     vdW  Elec       q    Type
                         _______ _______ _______ _____ _____    ______ ____

>  <TORSDO>
F 13

$$$$
=
 OpenBabel10232408473D

 55 61  0  0  1  0  0  0  0  0999 V2000
  192.0720  176.6170  138.5240 C   0  0  0  0  0  3  0  0  0  0  0  0
  190.8830  176.8680  139.0720 C   0  0  0  0  0  0  0  0  0  0  0  0
  188.8690  178.1380  138.1100 C   0  0  0  0  0  0  0  0  0  0  0  0
  189.1240  179.2130  138.7170 O   0  0  0  0  0  0  0  0  0  0  0  0
  189.7180  176.9910  138.2400 N   0  0  0  0  0  2  0  0  0  0  0  0
  186.3990  177.9710  138.0850 C   0  0  0  0  0  1  0  0  0  0  0  0
  187.6610  178.0380  137.2390 C   0  0  2  0  0  3  0  0  0  0  0  0
  187.7670  176.8230  136.3270 C   0  0  0  0  0  2  0  0  0  0  0  0
  184.8990  174.7450  136.7250 C   0  0  0  0  0  0  0  0  0  0  0  0
  182.6990  174.9540  136.7430 C   0  0  0  0  0  0  0  0  0  0  0  0
  183.8700  174.4230  137.4850 C   0  0  0  0  0  2  0  0  0  0  0  0
  186.2100  175.1060  137.1160 N   0  0  0  0  0  0  0  0  0  0  0  0
  186.4770  176.0760  136.2850 C   0  0  0  0  0  0  0  0  0  0  0  0
  183.0540  175.6930  135.6810 C   0  0  0  0  0  3  0  0  0  0  0  0
  185.3850  176.4640  135.4240 N   0  0  0  0  0  2  0  0  0  0  0  0
  184.4960  175.5670  135.6690 C   0  0  0  0  0  0  0  0  0  0  0  0
  181.2860  174.7480  137.1640 C   0  0  0  0  0  2  0  0  0  0  0  0
  181.4730  178.2110  138.4290 C   0  0  0  0  0  2  0  0  0  0  0  0
  181.1950  175.5810  139.3750 C   0  0  2  0  0  3  0  0  0  0  0  0
  180.8390  175.8730  137.9710 N   0  0  0  0  0  0  0  0  0  0  0  0
  179.9860  175.7910  140.2740 C   0  0  0  0  0  1  0  0  0  0  0  0
  182.4200  176.3470  139.9070 C   0  0  0  0  0  2  0  0  0  0  0  0
  181.4820  177.0720  137.4200 C   0  0  0  0  0  2  0  0  0  0  0  0
  182.3800  177.8520  139.6030 C   0  0  2  0  0  3  0  0  0  0  0  0
  182.0440  178.6550  140.8180 C   0  0  0  0  0  0  0  0  0  0  0  0
  182.9430  178.7050  141.8760 O   0  0  0  0  0  1  0  0  0  0  0  0
  180.9520  179.2770  140.8970 O   0  0  0  0  0  0  0  0  0  0  0  0
  190.8080  176.9880  140.5040 C   0  0  0  0  0  0  0  0  0  0  0  0
  190.7350  177.0890  141.7030 C   0  0  0  0  0  0  0  0  0  0  0  0
  189.9540  176.6990  147.3050 C   0  0  0  0  0  2  0  0  0  0  0  0
  191.6630  176.8600  143.9020 C   0  0  0  0  0  3  0  0  0  0  0  0
  187.9070  178.9870  145.5960 F   0  0  0  0  0  0  0  0  0  0  0  0
  188.6980  177.5250  147.3200 C   0  0  0  0  0  0  0  0  0  0  0  0
  189.3710  177.7220  143.7550 C   0  0  0  0  0  2  0  0  0  0  0  0
  190.6370  177.2130  143.1300 C   0  0  0  0  0  0  0  0  0  0  0  0
  188.8020  178.7860  148.1530 C   0  0  0  0  0  2  0  0  0  0  0  0
  190.1970  176.3840  145.8380 C   0  0  2  0  0  3  0  0  0  0  0  0
  187.9060  177.6420  148.6060 C   0  0  0  0  0  2  0  0  0  0  0  0
  191.5380  176.9720  145.3900 C   0  0  0  0  0  2  0  0  0  0  0  0
  188.9890  176.9070  145.0090 C   0  0  1  0  0  3  0  0  0  0  0  0
  188.0300  177.6510  145.9540 C   0  0  2  0  0  0  0  0  0  0  0  0
  186.6360  177.0080  145.9160 C   0  0  0  0  0  2  0  0  0  0  0  0
  185.5370  177.9890  145.6410 C   0  0  0  0  0  3  0  0  0  0  0  0
  184.7840  178.4410  146.6370 C   0  0  0  0  0  2  0  0  0  0  0  0
  192.2650  176.4240  137.0530 C   0  0  0  0  0  2  0  0  0  0  0  0
  195.7300  175.3810  135.8940 C   0  0  0  0  0  0  0  0  0  0  0  0
  196.8100  175.5000  134.6200 S   0  0  0  0  0  0  0  0  0  0  0  0
  197.6720  174.7890  136.8270 C   0  0  0  0  0  0  0  0  0  0  0  0
  198.1420  175.0170  135.5330 C   0  0  0  0  0  3  0  0  0  0  0  0
  194.1540  173.2450  137.0670 O   0  0  0  0  0  1  0  0  0  0  0  0
  198.5670  174.3490  137.9280 C   0  0  0  0  0  1  0  0  0  0  0  0
  193.2790  174.2660  137.3580 N   0  0  0  0  0  0  0  0  0  0  0  0
  194.3490  175.7400  135.8090 N   0  0  0  0  0  2  0  0  0  0  0  0
  196.3440  174.9970  137.0310 N   0  0  0  0  0  0  0  0  0  0  0  0
  193.3510  175.4330  136.7910 C   0  0  0  0  0  0  0  0  0  0  0  0
  1  2  2  0  0  0  0
  2 28  1  0  0  0  0
  3  5  1  0  0  0  0
  3  4  2  0  0  0  0
  5  2  1  0  0  0  0
  7  6  1  1  0  0  0
  7  3  1  0  0  0  0
  8  7  1  0  0  0  0
  9 12  1  0  0  0  0
  9 11  1  0  0  0  0
 10 17  1  0  0  0  0
 10 11  1  0  0  0  0
 13  8  1  0  0  0  0
 13 12  2  0  0  0  0
 14 10  2  0  0  0  0
 15 16  1  0  0  0  0
 15 13  1  0  0  0  0
 16 14  1  0  0  0  0
 16  9  2  0  0  0  0
 17 20  1  0  0  0  0
 18 24  1  0  0  0  0
 19 22  1  0  0  0  0
 19 21  1  1  0  0  0
 20 19  1  0  0  0  0
 23 20  1  0  0  0  0
 23 18  1  0  0  0  0
 24 22  1  0  0  0  0
 24 25  1  1  0  0  0
 25 27  2  0  0  0  0
 25 26  1  0  0  0  0
 28 29  3  0  0  0  0
 29 35  1  0  0  0  0
 30 33  1  0  0  0  0
 31 39  1  0  0  0  0
 33 36  1  0  0  0  0
 33 38  1  0  0  0  0
 35 34  1  0  0  0  0
 35 31  2  0  0  0  0
 36 38  1  0  0  0  0
 37 39  1  6  0  0  0
 37 30  1  0  0  0  0
 40 34  1  6  0  0  0
 40 37  1  0  0  0  0
 40 41  1  0  0  0  0
 41 32  1  6  0  0  0
 41 33  1  0  0  0  0
 42 41  1  0  0  0  0
 43 42  1  0  0  0  0
 43 44  2  0  0  0  0
 45  1  1  0  0  0  0
 46 54  2  0  0  0  0
 47 49  1  0  0  0  0
 47 46  1  0  0  0  0
 48 54  1  0  0  0  0
 48 51  1  0  0  0  0
 49 48  2  0  0  0  0
 50 52  1  0  0  0  0
 53 46  1  0  0  0  0
 53 55  1  0  0  0  0
 55 45  1  0  0  0  0
 55 52  2  0  0  0  0
M  END
>  <MODEL>
3

>  <REMARK>
 VINA RESULT:      -8.7      3.883     10.632
  Name = 
  13 active torsions:
  status: ('A' for Active; 'I' for Inactive)
    1  A    between atoms: C_5  and  C_28
    2  A    between atoms: C_11  and  C_55
    3  A    between atoms: C_12  and  C_33
    4  A    between atoms: C_13  and  C_54
    5  A    between atoms: C_14  and  C_16
    6  A    between atoms: C_14  and  N_17
    7  A    between atoms: C_18  and  C_37
    8  A    between atoms: C_18  and  N_39
    9  A    between atoms: C_24  and  C_47
   10  A    between atoms: C_28  and  C_53
   11  A    between atoms: C_31  and  C_40
   12  A    between atoms: C_33  and  C_43
   13  A    between atoms: C_47  and  C_54
                            x       y       z     vdW  Elec       q    Type
                         _______ _______ _______ _____ _____    ______ ____

>  <TORSDO>
F 13

$$$$
=
 OpenBabel10232408473D

 55 61  0  0  1  0  0  0  0  0999 V2000
  192.2290  176.6340  138.2290 C   0  0  0  0  0  3  0  0  0  0  0  0
  190.9120  176.8290  138.2750 C   0  0  0  0  0  0  0  0  0  0  0  0
  189.2930  177.8360  136.5530 C   0  0  0  0  0  0  0  0  0  0  0  0
  189.1990  178.9490  137.1380 O   0  0  0  0  0  0  0  0  0  0  0  0
  190.1360  176.7970  137.0650 N   0  0  0  0  0  2  0  0  0  0  0  0
  187.0570  177.9670  135.4990 C   0  0  0  0  0  1  0  0  0  0  0  0
  188.5140  177.5760  135.3070 C   0  0  2  0  0  3  0  0  0  0  0  0
  188.6330  176.1120  134.9060 C   0  0  0  0  0  2  0  0  0  0  0  0
  186.0240  174.2300  136.4380 C   0  0  0  0  0  0  0  0  0  0  0  0
  183.8250  174.3160  136.6380 C   0  0  0  0  0  0  0  0  0  0  0  0
  185.1030  174.1900  137.3820 C   0  0  0  0  0  2  0  0  0  0  0  0
  187.3240  174.7840  136.4930 N   0  0  0  0  0  0  0  0  0  0  0  0
  187.4220  175.3470  135.3200 C   0  0  0  0  0  0  0  0  0  0  0  0
  184.0100  174.5790  135.3360 C   0  0  0  0  0  3  0  0  0  0  0  0
  186.2240  175.2980  134.5140 N   0  0  0  0  0  2  0  0  0  0  0  0
  185.4510  174.5320  135.2010 C   0  0  0  0  0  0  0  0  0  0  0  0
  182.4810  174.2260  137.2740 C   0  0  0  0  0  2  0  0  0  0  0  0
  182.2810  177.8840  136.8170 C   0  0  0  0  0  2  0  0  0  0  0  0
  182.6180  175.9800  138.8540 C   0  0  2  0  0  3  0  0  0  0  0  0
  181.9890  175.5590  137.5850 N   0  0  0  0  0  0  0  0  0  0  0  0
  181.5580  176.4890  139.8180 C   0  0  0  0  0  1  0  0  0  0  0  0
  183.7650  176.9960  138.7040 C   0  0  0  0  0  2  0  0  0  0  0  0
  182.3160  176.4110  136.4350 C   0  0  0  0  0  2  0  0  0  0  0  0
  183.4180  178.1800  137.7910 C   0  0  2  0  0  3  0  0  0  0  0  0
  183.1560  179.4270  138.5730 C   0  0  0  0  0  0  0  0  0  0  0  0
  184.2250  180.2020  139.0030 O   0  0  0  0  0  1  0  0  0  0  0  0
  181.9790  179.7750  138.8540 O   0  0  0  0  0  0  0  0  0  0  0  0
  190.3030  177.0500  139.5590 C   0  0  0  0  0  0  0  0  0  0  0  0
  189.8020  177.2320  140.6410 C   0  0  0  0  0  0  0  0  0  0  0  0
  187.0300  177.2210  145.5870 C   0  0  0  0  0  2  0  0  0  0  0  0
  189.8520  177.0420  143.0300 C   0  0  0  0  0  3  0  0  0  0  0  0
  185.9780  179.5850  143.2080 F   0  0  0  0  0  0  0  0  0  0  0  0
  185.9440  178.1550  145.1300 C   0  0  0  0  0  0  0  0  0  0  0  0
  187.8660  178.0960  142.0480 C   0  0  0  0  0  2  0  0  0  0  0  0
  189.2130  177.4420  141.9320 C   0  0  0  0  0  0  0  0  0  0  0  0
  185.8720  179.4460  145.9200 C   0  0  0  0  0  2  0  0  0  0  0  0
  187.7490  176.8050  144.3130 C   0  0  2  0  0  3  0  0  0  0  0  0
  184.7600  178.4130  146.0400 C   0  0  0  0  0  2  0  0  0  0  0  0
  189.2140  177.2460  144.3700 C   0  0  0  0  0  2  0  0  0  0  0  0
  186.9780  177.3880  143.0930 C   0  0  1  0  0  3  0  0  0  0  0  0
  185.8270  178.2650  143.6130 C   0  0  2  0  0  0  0  0  0  0  0  0
  184.4810  177.7480  143.0850 C   0  0  0  0  0  2  0  0  0  0  0  0
  183.8690  178.6360  142.0450 C   0  0  0  0  0  3  0  0  0  0  0  0
  182.6480  179.1260  142.2240 C   0  0  0  0  0  2  0  0  0  0  0  0
  192.9660  176.3480  136.9580 C   0  0  0  0  0  2  0  0  0  0  0  0
  196.3800  174.7620  136.4430 C   0  0  0  0  0  0  0  0  0  0  0  0
  197.4640  174.2670  135.2680 S   0  0  0  0  0  0  0  0  0  0  0  0
  198.2930  174.5600  137.5790 C   0  0  0  0  0  0  0  0  0  0  0  0
  198.7730  174.1780  136.3270 C   0  0  0  0  0  3  0  0  0  0  0  0
  194.7070  173.4210  138.3990 O   0  0  0  0  0  1  0  0  0  0  0  0
  199.1660  174.6100  138.7800 C   0  0  0  0  0  1  0  0  0  0  0  0
  193.8810  174.5020  138.1960 N   0  0  0  0  0  0  0  0  0  0  0  0
  195.0170  175.1040  136.1810 N   0  0  0  0  0  2  0  0  0  0  0  0
  196.9750  174.8900  137.6450 N   0  0  0  0  0  0  0  0  0  0  0  0
  194.0060  175.2990  137.1790 C   0  0  0  0  0  0  0  0  0  0  0  0
  1  2  2  0  0  0  0
  2 28  1  0  0  0  0
  3  5  1  0  0  0  0
  3  4  2  0  0  0  0
  5  2  1  0  0  0  0
  7  6  1  1  0  0  0
  7  3  1  0  0  0  0
  8  7  1  0  0  0  0
  8 13  1  0  0  0  0
  9 12  1  0  0  0  0
  9 11  1  0  0  0  0
 10 17  1  0  0  0  0
 10 11  1  0  0  0  0
 13 12  2  0  0  0  0
 14 10  2  0  0  0  0
 15 16  1  0  0  0  0
 15 13  1  0  0  0  0
 16 14  1  0  0  0  0
 16  9  2  0  0  0  0
 17 20  1  0  0  0  0
 18 24  1  0  0  0  0
 19 21  1  1  0  0  0
 20 19  1  0  0  0  0
 22 19  1  0  0  0  0
 23 18  1  0  0  0  0
 23 20  1  0  0  0  0
 24 25  1  1  0  0  0
 24 22  1  0  0  0  0
 25 27  2  0  0  0  0
 25 26  1  0  0  0  0
 28 29  3  0  0  0  0
 29 35  1  0  0  0  0
 31 39  1  0  0  0  0
 33 30  1  0  0  0  0
 33 36  1  0  0  0  0
 33 38  1  0  0  0  0
 35 34  1  0  0  0  0
 35 31  2  0  0  0  0
 36 38  1  0  0  0  0
 37 39  1  1  0  0  0
 37 30  1  0  0  0  0
 40 34  1  6  0  0  0
 40 41  1  0  0  0  0
 40 37  1  0  0  0  0
 41 32  1  6  0  0  0
 41 33  1  0  0  0  0
 42 41  1  0  0  0  0
 43 44  2  0  0  0  0
 43 42  1  0  0  0  0
 45 55  1  0  0  0  0
 45  1  1  0  0  0  0
 46 54  2  0  0  0  0
 47 49  1  0  0  0  0
 47 46  1  0  0  0  0
 48 54  1  0  0  0  0
 48 51  1  0  0  0  0
 49 48  2  0  0  0  0
 52 50  1  0  0  0  0
 53 46  1  0  0  0  0
 53 55  1  0  0  0  0
 55 52  2  0  0  0  0
M  END
>  <MODEL>
4

>  <REMARK>
 VINA RESULT:      -8.5      3.936     10.608
  Name = 
  13 active torsions:
  status: ('A' for Active; 'I' for Inactive)
    1  A    between atoms: C_5  and  C_28
    2  A    between atoms: C_11  and  C_55
    3  A    between atoms: C_12  and  C_33
    4  A    between atoms: C_13  and  C_54
    5  A    between atoms: C_14  and  C_16
    6  A    between atoms: C_14  and  N_17
    7  A    between atoms: C_18  and  C_37
    8  A    between atoms: C_18  and  N_39
    9  A    between atoms: C_24  and  C_47
   10  A    between atoms: C_28  and  C_53
   11  A    between atoms: C_31  and  C_40
   12  A    between atoms: C_33  and  C_43
   13  A    between atoms: C_47  and  C_54
                            x       y       z     vdW  Elec       q    Type
                         _______ _______ _______ _____ _____    ______ ____

>  <TORSDO>
F 13

$$$$
=
 OpenBabel10232408473D

 55 61  0  0  1  0  0  0  0  0999 V2000
  181.7940  179.5360  140.3200 C   0  0  0  0  0  3  0  0  0  0  0  0
  182.5200  178.4430  140.5560 C   0  0  0  0  0  0  0  0  0  0  0  0
  183.4830  177.3470  138.4420 C   0  0  0  0  0  0  0  0  0  0  0  0
  184.3510  178.2410  138.2480 O   0  0  0  0  0  0  0  0  0  0  0  0
  182.5980  177.4020  139.5670 N   0  0  0  0  0  2  0  0  0  0  0  0
  181.8940  175.8820  137.2350 C   0  0  0  0  0  1  0  0  0  0  0  0
  183.3580  176.2050  137.4890 C   0  0  2  0  0  3  0  0  0  0  0  0
  184.0970  174.9870  138.0260 C   0  0  0  0  0  2  0  0  0  0  0  0
  186.5250  174.4780  135.4680 C   0  0  0  0  0  0  0  0  0  0  0  0
  188.6580  173.9260  135.3030 C   0  0  0  0  0  0  0  0  0  0  0  0
  187.6300  174.9170  134.8960 C   0  0  0  0  0  3  0  0  0  0  0  0
  185.4460  175.2250  135.9960 N   0  0  0  0  0  0  0  0  0  0  0  0
  185.1690  174.5570  137.0830 C   0  0  0  0  0  0  0  0  0  0  0  0
  188.1980  173.0460  136.2030 C   0  0  0  0  0  3  0  0  0  0  0  0
  186.0670  173.4640  137.3770 N   0  0  0  0  0  2  0  0  0  0  0  0
  186.8010  173.4080  136.3220 C   0  0  1  0  0  3  0  0  0  0  0  0
  190.0670  173.9440  134.8180 C   0  0  0  0  0  2  0  0  0  0  0  0
  193.1430  175.7750  135.7220 C   0  0  0  0  0  2  0  0  0  0  0  0
  190.9230  174.5550  136.9360 C   0  0  2  0  0  3  0  0  0  0  0  0
  190.8210  174.9700  135.5220 N   0  0  0  0  0  0  0  0  0  0  0  0
  190.5060  175.6990  137.8470 C   0  0  0  0  0  1  0  0  0  0  0  0
  192.2950  173.9900  137.3490 C   0  0  0  0  0  2  0  0  0  0  0  0
  192.1110  175.0970  134.8320 C   0  0  0  0  0  2  0  0  0  0  0  0
  193.4760  174.8590  136.8970 C   0  0  2  0  0  3  0  0  0  0  0  0
  194.0690  175.6260  138.0340 C   0  0  0  0  0  0  0  0  0  0  0  0
  195.0310  175.0260  138.8360 O   0  0  0  0  0  1  0  0  0  0  0  0
  193.6990  176.8050  138.2790 O   0  0  0  0  0  0  0  0  0  0  0  0
  183.2260  178.3540  141.8070 C   0  0  0  0  0  0  0  0  0  0  0  0
  183.8270  178.2800  142.8490 C   0  0  0  0  0  0  0  0  0  0  0  0
  187.0790  178.7550  147.4690 C   0  0  0  0  0  2  0  0  0  0  0  0
  184.0100  178.6470  145.2110 C   0  0  0  0  0  3  0  0  0  0  0  0
  187.9830  176.2570  145.1700 F   0  0  0  0  0  0  0  0  0  0  0  0
  188.1510  177.8270  146.9700 C   0  0  0  0  0  0  0  0  0  0  0  0
  185.9280  177.5900  144.1070 C   0  0  0  0  0  2  0  0  0  0  0  0
  184.5510  178.1870  144.0850 C   0  0  0  0  0  0  0  0  0  0  0  0
  188.3560  176.6020  147.8380 C   0  0  0  0  0  2  0  0  0  0  0  0
  186.2190  179.0500  146.2500 C   0  0  2  0  0  3  0  0  0  0  0  0
  189.4300  177.6790  147.7690 C   0  0  0  0  0  2  0  0  0  0  0  0
  184.7870  178.5650  146.4890 C   0  0  0  0  0  2  0  0  0  0  0  0
  186.8870  178.4040  145.0020 C   0  0  1  0  0  3  0  0  0  0  0  0
  188.1200  177.6080  145.4610 C   0  0  2  0  0  0  0  0  0  0  0  0
  189.3840  178.1290  144.7610 C   0  0  0  0  0  2  0  0  0  0  0  0
  189.8390  177.2580  143.6310 C   0  0  0  0  0  3  0  0  0  0  0  0
  190.2840  177.8060  142.5060 C   0  0  0  0  0  2  0  0  0  0  0  0
  181.0560  179.7610  139.0380 C   0  0  0  0  0  2  0  0  0  0  0  0
  180.7120  182.6730  136.6210 C   0  0  0  0  0  0  0  0  0  0  0  0
  180.4000  183.0570  135.0220 S   0  0  0  0  0  0  0  0  0  0  0  0
  180.2050  184.8460  136.7190 C   0  0  0  0  0  0  0  0  0  0  0  0
  180.0640  184.6790  135.3410 C   0  0  0  0  0  3  0  0  0  0  0  0
  183.0330  182.8120  138.3590 O   0  0  0  0  0  1  0  0  0  0  0  0
  179.9820  186.1560  137.3840 C   0  0  0  0  0  1  0  0  0  0  0  0
  182.4530  181.7150  138.9540 N   0  0  0  0  0  0  0  0  0  0  0  0
  181.0100  181.3530  137.0830 N   0  0  0  0  0  2  0  0  0  0  0  0
  180.5540  183.7400  137.4290 N   0  0  0  0  0  0  0  0  0  0  0  0
  181.5120  181.0250  138.3860 C   0  0  0  0  0  0  0  0  0  0  0  0
  1  2  2  0  0  0  0
  2 28  1  0  0  0  0
  3  5  1  0  0  0  0
  4  3  2  0  0  0  0
  5  2  1  0  0  0  0
  7  6  1  1  0  0  0
  7  8  1  0  0  0  0
  7  3  1  0  0  0  0
  9 12  1  0  0  0  0
  9 16  1  0  0  0  0
 10 14  2  0  0  0  0
 11 10  1  0  0  0  0
 11  9  2  0  0  0  0
 12 13  2  0  0  0  0
 13 15  1  0  0  0  0
 13  8  1  0  0  0  0
 16 14  1  1  0  0  0
 16 15  1  0  0  0  0
 17 10  1  0  0  0  0
 17 20  1  0  0  0  0
 18 24  1  0  0  0  0
 19 22  1  0  0  0  0
 19 21  1  1  0  0  0
 20 19  1  0  0  0  0
 23 20  1  0  0  0  0
 23 18  1  0  0  0  0
 24 22  1  0  0  0  0
 24 25  1  1  0  0  0
 25 27  2  0  0  0  0
 25 26  1  0  0  0  0
 28 29  3  0  0  0  0
 29 35  1  0  0  0  0
 31 39  1  0  0  0  0
 33 30  1  0  0  0  0
 33 38  1  0  0  0  0
 33 36  1  0  0  0  0
 35 34  1  0  0  0  0
 35 31  2  0  0  0  0
 37 39  1  1  0  0  0
 37 30  1  0  0  0  0
 38 36  1  0  0  0  0
 40 34  1  1  0  0  0
 40 41  1  0  0  0  0
 40 37  1  0  0  0  0
 41 32  1  6  0  0  0
 41 33  1  0  0  0  0
 42 41  1  0  0  0  0
 43 42  1  0  0  0  0
 44 43  2  0  0  0  0
 45  1  1  0  0  0  0
 46 53  1  0  0  0  0
 46 54  2  0  0  0  0
 47 49  1  0  0  0  0
 47 46  1  0  0  0  0
 48 51  1  0  0  0  0
 48 54  1  0  0  0  0
 49 48  2  0  0  0  0
 50 52  1  0  0  0  0
 53 55  1  0  0  0  0
 55 52  2  0  0  0  0
 55 45  1  0  0  0  0
M  END
>  <MODEL>
5

>  <REMARK>
 VINA RESULT:      -8.3      1.766      2.413
  Name = 
  13 active torsions:
  status: ('A' for Active; 'I' for Inactive)
    1  A    between atoms: C_5  and  C_28
    2  A    between atoms: C_11  and  C_55
    3  A    between atoms: C_12  and  C_33
    4  A    between atoms: C_13  and  C_54
    5  A    between atoms: C_14  and  C_16
    6  A    between atoms: C_14  and  N_17
    7  A    between atoms: C_18  and  C_37
    8  A    between atoms: C_18  and  N_39
    9  A    between atoms: C_24  and  C_47
   10  A    between atoms: C_28  and  C_53
   11  A    between atoms: C_31  and  C_40
   12  A    between atoms: C_33  and  C_43
   13  A    between atoms: C_47  and  C_54
                            x       y       z     vdW  Elec       q    Type
                         _______ _______ _______ _____ _____    ______ ____

>  <TORSDO>
F 13

$$$$
=
 OpenBabel10232408473D

 55 61  0  0  1  0  0  0  0  0999 V2000
  188.8440  178.2500  138.2990 C   0  0  0  0  0  3  0  0  0  0  0  0
  189.8970  177.6210  138.8230 C   0  0  0  0  0  0  0  0  0  0  0  0
  191.0430  175.6470  137.6460 C   0  0  0  0  0  0  0  0  0  0  0  0
  190.2410  174.7810  138.0900 O   0  0  0  0  0  0  0  0  0  0  0  0
  190.8880  177.0350  137.9620 N   0  0  0  0  0  2  0  0  0  0  0  0
  192.5730  173.7900  137.0620 C   0  0  0  0  0  1  0  0  0  0  0  0
  192.1860  175.2330  136.7800 C   0  0  2  0  0  3  0  0  0  0  0  0
  193.3730  176.1640  136.9930 C   0  0  0  0  0  2  0  0  0  0  0  0
  196.3420  174.2990  137.6330 C   0  0  0  0  0  0  0  0  0  0  0  0
  197.3860  172.5280  136.8220 C   0  0  0  0  0  0  0  0  0  0  0  0
  196.8570  173.1610  138.0570 C   0  0  0  0  0  2  0  0  0  0  0  0
  195.2060  174.9900  138.1160 N   0  0  0  0  0  0  0  0  0  0  0  0
  194.6530  175.3990  137.0060 C   0  0  0  0  0  0  0  0  0  0  0  0
  197.0440  173.1990  135.7120 C   0  0  0  0  0  3  0  0  0  0  0  0
  195.2900  174.9340  135.7960 N   0  0  0  0  0  2  0  0  0  0  0  0
  196.3520  174.3570  136.2370 C   0  0  0  0  0  0  0  0  0  0  0  0
  198.1540  171.2520  136.8060 C   0  0  0  0  0  2  0  0  0  0  0  0
  195.0130  169.7720  135.5520 C   0  0  0  0  0  2  0  0  0  0  0  0
  196.7750  169.5680  137.7300 C   0  0  2  0  0  3  0  0  0  0  0  0
  197.2730  170.1460  136.4650 N   0  0  0  0  0  0  0  0  0  0  0  0
  196.9680  168.0590  137.7250 C   0  0  0  0  0  1  0  0  0  0  0  0
  195.3250  169.9400  138.0880 C   0  0  0  0  0  2  0  0  0  0  0  0
  196.2240  170.6930  135.5940 C   0  0  0  0  0  2  0  0  0  0  0  0
  194.3410  169.7590  136.9230 C   0  0  2  0  0  3  0  0  0  0  0  0
  193.4880  168.5450  137.1010 C   0  0  0  0  0  0  0  0  0  0  0  0
  192.6820  168.1150  136.0540 O   0  0  0  0  0  0  0  0  0  0  0  0
  193.4840  167.9140  138.1910 O   0  0  0  0  0  1  0  0  0  0  0  0
  190.0130  177.5700  140.2560 C   0  0  0  0  0  0  0  0  0  0  0  0
  190.0990  177.5300  141.4570 C   0  0  0  0  0  0  0  0  0  0  0  0
  190.0000  176.5380  147.0390 C   0  0  0  0  0  2  0  0  0  0  0  0
  191.2730  176.9700  143.4720 C   0  0  0  0  0  3  0  0  0  0  0  0
  187.9730  179.1640  145.8800 F   0  0  0  0  0  0  0  0  0  0  0  0
  188.8370  177.4500  147.3130 C   0  0  0  0  0  0  0  0  0  0  0  0
  189.0700  178.0180  143.7320 C   0  0  0  0  0  2  0  0  0  0  0  0
  190.1950  177.4900  142.8890 C   0  0  0  0  0  0  0  0  0  0  0  0
  189.1610  178.5920  148.2550 C   0  0  0  0  0  2  0  0  0  0  0  0
  190.0250  176.3810  145.5270 C   0  0  2  0  0  3  0  0  0  0  0  0
  188.2280  177.4750  148.7000 C   0  0  0  0  0  2  0  0  0  0  0  0
  191.3470  176.9130  144.9670 C   0  0  0  0  0  2  0  0  0  0  0  0
  188.7750  177.0910  144.9310 C   0  0  1  0  0  3  0  0  0  0  0  0
  188.0170  177.7890  146.0720 C   0  0  2  0  0  0  0  0  0  0  0  0
  186.5750  177.2660  146.1550 C   0  0  0  0  0  2  0  0  0  0  0  0
  185.5610  178.3480  146.3610 C   0  0  0  0  0  3  0  0  0  0  0  0
  184.8460  178.7940  145.3340 C   0  0  0  0  0  2  0  0  0  0  0  0
  188.6420  178.4090  136.8250 C   0  0  0  0  0  2  0  0  0  0  0  0
  187.3840  174.9290  135.9650 C   0  0  0  0  0  0  0  0  0  0  0  0
  187.7700  173.5340  135.1240 S   0  0  0  0  0  0  0  0  0  0  0  0
  185.9910  173.4170  136.8380 C   0  0  0  0  0  0  0  0  0  0  0  0
  186.6300  172.5820  135.9220 C   0  0  0  0  0  3  0  0  0  0  0  0
  185.4110  177.0370  135.6640 O   0  0  0  0  0  1  0  0  0  0  0  0
  184.9150  172.9270  137.7380 C   0  0  0  0  0  1  0  0  0  0  0  0
  186.3880  177.8140  136.2420 N   0  0  0  0  0  0  0  0  0  0  0  0
  188.0710  176.1730  135.8100 N   0  0  0  0  0  2  0  0  0  0  0  0
  186.4100  174.7100  136.8710 N   0  0  0  0  0  0  0  0  0  0  0  0
  187.6270  177.4350  136.3260 C   0  0  0  0  0  0  0  0  0  0  0  0
  1  2  2  0  0  0  0
  2 28  1  0  0  0  0
  3  5  1  0  0  0  0
  3  4  2  0  0  0  0
  5  2  1  0  0  0  0
  7  8  1  0  0  0  0
  7  6  1  1  0  0  0
  7  3  1  0  0  0  0
  8 13  1  0  0  0  0
  9 11  1  0  0  0  0
  9 12  1  0  0  0  0
 10 11  1  0  0  0  0
 13 12  2  0  0  0  0
 14 16  1  0  0  0  0
 14 10  2  0  0  0  0
 15 16  1  0  0  0  0
 15 13  1  0  0  0  0
 16  9  2  0  0  0  0
 17 10  1  0  0  0  0
 18 23  1  0  0  0  0
 18 24  1  0  0  0  0
 19 21  1  6  0  0  0
 19 22  1  0  0  0  0
 20 17  1  0  0  0  0
 20 19  1  0  0  0  0
 23 20  1  0  0  0  0
 24 25  1  1  0  0  0
 24 22  1  0  0  0  0
 25 27  1  0  0  0  0
 26 25  2  0  0  0  0
 28 29  3  0  0  0  0
 29 35  1  0  0  0  0
 30 33  1  0  0  0  0
 31 39  1  0  0  0  0
 33 36  1  0  0  0  0
 33 38  1  0  0  0  0
 35 31  2  0  0  0  0
 35 34  1  0  0  0  0
 36 38  1  0  0  0  0
 37 39  1  6  0  0  0
 37 30  1  0  0  0  0
 40 34  1  6  0  0  0
 40 37  1  0  0  0  0
 40 41  1  0  0  0  0
 41 32  1  6  0  0  0
 41 42  1  0  0  0  0
 41 33  1  0  0  0  0
 42 43  1  0  0  0  0
 44 43  2  0  0  0  0
 45  1  1  0  0  0  0
 46 54  2  0  0  0  0
 47 49  1  0  0  0  0
 47 46  1  0  0  0  0
 48 54  1  0  0  0  0
 48 51  1  0  0  0  0
 49 48  2  0  0  0  0
 50 52  1  0  0  0  0
 52 55  2  0  0  0  0
 53 46  1  0  0  0  0
 53 55  1  0  0  0  0
 55 45  1  0  0  0  0
M  END
>  <MODEL>
6

>  <REMARK>
 VINA RESULT:      -8.3      4.502      6.976
  Name = 
  13 active torsions:
  status: ('A' for Active; 'I' for Inactive)
    1  A    between atoms: C_5  and  C_28
    2  A    between atoms: C_11  and  C_55
    3  A    between atoms: C_12  and  C_33
    4  A    between atoms: C_13  and  C_54
    5  A    between atoms: C_14  and  C_16
    6  A    between atoms: C_14  and  N_17
    7  A    between atoms: C_18  and  C_37
    8  A    between atoms: C_18  and  N_39
    9  A    between atoms: C_24  and  C_47
   10  A    between atoms: C_28  and  C_53
   11  A    between atoms: C_31  and  C_40
   12  A    between atoms: C_33  and  C_43
   13  A    between atoms: C_47  and  C_54
                            x       y       z     vdW  Elec       q    Type
                         _______ _______ _______ _____ _____    ______ ____

>  <TORSDO>
F 13

$$$$
=
 OpenBabel10232408473D

 55 61  0  0  1  0  0  0  0  0999 V2000
  190.1040  176.9090  140.4860 C   0  0  0  0  0  3  0  0  0  0  0  0
  190.1010  176.7730  139.1600 C   0  0  0  0  0  0  0  0  0  0  0  0
  188.3970  178.2140  137.8880 C   0  0  0  0  0  0  0  0  0  0  0  0
  189.0610  179.2810  137.9970 O   0  0  0  0  0  0  0  0  0  0  0  0
  188.8860  176.9770  138.4180 N   0  0  0  0  0  2  0  0  0  0  0  0
  185.9550  177.9520  138.1990 C   0  0  0  0  0  1  0  0  0  0  0  0
  187.0710  178.2250  137.2030 C   0  0  2  0  0  3  0  0  0  0  0  0
  187.0530  177.2010  136.0750 C   0  0  0  0  0  2  0  0  0  0  0  0
  184.0780  175.2400  136.1100 C   0  0  0  0  0  0  0  0  0  0  0  0
  181.9200  175.5220  136.4900 C   0  0  0  0  0  0  0  0  0  0  0  0
  183.1140  174.7140  136.8420 C   0  0  0  0  0  2  0  0  0  0  0  0
  185.4500  175.3840  136.4240 N   0  0  0  0  0  0  0  0  0  0  0  0
  185.7070  176.5720  135.9490 C   0  0  0  0  0  0  0  0  0  0  0  0
  182.2180  176.5720  135.7100 C   0  0  0  0  0  3  0  0  0  0  0  0
  184.5650  177.2850  135.4270 N   0  0  0  0  0  2  0  0  0  0  0  0
  183.6340  176.3970  135.4650 C   0  0  0  0  0  0  0  0  0  0  0  0
  180.5480  175.2410  136.9980 C   0  0  0  0  0  2  0  0  0  0  0  0
  180.8070  178.3900  138.9080 C   0  0  0  0  0  2  0  0  0  0  0  0
  180.9490  175.6110  139.2990 C   0  0  2  0  0  3  0  0  0  0  0  0
  180.2390  176.1270  138.1100 N   0  0  0  0  0  0  0  0  0  0  0  0
  179.9870  175.4980  140.4710 C   0  0  0  0  0  1  0  0  0  0  0  0
  182.2120  176.3980  139.6920 C   0  0  0  0  0  2  0  0  0  0  0  0
  180.6430  177.4780  137.7010 C   0  0  0  0  0  2  0  0  0  0  0  0
  181.9970  177.9180  139.7390 C   0  0  2  0  0  3  0  0  0  0  0  0
  181.9170  178.4240  141.1430 C   0  0  0  0  0  0  0  0  0  0  0  0
  180.6740  178.6490  141.7200 O   0  0  0  0  0  0  0  0  0  0  0  0
  182.9640  178.6570  141.8050 O   0  0  0  0  0  1  0  0  0  0  0  0
  191.3400  176.4420  138.5090 C   0  0  0  0  0  0  0  0  0  0  0  0
  192.3790  176.1740  137.9600 C   0  0  0  0  0  0  0  0  0  0  0  0
  196.7880  174.1790  135.0060 C   0  0  0  0  0  2  0  0  0  0  0  0
  193.8830  176.3880  136.1040 C   0  0  0  0  0  3  0  0  0  0  0  0
  197.0240  173.9650  138.5050 F   0  0  0  0  0  0  0  0  0  0  0  0
  197.4590  173.5380  136.1890 C   0  0  0  0  0  0  0  0  0  0  0  0
  194.5980  174.9310  137.9430 C   0  0  0  0  0  2  0  0  0  0  0  0
  193.6150  175.8630  137.2990 C   0  0  0  0  0  0  0  0  0  0  0  0
  198.8380  174.0920  136.4870 C   0  0  0  0  0  2  0  0  0  0  0  0
  195.3880  174.5230  135.4900 C   0  0  2  0  0  3  0  0  0  0  0  0
  198.6800  172.6700  135.9650 C   0  0  0  0  0  2  0  0  0  0  0  0
  195.1650  176.0360  135.4160 C   0  0  0  0  0  2  0  0  0  0  0  0
  195.1990  173.9420  136.9210 C   0  0  1  0  0  3  0  0  0  0  0  0
  196.5290  173.3210  137.3790 C   0  0  2  0  0  0  0  0  0  0  0  0
  196.3370  171.8350  137.7150 C   0  0  0  0  0  2  0  0  0  0  0  0
  195.1890  171.2040  136.9880 C   0  0  0  0  0  3  0  0  0  0  0  0
  195.4170  170.3930  135.9600 C   0  0  0  0  0  2  0  0  0  0  0  0
  188.8890  177.2980  141.2680 C   0  0  0  0  0  2  0  0  0  0  0  0
  188.7410  177.5230  145.0580 C   0  0  0  0  0  0  0  0  0  0  0  0
  187.6890  177.6600  146.3520 S   0  0  0  0  0  0  0  0  0  0  0  0
  190.0040  176.9120  146.7960 C   0  0  0  0  0  0  0  0  0  0  0  0
  188.8270  177.1750  147.4980 C   0  0  0  0  0  3  0  0  0  0  0  0
  190.7210  179.2470  143.8210 O   0  0  0  0  0  1  0  0  0  0  0  0
  191.2430  176.4520  147.4750 C   0  0  0  0  0  1  0  0  0  0  0  0
  190.3600  178.5730  142.6770 N   0  0  0  0  0  0  0  0  0  0  0  0
  188.3650  177.7370  143.6950 N   0  0  0  0  0  2  0  0  0  0  0  0
  189.9570  177.0950  145.4500 N   0  0  0  0  0  0  0  0  0  0  0  0
  189.2760  177.8630  142.5950 C   0  0  0  0  0  0  0  0  0  0  0  0
  1 45  1  0  0  0  0
  2  1  2  0  0  0  0
  3  4  2  0  0  0  0
  3  5  1  0  0  0  0
  5  2  1  0  0  0  0
  7  3  1  0  0  0  0
  7  6  1  1  0  0  0
  8  7  1  0  0  0  0
  9 12  1  0  0  0  0
  9 11  1  0  0  0  0
 10 11  1  0  0  0  0
 10 17  1  0  0  0  0
 13  8  1  0  0  0  0
 13 12  2  0  0  0  0
 14 10  2  0  0  0  0
 15 16  1  0  0  0  0
 15 13  1  0  0  0  0
 16 14  1  0  0  0  0
 16  9  2  0  0  0  0
 17 20  1  0  0  0  0
 18 24  1  0  0  0  0
 19 22  1  0  0  0  0
 19 21  1  1  0  0  0
 20 19  1  0  0  0  0
 22 24  1  0  0  0  0
 23 20  1  0  0  0  0
 23 18  1  0  0  0  0
 24 25  1  1  0  0  0
 25 26  2  0  0  0  0
 25 27  1  0  0  0  0
 28  2  1  0  0  0  0
 29 28  3  0  0  0  0
 30 33  1  0  0  0  0
 31 35  2  0  0  0  0
 33 36  1  0  0  0  0
 33 41  1  0  0  0  0
 35 34  1  0  0  0  0
 35 29  1  0  0  0  0
 37 30  1  1  0  0  0
 37 40  1  0  0  0  0
 38 33  1  0  0  0  0
 38 36  1  0  0  0  0
 39 37  1  0  0  0  0
 39 31  1  0  0  0  0
 40 41  1  0  0  0  0
 40 34  1  1  0  0  0
 41 42  1  0  0  0  0
 41 32  1  1  0  0  0
 43 42  1  0  0  0  0
 44 43  2  0  0  0  0
 45 55  1  0  0  0  0
 46 54  2  0  0  0  0
 46 47  1  0  0  0  0
 47 49  1  0  0  0  0
 48 51  1  0  0  0  0
 48 49  2  0  0  0  0
 52 50  1  0  0  0  0
 53 46  1  0  0  0  0
 54 48  1  0  0  0  0
 55 52  2  0  0  0  0
 55 53  1  0  0  0  0
M  END
>  <MODEL>
7

>  <REMARK>
 VINA RESULT:      -7.4      4.517     11.705
  Name = 
  13 active torsions:
  status: ('A' for Active; 'I' for Inactive)
    1  A    between atoms: C_5  and  C_28
    2  A    between atoms: C_11  and  C_55
    3  A    between atoms: C_12  and  C_33
    4  A    between atoms: C_13  and  C_54
    5  A    between atoms: C_14  and  C_16
    6  A    between atoms: C_14  and  N_17
    7  A    between atoms: C_18  and  C_37
    8  A    between atoms: C_18  and  N_39
    9  A    between atoms: C_24  and  C_47
   10  A    between atoms: C_28  and  C_53
   11  A    between atoms: C_31  and  C_40
   12  A    between atoms: C_33  and  C_43
   13  A    between atoms: C_47  and  C_54
                            x       y       z     vdW  Elec       q    Type
                         _______ _______ _______ _____ _____    ______ ____

>  <TORSDO>
F 13

$$$$
=
 OpenBabel10232408473D

 55 61  0  0  1  0  0  0  0  0999 V2000
  181.8880  179.5330  140.3980 C   0  0  0  0  0  3  0  0  0  0  0  0
  182.3640  178.3350  140.7400 C   0  0  0  0  0  0  0  0  0  0  0  0
  182.6830  176.8690  138.6550 C   0  0  0  0  0  0  0  0  0  0  0  0
  183.5880  177.5910  138.1570 O   0  0  0  0  0  0  0  0  0  0  0  0
  182.0880  177.1880  139.9190 N   0  0  0  0  0  2  0  0  0  0  0  0
  180.6920  175.5420  138.0200 C   0  0  0  0  0  1  0  0  0  0  0  0
  182.2050  175.6580  137.9260 C   0  0  2  0  0  3  0  0  0  0  0  0
  182.8790  174.4090  138.4790 C   0  0  0  0  0  2  0  0  0  0  0  0
  185.2100  173.6220  135.9000 C   0  0  0  0  0  0  0  0  0  0  0  0
  187.3910  173.7210  135.5600 C   0  0  0  0  0  0  0  0  0  0  0  0
  186.0630  174.0870  135.0070 C   0  0  0  0  0  3  0  0  0  0  0  0
  183.9630  174.1600  136.2970 N   0  0  0  0  0  0  0  0  0  0  0  0
  183.9890  173.9650  137.5880 C   0  0  0  0  0  0  0  0  0  0  0  0
  187.3120  173.2110  136.7980 C   0  0  0  0  0  3  0  0  0  0  0  0
  185.2260  173.4240  138.1010 N   0  0  0  0  0  2  0  0  0  0  0  0
  185.8840  173.1510  137.0300 C   0  0  1  0  0  3  0  0  0  0  0  0
  188.6790  173.9550  134.8500 C   0  0  0  0  0  2  0  0  0  0  0  0
  189.7250  176.0280  137.7200 C   0  0  0  0  0  2  0  0  0  0  0  0
  188.7200  176.3050  135.1120 C   0  0  2  0  0  3  0  0  0  0  0  0
  189.4030  175.0480  135.4800 N   0  0  0  0  0  0  0  0  0  0  0  0
  189.7300  177.3120  134.5860 C   0  0  0  0  0  1  0  0  0  0  0  0
  187.8500  176.9200  136.2240 C   0  0  0  0  0  2  0  0  0  0  0  0
  189.4220  174.7680  136.9220 C   0  0  0  0  0  2  0  0  0  0  0  0
  188.5610  177.0060  137.5810 C   0  0  2  0  0  3  0  0  0  0  0  0
  188.9820  178.4040  137.9010 C   0  0  0  0  0  0  0  0  0  0  0  0
  188.9630  178.8400  139.2190 O   0  0  0  0  0  1  0  0  0  0  0  0
  189.3440  179.1920  136.9870 O   0  0  0  0  0  0  0  0  0  0  0  0
  183.1690  178.2400  141.9290 C   0  0  0  0  0  0  0  0  0  0  0  0
  183.8480  178.1530  142.9210 C   0  0  0  0  0  0  0  0  0  0  0  0
  187.4050  178.5590  147.3170 C   0  0  0  0  0  2  0  0  0  0  0  0
  184.1880  178.4450  145.2760 C   0  0  0  0  0  3  0  0  0  0  0  0
  188.2050  176.1640  144.8730 F   0  0  0  0  0  0  0  0  0  0  0  0
  188.4620  177.6770  146.7120 C   0  0  0  0  0  0  0  0  0  0  0  0
  186.0480  177.4770  144.0040 C   0  0  0  0  0  2  0  0  0  0  0  0
  184.6590  178.0380  144.0990 C   0  0  0  0  0  0  0  0  0  0  0  0
  188.7570  176.4290  147.5200 C   0  0  0  0  0  2  0  0  0  0  0  0
  186.4550  178.8710  146.1720 C   0  0  2  0  0  3  0  0  0  0  0  0
  189.7970  177.5360  147.4140 C   0  0  0  0  0  2  0  0  0  0  0  0
  185.0550  178.3410  146.4930 C   0  0  0  0  0  2  0  0  0  0  0  0
  187.0480  178.2860  144.8580 C   0  0  1  0  0  3  0  0  0  0  0  0
  188.3290  177.5080  145.2020 C   0  0  2  0  0  0  0  0  0  0  0  0
  189.5280  178.0850  144.4350 C   0  0  0  0  0  2  0  0  0  0  0  0
  189.7980  177.3830  143.1400 C   0  0  0  0  0  3  0  0  0  0  0  0
  190.8700  177.7010  142.4220 C   0  0  0  0  0  2  0  0  0  0  0  0
  181.0810  179.7630  139.1580 C   0  0  0  0  0  2  0  0  0  0  0  0
  180.8050  182.5130  136.5500 C   0  0  0  0  0  0  0  0  0  0  0  0
  180.5640  182.7920  134.9180 S   0  0  0  0  0  0  0  0  0  0  0  0
  180.2580  184.6770  136.4880 C   0  0  0  0  0  0  0  0  0  0  0  0
  180.1860  184.4230  135.1190 C   0  0  0  0  0  3  0  0  0  0  0  0
  183.0370  182.8040  138.3830 O   0  0  0  0  0  1  0  0  0  0  0  0
  179.9820  186.0220  137.0590 C   0  0  0  0  0  1  0  0  0  0  0  0
  182.4470  181.7350  139.0180 N   0  0  0  0  0  0  0  0  0  0  0  0
  181.1020  181.2300  137.1080 N   0  0  0  0  0  2  0  0  0  0  0  0
  180.5910  183.6240  137.2820 N   0  0  0  0  0  0  0  0  0  0  0  0
  181.5460  180.9930  138.4510 C   0  0  0  0  0  0  0  0  0  0  0  0
  1  2  2  0  0  0  0
  2 28  1  0  0  0  0
  3  5  1  0  0  0  0
  4  3  2  0  0  0  0
  5  2  1  0  0  0  0
  7  6  1  1  0  0  0
  7  8  1  0  0  0  0
  7  3  1  0  0  0  0
  9 12  1  0  0  0  0
  9 16  1  0  0  0  0
 10 14  2  0  0  0  0
 11 10  1  0  0  0  0
 11  9  2  0  0  0  0
 12 13  2  0  0  0  0
 13 15  1  0  0  0  0
 13  8  1  0  0  0  0
 16 14  1  1  0  0  0
 16 15  1  0  0  0  0
 17 20  1  0  0  0  0
 17 10  1  0  0  0  0
 19 21  1  1  0  0  0
 19 20  1  0  0  0  0
 19 22  1  0  0  0  0
 20 23  1  0  0  0  0
 22 24  1  0  0  0  0
 23 18  1  0  0  0  0
 24 18  1  0  0  0  0
 24 25  1  6  0  0  0
 25 26  1  0  0  0  0
 27 25  2  0  0  0  0
 28 29  3  0  0  0  0
 29 35  1  0  0  0  0
 31 39  1  0  0  0  0
 33 30  1  0  0  0  0
 33 38  1  0  0  0  0
 33 36  1  0  0  0  0
 34 35  1  0  0  0  0
 35 31  2  0  0  0  0
 37 39  1  1  0  0  0
 37 30  1  0  0  0  0
 38 36  1  0  0  0  0
 40 34  1  1  0  0  0
 40 41  1  0  0  0  0
 40 37  1  0  0  0  0
 41 32  1  6  0  0  0
 41 33  1  0  0  0  0
 42 41  1  0  0  0  0
 43 42  1  0  0  0  0
 44 43  2  0  0  0  0
 45  1  1  0  0  0  0
 46 53  1  0  0  0  0
 46 54  2  0  0  0  0
 47 49  1  0  0  0  0
 47 46  1  0  0  0  0
 48 51  1  0  0  0  0
 48 54  1  0  0  0  0
 49 48  2  0  0  0  0
 50 52  1  0  0  0  0
 53 55  1  0  0  0  0
 55 52  2  0  0  0  0
 55 45  1  0  0  0  0
M  END
>  <MODEL>
8

>  <REMARK>
 VINA RESULT:      -7.3      3.111      3.958
  Name = 
  13 active torsions:
  status: ('A' for Active; 'I' for Inactive)
    1  A    between atoms: C_5  and  C_28
    2  A    between atoms: C_11  and  C_55
    3  A    between atoms: C_12  and  C_33
    4  A    between atoms: C_13  and  C_54
    5  A    between atoms: C_14  and  C_16
    6  A    between atoms: C_14  and  N_17
    7  A    between atoms: C_18  and  C_37
    8  A    between atoms: C_18  and  N_39
    9  A    between atoms: C_24  and  C_47
   10  A    between atoms: C_28  and  C_53
   11  A    between atoms: C_31  and  C_40
   12  A    between atoms: C_33  and  C_43
   13  A    between atoms: C_47  and  C_54
                            x       y       z     vdW  Elec       q    Type
                         _______ _______ _______ _____ _____    ______ ____

>  <TORSDO>
F 13

$$$$
=
 OpenBabel10232408473D

 55 61  0  0  1  0  0  0  0  0999 V2000
  184.9750  176.8330  134.7620 C   0  0  0  0  0  3  0  0  0  0  0  0
  185.6440  176.9430  135.9090 C   0  0  0  0  0  0  0  0  0  0  0  0
  184.1350  177.0580  137.9840 C   0  0  0  0  0  0  0  0  0  0  0  0
  183.8020  175.8430  137.9380 O   0  0  0  0  0  0  0  0  0  0  0  0
  185.0470  177.6160  137.0310 N   0  0  0  0  0  2  0  0  0  0  0  0
  182.1690  178.3980  138.6690 C   0  0  0  0  0  1  0  0  0  0  0  0
  183.5730  177.9480  139.0420 C   0  0  2  0  0  3  0  0  0  0  0  0
  184.4850  179.1480  139.2610 C   0  0  0  0  0  2  0  0  0  0  0  0
  185.6060  179.0310  142.6420 C   0  0  0  0  0  0  0  0  0  0  0  0
  186.8400  177.7250  143.9280 C   0  0  0  0  0  0  0  0  0  0  0  0
  185.5310  178.4140  143.8060 C   0  0  0  0  0  2  0  0  0  0  0  0
  184.5760  179.2790  141.7050 N   0  0  0  0  0  0  0  0  0  0  0  0
  185.1860  179.0500  140.5740 C   0  0  0  0  0  0  0  0  0  0  0  0
  187.5730  177.8100  142.8080 C   0  0  0  0  0  3  0  0  0  0  0  0
  186.5380  178.5570  140.6960 N   0  0  0  0  0  2  0  0  0  0  0  0
  186.7650  178.6580  141.9580 C   0  0  0  0  0  0  0  0  0  0  0  0
  187.2690  176.9650  145.1350 C   0  0  0  0  0  2  0  0  0  0  0  0
  190.9410  177.0030  145.5230 C   0  0  0  0  0  2  0  0  0  0  0  0
  188.6050  177.1730  147.0750 C   0  0  2  0  0  3  0  0  0  0  0  0
  188.5270  177.4970  145.6350 N   0  0  0  0  0  0  0  0  0  0  0  0
  188.9540  178.4200  147.8720 C   0  0  0  0  0  1  0  0  0  0  0  0
  189.5490  176.0080  147.4270 C   0  0  0  0  0  2  0  0  0  0  0  0
  189.5940  176.9010  144.8210 C   0  0  0  0  0  2  0  0  0  0  0  0
  190.9300  176.1180  146.7660 C   0  0  2  0  0  3  0  0  0  0  0  0
  191.9820  176.5360  147.7420 C   0  0  0  0  0  0  0  0  0  0  0  0
  191.7760  177.6610  148.5300 O   0  0  0  0  0  1  0  0  0  0  0  0
  193.0550  175.8860  147.8510 O   0  0  0  0  0  0  0  0  0  0  0  0
  186.9560  176.3560  135.9880 C   0  0  0  0  0  0  0  0  0  0  0  0
  188.0590  175.8750  136.0530 C   0  0  0  0  0  0  0  0  0  0  0  0
  193.0720  173.5280  137.2820 C   0  0  0  0  0  2  0  0  0  0  0  0
  189.5630  174.0160  135.8760 C   0  0  0  0  0  3  0  0  0  0  0  0
  193.0990  176.9520  136.4910 F   0  0  0  0  0  0  0  0  0  0  0  0
  193.8140  174.8340  137.3510 C   0  0  0  0  0  0  0  0  0  0  0  0
  190.5440  176.1740  136.5060 C   0  0  0  0  0  2  0  0  0  0  0  0
  189.3760  175.3100  136.1270 C   0  0  0  0  0  0  0  0  0  0  0  0
  194.9360  174.9560  136.3390 C   0  0  0  0  0  2  0  0  0  0  0  0
  191.6010  173.9150  137.2750 C   0  0  2  0  0  3  0  0  0  0  0  0
  195.2530  174.8420  137.8230 C   0  0  0  0  0  2  0  0  0  0  0  0
  190.9390  173.4360  135.9800 C   0  0  0  0  0  2  0  0  0  0  0  0
  191.4890  175.4520  137.4900 C   0  0  1  0  0  3  0  0  0  0  0  0
  192.9060  176.0470  137.5270 C   0  0  2  0  0  0  0  0  0  0  0  0
  193.1460  176.7770  138.8570 C   0  0  0  0  0  2  0  0  0  0  0  0
  191.9100  176.9120  139.6910 C   0  0  0  0  0  3  0  0  0  0  0  0
  191.9980  177.3340  140.9480 C   0  0  0  0  0  2  0  0  0  0  0  0
  183.5860  177.3610  134.5770 C   0  0  0  0  0  2  0  0  0  0  0  0
  182.5030  173.7540  135.0810 C   0  0  0  0  0  0  0  0  0  0  0  0
  182.8950  172.1720  134.7020 S   0  0  0  0  0  0  0  0  0  0  0  0
  181.3340  172.5770  136.5770 C   0  0  0  0  0  0  0  0  0  0  0  0
  181.9260  171.5050  135.9100 C   0  0  0  0  0  3  0  0  0  0  0  0
  180.3570  175.5720  134.3640 O   0  0  0  0  0  1  0  0  0  0  0  0
  180.4040  172.3830  137.7200 C   0  0  0  0  0  1  0  0  0  0  0  0
  181.3320  176.5300  134.5210 N   0  0  0  0  0  0  0  0  0  0  0  0
  183.0740  174.8960  134.4370 N   0  0  0  0  0  2  0  0  0  0  0  0
  181.6560  173.8190  136.1270 N   0  0  0  0  0  0  0  0  0  0  0  0
  182.5970  176.2420  134.5630 C   0  0  0  0  0  0  0  0  0  0  0  0
  1  2  2  0  0  0  0
  2 28  1  0  0  0  0
  2  5  1  0  0  0  0
  3  7  1  0  0  0  0
  4  3  2  0  0  0  0
  5  3  1  0  0  0  0
  7  6  1  6  0  0  0
  7  8  1  0  0  0  0
  8 13  1  0  0  0  0
  9 11  1  0  0  0  0
 10 17  1  0  0  0  0
 11 10  1  0  0  0  0
 12  9  1  0  0  0  0
 13 15  1  0  0  0  0
 13 12  2  0  0  0  0
 14 10  2  0  0  0  0
 15 16  1  0  0  0  0
 16  9  2  0  0  0  0
 16 14  1  0  0  0  0
 17 20  1  0  0  0  0
 18 24  1  0  0  0  0
 19 22  1  0  0  0  0
 19 21  1  1  0  0  0
 20 19  1  0  0  0  0
 23 18  1  0  0  0  0
 23 20  1  0  0  0  0
 24 22  1  0  0  0  0
 24 25  1  1  0  0  0
 25 27  2  0  0  0  0
 25 26  1  0  0  0  0
 28 29  3  0  0  0  0
 29 35  1  0  0  0  0
 30 33  1  0  0  0  0
 31 39  1  0  0  0  0
 31 35  2  0  0  0  0
 33 41  1  0  0  0  0
 33 38  1  0  0  0  0
 35 34  1  0  0  0  0
 36 33  1  0  0  0  0
 36 38  1  0  0  0  0
 37 39  1  6  0  0  0
 37 30  1  0  0  0  0
 37 40  1  0  0  0  0
 40 34  1  6  0  0  0
 40 41  1  0  0  0  0
 41 32  1  6  0  0  0
 41 42  1  0  0  0  0
 42 43  1  0  0  0  0
 43 44  2  0  0  0  0
 45  1  1  0  0  0  0
 46 54  2  0  0  0  0
 47 46  1  0  0  0  0
 47 49  1  0  0  0  0
 48 51  1  0  0  0  0
 49 48  2  0  0  0  0
 50 52  1  0  0  0  0
 52 55  2  0  0  0  0
 53 55  1  0  0  0  0
 53 46  1  0  0  0  0
 54 48  1  0  0  0  0
 55 45  1  0  0  0  0
M  END
>  <MODEL>
9

>  <REMARK>
 VINA RESULT:      -7.3      4.408      9.349
  Name = 
  13 active torsions:
  status: ('A' for Active; 'I' for Inactive)
    1  A    between atoms: C_5  and  C_28
    2  A    between atoms: C_11  and  C_55
    3  A    between atoms: C_12  and  C_33
    4  A    between atoms: C_13  and  C_54
    5  A    between atoms: C_14  and  C_16
    6  A    between atoms: C_14  and  N_17
    7  A    between atoms: C_18  and  C_37
    8  A    between atoms: C_18  and  N_39
    9  A    between atoms: C_24  and  C_47
   10  A    between atoms: C_28  and  C_53
   11  A    between atoms: C_31  and  C_40
   12  A    between atoms: C_33  and  C_43
   13  A    between atoms: C_47  and  C_54
                            x       y       z     vdW  Elec       q    Type
                         _______ _______ _______ _____ _____    ______ ____

>  <TORSDO>
F 13

$$$$
