=
 OpenBabel10232411103D

 36 41  0  0  1  0  0  0  0  0999 V2000
  189.0790  177.3030  145.5610 C   0  0  0  0  0  0  0  0  0  0  0  0
  183.5640  178.7080  142.6510 C   0  0  0  0  0  3  0  0  0  0  0  0
  189.7860  176.8250  144.4720 C   0  0  0  0  0  0  0  0  0  0  0  0
  186.8930  178.0110  144.6910 C   0  0  0  0  0  0  0  0  0  0  0  0
  191.0510  176.2870  144.8910 C   0  0  0  0  0  0  0  0  0  0  0  0
  190.0020  177.0240  146.9110 S   0  0  0  0  0  0  0  0  0  0  0  0
  185.6300  178.3570  145.2120 O   0  0  0  0  0  0  0  0  0  0  0  0
  187.3090  178.4210  140.4630 C   0  0  0  0  0  3  0  0  0  0  0  0
  191.3290  176.3260  146.2190 N   0  0  0  0  0  0  0  0  0  0  0  0
  189.9880  176.0530  142.3590 O   0  0  0  0  0  0  0  0  0  0  0  0
  187.8090  177.7180  145.6330 N   0  0  0  0  0  0  0  0  0  0  0  0
  189.3580  176.8240  143.1350 C   0  0  0  0  0  0  0  0  0  0  0  0
  192.0190  175.7650  143.9840 N   0  0  0  0  0  1  0  0  0  0  0  0
  184.7700  179.2700  144.5550 C   0  0  2  0  0  3  0  0  0  0  0  0
  187.1240  178.0600  143.2730 C   0  0  0  0  0  0  0  0  0  0  0  0
  188.3070  177.6100  142.5710 C   0  0  0  0  0  0  0  0  0  0  0  0
  182.6240  178.8660  143.6990 N   0  0  0  0  0  0  0  0  0  0  0  0
  183.3080  179.0920  144.9610 C   0  0  0  0  0  2  0  0  0  0  0  0
  186.1360  178.7230  141.1100 C   0  0  0  0  0  3  0  0  0  0  0  0
  184.7750  178.9300  143.1240 C   0  0  0  0  0  0  0  0  0  0  0  0
  188.3850  177.8880  141.1600 C   0  0  0  0  0  0  0  0  0  0  0  0
  186.0350  178.5580  142.4830 C   0  0  0  0  0  0  0  0  0  0  0  0
  189.6340  177.7200  140.3440 C   0  0  0  0  0  2  0  0  0  0  0  0
  189.3910  178.1280  138.8960 C   0  0  0  0  0  2  0  0  0  0  0  0
  189.9380  177.0900  137.9690 C   0  0  0  0  0  0  0  0  0  0  0  0
  191.2950  175.0170  137.6450 C   0  0  0  0  0  2  0  0  0  0  0  0
  190.6550  176.0820  138.4940 C   0  0  0  0  0  3  0  0  0  0  0  0
  190.3870  176.1500  135.6400 C   0  0  0  0  0  2  0  0  0  0  0  0
  189.8820  177.3330  136.4700 C   0  0  1  0  0  3  0  0  0  0  0  0
  188.4700  177.6790  136.0250 C   0  0  0  0  0  1  0  0  0  0  0  0
  191.6430  175.5550  136.2640 C   0  0  0  0  0  2  0  0  0  0  0  0
  181.1870  178.6880  143.5630 C   0  0  0  0  0  2  0  0  0  0  0  0
  180.7810  178.7140  142.0940 C   0  0  1  0  0  3  0  0  0  0  0  0
  179.9830  177.6060  141.7880 O   0  0  0  0  0  1  0  0  0  0  0  0
  180.0600  180.0090  141.7410 C   0  0  0  0  0  2  0  0  0  0  0  0
  180.2520  180.3920  140.2790 C   0  0  0  0  0  1  0  0  0  0  0  0
  1 11  1  0  0  0  0
  1  6  1  0  0  0  0
  2 20  2  0  0  0  0
  2 17  1  0  0  0  0
  3  5  1  0  0  0  0
  3  1  2  0  0  0  0
  4  7  1  0  0  0  0
  4 11  2  0  0  0  0
  5  9  2  0  0  0  0
  8 19  2  0  0  0  0
  8 21  1  0  0  0  0
  9  6  1  0  0  0  0
 10 12  2  0  0  0  0
 12  3  1  0  0  0  0
 13  5  1  0  0  0  0
 14 18  1  1  0  0  0
 14  7  1  0  0  0  0
 15  4  1  0  0  0  0
 16 12  1  0  0  0  0
 16 15  1  0  0  0  0
 17 18  1  0  0  0  0
 19 22  1  0  0  0  0
 20 14  1  0  0  0  0
 21 16  2  0  0  0  0
 22 20  1  0  0  0  0
 22 15  2  0  0  0  0
 23 21  1  0  0  0  0
 24 23  1  0  0  0  0
 25 27  2  0  0  0  0
 25 24  1  0  0  0  0
 26 27  1  0  0  0  0
 28 31  1  0  0  0  0
 28 29  1  0  0  0  0
 29 30  1  6  0  0  0
 29 25  1  0  0  0  0
 31 26  1  0  0  0  0
 32 17  1  0  0  0  0
 33 34  1  1  0  0  0
 33 32  1  0  0  0  0
 35 33  1  0  0  0  0
 36 35  1  0  0  0  0
M  END
>  <MODEL>
1

>  <REMARK>
 VINA RESULT:      -9.3      0.000      0.000
  Name = 
  6 active torsions:
  status: ('A' for Active; 'I' for Inactive)
    1  A    between atoms: C_4  and  C_25
    2  A    between atoms: C_4  and  C_32
    3  A    between atoms: C_5  and  C_34
    4  A    between atoms: C_7  and  C_34
    5  A    between atoms: C_7  and  C_35
    6  A    between atoms: N_27  and  C_32
                            x       y       z     vdW  Elec       q    Type
                         _______ _______ _______ _____ _____    ______ ____

>  <TORSDO>
F 6

$$$$
=
 OpenBabel10232411103D

 36 41  0  0  1  0  0  0  0  0999 V2000
  185.8380  178.7260  139.5530 C   0  0  0  0  0  0  0  0  0  0  0  0
  191.3360  175.9920  137.7760 C   0  0  0  0  0  3  0  0  0  0  0  0
  185.9420  178.5550  140.9210 C   0  0  0  0  0  0  0  0  0  0  0  0
  187.9120  177.8160  138.5990 C   0  0  0  0  0  0  0  0  0  0  0  0
  184.7260  178.9640  141.5710 C   0  0  0  0  0  0  0  0  0  0  0  0
  184.3200  179.3180  139.2400 S   0  0  0  0  0  0  0  0  0  0  0  0
  188.3950  177.4420  137.3290 O   0  0  0  0  0  0  0  0  0  0  0  0
  190.7360  177.5510  141.7880 C   0  0  0  0  0  3  0  0  0  0  0  0
  183.7250  179.4200  140.7770 N   0  0  0  0  0  0  0  0  0  0  0  0
  186.8190  177.6550  142.7980 O   0  0  0  0  0  0  0  0  0  0  0  0
  186.6620  178.3140  138.5820 N   0  0  0  0  0  0  0  0  0  0  0  0
  187.0460  178.0380  141.6170 C   0  0  0  0  0  0  0  0  0  0  0  0
  184.5520  178.9500  142.9860 N   0  0  0  0  0  1  0  0  0  0  0  0
  189.7700  177.5190  136.9960 C   0  0  2  0  0  3  0  0  0  0  0  0
  188.7650  177.7120  139.7530 C   0  0  0  0  0  0  0  0  0  0  0  0
  188.3850  177.9210  141.1330 C   0  0  0  0  0  0  0  0  0  0  0  0
  191.2030  175.7670  136.3840 N   0  0  0  0  0  0  0  0  0  0  0  0
  190.1420  176.5950  135.8370 C   0  0  0  0  0  2  0  0  0  0  0  0
  191.0660  177.2210  140.4970 C   0  0  0  0  0  3  0  0  0  0  0  0
  190.5310  176.9750  138.1300 C   0  0  0  0  0  0  0  0  0  0  0  0
  189.4350  177.9080  142.1180 C   0  0  0  0  0  0  0  0  0  0  0  0
  190.1140  177.3030  139.4920 C   0  0  0  0  0  0  0  0  0  0  0  0
  189.2530  178.3540  143.5400 C   0  0  0  0  0  2  0  0  0  0  0  0
  189.6750  177.2570  144.5080 C   0  0  0  0  0  2  0  0  0  0  0  0
  188.9760  177.4280  145.8200 C   0  0  0  0  0  0  0  0  0  0  0  0
  186.8570  177.8660  147.0680 C   0  0  0  0  0  2  0  0  0  0  0  0
  187.6470  177.6280  145.8110 C   0  0  0  0  0  3  0  0  0  0  0  0
  188.9620  177.6860  148.3580 C   0  0  0  0  0  2  0  0  0  0  0  0
  189.8030  177.6190  147.0800 C   0  0  1  0  0  3  0  0  0  0  0  0
  190.8360  176.5150  147.2280 C   0  0  0  0  0  1  0  0  0  0  0  0
  187.7150  178.5320  148.1350 C   0  0  0  0  0  2  0  0  0  0  0  0
  191.9240  174.7510  135.6310 C   0  0  0  0  0  2  0  0  0  0  0  0
  192.6710  173.8160  136.5750 C   0  0  1  0  0  3  0  0  0  0  0  0
  192.4540  172.4810  136.2140 O   0  0  0  0  0  1  0  0  0  0  0  0
  194.1620  174.1300  136.5990 C   0  0  0  0  0  2  0  0  0  0  0  0
  194.7030  174.2340  138.0190 C   0  0  0  0  0  1  0  0  0  0  0  0
  1  3  2  0  0  0  0
  2 20  2  0  0  0  0
  3  5  1  0  0  0  0
  3 12  1  0  0  0  0
  4 15  1  0  0  0  0
  5 13  1  0  0  0  0
  6  1  1  0  0  0  0
  6  9  1  0  0  0  0
  7  4  1  0  0  0  0
  8 21  1  0  0  0  0
  9  5  2  0  0  0  0
 11  4  2  0  0  0  0
 11  1  1  0  0  0  0
 12 10  2  0  0  0  0
 14 18  1  6  0  0  0
 14  7  1  0  0  0  0
 14 20  1  0  0  0  0
 15 16  1  0  0  0  0
 16 12  1  0  0  0  0
 16 21  2  0  0  0  0
 17  2  1  0  0  0  0
 18 17  1  0  0  0  0
 19  8  2  0  0  0  0
 20 22  1  0  0  0  0
 21 23  1  0  0  0  0
 22 15  2  0  0  0  0
 22 19  1  0  0  0  0
 23 24  1  0  0  0  0
 24 25  1  0  0  0  0
 25 29  1  0  0  0  0
 26 31  1  0  0  0  0
 27 25  2  0  0  0  0
 27 26  1  0  0  0  0
 29 30  1  1  0  0  0
 29 28  1  0  0  0  0
 31 28  1  0  0  0  0
 32 17  1  0  0  0  0
 32 33  1  0  0  0  0
 33 34  1  6  0  0  0
 33 35  1  0  0  0  0
 35 36  1  0  0  0  0
M  END
>  <MODEL>
2

>  <REMARK>
 VINA RESULT:      -9.2      3.500      9.364
  Name = 
  6 active torsions:
  status: ('A' for Active; 'I' for Inactive)
    1  A    between atoms: C_4  and  C_25
    2  A    between atoms: C_4  and  C_32
    3  A    between atoms: C_5  and  C_34
    4  A    between atoms: C_7  and  C_34
    5  A    between atoms: C_7  and  C_35
    6  A    between atoms: N_27  and  C_32
                            x       y       z     vdW  Elec       q    Type
                         _______ _______ _______ _____ _____    ______ ____

>  <TORSDO>
F 6

$$$$
=
 OpenBabel10232411103D

 36 41  0  0  1  0  0  0  0  0999 V2000
  187.7880  177.4520  137.9600 C   0  0  0  0  0  0  0  0  0  0  0  0
  182.0990  179.8330  139.6400 C   0  0  0  0  0  3  0  0  0  0  0  0
  188.4920  177.7300  139.1180 C   0  0  0  0  0  0  0  0  0  0  0  0
  185.4860  178.2060  138.3710 C   0  0  0  0  0  0  0  0  0  0  0  0
  189.8850  177.4190  138.9450 C   0  0  0  0  0  0  0  0  0  0  0  0
  188.8770  176.8900  136.8410 S   0  0  0  0  0  0  0  0  0  0  0  0
  184.3240  178.4570  137.6130 O   0  0  0  0  0  0  0  0  0  0  0  0
  185.0510  178.6310  142.5950 C   0  0  0  0  0  3  0  0  0  0  0  0
  190.2640  176.9350  137.7350 N   0  0  0  0  0  0  0  0  0  0  0  0
  188.8130  178.7490  141.1080 O   0  0  0  0  0  0  0  0  0  0  0  0
  186.5240  177.7530  137.6430 N   0  0  0  0  0  0  0  0  0  0  0  0
  187.9670  178.2620  140.3060 C   0  0  0  0  0  0  0  0  0  0  0  0
  190.8530  177.5550  139.9840 N   0  0  0  0  0  1  0  0  0  0  0  0
  183.0260  178.3040  138.1570 C   0  0  2  0  0  3  0  0  0  0  0  0
  185.4650  178.3730  139.7990 C   0  0  0  0  0  0  0  0  0  0  0  0
  186.5950  178.2920  140.6980 C   0  0  0  0  0  0  0  0  0  0  0  0
  181.3750  179.9490  138.4280 N   0  0  0  0  0  0  0  0  0  0  0  0
  181.9760  179.1160  137.4000 C   0  0  0  0  0  2  0  0  0  0  0  0
  184.0040  178.8420  141.7320 C   0  0  0  0  0  3  0  0  0  0  0  0
  183.0330  178.9120  139.4960 C   0  0  0  0  0  0  0  0  0  0  0  0
  186.3210  178.3490  142.1110 C   0  0  0  0  0  0  0  0  0  0  0  0
  184.1910  178.7120  140.3650 C   0  0  0  0  0  0  0  0  0  0  0  0
  187.3350  178.0270  143.1720 C   0  0  0  0  0  2  0  0  0  0  0  0
  186.6850  177.2790  144.3290 C   0  0  0  0  0  2  0  0  0  0  0  0
  187.3910  177.5960  145.6090 C   0  0  0  0  0  0  0  0  0  0  0  0
  189.4960  177.5500  146.9540 C   0  0  0  0  0  2  0  0  0  0  0  0
  188.7040  177.3230  145.6960 C   0  0  0  0  0  3  0  0  0  0  0  0
  187.4260  178.3620  148.0420 C   0  0  0  0  0  2  0  0  0  0  0  0
  186.5720  177.9730  146.8330 C   0  0  1  0  0  3  0  0  0  0  0  0
  185.6150  179.1110  146.5200 C   0  0  0  0  0  1  0  0  0  0  0  0
  188.6130  177.4180  148.1870 C   0  0  0  0  0  2  0  0  0  0  0  0
  180.2750  180.8730  138.1990 C   0  0  0  0  0  2  0  0  0  0  0  0
  180.6590  181.9130  137.1520 C   0  0  1  0  0  3  0  0  0  0  0  0
  179.9830  181.6700  135.9520 O   0  0  0  0  0  1  0  0  0  0  0  0
  180.3810  183.3270  137.6490 C   0  0  0  0  0  2  0  0  0  0  0  0
  181.4710  184.3050  137.2320 C   0  0  0  0  0  1  0  0  0  0  0  0
  1  3  2  0  0  0  0
  3 12  1  0  0  0  0
  4 15  1  0  0  0  0
  5  3  1  0  0  0  0
  5 13  1  0  0  0  0
  6  9  1  0  0  0  0
  6  1  1  0  0  0  0
  7 14  1  0  0  0  0
  7  4  1  0  0  0  0
  9  5  2  0  0  0  0
 11  1  1  0  0  0  0
 11  4  2  0  0  0  0
 12 16  1  0  0  0  0
 12 10  2  0  0  0  0
 14 18  1  6  0  0  0
 14 20  1  0  0  0  0
 15 22  2  0  0  0  0
 15 16  1  0  0  0  0
 16 21  2  0  0  0  0
 17  2  1  0  0  0  0
 18 17  1  0  0  0  0
 19  8  2  0  0  0  0
 20  2  2  0  0  0  0
 20 22  1  0  0  0  0
 21  8  1  0  0  0  0
 21 23  1  0  0  0  0
 22 19  1  0  0  0  0
 23 24  1  0  0  0  0
 24 25  1  0  0  0  0
 25 27  2  0  0  0  0
 25 29  1  0  0  0  0
 26 31  1  0  0  0  0
 27 26  1  0  0  0  0
 28 31  1  0  0  0  0
 29 30  1  6  0  0  0
 29 28  1  0  0  0  0
 32 17  1  0  0  0  0
 33 34  1  6  0  0  0
 33 35  1  0  0  0  0
 33 32  1  0  0  0  0
 36 35  1  0  0  0  0
M  END
>  <MODEL>
3

>  <REMARK>
 VINA RESULT:      -9.2      3.742      6.936
  Name = 
  6 active torsions:
  status: ('A' for Active; 'I' for Inactive)
    1  A    between atoms: C_4  and  C_25
    2  A    between atoms: C_4  and  C_32
    3  A    between atoms: C_5  and  C_34
    4  A    between atoms: C_7  and  C_34
    5  A    between atoms: C_7  and  C_35
    6  A    between atoms: N_27  and  C_32
                            x       y       z     vdW  Elec       q    Type
                         _______ _______ _______ _____ _____    ______ ____

>  <TORSDO>
F 6

$$$$
=
 OpenBabel10232411103D

 36 41  0  0  1  0  0  0  0  0999 V2000
  183.9050  179.2370  139.2240 C   0  0  0  0  0  0  0  0  0  0  0  0
  189.9160  177.1460  138.6300 C   0  0  0  0  0  3  0  0  0  0  0  0
  183.6740  178.8690  140.5360 C   0  0  0  0  0  0  0  0  0  0  0  0
  186.2320  178.6120  138.7450 C   0  0  0  0  0  0  0  0  0  0  0  0
  182.2990  179.0990  140.8870 C   0  0  0  0  0  0  0  0  0  0  0  0
  182.4650  179.7760  138.5990 S   0  0  0  0  0  0  0  0  0  0  0  0
  187.0570  178.4640  137.6110 O   0  0  0  0  0  0  0  0  0  0  0  0
  188.1660  178.0410  142.5070 C   0  0  0  0  0  3  0  0  0  0  0  0
  181.4930  179.6080  139.9230 N   0  0  0  0  0  0  0  0  0  0  0  0
  184.1300  177.7510  142.4460 O   0  0  0  0  0  0  0  0  0  0  0  0
  184.9840  179.0280  138.4610 N   0  0  0  0  0  0  0  0  0  0  0  0
  184.6110  178.3220  141.4270 C   0  0  0  0  0  0  0  0  0  0  0  0
  181.7730  178.8610  142.1910 N   0  0  0  0  0  1  0  0  0  0  0  0
  188.4560  178.6740  137.6680 C   0  0  2  0  0  3  0  0  0  0  0  0
  186.7700  178.3870  140.0600 C   0  0  0  0  0  0  0  0  0  0  0  0
  186.0330  178.3610  141.3050 C   0  0  0  0  0  0  0  0  0  0  0  0
  190.1640  177.1260  137.2360 N   0  0  0  0  0  0  0  0  0  0  0  0
  189.2000  177.9610  136.5400 C   0  0  0  0  0  2  0  0  0  0  0  0
  188.8440  177.9310  141.3180 C   0  0  0  0  0  3  0  0  0  0  0  0
  188.9540  178.0130  138.8820 C   0  0  0  0  0  0  0  0  0  0  0  0
  186.7960  178.2630  142.5230 C   0  0  0  0  0  0  0  0  0  0  0  0
  188.1750  178.1050  140.1160 C   0  0  0  0  0  0  0  0  0  0  0  0
  186.2150  178.4780  143.8910 C   0  0  0  0  0  2  0  0  0  0  0  0
  186.4690  177.2680  144.7810 C   0  0  0  0  0  2  0  0  0  0  0  0
  187.3940  177.6340  145.8980 C   0  0  0  0  0  0  0  0  0  0  0  0
  189.7130  177.6650  146.8280 C   0  0  0  0  0  2  0  0  0  0  0  0
  188.7060  177.3870  145.7450 C   0  0  0  0  0  3  0  0  0  0  0  0
  187.8640  178.4720  148.2610 C   0  0  0  0  0  2  0  0  0  0  0  0
  186.8090  178.0330  147.2420 C   0  0  1  0  0  3  0  0  0  0  0  0
  185.7840  179.1440  147.0850 C   0  0  0  0  0  1  0  0  0  0  0  0
  189.0770  177.5540  148.2060 C   0  0  0  0  0  2  0  0  0  0  0  0
  191.1480  176.2810  136.5760 C   0  0  0  0  0  2  0  0  0  0  0  0
  192.0150  175.5660  137.6060 C   0  0  1  0  0  3  0  0  0  0  0  0
  191.6060  174.2350  137.7480 O   0  0  0  0  0  1  0  0  0  0  0  0
  193.4910  175.6380  137.2330 C   0  0  0  0  0  2  0  0  0  0  0  0
  194.2950  174.5050  137.8580 C   0  0  0  0  0  1  0  0  0  0  0  0
  1  3  2  0  0  0  0
  2 20  2  0  0  0  0
  3  5  1  0  0  0  0
  3 12  1  0  0  0  0
  4 15  1  0  0  0  0
  5 13  1  0  0  0  0
  6  1  1  0  0  0  0
  6  9  1  0  0  0  0
  7 14  1  0  0  0  0
  7  4  1  0  0  0  0
  8 21  1  0  0  0  0
  9  5  2  0  0  0  0
 11  4  2  0  0  0  0
 11  1  1  0  0  0  0
 12 10  2  0  0  0  0
 14 18  1  6  0  0  0
 14 20  1  0  0  0  0
 15 22  2  0  0  0  0
 15 16  1  0  0  0  0
 16 12  1  0  0  0  0
 16 21  2  0  0  0  0
 17  2  1  0  0  0  0
 18 17  1  0  0  0  0
 19  8  2  0  0  0  0
 20 22  1  0  0  0  0
 21 23  1  0  0  0  0
 22 19  1  0  0  0  0
 23 24  1  0  0  0  0
 24 25  1  0  0  0  0
 25 29  1  0  0  0  0
 26 31  1  0  0  0  0
 27 25  2  0  0  0  0
 27 26  1  0  0  0  0
 29 30  1  6  0  0  0
 29 28  1  0  0  0  0
 31 28  1  0  0  0  0
 32 17  1  0  0  0  0
 32 33  1  0  0  0  0
 33 34  1  6  0  0  0
 35 33  1  0  0  0  0
 35 36  1  0  0  0  0
M  END
>  <MODEL>
4

>  <REMARK>
 VINA RESULT:      -9.1      3.515      9.223
  Name = 
  6 active torsions:
  status: ('A' for Active; 'I' for Inactive)
    1  A    between atoms: C_4  and  C_25
    2  A    between atoms: C_4  and  C_32
    3  A    between atoms: C_5  and  C_34
    4  A    between atoms: C_7  and  C_34
    5  A    between atoms: C_7  and  C_35
    6  A    between atoms: N_27  and  C_32
                            x       y       z     vdW  Elec       q    Type
                         _______ _______ _______ _____ _____    ______ ____

>  <TORSDO>
F 6

$$$$
=
 OpenBabel10232411103D

 36 41  0  0  1  0  0  0  0  0999 V2000
  187.6720  176.5790  137.0130 C   0  0  0  0  0  0  0  0  0  0  0  0
  182.6400  179.8670  139.1870 C   0  0  0  0  0  3  0  0  0  0  0  0
  188.6300  177.0310  137.9030 C   0  0  0  0  0  0  0  0  0  0  0  0
  185.5640  177.6460  137.6880 C   0  0  0  0  0  0  0  0  0  0  0  0
  189.9300  176.5430  137.5310 C   0  0  0  0  0  0  0  0  0  0  0  0
  188.4520  175.6700  135.8650 S   0  0  0  0  0  0  0  0  0  0  0  0
  184.2800  177.8450  137.1440 O   0  0  0  0  0  0  0  0  0  0  0  0
  186.1020  179.0440  141.6840 C   0  0  0  0  0  3  0  0  0  0  0  0
  190.0030  175.7640  136.4230 N   0  0  0  0  0  0  0  0  0  0  0  0
  189.4400  178.4270  139.4830 O   0  0  0  0  0  0  0  0  0  0  0  0
  186.3870  176.9350  136.8950 N   0  0  0  0  0  0  0  0  0  0  0  0
  188.4120  177.8670  139.0090 C   0  0  0  0  0  0  0  0  0  0  0  0
  191.1100  176.8020  138.2890 N   0  0  0  0  0  1  0  0  0  0  0  0
  183.1270  177.9570  137.9600 C   0  0  2  0  0  3  0  0  0  0  0  0
  185.8700  178.1290  139.0080 C   0  0  0  0  0  0  0  0  0  0  0  0
  187.1650  178.1290  139.6530 C   0  0  0  0  0  0  0  0  0  0  0  0
  181.6730  179.7860  138.1560 N   0  0  0  0  0  0  0  0  0  0  0  0
  181.9830  178.6870  137.2580 C   0  0  0  0  0  2  0  0  0  0  0  0
  184.9030  179.1680  141.0270 C   0  0  0  0  0  3  0  0  0  0  0  0
  183.4650  178.8420  139.0830 C   0  0  0  0  0  0  0  0  0  0  0  0
  187.2150  178.5280  141.0360 C   0  0  0  0  0  0  0  0  0  0  0  0
  184.7740  178.7180  139.7220 C   0  0  0  0  0  0  0  0  0  0  0  0
  188.4190  178.3440  141.9150 C   0  0  0  0  0  2  0  0  0  0  0  0
  188.3820  176.9850  142.6010 C   0  0  0  0  0  2  0  0  0  0  0  0
  188.1500  177.1540  144.0690 C   0  0  0  0  0  0  0  0  0  0  0  0
  186.5380  177.3100  145.9720 C   0  0  0  0  0  2  0  0  0  0  0  0
  186.8860  177.0980  144.5240 C   0  0  0  0  0  3  0  0  0  0  0  0
  188.9430  177.6600  146.4400 C   0  0  0  0  0  2  0  0  0  0  0  0
  189.2950  177.6230  144.9500 C   0  0  1  0  0  3  0  0  0  0  0  0
  190.5260  176.7540  144.7570 C   0  0  0  0  0  1  0  0  0  0  0  0
  187.5460  178.2290  146.6470 C   0  0  0  0  0  2  0  0  0  0  0  0
  180.6040  180.7490  137.9390 C   0  0  0  0  0  2  0  0  0  0  0  0
  181.0510  181.8360  136.9690 C   0  0  1  0  0  3  0  0  0  0  0  0
  180.2270  181.8500  135.8380 O   0  0  0  0  0  1  0  0  0  0  0  0
  181.0650  183.2040  137.6400 C   0  0  0  0  0  2  0  0  0  0  0  0
  181.1270  184.3390  136.6260 C   0  0  0  0  0  1  0  0  0  0  0  0
  1  3  2  0  0  0  0
  3 12  1  0  0  0  0
  4 15  1  0  0  0  0
  5  3  1  0  0  0  0
  5 13  1  0  0  0  0
  6  9  1  0  0  0  0
  6  1  1  0  0  0  0
  7  4  1  0  0  0  0
  7 14  1  0  0  0  0
  9  5  2  0  0  0  0
 11  1  1  0  0  0  0
 11  4  2  0  0  0  0
 12 10  2  0  0  0  0
 12 16  1  0  0  0  0
 14 18  1  6  0  0  0
 14 20  1  0  0  0  0
 15 16  1  0  0  0  0
 15 22  2  0  0  0  0
 16 21  2  0  0  0  0
 17  2  1  0  0  0  0
 18 17  1  0  0  0  0
 19  8  2  0  0  0  0
 20  2  2  0  0  0  0
 20 22  1  0  0  0  0
 21  8  1  0  0  0  0
 21 23  1  0  0  0  0
 22 19  1  0  0  0  0
 23 24  1  0  0  0  0
 24 25  1  0  0  0  0
 25 27  2  0  0  0  0
 25 29  1  0  0  0  0
 26 31  1  0  0  0  0
 27 26  1  0  0  0  0
 28 31  1  0  0  0  0
 29 30  1  1  0  0  0
 29 28  1  0  0  0  0
 32 17  1  0  0  0  0
 33 34  1  6  0  0  0
 33 35  1  0  0  0  0
 33 32  1  0  0  0  0
 36 35  1  0  0  0  0
M  END
>  <MODEL>
5

>  <REMARK>
 VINA RESULT:      -8.8      4.033      6.839
  Name = 
  6 active torsions:
  status: ('A' for Active; 'I' for Inactive)
    1  A    between atoms: C_4  and  C_25
    2  A    between atoms: C_4  and  C_32
    3  A    between atoms: C_5  and  C_34
    4  A    between atoms: C_7  and  C_34
    5  A    between atoms: C_7  and  C_35
    6  A    between atoms: N_27  and  C_32
                            x       y       z     vdW  Elec       q    Type
                         _______ _______ _______ _____ _____    ______ ____

>  <TORSDO>
F 6

$$$$
=
 OpenBabel10232411103D

 36 41  0  0  1  0  0  0  0  0999 V2000
  187.9630  177.9680  138.0330 C   0  0  0  0  0  0  0  0  0  0  0  0
  193.7910  175.3790  138.4660 C   0  0  0  0  0  3  0  0  0  0  0  0
  187.6530  178.0350  139.3790 C   0  0  0  0  0  0  0  0  0  0  0  0
  190.2440  177.0650  137.9090 C   0  0  0  0  0  0  0  0  0  0  0  0
  186.2910  178.4570  139.5600 C   0  0  0  0  0  0  0  0  0  0  0  0
  186.5980  178.3900  137.1890 S   0  0  0  0  0  0  0  0  0  0  0  0
  191.0940  176.5210  136.9250 O   0  0  0  0  0  0  0  0  0  0  0  0
  191.9810  177.5350  141.7790 C   0  0  0  0  0  3  0  0  0  0  0  0
  185.5670  178.7030  138.4390 N   0  0  0  0  0  0  0  0  0  0  0  0
  187.9410  177.5240  141.5610 O   0  0  0  0  0  0  0  0  0  0  0  0
  189.0480  177.4610  137.4360 N   0  0  0  0  0  0  0  0  0  0  0  0
  188.5060  177.7210  140.4490 C   0  0  0  0  0  0  0  0  0  0  0  0
  185.6980  178.6660  140.8400 N   0  0  0  0  0  1  0  0  0  0  0  0
  192.5040  176.6400  137.0010 C   0  0  2  0  0  3  0  0  0  0  0  0
  190.7120  177.2150  139.2610 C   0  0  0  0  0  0  0  0  0  0  0  0
  189.9300  177.6220  140.4080 C   0  0  0  0  0  0  0  0  0  0  0  0
  194.0870  174.9170  137.1610 N   0  0  0  0  0  0  0  0  0  0  0  0
  193.2250  175.5660  136.1880 C   0  0  0  0  0  2  0  0  0  0  0  0
  192.6910  177.0200  140.7220 C   0  0  0  0  0  3  0  0  0  0  0  0
  192.8980  176.3470  138.3860 C   0  0  0  0  0  0  0  0  0  0  0  0
  190.6360  177.8470  141.6430 C   0  0  0  0  0  0  0  0  0  0  0  0
  192.0850  176.8660  139.4850 C   0  0  0  0  0  0  0  0  0  0  0  0
  190.0250  178.5090  142.8450 C   0  0  0  0  0  2  0  0  0  0  0  0
  190.7090  178.0420  144.1230 C   0  0  0  0  0  2  0  0  0  0  0  0
  189.6870  177.6810  145.1540 C   0  0  0  0  0  0  0  0  0  0  0  0
  187.2800  177.4760  145.7940 C   0  0  0  0  0  2  0  0  0  0  0  0
  188.3880  177.7620  144.8170 C   0  0  0  0  0  3  0  0  0  0  0  0
  188.9950  177.0220  147.5190 C   0  0  0  0  0  2  0  0  0  0  0  0
  190.1260  177.4800  146.5940 C   0  0  1  0  0  3  0  0  0  0  0  0
  191.2690  176.4810  146.6830 C   0  0  0  0  0  1  0  0  0  0  0  0
  187.7140  177.7880  147.2190 C   0  0  0  0  0  2  0  0  0  0  0  0
  195.0200  173.8450  136.8480 C   0  0  0  0  0  2  0  0  0  0  0  0
  195.8810  173.5140  138.0610 C   0  0  1  0  0  3  0  0  0  0  0  0
  195.4260  172.3440  138.6790 O   0  0  0  0  0  1  0  0  0  0  0  0
  197.3500  173.3820  137.6770 C   0  0  0  0  0  2  0  0  0  0  0  0
  197.7710  174.4310  136.6550 C   0  0  0  0  0  1  0  0  0  0  0  0
  1  3  2  0  0  0  0
  3  5  1  0  0  0  0
  3 12  1  0  0  0  0
  4 15  1  0  0  0  0
  5 13  1  0  0  0  0
  6  1  1  0  0  0  0
  6  9  1  0  0  0  0
  7 14  1  0  0  0  0
  7  4  1  0  0  0  0
  9  5  2  0  0  0  0
 11  4  2  0  0  0  0
 11  1  1  0  0  0  0
 12 10  2  0  0  0  0
 14 18  1  6  0  0  0
 14 20  1  0  0  0  0
 15 22  2  0  0  0  0
 15 16  1  0  0  0  0
 16 12  1  0  0  0  0
 16 21  2  0  0  0  0
 17  2  1  0  0  0  0
 18 17  1  0  0  0  0
 19  8  2  0  0  0  0
 20  2  2  0  0  0  0
 20 22  1  0  0  0  0
 21  8  1  0  0  0  0
 21 23  1  0  0  0  0
 22 19  1  0  0  0  0
 23 24  1  0  0  0  0
 24 25  1  0  0  0  0
 25 29  1  0  0  0  0
 26 31  1  0  0  0  0
 27 25  2  0  0  0  0
 27 26  1  0  0  0  0
 29 30  1  6  0  0  0
 29 28  1  0  0  0  0
 31 28  1  0  0  0  0
 32 17  1  0  0  0  0
 32 33  1  0  0  0  0
 33 34  1  6  0  0  0
 35 33  1  0  0  0  0
 36 35  1  0  0  0  0
M  END
>  <MODEL>
6

>  <REMARK>
 VINA RESULT:      -8.5      4.232     10.278
  Name = 
  6 active torsions:
  status: ('A' for Active; 'I' for Inactive)
    1  A    between atoms: C_4  and  C_25
    2  A    between atoms: C_4  and  C_32
    3  A    between atoms: C_5  and  C_34
    4  A    between atoms: C_7  and  C_34
    5  A    between atoms: C_7  and  C_35
    6  A    between atoms: N_27  and  C_32
                            x       y       z     vdW  Elec       q    Type
                         _______ _______ _______ _____ _____    ______ ____

>  <TORSDO>
F 6

$$$$
=
 OpenBabel10232411103D

 36 41  0  0  1  0  0  0  0  0999 V2000
  184.2180  178.8930  142.8450 C   0  0  0  0  0  0  0  0  0  0  0  0
  187.2920  177.1420  137.5210 C   0  0  0  0  0  3  0  0  0  0  0  0
  185.1800  178.5480  143.7760 C   0  0  0  0  0  0  0  0  0  0  0  0
  185.1940  178.3910  140.6470 C   0  0  0  0  0  0  0  0  0  0  0  0
  184.6670  178.7070  145.1100 C   0  0  0  0  0  0  0  0  0  0  0  0
  182.8520  179.3280  143.6810 S   0  0  0  0  0  0  0  0  0  0  0  0
  184.7470  178.2610  139.3160 O   0  0  0  0  0  0  0  0  0  0  0  0
  189.4110  178.0400  141.2090 C   0  0  0  0  0  3  0  0  0  0  0  0
  183.3880  179.1410  145.2310 N   0  0  0  0  0  0  0  0  0  0  0  0
  187.0660  177.5120  144.4650 O   0  0  0  0  0  0  0  0  0  0  0  0
  184.2240  178.7260  141.5170 N   0  0  0  0  0  0  0  0  0  0  0  0
  186.4760  178.0810  143.5040 C   0  0  0  0  0  0  0  0  0  0  0  0
  185.4460  178.4740  146.2820 N   0  0  0  0  0  1  0  0  0  0  0  0
  185.5830  178.5550  138.2110 C   0  0  2  0  0  3  0  0  0  0  0  0
  186.5910  178.2350  140.9550 C   0  0  0  0  0  0  0  0  0  0  0  0
  187.1880  178.2010  142.2720 C   0  0  0  0  0  0  0  0  0  0  0  0
  186.2950  177.0970  136.5170 N   0  0  0  0  0  0  0  0  0  0  0  0
  185.1260  177.8550  136.9310 C   0  0  0  0  0  2  0  0  0  0  0  0
  188.8320  177.9370  139.9670 C   0  0  0  0  0  3  0  0  0  0  0  0
  186.8990  177.9580  138.4810 C   0  0  0  0  0  0  0  0  0  0  0  0
  188.6270  178.1820  142.3460 C   0  0  0  0  0  0  0  0  0  0  0  0
  187.4570  178.0380  139.8300 C   0  0  0  0  0  0  0  0  0  0  0  0
  189.4010  178.4000  143.6140 C   0  0  0  0  0  2  0  0  0  0  0  0
  190.5940  177.4560  143.6860 C   0  0  0  0  0  2  0  0  0  0  0  0
  190.7830  176.9680  145.0870 C   0  0  0  0  0  0  0  0  0  0  0  0
  190.1790  177.1350  147.5060 C   0  0  0  0  0  2  0  0  0  0  0  0
  190.0300  177.5140  146.0580 C   0  0  0  0  0  3  0  0  0  0  0  0
  191.9820  175.5700  146.8530 C   0  0  0  0  0  2  0  0  0  0  0  0
  191.9660  176.0700  145.4050 C   0  0  1  0  0  3  0  0  0  0  0  0
  192.0110  174.8720  144.4710 C   0  0  0  0  0  1  0  0  0  0  0  0
  191.6030  176.6920  147.8110 C   0  0  0  0  0  2  0  0  0  0  0  0
  186.3670  176.2940  135.3060 C   0  0  0  0  0  2  0  0  0  0  0  0
  186.3930  174.8090  135.6490 C   0  0  1  0  0  3  0  0  0  0  0  0
  185.2350  174.1790  135.1830 O   0  0  0  0  0  1  0  0  0  0  0  0
  187.6370  174.1340  135.0840 C   0  0  0  0  0  2  0  0  0  0  0  0
  188.6500  175.1450  134.5600 C   0  0  0  0  0  1  0  0  0  0  0  0
  1  6  1  0  0  0  0
  1  3  2  0  0  0  0
  2 20  2  0  0  0  0
  3  5  1  0  0  0  0
  4 15  1  0  0  0  0
  4 11  2  0  0  0  0
  5  9  2  0  0  0  0
  5 13  1  0  0  0  0
  6  9  1  0  0  0  0
  7  4  1  0  0  0  0
  8 21  1  0  0  0  0
 11  1  1  0  0  0  0
 12  3  1  0  0  0  0
 12 10  2  0  0  0  0
 14 18  1  6  0  0  0
 14 20  1  0  0  0  0
 14  7  1  0  0  0  0
 15 16  1  0  0  0  0
 16 21  2  0  0  0  0
 16 12  1  0  0  0  0
 17 18  1  0  0  0  0
 17  2  1  0  0  0  0
 19  8  2  0  0  0  0
 20 22  1  0  0  0  0
 21 23  1  0  0  0  0
 22 19  1  0  0  0  0
 22 15  2  0  0  0  0
 23 24  1  0  0  0  0
 24 25  1  0  0  0  0
 25 29  1  0  0  0  0
 25 27  2  0  0  0  0
 26 31  1  0  0  0  0
 27 26  1  0  0  0  0
 28 31  1  0  0  0  0
 29 30  1  6  0  0  0
 29 28  1  0  0  0  0
 32 33  1  0  0  0  0
 32 17  1  0  0  0  0
 33 34  1  6  0  0  0
 35 33  1  0  0  0  0
 36 35  1  0  0  0  0
M  END
>  <MODEL>
7

>  <REMARK>
 VINA RESULT:      -8.4      3.182      7.306
  Name = 
  6 active torsions:
  status: ('A' for Active; 'I' for Inactive)
    1  A    between atoms: C_4  and  C_25
    2  A    between atoms: C_4  and  C_32
    3  A    between atoms: C_5  and  C_34
    4  A    between atoms: C_7  and  C_34
    5  A    between atoms: C_7  and  C_35
    6  A    between atoms: N_27  and  C_32
                            x       y       z     vdW  Elec       q    Type
                         _______ _______ _______ _____ _____    ______ ____

>  <TORSDO>
F 6

$$$$
=
 OpenBabel10232411103D

 36 41  0  0  1  0  0  0  0  0999 V2000
  191.5060  176.5390  137.9080 C   0  0  0  0  0  0  0  0  0  0  0  0
  189.2610  177.6550  143.7870 C   0  0  0  0  0  3  0  0  0  0  0  0
  190.3040  176.4290  137.2320 C   0  0  0  0  0  0  0  0  0  0  0  0
  190.9270  177.0650  140.2370 C   0  0  0  0  0  0  0  0  0  0  0  0
  190.5290  176.0190  135.8720 C   0  0  0  0  0  0  0  0  0  0  0  0
  192.7110  176.1200  136.8470 S   0  0  0  0  0  0  0  0  0  0  0  0
  191.5730  177.0830  141.4890 O   0  0  0  0  0  0  0  0  0  0  0  0
  186.8900  178.4510  140.2320 C   0  0  0  0  0  3  0  0  0  0  0  0
  191.8150  175.8100  135.4950 N   0  0  0  0  0  0  0  0  0  0  0  0
  188.0630  176.1810  137.0950 O   0  0  0  0  0  0  0  0  0  0  0  0
  191.7320  176.7210  139.2140 N   0  0  0  0  0  0  0  0  0  0  0  0
  189.0240  176.6530  137.7630 C   0  0  0  0  0  0  0  0  0  0  0  0
  189.4810  175.8690  134.9170 N   0  0  0  0  0  1  0  0  0  0  0  0
  191.1830  177.9700  142.5220 C   0  0  2  0  0  3  0  0  0  0  0  0
  189.5480  177.4590  140.1320 C   0  0  0  0  0  0  0  0  0  0  0  0
  188.7070  177.3670  138.9590 C   0  0  0  0  0  0  0  0  0  0  0  0
  190.3610  177.4290  144.6510 N   0  0  0  0  0  0  0  0  0  0  0  0
  191.6070  177.4780  143.9060 C   0  0  0  0  0  2  0  0  0  0  0  0
  187.6440  178.4140  141.3800 C   0  0  0  0  0  3  0  0  0  0  0  0
  189.7140  177.9570  142.5860 C   0  0  0  0  0  0  0  0  0  0  0  0
  187.3940  177.9560  139.0370 C   0  0  0  0  0  0  0  0  0  0  0  0
  188.9460  177.9390  141.3420 C   0  0  0  0  0  0  0  0  0  0  0  0
  186.5030  178.1720  137.8480 C   0  0  0  0  0  2  0  0  0  0  0  0
  185.0860  178.5140  138.2910 C   0  0  0  0  0  2  0  0  0  0  0  0
  184.2480  177.2760  138.3430 C   0  0  0  0  0  0  0  0  0  0  0  0
  183.6680  175.0480  137.3730 C   0  0  0  0  0  2  0  0  0  0  0  0
  184.4880  176.3070  137.4430 C   0  0  0  0  0  3  0  0  0  0  0  0
  182.3070  175.8970  139.2580 C   0  0  0  0  0  2  0  0  0  0  0  0
  183.0140  177.2550  139.2290 C   0  0  1  0  0  3  0  0  0  0  0  0
  183.3550  177.6620  140.6520 C   0  0  0  0  0  1  0  0  0  0  0  0
  182.2470  175.2940  137.8610 C   0  0  0  0  0  2  0  0  0  0  0  0
  190.2560  177.0600  146.0550 C   0  0  0  0  0  2  0  0  0  0  0  0
  189.0430  177.7260  146.6940 C   0  0  1  0  0  3  0  0  0  0  0  0
  187.9100  176.9150  146.5540 O   0  0  0  0  0  1  0  0  0  0  0  0
  189.2970  178.0440  148.1620 C   0  0  0  0  0  2  0  0  0  0  0  0
  188.0120  178.0380  148.9810 C   0  0  0  0  0  1  0  0  0  0  0  0
  1 11  1  0  0  0  0
  2 17  1  0  0  0  0
  3 12  1  0  0  0  0
  3  1  2  0  0  0  0
  4  7  1  0  0  0  0
  5  3  1  0  0  0  0
  6  1  1  0  0  0  0
  7 14  1  0  0  0  0
  8 19  1  0  0  0  0
  9  5  2  0  0  0  0
  9  6  1  0  0  0  0
 10 12  2  0  0  0  0
 11  4  2  0  0  0  0
 12 16  1  0  0  0  0
 13  5  1  0  0  0  0
 14 20  1  0  0  0  0
 14 18  1  1  0  0  0
 15  4  1  0  0  0  0
 15 22  1  0  0  0  0
 16 21  1  0  0  0  0
 16 15  2  0  0  0  0
 17 32  1  0  0  0  0
 18 17  1  0  0  0  0
 20  2  2  0  0  0  0
 21  8  2  0  0  0  0
 22 19  2  0  0  0  0
 22 20  1  0  0  0  0
 23 24  1  0  0  0  0
 23 21  1  0  0  0  0
 24 25  1  0  0  0  0
 25 29  1  0  0  0  0
 26 27  1  0  0  0  0
 26 31  1  0  0  0  0
 27 25  2  0  0  0  0
 29 28  1  0  0  0  0
 29 30  1  1  0  0  0
 31 28  1  0  0  0  0
 32 33  1  0  0  0  0
 33 34  1  1  0  0  0
 33 35  1  0  0  0  0
 35 36  1  0  0  0  0
M  END
>  <MODEL>
8

>  <REMARK>
 VINA RESULT:      -8.3      3.870      7.427
  Name = 
  6 active torsions:
  status: ('A' for Active; 'I' for Inactive)
    1  A    between atoms: C_4  and  C_25
    2  A    between atoms: C_4  and  C_32
    3  A    between atoms: C_5  and  C_34
    4  A    between atoms: C_7  and  C_34
    5  A    between atoms: C_7  and  C_35
    6  A    between atoms: N_27  and  C_32
                            x       y       z     vdW  Elec       q    Type
                         _______ _______ _______ _____ _____    ______ ____

>  <TORSDO>
F 6

$$$$
=
 OpenBabel10232411103D

 36 41  0  0  1  0  0  0  0  0999 V2000
  183.0000  178.6720  141.7780 C   0  0  0  0  0  0  0  0  0  0  0  0
  189.0600  177.9380  143.6760 C   0  0  0  0  0  3  0  0  0  0  0  0
  183.2280  179.1490  140.5000 C   0  0  0  0  0  0  0  0  0  0  0  0
  185.2170  178.2140  142.7340 C   0  0  0  0  0  0  0  0  0  0  0  0
  181.9910  179.5480  139.8860 C   0  0  0  0  0  0  0  0  0  0  0  0
  181.3700  178.7880  142.0680 S   0  0  0  0  0  0  0  0  0  0  0  0
  185.7670  177.9520  144.0050 O   0  0  0  0  0  0  0  0  0  0  0  0
  187.9620  178.0210  139.4710 C   0  0  0  0  0  3  0  0  0  0  0  0
  180.8610  179.4050  140.6240 N   0  0  0  0  0  0  0  0  0  0  0  0
  184.5010  180.0250  138.8530 O   0  0  0  0  0  0  0  0  0  0  0  0
  183.8800  178.3680  142.7400 N   0  0  0  0  0  0  0  0  0  0  0  0
  184.4730  179.2680  139.8630 C   0  0  0  0  0  0  0  0  0  0  0  0
  181.9010  180.0350  138.5480 N   0  0  0  0  0  1  0  0  0  0  0  0
  186.9290  177.1590  144.1720 C   0  0  2  0  0  3  0  0  0  0  0  0
  186.0650  178.2290  141.5720 C   0  0  0  0  0  0  0  0  0  0  0  0
  185.6880  178.6130  140.2290 C   0  0  0  0  0  0  0  0  0  0  0  0
  188.9910  177.8010  145.0840 N   0  0  0  0  0  0  0  0  0  0  0  0
  187.6440  177.4420  145.4920 C   0  0  0  0  0  2  0  0  0  0  0  0
  188.3550  177.7860  140.7660 C   0  0  0  0  0  3  0  0  0  0  0  0
  187.9020  177.5810  143.1540 C   0  0  0  0  0  0  0  0  0  0  0  0
  186.6610  178.4130  139.1860 C   0  0  0  0  0  0  0  0  0  0  0  0
  187.4360  177.8770  141.8000 C   0  0  0  0  0  0  0  0  0  0  0  0
  186.3490  178.5180  137.7210 C   0  0  0  0  0  2  0  0  0  0  0  0
  187.0040  177.3800  136.9480 C   0  0  0  0  0  2  0  0  0  0  0  0
  186.1110  176.1800  136.9400 C   0  0  0  0  0  0  0  0  0  0  0  0
  183.8150  175.2250  137.1850 C   0  0  0  0  0  2  0  0  0  0  0  0
  184.7920  176.3670  137.1200 C   0  0  0  0  0  3  0  0  0  0  0  0
  185.7090  173.6620  136.8710 C   0  0  0  0  0  2  0  0  0  0  0  0
  186.7330  174.7940  136.9810 C   0  0  1  0  0  3  0  0  0  0  0  0
  187.7690  174.6280  135.8810 C   0  0  0  0  0  1  0  0  0  0  0  0
  184.4810  173.9660  137.7210 C   0  0  0  0  0  2  0  0  0  0  0  0
  190.0730  178.1140  146.0050 C   0  0  0  0  0  2  0  0  0  0  0  0
  189.9540  177.2780  147.2740 C   0  0  1  0  0  3  0  0  0  0  0  0
  191.1130  176.5190  147.4710 O   0  0  0  0  0  1  0  0  0  0  0  0
  189.6740  178.1550  148.4890 C   0  0  0  0  0  2  0  0  0  0  0  0
  188.2290  178.0380  148.9590 C   0  0  0  0  0  1  0  0  0  0  0  0
  1  6  1  0  0  0  0
  1 11  1  0  0  0  0
  2 17  1  0  0  0  0
  3  1  2  0  0  0  0
  4 11  2  0  0  0  0
  4  7  1  0  0  0  0
  5  3  1  0  0  0  0
  5  9  2  0  0  0  0
  7 14  1  0  0  0  0
  8 19  1  0  0  0  0
  9  6  1  0  0  0  0
 10 12  2  0  0  0  0
 12 16  1  0  0  0  0
 12  3  1  0  0  0  0
 13  5  1  0  0  0  0
 14 18  1  1  0  0  0
 15 22  1  0  0  0  0
 15  4  1  0  0  0  0
 16 15  2  0  0  0  0
 17 18  1  0  0  0  0
 17 32  1  0  0  0  0
 19 22  2  0  0  0  0
 20  2  2  0  0  0  0
 20 14  1  0  0  0  0
 21  8  2  0  0  0  0
 21 16  1  0  0  0  0
 22 20  1  0  0  0  0
 23 21  1  0  0  0  0
 24 23  1  0  0  0  0
 25 24  1  0  0  0  0
 25 29  1  0  0  0  0
 25 27  2  0  0  0  0
 26 31  1  0  0  0  0
 27 26  1  0  0  0  0
 28 29  1  0  0  0  0
 28 31  1  0  0  0  0
 29 30  1  6  0  0  0
 32 33  1  0  0  0  0
 33 34  1  1  0  0  0
 33 35  1  0  0  0  0
 35 36  1  0  0  0  0
M  END
>  <MODEL>
9

>  <REMARK>
 VINA RESULT:      -8.3      3.372      7.095
  Name = 
  6 active torsions:
  status: ('A' for Active; 'I' for Inactive)
    1  A    between atoms: C_4  and  C_25
    2  A    between atoms: C_4  and  C_32
    3  A    between atoms: C_5  and  C_34
    4  A    between atoms: C_7  and  C_34
    5  A    between atoms: C_7  and  C_35
    6  A    between atoms: N_27  and  C_32
                            x       y       z     vdW  Elec       q    Type
                         _______ _______ _______ _____ _____    ______ ____

>  <TORSDO>
F 6

$$$$
