=
 OpenBabel10232411323D

 27 31  0  0  1  0  0  0  0  0999 V2000
  189.6290  177.3130  143.0620 N   0  0  0  0  0  0  0  0  0  0  0  0
  190.7680  177.4060  145.3600 C   0  0  1  0  0  3  0  0  0  0  0  0
  187.1920  177.1020  144.5620 C   0  0  2  0  0  3  0  0  0  0  0  0
  185.8380  178.1190  145.2480 S   0  0  0  0  0  0  0  0  0  0  0  0
  189.6200  177.4400  144.4910 C   0  0  0  0  0  0  0  0  0  0  0  0
  191.0910  176.5800  147.4730 N   0  0  0  0  0  0  0  0  0  0  0  0
  186.1090  178.0360  142.6260 C   0  0  0  0  0  2  0  0  0  0  0  0
  191.8980  175.9960  146.6460 C   0  0  0  0  0  3  0  0  0  0  0  0
  185.2780  178.4230  143.5710 C   0  0  2  0  0  3  0  0  0  0  0  0
  188.5080  177.2840  142.4010 C   0  0  0  0  0  0  0  0  0  0  0  0
  190.3140  177.5790  146.7570 C   0  0  2  0  0  3  0  0  0  0  0  0
  188.5120  177.3870  145.2140 C   0  0  0  0  0  0  0  0  0  0  0  0
  191.6890  176.4590  145.2780 C   0  0  0  0  0  2  0  0  0  0  0  0
  187.2630  177.3800  143.1260 N   0  0  0  0  0  0  0  0  0  0  0  0
  188.8140  177.2500  146.6790 C   0  0  0  0  0  2  0  0  0  0  0  0
  188.3390  178.5850  140.2860 C   0  0  0  0  0  2  0  0  0  0  0  0
  188.5490  177.2210  140.9050 C   0  0  1  0  0  3  0  0  0  0  0  0
  189.8260  176.6880  140.4430 N   0  0  0  0  0  2  0  0  0  0  0  0
  189.2060  178.5600  139.0610 C   0  0  0  0  0  2  0  0  0  0  0  0
  190.3200  177.5990  139.4170 C   0  0  2  0  0  3  0  0  0  0  0  0
  190.7560  176.8120  138.1940 C   0  0  0  0  0  2  0  0  0  0  0  0
  190.8450  175.4000  138.5180 N   0  0  0  0  0  2  0  0  0  0  0  0
  191.8960  174.8460  137.6840 C   0  0  0  0  0  1  0  0  0  0  0  0
  184.0430  179.0650  143.2660 N   0  0  0  0  0  2  0  0  0  0  0  0
  182.9300  178.9260  144.1040 N   0  0  0  0  0  2  0  0  0  0  0  0
  181.7560  179.1470  143.2800 C   0  0  0  0  0  2  0  0  0  0  0  0
  180.5530  178.5010  143.9320 C   0  0  0  0  0  1  0  0  0  0  0  0
  1  5  1  0  0  0  0
  2 13  1  1  0  0  0
  2 11  1  0  0  0  0
  3 12  1  1  0  0  0
  3  4  1  0  0  0  0
  5 12  2  0  0  0  0
  5  2  1  0  0  0  0
  7 14  1  0  0  0  0
  7  9  1  0  0  0  0
  8  6  2  0  0  0  0
  9 24  1  1  0  0  0
  9  4  1  0  0  0  0
 10  1  2  0  0  0  0
 10 14  1  0  0  0  0
 11 15  1  6  0  0  0
 11  6  1  0  0  0  0
 12 15  1  0  0  0  0
 13  8  1  0  0  0  0
 14  3  1  0  0  0  0
 16 17  1  0  0  0  0
 17 10  1  1  0  0  0
 18 17  1  0  0  0  0
 19 20  1  0  0  0  0
 19 16  1  0  0  0  0
 20 21  1  6  0  0  0
 20 18  1  0  0  0  0
 21 22  1  0  0  0  0
 23 22  1  0  0  0  0
 24 25  1  0  0  0  0
 26 27  1  0  0  0  0
 26 25  1  0  0  0  0
M  END
>  <MODEL>
1

>  <REMARK>
 VINA RESULT:      -8.3      0.000      0.000
  Name = 
  6 active torsions:
  status: ('A' for Active; 'I' for Inactive)
    1  A    between atoms: N_3  and  C_6
    2  A    between atoms: C_5  and  N_18
    3  A    between atoms: C_6  and  C_19
    4  A    between atoms: C_7  and  C_20
    5  A    between atoms: N_11  and  C_15
    6  A    between atoms: N_11  and  N_18
                            x       y       z     vdW  Elec       q    Type
                         _______ _______ _______ _____ _____    ______ ____

>  <TORSDO>
F 6

$$$$
=
 OpenBabel10232411323D

 27 31  0  0  1  0  0  0  0  0999 V2000
  190.2170  177.7390  142.6300 N   0  0  0  0  0  0  0  0  0  0  0  0
  190.5380  177.6860  145.1760 C   0  0  1  0  0  3  0  0  0  0  0  0
  187.4350  177.3690  143.2290 C   0  0  2  0  0  3  0  0  0  0  0  0
  185.8890  178.3050  143.4950 S   0  0  0  0  0  0  0  0  0  0  0  0
  189.7360  177.7600  143.9810 C   0  0  0  0  0  0  0  0  0  0  0  0
  190.1890  176.7130  147.2210 N   0  0  0  0  0  0  0  0  0  0  0  0
  187.0040  178.4200  141.1070 C   0  0  0  0  0  2  0  0  0  0  0  0
  191.2460  176.2080  146.6700 C   0  0  0  0  0  3  0  0  0  0  0  0
  185.8940  178.7200  141.7490 C   0  0  0  0  0  0  0  0  0  0  0  0
  189.3750  177.7350  141.6370 C   0  0  0  0  0  0  0  0  0  0  0  0
  189.6450  177.7460  146.3540 C   0  0  2  0  0  3  0  0  0  0  0  0
  188.4560  177.6320  144.2950 C   0  0  0  0  0  0  0  0  0  0  0  0
  191.4750  176.7660  145.3420 C   0  0  0  0  0  2  0  0  0  0  0  0
  187.9590  177.7530  141.9160 N   0  0  0  0  0  0  0  0  0  0  0  0
  188.2690  177.3940  145.7670 C   0  0  0  0  0  2  0  0  0  0  0  0
  191.3700  177.4110  140.1850 C   0  0  0  0  0  2  0  0  0  0  0  0
  189.9050  177.7830  140.2370 C   0  0  1  0  0  3  0  0  0  0  0  0
  189.1600  176.8780  139.3680 N   0  0  0  0  0  2  0  0  0  0  0  0
  191.5110  176.6860  138.8780 C   0  0  0  0  0  2  0  0  0  0  0  0
  190.1430  176.0800  138.6430 C   0  0  2  0  0  3  0  0  0  0  0  0
  189.8100  176.0720  137.1620 C   0  0  0  0  0  2  0  0  0  0  0  0
  189.8440  177.4250  136.6370 N   0  0  0  0  0  2  0  0  0  0  0  0
  188.6620  177.5820  135.8110 C   0  0  0  0  0  1  0  0  0  0  0  0
  184.8000  179.3580  141.0950 N   0  0  0  0  0  0  0  0  0  0  0  0
  184.8260  179.6020  139.7160 N   0  0  0  0  0  2  0  0  0  0  0  0
  183.6170  179.0170  139.1670 C   0  0  0  0  0  2  0  0  0  0  0  0
  182.6400  180.1180  138.8140 C   0  0  0  0  0  1  0  0  0  0  0  0
  1  5  1  0  0  0  0
  2 13  1  6  0  0  0
  2 11  1  0  0  0  0
  3  4  1  1  0  0  0
  3 12  1  0  0  0  0
  5 12  2  0  0  0  0
  5  2  1  0  0  0  0
  7  9  1  0  0  0  0
  7 14  1  0  0  0  0
  8  6  2  0  0  0  0
  9  4  1  0  0  0  0
 10 14  1  0  0  0  0
 10  1  2  0  0  0  0
 11 15  1  6  0  0  0
 11  6  1  0  0  0  0
 12 15  1  0  0  0  0
 13  8  1  0  0  0  0
 14  3  1  0  0  0  0
 16 17  1  0  0  0  0
 17 10  1  1  0  0  0
 18 17  1  0  0  0  0
 19 16  1  0  0  0  0
 20 21  1  6  0  0  0
 20 19  1  0  0  0  0
 20 18  1  0  0  0  0
 22 21  1  0  0  0  0
 23 22  1  0  0  0  0
 24  9  2  0  0  0  0
 25 24  1  0  0  0  0
 26 25  1  0  0  0  0
 27 26  1  0  0  0  0
M  END
>  <MODEL>
2

>  <REMARK>
 VINA RESULT:      -7.9      2.012      2.454
  Name = 
  6 active torsions:
  status: ('A' for Active; 'I' for Inactive)
    1  A    between atoms: N_3  and  C_6
    2  A    between atoms: C_5  and  N_18
    3  A    between atoms: C_6  and  C_19
    4  A    between atoms: C_7  and  C_20
    5  A    between atoms: N_11  and  C_15
    6  A    between atoms: N_11  and  N_18
                            x       y       z     vdW  Elec       q    Type
                         _______ _______ _______ _____ _____    ______ ____

>  <TORSDO>
F 6

$$$$
=
 OpenBabel10232411323D

 27 31  0  0  1  0  0  0  0  0999 V2000
  187.3950  177.9200  141.9850 N   0  0  0  0  0  0  0  0  0  0  0  0
  188.3260  178.3740  139.6370 C   0  0  1  0  0  3  0  0  0  0  0  0
  189.9210  176.6450  142.4620 C   0  0  2  0  0  3  0  0  0  0  0  0
  191.5890  176.9730  143.1320 S   0  0  0  0  0  0  0  0  0  0  0  0
  188.4490  177.9670  141.0130 C   0  0  0  0  0  0  0  0  0  0  0  0
  189.3430  177.6620  137.7100 N   0  0  0  0  0  0  0  0  0  0  0  0
  189.5440  177.1310  144.7890 C   0  0  0  0  0  2  0  0  0  0  0  0
  188.0610  177.5060  137.6130 C   0  0  0  0  0  3  0  0  0  0  0  0
  190.8600  177.0920  144.7660 C   0  0  2  0  0  3  0  0  0  0  0  0
  187.6280  177.4570  143.1790 C   0  0  0  0  0  0  0  0  0  0  0  0
  189.6530  178.2780  138.9900 C   0  0  2  0  0  3  0  0  0  0  0  0
  189.6410  177.4240  141.2120 C   0  0  0  0  0  0  0  0  0  0  0  0
  187.3800  177.9010  138.8410 C   0  0  0  0  0  2  0  0  0  0  0  0
  188.9550  176.9930  143.5070 N   0  0  0  0  0  0  0  0  0  0  0  0
  190.4380  177.3580  139.9400 C   0  0  0  0  0  2  0  0  0  0  0  0
  186.9320  178.2590  145.4300 C   0  0  0  0  0  2  0  0  0  0  0  0
  186.5270  177.4850  144.1950 C   0  0  1  0  0  3  0  0  0  0  0  0
  185.3210  178.0880  143.6380 N   0  0  0  0  0  2  0  0  0  0  0  0
  185.6580  178.9190  145.8730 C   0  0  0  0  0  2  0  0  0  0  0  0
  184.8680  179.0920  144.5930 C   0  0  2  0  0  3  0  0  0  0  0  0
  183.3830  178.9220  144.8560 C   0  0  0  0  0  2  0  0  0  0  0  0
  182.6350  179.1160  143.6260 N   0  0  0  0  0  2  0  0  0  0  0  0
  181.2680  178.7150  143.9020 C   0  0  0  0  0  1  0  0  0  0  0  0
  191.6320  177.1750  145.9610 N   0  0  0  0  0  2  0  0  0  0  0  0
  191.1640  176.6290  147.1630 N   0  0  0  0  0  2  0  0  0  0  0  0
  192.0030  175.4820  147.4550 C   0  0  0  0  0  2  0  0  0  0  0  0
  192.9840  175.8400  148.5500 C   0  0  0  0  0  1  0  0  0  0  0  0
  1 10  2  0  0  0  0
  2 13  1  6  0  0  0
  2  5  1  0  0  0  0
  3 12  1  6  0  0  0
  3  4  1  0  0  0  0
  3 14  1  0  0  0  0
  4  9  1  0  0  0  0
  5 12  2  0  0  0  0
  5  1  1  0  0  0  0
  6 11  1  0  0  0  0
  8  6  2  0  0  0  0
  8 13  1  0  0  0  0
  9  7  1  0  0  0  0
  9 24  1  6  0  0  0
 10 14  1  0  0  0  0
 11  2  1  0  0  0  0
 11 15  1  1  0  0  0
 14  7  1  0  0  0  0
 15 12  1  0  0  0  0
 16 19  1  0  0  0  0
 17 10  1  6  0  0  0
 17 16  1  0  0  0  0
 18 17  1  0  0  0  0
 18 20  1  0  0  0  0
 20 21  1  1  0  0  0
 20 19  1  0  0  0  0
 22 23  1  0  0  0  0
 22 21  1  0  0  0  0
 24 25  1  0  0  0  0
 25 26  1  0  0  0  0
 26 27  1  0  0  0  0
M  END
>  <MODEL>
3

>  <REMARK>
 VINA RESULT:      -7.8      1.925      7.685
  Name = 
  6 active torsions:
  status: ('A' for Active; 'I' for Inactive)
    1  A    between atoms: N_3  and  C_6
    2  A    between atoms: C_5  and  N_18
    3  A    between atoms: C_6  and  C_19
    4  A    between atoms: C_7  and  C_20
    5  A    between atoms: N_11  and  C_15
    6  A    between atoms: N_11  and  N_18
                            x       y       z     vdW  Elec       q    Type
                         _______ _______ _______ _____ _____    ______ ____

>  <TORSDO>
F 6

$$$$
=
 OpenBabel10232411323D

 27 31  0  0  1  0  0  0  0  0999 V2000
  187.2480  177.3640  144.5950 N   0  0  0  0  0  0  0  0  0  0  0  0
  188.4370  177.1170  146.8570 C   0  0  1  0  0  3  0  0  0  0  0  0
  189.8300  178.1370  143.6100 C   0  0  2  0  0  3  0  0  0  0  0  0
  191.3220  177.4520  142.8080 S   0  0  0  0  0  0  0  0  0  0  0  0
  188.4150  177.2940  145.4270 C   0  0  0  0  0  0  0  0  0  0  0  0
  189.8110  177.9330  148.5000 N   0  0  0  0  0  0  0  0  0  0  0  0
  189.0570  177.3820  141.4600 C   0  0  0  0  0  2  0  0  0  0  0  0
  188.5900  178.3040  148.7240 C   0  0  0  0  0  3  0  0  0  0  0  0
  190.3550  177.2130  141.3160 C   0  0  2  0  0  3  0  0  0  0  0  0
  187.3670  177.6040  143.3220 C   0  0  0  0  0  0  0  0  0  0  0  0
  189.8450  177.0940  147.3130 C   0  0  2  0  0  3  0  0  0  0  0  0
  189.6290  177.6040  144.9970 C   0  0  0  0  0  0  0  0  0  0  0  0
  187.6910  177.8460  147.6710 C   0  0  0  0  0  2  0  0  0  0  0  0
  188.6840  177.7980  142.7630 N   0  0  0  0  0  0  0  0  0  0  0  0
  190.6030  177.7280  146.1350 C   0  0  0  0  0  2  0  0  0  0  0  0
  184.9340  178.1170  143.2240 C   0  0  0  0  0  2  0  0  0  0  0  0
  186.1380  177.6030  142.4660 C   0  0  1  0  0  3  0  0  0  0  0  0
  186.3310  178.4280  141.2780 N   0  0  0  0  0  2  0  0  0  0  0  0
  184.1380  178.8460  142.1810 C   0  0  0  0  0  2  0  0  0  0  0  0
  185.1770  179.3150  141.1840 C   0  0  2  0  0  3  0  0  0  0  0  0
  184.6160  179.2850  139.7740 C   0  0  0  0  0  2  0  0  0  0  0  0
  185.6210  178.7910  138.8500 N   0  0  0  0  0  2  0  0  0  0  0  0
  184.9410  177.8920  137.9350 C   0  0  0  0  0  1  0  0  0  0  0  0
  190.9270  176.8330  140.0670 N   0  0  0  0  0  2  0  0  0  0  0  0
  190.1680  176.1640  139.0990 N   0  0  0  0  0  2  0  0  0  0  0  0
  190.3580  176.8810  137.8520 C   0  0  0  0  0  2  0  0  0  0  0  0
  189.3590  178.0150  137.7660 C   0  0  0  0  0  1  0  0  0  0  0  0
  1  5  1  0  0  0  0
  2 11  1  0  0  0  0
  2 13  1  1  0  0  0
  3  4  1  6  0  0  0
  3 12  1  0  0  0  0
  5  2  1  0  0  0  0
  6  8  2  0  0  0  0
  7 14  1  0  0  0  0
  9 24  1  1  0  0  0
  9  7  1  0  0  0  0
  9  4  1  0  0  0  0
 10  1  2  0  0  0  0
 11 15  1  6  0  0  0
 11  6  1  0  0  0  0
 12  5  2  0  0  0  0
 12 15  1  0  0  0  0
 13  8  1  0  0  0  0
 14 10  1  0  0  0  0
 14  3  1  0  0  0  0
 17 16  1  0  0  0  0
 17 10  1  1  0  0  0
 18 17  1  0  0  0  0
 19 16  1  0  0  0  0
 20 21  1  6  0  0  0
 20 18  1  0  0  0  0
 20 19  1  0  0  0  0
 22 21  1  0  0  0  0
 23 22  1  0  0  0  0
 25 24  1  0  0  0  0
 26 25  1  0  0  0  0
 27 26  1  0  0  0  0
M  END
>  <MODEL>
4

>  <REMARK>
 VINA RESULT:      -7.6      2.209      5.420
  Name = 
  6 active torsions:
  status: ('A' for Active; 'I' for Inactive)
    1  A    between atoms: N_3  and  C_6
    2  A    between atoms: C_5  and  N_18
    3  A    between atoms: C_6  and  C_19
    4  A    between atoms: C_7  and  C_20
    5  A    between atoms: N_11  and  C_15
    6  A    between atoms: N_11  and  N_18
                            x       y       z     vdW  Elec       q    Type
                         _______ _______ _______ _____ _____    ______ ____

>  <TORSDO>
F 6

$$$$
=
 OpenBabel10232411323D

 27 31  0  0  1  0  0  0  0  0999 V2000
  187.1780  178.0900  142.3440 N   0  0  0  0  0  0  0  0  0  0  0  0
  184.9710  178.1440  143.6530 C   0  0  1  0  0  3  0  0  0  0  0  0
  188.4180  178.3040  144.9220 C   0  0  2  0  0  3  0  0  0  0  0  0
  189.1280  177.2830  146.2610 S   0  0  0  0  0  0  0  0  0  0  0  0
  186.4040  178.0340  143.5500 C   0  0  0  0  0  0  0  0  0  0  0  0
  183.5950  179.0820  145.2270 N   0  0  0  0  0  0  0  0  0  0  0  0
  190.3290  177.2450  143.9130 C   0  0  0  0  0  2  0  0  0  0  0  0
  183.3980  179.6480  144.0790 C   0  0  0  0  0  3  0  0  0  0  0  0
  190.4930  176.8820  145.1680 C   0  0  2  0  0  3  0  0  0  0  0  0
  188.4780  178.0540  142.4000 C   0  0  0  0  0  0  0  0  0  0  0  0
  184.5840  178.0270  145.0760 C   0  0  2  0  0  3  0  0  0  0  0  0
  186.9430  178.0900  144.7590 C   0  0  0  0  0  0  0  0  0  0  0  0
  184.2920  179.1120  143.0580 C   0  0  0  0  0  2  0  0  0  0  0  0
  189.1240  177.9580  143.6870 N   0  0  0  0  0  0  0  0  0  0  0  0
  185.9010  178.3080  145.8190 C   0  0  0  0  0  2  0  0  0  0  0  0
  189.5120  176.6340  140.6360 C   0  0  0  0  0  2  0  0  0  0  0  0
  189.2590  178.0450  141.1210 C   0  0  1  0  0  3  0  0  0  0  0  0
  188.5550  178.7810  140.0770 N   0  0  0  0  0  2  0  0  0  0  0  0
  189.4610  176.7550  139.1410 C   0  0  0  0  0  2  0  0  0  0  0  0
  188.5300  177.9240  138.8970 C   0  0  2  0  0  3  0  0  0  0  0  0
  188.9730  178.7120  137.6770 C   0  0  0  0  0  2  0  0  0  0  0  0
  187.8130  179.2150  136.9630 N   0  0  0  0  0  2  0  0  0  0  0  0
  187.1370  178.0600  136.3990 C   0  0  0  0  0  1  0  0  0  0  0  0
  191.6610  176.1890  145.6010 N   0  0  0  0  0  2  0  0  0  0  0  0
  192.3410  176.5760  146.7620 N   0  0  0  0  0  2  0  0  0  0  0  0
  192.2660  175.4570  147.6820 C   0  0  0  0  0  2  0  0  0  0  0  0
  193.1120  175.7500  148.9030 C   0  0  0  0  0  1  0  0  0  0  0  0
  1 10  2  0  0  0  0
  1  5  1  0  0  0  0
  2 13  1  1  0  0  0
  2 11  1  0  0  0  0
  3 12  1  6  0  0  0
  3  4  1  0  0  0  0
  5  2  1  0  0  0  0
  5 12  2  0  0  0  0
  7  9  1  0  0  0  0
  8  6  2  0  0  0  0
  9 24  1  6  0  0  0
  9  4  1  0  0  0  0
 10 14  1  0  0  0  0
 11  6  1  0  0  0  0
 11 15  1  1  0  0  0
 12 15  1  0  0  0  0
 13  8  1  0  0  0  0
 14  7  1  0  0  0  0
 14  3  1  0  0  0  0
 16 17  1  0  0  0  0
 17 10  1  1  0  0  0
 18 17  1  0  0  0  0
 19 16  1  0  0  0  0
 20 21  1  6  0  0  0
 20 19  1  0  0  0  0
 20 18  1  0  0  0  0
 22 21  1  0  0  0  0
 23 22  1  0  0  0  0
 24 25  1  0  0  0  0
 25 26  1  0  0  0  0
 26 27  1  0  0  0  0
M  END
>  <MODEL>
5

>  <REMARK>
 VINA RESULT:      -7.4      1.887      6.079
  Name = 
  6 active torsions:
  status: ('A' for Active; 'I' for Inactive)
    1  A    between atoms: N_3  and  C_6
    2  A    between atoms: C_5  and  N_18
    3  A    between atoms: C_6  and  C_19
    4  A    between atoms: C_7  and  C_20
    5  A    between atoms: N_11  and  C_15
    6  A    between atoms: N_11  and  N_18
                            x       y       z     vdW  Elec       q    Type
                         _______ _______ _______ _____ _____    ______ ____

>  <TORSDO>
F 6

$$$$
=
 OpenBabel10232411323D

 27 31  0  0  1  0  0  0  0  0999 V2000
  189.9130  177.8650  142.9200 N   0  0  0  0  0  0  0  0  0  0  0  0
  190.7300  177.6220  145.3410 C   0  0  1  0  0  3  0  0  0  0  0  0
  187.3340  177.2090  143.9930 C   0  0  2  0  0  3  0  0  0  0  0  0
  185.8100  177.9830  144.6390 S   0  0  0  0  0  0  0  0  0  0  0  0
  189.7060  177.7300  144.3330 C   0  0  0  0  0  0  0  0  0  0  0  0
  190.8550  176.4520  147.3080 N   0  0  0  0  0  0  0  0  0  0  0  0
  186.4260  178.3970  142.1080 C   0  0  0  0  0  2  0  0  0  0  0  0
  191.8150  176.0880  146.5190 C   0  0  0  0  0  3  0  0  0  0  0  0
  185.4450  178.5440  142.9740 C   0  0  0  0  0  0  0  0  0  0  0  0
  188.8950  177.8750  142.1090 C   0  0  0  0  0  0  0  0  0  0  0  0
  190.0830  177.5050  146.6670 C   0  0  2  0  0  3  0  0  0  0  0  0
  188.5240  177.4660  144.8690 C   0  0  0  0  0  0  0  0  0  0  0  0
  191.7410  176.7750  145.2340 C   0  0  0  0  0  2  0  0  0  0  0  0
  187.5630  177.7470  142.6510 N   0  0  0  0  0  0  0  0  0  0  0  0
  188.6460  177.0880  146.3180 C   0  0  0  0  0  2  0  0  0  0  0  0
  190.5400  177.6850  140.2510 C   0  0  0  0  0  2  0  0  0  0  0  0
  189.1360  178.0880  140.6460 C   0  0  1  0  0  3  0  0  0  0  0  0
  188.1860  177.3220  139.8460 N   0  0  0  0  0  2  0  0  0  0  0  0
  190.3770  177.1310  138.8650 C   0  0  0  0  0  2  0  0  0  0  0  0
  188.9610  176.5980  138.8450 C   0  0  2  0  0  3  0  0  0  0  0  0
  188.3380  176.7890  137.4730 C   0  0  0  0  0  2  0  0  0  0  0  0
  187.2000  177.6860  137.5640 N   0  0  0  0  0  2  0  0  0  0  0  0
  187.3500  178.6590  136.4980 C   0  0  0  0  0  1  0  0  0  0  0  0
  184.2040  179.1400  142.6060 N   0  0  0  0  0  0  0  0  0  0  0  0
  183.1360  179.2000  143.5100 N   0  0  0  0  0  2  0  0  0  0  0  0
  181.9290  178.9360  142.7490 C   0  0  0  0  0  2  0  0  0  0  0  0
  180.7670  178.7390  143.6980 C   0  0  0  0  0  1  0  0  0  0  0  0
  1  5  1  0  0  0  0
  2 13  1  6  0  0  0
  2 11  1  0  0  0  0
  3  4  1  1  0  0  0
  3 12  1  0  0  0  0
  5 12  2  0  0  0  0
  5  2  1  0  0  0  0
  7 14  1  0  0  0  0
  7  9  1  0  0  0  0
  8  6  2  0  0  0  0
  9  4  1  0  0  0  0
 10 14  1  0  0  0  0
 10  1  2  0  0  0  0
 11 15  1  6  0  0  0
 11  6  1  0  0  0  0
 12 15  1  0  0  0  0
 13  8  1  0  0  0  0
 14  3  1  0  0  0  0
 16 17  1  0  0  0  0
 17 10  1  1  0  0  0
 18 17  1  0  0  0  0
 19 16  1  0  0  0  0
 20 21  1  6  0  0  0
 20 19  1  0  0  0  0
 20 18  1  0  0  0  0
 21 22  1  0  0  0  0
 23 22  1  0  0  0  0
 24  9  2  0  0  0  0
 24 25  1  0  0  0  0
 26 25  1  0  0  0  0
 26 27  1  0  0  0  0
M  END
>  <MODEL>
6

>  <REMARK>
 VINA RESULT:      -7.4      1.316      1.770
  Name = 
  6 active torsions:
  status: ('A' for Active; 'I' for Inactive)
    1  A    between atoms: N_3  and  C_6
    2  A    between atoms: C_5  and  N_18
    3  A    between atoms: C_6  and  C_19
    4  A    between atoms: C_7  and  C_20
    5  A    between atoms: N_11  and  C_15
    6  A    between atoms: N_11  and  N_18
                            x       y       z     vdW  Elec       q    Type
                         _______ _______ _______ _____ _____    ______ ____

>  <TORSDO>
F 6

$$$$
=
 OpenBabel10232411323D

 27 31  0  0  1  0  0  0  0  0999 V2000
  190.7100  176.6530  140.0540 N   0  0  0  0  0  0  0  0  0  0  0  0
  191.7370  175.5570  137.9730 C   0  0  1  0  0  3  0  0  0  0  0  0
  189.1040  178.1150  138.1790 C   0  0  2  0  0  3  0  0  0  0  0  0
  187.4810  178.0700  137.3390 S   0  0  0  0  0  0  0  0  0  0  0  0
  190.7520  176.3620  138.6500 C   0  0  0  0  0  0  0  0  0  0  0  0
  192.6990  175.7020  135.8980 N   0  0  0  0  0  0  0  0  0  0  0  0
  187.5040  178.3320  139.9640 C   0  0  0  0  0  2  0  0  0  0  0  0
  193.6140  175.7690  136.8120 C   0  0  0  0  0  3  0  0  0  0  0  0
  186.7060  178.4160  138.9200 C   0  0  2  0  0  3  0  0  0  0  0  0
  189.8050  177.4620  140.5260 C   0  0  0  0  0  0  0  0  0  0  0  0
  191.4040  175.5100  136.5320 C   0  0  2  0  0  3  0  0  0  0  0  0
  189.9980  176.9870  137.7590 C   0  0  0  0  0  0  0  0  0  0  0  0
  193.0360  175.7310  138.1510 C   0  0  0  0  0  2  0  0  0  0  0  0
  188.8520  178.0560  139.6200 N   0  0  0  0  0  0  0  0  0  0  0  0
  190.4510  176.7020  136.3550 C   0  0  0  0  0  2  0  0  0  0  0  0
  188.7880  176.7300  142.6770 C   0  0  0  0  0  2  0  0  0  0  0  0
  189.7410  177.6930  142.0050 C   0  0  1  0  0  3  0  0  0  0  0  0
  191.0600  177.5470  142.6110 N   0  0  0  0  0  2  0  0  0  0  0  0
  189.4240  176.4670  144.0100 C   0  0  0  0  0  2  0  0  0  0  0  0
  190.9040  176.6580  143.7570 C   0  0  2  0  0  3  0  0  0  0  0  0
  191.5810  177.2620  144.9740 C   0  0  0  0  0  2  0  0  0  0  0  0
  191.9820  176.2110  145.8930 N   0  0  0  0  0  2  0  0  0  0  0  0
  191.4020  176.5400  147.1820 C   0  0  0  0  0  1  0  0  0  0  0  0
  185.3210  178.7250  139.0590 N   0  0  0  0  0  2  0  0  0  0  0  0
  184.8650  179.5400  140.1030 N   0  0  0  0  0  2  0  0  0  0  0  0
  183.9310  178.7430  140.8760 C   0  0  0  0  0  2  0  0  0  0  0  0
  184.5060  178.4870  142.2530 C   0  0  0  0  0  1  0  0  0  0  0  0
  1 10  2  0  0  0  0
  2 13  1  6  0  0  0
  2  5  1  0  0  0  0
  3  4  1  6  0  0  0
  3 14  1  0  0  0  0
  4  9  1  0  0  0  0
  5  1  1  0  0  0  0
  6 11  1  0  0  0  0
  6  8  2  0  0  0  0
  8 13  1  0  0  0  0
  9 24  1  1  0  0  0
  9  7  1  0  0  0  0
 11 15  1  1  0  0  0
 11  2  1  0  0  0  0
 12  3  1  0  0  0  0
 12  5  2  0  0  0  0
 14  7  1  0  0  0  0
 14 10  1  0  0  0  0
 15 12  1  0  0  0  0
 16 19  1  0  0  0  0
 17 10  1  6  0  0  0
 17 18  1  0  0  0  0
 17 16  1  0  0  0  0
 18 20  1  0  0  0  0
 20 19  1  0  0  0  0
 20 21  1  1  0  0  0
 21 22  1  0  0  0  0
 22 23  1  0  0  0  0
 24 25  1  0  0  0  0
 25 26  1  0  0  0  0
 26 27  1  0  0  0  0
M  END
>  <MODEL>
7

>  <REMARK>
 VINA RESULT:      -7.2      2.606      6.586
  Name = 
  6 active torsions:
  status: ('A' for Active; 'I' for Inactive)
    1  A    between atoms: N_3  and  C_6
    2  A    between atoms: C_5  and  N_18
    3  A    between atoms: C_6  and  C_19
    4  A    between atoms: C_7  and  C_20
    5  A    between atoms: N_11  and  C_15
    6  A    between atoms: N_11  and  N_18
                            x       y       z     vdW  Elec       q    Type
                         _______ _______ _______ _____ _____    ______ ____

>  <TORSDO>
F 6

$$$$
=
 OpenBabel10232411323D

 27 31  0  0  1  0  0  0  0  0999 V2000
  187.5820  178.7720  140.3500 N   0  0  0  0  0  0  0  0  0  0  0  0
  189.3170  178.3490  138.5060 C   0  0  1  0  0  3  0  0  0  0  0  0
  188.9090  176.6380  141.7340 C   0  0  2  0  0  3  0  0  0  0  0  0
  190.2200  176.3250  142.9690 S   0  0  0  0  0  0  0  0  0  0  0  0
  188.7840  178.1820  139.8340 C   0  0  0  0  0  0  0  0  0  0  0  0
  190.4410  176.9350  137.0960 N   0  0  0  0  0  0  0  0  0  0  0  0
  188.0770  177.6460  143.7550 C   0  0  0  0  0  2  0  0  0  0  0  0
  189.3440  177.3350  136.5340 C   0  0  0  0  0  3  0  0  0  0  0  0
  189.1480  177.0380  144.2190 C   0  0  0  0  0  0  0  0  0  0  0  0
  187.1720  178.4760  141.5490 C   0  0  0  0  0  0  0  0  0  0  0  0
  190.5720  177.5740  138.3950 C   0  0  2  0  0  3  0  0  0  0  0  0
  189.4460  177.2230  140.4630 C   0  0  0  0  0  0  0  0  0  0  0  0
  188.5730  178.1990  137.4220 C   0  0  0  0  0  2  0  0  0  0  0  0
  187.9410  177.5500  142.3460 N   0  0  0  0  0  0  0  0  0  0  0  0
  190.4810  176.5920  139.5750 C   0  0  0  0  0  2  0  0  0  0  0  0
  184.7130  178.7760  141.3100 C   0  0  0  0  0  2  0  0  0  0  0  0
  185.9520  179.1590  142.0880 C   0  0  1  0  0  3  0  0  0  0  0  0
  185.7460  178.8240  143.4920 N   0  0  0  0  0  2  0  0  0  0  0  0
  183.6290  178.7600  142.3470 C   0  0  0  0  0  2  0  0  0  0  0  0
  184.3520  178.4180  143.6320 C   0  0  2  0  0  3  0  0  0  0  0  0
  183.7200  179.1380  144.8090 C   0  0  0  0  0  2  0  0  0  0  0  0
  184.7440  179.5190  145.7670 N   0  0  0  0  0  2  0  0  0  0  0  0
  184.8450  178.4330  146.7230 C   0  0  0  0  0  1  0  0  0  0  0  0
  189.4380  176.9910  145.6140 N   0  0  0  0  0  0  0  0  0  0  0  0
  188.5010  177.4240  146.5600 N   0  0  0  0  0  2  0  0  0  0  0  0
  189.2510  177.8340  147.7330 C   0  0  0  0  0  2  0  0  0  0  0  0
  188.3030  178.0280  148.8960 C   0  0  0  0  0  1  0  0  0  0  0  0
  1 10  2  0  0  0  0
  2 13  1  6  0  0  0
  2  5  1  0  0  0  0
  3 12  1  6  0  0  0
  3 14  1  0  0  0  0
  3  4  1  0  0  0  0
  4  9  1  0  0  0  0
  5  1  1  0  0  0  0
  5 12  2  0  0  0  0
  6 11  1  0  0  0  0
  7  9  1  0  0  0  0
  8  6  2  0  0  0  0
  8 13  1  0  0  0  0
  9 24  2  0  0  0  0
 10 14  1  0  0  0  0
 11  2  1  0  0  0  0
 11 15  1  1  0  0  0
 14  7  1  0  0  0  0
 15 12  1  0  0  0  0
 16 17  1  0  0  0  0
 16 19  1  0  0  0  0
 17 10  1  6  0  0  0
 17 18  1  0  0  0  0
 18 20  1  0  0  0  0
 19 20  1  0  0  0  0
 20 21  1  1  0  0  0
 21 22  1  0  0  0  0
 22 23  1  0  0  0  0
 24 25  1  0  0  0  0
 25 26  1  0  0  0  0
 26 27  1  0  0  0  0
M  END
>  <MODEL>
8

>  <REMARK>
 VINA RESULT:      -7.2      2.133      7.036
  Name = 
  6 active torsions:
  status: ('A' for Active; 'I' for Inactive)
    1  A    between atoms: N_3  and  C_6
    2  A    between atoms: C_5  and  N_18
    3  A    between atoms: C_6  and  C_19
    4  A    between atoms: C_7  and  C_20
    5  A    between atoms: N_11  and  C_15
    6  A    between atoms: N_11  and  N_18
                            x       y       z     vdW  Elec       q    Type
                         _______ _______ _______ _____ _____    ______ ____

>  <TORSDO>
F 6

$$$$
=
 OpenBabel10232411323D

 27 31  0  0  1  0  0  0  0  0999 V2000
  185.7420  178.4000  141.8580 N   0  0  0  0  0  0  0  0  0  0  0  0
  185.9020  177.7860  144.3450 C   0  0  1  0  0  3  0  0  0  0  0  0
  188.6100  178.3660  141.9270 C   0  0  2  0  0  3  0  0  0  0  0  0
  190.0390  177.2690  141.6160 S   0  0  0  0  0  0  0  0  0  0  0  0
  186.4540  177.9730  143.0280 C   0  0  0  0  0  0  0  0  0  0  0  0
  186.7470  178.1350  146.4470 N   0  0  0  0  0  0  0  0  0  0  0  0
  188.5000  177.8980  139.5690 C   0  0  0  0  0  2  0  0  0  0  0  0
  185.6850  178.8550  146.2760 C   0  0  0  0  0  3  0  0  0  0  0  0
  189.6580  177.3460  139.8650 C   0  0  2  0  0  3  0  0  0  0  0  0
  186.3800  178.6040  140.7420 C   0  0  0  0  0  0  0  0  0  0  0  0
  186.9790  177.3350  145.2540 C   0  0  2  0  0  3  0  0  0  0  0  0
  187.7760  177.9070  143.0850 C   0  0  0  0  0  0  0  0  0  0  0  0
  185.1440  178.6990  144.9300 C   0  0  0  0  0  2  0  0  0  0  0  0
  187.8080  178.3960  140.7020 N   0  0  0  0  0  0  0  0  0  0  0  0
  188.2590  177.7210  144.4950 C   0  0  0  0  0  2  0  0  0  0  0  0
  185.0690  177.7610  138.8020 C   0  0  0  0  0  2  0  0  0  0  0  0
  185.6020  178.9820  139.5200 C   0  0  1  0  0  3  0  0  0  0  0  0
  184.4800  179.8490  139.8650 N   0  0  0  0  0  2  0  0  0  0  0  0
  183.7480  178.2150  138.2550 C   0  0  0  0  0  2  0  0  0  0  0  0
  183.2970  179.2890  139.2210 C   0  0  2  0  0  3  0  0  0  0  0  0
  182.5420  180.3840  138.4890 C   0  0  0  0  0  2  0  0  0  0  0  0
  181.2250  179.9080  138.1050 N   0  0  0  0  0  2  0  0  0  0  0  0
  180.7990  180.7220  136.9820 C   0  0  0  0  0  1  0  0  0  0  0  0
  190.5180  176.8230  138.8560 N   0  0  0  0  0  2  0  0  0  0  0  0
  190.3990  175.4960  138.4230 N   0  0  0  0  0  2  0  0  0  0  0  0
  191.6280  175.1740  137.7220 C   0  0  0  0  0  2  0  0  0  0  0  0
  192.6650  176.2390  138.0080 C   0  0  0  0  0  1  0  0  0  0  0  0
  1  5  1  0  0  0  0
  2 13  1  1  0  0  0
  2 11  1  0  0  0  0
  3  4  1  6  0  0  0
  3 12  1  0  0  0  0
  5 12  2  0  0  0  0
  5  2  1  0  0  0  0
  7  9  1  0  0  0  0
  7 14  1  0  0  0  0
  8  6  2  0  0  0  0
  9 24  1  1  0  0  0
  9  4  1  0  0  0  0
 10  1  2  0  0  0  0
 11 15  1  6  0  0  0
 11  6  1  0  0  0  0
 12 15  1  0  0  0  0
 13  8  1  0  0  0  0
 14 10  1  0  0  0  0
 14  3  1  0  0  0  0
 16 17  1  0  0  0  0
 17 18  1  0  0  0  0
 17 10  1  1  0  0  0
 19 16  1  0  0  0  0
 19 20  1  0  0  0  0
 20 21  1  6  0  0  0
 20 18  1  0  0  0  0
 22 21  1  0  0  0  0
 23 22  1  0  0  0  0
 25 24  1  0  0  0  0
 26 27  1  0  0  0  0
 26 25  1  0  0  0  0
M  END
>  <MODEL>
9

>  <REMARK>
 VINA RESULT:      -7.1      3.121      6.943
  Name = 
  6 active torsions:
  status: ('A' for Active; 'I' for Inactive)
    1  A    between atoms: N_3  and  C_6
    2  A    between atoms: C_5  and  N_18
    3  A    between atoms: C_6  and  C_19
    4  A    between atoms: C_7  and  C_20
    5  A    between atoms: N_11  and  C_15
    6  A    between atoms: N_11  and  N_18
                            x       y       z     vdW  Elec       q    Type
                         _______ _______ _______ _____ _____    ______ ____

>  <TORSDO>
F 6

$$$$
