=
 OpenBabel10232408553D

 51 53  0  0  1  0  0  0  0  0999 V2000
  187.1760  178.8070  141.3110 C   0  0  0  0  0  2  0  0  0  0  0  0
  188.1820  177.7240  140.9690 C   0  0  2  0  0  3  0  0  0  0  0  0
  190.4680  177.3220  139.8900 C   0  0  2  0  0  3  0  0  0  0  0  0
  190.3340  176.9460  141.3580 C   0  0  2  0  0  3  0  0  0  0  0  0
  189.2560  177.7190  141.9480 N   0  0  0  0  0  2  0  0  0  0  0  0
  188.8950  178.0400  139.3370 S   0  0  0  0  0  0  0  0  0  0  0  0
  191.9800  175.9600  138.3840 C   0  0  0  0  0  0  0  0  0  0  0  0
  190.7660  176.1260  139.1180 N   0  0  0  0  0  2  0  0  0  0  0  0
  192.8460  176.8780  138.3620 O   0  0  0  0  0  0  0  0  0  0  0  0
  192.2230  174.6680  137.6720 C   0  0  2  0  0  3  0  0  0  0  0  0
  195.3760  172.8250  136.5040 C   0  0  1  0  0  3  0  0  0  0  0  0
  193.5330  174.0980  135.6670 N   0  0  0  0  0  2  0  0  0  0  0  0
  196.8280  172.7950  136.4920 N   0  0  0  0  0  1  0  0  0  0  0  0
  194.7830  173.6440  138.0000 S   0  0  0  0  0  0  0  0  0  0  0  0
  193.6090  174.6460  137.0170 C   0  0  2  0  0  3  0  0  0  0  0  0
  194.8700  173.6330  135.3370 C   0  0  0  0  0  2  0  0  0  0  0  0
  191.1100  174.4240  136.6600 C   0  0  0  0  0  2  0  0  0  0  0  0
  190.2330  173.3690  137.1380 N   0  0  0  0  0  1  0  0  0  0  0  0
  191.6290  177.2300  142.0980 C   0  0  0  0  0  2  0  0  0  0  0  0
  191.3620  178.0820  143.3270 C   0  0  0  0  0  2  0  0  0  0  0  0
  191.0610  176.6340  146.6850 O   0  0  0  0  0  0  0  0  0  0  0  0
  191.6260  177.3130  144.5350 N   0  0  0  0  0  2  0  0  0  0  0  0
  190.7560  177.3140  145.6710 C   0  0  0  0  0  0  0  0  0  0  0  0
  189.4670  178.0730  145.6590 C   0  0  0  0  0  2  0  0  0  0  0  0
  188.2910  177.1450  145.4010 C   0  0  0  0  0  2  0  0  0  0  0  0
  187.0530  177.6400  146.1250 C   0  0  0  0  0  1  0  0  0  0  0  0
  186.3820  178.4020  142.5470 C   0  0  0  0  0  2  0  0  0  0  0  0
  183.9810  178.8170  143.1740 C   0  0  0  0  0  2  0  0  0  0  0  0
  184.6590  178.6660  140.7730 C   0  0  0  0  0  2  0  0  0  0  0  0
  184.9270  178.1380  142.1840 C   0  0  1  0  0  3  0  0  0  0  0  0
  182.5350  178.4720  142.8340 C   0  0  0  0  0  2  0  0  0  0  0  0
  182.2500  178.8230  141.4050 C   0  0  0  0  0  0  0  0  0  0  0  0
  181.2160  179.3970  141.1110 O   0  0  0  0  0  0  0  0  0  0  0  0
  183.2160  178.4090  140.3280 C   0  0  2  0  0  3  0  0  0  0  0  0
  183.0310  176.9440  139.9600 C   0  0  0  0  0  2  0  0  0  0  0  0
  181.9590  176.8020  138.8920 C   0  0  0  0  0  2  0  0  0  0  0  0
  182.5750  176.3090  137.5950 C   0  0  0  0  0  2  0  0  0  0  0  0
  183.7300  175.4720  137.8800 N   0  0  0  0  0  2  0  0  0  0  0  0
  184.5860  175.5060  136.7050 C   0  0  2  0  0  3  0  0  0  0  0  0
  184.8330  174.0800  136.2020 C   0  0  2  0  0  3  0  0  0  0  0  0
  184.0310  173.8020  135.0890 O   0  0  0  0  0  1  0  0  0  0  0  0
  185.3460  172.9510  138.2360 O   0  0  0  0  0  1  0  0  0  0  0  0
  183.3950  172.3060  137.2270 O   0  0  0  0  0  0  0  0  0  0  0  0
  184.5480  173.0800  137.2740 C   0  0  0  0  0  0  0  0  0  0  0  0
  185.9010  176.1740  137.0830 C   0  0  0  0  0  2  0  0  0  0  0  0
  185.8820  177.6830  136.8420 C   0  0  1  0  0  3  0  0  0  0  0  0
  185.8400  178.3820  138.0340 F   0  0  0  0  0  0  0  0  0  0  0  0
  186.6090  178.2400  134.6540 F   0  0  0  0  0  0  0  0  0  0  0  0
  188.1010  177.2860  136.0460 F   0  0  0  0  0  0  0  0  0  0  0  0
  187.0360  178.1700  135.9680 C   0  0  0  0  0  0  0  0  0  0  0  0
  187.4490  179.4260  136.3700 F   0  0  0  0  0  0  0  0  0  0  0  0
  1 27  1  0  0  0  0
  2  1  1  1  0  0  0
  2  5  1  0  0  0  0
  3  8  1  6  0  0  0
  3  4  1  0  0  0  0
  4  5  1  0  0  0  0
  4 19  1  1  0  0  0
  6  3  1  0  0  0  0
  6  2  1  0  0  0  0
  7  8  1  0  0  0  0
  9  7  2  0  0  0  0
 10 17  1  6  0  0  0
 10  7  1  0  0  0  0
 11 13  1  1  0  0  0
 11 14  1  0  0  0  0
 12 15  1  0  0  0  0
 15 10  1  1  0  0  0
 15 14  1  0  0  0  0
 16 12  1  0  0  0  0
 16 11  1  0  0  0  0
 17 18  1  0  0  0  0
 19 20  1  0  0  0  0
 20 22  1  0  0  0  0
 22 23  1  0  0  0  0
 23 21  2  0  0  0  0
 24 23  1  0  0  0  0
 25 24  1  0  0  0  0
 25 26  1  0  0  0  0
 29 30  1  0  0  0  0
 30 27  1  1  0  0  0
 30 28  1  0  0  0  0
 31 28  1  0  0  0  0
 32 31  1  0  0  0  0
 33 32  2  0  0  0  0
 34 35  1  1  0  0  0
 34 29  1  0  0  0  0
 34 32  1  0  0  0  0
 36 35  1  0  0  0  0
 37 38  1  0  0  0  0
 37 36  1  0  0  0  0
 39 45  1  1  0  0  0
 39 38  1  0  0  0  0
 40 41  1  6  0  0  0
 40 39  1  0  0  0  0
 40 44  1  0  0  0  0
 43 44  2  0  0  0  0
 44 42  1  0  0  0  0
 46 45  1  0  0  0  0
 46 47  1  1  0  0  0
 48 50  1  0  0  0  0
 50 49  1  0  0  0  0
 50 51  1  0  0  0  0
 50 46  1  0  0  0  0
M  END
>  <MODEL>
1

>  <REMARK>
 VINA RESULT:      -6.8      0.000      0.000
  Name = 
  22 active torsions:
  status: ('A' for Active; 'I' for Inactive)
    1  A    between atoms: C_7  and  C_36
    2  A    between atoms: C_7  and  N_37
    3  A    between atoms: C_9  and  C_43
    4  A    between atoms: N_10  and  C_34
    5  A    between atoms: C_11  and  C_46
    6  A    between atoms: C_11  and  C_47
    7  A    between atoms: C_12  and  C_43
    8  A    between atoms: C_13  and  C_14
    9  A    between atoms: C_13  and  C_22
   10  A    between atoms: C_17  and  C_28
   11  A    between atoms: C_17  and  N_32
   12  A    between atoms: C_20  and  C_43
   13  A    between atoms: C_21  and  C_36
   14  A    between atoms: C_21  and  C_51
   15  A    between atoms: C_22  and  C_46
   16  A    between atoms: C_24  and  C_29
   17  A    between atoms: C_25  and  C_48
   18  A    between atoms: C_26  and  C_27
   19  A    between atoms: C_26  and  C_35
   20  A    between atoms: C_28  and  C_39
   21  A    between atoms: C_29  and  C_48
   22  A    between atoms: N_37  and  C_46
                            x       y       z     vdW  Elec       q    Type
                         _______ _______ _______ _____ _____    ______ ____

>  <TORSDO>
F 22

$$$$
=
 OpenBabel10232408553D

 51 53  0  0  1  0  0  0  0  0999 V2000
  187.7390  178.3770  140.9130 C   0  0  0  0  0  2  0  0  0  0  0  0
  188.3370  177.5750  139.7720 C   0  0  2  0  0  3  0  0  0  0  0  0
  189.8350  177.7620  137.7050 C   0  0  2  0  0  3  0  0  0  0  0  0
  190.3150  176.8350  138.8100 C   0  0  2  0  0  3  0  0  0  0  0  0
  189.7220  177.2500  140.0680 N   0  0  0  0  0  2  0  0  0  0  0  0
  188.2890  178.5460  138.2470 S   0  0  0  0  0  0  0  0  0  0  0  0
  188.9330  175.7200  136.5100 C   0  0  0  0  0  0  0  0  0  0  0  0
  189.6000  176.9830  136.4990 N   0  0  0  0  0  2  0  0  0  0  0  0
  188.5350  175.2150  137.5960 O   0  0  0  0  0  0  0  0  0  0  0  0
  188.6820  175.0240  135.2110 C   0  0  2  0  0  3  0  0  0  0  0  0
  185.0750  174.2510  136.2540 C   0  0  1  0  0  3  0  0  0  0  0  0
  186.4640  176.0490  135.5080 N   0  0  0  0  0  2  0  0  0  0  0  0
  183.8380  173.5660  135.9230 N   0  0  0  0  0  1  0  0  0  0  0  0
  186.4840  173.3640  135.5550 S   0  0  0  0  0  0  0  0  0  0  0  0
  187.1820  174.9280  134.9110 C   0  0  2  0  0  3  0  0  0  0  0  0
  185.0800  175.6260  135.6380 C   0  0  0  0  0  2  0  0  0  0  0  0
  189.3500  173.6540  135.2270 C   0  0  0  0  0  2  0  0  0  0  0  0
  190.7750  173.8030  135.4710 N   0  0  0  0  0  1  0  0  0  0  0  0
  191.8290  176.8810  138.9200 C   0  0  0  0  0  2  0  0  0  0  0  0
  192.4490  175.6930  138.2050 C   0  0  0  0  0  2  0  0  0  0  0  0
  195.7100  175.5610  136.5300 O   0  0  0  0  0  0  0  0  0  0  0  0
  193.7010  176.0850  137.5750 N   0  0  0  0  0  2  0  0  0  0  0  0
  194.6420  175.1440  137.0490 C   0  0  0  0  0  0  0  0  0  0  0  0
  194.3600  173.6750  137.0630 C   0  0  0  0  0  2  0  0  0  0  0  0
  195.0480  173.0010  138.2400 C   0  0  0  0  0  2  0  0  0  0  0  0
  195.8920  171.8320  137.7650 C   0  0  0  0  0  1  0  0  0  0  0  0
  187.5220  177.4730  142.1200 C   0  0  0  0  0  2  0  0  0  0  0  0
  185.5430  178.9140  142.6980 C   0  0  0  0  0  2  0  0  0  0  0  0
  186.4190  177.2450  144.3380 C   0  0  0  0  0  2  0  0  0  0  0  0
  186.8010  178.2280  143.2290 C   0  0  1  0  0  3  0  0  0  0  0  0
  184.8830  179.7270  143.8080 C   0  0  0  0  0  2  0  0  0  0  0  0
  184.6240  178.8490  144.9950 C   0  0  0  0  0  0  0  0  0  0  0  0
  183.5540  178.9070  145.5760 O   0  0  0  0  0  0  0  0  0  0  0  0
  185.7110  177.9420  145.5040 C   0  0  2  0  0  3  0  0  0  0  0  0
  186.7170  178.7130  146.3470 C   0  0  0  0  0  2  0  0  0  0  0  0
  187.4830  177.7620  147.2520 C   0  0  0  0  0  2  0  0  0  0  0  0
  188.9710  178.0520  147.1780 C   0  0  0  0  0  2  0  0  0  0  0  0
  189.7270  176.8710  147.5650 N   0  0  0  0  0  2  0  0  0  0  0  0
  190.3090  176.3160  146.3530 C   0  0  2  0  0  3  0  0  0  0  0  0
  191.8310  176.2260  146.5020 C   0  0  2  0  0  3  0  0  0  0  0  0
  192.3190  175.0640  145.8970 O   0  0  0  0  0  1  0  0  0  0  0  0
  192.5140  175.1520  148.5160 O   0  0  0  0  0  0  0  0  0  0  0  0
  192.2950  177.4270  148.6490 O   0  0  0  0  0  1  0  0  0  0  0  0
  192.2250  176.2320  147.9430 C   0  0  0  0  0  0  0  0  0  0  0  0
  189.9390  177.2180  145.1820 C   0  0  0  0  0  2  0  0  0  0  0  0
  190.8660  177.0290  143.9820 C   0  0  1  0  0  3  0  0  0  0  0  0
  190.2900  176.2140  143.0250 F   0  0  0  0  0  0  0  0  0  0  0  0
  192.1760  178.9880  144.2520 F   0  0  0  0  0  0  0  0  0  0  0  0
  190.2430  179.1660  143.1110 F   0  0  0  0  0  0  0  0  0  0  0  0
  191.3310  178.3470  143.3650 C   0  0  0  0  0  0  0  0  0  0  0  0
  192.0160  178.1130  142.1870 F   0  0  0  0  0  0  0  0  0  0  0  0
  1 27  1  0  0  0  0
  2  5  1  0  0  0  0
  2  1  1  1  0  0  0
  3  8  1  6  0  0  0
  3  6  1  0  0  0  0
  3  4  1  0  0  0  0
  4 19  1  1  0  0  0
  4  5  1  0  0  0  0
  6  2  1  0  0  0  0
  7  9  2  0  0  0  0
  8  7  1  0  0  0  0
 10 17  1  1  0  0  0
 10  7  1  0  0  0  0
 11 13  1  6  0  0  0
 12 16  1  0  0  0  0
 14 11  1  0  0  0  0
 15 10  1  1  0  0  0
 15 12  1  0  0  0  0
 15 14  1  0  0  0  0
 16 11  1  0  0  0  0
 17 18  1  0  0  0  0
 20 19  1  0  0  0  0
 21 23  2  0  0  0  0
 22 20  1  0  0  0  0
 23 24  1  0  0  0  0
 23 22  1  0  0  0  0
 24 25  1  0  0  0  0
 26 25  1  0  0  0  0
 28 30  1  0  0  0  0
 28 31  1  0  0  0  0
 29 34  1  0  0  0  0
 30 27  1  6  0  0  0
 30 29  1  0  0  0  0
 31 32  1  0  0  0  0
 32 34  1  0  0  0  0
 32 33  2  0  0  0  0
 34 35  1  6  0  0  0
 35 36  1  0  0  0  0
 37 36  1  0  0  0  0
 37 38  1  0  0  0  0
 39 45  1  6  0  0  0
 39 40  1  0  0  0  0
 39 38  1  0  0  0  0
 40 41  1  1  0  0  0
 40 44  1  0  0  0  0
 44 42  2  0  0  0  0
 44 43  1  0  0  0  0
 46 47  1  6  0  0  0
 46 45  1  0  0  0  0
 49 50  1  0  0  0  0
 50 46  1  0  0  0  0
 50 48  1  0  0  0  0
 51 50  1  0  0  0  0
M  END
>  <MODEL>
2

>  <REMARK>
 VINA RESULT:      -6.3      3.531      8.269
  Name = 
  22 active torsions:
  status: ('A' for Active; 'I' for Inactive)
    1  A    between atoms: C_7  and  C_36
    2  A    between atoms: C_7  and  N_37
    3  A    between atoms: C_9  and  C_43
    4  A    between atoms: N_10  and  C_34
    5  A    between atoms: C_11  and  C_46
    6  A    between atoms: C_11  and  C_47
    7  A    between atoms: C_12  and  C_43
    8  A    between atoms: C_13  and  C_14
    9  A    between atoms: C_13  and  C_22
   10  A    between atoms: C_17  and  C_28
   11  A    between atoms: C_17  and  N_32
   12  A    between atoms: C_20  and  C_43
   13  A    between atoms: C_21  and  C_36
   14  A    between atoms: C_21  and  C_51
   15  A    between atoms: C_22  and  C_46
   16  A    between atoms: C_24  and  C_29
   17  A    between atoms: C_25  and  C_48
   18  A    between atoms: C_26  and  C_27
   19  A    between atoms: C_26  and  C_35
   20  A    between atoms: C_28  and  C_39
   21  A    between atoms: C_29  and  C_48
   22  A    between atoms: N_37  and  C_46
                            x       y       z     vdW  Elec       q    Type
                         _______ _______ _______ _____ _____    ______ ____

>  <TORSDO>
F 22

$$$$
=
 OpenBabel10232408553D

 51 53  0  0  1  0  0  0  0  0999 V2000
  186.7150  178.7270  140.7670 C   0  0  0  0  0  2  0  0  0  0  0  0
  186.8720  177.8670  139.5280 C   0  0  2  0  0  3  0  0  0  0  0  0
  186.8750  177.9460  136.9690 C   0  0  2  0  0  3  0  0  0  0  0  0
  188.1630  177.4870  137.6370 C   0  0  2  0  0  3  0  0  0  0  0  0
  188.2110  178.0180  138.9870 N   0  0  0  0  0  2  0  0  0  0  0  0
  185.6820  178.3820  138.2670 S   0  0  0  0  0  0  0  0  0  0  0  0
  186.4780  175.4870  136.5180 C   0  0  0  0  0  0  0  0  0  0  0  0
  186.3480  176.8620  136.1550 N   0  0  0  0  0  2  0  0  0  0  0  0
  187.0880  175.1570  137.5730 O   0  0  0  0  0  0  0  0  0  0  0  0
  185.8480  174.4470  135.6480 C   0  0  2  0  0  3  0  0  0  0  0  0
  182.2090  173.4850  136.3790 C   0  0  1  0  0  3  0  0  0  0  0  0
  184.2680  172.5600  135.5910 N   0  0  0  0  0  2  0  0  0  0  0  0
  181.1910  173.2780  137.3940 N   0  0  0  0  0  1  0  0  0  0  0  0
  183.4060  174.7140  136.9420 S   0  0  0  0  0  0  0  0  0  0  0  0
  184.7930  173.6430  136.4160 C   0  0  2  0  0  3  0  0  0  0  0  0
  182.9740  172.2080  136.1510 C   0  0  0  0  0  2  0  0  0  0  0  0
  186.9290  173.5510  135.0560 C   0  0  0  0  0  2  0  0  0  0  0  0
  188.0370  174.3630  134.5820 N   0  0  0  0  0  1  0  0  0  0  0  0
  189.3680  177.9740  136.8520 C   0  0  0  0  0  2  0  0  0  0  0  0
  190.3390  176.8310  136.6090 C   0  0  0  0  0  2  0  0  0  0  0  0
  193.5190  176.3540  138.3770 O   0  0  0  0  0  0  0  0  0  0  0  0
  191.3600  176.8130  137.6470 N   0  0  0  0  0  2  0  0  0  0  0  0
  192.6960  176.3520  137.4240 C   0  0  0  0  0  0  0  0  0  0  0  0
  193.1470  175.9100  136.0680 C   0  0  0  0  0  2  0  0  0  0  0  0
  194.6080  176.2650  135.8380 C   0  0  0  0  0  2  0  0  0  0  0  0
  195.4630  175.0120  135.8090 C   0  0  0  0  0  1  0  0  0  0  0  0
  187.1400  177.9380  142.0000 C   0  0  0  0  0  2  0  0  0  0  0  0
  185.1540  179.1510  142.9560 C   0  0  0  0  0  2  0  0  0  0  0  0
  186.3680  177.4390  144.3120 C   0  0  0  0  0  2  0  0  0  0  0  0
  186.5210  178.5360  143.2560 C   0  0  1  0  0  3  0  0  0  0  0  0
  184.5910  179.8120  144.2100 C   0  0  0  0  0  2  0  0  0  0  0  0
  184.5630  178.8230  145.3370 C   0  0  0  0  0  0  0  0  0  0  0  0
  183.5810  178.7420  146.0540 O   0  0  0  0  0  0  0  0  0  0  0  0
  185.7750  177.9760  145.6180 C   0  0  2  0  0  3  0  0  0  0  0  0
  186.8250  178.7620  146.3900 C   0  0  0  0  0  2  0  0  0  0  0  0
  187.2420  177.9970  147.6350 C   0  0  0  0  0  2  0  0  0  0  0  0
  188.4800  177.1660  147.3490 C   0  0  0  0  0  2  0  0  0  0  0  0
  189.3700  177.8920  146.4560 N   0  0  0  0  0  2  0  0  0  0  0  0
  190.4680  176.9990  146.1240 C   0  0  2  0  0  3  0  0  0  0  0  0
  191.1670  176.5360  147.4070 C   0  0  2  0  0  3  0  0  0  0  0  0
  191.6470  177.6320  148.1310 O   0  0  0  0  0  1  0  0  0  0  0  0
  193.3220  175.6130  147.8270 O   0  0  0  0  0  1  0  0  0  0  0  0
  192.2330  174.7570  146.0050 O   0  0  0  0  0  0  0  0  0  0  0  0
  192.3030  175.6190  147.0930 C   0  0  0  0  0  0  0  0  0  0  0  0
  191.4440  177.7460  145.2240 C   0  0  0  0  0  2  0  0  0  0  0  0
  190.8260  178.1250  143.8790 C   0  0  1  0  0  3  0  0  0  0  0  0
  191.0750  179.4490  143.5660 F   0  0  0  0  0  0  0  0  0  0  0  0
  190.1300  176.6860  142.1270 F   0  0  0  0  0  0  0  0  0  0  0  0
  192.0250  176.1630  143.2260 F   0  0  0  0  0  0  0  0  0  0  0  0
  191.2560  177.2070  142.7360 C   0  0  0  0  0  0  0  0  0  0  0  0
  191.9840  177.9140  141.7970 F   0  0  0  0  0  0  0  0  0  0  0  0
  1 27  1  0  0  0  0
  2  1  1  1  0  0  0
  3  8  1  1  0  0  0
  3  4  1  0  0  0  0
  3  6  1  0  0  0  0
  4 19  1  6  0  0  0
  4  5  1  0  0  0  0
  5  2  1  0  0  0  0
  6  2  1  0  0  0  0
  7  9  2  0  0  0  0
  8  7  1  0  0  0  0
 10 17  1  1  0  0  0
 10  7  1  0  0  0  0
 11 14  1  0  0  0  0
 11 13  1  1  0  0  0
 12 16  1  0  0  0  0
 12 15  1  0  0  0  0
 15 10  1  6  0  0  0
 15 14  1  0  0  0  0
 16 11  1  0  0  0  0
 18 17  1  0  0  0  0
 20 19  1  0  0  0  0
 20 22  1  0  0  0  0
 23 22  1  0  0  0  0
 23 21  2  0  0  0  0
 24 23  1  0  0  0  0
 25 24  1  0  0  0  0
 26 25  1  0  0  0  0
 28 30  1  0  0  0  0
 28 31  1  0  0  0  0
 29 34  1  0  0  0  0
 30 27  1  6  0  0  0
 30 29  1  0  0  0  0
 31 32  1  0  0  0  0
 32 34  1  0  0  0  0
 32 33  2  0  0  0  0
 34 35  1  6  0  0  0
 35 36  1  0  0  0  0
 37 36  1  0  0  0  0
 38 37  1  0  0  0  0
 39 45  1  6  0  0  0
 39 38  1  0  0  0  0
 39 40  1  0  0  0  0
 40 41  1  6  0  0  0
 43 44  2  0  0  0  0
 44 40  1  0  0  0  0
 44 42  1  0  0  0  0
 46 47  1  6  0  0  0
 46 45  1  0  0  0  0
 48 50  1  0  0  0  0
 50 49  1  0  0  0  0
 50 46  1  0  0  0  0
 51 50  1  0  0  0  0
M  END
>  <MODEL>
3

>  <REMARK>
 VINA RESULT:      -6.1      3.542      8.687
  Name = 
  22 active torsions:
  status: ('A' for Active; 'I' for Inactive)
    1  A    between atoms: C_7  and  C_36
    2  A    between atoms: C_7  and  N_37
    3  A    between atoms: C_9  and  C_43
    4  A    between atoms: N_10  and  C_34
    5  A    between atoms: C_11  and  C_46
    6  A    between atoms: C_11  and  C_47
    7  A    between atoms: C_12  and  C_43
    8  A    between atoms: C_13  and  C_14
    9  A    between atoms: C_13  and  C_22
   10  A    between atoms: C_17  and  C_28
   11  A    between atoms: C_17  and  N_32
   12  A    between atoms: C_20  and  C_43
   13  A    between atoms: C_21  and  C_36
   14  A    between atoms: C_21  and  C_51
   15  A    between atoms: C_22  and  C_46
   16  A    between atoms: C_24  and  C_29
   17  A    between atoms: C_25  and  C_48
   18  A    between atoms: C_26  and  C_27
   19  A    between atoms: C_26  and  C_35
   20  A    between atoms: C_28  and  C_39
   21  A    between atoms: C_29  and  C_48
   22  A    between atoms: N_37  and  C_46
                            x       y       z     vdW  Elec       q    Type
                         _______ _______ _______ _____ _____    ______ ____

>  <TORSDO>
F 22

$$$$
=
 OpenBabel10232408553D

 51 53  0  0  1  0  0  0  0  0999 V2000
  191.2910  176.9230  139.4720 C   0  0  0  0  0  2  0  0  0  0  0  0
  190.6060  177.5730  140.6590 C   0  0  2  0  0  3  0  0  0  0  0  0
  189.6430  177.0880  142.9810 C   0  0  2  0  0  3  0  0  0  0  0  0
  190.8000  178.0730  142.9170 C   0  0  2  0  0  3  0  0  0  0  0  0
  191.5730  177.8180  141.7150 N   0  0  0  0  0  2  0  0  0  0  0  0
  189.3210  176.4740  141.3030 S   0  0  0  0  0  0  0  0  0  0  0  0
  187.2250  177.1040  143.7310 C   0  0  0  0  0  0  0  0  0  0  0  0
  188.4650  177.7710  143.4940 N   0  0  0  0  0  2  0  0  0  0  0  0
  187.1000  175.8740  143.4760 O   0  0  0  0  0  0  0  0  0  0  0  0
  186.0890  177.8780  144.3200 C   0  0  2  0  0  3  0  0  0  0  0  0
  184.9050  178.5890  140.7430 C   0  0  1  0  0  3  0  0  0  0  0  0
  184.0780  178.3140  142.9700 N   0  0  0  0  0  2  0  0  0  0  0  0
  184.8860  179.5300  139.6380 N   0  0  0  0  0  1  0  0  0  0  0  0
  186.4040  178.8130  141.7250 S   0  0  0  0  0  0  0  0  0  0  0  0
  185.4270  178.7790  143.2720 C   0  0  2  0  0  3  0  0  0  0  0  0
  183.7410  178.8520  141.6630 C   0  0  0  0  0  2  0  0  0  0  0  0
  186.5800  178.6700  145.5260 C   0  0  0  0  0  2  0  0  0  0  0  0
  185.4500  179.0590  146.3530 N   0  0  0  0  0  1  0  0  0  0  0  0
  191.6910  177.9230  144.1380 C   0  0  0  0  0  2  0  0  0  0  0  0
  191.5640  176.5240  144.7170 C   0  0  0  0  0  2  0  0  0  0  0  0
  191.5970  177.0700  148.3450 O   0  0  0  0  0  0  0  0  0  0  0  0
  191.9670  176.5240  146.1170 N   0  0  0  0  0  2  0  0  0  0  0  0
  191.1740  177.0980  147.1600 C   0  0  0  0  0  0  0  0  0  0  0  0
  189.8300  177.6900  146.8760 C   0  0  0  0  0  2  0  0  0  0  0  0
  189.1550  178.1480  148.1600 C   0  0  0  0  0  2  0  0  0  0  0  0
  188.0430  177.1910  148.5480 C   0  0  0  0  0  1  0  0  0  0  0  0
  190.2440  176.3910  138.5000 C   0  0  0  0  0  2  0  0  0  0  0  0
  192.3060  175.1180  137.8240 C   0  0  0  0  0  2  0  0  0  0  0  0
  190.0400  174.3310  137.1210 C   0  0  0  0  0  2  0  0  0  0  0  0
  190.9040  175.5620  137.4070 C   0  0  1  0  0  3  0  0  0  0  0  0
  192.9740  174.3570  136.6830 C   0  0  0  0  0  2  0  0  0  0  0  0
  192.0970  173.2230  136.2460 C   0  0  0  0  0  0  0  0  0  0  0  0
  192.5800  172.1230  136.0360 O   0  0  0  0  0  0  0  0  0  0  0  0
  190.6310  173.4610  136.0080 C   0  0  2  0  0  3  0  0  0  0  0  0
  190.3950  174.1090  134.6510 C   0  0  0  0  0  2  0  0  0  0  0  0
  189.1870  175.0290  134.7100 C   0  0  0  0  0  2  0  0  0  0  0  0
  187.9090  174.2280  134.5340 C   0  0  0  0  0  2  0  0  0  0  0  0
  186.7590  175.0430  134.8910 N   0  0  0  0  0  2  0  0  0  0  0  0
  186.4510  174.7660  136.2850 C   0  0  2  0  0  3  0  0  0  0  0  0
  185.0400  174.1800  136.3980 C   0  0  2  0  0  3  0  0  0  0  0  0
  184.1560  175.1190  136.9390 O   0  0  0  0  0  1  0  0  0  0  0  0
  185.8900  172.8320  138.1690 O   0  0  0  0  0  1  0  0  0  0  0  0
  184.0910  171.9590  137.0550 O   0  0  0  0  0  0  0  0  0  0  0  0
  185.0390  172.9550  137.2520 C   0  0  0  0  0  0  0  0  0  0  0  0
  186.5540  176.0660  137.0710 C   0  0  0  0  0  2  0  0  0  0  0  0
  186.7310  177.2850  136.1660 C   0  0  1  0  0  3  0  0  0  0  0  0
  185.5090  177.8050  135.7780 F   0  0  0  0  0  0  0  0  0  0  0  0
  187.1320  179.6110  136.4020 F   0  0  0  0  0  0  0  0  0  0  0  0
  188.9170  178.2390  136.3310 F   0  0  0  0  0  0  0  0  0  0  0  0
  187.6120  178.3710  136.7810 C   0  0  0  0  0  0  0  0  0  0  0  0
  187.5900  178.2860  138.1600 F   0  0  0  0  0  0  0  0  0  0  0  0
  2  1  1  6  0  0  0
  2  6  1  0  0  0  0
  2  5  1  0  0  0  0
  3  8  1  6  0  0  0
  4  3  1  0  0  0  0
  4 19  1  1  0  0  0
  5  4  1  0  0  0  0
  6  3  1  0  0  0  0
  7 10  1  0  0  0  0
  8  7  1  0  0  0  0
  9  7  2  0  0  0  0
 10 17  1  1  0  0  0
 11 13  1  6  0  0  0
 11 16  1  0  0  0  0
 11 14  1  0  0  0  0
 12 15  1  0  0  0  0
 14 15  1  0  0  0  0
 15 10  1  1  0  0  0
 16 12  1  0  0  0  0
 17 18  1  0  0  0  0
 19 20  1  0  0  0  0
 20 22  1  0  0  0  0
 22 23  1  0  0  0  0
 23 21  2  0  0  0  0
 24 23  1  0  0  0  0
 24 25  1  0  0  0  0
 25 26  1  0  0  0  0
 27  1  1  0  0  0  0
 29 30  1  0  0  0  0
 30 28  1  0  0  0  0
 30 27  1  1  0  0  0
 31 28  1  0  0  0  0
 32 31  1  0  0  0  0
 33 32  2  0  0  0  0
 34 35  1  6  0  0  0
 34 32  1  0  0  0  0
 34 29  1  0  0  0  0
 35 36  1  0  0  0  0
 37 36  1  0  0  0  0
 37 38  1  0  0  0  0
 38 39  1  0  0  0  0
 39 40  1  0  0  0  0
 39 45  1  1  0  0  0
 40 41  1  1  0  0  0
 40 44  1  0  0  0  0
 43 44  2  0  0  0  0
 44 42  1  0  0  0  0
 46 47  1  1  0  0  0
 46 50  1  0  0  0  0
 46 45  1  0  0  0  0
 48 50  1  0  0  0  0
 49 50  1  0  0  0  0
 50 51  1  0  0  0  0
M  END
>  <MODEL>
4

>  <REMARK>
 VINA RESULT:      -6.1      2.875      7.246
  Name = 
  22 active torsions:
  status: ('A' for Active; 'I' for Inactive)
    1  A    between atoms: C_7  and  C_36
    2  A    between atoms: C_7  and  N_37
    3  A    between atoms: C_9  and  C_43
    4  A    between atoms: N_10  and  C_34
    5  A    between atoms: C_11  and  C_46
    6  A    between atoms: C_11  and  C_47
    7  A    between atoms: C_12  and  C_43
    8  A    between atoms: C_13  and  C_14
    9  A    between atoms: C_13  and  C_22
   10  A    between atoms: C_17  and  C_28
   11  A    between atoms: C_17  and  N_32
   12  A    between atoms: C_20  and  C_43
   13  A    between atoms: C_21  and  C_36
   14  A    between atoms: C_21  and  C_51
   15  A    between atoms: C_22  and  C_46
   16  A    between atoms: C_24  and  C_29
   17  A    between atoms: C_25  and  C_48
   18  A    between atoms: C_26  and  C_27
   19  A    between atoms: C_26  and  C_35
   20  A    between atoms: C_28  and  C_39
   21  A    between atoms: C_29  and  C_48
   22  A    between atoms: N_37  and  C_46
                            x       y       z     vdW  Elec       q    Type
                         _______ _______ _______ _____ _____    ______ ____

>  <TORSDO>
F 22

$$$$
=
 OpenBabel10232408553D

 51 53  0  0  1  0  0  0  0  0999 V2000
  186.8400  178.7390  141.1870 C   0  0  0  0  0  2  0  0  0  0  0  0
  187.9010  177.7150  140.8280 C   0  0  2  0  0  3  0  0  0  0  0  0
  190.3580  177.4650  140.1580 C   0  0  2  0  0  3  0  0  0  0  0  0
  189.9370  176.7960  141.4570 C   0  0  2  0  0  3  0  0  0  0  0  0
  188.7580  177.4670  141.9740 N   0  0  0  0  0  2  0  0  0  0  0  0
  188.9220  178.3390  139.4720 S   0  0  0  0  0  0  0  0  0  0  0  0
  190.8170  176.6400  137.8090 C   0  0  0  0  0  0  0  0  0  0  0  0
  190.8110  176.4460  139.2230 N   0  0  0  0  0  2  0  0  0  0  0  0
  190.3980  177.7200  137.3080 O   0  0  0  0  0  0  0  0  0  0  0  0
  191.3610  175.5570  136.9330 C   0  0  2  0  0  3  0  0  0  0  0  0
  188.5590  173.3930  135.4590 C   0  0  1  0  0  3  0  0  0  0  0  0
  190.8970  173.3430  135.9610 N   0  0  0  0  0  2  0  0  0  0  0  0
  187.3320  172.6610  135.7150 N   0  0  0  0  0  1  0  0  0  0  0  0
  188.7180  174.7670  136.6200 S   0  0  0  0  0  0  0  0  0  0  0  0
  190.4590  174.3170  136.9550 C   0  0  2  0  0  3  0  0  0  0  0  0
  189.7490  172.4960  135.6840 C   0  0  0  0  0  2  0  0  0  0  0  0
  192.7900  175.2300  137.3500 C   0  0  0  0  0  2  0  0  0  0  0  0
  193.6010  176.4360  137.3180 N   0  0  0  0  0  1  0  0  0  0  0  0
  191.0570  176.8720  142.4790 C   0  0  0  0  0  2  0  0  0  0  0  0
  190.7640  175.9560  143.6550 C   0  0  0  0  0  2  0  0  0  0  0  0
  192.0190  177.0910  146.9110 O   0  0  0  0  0  0  0  0  0  0  0  0
  191.6490  176.2710  144.7670 N   0  0  0  0  0  2  0  0  0  0  0  0
  191.1900  176.8330  146.0000 C   0  0  0  0  0  0  0  0  0  0  0  0
  189.7350  177.0780  146.2450 C   0  0  0  0  0  2  0  0  0  0  0  0
  189.4650  177.3260  147.7220 C   0  0  0  0  0  2  0  0  0  0  0  0
  188.0050  177.6710  147.9460 C   0  0  0  0  0  1  0  0  0  0  0  0
  186.1020  178.2970  142.4450 C   0  0  0  0  0  2  0  0  0  0  0  0
  183.7670  178.9090  143.1550 C   0  0  0  0  0  2  0  0  0  0  0  0
  184.3200  178.6080  140.7370 C   0  0  0  0  0  2  0  0  0  0  0  0
  184.6160  178.1220  142.1580 C   0  0  1  0  0  3  0  0  0  0  0  0
  182.2860  178.6550  142.8950 C   0  0  0  0  0  2  0  0  0  0  0  0
  181.9600  178.9640  141.4650 C   0  0  0  0  0  0  0  0  0  0  0  0
  180.9560  179.5980  141.1900 O   0  0  0  0  0  0  0  0  0  0  0  0
  182.8440  178.4360  140.3670 C   0  0  2  0  0  3  0  0  0  0  0  0
  182.5400  176.9740  140.0760 C   0  0  0  0  0  2  0  0  0  0  0  0
  181.4610  176.8640  139.0100 C   0  0  0  0  0  2  0  0  0  0  0  0
  182.0900  176.8420  137.6280 C   0  0  0  0  0  2  0  0  0  0  0  0
  182.4900  175.4860  137.2860 N   0  0  0  0  0  2  0  0  0  0  0  0
  183.8830  175.5380  136.8740 C   0  0  2  0  0  3  0  0  0  0  0  0
  184.1360  176.8110  136.0590 C   0  0  2  0  0  3  0  0  0  0  0  0
  184.0430  176.5470  134.6880 O   0  0  0  0  0  1  0  0  0  0  0  0
  186.3840  177.3480  135.4840 O   0  0  0  0  0  0  0  0  0  0  0  0
  185.7460  177.9550  137.5970 O   0  0  0  0  0  1  0  0  0  0  0  0
  185.4840  177.3770  136.3610 C   0  0  0  0  0  0  0  0  0  0  0  0
  184.1880  174.3010  136.0410 C   0  0  0  0  0  2  0  0  0  0  0  0
  183.1760  173.1780  136.2670 C   0  0  1  0  0  3  0  0  0  0  0  0
  182.5530  172.8180  135.0860 F   0  0  0  0  0  0  0  0  0  0  0  0
  184.4260  171.1780  136.0200 F   0  0  0  0  0  0  0  0  0  0  0  0
  182.7720  171.2010  137.5480 F   0  0  0  0  0  0  0  0  0  0  0  0
  183.7750  171.9560  136.9590 C   0  0  0  0  0  0  0  0  0  0  0  0
  184.6850  172.3450  137.9240 F   0  0  0  0  0  0  0  0  0  0  0  0
  1 27  1  0  0  0  0
  2  1  1  1  0  0  0
  2  5  1  0  0  0  0
  3  8  1  6  0  0  0
  3  4  1  0  0  0  0
  4  5  1  0  0  0  0
  4 19  1  1  0  0  0
  6  3  1  0  0  0  0
  6  2  1  0  0  0  0
  7  8  1  0  0  0  0
  9  7  2  0  0  0  0
 10 17  1  1  0  0  0
 10  7  1  0  0  0  0
 11 16  1  0  0  0  0
 11 13  1  1  0  0  0
 11 14  1  0  0  0  0
 12 15  1  0  0  0  0
 14 15  1  0  0  0  0
 15 10  1  6  0  0  0
 16 12  1  0  0  0  0
 18 17  1  0  0  0  0
 19 20  1  0  0  0  0
 20 22  1  0  0  0  0
 22 23  1  0  0  0  0
 23 24  1  0  0  0  0
 23 21  2  0  0  0  0
 24 25  1  0  0  0  0
 25 26  1  0  0  0  0
 29 30  1  0  0  0  0
 30 27  1  1  0  0  0
 30 28  1  0  0  0  0
 31 28  1  0  0  0  0
 32 31  1  0  0  0  0
 33 32  2  0  0  0  0
 34 35  1  1  0  0  0
 34 29  1  0  0  0  0
 34 32  1  0  0  0  0
 36 35  1  0  0  0  0
 37 36  1  0  0  0  0
 38 37  1  0  0  0  0
 39 45  1  6  0  0  0
 39 38  1  0  0  0  0
 40 41  1  6  0  0  0
 40 44  1  0  0  0  0
 40 39  1  0  0  0  0
 42 44  2  0  0  0  0
 44 43  1  0  0  0  0
 45 46  1  0  0  0  0
 46 47  1  6  0  0  0
 46 50  1  0  0  0  0
 48 50  1  0  0  0  0
 50 49  1  0  0  0  0
 50 51  1  0  0  0  0
M  END
>  <MODEL>
5

>  <REMARK>
 VINA RESULT:      -5.9      2.729      3.728
  Name = 
  22 active torsions:
  status: ('A' for Active; 'I' for Inactive)
    1  A    between atoms: C_7  and  C_36
    2  A    between atoms: C_7  and  N_37
    3  A    between atoms: C_9  and  C_43
    4  A    between atoms: N_10  and  C_34
    5  A    between atoms: C_11  and  C_46
    6  A    between atoms: C_11  and  C_47
    7  A    between atoms: C_12  and  C_43
    8  A    between atoms: C_13  and  C_14
    9  A    between atoms: C_13  and  C_22
   10  A    between atoms: C_17  and  C_28
   11  A    between atoms: C_17  and  N_32
   12  A    between atoms: C_20  and  C_43
   13  A    between atoms: C_21  and  C_36
   14  A    between atoms: C_21  and  C_51
   15  A    between atoms: C_22  and  C_46
   16  A    between atoms: C_24  and  C_29
   17  A    between atoms: C_25  and  C_48
   18  A    between atoms: C_26  and  C_27
   19  A    between atoms: C_26  and  C_35
   20  A    between atoms: C_28  and  C_39
   21  A    between atoms: C_29  and  C_48
   22  A    between atoms: N_37  and  C_46
                            x       y       z     vdW  Elec       q    Type
                         _______ _______ _______ _____ _____    ______ ____

>  <TORSDO>
F 22

$$$$
=
 OpenBabel10232408553D

 51 53  0  0  1  0  0  0  0  0999 V2000
  190.6250  177.6300  141.6180 C   0  0  0  0  0  2  0  0  0  0  0  0
  190.6050  176.7240  140.4010 C   0  0  2  0  0  3  0  0  0  0  0  0
  190.3020  176.7200  137.8590 C   0  0  2  0  0  3  0  0  0  0  0  0
  191.6450  176.2370  138.3850 C   0  0  2  0  0  3  0  0  0  0  0  0
  191.8730  176.8100  139.6990 N   0  0  0  0  0  2  0  0  0  0  0  0
  189.2880  177.2410  139.2730 S   0  0  0  0  0  0  0  0  0  0  0  0
  189.5460  175.5780  135.7300 C   0  0  0  0  0  0  0  0  0  0  0  0
  189.6470  175.6300  137.1540 N   0  0  0  0  0  2  0  0  0  0  0  0
  190.0140  176.5110  135.0200 O   0  0  0  0  0  0  0  0  0  0  0  0
  188.9090  174.3850  135.0930 C   0  0  2  0  0  3  0  0  0  0  0  0
  185.6990  175.2550  137.0010 C   0  0  1  0  0  3  0  0  0  0  0  0
  186.8980  175.8010  135.0050 N   0  0  0  0  0  2  0  0  0  0  0  0
  184.3940  174.8010  137.4480 N   0  0  0  0  0  1  0  0  0  0  0  0
  186.8280  173.8540  136.8530 S   0  0  0  0  0  0  0  0  0  0  0  0
  187.3820  174.4400  135.2100 C   0  0  2  0  0  3  0  0  0  0  0  0
  185.5870  175.8680  135.6290 C   0  0  0  0  0  2  0  0  0  0  0  0
  189.4830  173.1120  135.7040 C   0  0  0  0  0  2  0  0  0  0  0  0
  190.8830  172.9780  135.3400 N   0  0  0  0  0  1  0  0  0  0  0  0
  192.7620  176.6550  137.4450 C   0  0  0  0  0  2  0  0  0  0  0  0
  193.6530  175.4680  137.1210 C   0  0  0  0  0  2  0  0  0  0  0  0
  196.0290  173.7730  139.3450 O   0  0  0  0  0  0  0  0  0  0  0  0
  194.4870  175.1390  138.2680 N   0  0  0  0  0  2  0  0  0  0  0  0
  195.3480  173.9980  138.3100 C   0  0  0  0  0  0  0  0  0  0  0  0
  195.4910  173.0910  137.1290 C   0  0  0  0  0  2  0  0  0  0  0  0
  195.1070  171.6630  137.4900 C   0  0  0  0  0  2  0  0  0  0  0  0
  196.3420  170.7850  137.5730 C   0  0  0  0  0  1  0  0  0  0  0  0
  191.6420  177.1130  142.6280 C   0  0  0  0  0  2  0  0  0  0  0  0
  191.9490  176.1920  144.9490 C   0  0  0  0  0  2  0  0  0  0  0  0
  190.4500  178.1500  144.5490 C   0  0  0  0  0  2  0  0  0  0  0  0
  190.9710  176.8350  143.9670 C   0  0  1  0  0  3  0  0  0  0  0  0
  191.2330  175.8520  146.2530 C   0  0  0  0  0  2  0  0  0  0  0  0
  190.5620  177.0770  146.7980 C   0  0  0  0  0  0  0  0  0  0  0  0
  190.6440  177.3420  147.9850 O   0  0  0  0  0  0  0  0  0  0  0  0
  189.7350  177.9430  145.8880 C   0  0  2  0  0  3  0  0  0  0  0  0
  188.3560  177.3400  145.6620 C   0  0  0  0  0  2  0  0  0  0  0  0
  187.8560  177.6790  144.2670 C   0  0  0  0  0  2  0  0  0  0  0  0
  186.4570  177.1270  144.0640 C   0  0  0  0  0  2  0  0  0  0  0  0
  185.8450  177.7420  142.8960 N   0  0  0  0  0  2  0  0  0  0  0  0
  184.9700  178.8000  143.3760 C   0  0  2  0  0  3  0  0  0  0  0  0
  184.1490  178.2950  144.5660 C   0  0  2  0  0  3  0  0  0  0  0  0
  182.8030  178.6480  144.4250 O   0  0  0  0  0  1  0  0  0  0  0  0
  184.4080  178.2800  146.9340 O   0  0  0  0  0  1  0  0  0  0  0  0
  185.4640  179.9950  145.8480 O   0  0  0  0  0  0  0  0  0  0  0  0
  184.6720  178.8550  145.8490 C   0  0  0  0  0  0  0  0  0  0  0  0
  184.0530  179.2240  142.2350 C   0  0  0  0  0  2  0  0  0  0  0  0
  183.9720  178.1740  141.1280 C   0  0  1  0  0  3  0  0  0  0  0  0
  182.6890  177.6740  141.0020 F   0  0  0  0  0  0  0  0  0  0  0  0
  184.1100  177.7890  138.7920 F   0  0  0  0  0  0  0  0  0  0  0  0
  185.8790  178.7460  139.8050 F   0  0  0  0  0  0  0  0  0  0  0  0
  184.4950  178.6730  139.7830 C   0  0  0  0  0  0  0  0  0  0  0  0
  183.9730  179.9200  139.4950 F   0  0  0  0  0  0  0  0  0  0  0  0
  1 27  1  0  0  0  0
  2  1  1  1  0  0  0
  3  8  1  1  0  0  0
  3  4  1  0  0  0  0
  3  6  1  0  0  0  0
  4 19  1  6  0  0  0
  4  5  1  0  0  0  0
  5  2  1  0  0  0  0
  6  2  1  0  0  0  0
  7  8  1  0  0  0  0
  9  7  2  0  0  0  0
 10 17  1  1  0  0  0
 10  7  1  0  0  0  0
 11 13  1  6  0  0  0
 12 15  1  0  0  0  0
 12 16  1  0  0  0  0
 14 11  1  0  0  0  0
 15 10  1  1  0  0  0
 15 14  1  0  0  0  0
 16 11  1  0  0  0  0
 18 17  1  0  0  0  0
 20 19  1  0  0  0  0
 20 22  1  0  0  0  0
 22 23  1  0  0  0  0
 23 21  2  0  0  0  0
 24 25  1  0  0  0  0
 24 23  1  0  0  0  0
 25 26  1  0  0  0  0
 28 31  1  0  0  0  0
 29 34  1  0  0  0  0
 30 27  1  6  0  0  0
 30 29  1  0  0  0  0
 30 28  1  0  0  0  0
 31 32  1  0  0  0  0
 32 33  2  0  0  0  0
 34 35  1  6  0  0  0
 34 32  1  0  0  0  0
 36 35  1  0  0  0  0
 37 36  1  0  0  0  0
 38 39  1  0  0  0  0
 38 37  1  0  0  0  0
 39 45  1  6  0  0  0
 39 40  1  0  0  0  0
 40 41  1  6  0  0  0
 40 44  1  0  0  0  0
 43 44  2  0  0  0  0
 44 42  1  0  0  0  0
 46 47  1  6  0  0  0
 46 45  1  0  0  0  0
 48 50  1  0  0  0  0
 50 49  1  0  0  0  0
 50 46  1  0  0  0  0
 51 50  1  0  0  0  0
M  END
>  <MODEL>
6

>  <REMARK>
 VINA RESULT:      -5.9      3.013      7.658
  Name = 
  22 active torsions:
  status: ('A' for Active; 'I' for Inactive)
    1  A    between atoms: C_7  and  C_36
    2  A    between atoms: C_7  and  N_37
    3  A    between atoms: C_9  and  C_43
    4  A    between atoms: N_10  and  C_34
    5  A    between atoms: C_11  and  C_46
    6  A    between atoms: C_11  and  C_47
    7  A    between atoms: C_12  and  C_43
    8  A    between atoms: C_13  and  C_14
    9  A    between atoms: C_13  and  C_22
   10  A    between atoms: C_17  and  C_28
   11  A    between atoms: C_17  and  N_32
   12  A    between atoms: C_20  and  C_43
   13  A    between atoms: C_21  and  C_36
   14  A    between atoms: C_21  and  C_51
   15  A    between atoms: C_22  and  C_46
   16  A    between atoms: C_24  and  C_29
   17  A    between atoms: C_25  and  C_48
   18  A    between atoms: C_26  and  C_27
   19  A    between atoms: C_26  and  C_35
   20  A    between atoms: C_28  and  C_39
   21  A    between atoms: C_29  and  C_48
   22  A    between atoms: N_37  and  C_46
                            x       y       z     vdW  Elec       q    Type
                         _______ _______ _______ _____ _____    ______ ____

>  <TORSDO>
F 22

$$$$
=
 OpenBabel10232408553D

 51 53  0  0  1  0  0  0  0  0999 V2000
  191.2530  177.3860  140.6020 C   0  0  0  0  0  2  0  0  0  0  0  0
  190.8690  176.5510  139.3960 C   0  0  2  0  0  3  0  0  0  0  0  0
  190.3370  176.6930  136.8960 C   0  0  2  0  0  3  0  0  0  0  0  0
  191.5390  175.8480  137.2880 C   0  0  2  0  0  3  0  0  0  0  0  0
  192.0390  176.3030  138.5720 N   0  0  0  0  0  2  0  0  0  0  0  0
  189.6440  177.4360  138.4010 S   0  0  0  0  0  0  0  0  0  0  0  0
  189.1740  174.4640  136.5980 C   0  0  0  0  0  0  0  0  0  0  0  0
  189.3430  175.8410  136.2610 N   0  0  0  0  0  2  0  0  0  0  0  0
  189.9130  173.9210  137.4640 O   0  0  0  0  0  0  0  0  0  0  0  0
  188.0820  173.6860  135.9350 C   0  0  2  0  0  3  0  0  0  0  0  0
  184.3230  173.0370  136.3140 C   0  0  1  0  0  3  0  0  0  0  0  0
  186.3770  172.9090  137.5310 N   0  0  0  0  0  2  0  0  0  0  0  0
  182.9950  173.6190  136.3950 N   0  0  0  0  0  1  0  0  0  0  0  0
  185.4040  174.0920  135.3250 S   0  0  0  0  0  0  0  0  0  0  0  0
  186.7230  173.9660  136.5870 C   0  0  2  0  0  3  0  0  0  0  0  0
  184.9330  172.9580  137.6890 C   0  0  0  0  0  2  0  0  0  0  0  0
  188.4280  172.2020  135.9520 C   0  0  0  0  0  2  0  0  0  0  0  0
  187.6480  171.5020  134.9460 N   0  0  0  0  0  1  0  0  0  0  0  0
  192.6330  175.9660  136.2420 C   0  0  0  0  0  2  0  0  0  0  0  0
  193.9790  175.5900  136.8380 C   0  0  0  0  0  2  0  0  0  0  0  0
  196.0250  172.6820  135.9360 O   0  0  0  0  0  0  0  0  0  0  0  0
  194.3900  174.2790  136.3560 N   0  0  0  0  0  2  0  0  0  0  0  0
  195.7460  173.8240  136.3840 C   0  0  0  0  0  0  0  0  0  0  0  0
  196.8330  174.6640  136.9770 C   0  0  0  0  0  2  0  0  0  0  0  0
  197.0730  174.2950  138.4330 C   0  0  0  0  0  2  0  0  0  0  0  0
  198.3930  174.8670  138.9160 C   0  0  0  0  0  1  0  0  0  0  0  0
  190.0080  177.7170  141.4170 C   0  0  0  0  0  2  0  0  0  0  0  0
  191.5200  176.5660  143.0650 C   0  0  0  0  0  2  0  0  0  0  0  0
  189.9180  178.3250  143.8280 C   0  0  0  0  0  2  0  0  0  0  0  0
  190.1400  177.1810  142.8360 C   0  0  1  0  0  3  0  0  0  0  0  0
  191.6000  175.9660  144.4650 C   0  0  0  0  0  2  0  0  0  0  0  0
  191.2370  177.0040  145.4840 C   0  0  0  0  0  0  0  0  0  0  0  0
  191.9040  177.1260  146.4970 O   0  0  0  0  0  0  0  0  0  0  0  0
  190.0100  177.8510  145.2810 C   0  0  2  0  0  3  0  0  0  0  0  0
  188.7490  177.0910  145.6690 C   0  0  0  0  0  2  0  0  0  0  0  0
  187.6440  177.3580  144.6610 C   0  0  0  0  0  2  0  0  0  0  0  0
  186.5370  178.1770  145.3010 C   0  0  0  0  0  2  0  0  0  0  0  0
  185.2520  177.8080  144.7280 N   0  0  0  0  0  2  0  0  0  0  0  0
  184.8470  178.8920  143.8470 C   0  0  2  0  0  3  0  0  0  0  0  0
  183.5690  179.5460  144.3820 C   0  0  2  0  0  3  0  0  0  0  0  0
  183.3540  179.1910  145.7180 O   0  0  0  0  0  1  0  0  0  0  0  0
  182.2320  179.6040  142.4120 O   0  0  0  0  0  0  0  0  0  0  0  0
  181.4570  178.2380  144.0760 O   0  0  0  0  0  1  0  0  0  0  0  0
  182.3830  179.1400  143.5690 C   0  0  0  0  0  0  0  0  0  0  0  0
  184.6130  178.3210  142.4540 C   0  0  0  0  0  2  0  0  0  0  0  0
  185.4490  179.0240  141.3850 C   0  0  1  0  0  3  0  0  0  0  0  0
  186.7880  178.7000  141.5010 F   0  0  0  0  0  0  0  0  0  0  0  0
  184.0290  177.7390  139.9860 F   0  0  0  0  0  0  0  0  0  0  0  0
  186.0070  178.4100  139.1440 F   0  0  0  0  0  0  0  0  0  0  0  0
  184.9490  178.7700  139.9640 C   0  0  0  0  0  0  0  0  0  0  0  0
  184.3390  179.9020  139.4580 F   0  0  0  0  0  0  0  0  0  0  0  0
  1 27  1  0  0  0  0
  2  1  1  1  0  0  0
  3  8  1  1  0  0  0
  3  4  1  0  0  0  0
  3  6  1  0  0  0  0
  4 19  1  6  0  0  0
  4  5  1  0  0  0  0
  5  2  1  0  0  0  0
  6  2  1  0  0  0  0
  7  9  2  0  0  0  0
  8  7  1  0  0  0  0
 10 17  1  1  0  0  0
 10  7  1  0  0  0  0
 11 13  1  1  0  0  0
 11 16  1  0  0  0  0
 12 16  1  0  0  0  0
 14 11  1  0  0  0  0
 14 15  1  0  0  0  0
 15 10  1  6  0  0  0
 15 12  1  0  0  0  0
 18 17  1  0  0  0  0
 19 20  1  0  0  0  0
 21 23  2  0  0  0  0
 22 23  1  0  0  0  0
 22 20  1  0  0  0  0
 23 24  1  0  0  0  0
 24 25  1  0  0  0  0
 25 26  1  0  0  0  0
 28 31  1  0  0  0  0
 29 34  1  0  0  0  0
 30 27  1  6  0  0  0
 30 28  1  0  0  0  0
 30 29  1  0  0  0  0
 31 32  1  0  0  0  0
 32 33  2  0  0  0  0
 34 32  1  0  0  0  0
 34 35  1  6  0  0  0
 36 37  1  0  0  0  0
 36 35  1  0  0  0  0
 38 37  1  0  0  0  0
 39 45  1  6  0  0  0
 39 40  1  0  0  0  0
 39 38  1  0  0  0  0
 40 41  1  1  0  0  0
 42 44  2  0  0  0  0
 44 43  1  0  0  0  0
 44 40  1  0  0  0  0
 46 47  1  6  0  0  0
 46 45  1  0  0  0  0
 49 50  1  0  0  0  0
 50 48  1  0  0  0  0
 50 46  1  0  0  0  0
 51 50  1  0  0  0  0
M  END
>  <MODEL>
7

>  <REMARK>
 VINA RESULT:      -5.7      2.862      7.959
  Name = 
  22 active torsions:
  status: ('A' for Active; 'I' for Inactive)
    1  A    between atoms: C_7  and  C_36
    2  A    between atoms: C_7  and  N_37
    3  A    between atoms: C_9  and  C_43
    4  A    between atoms: N_10  and  C_34
    5  A    between atoms: C_11  and  C_46
    6  A    between atoms: C_11  and  C_47
    7  A    between atoms: C_12  and  C_43
    8  A    between atoms: C_13  and  C_14
    9  A    between atoms: C_13  and  C_22
   10  A    between atoms: C_17  and  C_28
   11  A    between atoms: C_17  and  N_32
   12  A    between atoms: C_20  and  C_43
   13  A    between atoms: C_21  and  C_36
   14  A    between atoms: C_21  and  C_51
   15  A    between atoms: C_22  and  C_46
   16  A    between atoms: C_24  and  C_29
   17  A    between atoms: C_25  and  C_48
   18  A    between atoms: C_26  and  C_27
   19  A    between atoms: C_26  and  C_35
   20  A    between atoms: C_28  and  C_39
   21  A    between atoms: C_29  and  C_48
   22  A    between atoms: N_37  and  C_46
                            x       y       z     vdW  Elec       q    Type
                         _______ _______ _______ _____ _____    ______ ____

>  <TORSDO>
F 22

$$$$
=
 OpenBabel10232408553D

 51 53  0  0  1  0  0  0  0  0999 V2000
  186.2970  177.6580  143.4010 C   0  0  0  0  0  2  0  0  0  0  0  0
  187.4530  177.0230  142.6510 C   0  0  2  0  0  3  0  0  0  0  0  0
  189.8180  177.4710  141.7790 C   0  0  2  0  0  3  0  0  0  0  0  0
  189.6700  176.3550  142.8020 C   0  0  2  0  0  3  0  0  0  0  0  0
  188.4740  176.5890  143.5890 N   0  0  0  0  0  2  0  0  0  0  0  0
  188.1880  178.2300  141.5210 S   0  0  0  0  0  0  0  0  0  0  0  0
  190.0740  177.5230  139.2610 C   0  0  0  0  0  0  0  0  0  0  0  0
  190.3070  176.9100  140.5300 N   0  0  0  0  0  2  0  0  0  0  0  0
  189.3990  178.5870  139.1780 O   0  0  0  0  0  0  0  0  0  0  0  0
  190.6710  176.9040  138.0380 C   0  0  2  0  0  3  0  0  0  0  0  0
  187.0890  177.1340  136.6900 C   0  0  1  0  0  3  0  0  0  0  0  0
  189.2340  178.1740  136.4960 N   0  0  0  0  0  2  0  0  0  0  0  0
  186.0570  176.5110  135.8810 N   0  0  0  0  0  1  0  0  0  0  0  0
  188.1770  175.8730  137.3890 S   0  0  0  0  0  0  0  0  0  0  0  0
  189.6520  176.8350  136.8950 C   0  0  2  0  0  3  0  0  0  0  0  0
  187.9510  178.0210  135.8300 C   0  0  0  0  0  2  0  0  0  0  0  0
  191.2360  175.5320  138.3830 C   0  0  0  0  0  2  0  0  0  0  0  0
  192.2400  175.1520  137.4030 N   0  0  0  0  0  1  0  0  0  0  0  0
  190.8820  176.3110  143.7160 C   0  0  0  0  0  2  0  0  0  0  0  0
  191.0180  177.6180  144.4790 C   0  0  0  0  0  2  0  0  0  0  0  0
  191.9480  176.7780  147.9270 O   0  0  0  0  0  0  0  0  0  0  0  0
  191.7900  177.4090  145.6950 N   0  0  0  0  0  2  0  0  0  0  0  0
  191.2180  176.9190  146.9120 C   0  0  0  0  0  0  0  0  0  0  0  0
  189.7760  176.5290  146.9880 C   0  0  0  0  0  2  0  0  0  0  0  0
  188.8890  177.7520  147.1690 C   0  0  0  0  0  2  0  0  0  0  0  0
  188.9930  178.2790  148.5880 C   0  0  0  0  0  1  0  0  0  0  0  0
  185.7550  178.8410  142.6080 C   0  0  0  0  0  2  0  0  0  0  0  0
  183.2530  178.9040  142.8580 C   0  0  0  0  0  2  0  0  0  0  0  0
  184.3110  179.1930  140.6130 C   0  0  0  0  0  2  0  0  0  0  0  0
  184.4210  178.4860  141.9660 C   0  0  1  0  0  3  0  0  0  0  0  0
  181.9330  178.4670  142.2300 C   0  0  0  0  0  2  0  0  0  0  0  0
  181.8340  179.0010  140.8330 C   0  0  0  0  0  0  0  0  0  0  0  0
  180.7940  179.5030  140.4430 O   0  0  0  0  0  0  0  0  0  0  0  0
  183.0010  178.8590  139.8940 C   0  0  2  0  0  3  0  0  0  0  0  0
  183.0640  177.4560  139.3070 C   0  0  0  0  0  2  0  0  0  0  0  0
  182.4020  177.4280  137.9400 C   0  0  0  0  0  2  0  0  0  0  0  0
  182.9390  176.2680  137.1210 C   0  0  0  0  0  2  0  0  0  0  0  0
  182.6890  175.0140  137.8150 N   0  0  0  0  0  2  0  0  0  0  0  0
  182.4450  174.0010  136.8000 C   0  0  2  0  0  3  0  0  0  0  0  0
  180.9710  173.5860  136.8240 C   0  0  2  0  0  3  0  0  0  0  0  0
  180.3020  174.1980  137.8900 O   0  0  0  0  0  1  0  0  0  0  0  0
  180.6950  171.5810  138.0800 O   0  0  0  0  0  1  0  0  0  0  0  0
  180.8480  171.3000  135.8140 O   0  0  0  0  0  0  0  0  0  0  0  0
  180.8370  172.1040  136.9470 C   0  0  0  0  0  0  0  0  0  0  0  0
  183.3420  172.8040  137.0850 C   0  0  0  0  0  2  0  0  0  0  0  0
  184.8280  173.1460  136.9750 C   0  0  1  0  0  3  0  0  0  0  0  0
  185.5120  172.7920  138.1230 F   0  0  0  0  0  0  0  0  0  0  0  0
  186.0830  171.3440  136.0800 F   0  0  0  0  0  0  0  0  0  0  0  0
  186.4740  173.4050  135.2610 F   0  0  0  0  0  0  0  0  0  0  0  0
  185.4950  172.5470  135.7380 C   0  0  0  0  0  0  0  0  0  0  0  0
  184.5590  172.3200  134.7470 F   0  0  0  0  0  0  0  0  0  0  0  0
  2  1  1  1  0  0  0
  2  5  1  0  0  0  0
  3  8  1  6  0  0  0
  3  4  1  0  0  0  0
  4  5  1  0  0  0  0
  4 19  1  1  0  0  0
  6  3  1  0  0  0  0
  6  2  1  0  0  0  0
  7  8  1  0  0  0  0
  9  7  2  0  0  0  0
 10 17  1  1  0  0  0
 10  7  1  0  0  0  0
 11 13  1  6  0  0  0
 11 14  1  0  0  0  0
 12 15  1  0  0  0  0
 15 14  1  0  0  0  0
 15 10  1  1  0  0  0
 16 12  1  0  0  0  0
 16 11  1  0  0  0  0
 18 17  1  0  0  0  0
 19 20  1  0  0  0  0
 20 22  1  0  0  0  0
 22 23  1  0  0  0  0
 23 24  1  0  0  0  0
 23 21  2  0  0  0  0
 24 25  1  0  0  0  0
 25 26  1  0  0  0  0
 27  1  1  0  0  0  0
 29 30  1  0  0  0  0
 30 27  1  1  0  0  0
 30 28  1  0  0  0  0
 31 28  1  0  0  0  0
 32 31  1  0  0  0  0
 33 32  2  0  0  0  0
 34 35  1  1  0  0  0
 34 29  1  0  0  0  0
 34 32  1  0  0  0  0
 36 35  1  0  0  0  0
 37 38  1  0  0  0  0
 37 36  1  0  0  0  0
 39 40  1  0  0  0  0
 39 45  1  1  0  0  0
 39 38  1  0  0  0  0
 40 44  1  0  0  0  0
 40 41  1  1  0  0  0
 43 44  2  0  0  0  0
 44 42  1  0  0  0  0
 46 45  1  0  0  0  0
 46 47  1  1  0  0  0
 49 50  1  0  0  0  0
 50 48  1  0  0  0  0
 50 46  1  0  0  0  0
 51 50  1  0  0  0  0
M  END
>  <MODEL>
8

>  <REMARK>
 VINA RESULT:      -5.6      2.785      4.025
  Name = 
  22 active torsions:
  status: ('A' for Active; 'I' for Inactive)
    1  A    between atoms: C_7  and  C_36
    2  A    between atoms: C_7  and  N_37
    3  A    between atoms: C_9  and  C_43
    4  A    between atoms: N_10  and  C_34
    5  A    between atoms: C_11  and  C_46
    6  A    between atoms: C_11  and  C_47
    7  A    between atoms: C_12  and  C_43
    8  A    between atoms: C_13  and  C_14
    9  A    between atoms: C_13  and  C_22
   10  A    between atoms: C_17  and  C_28
   11  A    between atoms: C_17  and  N_32
   12  A    between atoms: C_20  and  C_43
   13  A    between atoms: C_21  and  C_36
   14  A    between atoms: C_21  and  C_51
   15  A    between atoms: C_22  and  C_46
   16  A    between atoms: C_24  and  C_29
   17  A    between atoms: C_25  and  C_48
   18  A    between atoms: C_26  and  C_27
   19  A    between atoms: C_26  and  C_35
   20  A    between atoms: C_28  and  C_39
   21  A    between atoms: C_29  and  C_48
   22  A    between atoms: N_37  and  C_46
                            x       y       z     vdW  Elec       q    Type
                         _______ _______ _______ _____ _____    ______ ____

>  <TORSDO>
F 22

$$$$
=
 OpenBabel10232408553D

 51 53  0  0  1  0  0  0  0  0999 V2000
  183.8160  178.2620  138.2120 C   0  0  0  0  0  2  0  0  0  0  0  0
  184.5800  177.1740  137.4830 C   0  0  2  0  0  3  0  0  0  0  0  0
  185.3310  176.4070  135.1590 C   0  0  2  0  0  3  0  0  0  0  0  0
  186.4320  176.7220  136.1600 C   0  0  2  0  0  3  0  0  0  0  0  0
  185.9170  177.6400  137.1580 N   0  0  0  0  0  2  0  0  0  0  0  0
  183.7300  176.7510  135.9430 S   0  0  0  0  0  0  0  0  0  0  0  0
  185.6830  173.9670  135.7340 C   0  0  0  0  0  0  0  0  0  0  0  0
  185.4110  175.0030  134.7890 N   0  0  0  0  0  2  0  0  0  0  0  0
  185.8910  174.2450  136.9470 O   0  0  0  0  0  0  0  0  0  0  0  0
  185.6830  172.5460  135.2690 C   0  0  2  0  0  3  0  0  0  0  0  0
  182.1640  171.0230  135.2440 C   0  0  1  0  0  3  0  0  0  0  0  0
  184.4720  170.4050  135.3570 N   0  0  0  0  0  2  0  0  0  0  0  0
  180.9120  170.8540  135.9600 N   0  0  0  0  0  1  0  0  0  0  0  0
  182.9430  172.5840  135.7130 S   0  0  0  0  0  0  0  0  0  0  0  0
  184.5540  171.7450  135.9280 C   0  0  2  0  0  3  0  0  0  0  0  0
  183.1250  169.9270  135.6260 C   0  0  0  0  0  2  0  0  0  0  0  0
  187.0500  171.9230  135.5250 C   0  0  0  0  0  2  0  0  0  0  0  0
  187.9460  172.2310  134.4240 N   0  0  0  0  0  1  0  0  0  0  0  0
  187.6240  177.3470  135.4560 C   0  0  0  0  0  2  0  0  0  0  0  0
  188.8800  176.5340  135.7170 C   0  0  0  0  0  2  0  0  0  0  0  0
  190.4690  175.8260  138.9470 O   0  0  0  0  0  0  0  0  0  0  0  0
  189.1530  176.4790  137.1460 N   0  0  0  0  0  2  0  0  0  0  0  0
  190.3100  175.8440  137.6990 C   0  0  0  0  0  0  0  0  0  0  0  0
  191.3570  175.2400  136.8190 C   0  0  0  0  0  2  0  0  0  0  0  0
  192.4820  174.6370  137.6470 C   0  0  0  0  0  2  0  0  0  0  0  0
  193.8030  175.3080  137.3190 C   0  0  0  0  0  1  0  0  0  0  0  0
  184.6160  178.7340  139.4200 C   0  0  0  0  0  2  0  0  0  0  0  0
  182.2510  179.3030  140.0620 C   0  0  0  0  0  2  0  0  0  0  0  0
  183.7180  178.0250  141.6290 C   0  0  0  0  0  2  0  0  0  0  0  0
  183.6840  179.1200  140.5610 C   0  0  1  0  0  3  0  0  0  0  0  0
  181.3540  179.7660  141.2050 C   0  0  0  0  0  2  0  0  0  0  0  0
  181.4640  178.8100  142.3550 C   0  0  0  0  0  0  0  0  0  0  0  0
  180.4610  178.4400  142.9410 O   0  0  0  0  0  0  0  0  0  0  0  0
  182.8210  178.3590  142.8240 C   0  0  2  0  0  3  0  0  0  0  0  0
  183.4790  179.4190  143.6970 C   0  0  0  0  0  2  0  0  0  0  0  0
  183.7040  178.8790  145.1000 C   0  0  0  0  0  2  0  0  0  0  0  0
  185.1510  178.4540  145.2720 C   0  0  0  0  0  2  0  0  0  0  0  0
  185.8930  178.7140  144.0480 N   0  0  0  0  0  2  0  0  0  0  0  0
  187.2080  178.1130  144.2070 C   0  0  2  0  0  3  0  0  0  0  0  0
  187.5190  177.2200  143.0020 C   0  0  2  0  0  3  0  0  0  0  0  0
  187.9860  175.9690  143.4200 O   0  0  0  0  0  1  0  0  0  0  0  0
  189.7300  177.4460  142.1440 O   0  0  0  0  0  1  0  0  0  0  0  0
  188.1860  178.8810  141.2520 O   0  0  0  0  0  0  0  0  0  0  0  0
  188.5420  177.8550  142.1180 C   0  0  0  0  0  0  0  0  0  0  0  0
  187.2160  177.2970  145.4930 C   0  0  0  0  0  2  0  0  0  0  0  0
  188.4840  177.5160  146.3170 C   0  0  1  0  0  3  0  0  0  0  0  0
  189.3350  178.4140  145.7020 F   0  0  0  0  0  0  0  0  0  0  0  0
  187.9170  176.8090  148.5090 F   0  0  0  0  0  0  0  0  0  0  0  0
  187.1130  178.7910  147.8030 F   0  0  0  0  0  0  0  0  0  0  0  0
  188.2020  177.9350  147.7590 C   0  0  0  0  0  0  0  0  0  0  0  0
  189.3060  178.5650  148.3020 F   0  0  0  0  0  0  0  0  0  0  0  0
  1 27  1  0  0  0  0
  2  1  1  6  0  0  0
  3  8  1  1  0  0  0
  3  6  1  0  0  0  0
  3  4  1  0  0  0  0
  4 19  1  6  0  0  0
  4  5  1  0  0  0  0
  5  2  1  0  0  0  0
  6  2  1  0  0  0  0
  7  9  2  0  0  0  0
  8  7  1  0  0  0  0
 10 17  1  1  0  0  0
 10  7  1  0  0  0  0
 11 16  1  0  0  0  0
 11 14  1  0  0  0  0
 11 13  1  1  0  0  0
 12 16  1  0  0  0  0
 12 15  1  0  0  0  0
 14 15  1  0  0  0  0
 15 10  1  6  0  0  0
 18 17  1  0  0  0  0
 19 20  1  0  0  0  0
 20 22  1  0  0  0  0
 22 23  1  0  0  0  0
 23 21  2  0  0  0  0
 24 25  1  0  0  0  0
 24 23  1  0  0  0  0
 26 25  1  0  0  0  0
 28 30  1  0  0  0  0
 28 31  1  0  0  0  0
 29 34  1  0  0  0  0
 30 27  1  6  0  0  0
 30 29  1  0  0  0  0
 31 32  1  0  0  0  0
 32 34  1  0  0  0  0
 32 33  2  0  0  0  0
 34 35  1  6  0  0  0
 35 36  1  0  0  0  0
 36 37  1  0  0  0  0
 38 39  1  0  0  0  0
 38 37  1  0  0  0  0
 39 45  1  1  0  0  0
 40 41  1  1  0  0  0
 40 39  1  0  0  0  0
 43 44  2  0  0  0  0
 44 42  1  0  0  0  0
 44 40  1  0  0  0  0
 45 46  1  0  0  0  0
 46 47  1  6  0  0  0
 46 50  1  0  0  0  0
 50 49  1  0  0  0  0
 50 51  1  0  0  0  0
 50 48  1  0  0  0  0
M  END
>  <MODEL>
9

>  <REMARK>
 VINA RESULT:      -5.4      4.199      8.318
  Name = 
  22 active torsions:
  status: ('A' for Active; 'I' for Inactive)
    1  A    between atoms: C_7  and  C_36
    2  A    between atoms: C_7  and  N_37
    3  A    between atoms: C_9  and  C_43
    4  A    between atoms: N_10  and  C_34
    5  A    between atoms: C_11  and  C_46
    6  A    between atoms: C_11  and  C_47
    7  A    between atoms: C_12  and  C_43
    8  A    between atoms: C_13  and  C_14
    9  A    between atoms: C_13  and  C_22
   10  A    between atoms: C_17  and  C_28
   11  A    between atoms: C_17  and  N_32
   12  A    between atoms: C_20  and  C_43
   13  A    between atoms: C_21  and  C_36
   14  A    between atoms: C_21  and  C_51
   15  A    between atoms: C_22  and  C_46
   16  A    between atoms: C_24  and  C_29
   17  A    between atoms: C_25  and  C_48
   18  A    between atoms: C_26  and  C_27
   19  A    between atoms: C_26  and  C_35
   20  A    between atoms: C_28  and  C_39
   21  A    between atoms: C_29  and  C_48
   22  A    between atoms: N_37  and  C_46
                            x       y       z     vdW  Elec       q    Type
                         _______ _______ _______ _____ _____    ______ ____

>  <TORSDO>
F 22

$$$$
