=
 OpenBabel10232408573D

 56 61  0  0  1  0  0  0  0  0999 V2000
  195.0490  173.0350  138.7680 O   0  0  0  0  0  1  0  0  0  0  0  0
  189.1240  176.6020  140.6150 C   0  0  0  0  0  3  0  0  0  0  0  0
  192.6570  177.0510  138.4130 O   0  0  0  0  0  0  0  0  0  0  0  0
  195.6270  174.2840  136.7940 C   0  0  1  0  0  3  0  0  0  0  0  0
  195.0350  174.6960  135.4490 C   0  0  0  0  0  2  0  0  0  0  0  0
  192.9930  175.8930  136.2570 C   0  0  1  0  0  3  0  0  0  0  0  0
  194.5220  173.8460  137.7630 C   0  0  2  0  0  3  0  0  0  0  0  0
  190.2150  176.6750  138.4350 C   0  0  0  0  0  0  0  0  0  0  0  0
  192.0980  176.9600  135.8480 N   0  0  0  0  0  2  0  0  0  0  0  0
  190.3330  176.8830  141.2590 C   0  0  0  0  0  0  0  0  0  0  0  0
  190.6820  176.7970  135.8660 C   0  0  0  0  0  0  0  0  0  0  0  0
  189.9390  176.6610  136.9750 C   0  0  0  0  0  3  0  0  0  0  0  0
  191.4500  176.9310  139.0890 C   0  0  0  0  0  0  0  0  0  0  0  0
  194.3190  176.0390  135.5270 C   0  0  0  0  0  2  0  0  0  0  0  0
  193.8790  175.0380  138.4030 C   0  0  0  0  0  3  0  0  0  0  0  0
  189.0710  176.5080  139.2240 C   0  0  0  0  0  3  0  0  0  0  0  0
  193.1960  175.9670  137.7290 C   0  0  0  0  0  0  0  0  0  0  0  0
  191.4870  177.0480  140.4830 C   0  0  0  0  0  3  0  0  0  0  0  0
  189.2330  177.5320  147.5850 C   0  0  0  0  0  3  0  0  0  0  0  0
  191.6170  176.8860  144.8150 C   0  0  0  0  0  3  0  0  0  0  0  0
  188.0490  177.7190  146.8640 C   0  0  0  0  0  3  0  0  0  0  0  0
  191.5980  177.0900  147.6520 O   0  0  0  0  0  1  0  0  0  0  0  0
  190.3840  176.9890  142.7320 C   0  0  0  0  0  0  0  0  0  0  0  0
  191.5910  176.7950  143.4220 C   0  0  0  0  0  3  0  0  0  0  0  0
  189.2490  177.2620  143.4350 N   0  0  0  0  0  0  0  0  0  0  0  0
  190.4420  177.1710  145.5170 C   0  0  0  0  0  0  0  0  0  0  0  0
  188.0540  177.6340  145.4690 C   0  0  0  0  0  3  0  0  0  0  0  0
  189.2440  177.3630  144.7910 C   0  0  0  0  0  0  0  0  0  0  0  0
  190.4310  177.2600  146.9180 C   0  0  0  0  0  0  0  0  0  0  0  0
  196.5330  173.2380  136.5830 O   0  0  0  0  0  0  0  0  0  0  0  0
  199.1270  172.7920  137.4290 O   0  0  0  0  0  1  0  0  0  0  0  0
  198.5760  174.3160  135.3750 O   0  0  0  0  0  0  0  0  0  0  0  0
  198.0730  173.9330  136.7500 P   0  0  1  0  0  0  0  0  0  0  0  0
  197.9490  175.3300  137.7340 O   0  0  0  0  0  0  0  0  0  0  0  0
  197.6260  173.9590  139.5620 F   0  0  0  0  0  0  0  0  0  0  0  0
  199.7050  174.7720  139.1360 F   0  0  0  0  0  0  0  0  0  0  0  0
  198.3460  175.0320  139.0580 C   0  0  0  0  0  0  0  0  0  0  0  0
  198.0790  176.1330  139.8480 F   0  0  0  0  0  0  0  0  0  0  0  0
  189.9630  176.8420  134.5640 C   0  0  0  0  0  2  0  0  0  0  0  0
  188.9570  175.7070  134.4830 C   0  0  0  0  0  2  0  0  0  0  0  0
  187.5520  176.2640  134.3460 C   0  0  0  0  0  2  0  0  0  0  0  0
  186.7580  175.8290  135.4080 O   0  0  0  0  0  0  0  0  0  0  0  0
  186.3610  177.0010  136.0510 C   0  0  0  0  0  2  0  0  0  0  0  0
  184.8480  177.0160  136.2000 C   0  0  0  0  0  2  0  0  0  0  0  0
  183.4200  177.8520  140.2980 C   0  0  0  0  0  2  0  0  0  0  0  0
  183.4370  176.3570  138.2840 C   0  0  0  0  0  0  0  0  0  0  0  0
  182.9640  176.6600  139.4990 C   0  0  0  0  0  3  0  0  0  0  0  0
  184.5730  178.5740  139.6620 C   0  0  0  0  0  0  0  0  0  0  0  0
  184.9840  178.2650  138.2870 C   0  0  0  0  0  3  0  0  0  0  0  0
  185.1660  179.4820  140.2980 O   0  0  0  0  0  0  0  0  0  0  0  0
  184.4550  177.2290  137.6290 C   0  0  0  0  0  0  0  0  0  0  0  0
  182.8850  175.2150  137.6160 N   0  0  0  0  0  2  0  0  0  0  0  0
  184.7090  173.7760  137.8960 O   0  0  0  0  0  0  0  0  0  0  0  0
  183.6080  174.0110  137.3270 C   0  0  0  0  0  0  0  0  0  0  0  0
  182.4580  171.8770  136.9120 C   0  0  0  0  0  1  0  0  0  0  0  0
  183.0840  173.0660  136.4470 O   0  0  0  0  0  0  0  0  0  0  0  0
  2 10  1  0  0  0  0
  3 13  1  0  0  0  0
  4 30  1  6  0  0  0
  4  7  1  0  0  0  0
  5 14  1  0  0  0  0
  5  4  1  0  0  0  0
  6 14  1  6  0  0  0
  6 17  1  0  0  0  0
  7 15  1  0  0  0  0
  7  1  1  1  0  0  0
  8 13  2  0  0  0  0
  8 16  1  0  0  0  0
  9 11  1  0  0  0  0
  9  6  1  0  0  0  0
 10 23  1  0  0  0  0
 11 12  2  0  0  0  0
 12  8  1  0  0  0  0
 13 18  1  0  0  0  0
 16  2  2  0  0  0  0
 17 15  2  0  0  0  0
 17  3  1  0  0  0  0
 18 10  2  0  0  0  0
 20 26  1  0  0  0  0
 21 19  2  0  0  0  0
 23 24  1  0  0  0  0
 23 25  2  0  0  0  0
 24 20  2  0  0  0  0
 25 28  1  0  0  0  0
 26 29  2  0  0  0  0
 27 21  1  0  0  0  0
 28 27  2  0  0  0  0
 28 26  1  0  0  0  0
 29 19  1  0  0  0  0
 29 22  1  0  0  0  0
 30 33  1  0  0  0  0
 33 32  2  6  0  0  0
 33 31  1  0  0  0  0
 33 34  1  0  0  0  0
 34 37  1  0  0  0  0
 37 36  1  0  0  0  0
 37 35  1  0  0  0  0
 37 38  1  0  0  0  0
 39 11  1  0  0  0  0
 40 39  1  0  0  0  0
 41 40  1  0  0  0  0
 41 42  1  0  0  0  0
 42 43  1  0  0  0  0
 43 44  1  0  0  0  0
 44 51  1  0  0  0  0
 46 47  2  0  0  0  0
 47 45  1  0  0  0  0
 48 45  1  0  0  0  0
 48 50  2  0  0  0  0
 49 48  1  0  0  0  0
 51 46  1  0  0  0  0
 51 49  2  0  0  0  0
 52 46  1  0  0  0  0
 54 52  1  0  0  0  0
 54 53  2  0  0  0  0
 56 55  1  0  0  0  0
 56 54  1  0  0  0  0
M  END
>  <MODEL>
1

>  <REMARK>
 VINA RESULT:      -7.9      0.000      0.000
  Name = 
  14 active torsions:
  status: ('A' for Active; 'I' for Inactive)
    1  A    between atoms: O_11  and  C_12
    2  A    between atoms: O_11  and  P_36
    3  A    between atoms: C_13  and  O_24
    4  A    between atoms: C_15  and  C_35
    5  A    between atoms: C_17  and  C_31
    6  A    between atoms: C_17  and  C_56
    7  A    between atoms: O_19  and  C_31
    8  A    between atoms: O_19  and  C_38
    9  A    between atoms: N_21  and  C_25
   10  A    between atoms: O_24  and  P_36
   11  A    between atoms: C_27  and  C_37
   12  A    between atoms: C_27  and  C_55
   13  A    between atoms: C_38  and  C_55
   14  A    between atoms: O_50  and  C_51
                            x       y       z     vdW  Elec       q    Type
                         _______ _______ _______ _____ _____    ______ ____

>  <TORSDO>
F 14

$$$$
=
 OpenBabel10232408573D

 56 61  0  0  1  0  0  0  0  0999 V2000
  192.3820  178.0780  142.4360 O   0  0  0  0  0  1  0  0  0  0  0  0
  193.1460  175.6350  135.7520 C   0  0  0  0  0  3  0  0  0  0  0  0
  190.5080  175.4980  139.0000 O   0  0  0  0  0  0  0  0  0  0  0  0
  189.9910  177.8830  142.6260 C   0  0  1  0  0  3  0  0  0  0  0  0
  188.7150  178.3560  141.9340 C   0  0  0  0  0  2  0  0  0  0  0  0
  189.1420  177.4550  139.6410 C   0  0  1  0  0  3  0  0  0  0  0  0
  191.2010  178.0340  141.6950 C   0  0  2  0  0  3  0  0  0  0  0  0
  191.0620  176.3950  136.7660 C   0  0  0  0  0  0  0  0  0  0  0  0
  188.4090  176.9890  138.4770 N   0  0  0  0  0  2  0  0  0  0  0  0
  193.3930  174.7850  136.8340 C   0  0  0  0  0  0  0  0  0  0  0  0
  188.7090  177.4610  137.1660 C   0  0  0  0  0  0  0  0  0  0  0  0
  189.8430  177.2020  136.4980 C   0  0  0  0  0  3  0  0  0  0  0  0
  191.3260  175.5550  137.8800 C   0  0  0  0  0  0  0  0  0  0  0  0
  188.2460  177.3740  140.8670 C   0  0  0  0  0  2  0  0  0  0  0  0
  191.2810  176.8800  140.7440 C   0  0  0  0  0  3  0  0  0  0  0  0
  191.9930  176.4200  135.7200 C   0  0  0  0  0  3  0  0  0  0  0  0
  190.3540  176.6100  139.8210 C   0  0  0  0  0  0  0  0  0  0  0  0
  192.4740  174.7530  137.8900 C   0  0  0  0  0  3  0  0  0  0  0  0
  199.3520  172.3070  136.7680 C   0  0  0  0  0  3  0  0  0  0  0  0
  195.6940  171.8000  137.1350 C   0  0  0  0  0  3  0  0  0  0  0  0
  199.3960  173.6850  136.5310 C   0  0  0  0  0  3  0  0  0  0  0  0
  198.1050  170.2910  137.1860 O   0  0  0  0  0  1  0  0  0  0  0  0
  194.6130  173.9500  136.8610 C   0  0  0  0  0  0  0  0  0  0  0  0
  194.5300  172.5700  137.1010 C   0  0  0  0  0  3  0  0  0  0  0  0
  195.8340  174.5220  136.6650 N   0  0  0  0  0  0  0  0  0  0  0  0
  196.9360  172.4060  136.9280 C   0  0  0  0  0  0  0  0  0  0  0  0
  198.2140  174.4300  136.4910 C   0  0  0  0  0  3  0  0  0  0  0  0
  196.9840  173.7980  136.6860 C   0  0  0  0  0  0  0  0  0  0  0  0
  198.1270  171.6620  136.9650 C   0  0  0  0  0  0  0  0  0  0  0  0
  190.1750  178.6380  143.7900 O   0  0  0  0  0  0  0  0  0  0  0  0
  188.7630  178.0100  146.0820 O   0  0  0  0  0  1  0  0  0  0  0  0
  189.7270  176.1680  144.4940 O   0  0  0  0  0  0  0  0  0  0  0  0
  190.0370  177.5330  145.0710 P   0  0  1  0  0  0  0  0  0  0  0  0
  191.5220  177.4800  145.9240 O   0  0  0  0  0  0  0  0  0  0  0  0
  192.0430  177.0350  148.1280 F   0  0  0  0  0  0  0  0  0  0  0  0
  190.1380  176.1710  147.2400 F   0  0  0  0  0  0  0  0  0  0  0  0
  191.4480  176.5400  146.9770 C   0  0  0  0  0  0  0  0  0  0  0  0
  192.1390  175.4070  146.5940 F   0  0  0  0  0  0  0  0  0  0  0  0
  187.6630  178.2480  136.4580 C   0  0  0  0  0  2  0  0  0  0  0  0
  186.5480  177.3290  135.9880 C   0  0  0  0  0  2  0  0  0  0  0  0
  185.3540  177.4400  136.9190 C   0  0  0  0  0  2  0  0  0  0  0  0
  185.5450  178.4890  137.8200 O   0  0  0  0  0  0  0  0  0  0  0  0
  184.8690  178.0870  138.9710 C   0  0  0  0  0  2  0  0  0  0  0  0
  184.3130  179.3070  139.6900 C   0  0  0  0  0  2  0  0  0  0  0  0
  183.4570  178.7420  143.9890 C   0  0  0  0  0  2  0  0  0  0  0  0
  182.6260  178.8970  141.6280 C   0  0  0  0  0  0  0  0  0  0  0  0
  182.3790  178.7940  142.9390 C   0  0  0  0  0  3  0  0  0  0  0  0
  184.8380  178.6570  143.4030 C   0  0  0  0  0  0  0  0  0  0  0  0
  185.0580  178.8770  141.9690 C   0  0  0  0  0  3  0  0  0  0  0  0
  185.8200  178.4370  144.1560 O   0  0  0  0  0  0  0  0  0  0  0  0
  184.0280  178.9950  141.1260 C   0  0  0  0  0  0  0  0  0  0  0  0
  181.5040  178.9780  140.7390 N   0  0  0  0  0  2  0  0  0  0  0  0
  181.5090  176.7510  140.0230 O   0  0  0  0  0  0  0  0  0  0  0  0
  181.0810  177.9250  139.8630 C   0  0  0  0  0  0  0  0  0  0  0  0
  180.5610  178.4040  137.5060 C   0  0  0  0  0  1  0  0  0  0  0  0
  180.1560  178.1780  138.8500 O   0  0  0  0  0  0  0  0  0  0  0  0
  2 10  1  0  0  0  0
  3 17  1  0  0  0  0
  4 30  1  1  0  0  0
  5  4  1  0  0  0  0
  6 17  1  0  0  0  0
  6 14  1  1  0  0  0
  7  1  1  1  0  0  0
  7  4  1  0  0  0  0
  8 13  2  0  0  0  0
  9  6  1  0  0  0  0
 10 23  1  0  0  0  0
 10 18  2  0  0  0  0
 11  9  1  0  0  0  0
 12  8  1  0  0  0  0
 12 11  2  0  0  0  0
 13 18  1  0  0  0  0
 13  3  1  0  0  0  0
 14  5  1  0  0  0  0
 15  7  1  0  0  0  0
 16  2  2  0  0  0  0
 16  8  1  0  0  0  0
 17 15  2  0  0  0  0
 19 29  1  0  0  0  0
 21 19  2  0  0  0  0
 23 24  1  0  0  0  0
 24 20  2  0  0  0  0
 25 28  1  0  0  0  0
 25 23  2  0  0  0  0
 26 29  2  0  0  0  0
 26 20  1  0  0  0  0
 27 21  1  0  0  0  0
 27 28  2  0  0  0  0
 28 26  1  0  0  0  0
 29 22  1  0  0  0  0
 30 33  1  0  0  0  0
 33 32  2  6  0  0  0
 33 34  1  0  0  0  0
 33 31  1  0  0  0  0
 34 37  1  0  0  0  0
 37 36  1  0  0  0  0
 37 35  1  0  0  0  0
 38 37  1  0  0  0  0
 39 11  1  0  0  0  0
 40 39  1  0  0  0  0
 40 41  1  0  0  0  0
 41 42  1  0  0  0  0
 42 43  1  0  0  0  0
 43 44  1  0  0  0  0
 44 51  1  0  0  0  0
 46 47  2  0  0  0  0
 47 45  1  0  0  0  0
 48 45  1  0  0  0  0
 48 50  2  0  0  0  0
 49 48  1  0  0  0  0
 51 46  1  0  0  0  0
 51 49  2  0  0  0  0
 52 46  1  0  0  0  0
 54 53  2  0  0  0  0
 54 52  1  0  0  0  0
 55 56  1  0  0  0  0
 56 54  1  0  0  0  0
M  END
>  <MODEL>
2

>  <REMARK>
 VINA RESULT:      -7.9      3.847      8.234
  Name = 
  14 active torsions:
  status: ('A' for Active; 'I' for Inactive)
    1  A    between atoms: O_11  and  C_12
    2  A    between atoms: O_11  and  P_36
    3  A    between atoms: C_13  and  O_24
    4  A    between atoms: C_15  and  C_35
    5  A    between atoms: C_17  and  C_31
    6  A    between atoms: C_17  and  C_56
    7  A    between atoms: O_19  and  C_31
    8  A    between atoms: O_19  and  C_38
    9  A    between atoms: N_21  and  C_25
   10  A    between atoms: O_24  and  P_36
   11  A    between atoms: C_27  and  C_37
   12  A    between atoms: C_27  and  C_55
   13  A    between atoms: C_38  and  C_55
   14  A    between atoms: O_50  and  C_51
                            x       y       z     vdW  Elec       q    Type
                         _______ _______ _______ _____ _____    ______ ____

>  <TORSDO>
F 14

$$$$
=
 OpenBabel10232408573D

 56 61  0  0  1  0  0  0  0  0999 V2000
  195.0110  173.0970  138.6020 O   0  0  0  0  0  1  0  0  0  0  0  0
  189.0610  176.5600  140.5620 C   0  0  0  0  0  3  0  0  0  0  0  0
  192.5530  177.0780  138.3110 O   0  0  0  0  0  0  0  0  0  0  0  0
  195.5400  174.3680  136.6280 C   0  0  1  0  0  3  0  0  0  0  0  0
  194.9210  174.7800  135.2940 C   0  0  0  0  0  2  0  0  0  0  0  0
  192.8740  175.9400  136.1420 C   0  0  1  0  0  3  0  0  0  0  0  0
  194.4560  173.9070  137.6100 C   0  0  2  0  0  3  0  0  0  0  0  0
  190.1180  176.6650  138.3670 C   0  0  0  0  0  0  0  0  0  0  0  0
  191.9570  176.9960  135.7540 N   0  0  0  0  0  2  0  0  0  0  0  0
  190.2750  176.8550  141.1900 C   0  0  0  0  0  0  0  0  0  0  0  0
  190.5440  176.8110  135.7920 C   0  0  0  0  0  0  0  0  0  0  0  0
  189.8200  176.6570  136.9110 C   0  0  0  0  0  3  0  0  0  0  0  0
  191.3580  176.9350  139.0040 C   0  0  0  0  0  0  0  0  0  0  0  0
  194.1860  176.1120  135.3930 C   0  0  0  0  0  2  0  0  0  0  0  0
  193.8050  175.0840  138.2680 C   0  0  0  0  0  3  0  0  0  0  0  0
  188.9880  176.4750  139.1720 C   0  0  0  0  0  3  0  0  0  0  0  0
  193.0970  176.0070  137.6120 C   0  0  0  0  0  0  0  0  0  0  0  0
  191.4150  177.0430  140.3980 C   0  0  0  0  0  3  0  0  0  0  0  0
  189.2650  177.4680  147.5350 C   0  0  0  0  0  3  0  0  0  0  0  0
  191.6080  176.8310  144.7280 C   0  0  0  0  0  3  0  0  0  0  0  0
  188.0710  177.6630  146.8310 C   0  0  0  0  0  3  0  0  0  0  0  0
  191.6290  177.0180  147.5660 O   0  0  0  0  0  1  0  0  0  0  0  0
  190.3470  176.9510  142.6630 C   0  0  0  0  0  0  0  0  0  0  0  0
  191.5620  176.7490  143.3350 C   0  0  0  0  0  3  0  0  0  0  0  0
  189.2220  177.2240  143.3840 N   0  0  0  0  0  0  0  0  0  0  0  0
  190.4440  177.1160  145.4480 C   0  0  0  0  0  0  0  0  0  0  0  0
  188.0570  177.5870  145.4360 C   0  0  0  0  0  3  0  0  0  0  0  0
  189.2370  177.3160  144.7400 C   0  0  0  0  0  0  0  0  0  0  0  0
  190.4520  177.1960  146.8490 C   0  0  0  0  0  0  0  0  0  0  0  0
  196.4580  173.3380  136.3960 O   0  0  0  0  0  0  0  0  0  0  0  0
  199.1700  172.9330  136.7510 O   0  0  0  0  0  1  0  0  0  0  0  0
  198.2350  174.6290  134.9920 O   0  0  0  0  0  0  0  0  0  0  0  0
  197.9820  174.0850  136.3810 P   0  0  1  0  0  0  0  0  0  0  0  0
  197.9840  175.3680  137.5170 O   0  0  0  0  0  0  0  0  0  0  0  0
  197.7510  173.7390  139.1360 F   0  0  0  0  0  0  0  0  0  0  0  0
  199.7870  174.6920  138.8020 F   0  0  0  0  0  0  0  0  0  0  0  0
  198.4170  174.9020  138.7790 C   0  0  0  0  0  0  0  0  0  0  0  0
  198.1210  175.8680  139.7210 F   0  0  0  0  0  0  0  0  0  0  0  0
  189.8050  176.8550  134.5010 C   0  0  0  0  0  2  0  0  0  0  0  0
  188.3950  176.3210  134.6880 C   0  0  0  0  0  2  0  0  0  0  0  0
  187.3830  177.4300  134.4650 C   0  0  0  0  0  2  0  0  0  0  0  0
  186.1720  177.1040  135.0770 O   0  0  0  0  0  0  0  0  0  0  0  0
  186.2830  177.6220  136.3670 C   0  0  0  0  0  2  0  0  0  0  0  0
  185.2930  176.9220  137.2860 C   0  0  0  0  0  2  0  0  0  0  0  0
  181.3500  178.8790  137.6820 C   0  0  0  0  0  2  0  0  0  0  0  0
  183.7450  178.6890  138.4030 C   0  0  0  0  0  0  0  0  0  0  0  0
  182.5270  179.2240  138.5550 C   0  0  0  0  0  3  0  0  0  0  0  0
  181.7210  177.9940  136.5260 C   0  0  0  0  0  0  0  0  0  0  0  0
  183.0410  177.3550  136.4650 C   0  0  0  0  0  3  0  0  0  0  0  0
  180.8770  177.7650  135.6230 O   0  0  0  0  0  0  0  0  0  0  0  0
  183.9980  177.6700  137.3430 C   0  0  0  0  0  0  0  0  0  0  0  0
  184.7670  179.0760  139.3310 N   0  0  0  0  0  2  0  0  0  0  0  0
  183.8230  178.1290  141.2510 O   0  0  0  0  0  0  0  0  0  0  0  0
  184.6880  178.8980  140.7520 C   0  0  0  0  0  0  0  0  0  0  0  0
  186.7520  178.8770  142.0910 C   0  0  0  0  0  1  0  0  0  0  0  0
  185.5940  179.5380  141.5960 O   0  0  0  0  0  0  0  0  0  0  0  0
  2 10  1  0  0  0  0
  3 13  1  0  0  0  0
  4 30  1  6  0  0  0
  4  7  1  0  0  0  0
  5 14  1  0  0  0  0
  5  4  1  0  0  0  0
  6 14  1  6  0  0  0
  6 17  1  0  0  0  0
  7 15  1  0  0  0  0
  7  1  1  1  0  0  0
  8 13  2  0  0  0  0
  8 16  1  0  0  0  0
  9 11  1  0  0  0  0
  9  6  1  0  0  0  0
 10 23  1  0  0  0  0
 11 12  2  0  0  0  0
 12  8  1  0  0  0  0
 13 18  1  0  0  0  0
 16  2  2  0  0  0  0
 17 15  2  0  0  0  0
 17  3  1  0  0  0  0
 18 10  2  0  0  0  0
 20 26  1  0  0  0  0
 21 19  2  0  0  0  0
 23 24  1  0  0  0  0
 23 25  2  0  0  0  0
 24 20  2  0  0  0  0
 25 28  1  0  0  0  0
 26 29  2  0  0  0  0
 27 21  1  0  0  0  0
 28 27  2  0  0  0  0
 28 26  1  0  0  0  0
 29 19  1  0  0  0  0
 29 22  1  0  0  0  0
 33 32  2  6  0  0  0
 33 30  1  0  0  0  0
 33 31  1  0  0  0  0
 33 34  1  0  0  0  0
 34 37  1  0  0  0  0
 37 36  1  0  0  0  0
 37 35  1  0  0  0  0
 37 38  1  0  0  0  0
 39 40  1  0  0  0  0
 39 11  1  0  0  0  0
 41 40  1  0  0  0  0
 41 42  1  0  0  0  0
 42 43  1  0  0  0  0
 43 44  1  0  0  0  0
 44 51  1  0  0  0  0
 45 47  1  0  0  0  0
 46 47  2  0  0  0  0
 46 52  1  0  0  0  0
 48 45  1  0  0  0  0
 49 48  1  0  0  0  0
 49 51  2  0  0  0  0
 50 48  2  0  0  0  0
 51 46  1  0  0  0  0
 52 54  1  0  0  0  0
 54 53  2  0  0  0  0
 54 56  1  0  0  0  0
 56 55  1  0  0  0  0
M  END
>  <MODEL>
3

>  <REMARK>
 VINA RESULT:      -7.7      1.564      2.542
  Name = 
  14 active torsions:
  status: ('A' for Active; 'I' for Inactive)
    1  A    between atoms: O_11  and  C_12
    2  A    between atoms: O_11  and  P_36
    3  A    between atoms: C_13  and  O_24
    4  A    between atoms: C_15  and  C_35
    5  A    between atoms: C_17  and  C_31
    6  A    between atoms: C_17  and  C_56
    7  A    between atoms: O_19  and  C_31
    8  A    between atoms: O_19  and  C_38
    9  A    between atoms: N_21  and  C_25
   10  A    between atoms: O_24  and  P_36
   11  A    between atoms: C_27  and  C_37
   12  A    between atoms: C_27  and  C_55
   13  A    between atoms: C_38  and  C_55
   14  A    between atoms: O_50  and  C_51
                            x       y       z     vdW  Elec       q    Type
                         _______ _______ _______ _____ _____    ______ ____

>  <TORSDO>
F 14

$$$$
=
 OpenBabel10232408573D

 56 61  0  0  1  0  0  0  0  0999 V2000
  195.1630  173.0490  138.7310 O   0  0  0  0  0  1  0  0  0  0  0  0
  189.1500  176.5140  140.4820 C   0  0  0  0  0  3  0  0  0  0  0  0
  192.6950  177.0120  138.3100 O   0  0  0  0  0  0  0  0  0  0  0  0
  195.7360  174.2890  136.7490 C   0  0  1  0  0  3  0  0  0  0  0  0
  195.1490  174.6750  135.3940 C   0  0  0  0  0  2  0  0  0  0  0  0
  193.0760  175.8390  136.1700 C   0  0  1  0  0  3  0  0  0  0  0  0
  194.6300  173.8390  137.7120 C   0  0  2  0  0  3  0  0  0  0  0  0
  190.2610  176.5880  138.3120 C   0  0  0  0  0  0  0  0  0  0  0  0
  192.1640  176.8840  135.7410 N   0  0  0  0  0  2  0  0  0  0  0  0
  190.3460  176.8260  141.1340 C   0  0  0  0  0  0  0  0  0  0  0  0
  190.7510  176.6920  135.7470 C   0  0  0  0  0  0  0  0  0  0  0  0
  190.0000  176.5530  136.8490 C   0  0  0  0  0  3  0  0  0  0  0  0
  191.4840  176.8750  138.9750 C   0  0  0  0  0  0  0  0  0  0  0  0
  194.4060  176.0040  135.4510 C   0  0  0  0  0  2  0  0  0  0  0  0
  193.9570  175.0240  138.3330 C   0  0  0  0  0  3  0  0  0  0  0  0
  189.1120  176.4050  139.0920 C   0  0  0  0  0  3  0  0  0  0  0  0
  193.2620  175.9320  137.6430 C   0  0  0  0  0  0  0  0  0  0  0  0
  191.5050  177.0070  140.3690 C   0  0  0  0  0  3  0  0  0  0  0  0
  189.1690  177.5100  147.4430 C   0  0  0  0  0  3  0  0  0  0  0  0
  191.5960  176.8980  144.7020 C   0  0  0  0  0  3  0  0  0  0  0  0
  187.9880  177.6590  146.7090 C   0  0  0  0  0  3  0  0  0  0  0  0
  191.5440  177.1300  147.5370 O   0  0  0  0  0  1  0  0  0  0  0  0
  190.3800  176.9480  142.6070 C   0  0  0  0  0  0  0  0  0  0  0  0
  191.5850  176.7920  143.3110 C   0  0  0  0  0  3  0  0  0  0  0  0
  189.2320  177.1990  143.2970 N   0  0  0  0  0  0  0  0  0  0  0  0
  190.4070  177.1600  145.3900 C   0  0  0  0  0  0  0  0  0  0  0  0
  188.0080  177.5600  145.3150 C   0  0  0  0  0  3  0  0  0  0  0  0
  189.2110  177.3130  144.6510 C   0  0  0  0  0  0  0  0  0  0  0  0
  190.3800  177.2630  146.7900 C   0  0  0  0  0  0  0  0  0  0  0  0
  196.6650  173.2590  136.5580 O   0  0  0  0  0  0  0  0  0  0  0  0
  198.7940  174.4220  135.2350 O   0  0  0  0  0  0  0  0  0  0  0  0
  198.0200  175.2260  137.6010 O   0  0  0  0  0  1  0  0  0  0  0  0
  198.1880  173.9820  136.7550 P   0  0  1  0  0  0  0  0  0  0  0  0
  199.2310  172.8770  137.5460 O   0  0  0  0  0  0  0  0  0  0  0  0
  198.0300  170.9150  137.7320 F   0  0  0  0  0  0  0  0  0  0  0  0
  198.7460  171.5910  135.6840 F   0  0  0  0  0  0  0  0  0  0  0  0
  199.0360  171.5720  137.0390 C   0  0  0  0  0  0  0  0  0  0  0  0
  200.2070  170.8620  137.2120 F   0  0  0  0  0  0  0  0  0  0  0  0
  190.0450  176.7100  134.4370 C   0  0  0  0  0  2  0  0  0  0  0  0
  189.0830  175.5370  134.3460 C   0  0  0  0  0  2  0  0  0  0  0  0
  187.6500  176.0370  134.3460 C   0  0  0  0  0  2  0  0  0  0  0  0
  186.8320  175.1470  135.0440 O   0  0  0  0  0  0  0  0  0  0  0  0
  186.6580  175.7400  136.2940 C   0  0  0  0  0  2  0  0  0  0  0  0
  186.1900  177.1760  136.1190 C   0  0  0  0  0  2  0  0  0  0  0  0
  183.4120  178.6600  139.2200 C   0  0  0  0  0  2  0  0  0  0  0  0
  183.8180  177.2510  137.1850 C   0  0  0  0  0  0  0  0  0  0  0  0
  182.9770  177.7620  138.0920 C   0  0  0  0  0  3  0  0  0  0  0  0
  184.9050  178.7930  139.3160 C   0  0  0  0  0  0  0  0  0  0  0  0
  185.7730  178.2990  138.2400 C   0  0  0  0  0  3  0  0  0  0  0  0
  185.4150  179.3710  140.3090 O   0  0  0  0  0  0  0  0  0  0  0  0
  185.2730  177.5770  137.2330 C   0  0  0  0  0  0  0  0  0  0  0  0
  183.2640  176.4440  136.1380 N   0  0  0  0  0  2  0  0  0  0  0  0
  183.2240  174.4110  137.2970 O   0  0  0  0  0  0  0  0  0  0  0  0
  183.1230  175.0180  136.1960 C   0  0  0  0  0  0  0  0  0  0  0  0
  183.1650  172.9140  134.9210 C   0  0  0  0  0  1  0  0  0  0  0  0
  182.8270  174.2890  135.0450 O   0  0  0  0  0  0  0  0  0  0  0  0
  2 10  1  0  0  0  0
  3 13  1  0  0  0  0
  4 30  1  6  0  0  0
  4  7  1  0  0  0  0
  5 14  1  0  0  0  0
  5  4  1  0  0  0  0
  6 14  1  6  0  0  0
  6 17  1  0  0  0  0
  7 15  1  0  0  0  0
  7  1  1  1  0  0  0
  8 13  2  0  0  0  0
  8 16  1  0  0  0  0
  9 11  1  0  0  0  0
  9  6  1  0  0  0  0
 10 23  1  0  0  0  0
 11 12  2  0  0  0  0
 12  8  1  0  0  0  0
 13 18  1  0  0  0  0
 16  2  2  0  0  0  0
 17  3  1  0  0  0  0
 17 15  2  0  0  0  0
 18 10  2  0  0  0  0
 20 26  1  0  0  0  0
 21 19  2  0  0  0  0
 23 25  2  0  0  0  0
 23 24  1  0  0  0  0
 24 20  2  0  0  0  0
 25 28  1  0  0  0  0
 26 29  2  0  0  0  0
 27 21  1  0  0  0  0
 28 27  2  0  0  0  0
 28 26  1  0  0  0  0
 29 19  1  0  0  0  0
 29 22  1  0  0  0  0
 30 33  1  0  0  0  0
 33 31  2  6  0  0  0
 33 34  1  0  0  0  0
 33 32  1  0  0  0  0
 36 37  1  0  0  0  0
 37 38  1  0  0  0  0
 37 34  1  0  0  0  0
 37 35  1  0  0  0  0
 39 11  1  0  0  0  0
 40 39  1  0  0  0  0
 41 40  1  0  0  0  0
 41 42  1  0  0  0  0
 42 43  1  0  0  0  0
 44 43  1  0  0  0  0
 44 51  1  0  0  0  0
 45 48  1  0  0  0  0
 46 51  1  0  0  0  0
 46 47  2  0  0  0  0
 47 45  1  0  0  0  0
 48 50  2  0  0  0  0
 49 48  1  0  0  0  0
 51 49  2  0  0  0  0
 52 54  1  0  0  0  0
 52 46  1  0  0  0  0
 54 53  2  0  0  0  0
 55 56  1  0  0  0  0
 56 54  1  0  0  0  0
M  END
>  <MODEL>
4

>  <REMARK>
 VINA RESULT:      -7.7      1.374      1.611
  Name = 
  14 active torsions:
  status: ('A' for Active; 'I' for Inactive)
    1  A    between atoms: O_11  and  C_12
    2  A    between atoms: O_11  and  P_36
    3  A    between atoms: C_13  and  O_24
    4  A    between atoms: C_15  and  C_35
    5  A    between atoms: C_17  and  C_31
    6  A    between atoms: C_17  and  C_56
    7  A    between atoms: O_19  and  C_31
    8  A    between atoms: O_19  and  C_38
    9  A    between atoms: N_21  and  C_25
   10  A    between atoms: O_24  and  P_36
   11  A    between atoms: C_27  and  C_37
   12  A    between atoms: C_27  and  C_55
   13  A    between atoms: C_38  and  C_55
   14  A    between atoms: O_50  and  C_51
                            x       y       z     vdW  Elec       q    Type
                         _______ _______ _______ _____ _____    ______ ____

>  <TORSDO>
F 14

$$$$
=
 OpenBabel10232408573D

 56 61  0  0  1  0  0  0  0  0999 V2000
  192.3090  177.8880  142.3560 O   0  0  0  0  0  1  0  0  0  0  0  0
  192.6280  175.6050  135.5800 C   0  0  0  0  0  3  0  0  0  0  0  0
  190.0820  175.6320  138.9040 O   0  0  0  0  0  0  0  0  0  0  0  0
  189.9170  177.9340  142.6150 C   0  0  1  0  0  3  0  0  0  0  0  0
  188.6780  178.5590  141.9780 C   0  0  0  0  0  2  0  0  0  0  0  0
  188.9450  177.6960  139.6460 C   0  0  1  0  0  3  0  0  0  0  0  0
  191.1100  177.9910  141.6520 C   0  0  2  0  0  3  0  0  0  0  0  0
  190.6630  176.5410  136.6810 C   0  0  0  0  0  0  0  0  0  0  0  0
  188.1360  177.3480  138.4920 N   0  0  0  0  0  2  0  0  0  0  0  0
  192.8160  174.6990  136.6270 C   0  0  0  0  0  0  0  0  0  0  0  0
  188.4460  177.8300  137.1880 C   0  0  0  0  0  0  0  0  0  0  0  0
  189.5280  177.4780  136.4770 C   0  0  0  0  0  3  0  0  0  0  0  0
  190.8700  175.6420  137.7610 C   0  0  0  0  0  0  0  0  0  0  0  0
  188.0810  177.6670  140.8970 C   0  0  0  0  0  2  0  0  0  0  0  0
  191.0430  176.8670  140.6630 C   0  0  0  0  0  3  0  0  0  0  0  0
  191.5620  176.5050  135.6080 C   0  0  0  0  0  3  0  0  0  0  0  0
  190.0670  176.7250  139.7630 C   0  0  0  0  0  0  0  0  0  0  0  0
  191.9280  174.7260  137.7100 C   0  0  0  0  0  3  0  0  0  0  0  0
  196.7640  169.5960  136.4700 C   0  0  0  0  0  3  0  0  0  0  0  0
  196.3160  173.2800  136.4580 C   0  0  0  0  0  3  0  0  0  0  0  0
  195.4320  169.1780  136.5560 C   0  0  0  0  0  3  0  0  0  0  0  0
  198.4060  171.3530  136.3710 O   0  0  0  0  0  1  0  0  0  0  0  0
  193.9420  173.7420  136.5900 C   0  0  0  0  0  0  0  0  0  0  0  0
  195.2660  174.1990  136.5040 C   0  0  0  0  0  3  0  0  0  0  0  0
  193.6980  172.4020  136.6250 N   0  0  0  0  0  0  0  0  0  0  0  0
  196.0450  171.9090  136.4980 C   0  0  0  0  0  0  0  0  0  0  0  0
  194.4010  170.1190  136.6130 C   0  0  0  0  0  3  0  0  0  0  0  0
  194.7000  171.4830  136.5860 C   0  0  0  0  0  0  0  0  0  0  0  0
  197.0760  170.9580  136.4430 C   0  0  0  0  0  0  0  0  0  0  0  0
  190.2110  178.6270  143.7950 O   0  0  0  0  0  0  0  0  0  0  0  0
  188.7920  176.3600  144.4940 O   0  0  0  0  0  0  0  0  0  0  0  0
  191.1700  176.8650  145.4600 O   0  0  0  0  0  1  0  0  0  0  0  0
  189.8760  177.5370  145.0530 P   0  0  1  0  0  0  0  0  0  0  0  0
  189.2260  178.4010  146.3810 O   0  0  0  0  0  0  0  0  0  0  0  0
  187.2030  177.2950  146.4600 F   0  0  0  0  0  0  0  0  0  0  0  0
  189.0110  176.3790  147.4870 F   0  0  0  0  0  0  0  0  0  0  0  0
  188.3790  177.5640  147.1420 C   0  0  0  0  0  0  0  0  0  0  0  0
  188.0530  178.2260  148.3100 F   0  0  0  0  0  0  0  0  0  0  0  0
  187.4680  178.7440  136.5360 C   0  0  0  0  0  2  0  0  0  0  0  0
  186.8320  178.0580  135.3390 C   0  0  0  0  0  2  0  0  0  0  0  0
  185.7980  177.0490  135.8050 C   0  0  0  0  0  2  0  0  0  0  0  0
  184.8820  177.6620  136.6610 O   0  0  0  0  0  0  0  0  0  0  0  0
  184.5200  176.6590  137.5600 C   0  0  0  0  0  2  0  0  0  0  0  0
  183.0040  176.5670  137.6400 C   0  0  0  0  0  2  0  0  0  0  0  0
  180.8490  180.4090  137.2780 C   0  0  0  0  0  2  0  0  0  0  0  0
  182.2970  178.8680  138.6270 C   0  0  0  0  0  0  0  0  0  0  0  0
  181.5840  179.9970  138.5250 C   0  0  0  0  0  3  0  0  0  0  0  0
  181.1280  179.5050  136.1110 C   0  0  0  0  0  0  0  0  0  0  0  0
  181.8300  178.2300  136.3020 C   0  0  0  0  0  3  0  0  0  0  0  0
  180.7190  179.8240  134.9660 O   0  0  0  0  0  0  0  0  0  0  0  0
  182.3790  177.9180  137.4790 C   0  0  0  0  0  0  0  0  0  0  0  0
  182.9140  178.5770  139.8880 N   0  0  0  0  0  2  0  0  0  0  0  0
  184.8490  179.8600  139.5940 O   0  0  0  0  0  0  0  0  0  0  0  0
  184.2400  178.9780  140.2590 C   0  0  0  0  0  0  0  0  0  0  0  0
  184.9150  179.1310  142.6190 C   0  0  0  0  0  1  0  0  0  0  0  0
  184.8550  178.4310  141.3840 O   0  0  0  0  0  0  0  0  0  0  0  0
  2 16  2  0  0  0  0
  2 10  1  0  0  0  0
  3 17  1  0  0  0  0
  4 30  1  1  0  0  0
  5  4  1  0  0  0  0
  6 17  1  0  0  0  0
  6 14  1  1  0  0  0
  7  1  1  1  0  0  0
  7  4  1  0  0  0  0
  8 13  2  0  0  0  0
  9  6  1  0  0  0  0
 10 18  2  0  0  0  0
 11  9  1  0  0  0  0
 12  8  1  0  0  0  0
 12 11  2  0  0  0  0
 13  3  1  0  0  0  0
 14  5  1  0  0  0  0
 15  7  1  0  0  0  0
 16  8  1  0  0  0  0
 17 15  2  0  0  0  0
 18 13  1  0  0  0  0
 19 21  1  0  0  0  0
 20 26  2  0  0  0  0
 20 24  1  0  0  0  0
 21 27  2  0  0  0  0
 22 29  1  0  0  0  0
 23 25  1  0  0  0  0
 23 10  1  0  0  0  0
 24 23  2  0  0  0  0
 26 28  1  0  0  0  0
 28 27  1  0  0  0  0
 28 25  2  0  0  0  0
 29 19  2  0  0  0  0
 29 26  1  0  0  0  0
 30 33  1  0  0  0  0
 33 31  2  6  0  0  0
 33 32  1  0  0  0  0
 33 34  1  0  0  0  0
 34 37  1  0  0  0  0
 35 37  1  0  0  0  0
 37 36  1  0  0  0  0
 37 38  1  0  0  0  0
 39 11  1  0  0  0  0
 40 41  1  0  0  0  0
 40 39  1  0  0  0  0
 41 42  1  0  0  0  0
 42 43  1  0  0  0  0
 43 44  1  0  0  0  0
 45 47  1  0  0  0  0
 46 52  1  0  0  0  0
 47 46  2  0  0  0  0
 48 49  1  0  0  0  0
 48 45  1  0  0  0  0
 49 51  2  0  0  0  0
 50 48  2  0  0  0  0
 51 44  1  0  0  0  0
 51 46  1  0  0  0  0
 52 54  1  0  0  0  0
 53 54  2  0  0  0  0
 54 56  1  0  0  0  0
 56 55  1  0  0  0  0
M  END
>  <MODEL>
5

>  <REMARK>
 VINA RESULT:      -7.5      4.314      8.542
  Name = 
  14 active torsions:
  status: ('A' for Active; 'I' for Inactive)
    1  A    between atoms: O_11  and  C_12
    2  A    between atoms: O_11  and  P_36
    3  A    between atoms: C_13  and  O_24
    4  A    between atoms: C_15  and  C_35
    5  A    between atoms: C_17  and  C_31
    6  A    between atoms: C_17  and  C_56
    7  A    between atoms: O_19  and  C_31
    8  A    between atoms: O_19  and  C_38
    9  A    between atoms: N_21  and  C_25
   10  A    between atoms: O_24  and  P_36
   11  A    between atoms: C_27  and  C_37
   12  A    between atoms: C_27  and  C_55
   13  A    between atoms: C_38  and  C_55
   14  A    between atoms: O_50  and  C_51
                            x       y       z     vdW  Elec       q    Type
                         _______ _______ _______ _____ _____    ______ ____

>  <TORSDO>
F 14

$$$$
=
 OpenBabel10232408573D

 56 61  0  0  1  0  0  0  0  0999 V2000
  195.1150  173.0430  138.7390 O   0  0  0  0  0  1  0  0  0  0  0  0
  189.1400  176.5430  140.5510 C   0  0  0  0  0  3  0  0  0  0  0  0
  192.6720  177.0250  138.3550 O   0  0  0  0  0  0  0  0  0  0  0  0
  195.6820  174.2870  136.7590 C   0  0  1  0  0  3  0  0  0  0  0  0
  195.0870  174.6840  135.4100 C   0  0  0  0  0  2  0  0  0  0  0  0
  193.0280  175.8590  136.2060 C   0  0  1  0  0  3  0  0  0  0  0  0
  194.5800  173.8410  137.7280 C   0  0  2  0  0  3  0  0  0  0  0  0
  190.2350  176.6180  138.3730 C   0  0  0  0  0  0  0  0  0  0  0  0
  192.1210  176.9120  135.7890 N   0  0  0  0  0  2  0  0  0  0  0  0
  190.3430  176.8440  141.1960 C   0  0  0  0  0  0  0  0  0  0  0  0
  190.7070  176.7310  135.8050 C   0  0  0  0  0  0  0  0  0  0  0  0
  189.9630  176.5920  136.9130 C   0  0  0  0  0  3  0  0  0  0  0  0
  191.4650  176.8940  139.0280 C   0  0  0  0  0  0  0  0  0  0  0  0
  194.3540  176.0180  135.4790 C   0  0  0  0  0  2  0  0  0  0  0  0
  193.9200  175.0280  138.3600 C   0  0  0  0  0  3  0  0  0  0  0  0
  189.0910  176.4410  139.1610 C   0  0  0  0  0  3  0  0  0  0  0  0
  193.2260  175.9440  137.6790 C   0  0  0  0  0  0  0  0  0  0  0  0
  191.4980  177.0190  140.4220 C   0  0  0  0  0  3  0  0  0  0  0  0
  189.2170  177.4950  147.5180 C   0  0  0  0  0  3  0  0  0  0  0  0
  191.6220  176.9020  144.7540 C   0  0  0  0  0  3  0  0  0  0  0  0
  188.0290  177.6440  146.7940 C   0  0  0  0  0  3  0  0  0  0  0  0
  191.5940  177.1200  147.5900 O   0  0  0  0  0  1  0  0  0  0  0  0
  190.3900  176.9580  142.6690 C   0  0  0  0  0  0  0  0  0  0  0  0
  191.6000  176.8030  143.3620 C   0  0  0  0  0  3  0  0  0  0  0  0
  189.2460  177.2030  143.3690 N   0  0  0  0  0  0  0  0  0  0  0  0
  190.4380  177.1570  145.4530 C   0  0  0  0  0  0  0  0  0  0  0  0
  188.0390  177.5520  145.4000 C   0  0  0  0  0  3  0  0  0  0  0  0
  189.2370  177.3110  144.7240 C   0  0  0  0  0  0  0  0  0  0  0  0
  190.4230  177.2540  146.8530 C   0  0  0  0  0  0  0  0  0  0  0  0
  196.6010  173.2520  136.5560 O   0  0  0  0  0  0  0  0  0  0  0  0
  198.6390  174.1890  134.9400 O   0  0  0  0  0  0  0  0  0  0  0  0
  197.9960  175.3610  137.1890 O   0  0  0  0  0  1  0  0  0  0  0  0
  198.1260  173.9980  136.5450 P   0  0  1  0  0  0  0  0  0  0  0  0
  199.2250  173.0350  137.4390 O   0  0  0  0  0  0  0  0  0  0  0  0
  199.0660  171.4840  135.7370 F   0  0  0  0  0  0  0  0  0  0  0  0
  200.0290  170.8800  137.7050 F   0  0  0  0  0  0  0  0  0  0  0  0
  199.0570  171.6700  137.1110 C   0  0  0  0  0  0  0  0  0  0  0  0
  197.8270  171.2590  137.5880 F   0  0  0  0  0  0  0  0  0  0  0  0
  189.9910  176.7600  134.5000 C   0  0  0  0  0  2  0  0  0  0  0  0
  188.8240  175.7870  134.5240 C   0  0  0  0  0  2  0  0  0  0  0  0
  187.5160  176.5370  134.3460 C   0  0  0  0  0  2  0  0  0  0  0  0
  187.4080  177.5450  135.3050 O   0  0  0  0  0  0  0  0  0  0  0  0
  186.0720  177.5070  135.7020 C   0  0  0  0  0  2  0  0  0  0  0  0
  185.9790  177.0280  137.1430 C   0  0  0  0  0  2  0  0  0  0  0  0
  184.9070  172.7740  137.6730 C   0  0  0  0  0  2  0  0  0  0  0  0
  184.1870  175.1520  137.3320 C   0  0  0  0  0  0  0  0  0  0  0  0
  183.8800  173.8690  137.5600 C   0  0  0  0  0  3  0  0  0  0  0  0
  186.2970  173.2410  137.3460 C   0  0  0  0  0  0  0  0  0  0  0  0
  186.5930  174.6720  137.2050 C   0  0  0  0  0  3  0  0  0  0  0  0
  187.2250  172.4000  137.2340 O   0  0  0  0  0  0  0  0  0  0  0  0
  185.6110  175.5780  137.2010 C   0  0  0  0  0  0  0  0  0  0  0  0
  183.1130  176.1000  137.2880 N   0  0  0  0  0  2  0  0  0  0  0  0
  183.0110  176.5650  139.5790 O   0  0  0  0  0  0  0  0  0  0  0  0
  182.4740  176.6620  138.4430 C   0  0  0  0  0  0  0  0  0  0  0  0
  181.1680  178.7350  138.6670 C   0  0  0  0  0  1  0  0  0  0  0  0
  181.2750  177.3610  138.3160 O   0  0  0  0  0  0  0  0  0  0  0  0
  2 10  1  0  0  0  0
  3 13  1  0  0  0  0
  4 30  1  6  0  0  0
  4  7  1  0  0  0  0
  5 14  1  0  0  0  0
  5  4  1  0  0  0  0
  6 14  1  6  0  0  0
  6 17  1  0  0  0  0
  7 15  1  0  0  0  0
  7  1  1  1  0  0  0
  8 13  2  0  0  0  0
  8 16  1  0  0  0  0
  9 11  1  0  0  0  0
  9  6  1  0  0  0  0
 10 23  1  0  0  0  0
 11 12  2  0  0  0  0
 12  8  1  0  0  0  0
 13 18  1  0  0  0  0
 16  2  2  0  0  0  0
 17  3  1  0  0  0  0
 17 15  2  0  0  0  0
 18 10  2  0  0  0  0
 20 26  1  0  0  0  0
 21 19  2  0  0  0  0
 23 24  1  0  0  0  0
 23 25  2  0  0  0  0
 24 20  2  0  0  0  0
 25 28  1  0  0  0  0
 26 29  2  0  0  0  0
 27 21  1  0  0  0  0
 28 27  2  0  0  0  0
 28 26  1  0  0  0  0
 29 19  1  0  0  0  0
 29 22  1  0  0  0  0
 33 31  2  6  0  0  0
 33 30  1  0  0  0  0
 33 32  1  0  0  0  0
 33 34  1  0  0  0  0
 35 37  1  0  0  0  0
 37 34  1  0  0  0  0
 37 38  1  0  0  0  0
 37 36  1  0  0  0  0
 39 40  1  0  0  0  0
 39 11  1  0  0  0  0
 41 40  1  0  0  0  0
 41 42  1  0  0  0  0
 42 43  1  0  0  0  0
 43 44  1  0  0  0  0
 44 51  1  0  0  0  0
 46 47  2  0  0  0  0
 47 45  1  0  0  0  0
 48 45  1  0  0  0  0
 49 48  1  0  0  0  0
 50 48  2  0  0  0  0
 51 49  2  0  0  0  0
 51 46  1  0  0  0  0
 52 46  1  0  0  0  0
 52 54  1  0  0  0  0
 54 53  2  0  0  0  0
 56 54  1  0  0  0  0
 56 55  1  0  0  0  0
M  END
>  <MODEL>
6

>  <REMARK>
 VINA RESULT:      -7.5      1.649      2.618
  Name = 
  14 active torsions:
  status: ('A' for Active; 'I' for Inactive)
    1  A    between atoms: O_11  and  C_12
    2  A    between atoms: O_11  and  P_36
    3  A    between atoms: C_13  and  O_24
    4  A    between atoms: C_15  and  C_35
    5  A    between atoms: C_17  and  C_31
    6  A    between atoms: C_17  and  C_56
    7  A    between atoms: O_19  and  C_31
    8  A    between atoms: O_19  and  C_38
    9  A    between atoms: N_21  and  C_25
   10  A    between atoms: O_24  and  P_36
   11  A    between atoms: C_27  and  C_37
   12  A    between atoms: C_27  and  C_55
   13  A    between atoms: C_38  and  C_55
   14  A    between atoms: O_50  and  C_51
                            x       y       z     vdW  Elec       q    Type
                         _______ _______ _______ _____ _____    ______ ____

>  <TORSDO>
F 14

$$$$
=
 OpenBabel10232408573D

 56 61  0  0  1  0  0  0  0  0999 V2000
  186.3080  178.7990  137.5770 O   0  0  0  0  0  1  0  0  0  0  0  0
  191.8870  177.7930  141.9470 C   0  0  0  0  0  3  0  0  0  0  0  0
  189.5980  175.8070  139.0590 O   0  0  0  0  0  0  0  0  0  0  0  0
  186.8010  177.0900  135.9560 C   0  0  1  0  0  3  0  0  0  0  0  0
  187.9140  176.6580  135.0060 C   0  0  0  0  0  2  0  0  0  0  0  0
  189.7680  176.3720  136.6600 C   0  0  1  0  0  3  0  0  0  0  0  0
  187.3430  178.0390  137.0320 C   0  0  2  0  0  3  0  0  0  0  0  0
  191.6950  176.9650  139.6610 C   0  0  0  0  0  0  0  0  0  0  0  0
  190.9870  175.6050  136.8390 N   0  0  0  0  0  2  0  0  0  0  0  0
  190.6410  177.2510  142.2760 C   0  0  0  0  0  0  0  0  0  0  0  0
  192.2150  176.2280  137.2080 C   0  0  0  0  0  0  0  0  0  0  0  0
  192.4570  176.8020  138.3960 C   0  0  0  0  0  3  0  0  0  0  0  0
  190.4160  176.4400  139.9850 C   0  0  0  0  0  0  0  0  0  0  0  0
  188.8690  175.6650  135.6580 C   0  0  0  0  0  2  0  0  0  0  0  0
  187.9950  177.2650  138.1370 C   0  0  0  0  0  3  0  0  0  0  0  0
  192.4040  177.6430  140.6600 C   0  0  0  0  0  3  0  0  0  0  0  0
  189.0820  176.5070  137.9740 C   0  0  0  0  0  0  0  0  0  0  0  0
  189.9170  176.5750  141.2860 C   0  0  0  0  0  3  0  0  0  0  0  0
  187.0960  178.0240  147.6140 C   0  0  0  0  0  3  0  0  0  0  0  0
  190.4110  177.4550  146.0440 C   0  0  0  0  0  3  0  0  0  0  0  0
  186.2860  178.1060  146.4760 C   0  0  0  0  0  3  0  0  0  0  0  0
  189.2600  177.7480  148.6300 O   0  0  0  0  0  1  0  0  0  0  0  0
  190.0990  177.4070  143.6430 C   0  0  0  0  0  0  0  0  0  0  0  0
  190.9420  177.3180  144.7610 C   0  0  0  0  0  3  0  0  0  0  0  0
  188.7660  177.6240  143.8260 N   0  0  0  0  0  0  0  0  0  0  0  0
  189.0410  177.6810  146.2110 C   0  0  0  0  0  0  0  0  0  0  0  0
  186.8470  177.9770  145.2030 C   0  0  0  0  0  3  0  0  0  0  0  0
  188.2200  177.7670  145.0630 C   0  0  0  0  0  0  0  0  0  0  0  0
  188.4720  177.8140  147.4880 C   0  0  0  0  0  0  0  0  0  0  0  0
  185.7960  177.7210  135.2120 O   0  0  0  0  0  0  0  0  0  0  0  0
  183.7160  177.1660  136.9450 O   0  0  0  0  0  1  0  0  0  0  0  0
  183.4150  177.1090  134.3470 O   0  0  0  0  0  0  0  0  0  0  0  0
  184.4030  176.7790  135.4440 P   0  0  1  0  0  0  0  0  0  0  0  0
  184.8310  175.1220  135.3630 O   0  0  0  0  0  0  0  0  0  0  0  0
  185.8280  174.6850  137.3980 F   0  0  0  0  0  0  0  0  0  0  0  0
  183.5810  175.0140  137.3090 F   0  0  0  0  0  0  0  0  0  0  0  0
  184.6840  174.5170  136.6320 C   0  0  0  0  0  0  0  0  0  0  0  0
  184.4910  173.1620  136.4450 F   0  0  0  0  0  0  0  0  0  0  0  0
  193.3350  176.1840  136.2290 C   0  0  0  0  0  2  0  0  0  0  0  0
  192.8580  175.5840  134.9170 C   0  0  0  0  0  2  0  0  0  0  0  0
  193.2720  174.1260  134.8290 C   0  0  0  0  0  2  0  0  0  0  0  0
  192.2130  173.3560  134.3470 O   0  0  0  0  0  0  0  0  0  0  0  0
  192.5470  172.0480  134.6940 C   0  0  0  0  0  2  0  0  0  0  0  0
  194.0480  171.9440  134.9140 C   0  0  0  0  0  2  0  0  0  0  0  0
  195.1860  168.9480  137.9570 C   0  0  0  0  0  2  0  0  0  0  0  0
  195.5330  171.2030  136.9170 C   0  0  0  0  0  0  0  0  0  0  0  0
  195.9080  170.2580  137.7880 C   0  0  0  0  0  3  0  0  0  0  0  0
  193.9120  168.8760  137.1640 C   0  0  0  0  0  0  0  0  0  0  0  0
  193.6030  169.8920  136.1500 C   0  0  0  0  0  3  0  0  0  0  0  0
  193.1230  167.9140  137.3390 O   0  0  0  0  0  0  0  0  0  0  0  0
  194.3590  170.9870  136.0220 C   0  0  0  0  0  0  0  0  0  0  0  0
  196.3360  172.3880  136.8290 N   0  0  0  0  0  2  0  0  0  0  0  0
  195.8320  173.2640  138.9400 O   0  0  0  0  0  0  0  0  0  0  0  0
  196.3370  173.4450  137.7990 C   0  0  0  0  0  0  0  0  0  0  0  0
  196.8680  175.2470  136.2120 C   0  0  0  0  0  1  0  0  0  0  0  0
  196.9370  174.6690  137.5080 O   0  0  0  0  0  0  0  0  0  0  0  0
  2 10  1  0  0  0  0
  3 13  1  0  0  0  0
  4 30  1  6  0  0  0
  4  7  1  0  0  0  0
  5 14  1  0  0  0  0
  5  4  1  0  0  0  0
  6 14  1  6  0  0  0
  6  9  1  0  0  0  0
  6 17  1  0  0  0  0
  7  1  1  1  0  0  0
  7 15  1  0  0  0  0
  8 13  2  0  0  0  0
  8 16  1  0  0  0  0
  9 11  1  0  0  0  0
 10 23  1  0  0  0  0
 11 12  2  0  0  0  0
 12  8  1  0  0  0  0
 13 18  1  0  0  0  0
 16  2  2  0  0  0  0
 17 15  2  0  0  0  0
 17  3  1  0  0  0  0
 18 10  2  0  0  0  0
 20 26  1  0  0  0  0
 21 19  2  0  0  0  0
 23 25  2  0  0  0  0
 23 24  1  0  0  0  0
 24 20  2  0  0  0  0
 25 28  1  0  0  0  0
 26 29  2  0  0  0  0
 27 21  1  0  0  0  0
 28 27  2  0  0  0  0
 28 26  1  0  0  0  0
 29 19  1  0  0  0  0
 29 22  1  0  0  0  0
 30 33  1  0  0  0  0
 33 32  2  6  0  0  0
 33 31  1  0  0  0  0
 34 33  1  0  0  0  0
 34 37  1  0  0  0  0
 37 36  1  0  0  0  0
 37 35  1  0  0  0  0
 38 37  1  0  0  0  0
 39 11  1  0  0  0  0
 40 39  1  0  0  0  0
 41 40  1  0  0  0  0
 42 43  1  0  0  0  0
 42 41  1  0  0  0  0
 43 44  1  0  0  0  0
 44 51  1  0  0  0  0
 46 47  2  0  0  0  0
 47 45  1  0  0  0  0
 48 50  2  0  0  0  0
 48 45  1  0  0  0  0
 49 48  1  0  0  0  0
 51 49  2  0  0  0  0
 51 46  1  0  0  0  0
 52 46  1  0  0  0  0
 52 54  1  0  0  0  0
 54 53  2  0  0  0  0
 55 56  1  0  0  0  0
 56 54  1  0  0  0  0
M  END
>  <MODEL>
7

>  <REMARK>
 VINA RESULT:      -7.5      4.356      9.252
  Name = 
  14 active torsions:
  status: ('A' for Active; 'I' for Inactive)
    1  A    between atoms: O_11  and  C_12
    2  A    between atoms: O_11  and  P_36
    3  A    between atoms: C_13  and  O_24
    4  A    between atoms: C_15  and  C_35
    5  A    between atoms: C_17  and  C_31
    6  A    between atoms: C_17  and  C_56
    7  A    between atoms: O_19  and  C_31
    8  A    between atoms: O_19  and  C_38
    9  A    between atoms: N_21  and  C_25
   10  A    between atoms: O_24  and  P_36
   11  A    between atoms: C_27  and  C_37
   12  A    between atoms: C_27  and  C_55
   13  A    between atoms: C_38  and  C_55
   14  A    between atoms: O_50  and  C_51
                            x       y       z     vdW  Elec       q    Type
                         _______ _______ _______ _____ _____    ______ ____

>  <TORSDO>
F 14

$$$$
=
 OpenBabel10232408573D

 56 61  0  0  1  0  0  0  0  0999 V2000
  188.0400  175.8000  143.3810 O   0  0  0  0  0  1  0  0  0  0  0  0
  187.2610  176.0760  136.2710 C   0  0  0  0  0  3  0  0  0  0  0  0
  189.2700  177.9750  139.4150 O   0  0  0  0  0  0  0  0  0  0  0  0
  190.1640  176.9160  143.5590 C   0  0  1  0  0  3  0  0  0  0  0  0
  191.5980  176.8020  143.0470 C   0  0  0  0  0  2  0  0  0  0  0  0
  191.1550  176.8920  140.5870 C   0  0  1  0  0  3  0  0  0  0  0  0
  189.2070  176.1020  142.6800 C   0  0  2  0  0  3  0  0  0  0  0  0
  189.3420  176.4230  137.4950 C   0  0  0  0  0  0  0  0  0  0  0  0
  191.8080  177.3000  139.3570 N   0  0  0  0  0  2  0  0  0  0  0  0
  186.6000  177.0070  137.0780 C   0  0  0  0  0  0  0  0  0  0  0  0
  191.8540  176.4460  138.2160 C   0  0  0  0  0  0  0  0  0  0  0  0
  190.7900  176.0910  137.4800 C   0  0  0  0  0  3  0  0  0  0  0  0
  188.6650  177.3460  138.3360 C   0  0  0  0  0  0  0  0  0  0  0  0
  191.8110  177.5970  141.7640 C   0  0  0  0  0  2  0  0  0  0  0  0
  188.8370  176.8740  141.4500 C   0  0  0  0  0  3  0  0  0  0  0  0
  188.6130  175.7980  136.4760 C   0  0  0  0  0  3  0  0  0  0  0  0
  189.7100  177.2380  140.5080 C   0  0  0  0  0  0  0  0  0  0  0  0
  187.3150  177.6360  138.1050 C   0  0  0  0  0  3  0  0  0  0  0  0
  180.4190  178.8460  137.3210 C   0  0  0  0  0  3  0  0  0  0  0  0
  183.2090  177.2900  135.4320 C   0  0  0  0  0  3  0  0  0  0  0  0
  181.0630  179.1430  138.5270 C   0  0  0  0  0  3  0  0  0  0  0  0
  180.4560  177.9250  135.0980 O   0  0  0  0  0  1  0  0  0  0  0  0
  185.1700  177.3040  136.8530 C   0  0  0  0  0  0  0  0  0  0  0  0
  184.5570  176.9910  135.6300 C   0  0  0  0  0  3  0  0  0  0  0  0
  184.4360  177.9010  137.8340 N   0  0  0  0  0  0  0  0  0  0  0  0
  182.4730  177.9000  136.4530 C   0  0  0  0  0  0  0  0  0  0  0  0
  182.4110  178.8220  138.7030 C   0  0  0  0  0  3  0  0  0  0  0  0
  183.1200  178.2000  137.6730 C   0  0  0  0  0  0  0  0  0  0  0  0
  181.1170  178.2230  136.2830 C   0  0  0  0  0  0  0  0  0  0  0  0
  190.1230  176.4550  144.8810 O   0  0  0  0  0  0  0  0  0  0  0  0
  190.6430  177.6320  147.3270 O   0  0  0  0  0  1  0  0  0  0  0  0
  190.4720  179.0270  145.1200 O   0  0  0  0  0  0  0  0  0  0  0  0
  189.8680  177.8360  145.8330 P   0  0  1  0  0  0  0  0  0  0  0  0
  188.1830  178.0720  146.0330 O   0  0  0  0  0  0  0  0  0  0  0  0
  188.1820  176.5350  147.7550 F   0  0  0  0  0  0  0  0  0  0  0  0
  188.3520  178.7480  148.2410 F   0  0  0  0  0  0  0  0  0  0  0  0
  187.8090  177.8140  147.3720 C   0  0  0  0  0  0  0  0  0  0  0  0
  186.4330  177.9020  147.4610 F   0  0  0  0  0  0  0  0  0  0  0  0
  193.1880  175.9620  137.7670 C   0  0  0  0  0  2  0  0  0  0  0  0
  193.5100  176.5200  136.3910 C   0  0  0  0  0  2  0  0  0  0  0  0
  193.3970  175.4250  135.3460 C   0  0  0  0  0  2  0  0  0  0  0  0
  194.6170  175.2640  134.6870 O   0  0  0  0  0  0  0  0  0  0  0  0
  194.6970  173.8960  134.4300 C   0  0  0  0  0  2  0  0  0  0  0  0
  196.0530  173.3700  134.8740 C   0  0  0  0  0  2  0  0  0  0  0  0
  196.4050  174.2750  139.1860 C   0  0  0  0  0  2  0  0  0  0  0  0
  195.3580  172.9350  137.3430 C   0  0  0  0  0  0  0  0  0  0  0  0
  195.4300  173.2680  138.6370 C   0  0  0  0  0  3  0  0  0  0  0  0
  197.3950  174.7480  138.1590 C   0  0  0  0  0  0  0  0  0  0  0  0
  197.2080  174.4320  136.7370 C   0  0  0  0  0  3  0  0  0  0  0  0
  198.3690  175.4580  138.5150 O   0  0  0  0  0  0  0  0  0  0  0  0
  196.2530  173.5850  136.3420 C   0  0  0  0  0  0  0  0  0  0  0  0
  194.3530  171.9910  136.9500 N   0  0  0  0  0  2  0  0  0  0  0  0
  195.5200  170.0400  137.5070 O   0  0  0  0  0  0  0  0  0  0  0  0
  194.5390  170.5690  136.9190 C   0  0  0  0  0  0  0  0  0  0  0  0
  192.9610  170.1510  135.0770 C   0  0  0  0  0  1  0  0  0  0  0  0
  193.6120  169.7490  136.2760 O   0  0  0  0  0  0  0  0  0  0  0  0
  2 16  2  0  0  0  0
  2 10  1  0  0  0  0
  3 17  1  0  0  0  0
  4 30  1  1  0  0  0
  5  4  1  0  0  0  0
  6 14  1  1  0  0  0
  7  1  1  1  0  0  0
  7  4  1  0  0  0  0
  8 13  2  0  0  0  0
  9  6  1  0  0  0  0
 10 18  2  0  0  0  0
 11  9  1  0  0  0  0
 12  8  1  0  0  0  0
 12 11  2  0  0  0  0
 13  3  1  0  0  0  0
 14  5  1  0  0  0  0
 15  7  1  0  0  0  0
 16  8  1  0  0  0  0
 17  6  1  0  0  0  0
 17 15  2  0  0  0  0
 18 13  1  0  0  0  0
 19 21  1  0  0  0  0
 20 24  2  0  0  0  0
 20 26  1  0  0  0  0
 21 27  2  0  0  0  0
 22 29  1  0  0  0  0
 23 10  1  0  0  0  0
 23 25  2  0  0  0  0
 24 23  1  0  0  0  0
 26 28  2  0  0  0  0
 28 25  1  0  0  0  0
 28 27  1  0  0  0  0
 29 26  1  0  0  0  0
 29 19  2  0  0  0  0
 30 33  1  0  0  0  0
 33 32  2  6  0  0  0
 33 34  1  0  0  0  0
 33 31  1  0  0  0  0
 34 37  1  0  0  0  0
 37 38  1  0  0  0  0
 37 35  1  0  0  0  0
 37 36  1  0  0  0  0
 39 11  1  0  0  0  0
 40 39  1  0  0  0  0
 41 40  1  0  0  0  0
 42 41  1  0  0  0  0
 43 42  1  0  0  0  0
 43 44  1  0  0  0  0
 44 51  1  0  0  0  0
 46 47  2  0  0  0  0
 47 45  1  0  0  0  0
 48 50  2  0  0  0  0
 48 45  1  0  0  0  0
 49 48  1  0  0  0  0
 51 49  2  0  0  0  0
 51 46  1  0  0  0  0
 52 46  1  0  0  0  0
 54 52  1  0  0  0  0
 54 53  2  0  0  0  0
 55 56  1  0  0  0  0
 56 54  1  0  0  0  0
M  END
>  <MODEL>
8

>  <REMARK>
 VINA RESULT:      -7.5      4.331     10.230
  Name = 
  14 active torsions:
  status: ('A' for Active; 'I' for Inactive)
    1  A    between atoms: O_11  and  C_12
    2  A    between atoms: O_11  and  P_36
    3  A    between atoms: C_13  and  O_24
    4  A    between atoms: C_15  and  C_35
    5  A    between atoms: C_17  and  C_31
    6  A    between atoms: C_17  and  C_56
    7  A    between atoms: O_19  and  C_31
    8  A    between atoms: O_19  and  C_38
    9  A    between atoms: N_21  and  C_25
   10  A    between atoms: O_24  and  P_36
   11  A    between atoms: C_27  and  C_37
   12  A    between atoms: C_27  and  C_55
   13  A    between atoms: C_38  and  C_55
   14  A    between atoms: O_50  and  C_51
                            x       y       z     vdW  Elec       q    Type
                         _______ _______ _______ _____ _____    ______ ____

>  <TORSDO>
F 14

$$$$
=
 OpenBabel10232408573D

 56 61  0  0  1  0  0  0  0  0999 V2000
  186.3170  178.8050  137.4830 O   0  0  0  0  0  1  0  0  0  0  0  0
  192.0230  177.7070  141.6640 C   0  0  0  0  0  3  0  0  0  0  0  0
  189.5600  175.7360  138.9110 O   0  0  0  0  0  0  0  0  0  0  0  0
  186.6900  177.0440  135.8860 C   0  0  1  0  0  3  0  0  0  0  0  0
  187.7520  176.5530  134.9050 C   0  0  0  0  0  2  0  0  0  0  0  0
  189.6570  176.2410  136.4950 C   0  0  1  0  0  3  0  0  0  0  0  0
  187.3050  177.9970  136.9180 C   0  0  2  0  0  3  0  0  0  0  0  0
  191.7160  176.8350  139.4070 C   0  0  0  0  0  0  0  0  0  0  0  0
  190.8550  175.4370  136.6460 N   0  0  0  0  0  2  0  0  0  0  0  0
  190.7730  177.2160  142.0520 C   0  0  0  0  0  0  0  0  0  0  0  0
  192.1170  176.0250  136.9540 C   0  0  0  0  0  0  0  0  0  0  0  0
  192.4230  176.6170  138.1190 C   0  0  0  0  0  3  0  0  0  0  0  0
  190.4330  176.3610  139.7910 C   0  0  0  0  0  0  0  0  0  0  0  0
  188.6970  175.5430  135.5450 C   0  0  0  0  0  2  0  0  0  0  0  0
  187.9720  177.2260  138.0160 C   0  0  0  0  0  3  0  0  0  0  0  0
  192.4850  177.5100  140.3630 C   0  0  0  0  0  3  0  0  0  0  0  0
  189.0270  176.4280  137.8310 C   0  0  0  0  0  0  0  0  0  0  0  0
  189.9900  176.5420  141.1060 C   0  0  0  0  0  3  0  0  0  0  0  0
  187.4490  177.9670  147.5330 C   0  0  0  0  0  3  0  0  0  0  0  0
  190.7210  177.7450  145.7950 C   0  0  0  0  0  3  0  0  0  0  0  0
  186.5750  177.8180  146.4510 C   0  0  0  0  0  3  0  0  0  0  0  0
  189.6820  178.1120  148.4180 O   0  0  0  0  0  1  0  0  0  0  0  0
  190.2890  177.4200  143.4340 C   0  0  0  0  0  0  0  0  0  0  0  0
  191.1960  177.5650  144.4950 C   0  0  0  0  0  3  0  0  0  0  0  0
  188.9510  177.4550  143.6890 N   0  0  0  0  0  0  0  0  0  0  0  0
  189.3440  177.7820  146.0350 C   0  0  0  0  0  0  0  0  0  0  0  0
  187.0780  177.6510  145.1580 C   0  0  0  0  0  3  0  0  0  0  0  0
  188.4580  177.6340  144.9430 C   0  0  0  0  0  0  0  0  0  0  0  0
  188.8320  177.9510  147.3310 C   0  0  0  0  0  0  0  0  0  0  0  0
  185.6800  177.6910  135.1650 O   0  0  0  0  0  0  0  0  0  0  0  0
  183.0000  177.4190  134.5450 O   0  0  0  0  0  1  0  0  0  0  0  0
  184.6830  175.4270  134.3460 O   0  0  0  0  0  0  0  0  0  0  0  0
  184.3530  176.6330  135.1980 P   0  0  1  0  0  0  0  0  0  0  0  0
  184.0690  176.1450  136.8150 O   0  0  0  0  0  0  0  0  0  0  0  0
  183.2130  176.8870  138.8250 F   0  0  0  0  0  0  0  0  0  0  0  0
  183.4540  178.3570  137.1090 F   0  0  0  0  0  0  0  0  0  0  0  0
  183.1780  177.0410  137.4470 C   0  0  0  0  0  0  0  0  0  0  0  0
  181.8970  176.7520  137.0180 F   0  0  0  0  0  0  0  0  0  0  0  0
  193.1970  175.9210  135.9360 C   0  0  0  0  0  2  0  0  0  0  0  0
  193.0220  174.6520  135.1180 C   0  0  0  0  0  2  0  0  0  0  0  0
  194.3790  174.0770  134.7520 C   0  0  0  0  0  2  0  0  0  0  0  0
  194.3760  172.6930  134.9320 O   0  0  0  0  0  0  0  0  0  0  0  0
  193.8600  172.5090  136.2140 C   0  0  0  0  0  2  0  0  0  0  0  0
  194.9460  172.7730  137.2460 C   0  0  0  0  0  2  0  0  0  0  0  0
  197.5070  169.1710  137.3080 C   0  0  0  0  0  2  0  0  0  0  0  0
  197.2260  171.6070  136.7840 C   0  0  0  0  0  0  0  0  0  0  0  0
  197.9650  170.4920  136.7490 C   0  0  0  0  0  3  0  0  0  0  0  0
  196.2050  169.2720  138.0500 C   0  0  0  0  0  0  0  0  0  0  0  0
  195.3890  170.4890  137.9700 C   0  0  0  0  0  3  0  0  0  0  0  0
  195.7890  168.2870  138.7130 O   0  0  0  0  0  0  0  0  0  0  0  0
  195.8560  171.5910  137.3750 C   0  0  0  0  0  0  0  0  0  0  0  0
  197.7670  172.7880  136.1770 N   0  0  0  0  0  2  0  0  0  0  0  0
  198.1070  174.0200  138.1370 O   0  0  0  0  0  0  0  0  0  0  0  0
  198.0540  174.0060  136.8780 C   0  0  0  0  0  0  0  0  0  0  0  0
  197.5440  175.5740  135.0520 C   0  0  0  0  0  1  0  0  0  0  0  0
  198.3230  175.1790  136.1740 O   0  0  0  0  0  0  0  0  0  0  0  0
  2 10  1  0  0  0  0
  3 13  1  0  0  0  0
  4 30  1  6  0  0  0
  4  7  1  0  0  0  0
  5 14  1  0  0  0  0
  5  4  1  0  0  0  0
  6 14  1  6  0  0  0
  6  9  1  0  0  0  0
  6 17  1  0  0  0  0
  7  1  1  1  0  0  0
  7 15  1  0  0  0  0
  8 13  2  0  0  0  0
  8 16  1  0  0  0  0
  9 11  1  0  0  0  0
 10 23  1  0  0  0  0
 11 12  2  0  0  0  0
 12  8  1  0  0  0  0
 13 18  1  0  0  0  0
 16  2  2  0  0  0  0
 17 15  2  0  0  0  0
 17  3  1  0  0  0  0
 18 10  2  0  0  0  0
 20 26  1  0  0  0  0
 21 19  2  0  0  0  0
 23 25  2  0  0  0  0
 23 24  1  0  0  0  0
 24 20  2  0  0  0  0
 25 28  1  0  0  0  0
 26 29  2  0  0  0  0
 27 21  1  0  0  0  0
 28 27  2  0  0  0  0
 28 26  1  0  0  0  0
 29 19  1  0  0  0  0
 29 22  1  0  0  0  0
 30 33  1  0  0  0  0
 31 33  1  0  0  0  0
 33 32  2  6  0  0  0
 33 34  1  0  0  0  0
 34 37  1  0  0  0  0
 36 37  1  0  0  0  0
 37 35  1  0  0  0  0
 38 37  1  0  0  0  0
 39 11  1  0  0  0  0
 40 39  1  0  0  0  0
 41 42  1  0  0  0  0
 41 40  1  0  0  0  0
 42 43  1  0  0  0  0
 43 44  1  0  0  0  0
 44 51  1  0  0  0  0
 45 48  1  0  0  0  0
 46 51  1  0  0  0  0
 47 46  2  0  0  0  0
 47 45  1  0  0  0  0
 48 50  2  0  0  0  0
 49 48  1  0  0  0  0
 51 49  2  0  0  0  0
 52 46  1  0  0  0  0
 52 54  1  0  0  0  0
 54 53  2  0  0  0  0
 55 56  1  0  0  0  0
 56 54  1  0  0  0  0
M  END
>  <MODEL>
9

>  <REMARK>
 VINA RESULT:      -7.4      4.643      9.951
  Name = 
  14 active torsions:
  status: ('A' for Active; 'I' for Inactive)
    1  A    between atoms: O_11  and  C_12
    2  A    between atoms: O_11  and  P_36
    3  A    between atoms: C_13  and  O_24
    4  A    between atoms: C_15  and  C_35
    5  A    between atoms: C_17  and  C_31
    6  A    between atoms: C_17  and  C_56
    7  A    between atoms: O_19  and  C_31
    8  A    between atoms: O_19  and  C_38
    9  A    between atoms: N_21  and  C_25
   10  A    between atoms: O_24  and  P_36
   11  A    between atoms: C_27  and  C_37
   12  A    between atoms: C_27  and  C_55
   13  A    between atoms: C_38  and  C_55
   14  A    between atoms: O_50  and  C_51
                            x       y       z     vdW  Elec       q    Type
                         _______ _______ _______ _____ _____    ______ ____

>  <TORSDO>
F 14

$$$$
