=
 OpenBabel10222421453D

 31 35  0  0  0  0  0  0  0  0999 V2000
  190.9770  177.5810  142.1480 N   0  0  0  0  0  0  0  0  0  0  0  0
  190.0230  177.2200  141.2590 C   0  0  0  0  0  0  0  0  0  0  0  0
  190.5910  177.0390  140.0110 C   0  0  0  0  0  0  0  0  0  0  0  0
  192.1600  177.5980  141.4920 C   0  0  0  0  0  3  0  0  0  0  0  0
  193.0350  176.9820  139.1870 C   0  0  0  0  0  1  0  0  0  0  0  0
  191.9520  177.2650  140.1680 C   0  0  0  0  0  0  0  0  0  0  0  0
  191.9940  176.2350  146.6350 C   0  0  0  0  0  0  0  0  0  0  0  0
  191.4110  177.0140  145.6450 C   0  0  0  0  0  0  0  0  0  0  0  0
  191.0820  178.3190  145.6960 N   0  0  0  0  0  0  0  0  0  0  0  0
  191.3140  176.5220  144.3810 C   0  0  0  0  0  0  0  0  0  0  0  0
  192.4050  174.9730  146.3080 N   0  0  0  0  0  2  0  0  0  0  0  0
  192.3090  174.5080  145.0210 C   0  0  0  0  0  3  0  0  0  0  0  0
  191.7830  175.2970  144.0390 N   0  0  0  0  0  0  0  0  0  0  0  0
  192.1820  176.7310  147.9570 N   0  0  0  0  0  1  0  0  0  0  0  0
  190.7730  178.6600  144.4140 C   0  0  0  0  0  3  0  0  0  0  0  0
  190.8750  177.5480  143.5800 C   0  0  0  0  0  0  0  0  0  0  0  0
  189.1710  178.4590  137.7680 C   0  0  0  0  0  2  0  0  0  0  0  0
  189.9470  176.4110  138.8930 N   0  0  0  0  0  0  0  0  0  0  0  0
  188.4040  178.5840  136.4620 C   0  0  0  0  0  2  0  0  0  0  0  0
  188.8390  176.2830  136.7370 C   0  0  0  0  0  2  0  0  0  0  0  0
  189.3980  177.0150  137.8810 C   0  0  0  0  0  0  0  0  0  0  0  0
  188.4180  177.2890  135.7550 N   0  0  0  0  0  0  0  0  0  0  0  0
  187.0490  176.9860  135.3140 C   0  0  0  0  0  3  0  0  0  0  0  0
  186.5300  178.0450  134.3470 C   0  0  0  0  0  1  0  0  0  0  0  0
  186.0970  176.9550  136.5000 C   0  0  0  0  0  1  0  0  0  0  0  0
  188.6280  177.1010  141.5790 N   0  0  0  0  0  0  0  0  0  0  0  0
  188.2180  176.3160  142.7390 C   0  0  0  0  0  2  0  0  0  0  0  0
  187.6010  177.2610  143.7780 C   0  0  0  0  0  2  0  0  0  0  0  0
  186.5060  178.0270  143.1700 N   0  0  0  0  0  2  0  0  0  0  0  0
  187.6360  177.9990  140.9920 C   0  0  0  0  0  2  0  0  0  0  0  0
  187.0380  178.8700  142.0990 C   0  0  0  0  0  2  0  0  0  0  0  0
  1 16  1  0  0  0  0
  2 26  1  0  0  0  0
  2  1  1  0  0  0  0
  3  6  1  0  0  0  0
  3  2  2  0  0  0  0
  4  1  1  0  0  0  0
  5  6  1  0  0  0  0
  6  4  2  0  0  0  0
  7 14  1  0  0  0  0
  8  9  1  0  0  0  0
  8  7  2  0  0  0  0
 10  8  1  0  0  0  0
 11  7  1  0  0  0  0
 12 11  1  0  0  0  0
 13 10  1  0  0  0  0
 13 12  2  0  0  0  0
 15  9  2  0  0  0  0
 16 10  2  0  0  0  0
 16 15  1  0  0  0  0
 17 21  1  0  0  0  0
 18  3  1  0  0  0  0
 19 17  1  0  0  0  0
 20 21  1  0  0  0  0
 21 18  2  0  0  0  0
 22 19  1  0  0  0  0
 22 20  1  0  0  0  0
 23 22  1  0  0  0  0
 23 25  1  0  0  0  0
 24 23  1  0  0  0  0
 26 27  1  0  0  0  0
 27 28  1  0  0  0  0
 29 28  1  0  0  0  0
 30 26  1  0  0  0  0
 30 31  1  0  0  0  0
 31 29  1  0  0  0  0
M  END
>  <MODEL>
1

>  <REMARK>
 VINA RESULT:      -7.0      0.000      0.000
  Name = 
  4 active torsions:
  status: ('A' for Active; 'I' for Inactive)
    1  A    between atoms: N_1  and  C_28
    2  A    between atoms: C_3  and  N_8
    3  A    between atoms: C_5  and  N_30
    4  A    between atoms: N_6  and  C_23
                            x       y       z     vdW  Elec       q    Type
                         _______ _______ _______ _____ _____    ______ ____

>  <TORSDO>
F 4

$$$$
=
 OpenBabel10222421453D

 31 35  0  0  1  0  0  0  0  0999 V2000
  190.9190  176.6070  139.7900 N   0  0  0  0  0  0  0  0  0  0  0  0
  189.7060  177.1320  139.5020 C   0  0  0  0  0  0  0  0  0  0  0  0
  189.1340  177.6480  140.6500 C   0  0  0  0  0  0  0  0  0  0  0  0
  191.1510  176.8150  141.1060 C   0  0  0  0  0  3  0  0  0  0  0  0
  190.0340  178.0330  143.0370 C   0  0  0  0  0  1  0  0  0  0  0  0
  190.0630  177.4590  141.6640 C   0  0  0  0  0  0  0  0  0  0  0  0
  192.8940  174.7790  135.8230 C   0  0  0  0  0  0  0  0  0  0  0  0
  192.8510  175.5330  136.9880 C   0  0  0  0  0  0  0  0  0  0  0  0
  193.5340  176.6570  137.2800 N   0  0  0  0  0  0  0  0  0  0  0  0
  191.8820  175.2830  137.9080 C   0  0  2  0  0  3  0  0  0  0  0  0
  191.9830  173.7720  135.6700 N   0  0  0  0  0  0  0  0  0  0  0  0
  191.0060  173.5520  136.6070 C   0  0  0  0  0  3  0  0  0  0  0  0
  190.9350  174.3300  137.7260 N   0  0  0  0  0  0  0  0  0  0  0  0
  193.8460  175.0480  134.7980 N   0  0  0  0  0  1  0  0  0  0  0  0
  192.9670  177.1330  138.4230 C   0  0  0  0  0  3  0  0  0  0  0  0
  191.9570  176.2750  138.8550 C   0  0  0  0  0  0  0  0  0  0  0  0
  186.9170  177.5310  142.6830 C   0  0  0  0  0  2  0  0  0  0  0  0
  187.9830  178.5040  140.6870 N   0  0  0  0  0  0  0  0  0  0  0  0
  185.6250  177.9540  143.3620 C   0  0  0  0  0  2  0  0  0  0  0  0
  185.9610  179.4890  141.6030 C   0  0  0  0  0  2  0  0  0  0  0  0
  187.0600  178.5130  141.6020 C   0  0  0  0  0  0  0  0  0  0  0  0
  185.1950  179.2630  142.8340 N   0  0  0  0  0  0  0  0  0  0  0  0
  183.7650  179.1830  142.5010 C   0  0  0  0  0  3  0  0  0  0  0  0
  182.9320  178.8110  143.7230 C   0  0  0  0  0  1  0  0  0  0  0  0
  183.5190  178.1160  141.4460 C   0  0  0  0  0  1  0  0  0  0  0  0
  189.1020  177.0960  138.1980 N   0  0  0  0  0  0  0  0  0  0  0  0
  187.9460  176.2380  137.9620 C   0  0  0  0  0  2  0  0  0  0  0  0
  186.7280  177.1230  137.6710 C   0  0  0  0  0  2  0  0  0  0  0  0
  187.0240  178.0320  136.5560 N   0  0  0  0  0  2  0  0  0  0  0  0
  189.3900  178.1230  137.2010 C   0  0  0  0  0  2  0  0  0  0  0  0
  188.1160  178.9280  136.9350 C   0  0  0  0  0  2  0  0  0  0  0  0
  1  4  1  0  0  0  0
  2  1  1  0  0  0  0
  2  3  2  0  0  0  0
  3 18  1  0  0  0  0
  3  6  1  0  0  0  0
  4  6  2  0  0  0  0
  6  5  1  0  0  0  0
  7  8  1  0  0  0  0
  8  9  2  0  0  0  0
  9 15  1  0  0  0  0
 10  8  1  6  0  0  0
 10 16  1  0  0  0  0
 11  7  2  0  0  0  0
 11 12  1  0  0  0  0
 12 13  2  0  0  0  0
 13 10  1  0  0  0  0
 14  7  1  0  0  0  0
 15 16  2  0  0  0  0
 16  1  1  0  0  0  0
 17 19  1  0  0  0  0
 18 21  2  0  0  0  0
 20 22  1  0  0  0  0
 21 20  1  0  0  0  0
 21 17  1  0  0  0  0
 22 19  1  0  0  0  0
 23 22  1  0  0  0  0
 23 24  1  0  0  0  0
 25 23  1  0  0  0  0
 26  2  1  0  0  0  0
 27 26  1  0  0  0  0
 28 27  1  0  0  0  0
 29 31  1  0  0  0  0
 29 28  1  0  0  0  0
 30 26  1  0  0  0  0
 31 30  1  0  0  0  0
M  END
>  <MODEL>
2

>  <REMARK>
 VINA RESULT:      -6.9      3.026      6.799
  Name = 
  4 active torsions:
  status: ('A' for Active; 'I' for Inactive)
    1  A    between atoms: N_1  and  C_28
    2  A    between atoms: C_3  and  N_8
    3  A    between atoms: C_5  and  N_30
    4  A    between atoms: N_6  and  C_23
                            x       y       z     vdW  Elec       q    Type
                         _______ _______ _______ _____ _____    ______ ____

>  <TORSDO>
F 4

$$$$
=
 OpenBabel10222421453D

 31 35  0  0  1  0  0  0  0  0999 V2000
  190.5590  177.1990  139.6420 N   0  0  0  0  0  0  0  0  0  0  0  0
  190.1330  177.1620  140.9260 C   0  0  0  0  0  0  0  0  0  0  0  0
  188.8000  177.5220  140.9880 C   0  0  0  0  0  0  0  0  0  0  0  0
  189.5020  177.5440  138.8720 C   0  0  0  0  0  3  0  0  0  0  0  0
  187.0100  177.9410  139.1770 C   0  0  0  0  0  1  0  0  0  0  0  0
  188.3980  177.7480  139.6780 C   0  0  0  0  0  0  0  0  0  0  0  0
  193.2640  174.5990  136.6580 C   0  0  0  0  0  0  0  0  0  0  0  0
  193.0120  175.4950  137.6890 C   0  0  0  0  0  0  0  0  0  0  0  0
  193.7690  176.5320  138.0960 N   0  0  0  0  0  0  0  0  0  0  0  0
  191.7820  175.5140  138.2700 C   0  0  2  0  0  3  0  0  0  0  0  0
  192.2730  173.7290  136.3010 N   0  0  0  0  0  0  0  0  0  0  0  0
  191.0360  173.7800  136.8940 C   0  0  0  0  0  3  0  0  0  0  0  0
  190.7770  174.6980  137.8700 N   0  0  0  0  0  0  0  0  0  0  0  0
  194.5120  174.5870  135.9720 N   0  0  0  0  0  1  0  0  0  0  0  0
  192.9830  177.2300  138.9610 C   0  0  0  0  0  3  0  0  0  0  0  0
  191.7500  176.5970  139.1130 C   0  0  0  0  0  0  0  0  0  0  0  0
  186.3160  179.1130  141.5930 C   0  0  0  0  0  2  0  0  0  0  0  0
  187.9480  177.3490  142.1300 N   0  0  0  0  0  0  0  0  0  0  0  0
  185.0720  179.5130  142.3680 C   0  0  0  0  0  2  0  0  0  0  0  0
  185.9830  177.6670  143.5190 C   0  0  0  0  0  2  0  0  0  0  0  0
  186.8340  177.9770  142.3620 C   0  0  0  0  0  0  0  0  0  0  0  0
  184.7740  178.4880  143.3860 N   0  0  0  0  0  0  0  0  0  0  0  0
  184.5120  179.1660  144.6650 C   0  0  0  0  0  3  0  0  0  0  0  0
  185.3020  178.5280  145.8030 C   0  0  0  0  0  1  0  0  0  0  0  0
  183.0380  179.0700  145.0310 C   0  0  0  0  0  1  0  0  0  0  0  0
  190.9760  176.8430  142.0450 N   0  0  0  0  0  0  0  0  0  0  0  0
  191.9590  177.8180  142.5080 C   0  0  0  0  0  2  0  0  0  0  0  0
  191.5580  178.2890  143.9120 C   0  0  0  0  0  2  0  0  0  0  0  0
  191.4100  177.1330  144.8050 N   0  0  0  0  0  2  0  0  0  0  0  0
  190.6650  175.7280  142.9360 C   0  0  0  0  0  2  0  0  0  0  0  0
  190.3230  176.2810  144.3220 C   0  0  0  0  0  2  0  0  0  0  0  0
  1  2  1  0  0  0  0
  2  3  2  0  0  0  0
  2 26  1  0  0  0  0
  3 18  1  0  0  0  0
  4  1  1  0  0  0  0
  4  6  2  0  0  0  0
  5  6  1  0  0  0  0
  6  3  1  0  0  0  0
  7  8  1  0  0  0  0
  8  9  2  0  0  0  0
  9 15  1  0  0  0  0
 10  8  1  6  0  0  0
 10 16  1  0  0  0  0
 11  7  2  0  0  0  0
 11 12  1  0  0  0  0
 12 13  2  0  0  0  0
 13 10  1  0  0  0  0
 14  7  1  0  0  0  0
 15 16  2  0  0  0  0
 16  1  1  0  0  0  0
 17 21  1  0  0  0  0
 17 19  1  0  0  0  0
 18 21  2  0  0  0  0
 19 22  1  0  0  0  0
 21 20  1  0  0  0  0
 22 20  1  0  0  0  0
 22 23  1  0  0  0  0
 23 25  1  0  0  0  0
 23 24  1  0  0  0  0
 26 27  1  0  0  0  0
 26 30  1  0  0  0  0
 27 28  1  0  0  0  0
 28 29  1  0  0  0  0
 30 31  1  0  0  0  0
 31 29  1  0  0  0  0
M  END
>  <MODEL>
3

>  <REMARK>
 VINA RESULT:      -6.8      2.459      6.821
  Name = 
  4 active torsions:
  status: ('A' for Active; 'I' for Inactive)
    1  A    between atoms: N_1  and  C_28
    2  A    between atoms: C_3  and  N_8
    3  A    between atoms: C_5  and  N_30
    4  A    between atoms: N_6  and  C_23
                            x       y       z     vdW  Elec       q    Type
                         _______ _______ _______ _____ _____    ______ ____

>  <TORSDO>
F 4

$$$$
=
 OpenBabel10222421453D

 31 35  0  0  0  0  0  0  0  0999 V2000
  184.8340  178.0420  138.9360 N   0  0  0  0  0  0  0  0  0  0  0  0
  186.1810  178.1450  139.0240 C   0  0  0  0  0  0  0  0  0  0  0  0
  186.5280  178.7330  140.2250 C   0  0  0  0  0  0  0  0  0  0  0  0
  184.3130  178.5250  140.0870 C   0  0  0  0  0  3  0  0  0  0  0  0
  185.1710  179.3620  142.3270 C   0  0  0  0  0  1  0  0  0  0  0  0
  185.3380  178.9580  140.9050 C   0  0  0  0  0  0  0  0  0  0  0  0
  181.1250  175.5030  137.2690 C   0  0  0  0  0  0  0  0  0  0  0  0
  182.3570  176.1410  137.2070 C   0  0  0  0  0  0  0  0  0  0  0  0
  182.9490  176.7110  136.1410 N   0  0  0  0  0  0  0  0  0  0  0  0
  183.0110  176.4400  138.3620 C   0  0  0  0  0  0  0  0  0  0  0  0
  180.6390  175.1530  138.4970 N   0  0  0  0  0  2  0  0  0  0  0  0
  181.3120  175.4810  139.6460 C   0  0  0  0  0  3  0  0  0  0  0  0
  182.4970  176.1540  139.5830 N   0  0  0  0  0  0  0  0  0  0  0  0
  180.3700  175.2310  136.0930 N   0  0  0  0  0  1  0  0  0  0  0  0
  184.0110  177.3980  136.6450 C   0  0  0  0  0  3  0  0  0  0  0  0
  184.0920  177.2170  138.0250 C   0  0  0  0  0  0  0  0  0  0  0  0
  187.5350  177.0420  142.5040 C   0  0  0  0  0  2  0  0  0  0  0  0
  187.8530  178.7690  140.7770 N   0  0  0  0  0  0  0  0  0  0  0  0
  188.5510  176.5080  143.5000 C   0  0  0  0  0  2  0  0  0  0  0  0
  189.7210  178.0450  142.1470 C   0  0  0  0  0  2  0  0  0  0  0  0
  188.3200  177.9920  141.7080 C   0  0  0  0  0  0  0  0  0  0  0  0
  189.9020  176.9570  143.1160 N   0  0  0  0  0  0  0  0  0  0  0  0
  190.5720  177.4880  144.3120 C   0  0  0  0  0  3  0  0  0  0  0  0
  189.5970  177.6310  145.4770 C   0  0  0  0  0  1  0  0  0  0  0  0
  191.1490  178.8690  144.0370 C   0  0  0  0  0  1  0  0  0  0  0  0
  187.0880  177.7430  137.9850 N   0  0  0  0  0  0  0  0  0  0  0  0
  187.5520  178.7270  137.0110 C   0  0  0  0  0  2  0  0  0  0  0  0
  189.0590  178.9360  137.2050 C   0  0  0  0  0  2  0  0  0  0  0  0
  189.7590  177.6490  137.1180 N   0  0  0  0  0  2  0  0  0  0  0  0
  187.8180  176.4800  138.0620 C   0  0  0  0  0  2  0  0  0  0  0  0
  189.3120  176.7780  138.2060 C   0  0  0  0  0  2  0  0  0  0  0  0
  1  2  1  0  0  0  0
  1  4  1  0  0  0  0
  2  3  2  0  0  0  0
  3 18  1  0  0  0  0
  3  6  1  0  0  0  0
  4  6  2  0  0  0  0
  6  5  1  0  0  0  0
  7 11  1  0  0  0  0
  8  7  2  0  0  0  0
  8 10  1  0  0  0  0
  9 15  2  0  0  0  0
  9  8  1  0  0  0  0
 10 13  1  0  0  0  0
 11 12  1  0  0  0  0
 13 12  2  0  0  0  0
 14  7  1  0  0  0  0
 15 16  1  0  0  0  0
 16 10  2  0  0  0  0
 16  1  1  0  0  0  0
 17 19  1  0  0  0  0
 18 21  2  0  0  0  0
 20 22  1  0  0  0  0
 21 20  1  0  0  0  0
 21 17  1  0  0  0  0
 22 19  1  0  0  0  0
 22 23  1  0  0  0  0
 23 24  1  0  0  0  0
 25 23  1  0  0  0  0
 26 30  1  0  0  0  0
 26  2  1  0  0  0  0
 27 28  1  0  0  0  0
 27 26  1  0  0  0  0
 29 28  1  0  0  0  0
 29 31  1  0  0  0  0
 30 31  1  0  0  0  0
M  END
>  <MODEL>
4

>  <REMARK>
 VINA RESULT:      -6.6      3.491      9.028
  Name = 
  4 active torsions:
  status: ('A' for Active; 'I' for Inactive)
    1  A    between atoms: N_1  and  C_28
    2  A    between atoms: C_3  and  N_8
    3  A    between atoms: C_5  and  N_30
    4  A    between atoms: N_6  and  C_23
                            x       y       z     vdW  Elec       q    Type
                         _______ _______ _______ _____ _____    ______ ____

>  <TORSDO>
F 4

$$$$
=
 OpenBabel10222421453D

 31 35  0  0  0  0  0  0  0  0999 V2000
  185.5640  178.7010  143.1380 N   0  0  0  0  0  0  0  0  0  0  0  0
  186.5880  177.9520  143.6080 C   0  0  0  0  0  0  0  0  0  0  0  0
  186.5630  177.9390  144.9900 C   0  0  0  0  0  0  0  0  0  0  0  0
  184.8570  179.1400  144.2040 C   0  0  0  0  0  3  0  0  0  0  0  0
  184.8490  178.7880  146.7210 C   0  0  0  0  0  1  0  0  0  0  0  0
  185.4510  178.6810  145.3640 C   0  0  0  0  0  0  0  0  0  0  0  0
  182.3830  179.3820  139.6170 C   0  0  0  0  0  0  0  0  0  0  0  0
  183.6300  179.1180  140.1670 C   0  0  0  0  0  0  0  0  0  0  0  0
  184.8440  179.3930  139.6530 N   0  0  0  0  0  0  0  0  0  0  0  0
  183.7150  178.7190  141.4640 C   0  0  0  0  0  0  0  0  0  0  0  0
  181.2760  179.1770  140.3920 N   0  0  0  0  0  2  0  0  0  0  0  0
  181.3920  178.7880  141.7030 C   0  0  0  0  0  3  0  0  0  0  0  0
  182.6220  178.5810  142.2560 N   0  0  0  0  0  0  0  0  0  0  0  0
  182.2460  179.8690  138.2850 N   0  0  0  0  0  1  0  0  0  0  0  0
  185.7220  179.1630  140.6680 C   0  0  0  0  0  3  0  0  0  0  0  0
  185.0460  178.7080  141.7980 C   0  0  0  0  0  0  0  0  0  0  0  0
  189.4440  178.3030  145.7840 C   0  0  0  0  0  2  0  0  0  0  0  0
  187.3230  177.0510  145.8220 N   0  0  0  0  0  0  0  0  0  0  0  0
  190.7480  177.9690  146.4880 C   0  0  0  0  0  2  0  0  0  0  0  0
  189.2100  176.3110  147.1590 C   0  0  0  0  0  2  0  0  0  0  0  0
  188.5420  177.2370  146.2330 C   0  0  0  0  0  0  0  0  0  0  0  0
  190.5150  176.9020  147.4800 N   0  0  0  0  0  0  0  0  0  0  0  0
  191.5580  175.8790  147.3170 C   0  0  0  0  0  3  0  0  0  0  0  0
  192.7480  176.1490  148.2320 C   0  0  0  0  0  1  0  0  0  0  0  0
  192.0820  175.8700  145.8890 C   0  0  0  0  0  1  0  0  0  0  0  0
  187.5720  177.3200  142.7730 N   0  0  0  0  0  0  0  0  0  0  0  0
  188.4490  178.1400  141.9430 C   0  0  0  0  0  2  0  0  0  0  0  0
  189.8870  177.9930  142.4540 C   0  0  0  0  0  2  0  0  0  0  0  0
  190.2650  176.5750  142.4860 N   0  0  0  0  0  2  0  0  0  0  0  0
  187.9500  175.9230  142.9710 C   0  0  0  0  0  2  0  0  0  0  0  0
  189.4070  175.8630  143.4340 C   0  0  0  0  0  2  0  0  0  0  0  0
  1  2  1  0  0  0  0
  1  4  1  0  0  0  0
  2  3  2  0  0  0  0
  3  6  1  0  0  0  0
  3 18  1  0  0  0  0
  4  6  2  0  0  0  0
  6  5  1  0  0  0  0
  7  8  2  0  0  0  0
  7 11  1  0  0  0  0
  8 10  1  0  0  0  0
  9  8  1  0  0  0  0
  9 15  2  0  0  0  0
 10 16  2  0  0  0  0
 10 13  1  0  0  0  0
 11 12  1  0  0  0  0
 12 13  2  0  0  0  0
 14  7  1  0  0  0  0
 15 16  1  0  0  0  0
 16  1  1  0  0  0  0
 17 21  1  0  0  0  0
 17 19  1  0  0  0  0
 18 21  2  0  0  0  0
 19 22  1  0  0  0  0
 20 22  1  0  0  0  0
 21 20  1  0  0  0  0
 23 22  1  0  0  0  0
 23 24  1  0  0  0  0
 25 23  1  0  0  0  0
 26 30  1  0  0  0  0
 26  2  1  0  0  0  0
 27 28  1  0  0  0  0
 27 26  1  0  0  0  0
 28 29  1  0  0  0  0
 29 31  1  0  0  0  0
 30 31  1  0  0  0  0
M  END
>  <MODEL>
5

>  <REMARK>
 VINA RESULT:      -6.6      3.285      9.121
  Name = 
  4 active torsions:
  status: ('A' for Active; 'I' for Inactive)
    1  A    between atoms: N_1  and  C_28
    2  A    between atoms: C_3  and  N_8
    3  A    between atoms: C_5  and  N_30
    4  A    between atoms: N_6  and  C_23
                            x       y       z     vdW  Elec       q    Type
                         _______ _______ _______ _____ _____    ______ ____

>  <TORSDO>
F 4

$$$$
=
 OpenBabel10222421453D

 31 35  0  0  0  0  0  0  0  0999 V2000
  187.5800  178.0900  141.1420 N   0  0  0  0  0  0  0  0  0  0  0  0
  188.8520  177.6800  141.3550 C   0  0  0  0  0  0  0  0  0  0  0  0
  189.5490  177.6740  140.1610 C   0  0  0  0  0  0  0  0  0  0  0  0
  187.4620  178.3840  139.8270 C   0  0  0  0  0  3  0  0  0  0  0  0
  188.9820  178.5320  137.7950 C   0  0  0  0  0  1  0  0  0  0  0  0
  188.6660  178.1380  139.1950 C   0  0  0  0  0  0  0  0  0  0  0  0
  183.3160  178.7910  143.2180 C   0  0  0  0  0  0  0  0  0  0  0  0
  184.7030  178.7700  143.1410 C   0  0  0  0  0  0  0  0  0  0  0  0
  185.5910  178.5720  144.1330 N   0  0  0  0  0  2  0  0  0  0  0  0
  185.3020  178.7400  141.9200 C   0  0  0  0  0  0  0  0  0  0  0  0
  182.6040  178.8330  142.0530 N   0  0  0  0  0  0  0  0  0  0  0  0
  183.2340  178.7860  140.8350 C   0  0  0  0  0  3  0  0  0  0  0  0
  184.5940  178.7120  140.7640 N   0  0  0  0  0  0  0  0  0  0  0  0
  182.6410  178.7530  144.4710 N   0  0  0  0  0  1  0  0  0  0  0  0
  186.7910  178.4050  143.5120 C   0  0  0  0  0  3  0  0  0  0  0  0
  186.6430  178.5400  142.1320 C   0  0  0  0  0  0  0  0  0  0  0  0
  190.9980  175.7350  138.3720 C   0  0  0  0  0  2  0  0  0  0  0  0
  190.9730  177.5500  140.0360 N   0  0  0  0  0  0  0  0  0  0  0  0
  192.1990  175.0700  137.7210 C   0  0  0  0  0  2  0  0  0  0  0  0
  193.0730  176.7770  139.0940 C   0  0  0  0  0  2  0  0  0  0  0  0
  191.6080  176.7710  139.2120 C   0  0  0  0  0  0  0  0  0  0  0  0
  193.4130  175.8620  137.9980 N   0  0  0  0  0  0  0  0  0  0  0  0
  194.4720  174.9470  138.4490 C   0  0  0  0  0  3  0  0  0  0  0  0
  195.2720  175.5490  139.6000 C   0  0  0  0  0  1  0  0  0  0  0  0
  195.4520  174.6630  137.3200 C   0  0  0  0  0  1  0  0  0  0  0  0
  189.3600  177.2680  142.6340 N   0  0  0  0  0  0  0  0  0  0  0  0
  189.4000  175.8480  142.9710 C   0  0  0  0  0  2  0  0  0  0  0  0
  190.8650  175.4130  143.0940 C   0  0  0  0  0  2  0  0  0  0  0  0
  191.5620  176.2670  144.0640 N   0  0  0  0  0  2  0  0  0  0  0  0
  190.1400  178.1770  143.4690 C   0  0  0  0  0  2  0  0  0  0  0  0
  191.5720  177.6470  143.5780 C   0  0  0  0  0  2  0  0  0  0  0  0
  1  2  1  0  0  0  0
  1 16  1  0  0  0  0
  2 26  1  0  0  0  0
  3  2  2  0  0  0  0
  4  1  1  0  0  0  0
  5  6  1  0  0  0  0
  6  4  2  0  0  0  0
  6  3  1  0  0  0  0
  7 14  1  0  0  0  0
  8  7  1  0  0  0  0
  8  9  1  0  0  0  0
 10 16  1  0  0  0  0
 10  8  2  0  0  0  0
 11  7  2  0  0  0  0
 12 11  1  0  0  0  0
 13 12  2  0  0  0  0
 13 10  1  0  0  0  0
 15  9  1  0  0  0  0
 16 15  2  0  0  0  0
 17 21  1  0  0  0  0
 18  3  1  0  0  0  0
 19 22  1  0  0  0  0
 19 17  1  0  0  0  0
 20 21  1  0  0  0  0
 21 18  2  0  0  0  0
 22 23  1  0  0  0  0
 22 20  1  0  0  0  0
 23 24  1  0  0  0  0
 25 23  1  0  0  0  0
 26 27  1  0  0  0  0
 26 30  1  0  0  0  0
 27 28  1  0  0  0  0
 28 29  1  0  0  0  0
 30 31  1  0  0  0  0
 31 29  1  0  0  0  0
M  END
>  <MODEL>
6

>  <REMARK>
 VINA RESULT:      -6.6      2.309      6.302
  Name = 
  4 active torsions:
  status: ('A' for Active; 'I' for Inactive)
    1  A    between atoms: N_1  and  C_28
    2  A    between atoms: C_3  and  N_8
    3  A    between atoms: C_5  and  N_30
    4  A    between atoms: N_6  and  C_23
                            x       y       z     vdW  Elec       q    Type
                         _______ _______ _______ _____ _____    ______ ____

>  <TORSDO>
F 4

$$$$
=
 OpenBabel10222421453D

 31 35  0  0  1  0  0  0  0  0999 V2000
  184.7750  178.1070  139.1220 N   0  0  0  0  0  0  0  0  0  0  0  0
  186.1210  178.2230  139.1890 C   0  0  0  0  0  0  0  0  0  0  0  0
  186.4830  178.7840  140.4000 C   0  0  0  0  0  0  0  0  0  0  0  0
  184.2690  178.5520  140.2950 C   0  0  0  0  0  3  0  0  0  0  0  0
  185.1570  179.3400  142.5420 C   0  0  0  0  0  1  0  0  0  0  0  0
  185.3040  178.9760  141.1060 C   0  0  0  0  0  0  0  0  0  0  0  0
  181.8290  177.1120  135.4730 C   0  0  0  0  0  0  0  0  0  0  0  0
  182.7620  176.8340  136.4640 C   0  0  0  0  0  0  0  0  0  0  0  0
  183.7020  175.8710  136.4780 N   0  0  0  0  0  0  0  0  0  0  0  0
  182.9370  177.7210  137.4810 C   0  0  2  0  0  3  0  0  0  0  0  0
  181.0830  178.2510  135.5880 N   0  0  0  0  0  0  0  0  0  0  0  0
  181.2920  179.1350  136.6160 C   0  0  0  0  0  3  0  0  0  0  0  0
  182.2450  178.8840  137.5590 N   0  0  0  0  0  0  0  0  0  0  0  0
  181.6570  176.2510  134.3520 N   0  0  0  0  0  1  0  0  0  0  0  0
  184.5020  176.1680  137.5400 C   0  0  0  0  0  3  0  0  0  0  0  0
  184.0260  177.2970  138.2030 C   0  0  0  0  0  0  0  0  0  0  0  0
  187.5300  177.0980  142.6640 C   0  0  0  0  0  2  0  0  0  0  0  0
  187.8170  178.8200  140.9280 N   0  0  0  0  0  0  0  0  0  0  0  0
  188.5620  176.5650  143.6430 C   0  0  0  0  0  2  0  0  0  0  0  0
  189.7090  178.1000  142.2680 C   0  0  0  0  0  2  0  0  0  0  0  0
  188.3010  178.0450  141.8530 C   0  0  0  0  0  0  0  0  0  0  0  0
  189.9070  177.0140  143.2360 N   0  0  0  0  0  0  0  0  0  0  0  0
  190.5970  177.5480  144.4190 C   0  0  0  0  0  3  0  0  0  0  0  0
  191.5090  178.7140  144.0510 C   0  0  0  0  0  1  0  0  0  0  0  0
  191.4710  176.4790  145.0590 C   0  0  0  0  0  1  0  0  0  0  0  0
  187.0140  177.8600  138.1230 N   0  0  0  0  0  0  0  0  0  0  0  0
  187.3780  178.8530  137.1170 C   0  0  0  0  0  2  0  0  0  0  0  0
  188.8740  179.1620  137.2510 C   0  0  0  0  0  2  0  0  0  0  0  0
  189.6520  177.9190  137.1600 N   0  0  0  0  0  2  0  0  0  0  0  0
  187.8260  176.6480  138.1940 C   0  0  0  0  0  2  0  0  0  0  0  0
  189.3020  177.0430  138.2780 C   0  0  0  0  0  2  0  0  0  0  0  0
  1  2  1  0  0  0  0
  1  4  1  0  0  0  0
  2  3  2  0  0  0  0
  3 18  1  0  0  0  0
  3  6  1  0  0  0  0
  4  6  2  0  0  0  0
  6  5  1  0  0  0  0
  7 11  2  0  0  0  0
  7  8  1  0  0  0  0
  8  9  2  0  0  0  0
  9 15  1  0  0  0  0
 10  8  1  6  0  0  0
 10 13  1  0  0  0  0
 10 16  1  0  0  0  0
 11 12  1  0  0  0  0
 12 13  2  0  0  0  0
 14  7  1  0  0  0  0
 15 16  2  0  0  0  0
 16  1  1  0  0  0  0
 17 19  1  0  0  0  0
 18 21  2  0  0  0  0
 20 22  1  0  0  0  0
 21 20  1  0  0  0  0
 21 17  1  0  0  0  0
 22 19  1  0  0  0  0
 22 23  1  0  0  0  0
 23 25  1  0  0  0  0
 24 23  1  0  0  0  0
 26 30  1  0  0  0  0
 26  2  1  0  0  0  0
 27 28  1  0  0  0  0
 27 26  1  0  0  0  0
 29 28  1  0  0  0  0
 29 31  1  0  0  0  0
 30 31  1  0  0  0  0
M  END
>  <MODEL>
7

>  <REMARK>
 VINA RESULT:      -6.1      3.266      9.364
  Name = 
  4 active torsions:
  status: ('A' for Active; 'I' for Inactive)
    1  A    between atoms: N_1  and  C_28
    2  A    between atoms: C_3  and  N_8
    3  A    between atoms: C_5  and  N_30
    4  A    between atoms: N_6  and  C_23
                            x       y       z     vdW  Elec       q    Type
                         _______ _______ _______ _____ _____    ______ ____

>  <TORSDO>
F 4

$$$$
=
 OpenBabel10222421453D

 31 35  0  0  0  0  0  0  0  0999 V2000
  185.9260  178.3450  139.7040 N   0  0  0  0  0  0  0  0  0  0  0  0
  186.3470  178.4610  140.9850 C   0  0  0  0  0  0  0  0  0  0  0  0
  187.7290  178.4240  141.0280 C   0  0  0  0  0  0  0  0  0  0  0  0
  187.0250  178.2730  138.9190 C   0  0  0  0  0  3  0  0  0  0  0  0
  189.5430  178.4700  139.1950 C   0  0  0  0  0  1  0  0  0  0  0  0
  188.1550  178.3210  139.7110 C   0  0  0  0  0  0  0  0  0  0  0  0
  181.1800  177.9650  139.1430 C   0  0  0  0  0  0  0  0  0  0  0  0
  182.4300  178.5570  139.0170 C   0  0  0  0  0  0  0  0  0  0  0  0
  182.7280  179.8680  138.9340 N   0  0  0  0  0  0  0  0  0  0  0  0
  183.5470  177.8010  139.1930 C   0  0  0  0  0  0  0  0  0  0  0  0
  181.1220  176.6220  139.3890 N   0  0  0  0  0  2  0  0  0  0  0  0
  182.2650  175.8860  139.5770 C   0  0  0  0  0  3  0  0  0  0  0  0
  183.4900  176.4830  139.5050 N   0  0  0  0  0  0  0  0  0  0  0  0
  179.9830  178.7280  139.0370 N   0  0  0  0  0  1  0  0  0  0  0  0
  184.0810  179.9370  139.0690 C   0  0  0  0  0  3  0  0  0  0  0  0
  184.6190  178.6570  139.1970 C   0  0  0  0  0  0  0  0  0  0  0  0
  189.5630  176.5690  142.5320 C   0  0  0  0  0  2  0  0  0  0  0  0
  188.5300  178.7750  142.1670 N   0  0  0  0  0  0  0  0  0  0  0  0
  190.5790  176.1680  143.5880 C   0  0  0  0  0  2  0  0  0  0  0  0
  190.2230  178.4810  143.8810 C   0  0  0  0  0  2  0  0  0  0  0  0
  189.3810  178.0040  142.7760 C   0  0  0  0  0  0  0  0  0  0  0  0
  191.1240  177.3780  144.2330 N   0  0  0  0  0  0  0  0  0  0  0  0
  191.0960  177.1810  145.6900 C   0  0  0  0  0  3  0  0  0  0  0  0
  191.8910  175.9450  146.0980 C   0  0  0  0  0  1  0  0  0  0  0  0
  189.6680  176.9780  146.1760 C   0  0  0  0  0  1  0  0  0  0  0  0
  185.4670  178.5520  142.1160 N   0  0  0  0  0  0  0  0  0  0  0  0
  185.3970  177.4470  143.0670 C   0  0  0  0  0  2  0  0  0  0  0  0
  185.9510  177.9240  144.4160 C   0  0  0  0  0  2  0  0  0  0  0  0
  185.2310  179.1250  144.8560 N   0  0  0  0  0  2  0  0  0  0  0  0
  184.8940  179.8300  142.5300 C   0  0  0  0  0  2  0  0  0  0  0  0
  185.4610  180.2080  143.9000 C   0  0  0  0  0  2  0  0  0  0  0  0
  1  2  1  0  0  0  0
  2  3  2  0  0  0  0
  2 26  1  0  0  0  0
  3 18  1  0  0  0  0
  4  1  1  0  0  0  0
  4  6  2  0  0  0  0
  5  6  1  0  0  0  0
  6  3  1  0  0  0  0
  7 11  1  0  0  0  0
  8  7  2  0  0  0  0
  8 10  1  0  0  0  0
  9  8  1  0  0  0  0
  9 15  2  0  0  0  0
 10 16  2  0  0  0  0
 10 13  1  0  0  0  0
 11 12  1  0  0  0  0
 13 12  2  0  0  0  0
 14  7  1  0  0  0  0
 15 16  1  0  0  0  0
 16  1  1  0  0  0  0
 17 21  1  0  0  0  0
 17 19  1  0  0  0  0
 18 21  2  0  0  0  0
 19 22  1  0  0  0  0
 20 22  1  0  0  0  0
 21 20  1  0  0  0  0
 22 23  1  0  0  0  0
 23 24  1  0  0  0  0
 23 25  1  0  0  0  0
 26 30  1  0  0  0  0
 26 27  1  0  0  0  0
 27 28  1  0  0  0  0
 28 29  1  0  0  0  0
 30 31  1  0  0  0  0
 31 29  1  0  0  0  0
M  END
>  <MODEL>
8

>  <REMARK>
 VINA RESULT:      -6.1      3.418      8.272
  Name = 
  4 active torsions:
  status: ('A' for Active; 'I' for Inactive)
    1  A    between atoms: N_1  and  C_28
    2  A    between atoms: C_3  and  N_8
    3  A    between atoms: C_5  and  N_30
    4  A    between atoms: N_6  and  C_23
                            x       y       z     vdW  Elec       q    Type
                         _______ _______ _______ _____ _____    ______ ____

>  <TORSDO>
F 4

$$$$
=
 OpenBabel10222421453D

 31 35  0  0  0  0  0  0  0  0999 V2000
  191.8580  176.5520  138.8280 N   0  0  0  0  0  0  0  0  0  0  0  0
  190.5600  176.9320  138.7960 C   0  0  0  0  0  0  0  0  0  0  0  0
  190.1700  177.3720  140.0470 C   0  0  0  0  0  0  0  0  0  0  0  0
  192.3190  176.7790  140.0790 C   0  0  0  0  0  3  0  0  0  0  0  0
  191.4720  177.8480  142.2240 C   0  0  0  0  0  1  0  0  0  0  0  0
  191.2960  177.2890  140.8560 C   0  0  0  0  0  0  0  0  0  0  0  0
  195.3020  174.5080  136.1930 C   0  0  0  0  0  0  0  0  0  0  0  0
  194.2260  175.3500  136.4440 C   0  0  0  0  0  0  0  0  0  0  0  0
  193.2770  175.7690  135.5860 N   0  0  0  0  0  0  0  0  0  0  0  0
  193.9150  175.6670  137.7290 C   0  0  0  0  0  0  0  0  0  0  0  0
  196.0430  174.0700  137.2550 N   0  0  0  0  0  2  0  0  0  0  0  0
  195.6960  174.3940  138.5420 C   0  0  0  0  0  3  0  0  0  0  0  0
  194.6070  175.1790  138.7870 N   0  0  0  0  0  0  0  0  0  0  0  0
  195.6250  174.0900  134.8710 N   0  0  0  0  0  1  0  0  0  0  0  0
  192.3320  176.3670  136.3620 C   0  0  0  0  0  3  0  0  0  0  0  0
  192.7230  176.3480  137.7000 C   0  0  0  0  0  0  0  0  0  0  0  0
  188.3590  176.9020  142.4060 C   0  0  0  0  0  2  0  0  0  0  0  0
  188.9590  178.0870  140.3320 N   0  0  0  0  0  0  0  0  0  0  0  0
  187.1650  177.1400  143.3160 C   0  0  0  0  0  2  0  0  0  0  0  0
  187.0320  178.7870  141.6330 C   0  0  0  0  0  2  0  0  0  0  0  0
  188.2110  177.9450  141.3860 C   0  0  0  0  0  0  0  0  0  0  0  0
  186.5170  178.4150  142.9560 N   0  0  0  0  0  0  0  0  0  0  0  0
  185.0670  178.1880  142.8590 C   0  0  0  0  0  3  0  0  0  0  0  0
  184.4960  178.7880  141.5780 C   0  0  0  0  0  1  0  0  0  0  0  0
  184.3420  178.8430  144.0250 C   0  0  0  0  0  1  0  0  0  0  0  0
  189.7200  176.8320  137.6350 N   0  0  0  0  0  0  0  0  0  0  0  0
  188.9580  175.6100  137.3980 C   0  0  0  0  0  2  0  0  0  0  0  0
  187.4640  175.9320  137.5200 C   0  0  0  0  0  2  0  0  0  0  0  0
  187.1120  177.0300  136.6100 N   0  0  0  0  0  2  0  0  0  0  0  0
  189.3440  178.0160  136.8670 C   0  0  0  0  0  2  0  0  0  0  0  0
  187.8360  178.2390  137.0030 C   0  0  0  0  0  2  0  0  0  0  0  0
  1  4  1  0  0  0  0
  2  1  1  0  0  0  0
  2  3  2  0  0  0  0
  3 18  1  0  0  0  0
  3  6  1  0  0  0  0
  4  6  2  0  0  0  0
  6  5  1  0  0  0  0
  7  8  2  0  0  0  0
  7 11  1  0  0  0  0
  8 10  1  0  0  0  0
  9 15  2  0  0  0  0
  9  8  1  0  0  0  0
 10 13  1  0  0  0  0
 11 12  1  0  0  0  0
 12 13  2  0  0  0  0
 14  7  1  0  0  0  0
 15 16  1  0  0  0  0
 16 10  2  0  0  0  0
 16  1  1  0  0  0  0
 17 19  1  0  0  0  0
 18 21  2  0  0  0  0
 20 22  1  0  0  0  0
 21 20  1  0  0  0  0
 21 17  1  0  0  0  0
 22 19  1  0  0  0  0
 23 22  1  0  0  0  0
 23 25  1  0  0  0  0
 24 23  1  0  0  0  0
 26  2  1  0  0  0  0
 27 28  1  0  0  0  0
 27 26  1  0  0  0  0
 29 31  1  0  0  0  0
 29 28  1  0  0  0  0
 30 31  1  0  0  0  0
 30 26  1  0  0  0  0
M  END
>  <MODEL>
9

>  <REMARK>
 VINA RESULT:      -6.1      3.042      6.847
  Name = 
  4 active torsions:
  status: ('A' for Active; 'I' for Inactive)
    1  A    between atoms: N_1  and  C_28
    2  A    between atoms: C_3  and  N_8
    3  A    between atoms: C_5  and  N_30
    4  A    between atoms: N_6  and  C_23
                            x       y       z     vdW  Elec       q    Type
                         _______ _______ _______ _____ _____    ______ ____

>  <TORSDO>
F 4

$$$$
