=
 OpenBabel10232409553D

 34 36  0  0  1  0  0  0  0  0999 V2000
  186.8150  177.7090  144.3040 C   0  0  0  0  0  0  0  0  0  0  0  0
  187.3020  177.9350  145.5390 C   0  0  0  0  0  3  0  0  0  0  0  0
  184.5950  178.6650  145.0020 C   0  0  0  0  0  3  0  0  0  0  0  0
  183.6480  178.5630  142.3770 C   0  0  0  0  0  3  0  0  0  0  0  0
  183.3010  179.1020  144.7080 C   0  0  0  0  0  3  0  0  0  0  0  0
  185.4340  178.1690  143.9900 C   0  0  0  0  0  0  0  0  0  0  0  0
  184.9420  178.1250  142.6720 C   0  0  0  0  0  3  0  0  0  0  0  0
  182.8280  179.0570  143.3960 C   0  0  0  0  0  0  0  0  0  0  0  0
  181.4380  179.4980  143.0880 C   0  0  0  0  0  2  0  0  0  0  0  0
  181.0450  179.2720  140.6360 C   0  0  0  0  0  3  0  0  0  0  0  0
  179.9820  177.4330  140.6130 C   0  0  0  0  0  3  0  0  0  0  0  0
  180.2860  177.6840  141.9010 N   0  0  0  0  0  0  0  0  0  0  0  0
  180.4430  178.4070  139.7970 N   0  0  0  0  0  0  0  0  0  0  0  0
  180.9500  178.8240  141.8960 N   0  0  0  0  0  0  0  0  0  0  0  0
  187.7750  175.7410  143.3690 O   0  0  0  0  0  0  0  0  0  0  0  0
  187.5950  176.9860  143.2730 C   0  0  0  0  0  0  0  0  0  0  0  0
  188.1100  177.6930  142.1450 N   0  0  0  0  0  2  0  0  0  0  0  0
  188.8430  177.0330  141.1530 N   0  0  0  0  0  0  0  0  0  0  0  0
  190.0890  177.3170  140.9740 C   0  0  0  0  0  3  0  0  0  0  0  0
  190.0810  176.5720  138.6490 C   0  0  0  0  0  2  0  0  0  0  0  0
  193.0250  177.1800  140.8360 F   0  0  0  0  0  0  0  0  0  0  0  0
  192.2400  177.3000  139.7040 C   0  0  2  0  0  3  0  0  0  0  0  0
  192.1000  176.6590  137.3470 N   0  0  0  0  0  0  0  0  0  0  0  0
  190.6740  176.5700  137.4530 C   0  0  0  0  0  3  0  0  0  0  0  0
  190.8820  176.6170  139.9220 C   0  0  1  0  0  3  0  0  0  0  0  0
  192.9560  176.6380  138.5300 C   0  0  0  0  0  2  0  0  0  0  0  0
  188.8810  176.6920  146.8290 O   0  0  0  0  0  0  0  0  0  0  0  0
  188.6600  177.6540  146.0430 C   0  0  0  0  0  0  0  0  0  0  0  0
  189.7150  178.4460  145.5840 O   0  0  0  0  0  0  0  0  0  0  0  0
  190.5470  178.0560  144.4980 C   0  0  1  0  0  3  0  0  0  0  0  0
  191.3770  179.2370  144.0200 C   0  0  0  0  0  1  0  0  0  0  0  0
  192.0160  176.9700  146.0410 O   0  0  0  0  0  0  0  0  0  0  0  0
  191.6800  175.8540  144.0340 N   0  0  0  0  0  1  0  0  0  0  0  0
  191.4460  176.9430  144.9180 C   0  0  0  0  0  0  0  0  0  0  0  0
  1  2  2  0  0  0  0
  2 28  1  0  0  0  0
  4  7  2  0  0  0  0
  4  8  1  0  0  0  0
  5  3  1  0  0  0  0
  6  1  1  0  0  0  0
  6  3  2  0  0  0  0
  7  6  1  0  0  0  0
  8  5  2  0  0  0  0
  9  8  1  0  0  0  0
 10 14  1  0  0  0  0
 11 12  2  0  0  0  0
 13 11  1  0  0  0  0
 13 10  2  0  0  0  0
 14 12  1  0  0  0  0
 14  9  1  0  0  0  0
 16 15  2  0  0  0  0
 16  1  1  0  0  0  0
 17 16  1  0  0  0  0
 18 17  1  0  0  0  0
 19 18  2  0  0  0  0
 20 25  1  0  0  0  0
 22 25  1  0  0  0  0
 22 21  1  1  0  0  0
 23 24  2  0  0  0  0
 23 26  1  0  0  0  0
 24 20  1  0  0  0  0
 25 19  1  1  0  0  0
 26 22  1  0  0  0  0
 28 27  2  0  0  0  0
 29 28  1  0  0  0  0
 30 31  1  1  0  0  0
 30 34  1  0  0  0  0
 30 29  1  0  0  0  0
 33 34  1  0  0  0  0
 34 32  2  0  0  0  0
M  END
>  <MODEL>
1

>  <REMARK>
 VINA RESULT:      -8.6      0.000      0.000
  Name = 
  10 active torsions:
  status: ('A' for Active; 'I' for Inactive)
    1  A    between atoms: N_7  and  N_24
    2  A    between atoms: C_12  and  C_18
    3  A    between atoms: O_13  and  C_17
    4  A    between atoms: O_13  and  C_33
    5  A    between atoms: C_16  and  C_30
    6  A    between atoms: C_17  and  C_27
    7  A    between atoms: C_18  and  C_19
    8  A    between atoms: C_25  and  C_28
    9  A    between atoms: C_28  and  N_34
   10  A    between atoms: C_32  and  C_33
                            x       y       z     vdW  Elec       q    Type
                         _______ _______ _______ _____ _____    ______ ____

>  <TORSDO>
F 10

$$$$
=
 OpenBabel10232409553D

 34 36  0  0  1  0  0  0  0  0999 V2000
  186.7280  177.7840  144.2400 C   0  0  0  0  0  0  0  0  0  0  0  0
  187.1870  177.8730  145.5030 C   0  0  0  0  0  3  0  0  0  0  0  0
  184.4880  178.6370  145.0020 C   0  0  0  0  0  3  0  0  0  0  0  0
  183.4960  178.5660  142.3920 C   0  0  0  0  0  3  0  0  0  0  0  0
  183.1730  179.0330  144.7430 C   0  0  0  0  0  3  0  0  0  0  0  0
  185.3250  178.2000  143.9620 C   0  0  0  0  0  0  0  0  0  0  0  0
  184.8100  178.1700  142.6530 C   0  0  0  0  0  3  0  0  0  0  0  0
  182.6770  179.0020  143.4380 C   0  0  0  0  0  0  0  0  0  0  0  0
  181.2660  179.3970  143.1670 C   0  0  0  0  0  2  0  0  0  0  0  0
  180.8260  179.6840  140.7300 C   0  0  0  0  0  3  0  0  0  0  0  0
  180.1130  177.7370  140.2650 C   0  0  0  0  0  3  0  0  0  0  0  0
  180.4150  177.7320  141.5770 N   0  0  0  0  0  0  0  0  0  0  0  0
  180.3590  178.9430  139.7060 N   0  0  0  0  0  0  0  0  0  0  0  0
  180.8630  178.9430  141.8470 N   0  0  0  0  0  0  0  0  0  0  0  0
  187.8630  176.0290  143.1010 O   0  0  0  0  0  0  0  0  0  0  0  0
  187.5630  177.2530  143.1370 C   0  0  0  0  0  0  0  0  0  0  0  0
  187.9950  178.1210  142.0900 N   0  0  0  0  0  2  0  0  0  0  0  0
  188.7770  177.6430  141.0330 N   0  0  0  0  0  0  0  0  0  0  0  0
  188.5810  178.0810  139.8350 C   0  0  0  0  0  3  0  0  0  0  0  0
  190.7210  177.0720  139.2350 C   0  0  0  0  0  2  0  0  0  0  0  0
  187.5570  177.0340  137.2830 F   0  0  0  0  0  0  0  0  0  0  0  0
  188.6700  176.4980  137.9050 C   0  0  2  0  0  3  0  0  0  0  0  0
  190.8350  175.4450  137.4690 N   0  0  0  0  0  0  0  0  0  0  0  0
  191.3820  176.0840  138.6290 C   0  0  0  0  0  3  0  0  0  0  0  0
  189.4110  177.5830  138.7000 C   0  0  1  0  0  3  0  0  0  0  0  0
  189.6050  175.9230  136.8440 C   0  0  0  0  0  2  0  0  0  0  0  0
  188.7950  176.6510  146.7760 O   0  0  0  0  0  0  0  0  0  0  0  0
  188.5540  177.6080  145.9910 C   0  0  0  0  0  0  0  0  0  0  0  0
  189.5940  178.4120  145.5190 O   0  0  0  0  0  0  0  0  0  0  0  0
  190.4740  177.9900  144.4830 C   0  0  1  0  0  3  0  0  0  0  0  0
  191.2490  179.1780  143.9350 C   0  0  0  0  0  1  0  0  0  0  0  0
  191.9630  177.1100  146.1340 O   0  0  0  0  0  0  0  0  0  0  0  0
  191.7380  175.8270  144.2130 N   0  0  0  0  0  1  0  0  0  0  0  0
  191.4220  176.9650  145.0060 C   0  0  0  0  0  0  0  0  0  0  0  0
  1  2  2  0  0  0  0
  2 28  1  0  0  0  0
  4  7  2  0  0  0  0
  4  8  1  0  0  0  0
  5  3  1  0  0  0  0
  6  1  1  0  0  0  0
  6  3  2  0  0  0  0
  7  6  1  0  0  0  0
  8  5  2  0  0  0  0
  9  8  1  0  0  0  0
 10 14  1  0  0  0  0
 11 12  2  0  0  0  0
 12 14  1  0  0  0  0
 13 11  1  0  0  0  0
 13 10  2  0  0  0  0
 14  9  1  0  0  0  0
 15 16  2  0  0  0  0
 16  1  1  0  0  0  0
 17 16  1  0  0  0  0
 18 17  1  0  0  0  0
 19 18  2  0  0  0  0
 22 21  1  6  0  0  0
 22 25  1  0  0  0  0
 23 24  2  0  0  0  0
 24 20  1  0  0  0  0
 25 20  1  0  0  0  0
 25 19  1  1  0  0  0
 26 23  1  0  0  0  0
 26 22  1  0  0  0  0
 28 27  2  0  0  0  0
 29 28  1  0  0  0  0
 30 31  1  1  0  0  0
 30 34  1  0  0  0  0
 30 29  1  0  0  0  0
 33 34  1  0  0  0  0
 34 32  2  0  0  0  0
M  END
>  <MODEL>
2

>  <REMARK>
 VINA RESULT:      -8.6      1.334      1.634
  Name = 
  10 active torsions:
  status: ('A' for Active; 'I' for Inactive)
    1  A    between atoms: N_7  and  N_24
    2  A    between atoms: C_12  and  C_18
    3  A    between atoms: O_13  and  C_17
    4  A    between atoms: O_13  and  C_33
    5  A    between atoms: C_16  and  C_30
    6  A    between atoms: C_17  and  C_27
    7  A    between atoms: C_18  and  C_19
    8  A    between atoms: C_25  and  C_28
    9  A    between atoms: C_28  and  N_34
   10  A    between atoms: C_32  and  C_33
                            x       y       z     vdW  Elec       q    Type
                         _______ _______ _______ _____ _____    ______ ____

>  <TORSDO>
F 10

$$$$
=
 OpenBabel10232409553D

 34 36  0  0  1  0  0  0  0  0999 V2000
  190.7860  177.3450  141.3850 C   0  0  0  0  0  0  0  0  0  0  0  0
  191.8360  177.5700  142.1970 C   0  0  0  0  0  3  0  0  0  0  0  0
  189.9930  176.5940  139.1190 C   0  0  0  0  0  3  0  0  0  0  0  0
  192.6070  176.5710  138.1350 C   0  0  0  0  0  3  0  0  0  0  0  0
  190.2380  176.2300  137.7920 C   0  0  0  0  0  3  0  0  0  0  0  0
  191.0500  176.9510  139.9730 C   0  0  0  0  0  0  0  0  0  0  0  0
  192.3610  176.9350  139.4620 C   0  0  0  0  0  3  0  0  0  0  0  0
  191.5430  176.2220  137.2980 C   0  0  0  0  0  0  0  0  0  0  0  0
  191.8060  175.8060  135.8910 C   0  0  0  0  0  2  0  0  0  0  0  0
  193.7680  174.3810  135.3120 C   0  0  0  0  0  3  0  0  0  0  0  0
  193.0990  172.5200  136.0910 C   0  0  0  0  0  3  0  0  0  0  0  0
  192.1270  173.4160  136.3500 N   0  0  0  0  0  0  0  0  0  0  0  0
  194.1390  173.0920  135.4430 N   0  0  0  0  0  0  0  0  0  0  0  0
  192.5620  174.5650  135.8670 N   0  0  0  0  0  0  0  0  0  0  0  0
  188.6990  178.4890  141.4360 O   0  0  0  0  0  0  0  0  0  0  0  0
  189.3880  177.5150  141.8450 C   0  0  0  0  0  0  0  0  0  0  0  0
  188.8050  176.5510  142.7210 N   0  0  0  0  0  2  0  0  0  0  0  0
  187.4850  176.6830  143.1640 N   0  0  0  0  0  0  0  0  0  0  0  0
  187.2300  177.3290  144.2520 C   0  0  0  0  0  3  0  0  0  0  0  0
  185.8410  177.9140  146.1720 C   0  0  0  0  0  2  0  0  0  0  0  0
  184.8970  177.9720  142.5770 F   0  0  0  0  0  0  0  0  0  0  0  0
  185.0440  178.4720  143.8580 C   0  0  2  0  0  3  0  0  0  0  0  0
  183.7920  179.1300  145.8540 N   0  0  0  0  0  0  0  0  0  0  0  0
  184.8660  178.6690  146.6830 C   0  0  0  0  0  3  0  0  0  0  0  0
  185.8260  177.4810  144.7320 C   0  0  1  0  0  3  0  0  0  0  0  0
  183.6620  178.7000  144.4650 C   0  0  0  0  0  2  0  0  0  0  0  0
  191.9220  179.0620  144.0590 O   0  0  0  0  0  0  0  0  0  0  0  0
  191.8170  177.8770  143.6400 C   0  0  0  0  0  0  0  0  0  0  0  0
  191.6220  176.8260  144.5380 O   0  0  0  0  0  0  0  0  0  0  0  0
  191.5040  177.0330  145.9420 C   0  0  1  0  0  3  0  0  0  0  0  0
  190.0390  177.1150  146.3400 C   0  0  0  0  0  1  0  0  0  0  0  0
  192.3470  174.8020  146.1240 O   0  0  0  0  0  0  0  0  0  0  0  0
  192.5770  176.1120  148.0270 N   0  0  0  0  0  1  0  0  0  0  0  0
  192.1670  175.9190  146.6790 C   0  0  0  0  0  0  0  0  0  0  0  0
  1 16  1  0  0  0  0
  1  2  2  0  0  0  0
  2 28  1  0  0  0  0
  3  6  1  0  0  0  0
  4  7  1  0  0  0  0
  5  3  2  0  0  0  0
  6  1  1  0  0  0  0
  7  6  2  0  0  0  0
  8  5  1  0  0  0  0
  8  4  2  0  0  0  0
  9  8  1  0  0  0  0
 10 13  2  0  0  0  0
 10 14  1  0  0  0  0
 11 12  2  0  0  0  0
 13 11  1  0  0  0  0
 14  9  1  0  0  0  0
 14 12  1  0  0  0  0
 15 16  2  0  0  0  0
 16 17  1  0  0  0  0
 17 18  1  0  0  0  0
 18 19  2  0  0  0  0
 20 24  1  0  0  0  0
 22 21  1  6  0  0  0
 22 26  1  0  0  0  0
 22 25  1  0  0  0  0
 23 24  2  0  0  0  0
 25 19  1  6  0  0  0
 25 20  1  0  0  0  0
 26 23  1  0  0  0  0
 28 27  2  0  0  0  0
 28 29  1  0  0  0  0
 29 30  1  0  0  0  0
 30 31  1  1  0  0  0
 30 34  1  0  0  0  0
 32 34  2  0  0  0  0
 34 33  1  0  0  0  0
M  END
>  <MODEL>
3

>  <REMARK>
 VINA RESULT:      -8.1      3.024      8.711
  Name = 
  10 active torsions:
  status: ('A' for Active; 'I' for Inactive)
    1  A    between atoms: N_7  and  N_24
    2  A    between atoms: C_12  and  C_18
    3  A    between atoms: O_13  and  C_17
    4  A    between atoms: O_13  and  C_33
    5  A    between atoms: C_16  and  C_30
    6  A    between atoms: C_17  and  C_27
    7  A    between atoms: C_18  and  C_19
    8  A    between atoms: C_25  and  C_28
    9  A    between atoms: C_28  and  N_34
   10  A    between atoms: C_32  and  C_33
                            x       y       z     vdW  Elec       q    Type
                         _______ _______ _______ _____ _____    ______ ____

>  <TORSDO>
F 10

$$$$
=
 OpenBabel10232409553D

 34 36  0  0  1  0  0  0  0  0999 V2000
  183.8570  178.5060  143.1750 C   0  0  0  0  0  0  0  0  0  0  0  0
  182.6530  178.7890  143.7090 C   0  0  0  0  0  3  0  0  0  0  0  0
  185.0320  178.9160  145.3610 C   0  0  0  0  0  3  0  0  0  0  0  0
  187.1930  177.3310  144.5760 C   0  0  0  0  0  3  0  0  0  0  0  0
  186.1140  178.7320  146.2250 C   0  0  0  0  0  3  0  0  0  0  0  0
  185.0140  178.3130  144.0920 C   0  0  0  0  0  0  0  0  0  0  0  0
  186.1100  177.5160  143.7120 C   0  0  0  0  0  3  0  0  0  0  0  0
  187.1930  177.9350  145.8360 C   0  0  0  0  0  0  0  0  0  0  0  0
  188.3590  177.7620  146.7470 C   0  0  0  0  0  2  0  0  0  0  0  0
  190.5310  176.6920  146.1500 C   0  0  0  0  0  3  0  0  0  0  0  0
  191.1560  177.9970  144.5950 C   0  0  0  0  0  3  0  0  0  0  0  0
  189.9590  178.4490  145.0160 N   0  0  0  0  0  0  0  0  0  0  0  0
  191.5410  176.9000  145.2840 N   0  0  0  0  0  0  0  0  0  0  0  0
  189.5830  177.6240  145.9750 N   0  0  0  0  0  0  0  0  0  0  0  0
  183.5620  177.4720  141.0520 O   0  0  0  0  0  0  0  0  0  0  0  0
  184.0650  178.4220  141.7110 C   0  0  0  0  0  0  0  0  0  0  0  0
  184.8020  179.4410  141.0370 N   0  0  0  0  0  2  0  0  0  0  0  0
  185.0050  179.3900  139.6540 N   0  0  0  0  0  0  0  0  0  0  0  0
  185.8210  178.5240  139.1520 C   0  0  0  0  0  3  0  0  0  0  0  0
  187.5120  178.2740  137.4100 C   0  0  0  0  0  2  0  0  0  0  0  0
  183.8630  177.6100  137.1560 F   0  0  0  0  0  0  0  0  0  0  0  0
  185.2130  177.3330  137.0430 C   0  0  2  0  0  3  0  0  0  0  0  0
  187.0150  177.0230  135.4180 N   0  0  0  0  0  0  0  0  0  0  0  0
  187.9450  177.6170  136.3320 C   0  0  0  0  0  3  0  0  0  0  0  0
  186.0430  178.4570  137.6790 C   0  0  1  0  0  3  0  0  0  0  0  0
  185.5750  177.2120  135.5650 C   0  0  0  0  0  2  0  0  0  0  0  0
  180.3250  178.3440  143.4280 O   0  0  0  0  0  0  0  0  0  0  0  0
  181.3620  178.9290  143.0100 C   0  0  0  0  0  0  0  0  0  0  0  0
  181.2970  179.7720  141.8990 O   0  0  0  0  0  0  0  0  0  0  0  0
  180.2940  179.6410  140.8980 C   0  0  1  0  0  3  0  0  0  0  0  0
  179.9850  180.9950  140.2820 C   0  0  0  0  0  1  0  0  0  0  0  0
  180.4280  177.4780  139.8850 O   0  0  0  0  0  0  0  0  0  0  0  0
  181.5800  179.1660  138.7850 N   0  0  0  0  0  1  0  0  0  0  0  0
  180.7510  178.6950  139.8400 C   0  0  0  0  0  0  0  0  0  0  0  0
  1  2  2  0  0  0  0
  1  6  1  0  0  0  0
  3  5  1  0  0  0  0
  4  8  1  0  0  0  0
  6  3  2  0  0  0  0
  7  6  1  0  0  0  0
  7  4  2  0  0  0  0
  8  5  2  0  0  0  0
  8  9  1  0  0  0  0
 11 12  2  0  0  0  0
 11 13  1  0  0  0  0
 12 14  1  0  0  0  0
 13 10  2  0  0  0  0
 14 10  1  0  0  0  0
 14  9  1  0  0  0  0
 15 16  2  0  0  0  0
 16  1  1  0  0  0  0
 17 16  1  0  0  0  0
 18 17  1  0  0  0  0
 19 18  2  0  0  0  0
 20 25  1  0  0  0  0
 22 21  1  6  0  0  0
 22 25  1  0  0  0  0
 23 26  1  0  0  0  0
 23 24  2  0  0  0  0
 24 20  1  0  0  0  0
 25 19  1  1  0  0  0
 26 22  1  0  0  0  0
 28 27  2  0  0  0  0
 28  2  1  0  0  0  0
 29 28  1  0  0  0  0
 30 31  1  6  0  0  0
 30 29  1  0  0  0  0
 33 34  1  0  0  0  0
 34 32  2  0  0  0  0
 34 30  1  0  0  0  0
M  END
>  <MODEL>
4

>  <REMARK>
 VINA RESULT:      -7.8      4.055      7.943
  Name = 
  10 active torsions:
  status: ('A' for Active; 'I' for Inactive)
    1  A    between atoms: N_7  and  N_24
    2  A    between atoms: C_12  and  C_18
    3  A    between atoms: O_13  and  C_17
    4  A    between atoms: O_13  and  C_33
    5  A    between atoms: C_16  and  C_30
    6  A    between atoms: C_17  and  C_27
    7  A    between atoms: C_18  and  C_19
    8  A    between atoms: C_25  and  C_28
    9  A    between atoms: C_28  and  N_34
   10  A    between atoms: C_32  and  C_33
                            x       y       z     vdW  Elec       q    Type
                         _______ _______ _______ _____ _____    ______ ____

>  <TORSDO>
F 10

$$$$
=
 OpenBabel10232409553D

 34 36  0  0  1  0  0  0  0  0999 V2000
  186.9200  177.9430  143.7830 C   0  0  0  0  0  0  0  0  0  0  0  0
  187.4420  177.8830  145.0230 C   0  0  0  0  0  3  0  0  0  0  0  0
  184.7330  178.7510  144.7250 C   0  0  0  0  0  3  0  0  0  0  0  0
  183.4670  178.4150  142.2590 C   0  0  0  0  0  3  0  0  0  0  0  0
  183.3770  179.0610  144.5870 C   0  0  0  0  0  3  0  0  0  0  0  0
  185.4740  178.2670  143.6340 C   0  0  0  0  0  0  0  0  0  0  0  0
  184.8220  178.1050  142.3980 C   0  0  0  0  0  3  0  0  0  0  0  0
  182.7440  178.8980  143.3530 C   0  0  0  0  0  0  0  0  0  0  0  0
  181.2920  179.2030  143.2140 C   0  0  0  0  0  2  0  0  0  0  0  0
  180.7340  179.6700  140.8290 C   0  0  0  0  0  3  0  0  0  0  0  0
  180.0160  177.7570  140.2490 C   0  0  0  0  0  3  0  0  0  0  0  0
  180.3800  177.6540  141.5420 N   0  0  0  0  0  0  0  0  0  0  0  0
  180.2250  179.0050  139.7740 N   0  0  0  0  0  0  0  0  0  0  0  0
  180.8300  178.8470  141.8830 N   0  0  0  0  0  0  0  0  0  0  0  0
  188.2300  176.5140  142.4010 O   0  0  0  0  0  0  0  0  0  0  0  0
  187.7310  177.6590  142.5760 C   0  0  0  0  0  0  0  0  0  0  0  0
  187.9150  178.6730  141.5880 N   0  0  0  0  0  2  0  0  0  0  0  0
  188.6690  178.4280  140.4350 N   0  0  0  0  0  0  0  0  0  0  0  0
  188.0790  178.1130  139.3320 C   0  0  0  0  0  3  0  0  0  0  0  0
  189.5760  176.5320  138.2290 C   0  0  0  0  0  2  0  0  0  0  0  0
  187.4760  179.1610  136.6490 F   0  0  0  0  0  0  0  0  0  0  0  0
  187.9790  177.8880  136.8460 C   0  0  2  0  0  3  0  0  0  0  0  0
  189.4280  176.1850  135.8540 N   0  0  0  0  0  0  0  0  0  0  0  0
  189.8470  175.7760  137.1620 C   0  0  0  0  0  3  0  0  0  0  0  0
  188.8710  177.8540  138.0950 C   0  0  1  0  0  3  0  0  0  0  0  0
  188.8020  177.4840  135.6260 C   0  0  0  0  0  2  0  0  0  0  0  0
  189.7420  178.5150  145.1090 O   0  0  0  0  0  0  0  0  0  0  0  0
  188.8510  177.6720  145.4040 C   0  0  0  0  0  0  0  0  0  0  0  0
  189.1740  176.5390  146.1520 O   0  0  0  0  0  0  0  0  0  0  0  0
  189.7040  176.6190  147.4710 C   0  0  1  0  0  3  0  0  0  0  0  0
  191.1940  176.9140  147.4220 C   0  0  0  0  0  1  0  0  0  0  0  0
  189.6150  178.7280  148.5960 O   0  0  0  0  0  0  0  0  0  0  0  0
  187.6340  177.5190  148.5910 N   0  0  0  0  0  1  0  0  0  0  0  0
  189.0010  177.6880  148.2380 C   0  0  0  0  0  0  0  0  0  0  0  0
  1  2  2  0  0  0  0
  2 28  1  0  0  0  0
  4  7  2  0  0  0  0
  4  8  1  0  0  0  0
  5  3  1  0  0  0  0
  6  1  1  0  0  0  0
  6  3  2  0  0  0  0
  7  6  1  0  0  0  0
  8  5  2  0  0  0  0
  9  8  1  0  0  0  0
 10 14  1  0  0  0  0
 11 12  2  0  0  0  0
 12 14  1  0  0  0  0
 13 11  1  0  0  0  0
 13 10  2  0  0  0  0
 14  9  1  0  0  0  0
 15 16  2  0  0  0  0
 16  1  1  0  0  0  0
 17 16  1  0  0  0  0
 18 17  1  0  0  0  0
 19 18  2  0  0  0  0
 22 21  1  6  0  0  0
 22 25  1  0  0  0  0
 23 24  2  0  0  0  0
 24 20  1  0  0  0  0
 25 20  1  0  0  0  0
 25 19  1  1  0  0  0
 26 23  1  0  0  0  0
 26 22  1  0  0  0  0
 27 28  2  0  0  0  0
 28 29  1  0  0  0  0
 29 30  1  0  0  0  0
 30 31  1  6  0  0  0
 30 34  1  0  0  0  0
 34 33  1  0  0  0  0
 34 32  2  0  0  0  0
M  END
>  <MODEL>
5

>  <REMARK>
 VINA RESULT:      -7.6      2.199      2.739
  Name = 
  10 active torsions:
  status: ('A' for Active; 'I' for Inactive)
    1  A    between atoms: N_7  and  N_24
    2  A    between atoms: C_12  and  C_18
    3  A    between atoms: O_13  and  C_17
    4  A    between atoms: O_13  and  C_33
    5  A    between atoms: C_16  and  C_30
    6  A    between atoms: C_17  and  C_27
    7  A    between atoms: C_18  and  C_19
    8  A    between atoms: C_25  and  C_28
    9  A    between atoms: C_28  and  N_34
   10  A    between atoms: C_32  and  C_33
                            x       y       z     vdW  Elec       q    Type
                         _______ _______ _______ _____ _____    ______ ____

>  <TORSDO>
F 10

$$$$
=
 OpenBabel10232409553D

 34 36  0  0  1  0  0  0  0  0999 V2000
  190.5270  177.4730  141.7300 C   0  0  0  0  0  0  0  0  0  0  0  0
  191.2500  178.0550  142.7070 C   0  0  0  0  0  3  0  0  0  0  0  0
  190.4950  176.5340  139.3970 C   0  0  0  0  0  3  0  0  0  0  0  0
  193.2460  176.9270  139.1270 C   0  0  0  0  0  3  0  0  0  0  0  0
  191.1380  176.1780  138.2090 C   0  0  0  0  0  3  0  0  0  0  0  0
  191.2160  177.0900  140.4670 C   0  0  0  0  0  0  0  0  0  0  0  0
  192.6020  177.2820  140.3150 C   0  0  0  0  0  3  0  0  0  0  0  0
  192.5130  176.3790  138.0710 C   0  0  0  0  0  0  0  0  0  0  0  0
  193.2030  175.9730  136.8140 C   0  0  0  0  0  2  0  0  0  0  0  0
  194.1990  173.8440  137.6450 C   0  0  0  0  0  3  0  0  0  0  0  0
  196.2600  174.2870  137.3820 C   0  0  0  0  0  3  0  0  0  0  0  0
  195.5770  175.3650  136.9500 N   0  0  0  0  0  0  0  0  0  0  0  0
  195.4270  173.3180  137.8220 N   0  0  0  0  0  0  0  0  0  0  0  0
  194.3020  175.0700  137.1130 N   0  0  0  0  0  0  0  0  0  0  0  0
  188.6390  176.1450  142.3100 O   0  0  0  0  0  0  0  0  0  0  0  0
  189.0700  177.2430  141.8650 C   0  0  0  0  0  0  0  0  0  0  0  0
  188.1510  178.2820  141.5280 N   0  0  0  0  0  2  0  0  0  0  0  0
  186.7710  178.0940  141.6540 N   0  0  0  0  0  0  0  0  0  0  0  0
  186.1800  178.3710  142.7670 C   0  0  0  0  0  3  0  0  0  0  0  0
  184.2710  178.7110  144.2500 C   0  0  0  0  0  2  0  0  0  0  0  0
  184.2350  178.2330  140.5640 F   0  0  0  0  0  0  0  0  0  0  0  0
  183.9430  178.8520  141.7650 C   0  0  2  0  0  3  0  0  0  0  0  0
  182.1260  179.3050  143.3400 N   0  0  0  0  0  0  0  0  0  0  0  0
  183.0480  179.2150  144.4330 C   0  0  0  0  0  3  0  0  0  0  0  0
  184.7080  178.1780  142.9130 C   0  0  1  0  0  3  0  0  0  0  0  0
  182.4430  178.7490  142.0280 C   0  0  0  0  0  2  0  0  0  0  0  0
  190.8610  179.6270  144.4610 O   0  0  0  0  0  0  0  0  0  0  0  0
  190.8050  178.4320  144.0620 C   0  0  0  0  0  0  0  0  0  0  0  0
  190.2640  177.4390  144.8820 O   0  0  0  0  0  0  0  0  0  0  0  0
  189.3220  177.7270  145.9090 C   0  0  1  0  0  3  0  0  0  0  0  0
  187.9290  177.2940  145.4820 C   0  0  0  0  0  1  0  0  0  0  0  0
  188.8390  176.7340  148.0300 O   0  0  0  0  0  0  0  0  0  0  0  0
  191.0720  176.6990  147.4010 N   0  0  0  0  0  1  0  0  0  0  0  0
  189.7080  177.0230  147.1660 C   0  0  0  0  0  0  0  0  0  0  0  0
  1 16  1  0  0  0  0
  1  2  2  0  0  0  0
  2 28  1  0  0  0  0
  3  6  1  0  0  0  0
  4  7  1  0  0  0  0
  5  3  2  0  0  0  0
  6  1  1  0  0  0  0
  7  6  2  0  0  0  0
  8  5  1  0  0  0  0
  8  4  2  0  0  0  0
  9 14  1  0  0  0  0
  9  8  1  0  0  0  0
 10 13  2  0  0  0  0
 11 13  1  0  0  0  0
 12 14  1  0  0  0  0
 12 11  2  0  0  0  0
 14 10  1  0  0  0  0
 16 15  2  0  0  0  0
 17 18  1  0  0  0  0
 17 16  1  0  0  0  0
 18 19  2  0  0  0  0
 20 24  1  0  0  0  0
 22 21  1  6  0  0  0
 22 26  1  0  0  0  0
 22 25  1  0  0  0  0
 23 24  2  0  0  0  0
 25 19  1  6  0  0  0
 25 20  1  0  0  0  0
 26 23  1  0  0  0  0
 28 27  2  0  0  0  0
 28 29  1  0  0  0  0
 29 30  1  0  0  0  0
 30 31  1  6  0  0  0
 30 34  1  0  0  0  0
 34 33  1  0  0  0  0
 34 32  2  0  0  0  0
M  END
>  <MODEL>
6

>  <REMARK>
 VINA RESULT:      -7.6      2.427      9.023
  Name = 
  10 active torsions:
  status: ('A' for Active; 'I' for Inactive)
    1  A    between atoms: N_7  and  N_24
    2  A    between atoms: C_12  and  C_18
    3  A    between atoms: O_13  and  C_17
    4  A    between atoms: O_13  and  C_33
    5  A    between atoms: C_16  and  C_30
    6  A    between atoms: C_17  and  C_27
    7  A    between atoms: C_18  and  C_19
    8  A    between atoms: C_25  and  C_28
    9  A    between atoms: C_28  and  N_34
   10  A    between atoms: C_32  and  C_33
                            x       y       z     vdW  Elec       q    Type
                         _______ _______ _______ _____ _____    ______ ____

>  <TORSDO>
F 10

$$$$
=
 OpenBabel10232409553D

 34 36  0  0  1  0  0  0  0  0999 V2000
  188.9480  177.2010  138.2770 C   0  0  0  0  0  0  0  0  0  0  0  0
  187.8670  176.9160  137.5260 C   0  0  0  0  0  3  0  0  0  0  0  0
  190.4370  176.2050  136.5120 C   0  0  0  0  0  3  0  0  0  0  0  0
  192.6870  176.5130  138.1380 C   0  0  0  0  0  3  0  0  0  0  0  0
  191.6930  175.8020  136.0510 C   0  0  0  0  0  3  0  0  0  0  0  0
  190.2870  176.7660  137.7910 C   0  0  0  0  0  0  0  0  0  0  0  0
  191.4300  176.9160  138.5970 C   0  0  0  0  0  3  0  0  0  0  0  0
  192.8200  175.9600  136.8610 C   0  0  0  0  0  0  0  0  0  0  0  0
  194.1540  175.5040  136.3800 C   0  0  0  0  0  2  0  0  0  0  0  0
  194.4190  173.4200  137.7220 C   0  0  0  0  0  3  0  0  0  0  0  0
  196.0520  173.9940  138.9540 C   0  0  0  0  0  3  0  0  0  0  0  0
  195.7980  175.0380  138.1420 N   0  0  0  0  0  0  0  0  0  0  0  0
  195.2080  172.9660  138.7150 N   0  0  0  0  0  0  0  0  0  0  0  0
  194.7880  174.6620  137.3800 N   0  0  0  0  0  0  0  0  0  0  0  0
  188.8430  179.1540  139.6330 O   0  0  0  0  0  0  0  0  0  0  0  0
  188.8360  177.8940  139.5820 C   0  0  0  0  0  0  0  0  0  0  0  0
  188.6770  177.1350  140.7800 N   0  0  0  0  0  2  0  0  0  0  0  0
  188.5600  177.7660  142.0230 N   0  0  0  0  0  0  0  0  0  0  0  0
  188.3190  177.0680  143.0820 C   0  0  0  0  0  3  0  0  0  0  0  0
  186.7520  177.7250  144.8340 C   0  0  0  0  0  3  0  0  0  0  0  0
  190.4200  177.2000  145.1380 F   0  0  0  0  0  0  0  0  0  0  0  0
  189.0840  177.0380  145.4590 C   0  0  2  0  0  3  0  0  0  0  0  0
  187.4000  177.5900  147.1450 N   0  0  0  0  0  2  0  0  0  0  0  0
  186.4020  177.6820  146.1210 C   0  0  0  0  0  3  0  0  0  0  0  0
  188.1970  177.7280  144.4140 C   0  0  1  0  0  3  0  0  0  0  0  0
  188.8240  177.6560  146.8300 C   0  0  0  0  0  2  0  0  0  0  0  0
  185.5070  176.6770  137.2600 O   0  0  0  0  0  0  0  0  0  0  0  0
  186.4680  177.3220  137.7590 C   0  0  0  0  0  0  0  0  0  0  0  0
  186.2260  178.4130  138.5970 O   0  0  0  0  0  0  0  0  0  0  0  0
  185.0890  178.4830  139.4500 C   0  0  1  0  0  3  0  0  0  0  0  0
  185.4930  178.9880  140.8260 C   0  0  0  0  0  1  0  0  0  0  0  0
  184.2440  180.6370  138.8460 O   0  0  0  0  0  0  0  0  0  0  0  0
  182.8620  178.8460  138.3290 N   0  0  0  0  0  1  0  0  0  0  0  0
  184.0640  179.3910  138.8590 C   0  0  0  0  0  0  0  0  0  0  0  0
  1 16  1  0  0  0  0
  2 28  1  0  0  0  0
  2  1  2  0  0  0  0
  3  6  1  0  0  0  0
  4  7  1  0  0  0  0
  5  3  2  0  0  0  0
  5  8  1  0  0  0  0
  6  1  1  0  0  0  0
  6  7  2  0  0  0  0
  8  4  2  0  0  0  0
  9  8  1  0  0  0  0
  9 14  1  0  0  0  0
 10 13  2  0  0  0  0
 12 11  2  0  0  0  0
 13 11  1  0  0  0  0
 14 10  1  0  0  0  0
 14 12  1  0  0  0  0
 16 15  2  0  0  0  0
 16 17  1  0  0  0  0
 17 18  1  0  0  0  0
 18 19  2  0  0  0  0
 20 24  2  0  0  0  0
 22 21  1  6  0  0  0
 22 26  1  0  0  0  0
 24 23  1  0  0  0  0
 25 19  1  6  0  0  0
 25 20  1  0  0  0  0
 25 22  1  0  0  0  0
 26 23  1  0  0  0  0
 27 28  2  0  0  0  0
 28 29  1  0  0  0  0
 29 30  1  0  0  0  0
 30 31  1  1  0  0  0
 32 34  2  0  0  0  0
 33 34  1  0  0  0  0
 34 30  1  0  0  0  0
M  END
>  <MODEL>
7

>  <REMARK>
 VINA RESULT:      -7.5      3.491      9.992
  Name = 
  10 active torsions:
  status: ('A' for Active; 'I' for Inactive)
    1  A    between atoms: N_7  and  N_24
    2  A    between atoms: C_12  and  C_18
    3  A    between atoms: O_13  and  C_17
    4  A    between atoms: O_13  and  C_33
    5  A    between atoms: C_16  and  C_30
    6  A    between atoms: C_17  and  C_27
    7  A    between atoms: C_18  and  C_19
    8  A    between atoms: C_25  and  C_28
    9  A    between atoms: C_28  and  N_34
   10  A    between atoms: C_32  and  C_33
                            x       y       z     vdW  Elec       q    Type
                         _______ _______ _______ _____ _____    ______ ____

>  <TORSDO>
F 10

$$$$
=
 OpenBabel10232409553D

 34 36  0  0  1  0  0  0  0  0999 V2000
  190.0000  177.5140  141.0120 C   0  0  0  0  0  0  0  0  0  0  0  0
  188.8960  178.1860  140.6330 C   0  0  0  0  0  3  0  0  0  0  0  0
  190.8030  176.1500  142.9670 C   0  0  0  0  0  3  0  0  0  0  0  0
  190.2560  178.2390  144.7380 C   0  0  0  0  0  3  0  0  0  0  0  0
  191.0610  175.9950  144.3310 C   0  0  0  0  0  3  0  0  0  0  0  0
  190.2680  177.3500  142.4680 C   0  0  0  0  0  0  0  0  0  0  0  0
  189.9990  178.3930  143.3730 C   0  0  0  0  0  3  0  0  0  0  0  0
  190.7920  177.0410  145.2170 C   0  0  0  0  0  0  0  0  0  0  0  0
  191.0410  176.8650  146.6760 C   0  0  0  0  0  2  0  0  0  0  0  0
  188.7000  176.5500  147.4740 C   0  0  0  0  0  3  0  0  0  0  0  0
  188.4860  178.3040  148.6540 C   0  0  0  0  0  3  0  0  0  0  0  0
  189.7380  178.3250  148.1570 N   0  0  0  0  0  0  0  0  0  0  0  0
  187.8110  177.2060  148.2450 N   0  0  0  0  0  0  0  0  0  0  0  0
  189.8560  177.2280  147.4350 N   0  0  0  0  0  0  0  0  0  0  0  0
  192.1200  177.4720  139.9300 O   0  0  0  0  0  0  0  0  0  0  0  0
  190.9660  176.9730  140.0270 C   0  0  0  0  0  0  0  0  0  0  0  0
  190.6030  175.8570  139.2140 N   0  0  0  0  0  2  0  0  0  0  0  0
  191.4990  175.3220  138.2830 N   0  0  0  0  0  0  0  0  0  0  0  0
  191.3920  175.6270  137.0340 C   0  0  0  0  0  3  0  0  0  0  0  0
  193.6550  175.7970  136.1340 C   0  0  0  0  0  2  0  0  0  0  0  0
  191.3460  172.8880  135.9600 F   0  0  0  0  0  0  0  0  0  0  0  0
  192.5280  173.5550  136.2260 C   0  0  2  0  0  3  0  0  0  0  0  0
  194.8390  173.8140  135.4650 N   0  0  0  0  0  0  0  0  0  0  0  0
  194.8100  175.1960  135.8430 C   0  0  0  0  0  3  0  0  0  0  0  0
  192.3430  175.0660  136.0310 C   0  0  1  0  0  3  0  0  0  0  0  0
  193.6090  173.0510  135.2740 C   0  0  0  0  0  2  0  0  0  0  0  0
  188.9720  179.1590  138.4540 O   0  0  0  0  0  0  0  0  0  0  0  0
  188.3850  178.3910  139.2640 C   0  0  0  0  0  0  0  0  0  0  0  0
  187.2600  177.6690  138.8620 O   0  0  0  0  0  0  0  0  0  0  0  0
  186.3130  178.1840  137.9320 C   0  0  1  0  0  3  0  0  0  0  0  0
  186.1550  177.2310  136.7590 C   0  0  0  0  0  1  0  0  0  0  0  0
  184.0770  177.5320  138.4760 O   0  0  0  0  0  0  0  0  0  0  0  0
  184.7680  179.5570  139.3740 N   0  0  0  0  0  1  0  0  0  0  0  0
  184.9960  178.3830  138.6040 C   0  0  0  0  0  0  0  0  0  0  0  0
  1  6  1  0  0  0  0
  2  1  2  0  0  0  0
  3  5  1  0  0  0  0
  4  8  1  0  0  0  0
  5  8  2  0  0  0  0
  6  3  2  0  0  0  0
  6  7  1  0  0  0  0
  7  4  2  0  0  0  0
  8  9  1  0  0  0  0
  9 14  1  0  0  0  0
 10 13  2  0  0  0  0
 12 11  2  0  0  0  0
 13 11  1  0  0  0  0
 14 10  1  0  0  0  0
 14 12  1  0  0  0  0
 15 16  2  0  0  0  0
 16  1  1  0  0  0  0
 17 16  1  0  0  0  0
 18 17  1  0  0  0  0
 19 18  2  0  0  0  0
 22 21  1  6  0  0  0
 23 24  2  0  0  0  0
 24 20  1  0  0  0  0
 25 20  1  0  0  0  0
 25 22  1  0  0  0  0
 25 19  1  1  0  0  0
 26 23  1  0  0  0  0
 26 22  1  0  0  0  0
 27 28  2  0  0  0  0
 28  2  1  0  0  0  0
 29 28  1  0  0  0  0
 30 31  1  6  0  0  0
 30 34  1  0  0  0  0
 30 29  1  0  0  0  0
 32 34  2  0  0  0  0
 34 33  1  0  0  0  0
M  END
>  <MODEL>
8

>  <REMARK>
 VINA RESULT:      -7.5      4.211      7.602
  Name = 
  10 active torsions:
  status: ('A' for Active; 'I' for Inactive)
    1  A    between atoms: N_7  and  N_24
    2  A    between atoms: C_12  and  C_18
    3  A    between atoms: O_13  and  C_17
    4  A    between atoms: O_13  and  C_33
    5  A    between atoms: C_16  and  C_30
    6  A    between atoms: C_17  and  C_27
    7  A    between atoms: C_18  and  C_19
    8  A    between atoms: C_25  and  C_28
    9  A    between atoms: C_28  and  N_34
   10  A    between atoms: C_32  and  C_33
                            x       y       z     vdW  Elec       q    Type
                         _______ _______ _______ _____ _____    ______ ____

>  <TORSDO>
F 10

$$$$
=
 OpenBabel10232409553D

 34 36  0  0  1  0  0  0  0  0999 V2000
  188.9720  177.7020  142.8680 C   0  0  0  0  0  0  0  0  0  0  0  0
  189.4250  178.0700  144.0810 C   0  0  0  0  0  3  0  0  0  0  0  0
  186.5220  177.7090  143.4380 C   0  0  0  0  0  3  0  0  0  0  0  0
  185.8770  178.8170  140.9580 C   0  0  0  0  0  3  0  0  0  0  0  0
  185.1890  177.9800  143.1200 C   0  0  0  0  0  3  0  0  0  0  0  0
  187.5510  177.9860  142.5230 C   0  0  0  0  0  0  0  0  0  0  0  0
  187.2090  178.5460  141.2780 C   0  0  0  0  0  3  0  0  0  0  0  0
  184.8650  178.5390  141.8820 C   0  0  0  0  0  0  0  0  0  0  0  0
  183.4410  178.8010  141.5310 C   0  0  0  0  0  2  0  0  0  0  0  0
  182.9450  178.9130  139.0900 C   0  0  0  0  0  3  0  0  0  0  0  0
  182.6300  176.8500  138.6950 C   0  0  0  0  0  3  0  0  0  0  0  0
  182.9310  176.9480  140.0040 N   0  0  0  0  0  0  0  0  0  0  0  0
  182.6310  178.0610  138.0950 N   0  0  0  0  0  0  0  0  0  0  0  0
  183.1310  178.2330  140.2300 N   0  0  0  0  0  0  0  0  0  0  0  0
  190.0920  175.7700  142.0450 O   0  0  0  0  0  0  0  0  0  0  0  0
  189.8310  176.9940  141.8910 C   0  0  0  0  0  0  0  0  0  0  0  0
  190.3330  177.6890  140.7500 N   0  0  0  0  0  2  0  0  0  0  0  0
  191.1400  177.0410  139.8080 N   0  0  0  0  0  0  0  0  0  0  0  0
  190.6320  176.6350  138.6930 C   0  0  0  0  0  3  0  0  0  0  0  0
  192.9310  176.1410  138.0370 C   0  0  0  0  0  2  0  0  0  0  0  0
  189.8440  174.3030  137.0810 F   0  0  0  0  0  0  0  0  0  0  0  0
  191.1270  174.4570  137.5740 C   0  0  2  0  0  3  0  0  0  0  0  0
  193.4790  174.0070  137.0750 N   0  0  0  0  0  0  0  0  0  0  0  0
  193.8530  175.2280  137.7240 C   0  0  0  0  0  3  0  0  0  0  0  0
  191.4830  175.9470  137.6790 C   0  0  1  0  0  3  0  0  0  0  0  0
  192.1090  173.7680  136.6310 C   0  0  0  0  0  2  0  0  0  0  0  0
  191.6610  178.8630  144.3460 O   0  0  0  0  0  0  0  0  0  0  0  0
  190.8020  177.9760  144.6010 C   0  0  0  0  0  0  0  0  0  0  0  0
  191.1240  176.9030  145.4360 O   0  0  0  0  0  0  0  0  0  0  0  0
  191.1100  177.0080  146.8550 C   0  0  1  0  0  3  0  0  0  0  0  0
  189.7530  176.5910  147.4000 C   0  0  0  0  0  1  0  0  0  0  0  0
  192.6930  176.4340  148.5530 O   0  0  0  0  0  0  0  0  0  0  0  0
  192.6350  175.0070  146.7240 N   0  0  0  0  0  1  0  0  0  0  0  0
  192.1770  176.1470  147.4400 C   0  0  0  0  0  0  0  0  0  0  0  0
  1  2  2  0  0  0  0
  2 28  1  0  0  0  0
  4  7  2  0  0  0  0
  4  8  1  0  0  0  0
  5  3  1  0  0  0  0
  6  1  1  0  0  0  0
  6  3  2  0  0  0  0
  7  6  1  0  0  0  0
  8  5  2  0  0  0  0
  9  8  1  0  0  0  0
 10 14  1  0  0  0  0
 11 12  2  0  0  0  0
 12 14  1  0  0  0  0
 13 11  1  0  0  0  0
 13 10  2  0  0  0  0
 14  9  1  0  0  0  0
 16 15  2  0  0  0  0
 16  1  1  0  0  0  0
 17 16  1  0  0  0  0
 18 17  1  0  0  0  0
 19 18  2  0  0  0  0
 22 21  1  6  0  0  0
 22 25  1  0  0  0  0
 23 24  2  0  0  0  0
 24 20  1  0  0  0  0
 25 20  1  0  0  0  0
 25 19  1  1  0  0  0
 26 23  1  0  0  0  0
 26 22  1  0  0  0  0
 27 28  2  0  0  0  0
 28 29  1  0  0  0  0
 29 30  1  0  0  0  0
 30 31  1  1  0  0  0
 30 34  1  0  0  0  0
 33 34  1  0  0  0  0
 34 32  2  0  0  0  0
M  END
>  <MODEL>
9

>  <REMARK>
 VINA RESULT:      -7.5      2.290      3.049
  Name = 
  10 active torsions:
  status: ('A' for Active; 'I' for Inactive)
    1  A    between atoms: N_7  and  N_24
    2  A    between atoms: C_12  and  C_18
    3  A    between atoms: O_13  and  C_17
    4  A    between atoms: O_13  and  C_33
    5  A    between atoms: C_16  and  C_30
    6  A    between atoms: C_17  and  C_27
    7  A    between atoms: C_18  and  C_19
    8  A    between atoms: C_25  and  C_28
    9  A    between atoms: C_28  and  N_34
   10  A    between atoms: C_32  and  C_33
                            x       y       z     vdW  Elec       q    Type
                         _______ _______ _______ _____ _____    ______ ____

>  <TORSDO>
F 10

$$$$
