=
 OpenBabel10232407453D

 63 70  0  0  1  0  0  0  0  0999 V2000
  185.2960  179.0490  141.9590 N   0  0  0  0  0  0  0  0  0  0  0  0
  183.6250  177.6590  140.6400 C   0  0  2  0  0  3  0  0  0  0  0  0
  184.0230  179.0160  141.2240 C   0  0  2  0  0  3  0  0  0  0  0  0
  183.8410  178.1960  139.2410 C   0  0  1  0  0  3  0  0  0  0  0  0
  182.4380  177.8630  139.7130 C   0  0  1  0  0  3  0  0  0  0  0  0
  184.2490  179.5420  139.8200 C   0  0  0  0  0  2  0  0  0  0  0  0
  181.9250  176.5720  139.0570 C   0  0  2  0  0  3  0  0  0  0  0  0
  180.8070  176.1180  139.7650 O   0  0  0  0  0  1  0  0  0  0  0  0
  182.8950  175.5530  139.0000 O   0  0  0  0  0  0  0  0  0  0  0  0
  183.1550  175.3650  137.6370 C   0  0  1  0  0  3  0  0  0  0  0  0
  184.6400  175.0120  137.4410 C   0  0  0  0  0  2  0  0  0  0  0  0
  182.3210  172.0130  136.6090 N   0  0  0  0  0  0  0  0  0  0  0  0
  182.3890  174.2000  137.1340 C   0  0  0  0  0  0  0  0  0  0  0  0
  183.0630  173.2240  136.6020 C   0  0  0  0  0  0  0  0  0  0  0  0
  184.8260  173.4020  136.5540 S   0  0  0  0  0  0  0  0  0  0  0  0
  180.0530  171.6290  137.4260 C   0  0  0  0  0  1  0  0  0  0  0  0
  181.0690  173.8200  137.5100 N   0  0  0  0  0  0  0  0  0  0  0  0
  181.0510  172.4500  137.1070 C   0  0  0  0  0  0  0  0  0  0  0  0
  182.5700  170.9120  135.6880 C   0  0  0  0  0  2  0  0  0  0  0  0
  183.5400  170.0560  136.2020 O   0  0  0  0  0  1  0  0  0  0  0  0
  185.0070  179.6340  143.2580 C   0  0  0  0  0  2  0  0  0  0  0  0
  183.5100  179.6090  143.5160 C   0  0  0  0  0  2  0  0  0  0  0  0
  183.2390  178.9860  144.8730 C   0  0  0  0  0  2  0  0  0  0  0  0
  184.4490  178.2770  145.4050 C   0  0  0  0  0  3  0  0  0  0  0  0
  184.8870  178.4620  146.6490 C   0  0  0  0  0  3  0  0  0  0  0  0
  186.0850  177.7010  147.1190 C   0  0  0  0  0  2  0  0  0  0  0  0
  187.3580  178.4450  146.7650 C   0  0  2  0  0  3  0  0  0  0  0  0
  188.4890  177.4830  146.7440 C   0  0  2  0  0  3  0  0  0  0  0  0
  188.2750  178.3480  147.8320 O   0  0  0  0  0  0  0  0  0  0  0  0
  189.6750  177.9400  145.8880 C   0  0  0  0  0  2  0  0  0  0  0  0
  190.6160  176.8410  145.3890 C   0  0  0  0  0  2  0  0  0  0  0  0
  191.9210  176.9780  146.0200 N   0  0  0  0  0  2  0  0  0  0  0  0
  192.3140  175.6440  146.4460 C   0  0  0  0  0  2  0  0  0  0  0  0
  191.8800  175.4310  147.8770 C   0  0  0  0  0  1  0  0  0  0  0  0
  185.8580  177.7240  142.2350 C   0  0  0  0  0  2  0  0  0  0  0  0
  188.1970  176.9000  142.5830 C   0  0  0  0  0  3  0  0  0  0  0  0
  189.1050  178.3570  140.3660 C   0  0  0  0  0  3  0  0  0  0  0  0
  187.3010  177.6930  141.8500 C   0  0  0  0  0  0  0  0  0  0  0  0
  187.7650  178.4300  140.7490 C   0  0  0  0  0  3  0  0  0  0  0  0
  189.5430  176.8280  142.2020 C   0  0  0  0  0  3  0  0  0  0  0  0
  189.9960  177.5540  141.0910 C   0  0  0  0  0  0  0  0  0  0  0  0
  191.4000  177.3940  140.6100 C   0  0  0  0  0  2  0  0  0  0  0  0
  191.4460  176.7840  139.2890 N   0  0  0  0  0  0  0  0  0  0  0  0
  190.2260  176.1620  138.7770 C   0  0  0  0  0  2  0  0  0  0  0  0
  191.6700  174.4560  137.8940 O   0  0  0  0  0  0  0  0  0  0  0  0
  190.5390  175.2330  137.5860 C   0  0  0  0  0  2  0  0  0  0  0  0
  193.7250  177.1930  138.9250 O   0  0  0  0  0  0  0  0  0  0  0  0
  192.7120  176.4710  138.6930 C   0  0  0  0  0  0  0  0  0  0  0  0
  192.8020  175.2920  137.7460 C   0  0  1  0  0  3  0  0  0  0  0  0
  194.0630  174.4890  138.0780 C   0  0  0  0  0  2  0  0  0  0  0  0
  194.8870  175.6340  136.0500 N   0  0  0  0  0  0  0  0  0  0  0  0
  197.4690  175.5040  136.7980 O   0  0  0  0  0  0  0  0  0  0  0  0
  197.2380  175.4040  135.4730 O   0  0  0  0  0  0  0  0  0  0  0  0
  195.2160  174.5880  137.0520 C   0  0  1  0  0  0  0  0  0  0  0  0
  196.7410  174.9450  138.9140 O   0  0  0  0  0  0  0  0  0  0  0  0
  193.9010  175.1890  135.2200 O   0  0  0  0  0  1  0  0  0  0  0  0
  196.0250  176.0870  135.2070 C   0  0  0  0  0  2  0  0  0  0  0  0
  196.5250  174.9850  137.6760 C   0  0  0  0  0  0  0  0  0  0  0  0
  195.3640  173.2080  136.3600 C   0  0  0  0  0  2  0  0  0  0  0  0
  196.1730  172.1880  137.1180 C   0  0  0  0  0  0  0  0  0  0  0  0
  195.7530  171.7130  138.2100 O   0  0  0  0  0  0  0  0  0  0  0  0
  198.5530  172.0000  137.0630 C   0  0  0  0  0  2  0  0  0  0  0  0
  197.3970  171.7210  136.5530 N   0  0  0  0  0  0  0  0  0  0  0  0
  1 35  1  0  0  0  0
  1 21  1  0  0  0  0
  2  3  1  0  0  0  0
  3  1  1  0  0  0  0
  4  5  1  0  0  0  0
  4  6  1  0  0  0  0
  4  2  1  0  0  0  0
  5  2  1  0  0  0  0
  6  3  1  0  0  0  0
  7  5  1  0  0  0  0
  7  8  1  0  0  0  0
  9  7  1  0  0  0  0
 10  9  1  0  0  0  0
 11 10  1  0  0  0  0
 12 18  1  0  0  0  0
 13 17  1  0  0  0  0
 13 10  1  0  0  0  0
 14 12  1  0  0  0  0
 14 13  2  0  0  0  0
 15 14  1  0  0  0  0
 15 11  1  0  0  0  0
 18 16  1  0  0  0  0
 18 17  2  0  0  0  0
 19 20  1  0  0  0  0
 19 12  1  0  0  0  0
 21 22  1  0  0  0  0
 22 23  1  0  0  0  0
 23 24  1  0  0  0  0
 24 25  2  0  0  0  0
 25 26  1  0  0  0  0
 27 26  1  0  0  0  0
 27 29  1  0  0  0  0
 28 27  1  0  0  0  0
 28 29  1  0  0  0  0
 30 28  1  0  0  0  0
 31 30  1  0  0  0  0
 31 32  1  0  0  0  0
 32 33  1  0  0  0  0
 33 34  1  0  0  0  0
 37 39  2  0  0  0  0
 37 41  1  0  0  0  0
 38 35  1  0  0  0  0
 38 36  2  0  0  0  0
 39 38  1  0  0  0  0
 40 36  1  0  0  0  0
 41 40  2  0  0  0  0
 42 41  1  0  0  0  0
 43 42  1  0  0  0  0
 44 43  1  0  0  0  0
 46 45  1  0  0  0  0
 46 44  1  0  0  0  0
 48 47  2  0  0  0  0
 48 43  1  0  0  0  0
 49 45  1  0  0  0  0
 49 50  1  0  0  0  0
 49 48  1  0  0  0  0
 51 54  1  0  0  0  0
 52 58  1  0  0  0  0
 53 52  1  0  0  0  0
 54 58  1  0  0  0  0
 54 50  1  0  0  0  0
 56 51  1  0  0  0  0
 57 53  1  0  0  0  0
 57 51  1  0  0  0  0
 58 55  2  0  0  0  0
 59 54  1  0  0  0  0
 59 60  1  0  0  0  0
 60 61  2  0  0  0  0
 63 62  2  0  0  0  0
 63 60  1  0  0  0  0
M  END
>  <MODEL>
1

>  <REMARK>
 VINA RESULT:      -7.2      0.000      0.000
  Name = 
  24 active torsions:
  status: ('A' for Active; 'I' for Inactive)
    1  A    between atoms: C_1  and  N_27
    2  A    between atoms: C_1  and  C_48
    3  A    between atoms: C_2  and  N_14
    4  A    between atoms: C_2  and  C_57
    5  A    between atoms: C_3  and  C_4
    6  A    between atoms: C_3  and  N_26
    7  A    between atoms: C_4  and  C_34
    8  A    between atoms: N_6  and  C_12
    9  A    between atoms: N_6  and  C_17
   10  A    between atoms: N_6  and  C_45
   11  A    between atoms: C_7  and  C_56
   12  A    between atoms: C_10  and  O_47
   13  A    between atoms: C_12  and  C_31
   14  A    between atoms: C_13  and  C_25
   15  A    between atoms: C_13  and  C_61
   16  A    between atoms: C_15  and  C_39
   17  A    between atoms: C_15  and  O_47
   18  A    between atoms: N_21  and  C_32
   19  A    between atoms: C_22  and  C_29
   20  A    between atoms: C_23  and  C_29
   21  A    between atoms: C_23  and  C_45
   22  A    between atoms: C_25  and  C_48
   23  A    between atoms: N_26  and  C_43
   24  A    between atoms: C_56  and  C_59
                            x       y       z     vdW  Elec       q    Type
                         _______ _______ _______ _____ _____    ______ ____

>  <TORSDO>
F 24

$$$$
=
 OpenBabel10232407453D

 63 70  0  0  1  0  0  0  0  0999 V2000
  185.7430  179.1200  140.8880 N   0  0  0  0  0  0  0  0  0  0  0  0
  184.1630  178.5550  138.9790 C   0  0  2  0  0  3  0  0  0  0  0  0
  184.6520  178.2650  140.3980 C   0  0  2  0  0  3  0  0  0  0  0  0
  182.8470  179.0570  139.5340 C   0  0  1  0  0  3  0  0  0  0  0  0
  182.8860  177.7650  138.7380 C   0  0  1  0  0  3  0  0  0  0  0  0
  183.3370  178.7800  140.9470 C   0  0  0  0  0  2  0  0  0  0  0  0
  182.2830  177.9590  137.3380 C   0  0  2  0  0  3  0  0  0  0  0  0
  180.9550  178.3800  137.4720 O   0  0  0  0  0  1  0  0  0  0  0  0
  182.3340  176.7960  136.5450 O   0  0  0  0  0  0  0  0  0  0  0  0
  181.6980  175.8040  137.3010 C   0  0  1  0  0  3  0  0  0  0  0  0
  180.4990  175.2480  136.5110 C   0  0  0  0  0  2  0  0  0  0  0  0
  183.3260  172.6150  136.8910 N   0  0  0  0  0  0  0  0  0  0  0  0
  182.6160  174.6600  137.5080 C   0  0  0  0  0  0  0  0  0  0  0  0
  182.2270  173.4940  137.0840 C   0  0  0  0  0  0  0  0  0  0  0  0
  180.6420  173.4190  136.2950 S   0  0  0  0  0  0  0  0  0  0  0  0
  185.6960  173.0410  137.2920 C   0  0  0  0  0  1  0  0  0  0  0  0
  184.0200  174.7240  137.7380 N   0  0  0  0  0  0  0  0  0  0  0  0
  184.4170  173.3960  137.3920 C   0  0  0  0  0  0  0  0  0  0  0  0
  183.2070  171.1640  136.9070 C   0  0  0  0  0  2  0  0  0  0  0  0
  183.7250  170.6200  135.7340 O   0  0  0  0  0  1  0  0  0  0  0  0
  185.3600  179.5540  142.2220 C   0  0  0  0  0  2  0  0  0  0  0  0
  185.8090  178.5290  143.2490 C   0  0  0  0  0  2  0  0  0  0  0  0
  185.2490  178.8970  144.6110 C   0  0  0  0  0  2  0  0  0  0  0  0
  186.2340  178.6130  145.7070 C   0  0  0  0  0  3  0  0  0  0  0  0
  185.8700  178.0440  146.8550 C   0  0  0  0  0  3  0  0  0  0  0  0
  186.9110  177.7690  147.8910 C   0  0  0  0  0  2  0  0  0  0  0  0
  188.2770  178.2050  147.3990 C   0  0  2  0  0  3  0  0  0  0  0  0
  189.1990  177.0410  147.4410 C   0  0  2  0  0  3  0  0  0  0  0  0
  189.2260  178.0420  148.4290 O   0  0  0  0  0  0  0  0  0  0  0  0
  190.3930  177.1610  146.4880 C   0  0  0  0  0  2  0  0  0  0  0  0
  190.1980  178.0550  145.2630 C   0  0  0  0  0  2  0  0  0  0  0  0
  190.8000  177.4350  144.0910 N   0  0  0  0  0  2  0  0  0  0  0  0
  189.7320  177.2720  143.1170 C   0  0  0  0  0  2  0  0  0  0  0  0
  189.4890  175.7990  142.8880 C   0  0  0  0  0  1  0  0  0  0  0  0
  187.0210  178.4200  141.0490 C   0  0  0  0  0  2  0  0  0  0  0  0
  189.0290  177.9890  139.6170 C   0  0  0  0  0  3  0  0  0  0  0  0
  187.4360  177.8580  137.3140 C   0  0  0  0  0  3  0  0  0  0  0  0
  187.6430  178.1830  139.7110 C   0  0  0  0  0  0  0  0  0  0  0  0
  186.8530  178.1290  138.5540 C   0  0  0  0  0  3  0  0  0  0  0  0
  189.6170  177.7200  138.3750 C   0  0  0  0  0  3  0  0  0  0  0  0
  188.8190  177.6510  137.2240 C   0  0  0  0  0  0  0  0  0  0  0  0
  189.4180  177.2520  135.9160 C   0  0  0  0  0  2  0  0  0  0  0  0
  189.8520  175.8630  135.9280 N   0  0  0  0  0  0  0  0  0  0  0  0
  188.8840  174.8450  136.3310 C   0  0  0  0  0  2  0  0  0  0  0  0
  190.7230  173.7930  137.4660 O   0  0  0  0  0  0  0  0  0  0  0  0
  189.5920  173.5180  136.6770 C   0  0  0  0  0  2  0  0  0  0  0  0
  192.0700  176.3090  135.3160 O   0  0  0  0  0  0  0  0  0  0  0  0
  191.2520  175.5540  135.9180 C   0  0  0  0  0  0  0  0  0  0  0  0
  191.7250  174.2880  136.6000 C   0  0  1  0  0  3  0  0  0  0  0  0
  192.9790  174.6070  137.4180 C   0  0  0  0  0  2  0  0  0  0  0  0
  193.9640  172.9100  135.9180 N   0  0  0  0  0  0  0  0  0  0  0  0
  196.1910  174.3460  135.4470 O   0  0  0  0  0  0  0  0  0  0  0  0
  196.3540  173.0080  135.4810 O   0  0  0  0  0  0  0  0  0  0  0  0
  194.2900  173.9460  136.9320 C   0  0  1  0  0  0  0  0  0  0  0  0
  195.1120  176.1660  136.3660 O   0  0  0  0  0  0  0  0  0  0  0  0
  193.3930  171.8300  136.5230 O   0  0  0  0  0  1  0  0  0  0  0  0
  195.1160  172.4260  135.1120 C   0  0  0  0  0  2  0  0  0  0  0  0
  195.2280  174.9170  136.2690 C   0  0  0  0  0  0  0  0  0  0  0  0
  194.9860  173.2990  138.1570 C   0  0  0  0  0  2  0  0  0  0  0  0
  195.9800  174.1770  138.8730 C   0  0  0  0  0  0  0  0  0  0  0  0
  195.5900  175.0720  139.6740 O   0  0  0  0  0  0  0  0  0  0  0  0
  198.2520  174.8910  138.7070 C   0  0  0  0  0  2  0  0  0  0  0  0
  197.3730  173.9420  138.6790 N   0  0  0  0  0  0  0  0  0  0  0  0
  1 35  1  0  0  0  0
  1 21  1  0  0  0  0
  2  4  1  0  0  0  0
  2  3  1  0  0  0  0
  3  1  1  0  0  0  0
  3  6  1  0  0  0  0
  4  6  1  0  0  0  0
  5  2  1  0  0  0  0
  5  4  1  0  0  0  0
  7  8  1  0  0  0  0
  7  5  1  0  0  0  0
  9 10  1  0  0  0  0
  9  7  1  0  0  0  0
 10 13  1  0  0  0  0
 11 10  1  0  0  0  0
 12 19  1  0  0  0  0
 12 14  1  0  0  0  0
 12 18  1  0  0  0  0
 13 17  1  0  0  0  0
 14 13  2  0  0  0  0
 15 11  1  0  0  0  0
 15 14  1  0  0  0  0
 16 18  1  0  0  0  0
 18 17  2  0  0  0  0
 20 19  1  0  0  0  0
 21 22  1  0  0  0  0
 22 23  1  0  0  0  0
 23 24  1  0  0  0  0
 24 25  2  0  0  0  0
 25 26  1  0  0  0  0
 27 28  1  0  0  0  0
 27 26  1  0  0  0  0
 27 29  1  0  0  0  0
 28 29  1  0  0  0  0
 30 28  1  0  0  0  0
 31 30  1  0  0  0  0
 32 31  1  0  0  0  0
 33 32  1  0  0  0  0
 34 33  1  0  0  0  0
 36 38  1  0  0  0  0
 37 39  1  0  0  0  0
 38 35  1  0  0  0  0
 39 38  2  0  0  0  0
 40 36  2  0  0  0  0
 41 37  2  0  0  0  0
 41 40  1  0  0  0  0
 42 43  1  0  0  0  0
 42 41  1  0  0  0  0
 43 44  1  0  0  0  0
 44 46  1  0  0  0  0
 46 45  1  0  0  0  0
 47 48  2  0  0  0  0
 48 43  1  0  0  0  0
 48 49  1  0  0  0  0
 49 50  1  0  0  0  0
 49 45  1  0  0  0  0
 51 56  1  0  0  0  0
 51 54  1  0  0  0  0
 52 53  1  0  0  0  0
 52 58  1  0  0  0  0
 54 50  1  0  0  0  0
 54 59  1  0  0  0  0
 57 53  1  0  0  0  0
 57 51  1  0  0  0  0
 58 55  2  0  0  0  0
 58 54  1  0  0  0  0
 59 60  1  0  0  0  0
 60 61  2  0  0  0  0
 63 62  2  0  0  0  0
 63 60  1  0  0  0  0
M  END
>  <MODEL>
2

>  <REMARK>
 VINA RESULT:      -7.0      1.901      2.762
  Name = 
  24 active torsions:
  status: ('A' for Active; 'I' for Inactive)
    1  A    between atoms: C_1  and  N_27
    2  A    between atoms: C_1  and  C_48
    3  A    between atoms: C_2  and  N_14
    4  A    between atoms: C_2  and  C_57
    5  A    between atoms: C_3  and  C_4
    6  A    between atoms: C_3  and  N_26
    7  A    between atoms: C_4  and  C_34
    8  A    between atoms: N_6  and  C_12
    9  A    between atoms: N_6  and  C_17
   10  A    between atoms: N_6  and  C_45
   11  A    between atoms: C_7  and  C_56
   12  A    between atoms: C_10  and  O_47
   13  A    between atoms: C_12  and  C_31
   14  A    between atoms: C_13  and  C_25
   15  A    between atoms: C_13  and  C_61
   16  A    between atoms: C_15  and  C_39
   17  A    between atoms: C_15  and  O_47
   18  A    between atoms: N_21  and  C_32
   19  A    between atoms: C_22  and  C_29
   20  A    between atoms: C_23  and  C_29
   21  A    between atoms: C_23  and  C_45
   22  A    between atoms: C_25  and  C_48
   23  A    between atoms: N_26  and  C_43
   24  A    between atoms: C_56  and  C_59
                            x       y       z     vdW  Elec       q    Type
                         _______ _______ _______ _____ _____    ______ ____

>  <TORSDO>
F 24

$$$$
=
 OpenBabel10232407453D

 63 70  0  0  1  0  0  0  0  0999 V2000
  181.7600  176.3590  138.5300 N   0  0  0  0  0  0  0  0  0  0  0  0
  181.4240  174.2750  137.1130 C   0  0  2  0  0  3  0  0  0  0  0  0
  181.5830  174.8990  138.5000 C   0  0  2  0  0  3  0  0  0  0  0  0
  179.9820  173.9400  137.4270 C   0  0  1  0  0  3  0  0  0  0  0  0
  181.0010  172.8250  137.2820 C   0  0  1  0  0  3  0  0  0  0  0  0
  180.1350  174.5710  138.8020 C   0  0  0  0  0  2  0  0  0  0  0  0
  180.8090  172.0680  135.9590 C   0  0  2  0  0  3  0  0  0  0  0  0
  180.3200  170.7870  136.2370 O   0  0  0  0  0  1  0  0  0  0  0  0
  181.9900  171.9700  135.1980 O   0  0  0  0  0  0  0  0  0  0  0  0
  182.6640  170.8510  135.7030 C   0  0  1  0  0  3  0  0  0  0  0  0
  182.8330  169.8070  134.5850 C   0  0  0  0  0  2  0  0  0  0  0  0
  186.2330  171.3510  135.6490 N   0  0  0  0  0  0  0  0  0  0  0  0
  184.0350  171.2320  136.1180 C   0  0  0  0  0  0  0  0  0  0  0  0
  185.0260  170.6060  135.5550 C   0  0  0  0  0  0  0  0  0  0  0  0
  184.6150  169.3770  134.3480 S   0  0  0  0  0  0  0  0  0  0  0  0
  186.6010  173.5130  136.7200 C   0  0  0  0  0  1  0  0  0  0  0  0
  184.4300  172.4500  136.7390 N   0  0  0  0  0  0  0  0  0  0  0  0
  185.8330  172.4550  136.4680 C   0  0  0  0  0  0  0  0  0  0  0  0
  187.5570  170.7490  135.5730 C   0  0  0  0  0  2  0  0  0  0  0  0
  188.4950  171.6870  135.1510 O   0  0  0  0  0  1  0  0  0  0  0  0
  181.3800  176.8480  137.2140 C   0  0  0  0  0  2  0  0  0  0  0  0
  182.5470  177.5840  136.5780 C   0  0  0  0  0  2  0  0  0  0  0  0
  183.6630  176.6010  136.2760 C   0  0  0  0  0  2  0  0  0  0  0  0
  184.8700  176.8590  137.1270 C   0  0  0  0  0  3  0  0  0  0  0  0
  185.0790  178.0320  137.7230 C   0  0  0  0  0  3  0  0  0  0  0  0
  186.2920  178.2080  138.5780 C   0  0  0  0  0  2  0  0  0  0  0  0
  187.5170  178.4490  137.7160 C   0  0  2  0  0  3  0  0  0  0  0  0
  188.4830  177.3420  137.9310 C   0  0  2  0  0  3  0  0  0  0  0  0
  188.6520  178.5990  138.5380 O   0  0  0  0  0  0  0  0  0  0  0  0
  189.4650  177.1410  136.7710 C   0  0  0  0  0  2  0  0  0  0  0  0
  190.3420  175.8900  136.8320 C   0  0  0  0  0  2  0  0  0  0  0  0
  191.3870  175.9640  135.8200 N   0  0  0  0  0  2  0  0  0  0  0  0
  192.4250  175.0320  136.2330 C   0  0  0  0  0  2  0  0  0  0  0  0
  192.0580  174.4400  137.5720 C   0  0  0  0  0  1  0  0  0  0  0  0
  180.8800  177.0450  139.4800 C   0  0  0  0  0  2  0  0  0  0  0  0
  183.0920  177.5890  140.5190 C   0  0  0  0  0  3  0  0  0  0  0  0
  181.8370  178.9400  142.6310 C   0  0  0  0  0  3  0  0  0  0  0  0
  181.6920  177.6590  140.5730 C   0  0  0  0  0  0  0  0  0  0  0  0
  181.0700  178.3270  141.6390 C   0  0  0  0  0  3  0  0  0  0  0  0
  183.8640  178.2010  141.5140 C   0  0  0  0  0  3  0  0  0  0  0  0
  183.2360  178.8800  142.5680 C   0  0  0  0  0  0  0  0  0  0  0  0
  184.0490  179.6320  143.5690 C   0  0  0  0  0  2  0  0  0  0  0  0
  184.8190  178.7330  144.4160 N   0  0  0  0  0  0  0  0  0  0  0  0
  184.4950  178.6890  145.8420 C   0  0  0  0  0  2  0  0  0  0  0  0
  186.8660  178.5260  146.1990 O   0  0  0  0  0  0  0  0  0  0  0  0
  185.6310  178.0220  146.6440 C   0  0  0  0  0  2  0  0  0  0  0  0
  186.2540  177.9870  142.7200 O   0  0  0  0  0  0  0  0  0  0  0  0
  186.0720  178.2140  143.9520 C   0  0  0  0  0  0  0  0  0  0  0  0
  187.1530  177.8990  144.9650 C   0  0  1  0  0  3  0  0  0  0  0  0
  188.4900  178.4230  144.4360 C   0  0  0  0  0  2  0  0  0  0  0  0
  189.3810  176.5400  143.1090 N   0  0  0  0  0  0  0  0  0  0  0  0
  191.9530  177.1690  143.5960 O   0  0  0  0  0  0  0  0  0  0  0  0
  191.6820  175.8520  143.4880 O   0  0  0  0  0  0  0  0  0  0  0  0
  189.6240  177.3780  144.3110 C   0  0  1  0  0  0  0  0  0  0  0  0
  191.2200  179.2150  144.3680 O   0  0  0  0  0  0  0  0  0  0  0  0
  188.3370  175.6950  143.3340 O   0  0  0  0  0  1  0  0  0  0  0  0
  190.5400  175.7250  142.6580 C   0  0  0  0  0  2  0  0  0  0  0  0
  190.9810  178.0020  144.1350 C   0  0  0  0  0  0  0  0  0  0  0  0
  189.6130  176.5010  145.5890 C   0  0  0  0  0  2  0  0  0  0  0  0
  190.3810  177.0550  146.7600 C   0  0  0  0  0  0  0  0  0  0  0  0
  189.7930  177.7100  147.6670 O   0  0  0  0  0  0  0  0  0  0  0  0
  192.2570  175.9100  147.6930 C   0  0  0  0  0  2  0  0  0  0  0  0
  191.7760  176.7780  146.8630 N   0  0  0  0  0  0  0  0  0  0  0  0
  1 35  1  0  0  0  0
  2  5  1  0  0  0  0
  2  4  1  0  0  0  0
  2  3  1  0  0  0  0
  3  1  1  0  0  0  0
  3  6  1  0  0  0  0
  4  6  1  0  0  0  0
  5  4  1  0  0  0  0
  7  8  1  0  0  0  0
  7  5  1  0  0  0  0
  9 10  1  0  0  0  0
  9  7  1  0  0  0  0
 10 13  1  0  0  0  0
 11 10  1  0  0  0  0
 12 18  1  0  0  0  0
 13 17  1  0  0  0  0
 14 12  1  0  0  0  0
 14 13  2  0  0  0  0
 15 11  1  0  0  0  0
 15 14  1  0  0  0  0
 18 16  1  0  0  0  0
 18 17  2  0  0  0  0
 19 12  1  0  0  0  0
 20 19  1  0  0  0  0
 21  1  1  0  0  0  0
 22 21  1  0  0  0  0
 23 22  1  0  0  0  0
 23 24  1  0  0  0  0
 24 25  2  0  0  0  0
 25 26  1  0  0  0  0
 27 28  1  0  0  0  0
 27 29  1  0  0  0  0
 27 26  1  0  0  0  0
 28 29  1  0  0  0  0
 30 31  1  0  0  0  0
 30 28  1  0  0  0  0
 32 33  1  0  0  0  0
 32 31  1  0  0  0  0
 33 34  1  0  0  0  0
 35 38  1  0  0  0  0
 36 38  2  0  0  0  0
 36 40  1  0  0  0  0
 38 39  1  0  0  0  0
 39 37  2  0  0  0  0
 40 41  2  0  0  0  0
 41 37  1  0  0  0  0
 41 42  1  0  0  0  0
 42 43  1  0  0  0  0
 43 44  1  0  0  0  0
 44 46  1  0  0  0  0
 45 46  1  0  0  0  0
 47 48  2  0  0  0  0
 48 43  1  0  0  0  0
 48 49  1  0  0  0  0
 49 45  1  0  0  0  0
 50 49  1  0  0  0  0
 51 56  1  0  0  0  0
 51 54  1  0  0  0  0
 52 58  1  0  0  0  0
 53 52  1  0  0  0  0
 54 50  1  0  0  0  0
 54 59  1  0  0  0  0
 57 51  1  0  0  0  0
 57 53  1  0  0  0  0
 58 54  1  0  0  0  0
 58 55  2  0  0  0  0
 59 60  1  0  0  0  0
 60 63  1  0  0  0  0
 60 61  2  0  0  0  0
 63 62  2  0  0  0  0
M  END
>  <MODEL>
3

>  <REMARK>
 VINA RESULT:      -6.9      3.555      8.189
  Name = 
  24 active torsions:
  status: ('A' for Active; 'I' for Inactive)
    1  A    between atoms: C_1  and  N_27
    2  A    between atoms: C_1  and  C_48
    3  A    between atoms: C_2  and  N_14
    4  A    between atoms: C_2  and  C_57
    5  A    between atoms: C_3  and  C_4
    6  A    between atoms: C_3  and  N_26
    7  A    between atoms: C_4  and  C_34
    8  A    between atoms: N_6  and  C_12
    9  A    between atoms: N_6  and  C_17
   10  A    between atoms: N_6  and  C_45
   11  A    between atoms: C_7  and  C_56
   12  A    between atoms: C_10  and  O_47
   13  A    between atoms: C_12  and  C_31
   14  A    between atoms: C_13  and  C_25
   15  A    between atoms: C_13  and  C_61
   16  A    between atoms: C_15  and  C_39
   17  A    between atoms: C_15  and  O_47
   18  A    between atoms: N_21  and  C_32
   19  A    between atoms: C_22  and  C_29
   20  A    between atoms: C_23  and  C_29
   21  A    between atoms: C_23  and  C_45
   22  A    between atoms: C_25  and  C_48
   23  A    between atoms: N_26  and  C_43
   24  A    between atoms: C_56  and  C_59
                            x       y       z     vdW  Elec       q    Type
                         _______ _______ _______ _____ _____    ______ ____

>  <TORSDO>
F 24

$$$$
=
 OpenBabel10232407453D

 63 70  0  0  1  0  0  0  0  0999 V2000
  186.1350  178.0300  144.1120 N   0  0  0  0  0  0  0  0  0  0  0  0
  184.5120  177.8610  142.1620 C   0  0  2  0  0  3  0  0  0  0  0  0
  185.0350  178.6530  143.3610 C   0  0  2  0  0  3  0  0  0  0  0  0
  185.0770  178.9050  141.2230 C   0  0  1  0  0  3  0  0  0  0  0  0
  183.5740  178.7530  141.3660 C   0  0  1  0  0  3  0  0  0  0  0  0
  185.6080  179.6880  142.4130 C   0  0  0  0  0  2  0  0  0  0  0  0
  182.9650  178.0780  140.1270 C   0  0  2  0  0  3  0  0  0  0  0  0
  181.7710  177.4490  140.4970 O   0  0  0  0  0  1  0  0  0  0  0  0
  183.8270  177.1420  139.5240 O   0  0  0  0  0  0  0  0  0  0  0  0
  183.8290  177.4640  138.1620 C   0  0  1  0  0  3  0  0  0  0  0  0
  185.1980  178.0540  137.7770 C   0  0  0  0  0  2  0  0  0  0  0  0
  184.6120  174.5800  136.1470 N   0  0  0  0  0  0  0  0  0  0  0  0
  183.6730  176.2330  137.3520 C   0  0  0  0  0  0  0  0  0  0  0  0
  184.6100  175.9580  136.4930 C   0  0  0  0  0  0  0  0  0  0  0  0
  185.9710  177.0890  136.4040 S   0  0  0  0  0  0  0  0  0  0  0  0
  183.1100  172.8200  136.9240 C   0  0  0  0  0  1  0  0  0  0  0  0
  182.8560  175.1080  137.6590 N   0  0  0  0  0  0  0  0  0  0  0  0
  183.4480  174.1040  136.8330 C   0  0  0  0  0  0  0  0  0  0  0  0
  185.1700  174.0640  134.9050 C   0  0  0  0  0  2  0  0  0  0  0  0
  186.4910  174.4770  134.7550 O   0  0  0  0  0  1  0  0  0  0  0  0
  185.5990  177.6880  145.4200 C   0  0  0  0  0  2  0  0  0  0  0  0
  184.7930  178.8530  145.9700 C   0  0  0  0  0  2  0  0  0  0  0  0
  185.5850  179.5480  147.0610 C   0  0  0  0  0  2  0  0  0  0  0  0
  186.5030  178.5970  147.7690 C   0  0  0  0  0  3  0  0  0  0  0  0
  187.8280  178.6910  147.6760 C   0  0  0  0  0  3  0  0  0  0  0  0
  188.6810  177.7220  148.4290 C   0  0  0  0  0  2  0  0  0  0  0  0
  189.2700  176.6910  147.4860 C   0  0  2  0  0  3  0  0  0  0  0  0
  190.2830  177.3510  146.6220 C   0  0  2  0  0  3  0  0  0  0  0  0
  188.9900  177.0540  146.1530 O   0  0  0  0  0  0  0  0  0  0  0  0
  191.3250  176.3890  146.0430 C   0  0  0  0  0  2  0  0  0  0  0  0
  192.2890  175.7480  147.0430 C   0  0  0  0  0  2  0  0  0  0  0  0
  192.4280  176.5980  148.2160 N   0  0  0  0  0  2  0  0  0  0  0  0
  193.4010  175.9500  149.0810 C   0  0  0  0  0  2  0  0  0  0  0  0
  193.9060  176.9470  150.0970 C   0  0  0  0  0  1  0  0  0  0  0  0
  186.6100  176.7700  143.5340 C   0  0  0  0  0  2  0  0  0  0  0  0
  188.8580  175.8080  142.9970 C   0  0  0  0  0  3  0  0  0  0  0  0
  189.7940  178.3100  142.1460 C   0  0  0  0  0  3  0  0  0  0  0  0
  188.0160  176.9280  143.0540 C   0  0  0  0  0  0  0  0  0  0  0  0
  188.4940  178.1800  142.6380 C   0  0  0  0  0  3  0  0  0  0  0  0
  190.1630  175.9360  142.5050 C   0  0  0  0  0  3  0  0  0  0  0  0
  190.6290  177.1870  142.0760 C   0  0  0  0  0  0  0  0  0  0  0  0
  191.9760  177.3120  141.4450 C   0  0  0  0  0  2  0  0  0  0  0  0
  191.8890  177.3050  139.9920 N   0  0  0  0  0  0  0  0  0  0  0  0
  190.5600  177.3530  139.3840 C   0  0  0  0  0  2  0  0  0  0  0  0
  191.4290  175.7950  137.7740 O   0  0  0  0  0  0  0  0  0  0  0  0
  190.6180  176.9360  137.9000 C   0  0  0  0  0  2  0  0  0  0  0  0
  194.1950  177.1020  139.6230 O   0  0  0  0  0  0  0  0  0  0  0  0
  193.0170  176.8860  139.2120 C   0  0  0  0  0  0  0  0  0  0  0  0
  192.7730  176.2250  137.8720 C   0  0  1  0  0  3  0  0  0  0  0  0
  193.6970  175.0110  137.7460 C   0  0  0  0  0  2  0  0  0  0  0  0
  194.7000  176.4220  135.9840 N   0  0  0  0  0  0  0  0  0  0  0  0
  197.2240  175.7020  136.5820 O   0  0  0  0  0  0  0  0  0  0  0  0
  196.9750  175.9380  135.2770 O   0  0  0  0  0  0  0  0  0  0  0  0
  194.8480  175.1410  136.7200 C   0  0  1  0  0  0  0  0  0  0  0  0
  196.4160  174.8180  138.5530 O   0  0  0  0  0  0  0  0  0  0  0  0
  193.6510  176.3430  135.1180 O   0  0  0  0  0  1  0  0  0  0  0  0
  195.8960  176.8550  135.2150 C   0  0  0  0  0  2  0  0  0  0  0  0
  196.2070  175.1670  137.3630 C   0  0  0  0  0  0  0  0  0  0  0  0
  194.7550  173.9440  135.7400 C   0  0  0  0  0  2  0  0  0  0  0  0
  193.6080  172.9980  135.9800 C   0  0  0  0  0  0  0  0  0  0  0  0
  193.7000  172.0740  136.8360 O   0  0  0  0  0  0  0  0  0  0  0  0
  191.2260  173.0270  135.8080 C   0  0  0  0  0  2  0  0  0  0  0  0
  192.3890  173.1980  135.2660 N   0  0  0  0  0  0  0  0  0  0  0  0
  1 21  1  0  0  0  0
  2  3  1  0  0  0  0
  3  1  1  0  0  0  0
  4  5  1  0  0  0  0
  4  2  1  0  0  0  0
  4  6  1  0  0  0  0
  5  2  1  0  0  0  0
  6  3  1  0  0  0  0
  7  8  1  0  0  0  0
  7  5  1  0  0  0  0
  9  7  1  0  0  0  0
 10  9  1  0  0  0  0
 11 10  1  0  0  0  0
 12 14  1  0  0  0  0
 12 18  1  0  0  0  0
 13 17  1  0  0  0  0
 13 10  1  0  0  0  0
 14 13  2  0  0  0  0
 15 14  1  0  0  0  0
 15 11  1  0  0  0  0
 18 16  1  0  0  0  0
 18 17  2  0  0  0  0
 19 12  1  0  0  0  0
 20 19  1  0  0  0  0
 21 22  1  0  0  0  0
 22 23  1  0  0  0  0
 23 24  1  0  0  0  0
 25 24  2  0  0  0  0
 25 26  1  0  0  0  0
 27 26  1  0  0  0  0
 28 27  1  0  0  0  0
 29 28  1  0  0  0  0
 29 27  1  0  0  0  0
 30 28  1  0  0  0  0
 30 31  1  0  0  0  0
 31 32  1  0  0  0  0
 32 33  1  0  0  0  0
 33 34  1  0  0  0  0
 35  1  1  0  0  0  0
 36 38  1  0  0  0  0
 37 39  1  0  0  0  0
 38 35  1  0  0  0  0
 39 38  2  0  0  0  0
 40 36  2  0  0  0  0
 41 37  2  0  0  0  0
 41 40  1  0  0  0  0
 42 41  1  0  0  0  0
 43 42  1  0  0  0  0
 44 43  1  0  0  0  0
 45 49  1  0  0  0  0
 45 46  1  0  0  0  0
 46 44  1  0  0  0  0
 48 47  2  0  0  0  0
 48 43  1  0  0  0  0
 49 48  1  0  0  0  0
 50 49  1  0  0  0  0
 51 54  1  0  0  0  0
 52 58  1  0  0  0  0
 53 52  1  0  0  0  0
 54 58  1  0  0  0  0
 54 50  1  0  0  0  0
 56 51  1  0  0  0  0
 57 53  1  0  0  0  0
 57 51  1  0  0  0  0
 58 55  2  0  0  0  0
 59 60  1  0  0  0  0
 59 54  1  0  0  0  0
 60 61  2  0  0  0  0
 63 62  2  0  0  0  0
 63 60  1  0  0  0  0
M  END
>  <MODEL>
4

>  <REMARK>
 VINA RESULT:      -6.7      1.899      2.578
  Name = 
  24 active torsions:
  status: ('A' for Active; 'I' for Inactive)
    1  A    between atoms: C_1  and  N_27
    2  A    between atoms: C_1  and  C_48
    3  A    between atoms: C_2  and  N_14
    4  A    between atoms: C_2  and  C_57
    5  A    between atoms: C_3  and  C_4
    6  A    between atoms: C_3  and  N_26
    7  A    between atoms: C_4  and  C_34
    8  A    between atoms: N_6  and  C_12
    9  A    between atoms: N_6  and  C_17
   10  A    between atoms: N_6  and  C_45
   11  A    between atoms: C_7  and  C_56
   12  A    between atoms: C_10  and  O_47
   13  A    between atoms: C_12  and  C_31
   14  A    between atoms: C_13  and  C_25
   15  A    between atoms: C_13  and  C_61
   16  A    between atoms: C_15  and  C_39
   17  A    between atoms: C_15  and  O_47
   18  A    between atoms: N_21  and  C_32
   19  A    between atoms: C_22  and  C_29
   20  A    between atoms: C_23  and  C_29
   21  A    between atoms: C_23  and  C_45
   22  A    between atoms: C_25  and  C_48
   23  A    between atoms: N_26  and  C_43
   24  A    between atoms: C_56  and  C_59
                            x       y       z     vdW  Elec       q    Type
                         _______ _______ _______ _____ _____    ______ ____

>  <TORSDO>
F 24

$$$$
=
 OpenBabel10232407453D

 63 70  0  0  1  0  0  0  0  0999 V2000
  185.3530  179.2170  141.3630 N   0  0  0  0  0  0  0  0  0  0  0  0
  183.4230  178.8130  139.7600 C   0  0  2  0  0  3  0  0  0  0  0  0
  184.2630  178.3260  140.9400 C   0  0  2  0  0  3  0  0  0  0  0  0
  182.2360  179.0030  140.6810 C   0  0  1  0  0  3  0  0  0  0  0  0
  182.2060  177.9100  139.6280 C   0  0  1  0  0  3  0  0  0  0  0  0
  183.0740  178.5300  141.8580 C   0  0  0  0  0  2  0  0  0  0  0  0
  181.2700  178.2830  138.4690 C   0  0  2  0  0  3  0  0  0  0  0  0
  179.9920  178.5330  138.9820 O   0  0  0  0  0  1  0  0  0  0  0  0
  181.1950  177.2910  137.4730 O   0  0  0  0  0  0  0  0  0  0  0  0
  181.4530  176.0830  138.1330 C   0  0  1  0  0  3  0  0  0  0  0  0
  180.2390  175.1480  137.9830 C   0  0  0  0  0  2  0  0  0  0  0  0
  183.3280  173.8320  136.0350 N   0  0  0  0  0  0  0  0  0  0  0  0
  182.5880  175.3860  137.4850 C   0  0  0  0  0  0  0  0  0  0  0  0
  182.3720  174.1900  137.0230 C   0  0  0  0  0  0  0  0  0  0  0  0
  180.7340  173.5420  137.2160 S   0  0  0  0  0  0  0  0  0  0  0  0
  185.2220  175.1350  135.2140 C   0  0  0  0  0  1  0  0  0  0  0  0
  183.7590  175.9860  136.9400 N   0  0  0  0  0  0  0  0  0  0  0  0
  184.2240  174.9480  136.0760 C   0  0  0  0  0  0  0  0  0  0  0  0
  183.6590  172.4540  135.6990 C   0  0  0  0  0  2  0  0  0  0  0  0
  182.6650  171.8940  134.9020 O   0  0  0  0  0  1  0  0  0  0  0  0
  185.0620  179.6040  142.7340 C   0  0  0  0  0  2  0  0  0  0  0  0
  185.7070  178.6220  143.6970 C   0  0  0  0  0  2  0  0  0  0  0  0
  185.3190  178.9780  145.1200 C   0  0  0  0  0  2  0  0  0  0  0  0
  186.4390  178.7110  146.0810 C   0  0  0  0  0  3  0  0  0  0  0  0
  186.3400  177.8000  147.0470 C   0  0  0  0  0  3  0  0  0  0  0  0
  187.5070  177.5700  147.9520 C   0  0  0  0  0  2  0  0  0  0  0  0
  188.7670  178.1650  147.3530 C   0  0  2  0  0  3  0  0  0  0  0  0
  189.3400  177.2010  146.3800 C   0  0  2  0  0  3  0  0  0  0  0  0
  189.8730  177.3510  147.6720 O   0  0  0  0  0  0  0  0  0  0  0  0
  190.2410  177.8490  145.3220 C   0  0  0  0  0  2  0  0  0  0  0  0
  191.6300  177.2350  145.1440 C   0  0  0  0  0  2  0  0  0  0  0  0
  191.5690  176.1290  144.1990 N   0  0  0  0  0  2  0  0  0  0  0  0
  191.2350  176.7090  142.9080 C   0  0  0  0  0  2  0  0  0  0  0  0
  189.9470  176.1000  142.4070 C   0  0  0  0  0  1  0  0  0  0  0  0
  186.6690  178.5710  141.4020 C   0  0  0  0  0  2  0  0  0  0  0  0
  188.5410  178.2790  139.7660 C   0  0  0  0  0  3  0  0  0  0  0  0
  186.7270  177.8790  137.6660 C   0  0  0  0  0  3  0  0  0  0  0  0
  187.1610  178.3350  140.0110 C   0  0  0  0  0  0  0  0  0  0  0  0
  186.2580  178.1470  138.9540 C   0  0  0  0  0  3  0  0  0  0  0  0
  189.0140  178.0120  138.4750 C   0  0  0  0  0  3  0  0  0  0  0  0
  188.1060  177.8080  137.4260 C   0  0  0  0  0  0  0  0  0  0  0  0
  188.5960  177.4110  136.0730 C   0  0  0  0  0  2  0  0  0  0  0  0
  189.3500  176.1670  136.1210 N   0  0  0  0  0  0  0  0  0  0  0  0
  188.7770  175.0460  136.8650 C   0  0  0  0  0  2  0  0  0  0  0  0
  191.0240  174.6080  137.5970 O   0  0  0  0  0  0  0  0  0  0  0  0
  189.8480  173.9750  137.1580 C   0  0  0  0  0  2  0  0  0  0  0  0
  191.1960  176.9680  134.9190 O   0  0  0  0  0  0  0  0  0  0  0  0
  190.7440  176.1650  135.7870 C   0  0  0  0  0  0  0  0  0  0  0  0
  191.6540  175.1570  136.4560 C   0  0  1  0  0  3  0  0  0  0  0  0
  192.9410  175.8650  136.8870 C   0  0  0  0  0  2  0  0  0  0  0  0
  195.0290  176.5480  135.7570 N   0  0  0  0  0  0  0  0  0  0  0  0
  196.4610  174.4990  136.7550 O   0  0  0  0  0  0  0  0  0  0  0  0
  196.7980  174.8980  135.5120 O   0  0  0  0  0  0  0  0  0  0  0  0
  194.2430  175.3720  136.2110 C   0  0  1  0  0  0  0  0  0  0  0  0
  194.7380  174.1290  138.2440 O   0  0  0  0  0  0  0  0  0  0  0  0
  194.4290  177.1180  134.6740 O   0  0  0  0  0  1  0  0  0  0  0  0
  196.4440  176.2660  135.4000 C   0  0  0  0  0  2  0  0  0  0  0  0
  195.1300  174.5940  137.1430 C   0  0  0  0  0  0  0  0  0  0  0  0
  193.8510  174.4870  135.0000 C   0  0  0  0  0  2  0  0  0  0  0  0
  194.1000  173.0110  135.1710 C   0  0  0  0  0  0  0  0  0  0  0  0
  195.1890  172.4920  134.7940 O   0  0  0  0  0  0  0  0  0  0  0  0
  192.0300  171.8220  135.2270 C   0  0  0  0  0  2  0  0  0  0  0  0
  193.1110  172.2150  135.8200 N   0  0  0  0  0  0  0  0  0  0  0  0
  1 35  1  0  0  0  0
  1 21  1  0  0  0  0
  2  4  1  0  0  0  0
  2  3  1  0  0  0  0
  3  1  1  0  0  0  0
  3  6  1  0  0  0  0
  4  6  1  0  0  0  0
  5  2  1  0  0  0  0
  5  4  1  0  0  0  0
  7  8  1  0  0  0  0
  7  5  1  0  0  0  0
  9 10  1  0  0  0  0
  9  7  1  0  0  0  0
 11 10  1  0  0  0  0
 12 18  1  0  0  0  0
 12 14  1  0  0  0  0
 13 10  1  0  0  0  0
 14 15  1  0  0  0  0
 14 13  2  0  0  0  0
 15 11  1  0  0  0  0
 16 18  1  0  0  0  0
 17 13  1  0  0  0  0
 18 17  2  0  0  0  0
 19 12  1  0  0  0  0
 20 19  1  0  0  0  0
 21 22  1  0  0  0  0
 22 23  1  0  0  0  0
 23 24  1  0  0  0  0
 24 25  2  0  0  0  0
 25 26  1  0  0  0  0
 27 29  1  0  0  0  0
 27 26  1  0  0  0  0
 28 27  1  0  0  0  0
 28 29  1  0  0  0  0
 30 28  1  0  0  0  0
 31 30  1  0  0  0  0
 32 31  1  0  0  0  0
 33 32  1  0  0  0  0
 34 33  1  0  0  0  0
 36 38  1  0  0  0  0
 37 39  1  0  0  0  0
 38 35  1  0  0  0  0
 39 38  2  0  0  0  0
 40 36  2  0  0  0  0
 41 37  2  0  0  0  0
 41 40  1  0  0  0  0
 42 43  1  0  0  0  0
 42 41  1  0  0  0  0
 43 44  1  0  0  0  0
 44 46  1  0  0  0  0
 46 45  1  0  0  0  0
 47 48  2  0  0  0  0
 48 43  1  0  0  0  0
 48 49  1  0  0  0  0
 49 50  1  0  0  0  0
 49 45  1  0  0  0  0
 51 54  1  0  0  0  0
 52 58  1  0  0  0  0
 53 52  1  0  0  0  0
 54 50  1  0  0  0  0
 54 58  1  0  0  0  0
 56 51  1  0  0  0  0
 57 53  1  0  0  0  0
 57 51  1  0  0  0  0
 58 55  2  0  0  0  0
 59 60  1  0  0  0  0
 59 54  1  0  0  0  0
 60 63  1  0  0  0  0
 61 60  2  0  0  0  0
 62 63  2  0  0  0  0
M  END
>  <MODEL>
5

>  <REMARK>
 VINA RESULT:      -6.4      1.982      2.874
  Name = 
  24 active torsions:
  status: ('A' for Active; 'I' for Inactive)
    1  A    between atoms: C_1  and  N_27
    2  A    between atoms: C_1  and  C_48
    3  A    between atoms: C_2  and  N_14
    4  A    between atoms: C_2  and  C_57
    5  A    between atoms: C_3  and  C_4
    6  A    between atoms: C_3  and  N_26
    7  A    between atoms: C_4  and  C_34
    8  A    between atoms: N_6  and  C_12
    9  A    between atoms: N_6  and  C_17
   10  A    between atoms: N_6  and  C_45
   11  A    between atoms: C_7  and  C_56
   12  A    between atoms: C_10  and  O_47
   13  A    between atoms: C_12  and  C_31
   14  A    between atoms: C_13  and  C_25
   15  A    between atoms: C_13  and  C_61
   16  A    between atoms: C_15  and  C_39
   17  A    between atoms: C_15  and  O_47
   18  A    between atoms: N_21  and  C_32
   19  A    between atoms: C_22  and  C_29
   20  A    between atoms: C_23  and  C_29
   21  A    between atoms: C_23  and  C_45
   22  A    between atoms: C_25  and  C_48
   23  A    between atoms: N_26  and  C_43
   24  A    between atoms: C_56  and  C_59
                            x       y       z     vdW  Elec       q    Type
                         _______ _______ _______ _____ _____    ______ ____

>  <TORSDO>
F 24

$$$$
=
 OpenBabel10232407453D

 63 70  0  0  1  0  0  0  0  0999 V2000
  191.9220  176.3310  137.4700 N   0  0  0  0  0  0  0  0  0  0  0  0
  190.4220  176.7880  139.4710 C   0  0  2  0  0  3  0  0  0  0  0  0
  191.6790  176.1260  138.9060 C   0  0  2  0  0  3  0  0  0  0  0  0
  191.2830  177.7470  140.2660 C   0  0  1  0  0  3  0  0  0  0  0  0
  190.4670  176.6910  140.9880 C   0  0  1  0  0  3  0  0  0  0  0  0
  192.5340  177.0980  139.6950 C   0  0  0  0  0  2  0  0  0  0  0  0
  189.2520  177.3150  141.6930 C   0  0  2  0  0  3  0  0  0  0  0  0
  188.7000  178.2940  140.8590 O   0  0  0  0  0  1  0  0  0  0  0  0
  189.5650  177.8800  142.9440 O   0  0  0  0  0  0  0  0  0  0  0  0
  189.6340  176.7990  143.8320 C   0  0  1  0  0  3  0  0  0  0  0  0
  190.9840  176.8270  144.5700 C   0  0  0  0  0  2  0  0  0  0  0  0
  188.0150  177.5790  146.9550 N   0  0  0  0  0  0  0  0  0  0  0  0
  188.5930  176.9370  144.8770 C   0  0  0  0  0  0  0  0  0  0  0  0
  188.9890  176.9760  146.1150 C   0  0  0  0  0  0  0  0  0  0  0  0
  190.7340  176.8690  146.4010 S   0  0  0  0  0  0  0  0  0  0  0  0
  185.8160  178.4470  146.3470 C   0  0  0  0  0  1  0  0  0  0  0  0
  187.2700  177.4350  144.7040 N   0  0  0  0  0  0  0  0  0  0  0  0
  186.9240  177.7730  146.0470 C   0  0  0  0  0  0  0  0  0  0  0  0
  187.9290  177.3370  148.3890 C   0  0  0  0  0  2  0  0  0  0  0  0
  188.0650  178.5310  149.0930 O   0  0  0  0  0  1  0  0  0  0  0  0
  193.3590  176.4830  137.3120 C   0  0  0  0  0  2  0  0  0  0  0  0
  193.7860  175.9750  135.9460 C   0  0  0  0  0  2  0  0  0  0  0  0
  195.1920  175.4100  136.0310 C   0  0  0  0  0  2  0  0  0  0  0  0
  195.1890  173.9120  135.9650 C   0  0  0  0  0  3  0  0  0  0  0  0
  194.7840  173.1600  136.9870 C   0  0  0  0  0  3  0  0  0  0  0  0
  194.7850  171.6720  136.8400 C   0  0  0  0  0  2  0  0  0  0  0  0
  195.8610  171.0550  137.7120 C   0  0  2  0  0  3  0  0  0  0  0  0
  196.8720  170.4030  136.8410 C   0  0  2  0  0  3  0  0  0  0  0  0
  195.8870  169.6590  137.5150 O   0  0  0  0  0  0  0  0  0  0  0  0
  198.2470  170.2420  137.4990 C   0  0  0  0  0  2  0  0  0  0  0  0
  199.2300  171.3980  137.3120 C   0  0  0  0  0  2  0  0  0  0  0  0
  198.5190  172.5920  136.8790 N   0  0  0  0  0  2  0  0  0  0  0  0
  199.3170  173.1840  135.8160 C   0  0  0  0  0  2  0  0  0  0  0  0
  199.1840  174.6870  135.8720 C   0  0  0  0  0  1  0  0  0  0  0  0
  191.5480  175.1870  136.6340 C   0  0  0  0  0  2  0  0  0  0  0  0
  189.3670  174.2340  135.8550 C   0  0  0  0  0  3  0  0  0  0  0  0
  188.3000  176.8020  135.5020 C   0  0  0  0  0  3  0  0  0  0  0  0
  190.1550  175.3630  136.1240 C   0  0  0  0  0  0  0  0  0  0  0  0
  189.6190  176.6460  135.9330 C   0  0  0  0  0  3  0  0  0  0  0  0
  188.0450  174.3880  135.4210 C   0  0  0  0  0  3  0  0  0  0  0  0
  187.5100  175.6730  135.2480 C   0  0  0  0  0  0  0  0  0  0  0  0
  186.0700  175.8470  134.8960 C   0  0  0  0  0  2  0  0  0  0  0  0
  185.2030  175.5280  136.0200 N   0  0  0  0  0  0  0  0  0  0  0  0
  184.6580  174.1730  136.1030 C   0  0  0  0  0  2  0  0  0  0  0  0
  182.6310  175.2200  136.8580 O   0  0  0  0  0  0  0  0  0  0  0  0
  183.4720  174.1160  137.0870 C   0  0  0  0  0  2  0  0  0  0  0  0
  185.2210  177.6810  136.9460 O   0  0  0  0  0  0  0  0  0  0  0  0
  184.6080  176.5850  136.7850 C   0  0  0  0  0  0  0  0  0  0  0  0
  183.2600  176.3490  137.4320 C   0  0  1  0  0  3  0  0  0  0  0  0
  182.3810  177.5810  137.2020 C   0  0  0  0  0  2  0  0  0  0  0  0
  181.1800  176.9500  139.2660 N   0  0  0  0  0  0  0  0  0  0  0  0
  181.9970  179.1220  140.6290 O   0  0  0  0  0  0  0  0  0  0  0  0
  180.7600  178.6750  140.9270 O   0  0  0  0  0  0  0  0  0  0  0  0
  181.6140  178.1050  138.4390 C   0  0  1  0  0  0  0  0  0  0  0  0
  183.5520  179.4800  138.9640 O   0  0  0  0  0  0  0  0  0  0  0  0
  180.1610  176.2910  138.6470 O   0  0  0  0  0  1  0  0  0  0  0  0
  180.7370  177.2870  140.6450 C   0  0  0  0  0  2  0  0  0  0  0  0
  182.4570  178.9780  139.3270 C   0  0  0  0  0  0  0  0  0  0  0  0
  180.3810  178.9020  137.9400 C   0  0  0  0  0  2  0  0  0  0  0  0
  180.6920  180.1720  137.1920 C   0  0  0  0  0  0  0  0  0  0  0  0
  181.0520  180.1360  135.9810 O   0  0  0  0  0  0  0  0  0  0  0  0
  181.4940  182.2430  138.0680 C   0  0  0  0  0  2  0  0  0  0  0  0
  180.5170  181.4220  137.8540 N   0  0  0  0  0  0  0  0  0  0  0  0
  1  3  1  0  0  0  0
  2  4  1  0  0  0  0
  2  5  1  0  0  0  0
  3  2  1  0  0  0  0
  3  6  1  0  0  0  0
  4  5  1  0  0  0  0
  5  7  1  0  0  0  0
  6  4  1  0  0  0  0
  7  9  1  0  0  0  0
  8  7  1  0  0  0  0
  9 10  1  0  0  0  0
 10 11  1  0  0  0  0
 10 13  1  0  0  0  0
 11 15  1  0  0  0  0
 12 19  1  0  0  0  0
 13 14  2  0  0  0  0
 14 15  1  0  0  0  0
 14 12  1  0  0  0  0
 17 13  1  0  0  0  0
 17 18  2  0  0  0  0
 18 16  1  0  0  0  0
 18 12  1  0  0  0  0
 19 20  1  0  0  0  0
 21  1  1  0  0  0  0
 22 23  1  0  0  0  0
 22 21  1  0  0  0  0
 24 23  1  0  0  0  0
 24 25  2  0  0  0  0
 26 25  1  0  0  0  0
 26 27  1  0  0  0  0
 28 30  1  0  0  0  0
 28 29  1  0  0  0  0
 28 27  1  0  0  0  0
 29 27  1  0  0  0  0
 31 30  1  0  0  0  0
 32 31  1  0  0  0  0
 33 34  1  0  0  0  0
 33 32  1  0  0  0  0
 35  1  1  0  0  0  0
 36 38  1  0  0  0  0
 37 39  1  0  0  0  0
 38 35  1  0  0  0  0
 39 38  2  0  0  0  0
 40 36  2  0  0  0  0
 41 40  1  0  0  0  0
 41 37  2  0  0  0  0
 42 41  1  0  0  0  0
 42 43  1  0  0  0  0
 43 44  1  0  0  0  0
 43 48  1  0  0  0  0
 44 46  1  0  0  0  0
 45 46  1  0  0  0  0
 45 49  1  0  0  0  0
 48 47  2  0  0  0  0
 48 49  1  0  0  0  0
 50 49  1  0  0  0  0
 50 54  1  0  0  0  0
 51 57  1  0  0  0  0
 52 53  1  0  0  0  0
 54 51  1  0  0  0  0
 54 58  1  0  0  0  0
 55 58  2  0  0  0  0
 56 51  1  0  0  0  0
 57 53  1  0  0  0  0
 58 52  1  0  0  0  0
 59 54  1  0  0  0  0
 60 63  1  0  0  0  0
 60 59  1  0  0  0  0
 61 60  2  0  0  0  0
 63 62  2  0  0  0  0
M  END
>  <MODEL>
6

>  <REMARK>
 VINA RESULT:      -6.2      3.225     12.244
  Name = 
  24 active torsions:
  status: ('A' for Active; 'I' for Inactive)
    1  A    between atoms: C_1  and  N_27
    2  A    between atoms: C_1  and  C_48
    3  A    between atoms: C_2  and  N_14
    4  A    between atoms: C_2  and  C_57
    5  A    between atoms: C_3  and  C_4
    6  A    between atoms: C_3  and  N_26
    7  A    between atoms: C_4  and  C_34
    8  A    between atoms: N_6  and  C_12
    9  A    between atoms: N_6  and  C_17
   10  A    between atoms: N_6  and  C_45
   11  A    between atoms: C_7  and  C_56
   12  A    between atoms: C_10  and  O_47
   13  A    between atoms: C_12  and  C_31
   14  A    between atoms: C_13  and  C_25
   15  A    between atoms: C_13  and  C_61
   16  A    between atoms: C_15  and  C_39
   17  A    between atoms: C_15  and  O_47
   18  A    between atoms: N_21  and  C_32
   19  A    between atoms: C_22  and  C_29
   20  A    between atoms: C_23  and  C_29
   21  A    between atoms: C_23  and  C_45
   22  A    between atoms: C_25  and  C_48
   23  A    between atoms: N_26  and  C_43
   24  A    between atoms: C_56  and  C_59
                            x       y       z     vdW  Elec       q    Type
                         _______ _______ _______ _____ _____    ______ ____

>  <TORSDO>
F 24

$$$$
=
 OpenBabel10232407453D

 63 70  0  0  1  0  0  0  0  0999 V2000
  190.7410  176.5030  141.3790 N   0  0  0  0  0  0  0  0  0  0  0  0
  191.3000  175.7840  139.0060 C   0  0  2  0  0  3  0  0  0  0  0  0
  190.3850  176.5600  139.9540 C   0  0  2  0  0  3  0  0  0  0  0  0
  191.7990  177.0860  138.4180 C   0  0  1  0  0  3  0  0  0  0  0  0
  190.9430  176.1580  137.5760 C   0  0  1  0  0  3  0  0  0  0  0  0
  190.8990  177.8600  139.3690 C   0  0  0  0  0  2  0  0  0  0  0  0
  191.7860  175.4410  136.5100 C   0  0  2  0  0  3  0  0  0  0  0  0
  191.6540  174.0590  136.6850 O   0  0  0  0  0  1  0  0  0  0  0  0
  193.1480  175.7960  136.5470 O   0  0  0  0  0  0  0  0  0  0  0  0
  193.8360  174.6720  136.0750 C   0  0  1  0  0  3  0  0  0  0  0  0
  194.4580  174.9910  134.7030 C   0  0  0  0  0  2  0  0  0  0  0  0
  197.1670  174.5210  137.4440 N   0  0  0  0  0  0  0  0  0  0  0  0
  194.9710  174.3610  136.9750 C   0  0  0  0  0  0  0  0  0  0  0  0
  196.1630  174.3450  136.4550 C   0  0  0  0  0  0  0  0  0  0  0  0
  196.2850  174.7110  134.7250 S   0  0  0  0  0  0  0  0  0  0  0  0
  196.8890  174.7880  139.8540 C   0  0  0  0  0  1  0  0  0  0  0  0
  194.9900  174.4730  138.3950 N   0  0  0  0  0  0  0  0  0  0  0  0
  196.3940  174.5120  138.6500 C   0  0  0  0  0  0  0  0  0  0  0  0
  198.5430  174.0730  137.2810 C   0  0  0  0  0  2  0  0  0  0  0  0
  198.6020  172.6830  137.2410 O   0  0  0  0  0  1  0  0  0  0  0  0
  191.0180  177.8700  141.7910 C   0  0  0  0  0  2  0  0  0  0  0  0
  191.7490  177.8720  143.1220 C   0  0  0  0  0  2  0  0  0  0  0  0
  191.1710  178.9520  144.0180 C   0  0  0  0  0  2  0  0  0  0  0  0
  190.9560  178.4530  145.4150 C   0  0  0  0  0  3  0  0  0  0  0  0
  190.4760  177.2360  145.6660 C   0  0  0  0  0  3  0  0  0  0  0  0
  190.3120  176.7970  147.0850 C   0  0  0  0  0  2  0  0  0  0  0  0
  188.8410  176.6970  147.4420 C   0  0  2  0  0  3  0  0  0  0  0  0
  188.1530  177.9370  147.0000 C   0  0  2  0  0  3  0  0  0  0  0  0
  188.5030  177.7250  148.3460 O   0  0  0  0  0  0  0  0  0  0  0  0
  186.6470  177.7650  146.7770 C   0  0  0  0  0  2  0  0  0  0  0  0
  185.8500  179.0420  146.5050 C   0  0  0  0  0  2  0  0  0  0  0  0
  184.4610  178.7120  146.2200 N   0  0  0  0  0  2  0  0  0  0  0  0
  184.1180  179.4040  144.9870 C   0  0  0  0  0  2  0  0  0  0  0  0
  182.7700  178.9230  144.5060 C   0  0  0  0  0  1  0  0  0  0  0  0
  189.6550  176.0380  142.2460 C   0  0  0  0  0  2  0  0  0  0  0  0
  188.2320  177.5890  140.8910 C   0  0  0  0  0  3  0  0  0  0  0  0
  186.4680  177.9490  143.0400 C   0  0  0  0  0  3  0  0  0  0  0  0
  188.4750  176.9440  142.1130 C   0  0  0  0  0  0  0  0  0  0  0  0
  187.5950  177.1380  143.1880 C   0  0  0  0  0  3  0  0  0  0  0  0
  187.1030  178.4050  140.7400 C   0  0  0  0  0  3  0  0  0  0  0  0
  186.2190  178.5810  141.8140 C   0  0  0  0  0  0  0  0  0  0  0  0
  184.9560  179.3550  141.6290 C   0  0  0  0  0  2  0  0  0  0  0  0
  184.0600  178.6980  140.6900 N   0  0  0  0  0  0  0  0  0  0  0  0
  183.1600  177.6670  141.2050 C   0  0  0  0  0  2  0  0  0  0  0  0
  183.6290  176.4820  139.1670 O   0  0  0  0  0  0  0  0  0  0  0  0
  182.5900  176.8090  140.0560 C   0  0  0  0  0  2  0  0  0  0  0  0
  184.8550  179.8180  138.7900 O   0  0  0  0  0  0  0  0  0  0  0  0
  184.3170  178.7830  139.2810 C   0  0  0  0  0  0  0  0  0  0  0  0
  183.8910  177.6340  138.3910 C   0  0  1  0  0  3  0  0  0  0  0  0
  185.0240  177.3280  137.4080 C   0  0  0  0  0  2  0  0  0  0  0  0
  184.4320  174.9860  136.8910 N   0  0  0  0  0  0  0  0  0  0  0  0
  182.8600  175.6450  134.8080 O   0  0  0  0  0  0  0  0  0  0  0  0
  183.5350  174.4840  134.6870 O   0  0  0  0  0  0  0  0  0  0  0  0
  184.6890  176.3170  136.2850 C   0  0  1  0  0  0  0  0  0  0  0  0
  182.9240  177.8260  135.5580 O   0  0  0  0  0  0  0  0  0  0  0  0
  185.6020  174.4390  137.3270 O   0  0  0  0  0  1  0  0  0  0  0  0
  183.7710  173.9980  135.9980 C   0  0  0  0  0  2  0  0  0  0  0  0
  183.4530  176.6860  135.5120 C   0  0  0  0  0  0  0  0  0  0  0  0
  185.9040  176.2450  135.3250 C   0  0  0  0  0  2  0  0  0  0  0  0
  186.6980  177.5180  135.1890 C   0  0  0  0  0  0  0  0  0  0  0  0
  186.2640  178.4780  134.4920 O   0  0  0  0  0  0  0  0  0  0  0  0
  188.3810  178.7900  136.3080 C   0  0  0  0  0  2  0  0  0  0  0  0
  187.9220  177.6480  135.9090 N   0  0  0  0  0  0  0  0  0  0  0  0
  1 21  1  0  0  0  0
  1 35  1  0  0  0  0
  2  3  1  0  0  0  0
  3  1  1  0  0  0  0
  4  2  1  0  0  0  0
  4  6  1  0  0  0  0
  5  4  1  0  0  0  0
  5  2  1  0  0  0  0
  6  3  1  0  0  0  0
  7  9  1  0  0  0  0
  7  8  1  0  0  0  0
  7  5  1  0  0  0  0
 10  9  1  0  0  0  0
 10 13  1  0  0  0  0
 11 15  1  0  0  0  0
 11 10  1  0  0  0  0
 12 18  1  0  0  0  0
 13 17  1  0  0  0  0
 14 13  2  0  0  0  0
 14 12  1  0  0  0  0
 15 14  1  0  0  0  0
 17 18  2  0  0  0  0
 18 16  1  0  0  0  0
 19 12  1  0  0  0  0
 20 19  1  0  0  0  0
 21 22  1  0  0  0  0
 22 23  1  0  0  0  0
 23 24  1  0  0  0  0
 24 25  2  0  0  0  0
 25 26  1  0  0  0  0
 26 27  1  0  0  0  0
 27 29  1  0  0  0  0
 28 27  1  0  0  0  0
 28 29  1  0  0  0  0
 30 28  1  0  0  0  0
 31 30  1  0  0  0  0
 32 31  1  0  0  0  0
 33 32  1  0  0  0  0
 34 33  1  0  0  0  0
 36 38  1  0  0  0  0
 37 39  1  0  0  0  0
 38 35  1  0  0  0  0
 38 39  2  0  0  0  0
 40 36  2  0  0  0  0
 40 41  1  0  0  0  0
 41 37  2  0  0  0  0
 42 41  1  0  0  0  0
 43 44  1  0  0  0  0
 43 42  1  0  0  0  0
 45 46  1  0  0  0  0
 46 44  1  0  0  0  0
 47 48  2  0  0  0  0
 48 43  1  0  0  0  0
 49 45  1  0  0  0  0
 49 48  1  0  0  0  0
 50 49  1  0  0  0  0
 51 56  1  0  0  0  0
 52 58  1  0  0  0  0
 53 52  1  0  0  0  0
 53 57  1  0  0  0  0
 54 51  1  0  0  0  0
 54 50  1  0  0  0  0
 57 51  1  0  0  0  0
 58 55  2  0  0  0  0
 58 54  1  0  0  0  0
 59 54  1  0  0  0  0
 60 59  1  0  0  0  0
 60 63  1  0  0  0  0
 61 60  2  0  0  0  0
 63 62  2  0  0  0  0
M  END
>  <MODEL>
7

>  <REMARK>
 VINA RESULT:      -6.0      2.760      9.776
  Name = 
  24 active torsions:
  status: ('A' for Active; 'I' for Inactive)
    1  A    between atoms: C_1  and  N_27
    2  A    between atoms: C_1  and  C_48
    3  A    between atoms: C_2  and  N_14
    4  A    between atoms: C_2  and  C_57
    5  A    between atoms: C_3  and  C_4
    6  A    between atoms: C_3  and  N_26
    7  A    between atoms: C_4  and  C_34
    8  A    between atoms: N_6  and  C_12
    9  A    between atoms: N_6  and  C_17
   10  A    between atoms: N_6  and  C_45
   11  A    between atoms: C_7  and  C_56
   12  A    between atoms: C_10  and  O_47
   13  A    between atoms: C_12  and  C_31
   14  A    between atoms: C_13  and  C_25
   15  A    between atoms: C_13  and  C_61
   16  A    between atoms: C_15  and  C_39
   17  A    between atoms: C_15  and  O_47
   18  A    between atoms: N_21  and  C_32
   19  A    between atoms: C_22  and  C_29
   20  A    between atoms: C_23  and  C_29
   21  A    between atoms: C_23  and  C_45
   22  A    between atoms: C_25  and  C_48
   23  A    between atoms: N_26  and  C_43
   24  A    between atoms: C_56  and  C_59
                            x       y       z     vdW  Elec       q    Type
                         _______ _______ _______ _____ _____    ______ ____

>  <TORSDO>
F 24

$$$$
=
 OpenBabel10232407453D

 63 70  0  0  1  0  0  0  0  0999 V2000
  192.0060  176.4420  137.6650 N   0  0  0  0  0  0  0  0  0  0  0  0
  190.4720  176.6550  139.6810 C   0  0  2  0  0  3  0  0  0  0  0  0
  191.8160  176.2080  139.1040 C   0  0  2  0  0  3  0  0  0  0  0  0
  191.1680  177.7490  140.4610 C   0  0  1  0  0  3  0  0  0  0  0  0
  190.5480  176.5770  141.1980 C   0  0  1  0  0  3  0  0  0  0  0  0
  192.5040  177.3150  139.8790 C   0  0  0  0  0  2  0  0  0  0  0  0
  189.2540  176.9940  141.9130 C   0  0  2  0  0  3  0  0  0  0  0  0
  188.4610  177.7260  141.0220 O   0  0  0  0  0  1  0  0  0  0  0  0
  189.4810  177.7510  143.0780 O   0  0  0  0  0  0  0  0  0  0  0  0
  189.0800  176.9290  144.1380 C   0  0  1  0  0  3  0  0  0  0  0  0
  190.0190  177.1470  145.3390 C   0  0  0  0  0  2  0  0  0  0  0  0
  186.4370  178.4670  146.0450 N   0  0  0  0  0  0  0  0  0  0  0  0
  187.7280  177.3240  144.5990 C   0  0  0  0  0  0  0  0  0  0  0  0
  187.5990  177.6750  145.8450 C   0  0  0  0  0  0  0  0  0  0  0  0
  189.0650  177.6490  146.8400 S   0  0  0  0  0  0  0  0  0  0  0  0
  184.7640  179.1470  144.4020 C   0  0  0  0  0  1  0  0  0  0  0  0
  186.6430  177.7580  143.7870 N   0  0  0  0  0  0  0  0  0  0  0  0
  185.8250  178.4230  144.7500 C   0  0  0  0  0  0  0  0  0  0  0  0
  185.7620  178.5950  147.3290 C   0  0  0  0  0  2  0  0  0  0  0  0
  184.4690  178.0860  147.2530 O   0  0  0  0  0  1  0  0  0  0  0  0
  193.4310  176.3100  137.4100 C   0  0  0  0  0  2  0  0  0  0  0  0
  193.7050  176.4340  135.9210 C   0  0  0  0  0  2  0  0  0  0  0  0
  194.8550  175.5220  135.5380 C   0  0  0  0  0  2  0  0  0  0  0  0
  194.3670  174.1730  135.1010 C   0  0  0  0  0  3  0  0  0  0  0  0
  194.5580  173.0790  135.8370 C   0  0  0  0  0  3  0  0  0  0  0  0
  194.0210  171.7720  135.3500 C   0  0  0  0  0  2  0  0  0  0  0  0
  194.7730  170.6200  135.9880 C   0  0  2  0  0  3  0  0  0  0  0  0
  194.2260  169.3410  135.4680 C   0  0  2  0  0  3  0  0  0  0  0  0
  193.8800  169.8300  136.7400 O   0  0  0  0  0  0  0  0  0  0  0  0
  195.2030  168.1640  135.5660 C   0  0  0  0  0  2  0  0  0  0  0  0
  195.8820  167.9550  136.9210 C   0  0  0  0  0  2  0  0  0  0  0  0
  197.2390  168.4800  136.8850 N   0  0  0  0  0  2  0  0  0  0  0  0
  197.7970  168.2690  138.2120 C   0  0  0  0  0  2  0  0  0  0  0  0
  199.1440  168.9470  138.2980 C   0  0  0  0  0  1  0  0  0  0  0  0
  191.3550  175.4450  136.8100 C   0  0  0  0  0  2  0  0  0  0  0  0
  189.0860  175.0720  135.8170 C   0  0  0  0  0  3  0  0  0  0  0  0
  188.4780  177.8010  136.0270 C   0  0  0  0  0  3  0  0  0  0  0  0
  190.0360  175.9650  136.3360 C   0  0  0  0  0  0  0  0  0  0  0  0
  189.7310  177.3310  136.4270 C   0  0  0  0  0  3  0  0  0  0  0  0
  187.8300  175.5420  135.4140 C   0  0  0  0  0  3  0  0  0  0  0  0
  187.5250  176.9060  135.5220 C   0  0  0  0  0  0  0  0  0  0  0  0
  186.1530  177.3980  135.2030 C   0  0  0  0  0  2  0  0  0  0  0  0
  185.1630  176.8570  136.1230 N   0  0  0  0  0  0  0  0  0  0  0  0
  184.3280  175.7500  135.6600 C   0  0  0  0  0  2  0  0  0  0  0  0
  182.5370  176.8330  136.8410 O   0  0  0  0  0  0  0  0  0  0  0  0
  183.0960  175.5720  136.5710 C   0  0  0  0  0  2  0  0  0  0  0  0
  185.5950  178.3830  137.8490 O   0  0  0  0  0  0  0  0  0  0  0  0
  184.7680  177.6190  137.2720 C   0  0  0  0  0  0  0  0  0  0  0  0
  183.3610  177.4560  137.8070 C   0  0  1  0  0  3  0  0  0  0  0  0
  182.7940  178.8410  138.1300 C   0  0  0  0  0  2  0  0  0  0  0  0
  181.4550  177.7550  139.8990 N   0  0  0  0  0  0  0  0  0  0  0  0
  182.7760  178.9700  141.9050 O   0  0  0  0  0  0  0  0  0  0  0  0
  181.4630  178.7450  142.1200 O   0  0  0  0  0  0  0  0  0  0  0  0
  182.1700  179.0050  139.5360 C   0  0  1  0  0  0  0  0  0  0  0  0
  184.3860  179.5740  140.3680 O   0  0  0  0  0  0  0  0  0  0  0  0
  180.3080  177.6470  139.1700 O   0  0  0  0  0  1  0  0  0  0  0  0
  181.0970  177.6220  141.3360 C   0  0  0  0  0  2  0  0  0  0  0  0
  183.1970  179.2410  140.6100 C   0  0  0  0  0  0  0  0  0  0  0  0
  181.1810  180.1970  139.4880 C   0  0  0  0  0  2  0  0  0  0  0  0
  181.4210  181.1930  138.3840 C   0  0  0  0  0  0  0  0  0  0  0  0
  182.3390  182.0560  138.4810 O   0  0  0  0  0  0  0  0  0  0  0  0
  180.7520  181.9510  136.2200 C   0  0  0  0  0  2  0  0  0  0  0  0
  180.6340  181.1100  137.1970 N   0  0  0  0  0  0  0  0  0  0  0  0
  1  3  1  0  0  0  0
  2  4  1  0  0  0  0
  2  5  1  0  0  0  0
  3  2  1  0  0  0  0
  3  6  1  0  0  0  0
  4  5  1  0  0  0  0
  5  7  1  0  0  0  0
  6  4  1  0  0  0  0
  7  9  1  0  0  0  0
  8  7  1  0  0  0  0
  9 10  1  0  0  0  0
 10 13  1  0  0  0  0
 10 11  1  0  0  0  0
 11 15  1  0  0  0  0
 12 19  1  0  0  0  0
 13 14  2  0  0  0  0
 14 12  1  0  0  0  0
 14 15  1  0  0  0  0
 16 18  1  0  0  0  0
 17 13  1  0  0  0  0
 17 18  2  0  0  0  0
 18 12  1  0  0  0  0
 20 19  1  0  0  0  0
 21  1  1  0  0  0  0
 22 21  1  0  0  0  0
 23 22  1  0  0  0  0
 24 23  1  0  0  0  0
 24 25  2  0  0  0  0
 26 25  1  0  0  0  0
 26 27  1  0  0  0  0
 27 29  1  0  0  0  0
 28 30  1  0  0  0  0
 28 27  1  0  0  0  0
 28 29  1  0  0  0  0
 30 31  1  0  0  0  0
 32 31  1  0  0  0  0
 32 33  1  0  0  0  0
 33 34  1  0  0  0  0
 35  1  1  0  0  0  0
 36 38  1  0  0  0  0
 37 39  1  0  0  0  0
 38 39  2  0  0  0  0
 38 35  1  0  0  0  0
 40 41  1  0  0  0  0
 40 36  2  0  0  0  0
 41 37  2  0  0  0  0
 42 41  1  0  0  0  0
 42 43  1  0  0  0  0
 43 48  1  0  0  0  0
 44 43  1  0  0  0  0
 44 46  1  0  0  0  0
 45 49  1  0  0  0  0
 46 45  1  0  0  0  0
 48 49  1  0  0  0  0
 48 47  2  0  0  0  0
 49 50  1  0  0  0  0
 50 54  1  0  0  0  0
 51 57  1  0  0  0  0
 52 53  1  0  0  0  0
 54 51  1  0  0  0  0
 54 58  1  0  0  0  0
 55 58  2  0  0  0  0
 56 51  1  0  0  0  0
 57 53  1  0  0  0  0
 58 52  1  0  0  0  0
 59 54  1  0  0  0  0
 60 61  2  0  0  0  0
 60 59  1  0  0  0  0
 62 63  2  0  0  0  0
 63 60  1  0  0  0  0
M  END
>  <MODEL>
8

>  <REMARK>
 VINA RESULT:      -5.9      3.449     12.099
  Name = 
  24 active torsions:
  status: ('A' for Active; 'I' for Inactive)
    1  A    between atoms: C_1  and  N_27
    2  A    between atoms: C_1  and  C_48
    3  A    between atoms: C_2  and  N_14
    4  A    between atoms: C_2  and  C_57
    5  A    between atoms: C_3  and  C_4
    6  A    between atoms: C_3  and  N_26
    7  A    between atoms: C_4  and  C_34
    8  A    between atoms: N_6  and  C_12
    9  A    between atoms: N_6  and  C_17
   10  A    between atoms: N_6  and  C_45
   11  A    between atoms: C_7  and  C_56
   12  A    between atoms: C_10  and  O_47
   13  A    between atoms: C_12  and  C_31
   14  A    between atoms: C_13  and  C_25
   15  A    between atoms: C_13  and  C_61
   16  A    between atoms: C_15  and  C_39
   17  A    between atoms: C_15  and  O_47
   18  A    between atoms: N_21  and  C_32
   19  A    between atoms: C_22  and  C_29
   20  A    between atoms: C_23  and  C_29
   21  A    between atoms: C_23  and  C_45
   22  A    between atoms: C_25  and  C_48
   23  A    between atoms: N_26  and  C_43
   24  A    between atoms: C_56  and  C_59
                            x       y       z     vdW  Elec       q    Type
                         _______ _______ _______ _____ _____    ______ ____

>  <TORSDO>
F 24

$$$$
=
 OpenBabel10232407453D

 63 70  0  0  1  0  0  0  0  0999 V2000
  183.2600  177.8630  139.9600 N   0  0  0  0  0  0  0  0  0  0  0  0
  182.3370  176.3550  138.1330 C   0  0  2  0  0  3  0  0  0  0  0  0
  182.7300  176.5400  139.5990 C   0  0  2  0  0  3  0  0  0  0  0  0
  180.8790  176.2760  138.5320 C   0  0  1  0  0  3  0  0  0  0  0  0
  181.5820  175.0420  137.9970 C   0  0  1  0  0  3  0  0  0  0  0  0
  181.2660  176.4720  139.9890 C   0  0  0  0  0  2  0  0  0  0  0  0
  181.1300  174.7240  136.5640 C   0  0  2  0  0  3  0  0  0  0  0  0
  180.0780  173.8020  136.6170 O   0  0  0  0  0  1  0  0  0  0  0  0
  182.1640  174.2170  135.7540 O   0  0  0  0  0  0  0  0  0  0  0  0
  182.3890  172.9140  136.2120 C   0  0  1  0  0  3  0  0  0  0  0  0
  182.0970  171.9140  135.0780 C   0  0  0  0  0  2  0  0  0  0  0  0
  185.8750  172.0340  135.9630 N   0  0  0  0  0  0  0  0  0  0  0  0
  183.8200  172.7390  136.5530 C   0  0  0  0  0  0  0  0  0  0  0  0
  184.4740  171.8020  135.9320 C   0  0  0  0  0  0  0  0  0  0  0  0
  183.5710  170.8520  134.7390 S   0  0  0  0  0  0  0  0  0  0  0  0
  187.0840  173.8670  137.0290 C   0  0  0  0  0  1  0  0  0  0  0  0
  184.6760  173.7000  137.1600 N   0  0  0  0  0  0  0  0  0  0  0  0
  185.9620  173.1840  136.8120 C   0  0  0  0  0  0  0  0  0  0  0  0
  186.8690  170.9800  135.8100 C   0  0  0  0  0  2  0  0  0  0  0  0
  188.0570  171.5010  135.3060 O   0  0  0  0  0  1  0  0  0  0  0  0
  183.2570  178.6550  138.7400 C   0  0  0  0  0  2  0  0  0  0  0  0
  184.6710  179.1040  138.4110 C   0  0  0  0  0  2  0  0  0  0  0  0
  185.6580  178.0430  138.8590 C   0  0  0  0  0  2  0  0  0  0  0  0
  186.5030  177.5590  137.7180 C   0  0  0  0  0  3  0  0  0  0  0  0
  187.3740  178.3520  137.0970 C   0  0  0  0  0  3  0  0  0  0  0  0
  188.2010  177.7930  135.9850 C   0  0  0  0  0  2  0  0  0  0  0  0
  189.5950  177.4580  136.4780 C   0  0  2  0  0  3  0  0  0  0  0  0
  190.0510  176.2060  135.8200 C   0  0  2  0  0  3  0  0  0  0  0  0
  189.5750  176.2150  137.1440 O   0  0  0  0  0  0  0  0  0  0  0  0
  191.5750  176.0500  135.7720 C   0  0  0  0  0  2  0  0  0  0  0  0
  192.1370  174.7140  136.2620 C   0  0  0  0  0  2  0  0  0  0  0  0
  193.4960  174.5360  135.7710 N   0  0  0  0  0  2  0  0  0  0  0  0
  193.5030  173.2880  135.0240 C   0  0  0  0  0  2  0  0  0  0  0  0
  193.5290  172.1290  135.9920 C   0  0  0  0  0  1  0  0  0  0  0  0
  182.4260  178.5980  140.9140 C   0  0  0  0  0  2  0  0  0  0  0  0
  184.4580  179.3280  142.1810 C   0  0  0  0  0  3  0  0  0  0  0  0
  183.2520  178.6630  144.6230 C   0  0  0  0  0  3  0  0  0  0  0  0
  183.1660  178.7840  142.1990 C   0  0  0  0  0  0  0  0  0  0  0  0
  182.5720  178.4410  143.4230 C   0  0  0  0  0  3  0  0  0  0  0  0
  185.1430  179.5500  143.3820 C   0  0  0  0  0  3  0  0  0  0  0  0
  184.5380  179.2200  144.6040 C   0  0  0  0  0  0  0  0  0  0  0  0
  185.2110  179.5570  145.8920 C   0  0  0  0  0  2  0  0  0  0  0  0
  186.2120  178.5620  146.2490 N   0  0  0  0  0  0  0  0  0  0  0  0
  186.6040  178.4560  147.6530 C   0  0  0  0  0  2  0  0  0  0  0  0
  188.8360  178.1180  146.8260 O   0  0  0  0  0  0  0  0  0  0  0  0
  187.9240  177.6700  147.7980 C   0  0  0  0  0  2  0  0  0  0  0  0
  186.5950  177.8240  144.0570 O   0  0  0  0  0  0  0  0  0  0  0  0
  187.0430  177.9900  145.2290 C   0  0  0  0  0  0  0  0  0  0  0  0
  188.4440  177.5470  145.5930 C   0  0  1  0  0  3  0  0  0  0  0  0
  189.4070  178.0130  144.4980 C   0  0  0  0  0  2  0  0  0  0  0  0
  191.1750  176.4790  145.2900 N   0  0  0  0  0  0  0  0  0  0  0  0
  190.7490  174.6780  143.3350 O   0  0  0  0  0  0  0  0  0  0  0  0
  192.0290  174.8100  143.7420 O   0  0  0  0  0  0  0  0  0  0  0  0
  190.4930  176.9950  144.0750 C   0  0  1  0  0  0  0  0  0  0  0  0
  188.7660  175.7650  142.8800 O   0  0  0  0  0  0  0  0  0  0  0  0
  191.9810  177.4440  145.8160 O   0  0  0  0  0  1  0  0  0  0  0  0
  191.9960  175.2570  145.0870 C   0  0  0  0  0  2  0  0  0  0  0  0
  189.9300  175.8000  143.3570 C   0  0  0  0  0  0  0  0  0  0  0  0
  191.5070  177.7260  143.1580 C   0  0  0  0  0  2  0  0  0  0  0  0
  191.1950  177.6840  141.6850 C   0  0  0  0  0  0  0  0  0  0  0  0
  190.0580  178.0300  141.2560 O   0  0  0  0  0  0  0  0  0  0  0  0
  191.9730  176.8950  139.5700 C   0  0  0  0  0  2  0  0  0  0  0  0
  192.2220  177.3020  140.7730 N   0  0  0  0  0  0  0  0  0  0  0  0
  1 35  1  0  0  0  0
  2  4  1  0  0  0  0
  2  3  1  0  0  0  0
  3  1  1  0  0  0  0
  3  6  1  0  0  0  0
  4  6  1  0  0  0  0
  5  2  1  0  0  0  0
  5  4  1  0  0  0  0
  7  8  1  0  0  0  0
  7  5  1  0  0  0  0
  9 10  1  0  0  0  0
  9  7  1  0  0  0  0
 10 13  1  0  0  0  0
 11 10  1  0  0  0  0
 12 18  1  0  0  0  0
 13 17  1  0  0  0  0
 14 12  1  0  0  0  0
 14 13  2  0  0  0  0
 15 11  1  0  0  0  0
 15 14  1  0  0  0  0
 18 16  1  0  0  0  0
 18 17  2  0  0  0  0
 19 12  1  0  0  0  0
 20 19  1  0  0  0  0
 21  1  1  0  0  0  0
 22 21  1  0  0  0  0
 22 23  1  0  0  0  0
 24 23  1  0  0  0  0
 25 24  2  0  0  0  0
 26 27  1  0  0  0  0
 26 25  1  0  0  0  0
 27 29  1  0  0  0  0
 28 27  1  0  0  0  0
 28 29  1  0  0  0  0
 30 28  1  0  0  0  0
 30 31  1  0  0  0  0
 32 31  1  0  0  0  0
 33 32  1  0  0  0  0
 33 34  1  0  0  0  0
 35 38  1  0  0  0  0
 36 38  2  0  0  0  0
 36 40  1  0  0  0  0
 38 39  1  0  0  0  0
 39 37  2  0  0  0  0
 40 41  2  0  0  0  0
 41 37  1  0  0  0  0
 41 42  1  0  0  0  0
 42 43  1  0  0  0  0
 43 44  1  0  0  0  0
 44 46  1  0  0  0  0
 45 46  1  0  0  0  0
 47 48  2  0  0  0  0
 48 49  1  0  0  0  0
 48 43  1  0  0  0  0
 49 45  1  0  0  0  0
 50 49  1  0  0  0  0
 51 56  1  0  0  0  0
 52 58  1  0  0  0  0
 52 53  1  0  0  0  0
 53 57  1  0  0  0  0
 54 50  1  0  0  0  0
 54 51  1  0  0  0  0
 55 58  2  0  0  0  0
 57 51  1  0  0  0  0
 58 54  1  0  0  0  0
 59 54  1  0  0  0  0
 60 59  1  0  0  0  0
 61 60  2  0  0  0  0
 62 63  2  0  0  0  0
 63 60  1  0  0  0  0
M  END
>  <MODEL>
9

>  <REMARK>
 VINA RESULT:      -5.8      3.078      7.757
  Name = 
  24 active torsions:
  status: ('A' for Active; 'I' for Inactive)
    1  A    between atoms: C_1  and  N_27
    2  A    between atoms: C_1  and  C_48
    3  A    between atoms: C_2  and  N_14
    4  A    between atoms: C_2  and  C_57
    5  A    between atoms: C_3  and  C_4
    6  A    between atoms: C_3  and  N_26
    7  A    between atoms: C_4  and  C_34
    8  A    between atoms: N_6  and  C_12
    9  A    between atoms: N_6  and  C_17
   10  A    between atoms: N_6  and  C_45
   11  A    between atoms: C_7  and  C_56
   12  A    between atoms: C_10  and  O_47
   13  A    between atoms: C_12  and  C_31
   14  A    between atoms: C_13  and  C_25
   15  A    between atoms: C_13  and  C_61
   16  A    between atoms: C_15  and  C_39
   17  A    between atoms: C_15  and  O_47
   18  A    between atoms: N_21  and  C_32
   19  A    between atoms: C_22  and  C_29
   20  A    between atoms: C_23  and  C_29
   21  A    between atoms: C_23  and  C_45
   22  A    between atoms: C_25  and  C_48
   23  A    between atoms: N_26  and  C_43
   24  A    between atoms: C_56  and  C_59
                            x       y       z     vdW  Elec       q    Type
                         _______ _______ _______ _____ _____    ______ ____

>  <TORSDO>
F 24

$$$$
