=
 OpenBabel10232409263D

 52 57  0  0  1  0  0  0  0  0999 V2000
  188.6070  177.7170  138.1320 O   0  0  0  0  0  0  0  0  0  0  0  0
  188.1200  178.0570  139.3140 C   0  0  0  0  0  0  0  0  0  0  0  0
  190.7470  176.8670  137.3650 C   0  0  0  0  0  3  0  0  0  0  0  0
  189.8420  177.3160  138.3240 C   0  0  0  0  0  0  0  0  0  0  0  0
  192.3680  176.5660  139.1770 C   0  0  0  0  0  3  0  0  0  0  0  0
  192.0290  176.4830  137.8030 C   0  0  0  0  0  0  0  0  0  0  0  0
  190.1760  177.3910  139.6530 C   0  0  0  0  0  0  0  0  0  0  0  0
  189.0670  177.8660  140.3110 C   0  0  0  0  0  0  0  0  0  0  0  0
  191.4350  177.0260  140.1220 C   0  0  0  0  0  3  0  0  0  0  0  0
  193.0290  175.9950  136.8020 C   0  0  1  0  0  3  0  0  0  0  0  0
  193.9650  177.0070  136.5610 O   0  0  0  0  0  1  0  0  0  0  0  0
  195.2390  174.8840  137.2430 C   0  0  0  0  0  2  0  0  0  0  0  0
  195.9280  173.7040  137.7870 N   0  0  0  0  0  0  0  0  0  0  0  0
  195.6830  172.6030  136.8290 C   0  0  2  0  0  3  0  0  0  0  0  0
  193.3790  173.5230  136.3540 C   0  0  1  0  0  3  0  0  0  0  0  0
  192.0230  173.2100  136.4380 O   0  0  0  0  0  1  0  0  0  0  0  0
  193.7220  174.7020  137.2670 C   0  0  2  0  0  3  0  0  0  0  0  0
  194.1850  172.2950  136.7510 C   0  0  0  0  0  2  0  0  0  0  0  0
  197.6330  174.8940  138.9270 O   0  0  0  0  0  1  0  0  0  0  0  0
  197.3700  174.0400  137.8530 C   0  0  2  0  0  3  0  0  0  0  0  0
  197.8500  174.7280  136.6020 C   0  0  0  0  0  0  0  0  0  0  0  0
  198.3820  173.9160  135.4720 C   0  0  0  0  0  1  0  0  0  0  0  0
  197.7940  175.9420  136.5000 O   0  0  0  0  0  0  0  0  0  0  0  0
  196.3690  171.3020  137.2400 C   0  0  0  0  0  2  0  0  0  0  0  0
  195.3740  170.1500  137.2540 C   0  0  0  0  0  2  0  0  0  0  0  0
  194.7270  168.7570  139.3300 C   0  0  0  0  0  1  0  0  0  0  0  0
  196.8460  168.6560  138.3320 O   0  0  0  0  0  0  0  0  0  0  0  0
  195.7310  169.1480  138.3040 C   0  0  0  0  0  0  0  0  0  0  0  0
  186.8260  178.5300  139.5250 O   0  0  0  0  0  0  0  0  0  0  0  0
  180.6770  177.8360  138.6300 C   0  0  0  0  0  1  0  0  0  0  0  0
  185.7820  178.2710  138.5960 C   0  0  2  0  0  3  0  0  0  0  0  0
  184.3170  179.0760  140.6040 C   0  0  0  0  0  2  0  0  0  0  0  0
  183.3690  178.1750  141.3810 C   0  0  0  0  0  2  0  0  0  0  0  0
  182.0440  178.0870  140.6790 C   0  0  0  0  0  0  0  0  0  0  0  0
  185.0830  179.4660  138.3320 O   0  0  0  0  0  0  0  0  0  0  0  0
  183.2420  177.8860  138.4950 C   0  0  0  0  0  2  0  0  0  0  0  0
  184.4450  178.5420  139.1780 C   0  0  1  0  0  0  0  0  0  0  0  0
  180.5860  178.1870  141.6620 Cl  0  0  0  0  0  0  0  0  0  0  0  0
  181.9870  177.9510  139.3370 C   0  0  0  0  0  0  0  0  0  0  0  0
  188.9330  178.1770  141.7610 C   0  0  0  0  0  2  0  0  0  0  0  0
  188.7490  176.8900  142.5440 C   0  0  0  0  0  2  0  0  0  0  0  0
  189.4080  176.9940  143.9200 C   0  0  2  0  0  3  0  0  0  0  0  0
  187.9840  177.6480  147.1710 C   0  0  0  0  0  0  0  0  0  0  0  0
  187.1150  177.4880  144.9720 C   0  0  1  0  0  3  0  0  0  0  0  0
  188.0530  177.6340  148.4990 C   0  0  0  0  0  2  0  0  0  0  0  0
  186.7060  177.5360  146.4340 C   0  0  0  0  0  2  0  0  0  0  0  0
  186.3570  178.4000  144.2400 O   0  0  0  0  0  1  0  0  0  0  0  0
  189.1750  177.7770  146.3000 C   0  0  0  0  0  2  0  0  0  0  0  0
  188.6020  177.8630  144.8960 C   0  0  1  0  0  3  0  0  0  0  0  0
  191.6720  176.6750  144.6360 F   0  0  0  0  0  0  0  0  0  0  0  0
  190.8670  177.4400  143.8120 C   0  0  0  0  0  3  0  0  0  0  0  0
  191.0100  178.7810  144.1260 F   0  0  0  0  0  0  0  0  0  0  0  0
  1  4  1  0  0  0  0
  1  2  1  0  0  0  0
  2 29  1  0  0  0  0
  2  8  2  0  0  0  0
  3  6  2  0  0  0  0
  3  4  1  0  0  0  0
  4  7  2  0  0  0  0
  5  9  2  0  0  0  0
  6  5  1  0  0  0  0
  7  9  1  0  0  0  0
  7  8  1  0  0  0  0
  8 40  1  0  0  0  0
 10 11  1  1  0  0  0
 10  6  1  0  0  0  0
 12 17  1  0  0  0  0
 12 13  1  0  0  0  0
 13 20  1  0  0  0  0
 14 24  1  1  0  0  0
 14 13  1  0  0  0  0
 15 16  1  1  0  0  0
 15 18  1  0  0  0  0
 15 17  1  0  0  0  0
 17 10  1  6  0  0  0
 18 14  1  0  0  0  0
 20 19  1  1  0  0  0
 21 20  1  0  0  0  0
 22 21  1  0  0  0  0
 23 21  2  0  0  0  0
 24 25  1  0  0  0  0
 25 28  1  0  0  0  0
 28 27  2  0  0  0  0
 28 26  1  0  0  0  0
 30 39  1  0  0  0  0
 31 37  1  0  0  0  0
 31 29  1  1  0  0  0
 32 33  1  0  0  0  0
 34 33  1  0  0  0  0
 34 38  1  0  0  0  0
 35 31  1  0  0  0  0
 35 37  1  0  0  0  0
 36 39  1  0  0  0  0
 37 36  1  6  0  0  0
 37 32  1  0  0  0  0
 39 34  2  0  0  0  0
 40 41  1  0  0  0  0
 42 41  1  6  0  0  0
 43 45  2  0  0  0  0
 44 47  1  6  0  0  0
 44 46  1  0  0  0  0
 46 43  1  0  0  0  0
 48 43  1  0  0  0  0
 49 42  1  6  0  0  0
 49 44  1  0  0  0  0
 49 48  1  0  0  0  0
 51 42  1  0  0  0  0
 51 52  1  0  0  0  0
 51 50  1  0  0  0  0
M  END
>  <MODEL>
1

>  <REMARK>
 VINA RESULT:      -9.4      0.000      0.000
  Name = 
  14 active torsions:
  status: ('A' for Active; 'I' for Inactive)
    1  A    between atoms: C_4  and  C_28
    2  A    between atoms: C_4  and  C_45
    3  A    between atoms: O_6  and  C_10
    4  A    between atoms: O_6  and  C_17
    5  A    between atoms: N_9  and  C_50
    6  A    between atoms: C_16  and  C_21
    7  A    between atoms: C_18  and  C_50
    8  A    between atoms: C_21  and  C_42
    9  A    between atoms: C_21  and  C_47
   10  A    between atoms: C_30  and  C_36
   11  A    between atoms: C_36  and  C_44
   12  A    between atoms: C_37  and  C_45
   13  A    between atoms: C_38  and  C_40
   14  A    between atoms: C_40  and  C_47
                            x       y       z     vdW  Elec       q    Type
                         _______ _______ _______ _____ _____    ______ ____

>  <TORSDO>
F 14

$$$$
=
 OpenBabel10232409263D

 52 57  0  0  1  0  0  0  0  0999 V2000
  188.6910  177.7780  139.2140 O   0  0  0  0  0  0  0  0  0  0  0  0
  188.4390  178.1800  140.4490 C   0  0  0  0  0  0  0  0  0  0  0  0
  190.6530  176.9000  138.0860 C   0  0  0  0  0  3  0  0  0  0  0  0
  189.9460  177.3950  139.1800 C   0  0  0  0  0  0  0  0  0  0  0  0
  192.6020  176.7070  139.5590 C   0  0  0  0  0  3  0  0  0  0  0  0
  192.0010  176.5480  138.2840 C   0  0  0  0  0  0  0  0  0  0  0  0
  190.5330  177.5450  140.4120 C   0  0  0  0  0  0  0  0  0  0  0  0
  189.5660  178.0490  141.2490 C   0  0  0  0  0  0  0  0  0  0  0  0
  191.8650  177.2120  140.6430 C   0  0  0  0  0  3  0  0  0  0  0  0
  192.7940  176.0120  137.1330 C   0  0  1  0  0  3  0  0  0  0  0  0
  193.7130  176.9820  136.7190 O   0  0  0  0  0  1  0  0  0  0  0  0
  195.0210  174.9050  137.4970 C   0  0  0  0  0  2  0  0  0  0  0  0
  195.7260  173.6940  137.9440 N   0  0  0  0  0  0  0  0  0  0  0  0
  195.5090  172.6760  136.8910 C   0  0  2  0  0  3  0  0  0  0  0  0
  193.1920  173.5940  136.4750 C   0  0  1  0  0  3  0  0  0  0  0  0
  191.8420  173.2510  136.5190 O   0  0  0  0  0  1  0  0  0  0  0  0
  193.5070  174.6950  137.4910 C   0  0  2  0  0  3  0  0  0  0  0  0
  194.0170  172.3500  136.7730 C   0  0  0  0  0  2  0  0  0  0  0  0
  197.3780  174.9270  139.1170 O   0  0  0  0  0  1  0  0  0  0  0  0
  197.1610  174.0480  138.0520 C   0  0  2  0  0  3  0  0  0  0  0  0
  197.6770  174.7160  136.8040 C   0  0  0  0  0  0  0  0  0  0  0  0
  198.2900  173.8920  135.7260 C   0  0  0  0  0  1  0  0  0  0  0  0
  197.5840  175.9240  136.6630 O   0  0  0  0  0  0  0  0  0  0  0  0
  196.2150  171.3570  137.1950 C   0  0  0  0  0  2  0  0  0  0  0  0
  195.2080  170.2860  137.5930 C   0  0  0  0  0  2  0  0  0  0  0  0
  196.9440  168.4520  137.0570 C   0  0  0  0  0  1  0  0  0  0  0  0
  194.7010  168.3250  136.3860 O   0  0  0  0  0  0  0  0  0  0  0  0
  195.5530  168.9720  136.9720 C   0  0  0  0  0  0  0  0  0  0  0  0
  187.2040  178.6560  140.8850 O   0  0  0  0  0  0  0  0  0  0  0  0
  180.9640  178.2830  140.9960 C   0  0  0  0  0  1  0  0  0  0  0  0
  186.0150  178.4160  140.1450 C   0  0  2  0  0  3  0  0  0  0  0  0
  184.9290  179.3990  142.3090 C   0  0  0  0  0  2  0  0  0  0  0  0
  184.0710  178.5920  143.2720 C   0  0  0  0  0  2  0  0  0  0  0  0
  182.6480  178.5500  142.7900 C   0  0  0  0  0  0  0  0  0  0  0  0
  185.3440  179.6360  139.9270 O   0  0  0  0  0  0  0  0  0  0  0  0
  183.4750  178.1760  140.4620 C   0  0  0  0  0  2  0  0  0  0  0  0
  184.8020  178.7920  140.9120 C   0  0  1  0  0  0  0  0  0  0  0  0
  181.3720  178.7810  143.9810 Cl  0  0  0  0  0  0  0  0  0  0  0  0
  182.3740  178.3550  141.4840 C   0  0  0  0  0  0  0  0  0  0  0  0
  189.7130  178.4380  142.6790 C   0  0  0  0  0  2  0  0  0  0  0  0
  189.0530  177.3940  143.5620 C   0  0  0  0  0  2  0  0  0  0  0  0
  188.5750  178.0190  144.8740 C   0  0  2  0  0  3  0  0  0  0  0  0
  191.2240  176.3750  146.6900 C   0  0  0  0  0  0  0  0  0  0  0  0
  189.1680  177.3870  147.2930 C   0  0  1  0  0  3  0  0  0  0  0  0
  192.3010  175.5950  146.7310 C   0  0  0  0  0  2  0  0  0  0  0  0
  190.2780  176.4940  147.8220 C   0  0  0  0  0  2  0  0  0  0  0  0
  188.9060  178.4040  148.2100 O   0  0  0  0  0  1  0  0  0  0  0  0
  190.8670  177.1980  145.5120 C   0  0  0  0  0  2  0  0  0  0  0  0
  189.6520  177.9900  145.9670 C   0  0  1  0  0  3  0  0  0  0  0  0
  186.6780  176.6640  144.3250 F   0  0  0  0  0  0  0  0  0  0  0  0
  187.2550  177.4030  145.3400 C   0  0  0  0  0  3  0  0  0  0  0  0
  186.3710  178.3750  145.7770 F   0  0  0  0  0  0  0  0  0  0  0  0
  1  2  1  0  0  0  0
  2 29  1  0  0  0  0
  2  8  2  0  0  0  0
  3  6  2  0  0  0  0
  3  4  1  0  0  0  0
  4  1  1  0  0  0  0
  4  7  2  0  0  0  0
  5  9  2  0  0  0  0
  6  5  1  0  0  0  0
  7  9  1  0  0  0  0
  7  8  1  0  0  0  0
  8 40  1  0  0  0  0
 10 11  1  1  0  0  0
 10  6  1  0  0  0  0
 12 13  1  0  0  0  0
 13 20  1  0  0  0  0
 14 24  1  1  0  0  0
 14 13  1  0  0  0  0
 15 16  1  1  0  0  0
 15 18  1  0  0  0  0
 15 17  1  0  0  0  0
 17 10  1  6  0  0  0
 17 12  1  0  0  0  0
 18 14  1  0  0  0  0
 20 19  1  1  0  0  0
 21 20  1  0  0  0  0
 22 21  1  0  0  0  0
 23 21  2  0  0  0  0
 24 25  1  0  0  0  0
 27 28  2  0  0  0  0
 28 26  1  0  0  0  0
 28 25  1  0  0  0  0
 30 39  1  0  0  0  0
 31 29  1  1  0  0  0
 31 37  1  0  0  0  0
 32 33  1  0  0  0  0
 34 33  1  0  0  0  0
 34 38  1  0  0  0  0
 35 31  1  0  0  0  0
 35 37  1  0  0  0  0
 36 39  1  0  0  0  0
 37 36  1  6  0  0  0
 37 32  1  0  0  0  0
 39 34  2  0  0  0  0
 40 41  1  0  0  0  0
 42 41  1  6  0  0  0
 42 51  1  0  0  0  0
 43 45  2  0  0  0  0
 43 46  1  0  0  0  0
 44 46  1  0  0  0  0
 44 47  1  1  0  0  0
 48 49  1  0  0  0  0
 48 43  1  0  0  0  0
 49 42  1  6  0  0  0
 49 44  1  0  0  0  0
 50 51  1  0  0  0  0
 51 52  1  0  0  0  0
M  END
>  <MODEL>
2

>  <REMARK>
 VINA RESULT:      -9.2      1.692      2.123
  Name = 
  14 active torsions:
  status: ('A' for Active; 'I' for Inactive)
    1  A    between atoms: C_4  and  C_28
    2  A    between atoms: C_4  and  C_45
    3  A    between atoms: O_6  and  C_10
    4  A    between atoms: O_6  and  C_17
    5  A    between atoms: N_9  and  C_50
    6  A    between atoms: C_16  and  C_21
    7  A    between atoms: C_18  and  C_50
    8  A    between atoms: C_21  and  C_42
    9  A    between atoms: C_21  and  C_47
   10  A    between atoms: C_30  and  C_36
   11  A    between atoms: C_36  and  C_44
   12  A    between atoms: C_37  and  C_45
   13  A    between atoms: C_38  and  C_40
   14  A    between atoms: C_40  and  C_47
                            x       y       z     vdW  Elec       q    Type
                         _______ _______ _______ _____ _____    ______ ____

>  <TORSDO>
F 14

$$$$
=
 OpenBabel10232409263D

 52 57  0  0  1  0  0  0  0  0999 V2000
  190.8800  175.8960  139.2900 O   0  0  0  0  0  0  0  0  0  0  0  0
  190.1990  177.0180  139.4510 C   0  0  0  0  0  0  0  0  0  0  0  0
  191.6680  174.6590  137.3560 C   0  0  0  0  0  3  0  0  0  0  0  0
  191.0220  175.7130  137.9980 C   0  0  0  0  0  0  0  0  0  0  0  0
  191.0800  175.7230  135.2280 C   0  0  0  0  0  3  0  0  0  0  0  0
  191.6990  174.6700  135.9480 C   0  0  0  0  0  0  0  0  0  0  0  0
  190.4270  176.7310  137.2940 C   0  0  0  0  0  0  0  0  0  0  0  0
  189.8920  177.5900  138.2240 C   0  0  0  0  0  0  0  0  0  0  0  0
  190.4320  176.7710  135.9030 C   0  0  0  0  0  3  0  0  0  0  0  0
  192.3850  173.5540  135.2220 C   0  0  1  0  0  3  0  0  0  0  0  0
  193.3330  174.0930  134.3460 O   0  0  0  0  0  1  0  0  0  0  0  0
  194.3760  173.1020  136.6870 C   0  0  0  0  0  2  0  0  0  0  0  0
  194.9730  172.2200  137.7020 N   0  0  0  0  0  0  0  0  0  0  0  0
  195.3340  170.9680  137.0010 C   0  0  2  0  0  3  0  0  0  0  0  0
  193.3060  171.2080  135.5150 C   0  0  1  0  0  3  0  0  0  0  0  0
  192.1100  170.5830  135.1650 O   0  0  0  0  0  1  0  0  0  0  0  0
  193.0370  172.5540  136.1930 C   0  0  2  0  0  3  0  0  0  0  0  0
  194.0760  170.2890  136.4510 C   0  0  0  0  0  2  0  0  0  0  0  0
  195.8620  173.7270  139.3020 O   0  0  0  0  0  1  0  0  0  0  0  0
  196.1800  172.9100  138.2140 C   0  0  2  0  0  3  0  0  0  0  0  0
  196.8220  173.7820  137.1670 C   0  0  0  0  0  0  0  0  0  0  0  0
  197.7290  173.1740  136.1550 C   0  0  0  0  0  1  0  0  0  0  0  0
  196.5940  174.9810  137.1320 O   0  0  0  0  0  0  0  0  0  0  0  0
  196.0040  169.9510  137.9230 C   0  0  0  0  0  2  0  0  0  0  0  0
  196.8170  168.9480  137.1160 C   0  0  0  0  0  2  0  0  0  0  0  0
  198.8880  169.1410  135.5860 C   0  0  0  0  0  1  0  0  0  0  0  0
  198.7700  170.1300  137.7090 O   0  0  0  0  0  0  0  0  0  0  0  0
  198.1990  169.4600  136.8660 C   0  0  0  0  0  0  0  0  0  0  0  0
  189.8520  177.5560  140.6900 O   0  0  0  0  0  0  0  0  0  0  0  0
  186.1510  177.5820  145.7280 C   0  0  0  0  0  1  0  0  0  0  0  0
  188.5240  177.4680  141.1890 C   0  0  2  0  0  3  0  0  0  0  0  0
  189.7010  178.3010  143.3690 C   0  0  0  0  0  2  0  0  0  0  0  0
  189.8530  177.4610  144.6280 C   0  0  0  0  0  2  0  0  0  0  0  0
  188.6130  177.5590  145.4710 C   0  0  0  0  0  0  0  0  0  0  0  0
  188.0940  178.7460  141.6020 O   0  0  0  0  0  0  0  0  0  0  0  0
  187.2220  177.3650  143.4030 C   0  0  0  0  0  2  0  0  0  0  0  0
  188.4480  177.8450  142.6220 C   0  0  1  0  0  0  0  0  0  0  0  0
  188.8160  177.7540  147.2100 Cl  0  0  0  0  0  0  0  0  0  0  0  0
  187.3910  177.5130  144.8990 C   0  0  0  0  0  0  0  0  0  0  0  0
  189.0950  178.8230  137.9720 C   0  0  0  0  0  2  0  0  0  0  0  0
  187.9430  178.5030  137.0360 C   0  0  0  0  0  2  0  0  0  0  0  0
  186.9060  177.6220  137.7340 C   0  0  2  0  0  3  0  0  0  0  0  0
  187.5490  174.5720  135.9160 C   0  0  0  0  0  0  0  0  0  0  0  0
  186.6320  176.6840  135.3560 C   0  0  1  0  0  3  0  0  0  0  0  0
  188.1440  173.3890  135.7960 C   0  0  0  0  0  2  0  0  0  0  0  0
  187.1690  175.4000  134.7490 C   0  0  0  0  0  2  0  0  0  0  0  0
  185.4050  177.0020  134.7760 O   0  0  0  0  0  1  0  0  0  0  0  0
  187.2070  175.1760  137.2240 C   0  0  0  0  0  2  0  0  0  0  0  0
  186.4510  176.4430  136.8620 C   0  0  1  0  0  3  0  0  0  0  0  0
  185.6910  178.4160  139.6390 F   0  0  0  0  0  0  0  0  0  0  0  0
  185.7300  178.4480  138.2570 C   0  0  0  0  0  3  0  0  0  0  0  0
  184.5270  177.9970  137.7420 F   0  0  0  0  0  0  0  0  0  0  0  0
  1  2  1  0  0  0  0
  2 29  1  0  0  0  0
  3  4  1  0  0  0  0
  4  1  1  0  0  0  0
  5  9  2  0  0  0  0
  5  6  1  0  0  0  0
  6  3  2  0  0  0  0
  7  4  2  0  0  0  0
  7  8  1  0  0  0  0
  8  2  2  0  0  0  0
  9  7  1  0  0  0  0
 10 11  1  6  0  0  0
 10  6  1  0  0  0  0
 12 13  1  0  0  0  0
 13 20  1  0  0  0  0
 14 13  1  0  0  0  0
 14 24  1  1  0  0  0
 15 16  1  1  0  0  0
 15 17  1  0  0  0  0
 15 18  1  0  0  0  0
 17 10  1  6  0  0  0
 17 12  1  0  0  0  0
 18 14  1  0  0  0  0
 20 19  1  1  0  0  0
 21 20  1  0  0  0  0
 22 21  1  0  0  0  0
 23 21  2  0  0  0  0
 25 24  1  0  0  0  0
 26 28  1  0  0  0  0
 28 25  1  0  0  0  0
 28 27  2  0  0  0  0
 31 29  1  6  0  0  0
 31 35  1  0  0  0  0
 31 37  1  0  0  0  0
 32 33  1  0  0  0  0
 33 34  1  0  0  0  0
 34 38  1  0  0  0  0
 35 37  1  0  0  0  0
 36 39  1  0  0  0  0
 37 32  1  1  0  0  0
 37 36  1  0  0  0  0
 39 34  2  0  0  0  0
 39 30  1  0  0  0  0
 40  8  1  0  0  0  0
 41 40  1  0  0  0  0
 42 41  1  6  0  0  0
 42 51  1  0  0  0  0
 43 48  1  0  0  0  0
 44 47  1  6  0  0  0
 44 49  1  0  0  0  0
 45 43  2  0  0  0  0
 46 44  1  0  0  0  0
 46 43  1  0  0  0  0
 49 48  1  0  0  0  0
 49 42  1  1  0  0  0
 51 50  1  0  0  0  0
 52 51  1  0  0  0  0
M  END
>  <MODEL>
3

>  <REMARK>
 VINA RESULT:      -8.7      3.028      5.917
  Name = 
  14 active torsions:
  status: ('A' for Active; 'I' for Inactive)
    1  A    between atoms: C_4  and  C_28
    2  A    between atoms: C_4  and  C_45
    3  A    between atoms: O_6  and  C_10
    4  A    between atoms: O_6  and  C_17
    5  A    between atoms: N_9  and  C_50
    6  A    between atoms: C_16  and  C_21
    7  A    between atoms: C_18  and  C_50
    8  A    between atoms: C_21  and  C_42
    9  A    between atoms: C_21  and  C_47
   10  A    between atoms: C_30  and  C_36
   11  A    between atoms: C_36  and  C_44
   12  A    between atoms: C_37  and  C_45
   13  A    between atoms: C_38  and  C_40
   14  A    between atoms: C_40  and  C_47
                            x       y       z     vdW  Elec       q    Type
                         _______ _______ _______ _____ _____    ______ ____

>  <TORSDO>
F 14

$$$$
=
 OpenBabel10232409263D

 52 57  0  0  1  0  0  0  0  0999 V2000
  188.3620  177.6600  138.1630 O   0  0  0  0  0  0  0  0  0  0  0  0
  187.8740  178.0480  139.3290 C   0  0  0  0  0  0  0  0  0  0  0  0
  190.5480  176.9320  137.4000 C   0  0  0  0  0  3  0  0  0  0  0  0
  189.6300  177.3770  138.3480 C   0  0  0  0  0  0  0  0  0  0  0  0
  192.2280  176.9020  139.1840 C   0  0  0  0  0  3  0  0  0  0  0  0
  191.8660  176.6880  137.8290 C   0  0  0  0  0  0  0  0  0  0  0  0
  189.9860  177.5790  139.6590 C   0  0  0  0  0  0  0  0  0  0  0  0
  188.8550  178.0100  140.3110 C   0  0  0  0  0  0  0  0  0  0  0  0
  191.2810  177.3540  140.1180 C   0  0  0  0  0  3  0  0  0  0  0  0
  192.8820  176.2090  136.8390 C   0  0  1  0  0  3  0  0  0  0  0  0
  193.9840  177.0710  136.8610 O   0  0  0  0  0  1  0  0  0  0  0  0
  194.8220  174.6140  136.9310 C   0  0  0  0  0  2  0  0  0  0  0  0
  195.2790  173.2650  137.2950 N   0  0  0  0  0  0  0  0  0  0  0  0
  194.7070  172.3470  136.2840 C   0  0  2  0  0  3  0  0  0  0  0  0
  192.6300  173.7800  136.1530 C   0  0  1  0  0  3  0  0  0  0  0  0
  191.2530  173.7540  136.3660 O   0  0  0  0  0  1  0  0  0  0  0  0
  193.3110  174.7570  137.1140 C   0  0  2  0  0  3  0  0  0  0  0  0
  193.1780  172.3740  136.3530 C   0  0  0  0  0  2  0  0  0  0  0  0
  197.3010  172.1830  137.8990 O   0  0  0  0  0  1  0  0  0  0  0  0
  196.7590  173.2790  137.2220 C   0  0  2  0  0  3  0  0  0  0  0  0
  197.3450  174.5240  137.8360 C   0  0  0  0  0  0  0  0  0  0  0  0
  197.2850  174.7180  139.3110 C   0  0  0  0  0  1  0  0  0  0  0  0
  197.8820  175.3670  137.1360 O   0  0  0  0  0  0  0  0  0  0  0  0
  195.1230  170.8950  136.5060 C   0  0  0  0  0  2  0  0  0  0  0  0
  193.9800  169.9500  136.1630 C   0  0  0  0  0  2  0  0  0  0  0  0
  192.9180  167.9150  137.3470 C   0  0  0  0  0  1  0  0  0  0  0  0
  195.2340  168.1910  137.1100 O   0  0  0  0  0  0  0  0  0  0  0  0
  194.1270  168.6500  136.8860 C   0  0  0  0  0  0  0  0  0  0  0  0
  186.5500  178.4290  139.5410 O   0  0  0  0  0  0  0  0  0  0  0  0
  180.4830  178.2700  138.0410 C   0  0  0  0  0  1  0  0  0  0  0  0
  185.5850  178.3620  138.5010 C   0  0  2  0  0  3  0  0  0  0  0  0
  183.9860  178.9990  140.4670 C   0  0  0  0  0  2  0  0  0  0  0  0
  182.9210  178.0710  141.0320 C   0  0  0  0  0  2  0  0  0  0  0  0
  181.6640  178.1640  140.2140 C   0  0  0  0  0  0  0  0  0  0  0  0
  184.9810  179.6250  138.3410 O   0  0  0  0  0  0  0  0  0  0  0  0
  183.0480  178.1650  138.1330 C   0  0  0  0  0  2  0  0  0  0  0  0
  184.2170  178.6450  138.9980 C   0  0  1  0  0  0  0  0  0  0  0  0
  180.1290  178.2340  141.0740 Cl  0  0  0  0  0  0  0  0  0  0  0  0
  181.7260  178.2060  138.8670 C   0  0  0  0  0  0  0  0  0  0  0  0
  188.7270  178.4180  141.7380 C   0  0  0  0  0  2  0  0  0  0  0  0
  188.1360  177.2760  142.5440 C   0  0  0  0  0  2  0  0  0  0  0  0
  187.6050  177.7780  143.8870 C   0  0  2  0  0  3  0  0  0  0  0  0
  188.5910  177.6800  147.3560 C   0  0  0  0  0  0  0  0  0  0  0  0
  189.7440  177.5330  145.2910 C   0  0  1  0  0  3  0  0  0  0  0  0
  188.3450  177.8940  148.6460 C   0  0  0  0  0  2  0  0  0  0  0  0
  189.9550  177.7230  146.7830 C   0  0  0  0  0  2  0  0  0  0  0  0
  190.6060  176.5460  144.8150 O   0  0  0  0  0  1  0  0  0  0  0  0
  187.5290  177.3760  146.3700 C   0  0  0  0  0  2  0  0  0  0  0  0
  188.2860  177.0980  145.0820 C   0  0  1  0  0  3  0  0  0  0  0  0
  185.5380  177.6270  142.6860 F   0  0  0  0  0  0  0  0  0  0  0  0
  186.0790  177.6870  143.9570 C   0  0  0  0  0  3  0  0  0  0  0  0
  185.5410  178.7580  144.6480 F   0  0  0  0  0  0  0  0  0  0  0  0
  1  4  1  0  0  0  0
  1  2  1  0  0  0  0
  2 29  1  0  0  0  0
  2  8  2  0  0  0  0
  3  6  2  0  0  0  0
  3  4  1  0  0  0  0
  4  7  2  0  0  0  0
  5  9  2  0  0  0  0
  6  5  1  0  0  0  0
  7  9  1  0  0  0  0
  7  8  1  0  0  0  0
  8 40  1  0  0  0  0
 10 11  1  1  0  0  0
 10  6  1  0  0  0  0
 12 17  1  0  0  0  0
 12 13  1  0  0  0  0
 14 18  1  0  0  0  0
 14 24  1  1  0  0  0
 14 13  1  0  0  0  0
 15 18  1  0  0  0  0
 15 16  1  1  0  0  0
 15 17  1  0  0  0  0
 17 10  1  6  0  0  0
 20 13  1  0  0  0  0
 20 21  1  0  0  0  0
 20 19  1  1  0  0  0
 21 22  1  0  0  0  0
 23 21  2  0  0  0  0
 25 24  1  0  0  0  0
 25 28  1  0  0  0  0
 28 27  2  0  0  0  0
 28 26  1  0  0  0  0
 30 39  1  0  0  0  0
 31 37  1  0  0  0  0
 31 29  1  1  0  0  0
 32 33  1  0  0  0  0
 34 33  1  0  0  0  0
 34 38  1  0  0  0  0
 35 31  1  0  0  0  0
 35 37  1  0  0  0  0
 36 39  1  0  0  0  0
 37 36  1  6  0  0  0
 37 32  1  0  0  0  0
 39 34  2  0  0  0  0
 40 41  1  0  0  0  0
 42 41  1  6  0  0  0
 42 51  1  0  0  0  0
 43 45  2  0  0  0  0
 44 47  1  1  0  0  0
 44 46  1  0  0  0  0
 46 43  1  0  0  0  0
 48 43  1  0  0  0  0
 49 42  1  6  0  0  0
 49 44  1  0  0  0  0
 49 48  1  0  0  0  0
 50 51  1  0  0  0  0
 51 52  1  0  0  0  0
M  END
>  <MODEL>
4

>  <REMARK>
 VINA RESULT:      -8.6      1.667      1.983
  Name = 
  14 active torsions:
  status: ('A' for Active; 'I' for Inactive)
    1  A    between atoms: C_4  and  C_28
    2  A    between atoms: C_4  and  C_45
    3  A    between atoms: O_6  and  C_10
    4  A    between atoms: O_6  and  C_17
    5  A    between atoms: N_9  and  C_50
    6  A    between atoms: C_16  and  C_21
    7  A    between atoms: C_18  and  C_50
    8  A    between atoms: C_21  and  C_42
    9  A    between atoms: C_21  and  C_47
   10  A    between atoms: C_30  and  C_36
   11  A    between atoms: C_36  and  C_44
   12  A    between atoms: C_37  and  C_45
   13  A    between atoms: C_38  and  C_40
   14  A    between atoms: C_40  and  C_47
                            x       y       z     vdW  Elec       q    Type
                         _______ _______ _______ _____ _____    ______ ____

>  <TORSDO>
F 14

$$$$
=
 OpenBabel10232409263D

 52 57  0  0  1  0  0  0  0  0999 V2000
  190.6660  176.0960  139.5720 O   0  0  0  0  0  0  0  0  0  0  0  0
  189.7270  177.0030  139.7810 C   0  0  0  0  0  0  0  0  0  0  0  0
  191.7340  175.1910  137.5880 C   0  0  0  0  0  3  0  0  0  0  0  0
  190.8460  176.0170  138.2740 C   0  0  0  0  0  0  0  0  0  0  0  0
  190.8920  176.1780  135.5090 C   0  0  0  0  0  3  0  0  0  0  0  0
  191.7570  175.2780  136.1830 C   0  0  0  0  0  0  0  0  0  0  0  0
  190.0130  176.8880  137.6150 C   0  0  0  0  0  0  0  0  0  0  0  0
  189.2830  177.5390  138.5800 C   0  0  0  0  0  0  0  0  0  0  0  0
  190.0050  176.9970  136.2270 C   0  0  0  0  0  3  0  0  0  0  0  0
  192.6970  174.4070  135.4110 C   0  0  1  0  0  3  0  0  0  0  0  0
  193.7800  175.1770  134.9730 O   0  0  0  0  0  1  0  0  0  0  0  0
  194.6150  173.4290  136.7080 C   0  0  0  0  0  2  0  0  0  0  0  0
  195.0650  172.3470  137.5970 N   0  0  0  0  0  0  0  0  0  0  0  0
  195.1460  171.1300  136.7590 C   0  0  2  0  0  3  0  0  0  0  0  0
  193.1500  171.9100  135.4220 C   0  0  1  0  0  3  0  0  0  0  0  0
  191.8430  171.5670  135.0830 O   0  0  0  0  0  1  0  0  0  0  0  0
  193.1770  173.2030  136.2420 C   0  0  2  0  0  3  0  0  0  0  0  0
  193.7600  170.7670  136.2200 C   0  0  0  0  0  2  0  0  0  0  0  0
  196.3020  173.7750  139.0300 O   0  0  0  0  0  1  0  0  0  0  0  0
  196.4020  172.7350  138.1020 C   0  0  2  0  0  3  0  0  0  0  0  0
  197.3130  173.2030  136.9970 C   0  0  0  0  0  0  0  0  0  0  0  0
  198.0810  172.2050  136.2020 C   0  0  0  0  0  1  0  0  0  0  0  0
  197.4170  174.3910  136.7390 O   0  0  0  0  0  0  0  0  0  0  0  0
  195.6380  169.9120  137.5390 C   0  0  0  0  0  2  0  0  0  0  0  0
  194.5080  169.3070  138.3610 C   0  0  0  0  0  2  0  0  0  0  0  0
  194.2380  168.2240  140.6890 C   0  0  0  0  0  1  0  0  0  0  0  0
  196.1510  167.9440  139.3620 O   0  0  0  0  0  0  0  0  0  0  0  0
  195.0460  168.4510  139.4600 C   0  0  0  0  0  0  0  0  0  0  0  0
  189.2600  177.3750  141.0400 O   0  0  0  0  0  0  0  0  0  0  0  0
  189.5730  177.3340  147.2840 C   0  0  0  0  0  1  0  0  0  0  0  0
  190.0970  177.3160  142.1880 C   0  0  2  0  0  3  0  0  0  0  0  0
  187.8000  176.9080  143.3650 C   0  0  0  0  0  2  0  0  0  0  0  0
  187.1510  177.8920  144.3270 C   0  0  0  0  0  2  0  0  0  0  0  0
  187.6950  177.6990  145.7140 C   0  0  0  0  0  0  0  0  0  0  0  0
  189.9910  176.0400  142.7780 O   0  0  0  0  0  0  0  0  0  0  0  0
  189.9890  177.4590  144.7520 C   0  0  0  0  0  2  0  0  0  0  0  0
  189.3160  177.0880  143.4280 C   0  0  1  0  0  0  0  0  0  0  0  0
  186.5540  177.7250  147.0550 Cl  0  0  0  0  0  0  0  0  0  0  0  0
  189.0150  177.4990  145.9090 C   0  0  0  0  0  0  0  0  0  0  0  0
  188.2030  178.5450  138.3800 C   0  0  0  0  0  2  0  0  0  0  0  0
  186.8970  178.0080  138.9370 C   0  0  0  0  0  2  0  0  0  0  0  0
  185.7210  178.4090  138.0450 C   0  0  2  0  0  3  0  0  0  0  0  0
  183.7950  178.2840  141.0940 C   0  0  0  0  0  0  0  0  0  0  0  0
  183.5190  177.4060  138.9100 C   0  0  1  0  0  3  0  0  0  0  0  0
  183.6840  178.4370  142.4100 C   0  0  0  0  0  2  0  0  0  0  0  0
  182.9840  177.3110  140.3290 C   0  0  0  0  0  2  0  0  0  0  0  0
  182.4590  177.5470  138.0160 O   0  0  0  0  0  1  0  0  0  0  0  0
  184.7380  179.0700  140.2650 C   0  0  0  0  0  2  0  0  0  0  0  0
  184.4290  178.6400  138.8420 C   0  0  1  0  0  3  0  0  0  0  0  0
  185.8570  176.1390  137.2930 F   0  0  0  0  0  0  0  0  0  0  0  0
  185.5270  177.4210  136.8940 C   0  0  0  0  0  3  0  0  0  0  0  0
  186.2790  177.7790  135.7880 F   0  0  0  0  0  0  0  0  0  0  0  0
  1  2  1  0  0  0  0
  2 29  1  0  0  0  0
  3  4  1  0  0  0  0
  4  1  1  0  0  0  0
  5  6  1  0  0  0  0
  5  9  2  0  0  0  0
  6  3  2  0  0  0  0
  7  4  2  0  0  0  0
  7  8  1  0  0  0  0
  8  2  2  0  0  0  0
  9  7  1  0  0  0  0
 10 11  1  1  0  0  0
 10  6  1  0  0  0  0
 12 13  1  0  0  0  0
 13 20  1  0  0  0  0
 14 24  1  1  0  0  0
 14 13  1  0  0  0  0
 15 16  1  1  0  0  0
 15 18  1  0  0  0  0
 15 17  1  0  0  0  0
 17 10  1  6  0  0  0
 17 12  1  0  0  0  0
 18 14  1  0  0  0  0
 20 19  1  1  0  0  0
 21 20  1  0  0  0  0
 22 21  1  0  0  0  0
 23 21  2  0  0  0  0
 24 25  1  0  0  0  0
 25 28  1  0  0  0  0
 27 28  2  0  0  0  0
 28 26  1  0  0  0  0
 31 29  1  6  0  0  0
 31 35  1  0  0  0  0
 31 37  1  0  0  0  0
 32 33  1  0  0  0  0
 33 34  1  0  0  0  0
 34 39  2  0  0  0  0
 34 38  1  0  0  0  0
 35 37  1  0  0  0  0
 36 39  1  0  0  0  0
 37 32  1  6  0  0  0
 37 36  1  0  0  0  0
 39 30  1  0  0  0  0
 40  8  1  0  0  0  0
 40 41  1  0  0  0  0
 42 41  1  1  0  0  0
 43 45  2  0  0  0  0
 44 47  1  6  0  0  0
 44 46  1  0  0  0  0
 46 43  1  0  0  0  0
 48 43  1  0  0  0  0
 49 42  1  1  0  0  0
 49 44  1  0  0  0  0
 49 48  1  0  0  0  0
 51 50  1  0  0  0  0
 51 42  1  0  0  0  0
 52 51  1  0  0  0  0
M  END
>  <MODEL>
5

>  <REMARK>
 VINA RESULT:      -8.5      2.655      5.342
  Name = 
  14 active torsions:
  status: ('A' for Active; 'I' for Inactive)
    1  A    between atoms: C_4  and  C_28
    2  A    between atoms: C_4  and  C_45
    3  A    between atoms: O_6  and  C_10
    4  A    between atoms: O_6  and  C_17
    5  A    between atoms: N_9  and  C_50
    6  A    between atoms: C_16  and  C_21
    7  A    between atoms: C_18  and  C_50
    8  A    between atoms: C_21  and  C_42
    9  A    between atoms: C_21  and  C_47
   10  A    between atoms: C_30  and  C_36
   11  A    between atoms: C_36  and  C_44
   12  A    between atoms: C_37  and  C_45
   13  A    between atoms: C_38  and  C_40
   14  A    between atoms: C_40  and  C_47
                            x       y       z     vdW  Elec       q    Type
                         _______ _______ _______ _____ _____    ______ ____

>  <TORSDO>
F 14

$$$$
=
 OpenBabel10232409263D

 52 57  0  0  1  0  0  0  0  0999 V2000
  190.4910  176.7070  140.1270 O   0  0  0  0  0  0  0  0  0  0  0  0
  189.2680  177.1940  140.2510 C   0  0  0  0  0  0  0  0  0  0  0  0
  191.9090  176.1550  138.2350 C   0  0  0  0  0  3  0  0  0  0  0  0
  190.7440  176.6180  138.8420 C   0  0  0  0  0  0  0  0  0  0  0  0
  190.8450  176.6020  136.0740 C   0  0  0  0  0  3  0  0  0  0  0  0
  191.9580  176.1510  136.8280 C   0  0  0  0  0  0  0  0  0  0  0  0
  189.6710  177.0560  138.1050 C   0  0  0  0  0  0  0  0  0  0  0  0
  188.7050  177.4380  139.0060 C   0  0  0  0  0  0  0  0  0  0  0  0
  189.6810  177.0610  136.7130 C   0  0  0  0  0  3  0  0  0  0  0  0
  193.1930  175.6600  136.1400 C   0  0  1  0  0  3  0  0  0  0  0  0
  194.1130  176.7110  136.0460 O   0  0  0  0  0  1  0  0  0  0  0  0
  195.2960  174.6990  137.1250 C   0  0  0  0  0  2  0  0  0  0  0  0
  195.8900  173.6080  137.9130 N   0  0  0  0  0  0  0  0  0  0  0  0
  195.8740  172.4120  137.0420 C   0  0  2  0  0  3  0  0  0  0  0  0
  193.6910  173.1750  136.0240 C   0  0  1  0  0  3  0  0  0  0  0  0
  192.3560  172.8100  135.8670 O   0  0  0  0  0  1  0  0  0  0  0  0
  193.8100  174.4500  136.8630 C   0  0  2  0  0  3  0  0  0  0  0  0
  194.4320  172.0290  136.6970 C   0  0  0  0  0  2  0  0  0  0  0  0
  197.2990  174.9380  139.2800 O   0  0  0  0  0  1  0  0  0  0  0  0
  197.2780  174.0160  138.2310 C   0  0  2  0  0  3  0  0  0  0  0  0
  197.9660  174.6560  137.0540 C   0  0  0  0  0  0  0  0  0  0  0  0
  199.0340  173.9130  136.3290 C   0  0  0  0  0  1  0  0  0  0  0  0
  197.6460  175.7730  136.6800 O   0  0  0  0  0  0  0  0  0  0  0  0
  196.4960  171.1880  137.7120 C   0  0  0  0  0  2  0  0  0  0  0  0
  195.4210  170.1770  138.0870 C   0  0  0  0  0  2  0  0  0  0  0  0
  196.8510  168.3460  136.9590 C   0  0  0  0  0  1  0  0  0  0  0  0
  195.6910  168.0060  138.9680 O   0  0  0  0  0  0  0  0  0  0  0  0
  195.9700  168.7860  138.0740 C   0  0  0  0  0  0  0  0  0  0  0  0
  188.6400  177.4400  141.4710 O   0  0  0  0  0  0  0  0  0  0  0  0
  188.2300  177.4320  147.7090 C   0  0  0  0  0  1  0  0  0  0  0  0
  189.3120  177.2320  142.7050 C   0  0  2  0  0  3  0  0  0  0  0  0
  186.8620  177.3100  143.6100 C   0  0  0  0  0  2  0  0  0  0  0  0
  186.3190  178.4180  144.5000 C   0  0  0  0  0  2  0  0  0  0  0  0
  186.6530  178.1410  145.9380 C   0  0  0  0  0  0  0  0  0  0  0  0
  188.8870  176.0120  143.2700 O   0  0  0  0  0  0  0  0  0  0  0  0
  188.9460  177.4330  145.2420 C   0  0  0  0  0  2  0  0  0  0  0  0
  188.3670  177.1830  143.8470 C   0  0  1  0  0  0  0  0  0  0  0  0
  185.3960  178.4150  147.1410 Cl  0  0  0  0  0  0  0  0  0  0  0  0
  187.8760  177.6850  146.2810 C   0  0  0  0  0  0  0  0  0  0  0  0
  187.3320  177.9340  138.7120 C   0  0  0  0  0  2  0  0  0  0  0  0
  186.5960  176.9190  137.8560 C   0  0  0  0  0  2  0  0  0  0  0  0
  185.6620  177.6200  136.8680 C   0  0  2  0  0  3  0  0  0  0  0  0
  182.7910  177.2520  139.0230 C   0  0  0  0  0  0  0  0  0  0  0  0
  183.9490  175.8210  137.5310 C   0  0  1  0  0  3  0  0  0  0  0  0
  182.0310  177.6640  140.0340 C   0  0  0  0  0  2  0  0  0  0  0  0
  182.9120  175.8280  138.6410 C   0  0  0  0  0  2  0  0  0  0  0  0
  183.4740  175.0850  136.4470 O   0  0  0  0  0  1  0  0  0  0  0  0
  183.5890  178.1740  138.1840 C   0  0  0  0  0  2  0  0  0  0  0  0
  184.1850  177.2790  137.1100 C   0  0  1  0  0  3  0  0  0  0  0  0
  187.0060  178.3210  135.0130 F   0  0  0  0  0  0  0  0  0  0  0  0
  186.0870  177.3710  135.4200 C   0  0  0  0  0  3  0  0  0  0  0  0
  184.9980  177.3720  134.5660 F   0  0  0  0  0  0  0  0  0  0  0  0
  1  2  1  0  0  0  0
  2 29  1  0  0  0  0
  3  4  1  0  0  0  0
  4  1  1  0  0  0  0
  5  9  2  0  0  0  0
  5  6  1  0  0  0  0
  6  3  2  0  0  0  0
  7  4  2  0  0  0  0
  7  8  1  0  0  0  0
  8  2  2  0  0  0  0
  9  7  1  0  0  0  0
 10 11  1  1  0  0  0
 10  6  1  0  0  0  0
 12 13  1  0  0  0  0
 13 20  1  0  0  0  0
 14 24  1  1  0  0  0
 14 13  1  0  0  0  0
 15 16  1  1  0  0  0
 15 18  1  0  0  0  0
 15 17  1  0  0  0  0
 17 10  1  6  0  0  0
 17 12  1  0  0  0  0
 18 14  1  0  0  0  0
 20 19  1  1  0  0  0
 21 20  1  0  0  0  0
 22 21  1  0  0  0  0
 23 21  2  0  0  0  0
 24 25  1  0  0  0  0
 26 28  1  0  0  0  0
 28 25  1  0  0  0  0
 28 27  2  0  0  0  0
 31 29  1  6  0  0  0
 31 35  1  0  0  0  0
 31 37  1  0  0  0  0
 32 33  1  0  0  0  0
 33 34  1  0  0  0  0
 34 39  2  0  0  0  0
 34 38  1  0  0  0  0
 35 37  1  0  0  0  0
 36 39  1  0  0  0  0
 37 32  1  6  0  0  0
 37 36  1  0  0  0  0
 39 30  1  0  0  0  0
 40  8  1  0  0  0  0
 41 40  1  0  0  0  0
 42 41  1  1  0  0  0
 43 45  2  0  0  0  0
 44 47  1  6  0  0  0
 44 46  1  0  0  0  0
 46 43  1  0  0  0  0
 48 43  1  0  0  0  0
 49 42  1  1  0  0  0
 49 44  1  0  0  0  0
 49 48  1  0  0  0  0
 50 51  1  0  0  0  0
 51 42  1  0  0  0  0
 52 51  1  0  0  0  0
M  END
>  <MODEL>
6

>  <REMARK>
 VINA RESULT:      -8.4      2.764      5.688
  Name = 
  14 active torsions:
  status: ('A' for Active; 'I' for Inactive)
    1  A    between atoms: C_4  and  C_28
    2  A    between atoms: C_4  and  C_45
    3  A    between atoms: O_6  and  C_10
    4  A    between atoms: O_6  and  C_17
    5  A    between atoms: N_9  and  C_50
    6  A    between atoms: C_16  and  C_21
    7  A    between atoms: C_18  and  C_50
    8  A    between atoms: C_21  and  C_42
    9  A    between atoms: C_21  and  C_47
   10  A    between atoms: C_30  and  C_36
   11  A    between atoms: C_36  and  C_44
   12  A    between atoms: C_37  and  C_45
   13  A    between atoms: C_38  and  C_40
   14  A    between atoms: C_40  and  C_47
                            x       y       z     vdW  Elec       q    Type
                         _______ _______ _______ _____ _____    ______ ____

>  <TORSDO>
F 14

$$$$
=
 OpenBabel10232409263D

 52 57  0  0  1  0  0  0  0  0999 V2000
  190.3360  176.5580  139.8580 O   0  0  0  0  0  0  0  0  0  0  0  0
  189.1720  177.1670  140.0060 C   0  0  0  0  0  0  0  0  0  0  0  0
  191.7180  175.9910  137.9440 C   0  0  0  0  0  3  0  0  0  0  0  0
  190.6000  176.5350  138.5720 C   0  0  0  0  0  0  0  0  0  0  0  0
  190.7480  176.7080  135.8110 C   0  0  0  0  0  3  0  0  0  0  0  0
  191.7910  176.0840  136.5410 C   0  0  0  0  0  0  0  0  0  0  0  0
  189.5940  177.1410  137.8590 C   0  0  0  0  0  0  0  0  0  0  0  0
  188.6610  177.5610  138.7770 C   0  0  0  0  0  0  0  0  0  0  0  0
  189.6300  177.2460  136.4720 C   0  0  0  0  0  3  0  0  0  0  0  0
  192.9770  175.5100  135.8300 C   0  0  1  0  0  3  0  0  0  0  0  0
  193.8740  176.5420  135.5320 O   0  0  0  0  0  1  0  0  0  0  0  0
  195.1560  174.6990  136.7850 C   0  0  0  0  0  2  0  0  0  0  0  0
  195.8190  173.7210  137.6600 N   0  0  0  0  0  0  0  0  0  0  0  0
  195.7680  172.4250  136.9470 C   0  0  2  0  0  3  0  0  0  0  0  0
  193.5110  173.0350  135.9900 C   0  0  1  0  0  3  0  0  0  0  0  0
  192.1750  172.6400  135.9690 O   0  0  0  0  0  1  0  0  0  0  0  0
  193.6610  174.4050  136.6560 C   0  0  2  0  0  3  0  0  0  0  0  0
  194.3140  171.9890  136.7490 C   0  0  0  0  0  2  0  0  0  0  0  0
  197.3270  175.0470  138.9220 O   0  0  0  0  0  1  0  0  0  0  0  0
  197.2180  174.1790  137.8330 C   0  0  2  0  0  3  0  0  0  0  0  0
  197.7290  174.9100  136.6190 C   0  0  0  0  0  0  0  0  0  0  0  0
  198.3860  174.1480  135.5210 C   0  0  0  0  0  1  0  0  0  0  0  0
  197.5980  176.1190  136.5220 O   0  0  0  0  0  0  0  0  0  0  0  0
  196.4540  171.3010  137.7210 C   0  0  0  0  0  2  0  0  0  0  0  0
  196.8270  170.1570  136.7890 C   0  0  0  0  0  2  0  0  0  0  0  0
  198.2830  170.1120  134.6580 C   0  0  0  0  0  1  0  0  0  0  0  0
  199.0630  170.9020  136.7230 O   0  0  0  0  0  0  0  0  0  0  0  0
  198.1260  170.4290  136.1030 C   0  0  0  0  0  0  0  0  0  0  0  0
  188.5530  177.3920  141.2350 O   0  0  0  0  0  0  0  0  0  0  0  0
  188.2300  177.3990  147.4780 C   0  0  0  0  0  1  0  0  0  0  0  0
  189.2400  177.1780  142.4600 C   0  0  2  0  0  3  0  0  0  0  0  0
  186.8030  177.2850  143.3990 C   0  0  0  0  0  2  0  0  0  0  0  0
  186.2850  178.4010  144.2930 C   0  0  0  0  0  2  0  0  0  0  0  0
  186.6360  178.1230  145.7280 C   0  0  0  0  0  0  0  0  0  0  0  0
  188.8090  175.9640  143.0330 O   0  0  0  0  0  0  0  0  0  0  0  0
  188.9110  177.3880  145.0010 C   0  0  0  0  0  2  0  0  0  0  0  0
  188.3100  177.1420  143.6150 C   0  0  1  0  0  0  0  0  0  0  0  0
  185.3990  178.4130  146.9470 Cl  0  0  0  0  0  0  0  0  0  0  0  0
  187.8580  177.6530  146.0540 C   0  0  0  0  0  0  0  0  0  0  0  0
  187.3560  178.2260  138.5070 C   0  0  0  0  0  2  0  0  0  0  0  0
  186.7440  177.6540  137.2410 C   0  0  0  0  0  2  0  0  0  0  0  0
  185.8790  176.4340  137.5610 C   0  0  2  0  0  3  0  0  0  0  0  0
  187.9550  174.1450  135.6980 C   0  0  0  0  0  0  0  0  0  0  0  0
  186.3390  175.7800  135.1190 C   0  0  1  0  0  3  0  0  0  0  0  0
  188.9920  173.3180  135.6110 C   0  0  0  0  0  2  0  0  0  0  0  0
  187.4330  174.9010  134.5370 C   0  0  0  0  0  2  0  0  0  0  0  0
  185.1820  175.6620  134.3510 O   0  0  0  0  0  1  0  0  0  0  0  0
  187.2200  174.3920  136.9600 C   0  0  0  0  0  2  0  0  0  0  0  0
  186.0690  175.2950  136.5500 C   0  0  1  0  0  3  0  0  0  0  0  0
  183.5880  175.8980  137.1090 F   0  0  0  0  0  0  0  0  0  0  0  0
  184.4090  176.8190  137.7350 C   0  0  0  0  0  3  0  0  0  0  0  0
  184.1560  178.0870  137.2430 F   0  0  0  0  0  0  0  0  0  0  0  0
  1  2  1  0  0  0  0
  2 29  1  0  0  0  0
  3  4  1  0  0  0  0
  4  1  1  0  0  0  0
  5  9  2  0  0  0  0
  5  6  1  0  0  0  0
  6  3  2  0  0  0  0
  7  4  2  0  0  0  0
  7  8  1  0  0  0  0
  8  2  2  0  0  0  0
  9  7  1  0  0  0  0
 10 11  1  1  0  0  0
 10  6  1  0  0  0  0
 12 13  1  0  0  0  0
 13 20  1  0  0  0  0
 14 13  1  0  0  0  0
 14 24  1  1  0  0  0
 15 16  1  1  0  0  0
 15 17  1  0  0  0  0
 15 18  1  0  0  0  0
 17 10  1  6  0  0  0
 17 12  1  0  0  0  0
 18 14  1  0  0  0  0
 20 19  1  1  0  0  0
 21 20  1  0  0  0  0
 22 21  1  0  0  0  0
 23 21  2  0  0  0  0
 25 24  1  0  0  0  0
 26 28  1  0  0  0  0
 28 27  2  0  0  0  0
 28 25  1  0  0  0  0
 31 29  1  6  0  0  0
 31 35  1  0  0  0  0
 31 37  1  0  0  0  0
 32 33  1  0  0  0  0
 33 34  1  0  0  0  0
 34 39  2  0  0  0  0
 34 38  1  0  0  0  0
 35 37  1  0  0  0  0
 36 39  1  0  0  0  0
 37 32  1  6  0  0  0
 37 36  1  0  0  0  0
 39 30  1  0  0  0  0
 40  8  1  0  0  0  0
 41 40  1  0  0  0  0
 42 41  1  6  0  0  0
 42 51  1  0  0  0  0
 43 48  1  0  0  0  0
 44 47  1  6  0  0  0
 44 49  1  0  0  0  0
 45 43  2  0  0  0  0
 46 44  1  0  0  0  0
 46 43  1  0  0  0  0
 49 48  1  0  0  0  0
 49 42  1  1  0  0  0
 50 51  1  0  0  0  0
 52 51  1  0  0  0  0
M  END
>  <MODEL>
7

>  <REMARK>
 VINA RESULT:      -8.3      3.075      6.090
  Name = 
  14 active torsions:
  status: ('A' for Active; 'I' for Inactive)
    1  A    between atoms: C_4  and  C_28
    2  A    between atoms: C_4  and  C_45
    3  A    between atoms: O_6  and  C_10
    4  A    between atoms: O_6  and  C_17
    5  A    between atoms: N_9  and  C_50
    6  A    between atoms: C_16  and  C_21
    7  A    between atoms: C_18  and  C_50
    8  A    between atoms: C_21  and  C_42
    9  A    between atoms: C_21  and  C_47
   10  A    between atoms: C_30  and  C_36
   11  A    between atoms: C_36  and  C_44
   12  A    between atoms: C_37  and  C_45
   13  A    between atoms: C_38  and  C_40
   14  A    between atoms: C_40  and  C_47
                            x       y       z     vdW  Elec       q    Type
                         _______ _______ _______ _____ _____    ______ ____

>  <TORSDO>
F 14

$$$$
=
 OpenBabel10232409263D

 52 57  0  0  1  0  0  0  0  0999 V2000
  185.9530  178.7230  139.4540 O   0  0  0  0  0  0  0  0  0  0  0  0
  185.3400  178.4320  138.3190 C   0  0  0  0  0  0  0  0  0  0  0  0
  185.2190  179.0020  141.7510 C   0  0  0  0  0  3  0  0  0  0  0  0
  185.0380  178.7380  140.3950 C   0  0  0  0  0  0  0  0  0  0  0  0
  182.8090  178.6650  142.0380 C   0  0  0  0  0  3  0  0  0  0  0  0
  184.0850  178.9610  142.5830 C   0  0  0  0  0  0  0  0  0  0  0  0
  183.8010  178.4490  139.8750 C   0  0  0  0  0  0  0  0  0  0  0  0
  183.9800  178.2430  138.5280 C   0  0  0  0  0  0  0  0  0  0  0  0
  182.6570  178.4050  140.6660 C   0  0  0  0  0  3  0  0  0  0  0  0
  184.2390  179.2390  144.0460 C   0  0  1  0  0  3  0  0  0  0  0  0
  183.3090  178.4730  144.7580 O   0  0  0  0  0  1  0  0  0  0  0  0
  186.3130  177.8690  143.6800 C   0  0  0  0  0  2  0  0  0  0  0  0
  187.7210  177.6580  144.0500 N   0  0  0  0  0  0  0  0  0  0  0  0
  187.7090  177.0850  145.4140 C   0  0  2  0  0  3  0  0  0  0  0  0
  185.6860  178.4850  145.9890 C   0  0  1  0  0  3  0  0  0  0  0  0
  185.2440  179.4930  146.8440 O   0  0  0  0  0  1  0  0  0  0  0  0
  185.6720  178.9620  144.5350 C   0  0  2  0  0  3  0  0  0  0  0  0
  187.0950  178.0840  146.4000 C   0  0  0  0  0  2  0  0  0  0  0  0
  189.1500  175.7970  143.7020 O   0  0  0  0  0  1  0  0  0  0  0  0
  188.2810  176.6940  143.0740 C   0  0  2  0  0  3  0  0  0  0  0  0
  189.0550  177.3800  141.9790 C   0  0  0  0  0  0  0  0  0  0  0  0
  190.1470  176.6490  141.2780 C   0  0  0  0  0  1  0  0  0  0  0  0
  188.7860  178.5240  141.6520 O   0  0  0  0  0  0  0  0  0  0  0  0
  189.1110  176.7750  145.9340 C   0  0  0  0  0  2  0  0  0  0  0  0
  189.9680  178.0330  145.9560 C   0  0  0  0  0  2  0  0  0  0  0  0
  191.6010  178.7770  144.0990 C   0  0  0  0  0  1  0  0  0  0  0  0
  191.9640  176.8880  145.4400 O   0  0  0  0  0  0  0  0  0  0  0  0
  191.2340  177.8310  145.1870 C   0  0  0  0  0  0  0  0  0  0  0  0
  185.9800  178.3170  137.0860 O   0  0  0  0  0  0  0  0  0  0  0  0
  190.4210  174.0580  135.9780 C   0  0  0  0  0  1  0  0  0  0  0  0
  186.2970  177.0470  136.5320 C   0  0  2  0  0  3  0  0  0  0  0  0
  188.5120  177.4520  137.8560 C   0  0  0  0  0  2  0  0  0  0  0  0
  189.8660  177.6820  137.1990 C   0  0  0  0  0  2  0  0  0  0  0  0
  190.5120  176.3660  136.8680 C   0  0  0  0  0  0  0  0  0  0  0  0
  186.5010  176.1200  137.5730 O   0  0  0  0  0  0  0  0  0  0  0  0
  188.3060  175.5140  136.0610 C   0  0  0  0  0  2  0  0  0  0  0  0
  187.6540  176.5960  136.9250 C   0  0  1  0  0  0  0  0  0  0  0  0
  192.2300  176.1850  137.2140 Cl  0  0  0  0  0  0  0  0  0  0  0  0
  189.7850  175.3610  136.3370 C   0  0  0  0  0  0  0  0  0  0  0  0
  182.9370  177.9540  137.5050 C   0  0  0  0  0  2  0  0  0  0  0  0
  183.2160  176.6090  136.8570 C   0  0  0  0  0  2  0  0  0  0  0  0
  182.9520  175.4690  137.8410 C   0  0  2  0  0  3  0  0  0  0  0  0
  185.2360  173.0070  136.5200 C   0  0  0  0  0  0  0  0  0  0  0  0
  183.2850  174.0780  135.7060 C   0  0  1  0  0  3  0  0  0  0  0  0
  186.4000  172.3650  136.5430 C   0  0  0  0  0  2  0  0  0  0  0  0
  184.4640  173.2220  135.2750 C   0  0  0  0  0  2  0  0  0  0  0  0
  182.1010  173.5290  135.2150 O   0  0  0  0  0  1  0  0  0  0  0  0
  184.5970  173.5670  137.7330 C   0  0  0  0  0  2  0  0  0  0  0  0
  183.2580  174.0890  137.2400 C   0  0  1  0  0  3  0  0  0  0  0  0
  181.5830  175.4390  139.8060 F   0  0  0  0  0  0  0  0  0  0  0  0
  181.5420  175.5490  138.4290 C   0  0  0  0  0  3  0  0  0  0  0  0
  180.7200  174.5680  137.9020 F   0  0  0  0  0  0  0  0  0  0  0  0
  1  4  1  0  0  0  0
  2  8  2  0  0  0  0
  2  1  1  0  0  0  0
  3  6  1  0  0  0  0
  4  3  2  0  0  0  0
  5  6  2  0  0  0  0
  6 10  1  0  0  0  0
  7  4  1  0  0  0  0
  7  9  2  0  0  0  0
  8  7  1  0  0  0  0
  9  5  1  0  0  0  0
 10 11  1  1  0  0  0
 12 13  1  0  0  0  0
 12 17  1  0  0  0  0
 13 14  1  0  0  0  0
 14 24  1  1  0  0  0
 14 18  1  0  0  0  0
 15 18  1  0  0  0  0
 15 16  1  1  0  0  0
 17 10  1  6  0  0  0
 17 15  1  0  0  0  0
 20 19  1  1  0  0  0
 20 13  1  0  0  0  0
 21 20  1  0  0  0  0
 22 21  1  0  0  0  0
 23 21  2  0  0  0  0
 24 25  1  0  0  0  0
 26 28  1  0  0  0  0
 28 27  2  0  0  0  0
 28 25  1  0  0  0  0
 29  2  1  0  0  0  0
 30 39  1  0  0  0  0
 31 37  1  0  0  0  0
 31 29  1  1  0  0  0
 31 35  1  0  0  0  0
 33 32  1  0  0  0  0
 34 33  1  0  0  0  0
 34 38  1  0  0  0  0
 36 39  1  0  0  0  0
 37 36  1  6  0  0  0
 37 35  1  0  0  0  0
 37 32  1  0  0  0  0
 39 34  2  0  0  0  0
 40  8  1  0  0  0  0
 41 40  1  0  0  0  0
 42 41  1  6  0  0  0
 42 51  1  0  0  0  0
 43 45  2  0  0  0  0
 43 48  1  0  0  0  0
 44 47  1  6  0  0  0
 44 49  1  0  0  0  0
 46 44  1  0  0  0  0
 46 43  1  0  0  0  0
 49 48  1  0  0  0  0
 49 42  1  6  0  0  0
 51 50  1  0  0  0  0
 52 51  1  0  0  0  0
M  END
>  <MODEL>
8

>  <REMARK>
 VINA RESULT:      -8.0      5.377     10.085
  Name = 
  14 active torsions:
  status: ('A' for Active; 'I' for Inactive)
    1  A    between atoms: C_4  and  C_28
    2  A    between atoms: C_4  and  C_45
    3  A    between atoms: O_6  and  C_10
    4  A    between atoms: O_6  and  C_17
    5  A    between atoms: N_9  and  C_50
    6  A    between atoms: C_16  and  C_21
    7  A    between atoms: C_18  and  C_50
    8  A    between atoms: C_21  and  C_42
    9  A    between atoms: C_21  and  C_47
   10  A    between atoms: C_30  and  C_36
   11  A    between atoms: C_36  and  C_44
   12  A    between atoms: C_37  and  C_45
   13  A    between atoms: C_38  and  C_40
   14  A    between atoms: C_40  and  C_47
                            x       y       z     vdW  Elec       q    Type
                         _______ _______ _______ _____ _____    ______ ____

>  <TORSDO>
F 14

$$$$
=
 OpenBabel10232409263D

 52 57  0  0  1  0  0  0  0  0999 V2000
  185.1360  178.6450  139.2120 O   0  0  0  0  0  0  0  0  0  0  0  0
  184.6550  178.9590  140.4030 C   0  0  0  0  0  0  0  0  0  0  0  0
  187.3390  178.0590  138.3760 C   0  0  0  0  0  3  0  0  0  0  0  0
  186.4200  178.4180  139.3610 C   0  0  0  0  0  0  0  0  0  0  0  0
  189.0550  178.0370  140.1240 C   0  0  0  0  0  3  0  0  0  0  0  0
  188.6760  177.8630  138.7690 C   0  0  0  0  0  0  0  0  0  0  0  0
  186.7940  178.5820  140.6720 C   0  0  0  0  0  0  0  0  0  0  0  0
  185.6580  178.9280  141.3630 C   0  0  0  0  0  0  0  0  0  0  0  0
  188.1070  178.4020  141.0950 C   0  0  0  0  0  3  0  0  0  0  0  0
  189.6930  177.4780  137.7400 C   0  0  1  0  0  3  0  0  0  0  0  0
  190.8310  176.9810  138.3850 O   0  0  0  0  0  1  0  0  0  0  0  0
  188.0720  175.5840  137.4170 C   0  0  0  0  0  2  0  0  0  0  0  0
  187.4390  174.6660  136.4580 N   0  0  0  0  0  0  0  0  0  0  0  0
  188.4870  173.7010  136.0550 C   0  0  2  0  0  3  0  0  0  0  0  0
  190.2320  175.5210  136.2180 C   0  0  1  0  0  3  0  0  0  0  0  0
  191.1640  176.2310  135.4630 O   0  0  0  0  0  1  0  0  0  0  0  0
  189.1330  176.4510  136.7390 C   0  0  2  0  0  3  0  0  0  0  0  0
  189.6300  174.4300  135.3430 C   0  0  0  0  0  2  0  0  0  0  0  0
  186.7710  172.7700  137.7160 O   0  0  0  0  0  1  0  0  0  0  0  0
  186.3380  173.9850  137.1780 C   0  0  2  0  0  3  0  0  0  0  0  0
  185.1680  173.6880  136.2770 C   0  0  0  0  0  0  0  0  0  0  0  0
  184.9180  174.5470  135.0860 C   0  0  0  0  0  1  0  0  0  0  0  0
  184.4320  172.7430  136.5060 O   0  0  0  0  0  0  0  0  0  0  0  0
  187.9720  172.6490  135.0750 C   0  0  0  0  0  2  0  0  0  0  0  0
  188.4800  171.2650  135.4560 C   0  0  0  0  0  2  0  0  0  0  0  0
  188.0760  168.9140  134.4680 C   0  0  0  0  0  1  0  0  0  0  0  0
  186.3370  170.3900  135.0080 O   0  0  0  0  0  0  0  0  0  0  0  0
  187.5410  170.2030  134.9830 C   0  0  0  0  0  0  0  0  0  0  0  0
  183.3190  179.2640  140.6570 O   0  0  0  0  0  0  0  0  0  0  0  0
  180.0080  176.1690  136.3500 C   0  0  0  0  0  1  0  0  0  0  0  0
  182.3660  179.3450  139.6060 C   0  0  2  0  0  3  0  0  0  0  0  0
  182.3560  176.7530  139.9330 C   0  0  0  0  0  2  0  0  0  0  0  0
  182.8810  175.7640  138.9020 C   0  0  0  0  0  2  0  0  0  0  0  0
  181.8180  175.4620  137.8840 C   0  0  0  0  0  0  0  0  0  0  0  0
  181.1280  178.8450  140.0570 O   0  0  0  0  0  0  0  0  0  0  0  0
  181.2220  177.8880  137.8240 C   0  0  0  0  0  2  0  0  0  0  0  0
  181.8690  178.0060  139.2070 C   0  0  1  0  0  0  0  0  0  0  0  0
  181.6070  173.7840  137.3910 Cl  0  0  0  0  0  0  0  0  0  0  0  0
  181.0490  176.4510  137.3830 C   0  0  0  0  0  0  0  0  0  0  0  0
  185.5410  179.2690  142.8090 C   0  0  0  0  0  2  0  0  0  0  0  0
  185.7260  178.0150  143.6450 C   0  0  0  0  0  2  0  0  0  0  0  0
  186.4210  178.3430  144.9660 C   0  0  2  0  0  3  0  0  0  0  0  0
  189.3890  177.2990  146.7330 C   0  0  0  0  0  0  0  0  0  0  0  0
  188.6990  177.2630  144.4660 C   0  0  1  0  0  3  0  0  0  0  0  0
  190.1710  177.3100  147.8090 C   0  0  0  0  0  2  0  0  0  0  0  0
  189.9120  177.0900  145.3640 C   0  0  0  0  0  2  0  0  0  0  0  0
  188.6200  176.1980  143.5710 O   0  0  0  0  0  1  0  0  0  0  0  0
  187.9220  177.4910  146.7980 C   0  0  0  0  0  2  0  0  0  0  0  0
  187.4560  177.2830  145.3670 C   0  0  1  0  0  3  0  0  0  0  0  0
  184.1180  178.5560  145.5900 F   0  0  0  0  0  0  0  0  0  0  0  0
  185.4100  178.6190  146.0800 C   0  0  0  0  0  3  0  0  0  0  0  0
  185.6300  179.8520  146.6690 F   0  0  0  0  0  0  0  0  0  0  0  0
  1  4  1  0  0  0  0
  1  2  1  0  0  0  0
  2 29  1  0  0  0  0
  2  8  2  0  0  0  0
  3  6  2  0  0  0  0
  3  4  1  0  0  0  0
  4  7  2  0  0  0  0
  5  9  2  0  0  0  0
  6  5  1  0  0  0  0
  7  9  1  0  0  0  0
  7  8  1  0  0  0  0
  8 40  1  0  0  0  0
 10 11  1  1  0  0  0
 10  6  1  0  0  0  0
 13 20  1  0  0  0  0
 13 12  1  0  0  0  0
 14 24  1  6  0  0  0
 14 13  1  0  0  0  0
 15 16  1  6  0  0  0
 15 17  1  0  0  0  0
 17 12  1  0  0  0  0
 17 10  1  1  0  0  0
 18 14  1  0  0  0  0
 18 15  1  0  0  0  0
 20 19  1  6  0  0  0
 21 23  2  0  0  0  0
 21 20  1  0  0  0  0
 22 21  1  0  0  0  0
 24 25  1  0  0  0  0
 26 28  1  0  0  0  0
 28 27  2  0  0  0  0
 28 25  1  0  0  0  0
 30 39  1  0  0  0  0
 31 35  1  0  0  0  0
 31 29  1  1  0  0  0
 33 32  1  0  0  0  0
 34 33  1  0  0  0  0
 37 36  1  6  0  0  0
 37 31  1  0  0  0  0
 37 32  1  0  0  0  0
 37 35  1  0  0  0  0
 38 34  1  0  0  0  0
 39 36  1  0  0  0  0
 39 34  2  0  0  0  0
 40 41  1  0  0  0  0
 42 41  1  6  0  0  0
 42 51  1  0  0  0  0
 43 48  1  0  0  0  0
 43 45  2  0  0  0  0
 44 47  1  6  0  0  0
 44 46  1  0  0  0  0
 44 49  1  0  0  0  0
 46 43  1  0  0  0  0
 49 42  1  6  0  0  0
 49 48  1  0  0  0  0
 50 51  1  0  0  0  0
 51 52  1  0  0  0  0
M  END
>  <MODEL>
9

>  <REMARK>
 VINA RESULT:      -7.7      4.464      6.117
  Name = 
  14 active torsions:
  status: ('A' for Active; 'I' for Inactive)
    1  A    between atoms: C_4  and  C_28
    2  A    between atoms: C_4  and  C_45
    3  A    between atoms: O_6  and  C_10
    4  A    between atoms: O_6  and  C_17
    5  A    between atoms: N_9  and  C_50
    6  A    between atoms: C_16  and  C_21
    7  A    between atoms: C_18  and  C_50
    8  A    between atoms: C_21  and  C_42
    9  A    between atoms: C_21  and  C_47
   10  A    between atoms: C_30  and  C_36
   11  A    between atoms: C_36  and  C_44
   12  A    between atoms: C_37  and  C_45
   13  A    between atoms: C_38  and  C_40
   14  A    between atoms: C_40  and  C_47
                            x       y       z     vdW  Elec       q    Type
                         _______ _______ _______ _____ _____    ______ ____

>  <TORSDO>
F 14

$$$$
