=
 OpenBabel10232411313D

 27 29  0  0  1  0  0  0  0  0999 V2000
  187.0620  178.4780  141.5360 C   0  0  0  0  0  0  0  0  0  0  0  0
  188.2500  178.6490  140.6510 C   0  0  1  0  0  3  0  0  0  0  0  0
  187.4340  178.0890  142.7370 C   0  0  0  0  0  0  0  0  0  0  0  0
  185.6360  178.8040  141.2080 C   0  0  0  0  0  2  0  0  0  0  0  0
  189.3650  178.2340  141.5760 C   0  0  0  0  0  3  0  0  0  0  0  0
  184.6880  178.0810  142.1800 C   0  0  1  0  0  3  0  0  0  0  0  0
  185.1560  178.2700  143.6310 C   0  0  0  0  0  2  0  0  0  0  0  0
  188.8750  177.9140  142.7720 C   0  0  0  0  0  0  0  0  0  0  0  0
  186.5240  177.8740  143.7750 O   0  0  0  0  0  0  0  0  0  0  0  0
  190.8620  176.7330  143.7330 C   0  0  0  0  0  3  0  0  0  0  0  0
  191.5990  176.3230  144.8000 N   0  0  0  0  0  0  0  0  0  0  0  0
  191.2230  176.6040  146.0760 C   0  0  0  0  0  0  0  0  0  0  0  0
  190.0550  177.3300  146.3170 C   0  0  0  0  0  3  0  0  0  0  0  0
  189.6820  177.4640  143.9260 C   0  0  0  0  0  0  0  0  0  0  0  0
  189.2850  177.7590  145.2360 C   0  0  0  0  0  3  0  0  0  0  0  0
  192.0280  176.1540  147.1770 C   0  0  0  0  0  0  0  0  0  0  0  0
  192.6760  175.7910  148.0640 N   0  0  0  0  0  0  0  0  0  0  0  0
  188.8750  179.2750  137.9330 O   0  0  0  0  0  0  0  0  0  0  0  0
  188.5010  178.1000  138.1940 C   0  0  0  0  0  0  0  0  0  0  0  0
  188.4110  177.1420  137.1480 N   0  0  0  0  0  1  0  0  0  0  0  0
  188.1640  177.7240  139.5290 N   0  0  0  0  0  2  0  0  0  0  0  0
  183.3930  178.5790  142.0320 O   0  0  0  0  0  0  0  0  0  0  0  0
  183.0200  178.9900  143.3130 C   0  0  0  0  0  2  0  0  0  0  0  0
  181.5130  179.1460  143.3860 C   0  0  0  0  0  2  0  0  0  0  0  0
  180.9370  178.7480  142.1790 O   0  0  0  0  0  0  0  0  0  0  0  0
  180.0630  180.7370  142.8590 O   0  0  0  0  0  1  0  0  0  0  0  0
  180.1080  179.8100  141.8200 C   0  0  0  0  0  2  0  0  0  0  0  0
  1  3  2  0  0  0  0
  2 21  1  6  0  0  0
  2  1  1  0  0  0  0
  2  5  1  0  0  0  0
  3  8  1  0  0  0  0
  3  9  1  0  0  0  0
  4  1  1  0  0  0  0
  4  6  1  0  0  0  0
  5  8  2  0  0  0  0
  6 22  1  1  0  0  0
  6  7  1  0  0  0  0
  7  9  1  0  0  0  0
  8 14  1  0  0  0  0
 10 14  2  0  0  0  0
 10 11  1  0  0  0  0
 11 12  2  0  0  0  0
 12 13  1  0  0  0  0
 12 16  1  0  0  0  0
 14 15  1  0  0  0  0
 15 13  2  0  0  0  0
 16 17  3  0  0  0  0
 18 19  2  0  0  0  0
 19 21  1  0  0  0  0
 20 19  1  0  0  0  0
 22 23  1  0  0  0  0
 23 24  1  0  0  0  0
 25 24  1  0  0  0  0
 27 25  1  0  0  0  0
 27 26  1  0  0  0  0
M  END
>  <MODEL>
1

>  <REMARK>
 VINA RESULT:      -7.5      0.000      0.000
  Name = 
  8 active torsions:
  status: ('A' for Active; 'I' for Inactive)
    1  A    between atoms: C_5  and  O_23
    2  A    between atoms: C_6  and  C_8
    3  A    between atoms: C_7  and  N_26
    4  A    between atoms: O_14  and  C_15
    5  A    between atoms: O_14  and  C_19
    6  A    between atoms: C_19  and  C_27
    7  A    between atoms: C_21  and  C_22
    8  A    between atoms: O_23  and  C_27
                            x       y       z     vdW  Elec       q    Type
                         _______ _______ _______ _____ _____    ______ ____

>  <TORSDO>
F 8

$$$$
=
 OpenBabel10232411313D

 27 29  0  0  1  0  0  0  0  0999 V2000
  187.1490  178.4570  141.7010 C   0  0  0  0  0  0  0  0  0  0  0  0
  188.3410  178.6210  140.8190 C   0  0  1  0  0  3  0  0  0  0  0  0
  187.5140  178.0570  142.9000 C   0  0  0  0  0  0  0  0  0  0  0  0
  185.7270  178.8000  141.3730 C   0  0  0  0  0  2  0  0  0  0  0  0
  189.4490  178.1880  141.7440 C   0  0  0  0  0  3  0  0  0  0  0  0
  184.7690  178.0820  142.3370 C   0  0  1  0  0  3  0  0  0  0  0  0
  185.2370  178.2560  143.7910 C   0  0  0  0  0  2  0  0  0  0  0  0
  188.9530  177.8650  142.9370 C   0  0  0  0  0  0  0  0  0  0  0  0
  186.6000  177.8440  143.9350 O   0  0  0  0  0  0  0  0  0  0  0  0
  190.9500  176.6950  143.8930 C   0  0  0  0  0  3  0  0  0  0  0  0
  191.6800  176.2700  144.9590 N   0  0  0  0  0  0  0  0  0  0  0  0
  191.2810  176.5090  146.2370 C   0  0  0  0  0  0  0  0  0  0  0  0
  190.0960  177.2070  146.4810 C   0  0  0  0  0  3  0  0  0  0  0  0
  189.7530  177.3990  144.0890 C   0  0  0  0  0  0  0  0  0  0  0  0
  189.3330  177.6510  145.4010 C   0  0  0  0  0  3  0  0  0  0  0  0
  192.0790  176.0440  147.3360 C   0  0  0  0  0  0  0  0  0  0  0  0
  192.7220  175.6690  148.2220 N   0  0  0  0  0  0  0  0  0  0  0  0
  188.9260  179.2740  138.0990 O   0  0  0  0  0  0  0  0  0  0  0  0
  188.5640  178.0940  138.3550 C   0  0  0  0  0  0  0  0  0  0  0  0
  188.4670  177.1430  137.3020 N   0  0  0  0  0  1  0  0  0  0  0  0
  188.2470  177.7040  139.6910 N   0  0  0  0  0  2  0  0  0  0  0  0
  183.4800  178.5950  142.1910 O   0  0  0  0  0  0  0  0  0  0  0  0
  183.0130  178.0500  140.9920 C   0  0  0  0  0  2  0  0  0  0  0  0
  182.0230  179.0010  140.3460 C   0  0  0  0  0  2  0  0  0  0  0  0
  182.3080  179.1280  138.9860 O   0  0  0  0  0  0  0  0  0  0  0  0
  184.0930  180.5370  138.8980 O   0  0  0  0  0  1  0  0  0  0  0  0
  182.7030  180.4560  138.8340 C   0  0  0  0  0  2  0  0  0  0  0  0
  1  3  2  0  0  0  0
  2 21  1  6  0  0  0
  2  1  1  0  0  0  0
  2  5  1  0  0  0  0
  3  8  1  0  0  0  0
  3  9  1  0  0  0  0
  4  1  1  0  0  0  0
  4  6  1  0  0  0  0
  5  8  2  0  0  0  0
  6 22  1  1  0  0  0
  6  7  1  0  0  0  0
  7  9  1  0  0  0  0
  8 14  1  0  0  0  0
 10 14  2  0  0  0  0
 10 11  1  0  0  0  0
 11 12  2  0  0  0  0
 12 13  1  0  0  0  0
 12 16  1  0  0  0  0
 14 15  1  0  0  0  0
 15 13  2  0  0  0  0
 16 17  3  0  0  0  0
 18 19  2  0  0  0  0
 19 21  1  0  0  0  0
 20 19  1  0  0  0  0
 23 22  1  0  0  0  0
 24 23  1  0  0  0  0
 25 24  1  0  0  0  0
 27 26  1  0  0  0  0
 27 25  1  0  0  0  0
M  END
>  <MODEL>
2

>  <REMARK>
 VINA RESULT:      -7.4      1.394      1.687
  Name = 
  8 active torsions:
  status: ('A' for Active; 'I' for Inactive)
    1  A    between atoms: C_5  and  O_23
    2  A    between atoms: C_6  and  C_8
    3  A    between atoms: C_7  and  N_26
    4  A    between atoms: O_14  and  C_15
    5  A    between atoms: O_14  and  C_19
    6  A    between atoms: C_19  and  C_27
    7  A    between atoms: C_21  and  C_22
    8  A    between atoms: O_23  and  C_27
                            x       y       z     vdW  Elec       q    Type
                         _______ _______ _______ _____ _____    ______ ____

>  <TORSDO>
F 8

$$$$
=
 OpenBabel10232411313D

 27 29  0  0  1  0  0  0  0  0999 V2000
  189.4890  177.6570  144.2160 C   0  0  0  0  0  0  0  0  0  0  0  0
  189.4050  177.8710  145.6900 C   0  0  1  0  0  3  0  0  0  0  0  0
  188.3060  177.8090  143.6600 C   0  0  0  0  0  0  0  0  0  0  0  0
  190.7290  177.4250  143.4050 C   0  0  0  0  0  2  0  0  0  0  0  0
  187.9300  178.1270  145.8630 C   0  0  0  0  0  3  0  0  0  0  0  0
  190.3660  176.8140  142.0420 C   0  0  1  0  0  3  0  0  0  0  0  0
  189.2140  177.5950  141.3900 C   0  0  0  0  0  2  0  0  0  0  0  0
  187.3140  178.0860  144.6830 C   0  0  0  0  0  0  0  0  0  0  0  0
  188.0990  177.6880  142.2830 O   0  0  0  0  0  0  0  0  0  0  0  0
  185.2970  178.1550  143.2020 C   0  0  0  0  0  3  0  0  0  0  0  0
  183.9640  178.3490  143.0190 N   0  0  0  0  0  0  0  0  0  0  0  0
  183.1430  178.6800  144.0520 C   0  0  0  0  0  0  0  0  0  0  0  0
  183.6650  178.8300  145.3390 C   0  0  0  0  0  3  0  0  0  0  0  0
  185.8660  178.2950  144.4760 C   0  0  0  0  0  0  0  0  0  0  0  0
  185.0310  178.6360  145.5460 C   0  0  0  0  0  3  0  0  0  0  0  0
  181.7400  178.8770  143.8190 C   0  0  0  0  0  0  0  0  0  0  0  0
  180.6090  179.0350  143.6310 N   0  0  0  0  0  0  0  0  0  0  0  0
  191.9980  177.2980  146.7460 O   0  0  0  0  0  0  0  0  0  0  0  0
  191.0980  176.4290  146.8980 C   0  0  0  0  0  0  0  0  0  0  0  0
  191.3940  175.2190  147.5830 N   0  0  0  0  0  1  0  0  0  0  0  0
  189.7830  176.6480  146.3850 N   0  0  0  0  0  2  0  0  0  0  0  0
  191.4820  176.8330  141.2050 O   0  0  0  0  0  0  0  0  0  0  0  0
  191.0260  177.4000  140.0130 C   0  0  0  0  0  2  0  0  0  0  0  0
  191.4520  176.5410  138.8380 C   0  0  0  0  0  2  0  0  0  0  0  0
  190.6930  175.3710  138.8080 O   0  0  0  0  0  0  0  0  0  0  0  0
  190.5050  173.6620  137.3160 O   0  0  0  0  0  1  0  0  0  0  0  0
  190.6040  175.0450  137.4560 C   0  0  0  0  0  2  0  0  0  0  0  0
  1  2  1  0  0  0  0
  2  5  1  0  0  0  0
  2 21  1  1  0  0  0
  3  1  2  0  0  0  0
  3  8  1  0  0  0  0
  4  1  1  0  0  0  0
  6 22  1  6  0  0  0
  6  4  1  0  0  0  0
  7  6  1  0  0  0  0
  7  9  1  0  0  0  0
  8  5  2  0  0  0  0
  9  3  1  0  0  0  0
 10 14  1  0  0  0  0
 11 10  2  0  0  0  0
 11 12  1  0  0  0  0
 12 13  2  0  0  0  0
 13 15  1  0  0  0  0
 14  8  1  0  0  0  0
 14 15  2  0  0  0  0
 16 12  1  0  0  0  0
 17 16  3  0  0  0  0
 18 19  2  0  0  0  0
 19 20  1  0  0  0  0
 21 19  1  0  0  0  0
 23 22  1  0  0  0  0
 24 23  1  0  0  0  0
 25 24  1  0  0  0  0
 26 27  1  0  0  0  0
 27 25  1  0  0  0  0
M  END
>  <MODEL>
3

>  <REMARK>
 VINA RESULT:      -7.3      3.376      8.155
  Name = 
  8 active torsions:
  status: ('A' for Active; 'I' for Inactive)
    1  A    between atoms: C_5  and  O_23
    2  A    between atoms: C_6  and  C_8
    3  A    between atoms: C_7  and  N_26
    4  A    between atoms: O_14  and  C_15
    5  A    between atoms: O_14  and  C_19
    6  A    between atoms: C_19  and  C_27
    7  A    between atoms: C_21  and  C_22
    8  A    between atoms: O_23  and  C_27
                            x       y       z     vdW  Elec       q    Type
                         _______ _______ _______ _____ _____    ______ ____

>  <TORSDO>
F 8

$$$$
=
 OpenBabel10232411313D

 27 29  0  0  1  0  0  0  0  0999 V2000
  189.2610  177.8910  142.9390 C   0  0  0  0  0  0  0  0  0  0  0  0
  188.3490  178.4970  141.9260 C   0  0  1  0  0  3  0  0  0  0  0  0
  190.3080  177.3520  142.3520 C   0  0  0  0  0  0  0  0  0  0  0  0
  189.1280  177.9590  144.4300 C   0  0  0  0  0  2  0  0  0  0  0  0
  189.0650  178.1520  140.6460 C   0  0  0  0  0  3  0  0  0  0  0  0
  189.9790  176.8610  145.0910 C   0  0  1  0  0  3  0  0  0  0  0  0
  191.3940  176.8420  144.4920 C   0  0  0  0  0  2  0  0  0  0  0  0
  190.1900  177.4920  140.9110 C   0  0  0  0  0  0  0  0  0  0  0  0
  191.3370  176.7320  143.0660 O   0  0  0  0  0  0  0  0  0  0  0  0
  192.4920  177.3810  139.9330 C   0  0  0  0  0  3  0  0  0  0  0  0
  193.3630  176.9230  138.9950 N   0  0  0  0  0  0  0  0  0  0  0  0
  192.9640  176.0880  137.9990 C   0  0  0  0  0  0  0  0  0  0  0  0
  191.6300  175.6800  137.9210 C   0  0  0  0  0  3  0  0  0  0  0  0
  191.1430  176.9990  139.8960 C   0  0  0  0  0  0  0  0  0  0  0  0
  190.7210  176.1400  138.8740 C   0  0  0  0  0  3  0  0  0  0  0  0
  193.9130  175.6250  137.0260 C   0  0  0  0  0  0  0  0  0  0  0  0
  194.6780  175.2520  136.2420 N   0  0  0  0  0  0  0  0  0  0  0  0
  185.8070  179.8030  141.8930 O   0  0  0  0  0  0  0  0  0  0  0  0
  185.8190  178.5440  141.9390 C   0  0  0  0  0  0  0  0  0  0  0  0
  184.5910  177.8280  141.9660 N   0  0  0  0  0  1  0  0  0  0  0  0
  187.0550  177.8300  141.9680 N   0  0  0  0  0  2  0  0  0  0  0  0
  190.0500  177.0840  146.4660 O   0  0  0  0  0  0  0  0  0  0  0  0
  188.7300  177.3130  146.8610 C   0  0  0  0  0  2  0  0  0  0  0  0
  188.7090  178.0010  148.2120 C   0  0  0  0  0  2  0  0  0  0  0  0
  187.5510  178.7700  148.3340 O   0  0  0  0  0  0  0  0  0  0  0  0
  185.5660  179.0990  147.2680 O   0  0  0  0  0  1  0  0  0  0  0  0
  186.7240  178.3230  147.3050 C   0  0  0  0  0  2  0  0  0  0  0  0
  1  4  1  0  0  0  0
  2 21  1  6  0  0  0
  2  1  1  0  0  0  0
  3  1  2  0  0  0  0
  3  9  1  0  0  0  0
  4  6  1  0  0  0  0
  5  8  2  0  0  0  0
  5  2  1  0  0  0  0
  6 22  1  1  0  0  0
  7  6  1  0  0  0  0
  8  3  1  0  0  0  0
  9  7  1  0  0  0  0
 11 10  2  0  0  0  0
 12 11  1  0  0  0  0
 13 12  2  0  0  0  0
 13 15  1  0  0  0  0
 14 10  1  0  0  0  0
 14  8  1  0  0  0  0
 15 14  2  0  0  0  0
 16 12  1  0  0  0  0
 17 16  3  0  0  0  0
 18 19  2  0  0  0  0
 19 20  1  0  0  0  0
 19 21  1  0  0  0  0
 22 23  1  0  0  0  0
 23 24  1  0  0  0  0
 24 25  1  0  0  0  0
 26 27  1  0  0  0  0
 27 25  1  0  0  0  0
M  END
>  <MODEL>
4

>  <REMARK>
 VINA RESULT:      -7.1      3.517      6.551
  Name = 
  8 active torsions:
  status: ('A' for Active; 'I' for Inactive)
    1  A    between atoms: C_5  and  O_23
    2  A    between atoms: C_6  and  C_8
    3  A    between atoms: C_7  and  N_26
    4  A    between atoms: O_14  and  C_15
    5  A    between atoms: O_14  and  C_19
    6  A    between atoms: C_19  and  C_27
    7  A    between atoms: C_21  and  C_22
    8  A    between atoms: O_23  and  C_27
                            x       y       z     vdW  Elec       q    Type
                         _______ _______ _______ _____ _____    ______ ____

>  <TORSDO>
F 8

$$$$
=
 OpenBabel10232411313D

 27 29  0  0  1  0  0  0  0  0999 V2000
  186.3680  177.9350  144.5440 C   0  0  0  0  0  0  0  0  0  0  0  0
  187.3070  177.1670  145.4110 C   0  0  1  0  0  3  0  0  0  0  0  0
  186.8140  177.9780  143.3060 C   0  0  0  0  0  0  0  0  0  0  0  0
  185.0330  178.4960  144.9320 C   0  0  0  0  0  2  0  0  0  0  0  0
  188.3970  176.8230  144.4290 C   0  0  0  0  0  3  0  0  0  0  0  0
  184.5980  179.5760  143.9270 C   0  0  1  0  0  3  0  0  0  0  0  0
  184.7800  179.0760  142.4850 C   0  0  0  0  0  2  0  0  0  0  0  0
  188.0960  177.3000  143.2220 C   0  0  0  0  0  0  0  0  0  0  0  0
  186.1190  178.6160  142.2760 O   0  0  0  0  0  0  0  0  0  0  0  0
  190.0810  176.3380  142.0380 C   0  0  0  0  0  3  0  0  0  0  0  0
  190.8490  176.2040  140.9250 N   0  0  0  0  0  0  0  0  0  0  0  0
  190.5400  176.8410  139.7640 C   0  0  0  0  0  0  0  0  0  0  0  0
  189.4090  177.6580  139.6950 C   0  0  0  0  0  3  0  0  0  0  0  0
  188.9370  177.1480  142.0170 C   0  0  0  0  0  0  0  0  0  0  0  0
  188.6090  177.8090  140.8270 C   0  0  0  0  0  3  0  0  0  0  0  0
  191.3760  176.6740  138.6090 C   0  0  0  0  0  0  0  0  0  0  0  0
  192.0500  176.5390  137.6770 N   0  0  0  0  0  0  0  0  0  0  0  0
  188.6050  176.2880  147.8020 O   0  0  0  0  0  0  0  0  0  0  0  0
  188.4820  177.5300  147.6230 C   0  0  0  0  0  0  0  0  0  0  0  0
  188.9880  178.4350  148.5950 N   0  0  0  0  0  1  0  0  0  0  0  0
  187.8340  178.0350  146.4550 N   0  0  0  0  0  2  0  0  0  0  0  0
  183.2620  179.9120  144.1460 O   0  0  0  0  0  0  0  0  0  0  0  0
  182.5390  178.7870  143.7450 C   0  0  0  0  0  2  0  0  0  0  0  0
  181.1420  179.1960  143.3190 C   0  0  0  0  0  2  0  0  0  0  0  0
  180.7190  178.4000  142.2550 O   0  0  0  0  0  0  0  0  0  0  0  0
  180.4940  179.9590  140.6110 O   0  0  0  0  0  1  0  0  0  0  0  0
  181.3220  178.9660  141.1330 C   0  0  0  0  0  2  0  0  0  0  0  0
  1  4  1  0  0  0  0
  1  2  1  0  0  0  0
  2 21  1  1  0  0  0
  3  1  2  0  0  0  0
  5  2  1  0  0  0  0
  6 22  1  1  0  0  0
  6  4  1  0  0  0  0
  7  6  1  0  0  0  0
  8  3  1  0  0  0  0
  8  5  2  0  0  0  0
  9  7  1  0  0  0  0
  9  3  1  0  0  0  0
 11 10  2  0  0  0  0
 12 11  1  0  0  0  0
 13 12  2  0  0  0  0
 13 15  1  0  0  0  0
 14 10  1  0  0  0  0
 14  8  1  0  0  0  0
 15 14  2  0  0  0  0
 16 12  1  0  0  0  0
 17 16  3  0  0  0  0
 19 18  2  0  0  0  0
 19 20  1  0  0  0  0
 21 19  1  0  0  0  0
 23 22  1  0  0  0  0
 24 23  1  0  0  0  0
 25 24  1  0  0  0  0
 26 27  1  0  0  0  0
 27 25  1  0  0  0  0
M  END
>  <MODEL>
5

>  <REMARK>
 VINA RESULT:      -7.0      2.443      5.364
  Name = 
  8 active torsions:
  status: ('A' for Active; 'I' for Inactive)
    1  A    between atoms: C_5  and  O_23
    2  A    between atoms: C_6  and  C_8
    3  A    between atoms: C_7  and  N_26
    4  A    between atoms: O_14  and  C_15
    5  A    between atoms: O_14  and  C_19
    6  A    between atoms: C_19  and  C_27
    7  A    between atoms: C_21  and  C_22
    8  A    between atoms: O_23  and  C_27
                            x       y       z     vdW  Elec       q    Type
                         _______ _______ _______ _____ _____    ______ ____

>  <TORSDO>
F 8

$$$$
=
 OpenBabel10232411313D

 27 29  0  0  1  0  0  0  0  0999 V2000
  188.1530  177.3710  142.6120 C   0  0  0  0  0  0  0  0  0  0  0  0
  189.0620  176.6230  143.5270 C   0  0  1  0  0  3  0  0  0  0  0  0
  188.6840  177.4640  141.4110 C   0  0  0  0  0  0  0  0  0  0  0  0
  186.7690  177.8630  142.9140 C   0  0  0  0  0  2  0  0  0  0  0  0
  190.2330  176.3530  142.6190 C   0  0  0  0  0  3  0  0  0  0  0  0
  186.3580  178.9470  141.9050 C   0  0  1  0  0  3  0  0  0  0  0  0
  186.6650  178.4930  140.4690 C   0  0  0  0  0  2  0  0  0  0  0  0
  189.9980  176.8470  141.4050 C   0  0  0  0  0  0  0  0  0  0  0  0
  188.0360  178.0980  140.3470 O   0  0  0  0  0  0  0  0  0  0  0  0
  192.2270  177.2850  140.3530 C   0  0  0  0  0  3  0  0  0  0  0  0
  193.0780  177.2040  139.2960 N   0  0  0  0  0  0  0  0  0  0  0  0
  192.7060  176.6200  138.1250 C   0  0  0  0  0  0  0  0  0  0  0  0
  191.4230  176.0860  137.9860 C   0  0  0  0  0  3  0  0  0  0  0  0
  190.9290  176.7630  140.2610 C   0  0  0  0  0  0  0  0  0  0  0  0
  190.5360  176.1600  139.0600 C   0  0  0  0  0  3  0  0  0  0  0  0
  193.6330  176.5540  137.0300 C   0  0  0  0  0  0  0  0  0  0  0  0
  194.3790  176.5010  136.1470 N   0  0  0  0  0  0  0  0  0  0  0  0
  187.7140  176.8690  146.0360 O   0  0  0  0  0  0  0  0  0  0  0  0
  188.7570  177.5550  145.8600 C   0  0  0  0  0  0  0  0  0  0  0  0
  189.2220  178.4080  146.8980 N   0  0  0  0  0  1  0  0  0  0  0  0
  189.4720  177.4860  144.6260 N   0  0  0  0  0  2  0  0  0  0  0  0
  184.9950  179.2190  142.0340 O   0  0  0  0  0  0  0  0  0  0  0  0
  184.8210  179.5430  143.3810 C   0  0  0  0  0  2  0  0  0  0  0  0
  183.4250  179.1520  143.8280 C   0  0  0  0  0  2  0  0  0  0  0  0
  183.3560  179.1570  145.2210 O   0  0  0  0  0  0  0  0  0  0  0  0
  184.6250  178.4140  146.9580 O   0  0  0  0  0  1  0  0  0  0  0  0
  184.6520  178.8590  145.6370 C   0  0  0  0  0  2  0  0  0  0  0  0
  1  4  1  0  0  0  0
  1  2  1  0  0  0  0
  2 21  1  1  0  0  0
  3  1  2  0  0  0  0
  5  2  1  0  0  0  0
  6 22  1  6  0  0  0
  6  4  1  0  0  0  0
  7  6  1  0  0  0  0
  8  3  1  0  0  0  0
  8  5  2  0  0  0  0
  9  7  1  0  0  0  0
  9  3  1  0  0  0  0
 11 10  2  0  0  0  0
 12 11  1  0  0  0  0
 13 12  2  0  0  0  0
 13 15  1  0  0  0  0
 14 10  1  0  0  0  0
 14  8  1  0  0  0  0
 15 14  2  0  0  0  0
 16 12  1  0  0  0  0
 17 16  3  0  0  0  0
 19 18  2  0  0  0  0
 19 20  1  0  0  0  0
 21 19  1  0  0  0  0
 22 23  1  0  0  0  0
 23 24  1  0  0  0  0
 24 25  1  0  0  0  0
 25 27  1  0  0  0  0
 27 26  1  0  0  0  0
M  END
>  <MODEL>
6

>  <REMARK>
 VINA RESULT:      -7.0      2.922      5.840
  Name = 
  8 active torsions:
  status: ('A' for Active; 'I' for Inactive)
    1  A    between atoms: C_5  and  O_23
    2  A    between atoms: C_6  and  C_8
    3  A    between atoms: C_7  and  N_26
    4  A    between atoms: O_14  and  C_15
    5  A    between atoms: O_14  and  C_19
    6  A    between atoms: C_19  and  C_27
    7  A    between atoms: C_21  and  C_22
    8  A    between atoms: O_23  and  C_27
                            x       y       z     vdW  Elec       q    Type
                         _______ _______ _______ _____ _____    ______ ____

>  <TORSDO>
F 8

$$$$
=
 OpenBabel10232411313D

 27 29  0  0  1  0  0  0  0  0999 V2000
  188.7420  177.7090  140.9180 C   0  0  0  0  0  0  0  0  0  0  0  0
  188.3790  178.4150  139.6550 C   0  0  1  0  0  3  0  0  0  0  0  0
  189.8430  177.0070  140.7530 C   0  0  0  0  0  0  0  0  0  0  0  0
  188.0680  177.8360  142.2510 C   0  0  0  0  0  2  0  0  0  0  0  0
  189.4670  177.9350  138.7300 C   0  0  0  0  0  3  0  0  0  0  0  0
  188.4360  176.6440  143.1490 C   0  0  1  0  0  3  0  0  0  0  0  0
  189.9540  176.4010  143.1280 C   0  0  0  0  0  2  0  0  0  0  0  0
  190.3000  177.1240  139.3800 C   0  0  0  0  0  0  0  0  0  0  0  0
  190.4240  176.2630  141.7830 O   0  0  0  0  0  0  0  0  0  0  0  0
  192.7770  176.9140  139.0900 C   0  0  0  0  0  3  0  0  0  0  0  0
  193.8610  176.3060  138.5380 N   0  0  0  0  0  0  0  0  0  0  0  0
  193.7320  175.2590  137.6810 C   0  0  0  0  0  0  0  0  0  0  0  0
  192.4620  174.7820  137.3460 C   0  0  0  0  0  3  0  0  0  0  0  0
  191.4830  176.4700  138.7840 C   0  0  0  0  0  0  0  0  0  0  0  0
  191.3380  175.3920  137.9020 C   0  0  0  0  0  3  0  0  0  0  0  0
  194.9000  174.6430  137.1180 C   0  0  0  0  0  0  0  0  0  0  0  0
  195.8420  174.1470  136.6650 N   0  0  0  0  0  0  0  0  0  0  0  0
  187.1410  179.1560  137.1880 O   0  0  0  0  0  0  0  0  0  0  0  0
  186.5250  178.3490  137.9350 C   0  0  0  0  0  0  0  0  0  0  0  0
  185.2610  177.8390  137.5300 N   0  0  0  0  0  1  0  0  0  0  0  0
  187.0830  177.9450  139.1860 N   0  0  0  0  0  2  0  0  0  0  0  0
  188.0150  176.8900  144.4560 O   0  0  0  0  0  0  0  0  0  0  0  0
  189.1740  177.2560  145.1430 C   0  0  0  0  0  2  0  0  0  0  0  0
  188.8470  177.5250  146.6000 C   0  0  0  0  0  2  0  0  0  0  0  0
  189.7230  176.8140  147.4210 O   0  0  0  0  0  0  0  0  0  0  0  0
  191.9800  176.9090  147.6980 O   0  0  0  0  0  1  0  0  0  0  0  0
  190.9490  176.8750  146.7600 C   0  0  0  0  0  2  0  0  0  0  0  0
  1  4  1  0  0  0  0
  2 21  1  6  0  0  0
  2  1  1  0  0  0  0
  3  1  2  0  0  0  0
  3  9  1  0  0  0  0
  4  6  1  0  0  0  0
  5  8  2  0  0  0  0
  5  2  1  0  0  0  0
  6 22  1  1  0  0  0
  7  6  1  0  0  0  0
  8  3  1  0  0  0  0
  9  7  1  0  0  0  0
 11 10  2  0  0  0  0
 12 11  1  0  0  0  0
 13 12  2  0  0  0  0
 13 15  1  0  0  0  0
 14 10  1  0  0  0  0
 14  8  1  0  0  0  0
 15 14  2  0  0  0  0
 16 12  1  0  0  0  0
 17 16  3  0  0  0  0
 18 19  2  0  0  0  0
 19 21  1  0  0  0  0
 20 19  1  0  0  0  0
 22 23  1  0  0  0  0
 23 24  1  0  0  0  0
 24 25  1  0  0  0  0
 27 25  1  0  0  0  0
 27 26  1  0  0  0  0
M  END
>  <MODEL>
7

>  <REMARK>
 VINA RESULT:      -6.8      4.293      6.941
  Name = 
  8 active torsions:
  status: ('A' for Active; 'I' for Inactive)
    1  A    between atoms: C_5  and  O_23
    2  A    between atoms: C_6  and  C_8
    3  A    between atoms: C_7  and  N_26
    4  A    between atoms: O_14  and  C_15
    5  A    between atoms: O_14  and  C_19
    6  A    between atoms: C_19  and  C_27
    7  A    between atoms: C_21  and  C_22
    8  A    between atoms: O_23  and  C_27
                            x       y       z     vdW  Elec       q    Type
                         _______ _______ _______ _____ _____    ______ ____

>  <TORSDO>
F 8

$$$$
=
 OpenBabel10232411313D

 27 29  0  0  1  0  0  0  0  0999 V2000
  184.0140  178.5540  142.0970 C   0  0  0  0  0  0  0  0  0  0  0  0
  182.8840  178.4340  143.0620 C   0  0  1  0  0  3  0  0  0  0  0  0
  185.1680  178.4970  142.7280 C   0  0  0  0  0  0  0  0  0  0  0  0
  183.9250  178.6070  140.6010 C   0  0  0  0  0  2  0  0  0  0  0  0
  183.6260  178.3460  144.3700 C   0  0  0  0  0  3  0  0  0  0  0  0
  185.2260  179.1740  140.0100 C   0  0  1  0  0  3  0  0  0  0  0  0
  186.4480  178.4850  140.6360 C   0  0  0  0  0  2  0  0  0  0  0  0
  184.9400  178.3850  144.1580 C   0  0  0  0  0  0  0  0  0  0  0  0
  186.3950  178.5620  142.0640 O   0  0  0  0  0  0  0  0  0  0  0  0
  185.7200  178.8320  146.4950 C   0  0  0  0  0  3  0  0  0  0  0  0
  186.6740  178.7680  147.4610 N   0  0  0  0  0  0  0  0  0  0  0  0
  187.8920  178.2110  147.2240 C   0  0  0  0  0  0  0  0  0  0  0  0
  188.1880  177.6870  145.9630 C   0  0  0  0  0  3  0  0  0  0  0  0
  185.9710  178.3200  145.2140 C   0  0  0  0  0  0  0  0  0  0  0  0
  187.2220  177.7450  144.9590 C   0  0  0  0  0  3  0  0  0  0  0  0
  188.8750  178.1610  148.2700 C   0  0  0  0  0  0  0  0  0  0  0  0
  189.6670  178.1220  149.1120 N   0  0  0  0  0  0  0  0  0  0  0  0
  180.1620  178.5930  142.2030 O   0  0  0  0  0  0  0  0  0  0  0  0
  180.7170  179.6550  142.5950 C   0  0  0  0  0  0  0  0  0  0  0  0
  179.9830  180.8720  142.6020 N   0  0  0  0  0  1  0  0  0  0  0  0
  182.0780  179.6470  143.0270 N   0  0  0  0  0  2  0  0  0  0  0  0
  185.2350  178.9900  138.6270 O   0  0  0  0  0  0  0  0  0  0  0  0
  186.2470  178.0550  138.3980 C   0  0  0  0  0  2  0  0  0  0  0  0
  186.7530  178.1830  136.9730 C   0  0  0  0  0  2  0  0  0  0  0  0
  188.0830  177.7680  136.9040 O   0  0  0  0  0  0  0  0  0  0  0  0
  189.0130  179.7780  137.4290 O   0  0  0  0  0  1  0  0  0  0  0  0
  188.7300  178.4980  137.9000 C   0  0  0  0  0  2  0  0  0  0  0  0
  1  3  2  0  0  0  0
  1  2  1  0  0  0  0
  2 21  1  1  0  0  0
  2  5  1  0  0  0  0
  3  8  1  0  0  0  0
  4  1  1  0  0  0  0
  6 22  1  6  0  0  0
  6  4  1  0  0  0  0
  6  7  1  0  0  0  0
  7  9  1  0  0  0  0
  8  5  2  0  0  0  0
  8 14  1  0  0  0  0
  9  3  1  0  0  0  0
 10 11  1  0  0  0  0
 12 11  2  0  0  0  0
 12 16  1  0  0  0  0
 13 12  1  0  0  0  0
 14 10  2  0  0  0  0
 15 14  1  0  0  0  0
 15 13  2  0  0  0  0
 16 17  3  0  0  0  0
 18 19  2  0  0  0  0
 19 20  1  0  0  0  0
 19 21  1  0  0  0  0
 23 22  1  0  0  0  0
 24 23  1  0  0  0  0
 25 24  1  0  0  0  0
 25 27  1  0  0  0  0
 26 27  1  0  0  0  0
M  END
>  <MODEL>
8

>  <REMARK>
 VINA RESULT:      -6.7      3.198      6.158
  Name = 
  8 active torsions:
  status: ('A' for Active; 'I' for Inactive)
    1  A    between atoms: C_5  and  O_23
    2  A    between atoms: C_6  and  C_8
    3  A    between atoms: C_7  and  N_26
    4  A    between atoms: O_14  and  C_15
    5  A    between atoms: O_14  and  C_19
    6  A    between atoms: C_19  and  C_27
    7  A    between atoms: C_21  and  C_22
    8  A    between atoms: O_23  and  C_27
                            x       y       z     vdW  Elec       q    Type
                         _______ _______ _______ _____ _____    ______ ____

>  <TORSDO>
F 8

$$$$
=
 OpenBabel10232411313D

 27 29  0  0  1  0  0  0  0  0999 V2000
  188.9160  177.7880  140.0040 C   0  0  0  0  0  0  0  0  0  0  0  0
  190.3410  177.3890  140.1910 C   0  0  1  0  0  3  0  0  0  0  0  0
  188.3210  177.9310  141.1700 C   0  0  0  0  0  0  0  0  0  0  0  0
  188.2310  178.1160  138.7120 C   0  0  0  0  0  2  0  0  0  0  0  0
  190.4220  177.2890  141.6920 C   0  0  0  0  0  3  0  0  0  0  0  0
  186.7050  178.0340  138.8830 C   0  0  1  0  0  3  0  0  0  0  0  0
  186.2620  178.7880  140.1470 C   0  0  0  0  0  2  0  0  0  0  0  0
  189.2490  177.6030  142.2380 C   0  0  0  0  0  0  0  0  0  0  0  0
  186.9860  178.3220  141.2910 O   0  0  0  0  0  0  0  0  0  0  0  0
  189.9690  177.9310  144.6130 C   0  0  0  0  0  3  0  0  0  0  0  0
  189.6990  177.9390  145.9460 N   0  0  0  0  0  0  0  0  0  0  0  0
  188.4610  177.6450  146.4240 C   0  0  0  0  0  0  0  0  0  0  0  0
  187.4280  177.3240  145.5400 C   0  0  0  0  0  3  0  0  0  0  0  0
  188.9640  177.6140  143.6880 C   0  0  0  0  0  0  0  0  0  0  0  0
  187.6850  177.3100  144.1690 C   0  0  0  0  0  3  0  0  0  0  0  0
  188.2140  177.6640  147.8380 C   0  0  0  0  0  0  0  0  0  0  0  0
  188.0160  177.6790  148.9790 N   0  0  0  0  0  0  0  0  0  0  0  0
  191.3170  176.9230  137.5440 O   0  0  0  0  0  0  0  0  0  0  0  0
  191.0670  175.9180  138.2640 C   0  0  0  0  0  0  0  0  0  0  0  0
  191.2810  174.6120  137.7470 N   0  0  0  0  0  1  0  0  0  0  0  0
  190.5680  176.0810  139.5920 N   0  0  0  0  0  2  0  0  0  0  0  0
  186.0750  178.5780  137.7630 O   0  0  0  0  0  0  0  0  0  0  0  0
  185.3660  177.5140  137.2010 C   0  0  0  0  0  2  0  0  0  0  0  0
  186.0060  177.1050  135.8880 C   0  0  0  0  0  2  0  0  0  0  0  0
  186.8380  176.0040  136.0890 O   0  0  0  0  0  0  0  0  0  0  0  0
  187.9700  177.6570  135.0090 O   0  0  0  0  0  1  0  0  0  0  0  0
  188.0110  176.3220  135.4080 C   0  0  0  0  0  2  0  0  0  0  0  0
  1  2  1  0  0  0  0
  1  3  2  0  0  0  0
  2 21  1  6  0  0  0
  2  5  1  0  0  0  0
  3  9  1  0  0  0  0
  3  8  1  0  0  0  0
  4  6  1  0  0  0  0
  4  1  1  0  0  0  0
  5  8  2  0  0  0  0
  6 22  1  6  0  0  0
  6  7  1  0  0  0  0
  7  9  1  0  0  0  0
  8 14  1  0  0  0  0
 10 11  1  0  0  0  0
 11 12  2  0  0  0  0
 12 16  1  0  0  0  0
 13 12  1  0  0  0  0
 14 15  1  0  0  0  0
 14 10  2  0  0  0  0
 15 13  2  0  0  0  0
 16 17  3  0  0  0  0
 18 19  2  0  0  0  0
 19 21  1  0  0  0  0
 20 19  1  0  0  0  0
 23 22  1  0  0  0  0
 24 25  1  0  0  0  0
 24 23  1  0  0  0  0
 26 27  1  0  0  0  0
 27 25  1  0  0  0  0
M  END
>  <MODEL>
9

>  <REMARK>
 VINA RESULT:      -6.7      3.407      4.974
  Name = 
  8 active torsions:
  status: ('A' for Active; 'I' for Inactive)
    1  A    between atoms: C_5  and  O_23
    2  A    between atoms: C_6  and  C_8
    3  A    between atoms: C_7  and  N_26
    4  A    between atoms: O_14  and  C_15
    5  A    between atoms: O_14  and  C_19
    6  A    between atoms: C_19  and  C_27
    7  A    between atoms: C_21  and  C_22
    8  A    between atoms: O_23  and  C_27
                            x       y       z     vdW  Elec       q    Type
                         _______ _______ _______ _____ _____    ______ ____

>  <TORSDO>
F 8

$$$$
