=
 OpenBabel10222421403D

 47 51  0  0  1  0  0  0  0  0999 V2000
  189.1310  177.2890  139.9810 C   0  0  0  0  0  0  0  0  0  0  0  0
  187.9950  177.2450  139.2330 N   0  0  0  0  0  0  0  0  0  0  0  0
  188.0250  176.9650  137.9000 C   0  0  0  0  0  0  0  0  0  0  0  0
  189.2440  176.7170  137.2670 C   0  0  0  0  0  3  0  0  0  0  0  0
  190.3680  177.0450  139.3810 C   0  0  0  0  0  3  0  0  0  0  0  0
  190.4250  176.7510  138.0120 C   0  0  0  0  0  0  0  0  0  0  0  0
  186.2170  175.4970  136.9840 C   0  0  1  0  0  3  0  0  0  0  0  0
  182.6490  178.7050  139.3210 C   0  0  0  0  0  1  0  0  0  0  0  0
  186.7570  176.9460  137.1030 C   0  0  1  0  0  3  0  0  0  0  0  0
  182.2590  177.7760  137.1100 N   0  0  0  0  0  2  0  0  0  0  0  0
  183.9650  176.4140  137.0460 C   0  0  0  0  0  0  0  0  0  0  0  0
  183.2460  178.4330  137.9570 C   0  0  2  0  0  3  0  0  0  0  0  0
  185.7370  177.9040  137.7010 C   0  0  0  0  0  0  0  0  0  0  0  0
  186.0370  179.0720  137.8970 O   0  0  0  0  0  0  0  0  0  0  0  0
  182.7960  176.6160  136.5560 N   0  0  0  0  0  0  0  0  0  0  0  0
  184.3700  177.4010  138.0770 C   0  0  2  0  0  3  0  0  0  0  0  0
  184.8570  175.4730  136.5430 O   0  0  0  0  0  0  0  0  0  0  0  0
  187.8850  173.8100  136.7930 F   0  0  0  0  0  0  0  0  0  0  0  0
  187.0830  174.6580  136.0530 C   0  0  0  0  0  3  0  0  0  0  0  0
  186.2930  173.9180  135.1910 F   0  0  0  0  0  0  0  0  0  0  0  0
  189.0690  177.6090  141.4410 C   0  0  2  0  0  3  0  0  0  0  0  0
  188.7990  179.0920  141.6610 C   0  0  0  0  0  1  0  0  0  0  0  0
  190.3110  177.0970  142.1820 C   0  0  2  0  0  3  0  0  0  0  0  0
  188.7540  175.4370  142.9860 O   0  0  0  0  0  1  0  0  0  0  0  0
  190.1040  175.6850  142.7310 C   0  0  0  0  0  2  0  0  0  0  0  0
  190.8230  178.0620  143.2510 C   0  0  0  0  0  2  0  0  0  0  0  0
  191.6740  177.3250  144.2680 C   0  0  0  0  0  2  0  0  0  0  0  0
  191.3020  177.7080  145.5550 O   0  0  0  0  0  0  0  0  0  0  0  0
  190.1340  176.9840  145.8120 C   0  0  0  0  0  2  0  0  0  0  0  0
  185.3930  178.7040  146.5990 C   0  0  0  0  0  2  0  0  0  0  0  0
  186.6440  178.0520  147.2050 C   0  0  1  0  0  3  0  0  0  0  0  0
  187.6760  177.5110  146.1640 C   0  0  1  0  0  3  0  0  0  0  0  0
  188.1180  178.1540  148.8900 C   0  0  0  0  0  2  0  0  0  0  0  0
  185.0110  178.0390  145.2810 C   0  0  0  0  0  2  0  0  0  0  0  0
  186.1540  178.1810  144.3250 C   0  0  0  0  0  3  0  0  0  0  0  0
  189.3550  177.7350  148.0830 C   0  0  0  0  0  2  0  0  0  0  0  0
  187.4020  177.9480  144.7450 C   0  0  0  0  0  3  0  0  0  0  0  0
  187.2470  178.9370  148.1160 O   0  0  0  0  0  0  0  0  0  0  0  0
  189.1220  177.8360  146.5690 C   0  0  1  0  0  3  0  0  0  0  0  0
  191.6710  176.5030  137.3570 N   0  0  0  0  0  2  0  0  0  0  0  0
  192.1800  175.1670  137.0720 C   0  0  2  0  0  3  0  0  0  0  0  0
  191.4200  174.2210  137.7650 O   0  0  0  0  0  1  0  0  0  0  0  0
  193.6680  175.0340  137.4330 C   0  0  2  0  0  0  0  0  0  0  0  0
  193.8920  173.8320  138.0820 F   0  0  0  0  0  0  0  0  0  0  0  0
  194.0100  176.0710  138.3020 O   0  0  0  0  0  1  0  0  0  0  0  0
  195.6510  175.9720  136.4280 O   0  0  0  0  0  1  0  0  0  0  0  0
  194.5670  175.1220  136.2000 C   0  0  0  0  0  2  0  0  0  0  0  0
  1 21  1  0  0  0  0
  2  1  2  0  0  0  0
  3  2  1  0  0  0  0
  4  3  2  0  0  0  0
  4  6  1  0  0  0  0
  5  1  1  0  0  0  0
  6  5  2  0  0  0  0
  7 19  1  6  0  0  0
  7  9  1  0  0  0  0
  9 13  1  0  0  0  0
  9  3  1  1  0  0  0
 10 12  1  0  0  0  0
 12 16  1  0  0  0  0
 12  8  1  1  0  0  0
 13 14  2  0  0  0  0
 13 16  1  0  0  0  0
 15 11  2  0  0  0  0
 15 10  1  0  0  0  0
 16 11  1  6  0  0  0
 17  7  1  0  0  0  0
 17 11  1  0  0  0  0
 19 18  1  0  0  0  0
 20 19  1  0  0  0  0
 21 22  1  6  0  0  0
 21 23  1  0  0  0  0
 23 25  1  1  0  0  0
 23 26  1  0  0  0  0
 25 24  1  0  0  0  0
 26 27  1  0  0  0  0
 27 28  1  0  0  0  0
 28 29  1  0  0  0  0
 31 30  1  6  0  0  0
 31 38  1  0  0  0  0
 32 37  1  6  0  0  0
 32 39  1  0  0  0  0
 32 31  1  0  0  0  0
 34 30  1  0  0  0  0
 35 37  2  0  0  0  0
 35 34  1  0  0  0  0
 36 33  1  0  0  0  0
 38 33  1  0  0  0  0
 39 29  1  6  0  0  0
 39 36  1  0  0  0  0
 40  6  1  0  0  0  0
 41 40  1  0  0  0  0
 41 43  1  0  0  0  0
 41 42  1  1  0  0  0
 43 44  1  1  0  0  0
 43 45  1  0  0  0  0
 47 46  1  0  0  0  0
 47 43  1  0  0  0  0
M  END
>  <MODEL>
1

>  <REMARK>
 VINA RESULT:      -8.3      0.000      0.000
  Name = 
  14 active torsions:
  status: ('A' for Active; 'I' for Inactive)
    1  A    between atoms: C_1  and  C_32
    2  A    between atoms: C_1  and  C_39
    3  A    between atoms: C_2  and  C_28
    4  A    between atoms: C_4  and  C_18
    5  A    between atoms: C_6  and  C_33
    6  A    between atoms: C_6  and  C_44
    7  A    between atoms: C_7  and  C_16
    8  A    between atoms: O_8  and  C_10
    9  A    between atoms: O_8  and  C_39
   10  A    between atoms: C_10  and  C_42
   11  A    between atoms: C_18  and  C_32
   12  A    between atoms: C_32  and  C_36
   13  A    between atoms: C_33  and  N_34
   14  A    between atoms: N_34  and  C_38
                            x       y       z     vdW  Elec       q    Type
                         _______ _______ _______ _____ _____    ______ ____

>  <TORSDO>
F 14

$$$$
=
 OpenBabel10222421403D

 47 51  0  0  1  0  0  0  0  0999 V2000
  186.5510  178.4960  141.2150 C   0  0  0  0  0  0  0  0  0  0  0  0
  187.0400  177.9950  142.3820 N   0  0  0  0  0  0  0  0  0  0  0  0
  188.2560  177.3850  142.4470 C   0  0  0  0  0  0  0  0  0  0  0  0
  189.0360  177.2600  141.2960 C   0  0  0  0  0  3  0  0  0  0  0  0
  187.3050  178.3890  140.0440 C   0  0  0  0  0  3  0  0  0  0  0  0
  188.5610  177.7700  140.0850 C   0  0  0  0  0  0  0  0  0  0  0  0
  190.2130  177.2810  144.0050 C   0  0  1  0  0  3  0  0  0  0  0  0
  186.9640  178.8610  147.9340 C   0  0  0  0  0  1  0  0  0  0  0  0
  188.7530  176.8250  143.7450 C   0  0  1  0  0  3  0  0  0  0  0  0
  188.6720  177.1730  148.3040 N   0  0  0  0  0  2  0  0  0  0  0  0
  189.6890  177.3400  146.3790 C   0  0  0  0  0  0  0  0  0  0  0  0
  187.6130  177.6010  147.4010 C   0  0  2  0  0  3  0  0  0  0  0  0
  187.8120  177.1980  144.8810 C   0  0  0  0  0  0  0  0  0  0  0  0
  186.6200  176.9420  144.7960 O   0  0  0  0  0  0  0  0  0  0  0  0
  189.8570  176.9770  147.5990 N   0  0  0  0  0  0  0  0  0  0  0  0
  188.3490  177.9080  146.0940 C   0  0  2  0  0  3  0  0  0  0  0  0
  190.6000  177.0680  145.3640 O   0  0  0  0  0  0  0  0  0  0  0  0
  192.1980  177.4490  142.7040 F   0  0  0  0  0  0  0  0  0  0  0  0
  191.1870  176.5800  143.0670 C   0  0  0  0  0  3  0  0  0  0  0  0
  191.7300  175.4630  143.6790 F   0  0  0  0  0  0  0  0  0  0  0  0
  185.2080  179.1510  141.1710 C   0  0  2  0  0  3  0  0  0  0  0  0
  184.6030  179.2450  142.5660 C   0  0  0  0  0  1  0  0  0  0  0  0
  184.2850  178.4750  140.1480 C   0  0  2  0  0  3  0  0  0  0  0  0
  184.4630  180.5480  138.9260 O   0  0  0  0  0  1  0  0  0  0  0  0
  183.6010  179.4940  139.2370 C   0  0  0  0  0  2  0  0  0  0  0  0
  183.2880  177.5020  140.7780 C   0  0  0  0  0  2  0  0  0  0  0  0
  182.0670  177.3480  139.8920 C   0  0  0  0  0  2  0  0  0  0  0  0
  182.0380  176.0610  139.3550 O   0  0  0  0  0  0  0  0  0  0  0  0
  181.7990  176.2560  137.9930 C   0  0  0  0  0  2  0  0  0  0  0  0
  186.2690  174.3730  136.4030 C   0  0  0  0  0  2  0  0  0  0  0  0
  184.8850  174.0780  136.9970 C   0  0  1  0  0  3  0  0  0  0  0  0
  184.1160  175.3270  137.5350 C   0  0  1  0  0  3  0  0  0  0  0  0
  183.0510  172.8030  136.8000 C   0  0  0  0  0  2  0  0  0  0  0  0
  186.9340  175.5450  137.1170 C   0  0  0  0  0  2  0  0  0  0  0  0
  186.0630  176.7540  136.9660 C   0  0  0  0  0  3  0  0  0  0  0  0
  182.0320  173.8790  137.2020 C   0  0  0  0  0  2  0  0  0  0  0  0
  184.7420  176.6450  137.1470 C   0  0  0  0  0  3  0  0  0  0  0  0
  184.1130  173.3590  136.0680 O   0  0  0  0  0  0  0  0  0  0  0  0
  182.6290  175.2930  137.1520 C   0  0  1  0  0  3  0  0  0  0  0  0
  189.3610  177.6320  138.9080 N   0  0  0  0  0  2  0  0  0  0  0  0
  190.4570  176.6770  138.7870 C   0  0  2  0  0  3  0  0  0  0  0  0
  191.5780  177.1660  139.4610 O   0  0  0  0  0  1  0  0  0  0  0  0
  190.7960  176.3820  137.3170 C   0  0  2  0  0  0  0  0  0  0  0  0
  192.1270  176.6700  137.0730 F   0  0  0  0  0  0  0  0  0  0  0  0
  190.0140  177.2050  136.5050 O   0  0  0  0  0  1  0  0  0  0  0  0
  191.2920  174.0530  137.7060 O   0  0  0  0  0  1  0  0  0  0  0  0
  190.5120  174.9270  136.9450 C   0  0  0  0  0  2  0  0  0  0  0  0
  1  2  1  0  0  0  0
  2  3  2  0  0  0  0
  4  3  1  0  0  0  0
  5  6  1  0  0  0  0
  5  1  2  0  0  0  0
  6  4  2  0  0  0  0
  7 19  1  6  0  0  0
  7 17  1  0  0  0  0
  9  3  1  6  0  0  0
  9  7  1  0  0  0  0
  9 13  1  0  0  0  0
 11 15  2  0  0  0  0
 12  8  1  1  0  0  0
 12 10  1  0  0  0  0
 14 13  2  0  0  0  0
 15 10  1  0  0  0  0
 16 13  1  6  0  0  0
 16 11  1  0  0  0  0
 16 12  1  0  0  0  0
 17 11  1  0  0  0  0
 18 19  1  0  0  0  0
 19 20  1  0  0  0  0
 21  1  1  0  0  0  0
 21 22  1  1  0  0  0
 23 25  1  1  0  0  0
 23 26  1  0  0  0  0
 23 21  1  0  0  0  0
 24 25  1  0  0  0  0
 27 26  1  0  0  0  0
 28 27  1  0  0  0  0
 29 28  1  0  0  0  0
 30 34  1  0  0  0  0
 31 30  1  6  0  0  0
 31 32  1  0  0  0  0
 32 37  1  6  0  0  0
 33 36  1  0  0  0  0
 35 34  1  0  0  0  0
 35 37  2  0  0  0  0
 38 33  1  0  0  0  0
 38 31  1  0  0  0  0
 39 36  1  0  0  0  0
 39 32  1  0  0  0  0
 39 29  1  1  0  0  0
 40  6  1  0  0  0  0
 41 40  1  0  0  0  0
 41 42  1  1  0  0  0
 43 45  1  6  0  0  0
 43 41  1  0  0  0  0
 44 43  1  0  0  0  0
 47 43  1  0  0  0  0
 47 46  1  0  0  0  0
M  END
>  <MODEL>
2

>  <REMARK>
 VINA RESULT:      -8.2      2.970      8.508
  Name = 
  14 active torsions:
  status: ('A' for Active; 'I' for Inactive)
    1  A    between atoms: C_1  and  C_32
    2  A    between atoms: C_1  and  C_39
    3  A    between atoms: C_2  and  C_28
    4  A    between atoms: C_4  and  C_18
    5  A    between atoms: C_6  and  C_33
    6  A    between atoms: C_6  and  C_44
    7  A    between atoms: C_7  and  C_16
    8  A    between atoms: O_8  and  C_10
    9  A    between atoms: O_8  and  C_39
   10  A    between atoms: C_10  and  C_42
   11  A    between atoms: C_18  and  C_32
   12  A    between atoms: C_32  and  C_36
   13  A    between atoms: C_33  and  N_34
   14  A    between atoms: N_34  and  C_38
                            x       y       z     vdW  Elec       q    Type
                         _______ _______ _______ _____ _____    ______ ____

>  <TORSDO>
F 14

$$$$
=
 OpenBabel10222421403D

 47 51  0  0  1  0  0  0  0  0999 V2000
  189.9740  176.8820  138.4020 C   0  0  0  0  0  0  0  0  0  0  0  0
  188.7510  176.4500  137.9890 N   0  0  0  0  0  0  0  0  0  0  0  0
  188.5860  175.7810  136.8140 C   0  0  0  0  0  0  0  0  0  0  0  0
  189.6890  175.5230  135.9980 C   0  0  0  0  0  3  0  0  0  0  0  0
  191.0990  176.6400  137.6100 C   0  0  0  0  0  3  0  0  0  0  0  0
  190.9560  175.9500  136.3990 C   0  0  0  0  0  0  0  0  0  0  0  0
  186.7900  174.0720  137.1640 C   0  0  1  0  0  3  0  0  0  0  0  0
  183.3480  178.0810  137.9220 C   0  0  0  0  0  1  0  0  0  0  0  0
  187.2220  175.3400  136.3810 C   0  0  1  0  0  3  0  0  0  0  0  0
  182.7200  176.0900  136.6790 N   0  0  0  0  0  2  0  0  0  0  0  0
  184.5040  174.8990  137.0880 C   0  0  0  0  0  0  0  0  0  0  0  0
  183.7610  177.0930  136.8520 C   0  0  2  0  0  3  0  0  0  0  0  0
  186.2240  176.4810  136.5170 C   0  0  0  0  0  0  0  0  0  0  0  0
  186.4530  177.5590  135.9900 O   0  0  0  0  0  0  0  0  0  0  0  0
  183.2640  174.8100  136.7690 N   0  0  0  0  0  0  0  0  0  0  0  0
  184.9720  176.2860  137.3280 C   0  0  2  0  0  3  0  0  0  0  0  0
  185.3880  173.8260  137.0410 O   0  0  0  0  0  0  0  0  0  0  0  0
  187.9510  172.0990  137.8140 F   0  0  0  0  0  0  0  0  0  0  0  0
  187.5780  172.8490  136.7140 C   0  0  0  0  0  3  0  0  0  0  0  0
  186.8190  172.0720  135.8570 F   0  0  0  0  0  0  0  0  0  0  0  0
  190.1240  177.6240  139.6910 C   0  0  2  0  0  3  0  0  0  0  0  0
  191.4730  177.3300  140.3340 C   0  0  0  0  0  1  0  0  0  0  0  0
  188.9320  177.3740  140.6260 C   0  0  2  0  0  3  0  0  0  0  0  0
  186.9920  178.5540  139.8090 O   0  0  0  0  0  1  0  0  0  0  0  0
  188.0310  178.6030  140.7400 C   0  0  0  0  0  2  0  0  0  0  0  0
  189.3370  176.8250  141.9940 C   0  0  0  0  0  2  0  0  0  0  0  0
  189.4120  177.9460  143.0130 C   0  0  0  0  0  2  0  0  0  0  0  0
  189.5840  177.4080  144.2870 O   0  0  0  0  0  0  0  0  0  0  0  0
  188.3390  176.8610  144.6070 C   0  0  0  0  0  2  0  0  0  0  0  0
  183.8690  179.3140  144.8480 C   0  0  0  0  0  2  0  0  0  0  0  0
  184.9630  178.5510  145.6090 C   0  0  1  0  0  3  0  0  0  0  0  0
  185.9700  177.7670  144.7080 C   0  0  1  0  0  3  0  0  0  0  0  0
  186.3150  178.6050  147.3960 C   0  0  0  0  0  2  0  0  0  0  0  0
  183.4820  178.5850  143.5650 C   0  0  0  0  0  2  0  0  0  0  0  0
  184.6970  178.4660  142.6980 C   0  0  0  0  0  3  0  0  0  0  0  0
  187.5270  177.9350  146.7320 C   0  0  0  0  0  2  0  0  0  0  0  0
  185.8640  178.0980  143.2380 C   0  0  0  0  0  3  0  0  0  0  0  0
  185.6280  179.4240  146.4870 O   0  0  0  0  0  0  0  0  0  0  0  0
  187.4170  177.9200  145.2010 C   0  0  1  0  0  3  0  0  0  0  0  0
  192.0800  175.6900  135.5550 N   0  0  0  0  0  2  0  0  0  0  0  0
  193.0810  174.6670  135.8390 C   0  0  2  0  0  3  0  0  0  0  0  0
  192.5570  173.7400  136.7440 O   0  0  0  0  0  1  0  0  0  0  0  0
  194.3820  175.2770  136.3820 C   0  0  2  0  0  0  0  0  0  0  0  0
  194.5360  174.9510  137.7180 F   0  0  0  0  0  0  0  0  0  0  0  0
  194.3010  176.6660  136.2770 O   0  0  0  0  0  1  0  0  0  0  0  0
  195.5560  173.4290  135.3690 O   0  0  0  0  0  1  0  0  0  0  0  0
  195.6070  174.8050  135.5980 C   0  0  0  0  0  2  0  0  0  0  0  0
  1 21  1  0  0  0  0
  2  1  1  0  0  0  0
  3  2  2  0  0  0  0
  4  6  2  0  0  0  0
  4  3  1  0  0  0  0
  5  1  2  0  0  0  0
  6  5  1  0  0  0  0
  7 19  1  6  0  0  0
  9 13  1  0  0  0  0
  9  3  1  1  0  0  0
  9  7  1  0  0  0  0
 10 15  1  0  0  0  0
 10 12  1  0  0  0  0
 11 16  1  0  0  0  0
 12 16  1  0  0  0  0
 12  8  1  1  0  0  0
 14 13  2  0  0  0  0
 15 11  2  0  0  0  0
 16 13  1  6  0  0  0
 17 11  1  0  0  0  0
 17  7  1  0  0  0  0
 19 18  1  0  0  0  0
 20 19  1  0  0  0  0
 21 22  1  1  0  0  0
 21 23  1  0  0  0  0
 23 25  1  1  0  0  0
 23 26  1  0  0  0  0
 24 25  1  0  0  0  0
 26 27  1  0  0  0  0
 27 28  1  0  0  0  0
 28 29  1  0  0  0  0
 31 30  1  6  0  0  0
 31 38  1  0  0  0  0
 32 37  1  6  0  0  0
 32 39  1  0  0  0  0
 32 31  1  0  0  0  0
 34 30  1  0  0  0  0
 35 37  2  0  0  0  0
 35 34  1  0  0  0  0
 36 33  1  0  0  0  0
 38 33  1  0  0  0  0
 39 29  1  1  0  0  0
 39 36  1  0  0  0  0
 40 41  1  0  0  0  0
 40  6  1  0  0  0  0
 41 43  1  0  0  0  0
 41 42  1  1  0  0  0
 43 45  1  6  0  0  0
 43 44  1  0  0  0  0
 46 47  1  0  0  0  0
 47 43  1  0  0  0  0
M  END
>  <MODEL>
3

>  <REMARK>
 VINA RESULT:      -8.2      1.536      2.208
  Name = 
  14 active torsions:
  status: ('A' for Active; 'I' for Inactive)
    1  A    between atoms: C_1  and  C_32
    2  A    between atoms: C_1  and  C_39
    3  A    between atoms: C_2  and  C_28
    4  A    between atoms: C_4  and  C_18
    5  A    between atoms: C_6  and  C_33
    6  A    between atoms: C_6  and  C_44
    7  A    between atoms: C_7  and  C_16
    8  A    between atoms: O_8  and  C_10
    9  A    between atoms: O_8  and  C_39
   10  A    between atoms: C_10  and  C_42
   11  A    between atoms: C_18  and  C_32
   12  A    between atoms: C_32  and  C_36
   13  A    between atoms: C_33  and  N_34
   14  A    between atoms: N_34  and  C_38
                            x       y       z     vdW  Elec       q    Type
                         _______ _______ _______ _____ _____    ______ ____

>  <TORSDO>
F 14

$$$$
=
 OpenBabel10222421403D

 47 51  0  0  1  0  0  0  0  0999 V2000
  188.7100  177.8830  139.7850 C   0  0  0  0  0  0  0  0  0  0  0  0
  189.0980  177.3580  140.9800 N   0  0  0  0  0  0  0  0  0  0  0  0
  188.3130  177.4440  142.0900 C   0  0  0  0  0  0  0  0  0  0  0  0
  187.0750  178.0850  142.0200 C   0  0  0  0  0  3  0  0  0  0  0  0
  187.4770  178.5300  139.6790 C   0  0  0  0  0  3  0  0  0  0  0  0
  186.6490  178.6280  140.8050 C   0  0  0  0  0  0  0  0  0  0  0  0
  190.2000  177.4040  143.7350 C   0  0  1  0  0  3  0  0  0  0  0  0
  186.6880  178.6790  147.5470 C   0  0  0  0  0  1  0  0  0  0  0  0
  188.7820  176.8740  143.3930 C   0  0  1  0  0  3  0  0  0  0  0  0
  188.4720  177.0790  147.9520 N   0  0  0  0  0  2  0  0  0  0  0  0
  189.5650  177.3610  146.0820 C   0  0  0  0  0  0  0  0  0  0  0  0
  187.4320  177.4740  147.0110 C   0  0  2  0  0  3  0  0  0  0  0  0
  187.7690  177.1590  144.4930 C   0  0  0  0  0  0  0  0  0  0  0  0
  186.6000  176.8390  144.3450 O   0  0  0  0  0  0  0  0  0  0  0  0
  189.6980  176.9720  147.2980 N   0  0  0  0  0  0  0  0  0  0  0  0
  188.2090  177.8610  145.7490 C   0  0  2  0  0  3  0  0  0  0  0  0
  190.5360  177.1710  145.1040 O   0  0  0  0  0  0  0  0  0  0  0  0
  192.0590  177.7790  142.2970 F   0  0  0  0  0  0  0  0  0  0  0  0
  191.2540  176.7870  142.8250 C   0  0  0  0  0  3  0  0  0  0  0  0
  192.0310  175.8820  143.5280 F   0  0  0  0  0  0  0  0  0  0  0  0
  189.5970  177.7830  138.5860 C   0  0  2  0  0  3  0  0  0  0  0  0
  189.1440  178.7410  137.4930 C   0  0  0  0  0  1  0  0  0  0  0  0
  189.7360  176.3310  138.1080 C   0  0  2  0  0  3  0  0  0  0  0  0
  191.9480  176.7260  138.9890 O   0  0  0  0  0  1  0  0  0  0  0  0
  191.1120  175.7520  138.4380 C   0  0  0  0  0  2  0  0  0  0  0  0
  189.3650  176.1360  136.6380 C   0  0  0  0  0  2  0  0  0  0  0  0
  188.3140  175.0510  136.4970 C   0  0  0  0  0  2  0  0  0  0  0  0
  187.1800  175.4000  137.2290 O   0  0  0  0  0  0  0  0  0  0  0  0
  186.4120  174.2330  137.2600 C   0  0  0  0  0  2  0  0  0  0  0  0
  181.5680  173.0190  136.1990 C   0  0  0  0  0  2  0  0  0  0  0  0
  182.5760  174.1310  136.5260 C   0  0  1  0  0  3  0  0  0  0  0  0
  183.9520  173.6340  137.0740 C   0  0  1  0  0  3  0  0  0  0  0  0
  183.3440  176.1390  135.8930 C   0  0  0  0  0  2  0  0  0  0  0  0
  181.7360  171.8310  137.1400 C   0  0  0  0  0  2  0  0  0  0  0  0
  183.1270  171.2970  136.9920 C   0  0  0  0  0  3  0  0  0  0  0  0
  184.8170  175.8960  136.2490 C   0  0  0  0  0  2  0  0  0  0  0  0
  184.1610  172.1440  136.9460 C   0  0  0  0  0  3  0  0  0  0  0  0
  182.7390  174.9680  135.4090 O   0  0  0  0  0  0  0  0  0  0  0  0
  185.1270  174.4080  136.4570 C   0  0  1  0  0  3  0  0  0  0  0  0
  185.3840  179.2900  140.7420 N   0  0  0  0  0  2  0  0  0  0  0  0
  184.4400  179.1200  139.6430 C   0  0  2  0  0  3  0  0  0  0  0  0
  184.2430  180.3470  139.0030 O   0  0  0  0  0  1  0  0  0  0  0  0
  183.1010  178.5400  140.1250 C   0  0  2  0  0  0  0  0  0  0  0  0
  182.1760  179.5570  140.2840 F   0  0  0  0  0  0  0  0  0  0  0  0
  183.2990  177.9300  141.3640 O   0  0  0  0  0  1  0  0  0  0  0  0
  182.9560  176.2100  139.5160 O   0  0  0  0  0  1  0  0  0  0  0  0
  182.5470  177.4960  139.1560 C   0  0  0  0  0  2  0  0  0  0  0  0
  1  2  1  0  0  0  0
  2  3  2  0  0  0  0
  4  3  1  0  0  0  0
  5  1  2  0  0  0  0
  5  6  1  0  0  0  0
  6  4  2  0  0  0  0
  7 19  1  6  0  0  0
  7 17  1  0  0  0  0
  9  3  1  6  0  0  0
  9  7  1  0  0  0  0
  9 13  1  0  0  0  0
 11 15  2  0  0  0  0
 12  8  1  1  0  0  0
 12 10  1  0  0  0  0
 14 13  2  0  0  0  0
 15 10  1  0  0  0  0
 16 13  1  6  0  0  0
 16 11  1  0  0  0  0
 16 12  1  0  0  0  0
 17 11  1  0  0  0  0
 18 19  1  0  0  0  0
 19 20  1  0  0  0  0
 21 22  1  6  0  0  0
 21  1  1  0  0  0  0
 23 26  1  6  0  0  0
 23 25  1  0  0  0  0
 23 21  1  0  0  0  0
 25 24  1  0  0  0  0
 27 26  1  0  0  0  0
 27 28  1  0  0  0  0
 28 29  1  0  0  0  0
 30 34  1  0  0  0  0
 31 30  1  6  0  0  0
 31 32  1  0  0  0  0
 32 37  1  6  0  0  0
 33 36  1  0  0  0  0
 35 34  1  0  0  0  0
 36 39  1  0  0  0  0
 37 35  2  0  0  0  0
 38 33  1  0  0  0  0
 38 31  1  0  0  0  0
 39 32  1  0  0  0  0
 39 29  1  1  0  0  0
 40  6  1  0  0  0  0
 41 42  1  1  0  0  0
 41 43  1  0  0  0  0
 41 40  1  0  0  0  0
 43 44  1  1  0  0  0
 43 45  1  0  0  0  0
 47 46  1  0  0  0  0
 47 43  1  0  0  0  0
M  END
>  <MODEL>
4

>  <REMARK>
 VINA RESULT:      -8.1      3.352      9.410
  Name = 
  14 active torsions:
  status: ('A' for Active; 'I' for Inactive)
    1  A    between atoms: C_1  and  C_32
    2  A    between atoms: C_1  and  C_39
    3  A    between atoms: C_2  and  C_28
    4  A    between atoms: C_4  and  C_18
    5  A    between atoms: C_6  and  C_33
    6  A    between atoms: C_6  and  C_44
    7  A    between atoms: C_7  and  C_16
    8  A    between atoms: O_8  and  C_10
    9  A    between atoms: O_8  and  C_39
   10  A    between atoms: C_10  and  C_42
   11  A    between atoms: C_18  and  C_32
   12  A    between atoms: C_32  and  C_36
   13  A    between atoms: C_33  and  N_34
   14  A    between atoms: N_34  and  C_38
                            x       y       z     vdW  Elec       q    Type
                         _______ _______ _______ _____ _____    ______ ____

>  <TORSDO>
F 14

$$$$
=
 OpenBabel10222421403D

 47 51  0  0  1  0  0  0  0  0999 V2000
  187.0540  177.8510  137.8550 C   0  0  0  0  0  0  0  0  0  0  0  0
  186.0290  178.4740  138.5000 N   0  0  0  0  0  0  0  0  0  0  0  0
  184.7880  177.9200  138.5780 C   0  0  0  0  0  0  0  0  0  0  0  0
  184.5400  176.6800  137.9860 C   0  0  0  0  0  3  0  0  0  0  0  0
  186.8410  176.6080  137.2520 C   0  0  0  0  0  3  0  0  0  0  0  0
  185.5740  176.0150  137.3230 C   0  0  0  0  0  0  0  0  0  0  0  0
  182.3430  177.8740  139.1110 C   0  0  1  0  0  3  0  0  0  0  0  0
  183.6200  178.4490  144.2620 C   0  0  0  0  0  1  0  0  0  0  0  0
  183.6790  178.6440  139.2770 C   0  0  1  0  0  3  0  0  0  0  0  0
  181.7130  179.6010  143.2930 N   0  0  0  0  0  2  0  0  0  0  0  0
  181.7250  178.6240  141.3400 C   0  0  0  0  0  0  0  0  0  0  0  0
  183.1160  179.2680  143.0930 C   0  0  2  0  0  3  0  0  0  0  0  0
  184.0380  178.8890  140.7350 C   0  0  0  0  0  0  0  0  0  0  0  0
  185.0870  179.4460  141.0210 O   0  0  0  0  0  0  0  0  0  0  0  0
  180.9670  179.2420  142.1720 N   0  0  0  0  0  0  0  0  0  0  0  0
  183.1110  178.4140  141.8220 C   0  0  2  0  0  3  0  0  0  0  0  0
  181.3510  178.3300  140.0340 O   0  0  0  0  0  0  0  0  0  0  0  0
  180.4590  177.7270  137.6650 F   0  0  0  0  0  0  0  0  0  0  0  0
  181.8180  177.9760  137.6850 C   0  0  0  0  0  3  0  0  0  0  0  0
  182.0680  179.2340  137.1660 F   0  0  0  0  0  0  0  0  0  0  0  0
  188.4040  178.4890  137.7750 C   0  0  2  0  0  3  0  0  0  0  0  0
  188.9810  178.3650  136.3710 C   0  0  0  0  0  1  0  0  0  0  0  0
  189.3400  177.9610  138.8710 C   0  0  2  0  0  3  0  0  0  0  0  0
  190.4550  175.8220  138.9280 O   0  0  0  0  0  1  0  0  0  0  0  0
  190.4400  177.0680  138.2980 C   0  0  0  0  0  2  0  0  0  0  0  0
  188.6030  177.2970  140.0330 C   0  0  0  0  0  2  0  0  0  0  0  0
  188.7230  178.1400  141.2890 C   0  0  0  0  0  2  0  0  0  0  0  0
  190.0030  178.0000  141.8250 O   0  0  0  0  0  0  0  0  0  0  0  0
  189.9140  176.8790  142.6540 C   0  0  0  0  0  2  0  0  0  0  0  0
  188.4590  177.5880  147.4950 C   0  0  0  0  0  2  0  0  0  0  0  0
  189.4440  176.9100  146.5320 C   0  0  1  0  0  3  0  0  0  0  0  0
  189.0190  176.9330  145.0280 C   0  0  1  0  0  3  0  0  0  0  0  0
  191.6130  176.5390  146.1050 C   0  0  0  0  0  2  0  0  0  0  0  0
  187.0220  177.4330  147.0100 C   0  0  0  0  0  2  0  0  0  0  0  0
  186.9040  178.0640  145.6560 C   0  0  0  0  0  3  0  0  0  0  0  0
  191.5160  176.6100  144.5740 C   0  0  0  0  0  2  0  0  0  0  0  0
  187.8480  177.8400  144.7360 C   0  0  0  0  0  3  0  0  0  0  0  0
  190.7300  177.4460  146.7120 O   0  0  0  0  0  0  0  0  0  0  0  0
  190.2030  177.2500  144.1030 C   0  0  1  0  0  3  0  0  0  0  0  0
  185.3110  174.7490  136.7120 N   0  0  0  0  0  2  0  0  0  0  0  0
  184.6410  173.6490  137.3960 C   0  0  2  0  0  3  0  0  0  0  0  0
  185.5900  172.8580  138.0490 O   0  0  0  0  0  1  0  0  0  0  0  0
  183.8050  172.8000  136.4260 C   0  0  2  0  0  0  0  0  0  0  0  0
  184.0720  171.4560  136.6230 F   0  0  0  0  0  0  0  0  0  0  0  0
  184.1640  173.1310  135.1190 O   0  0  0  0  0  1  0  0  0  0  0  0
  182.0700  174.1970  137.3530 O   0  0  0  0  0  1  0  0  0  0  0  0
  182.3060  173.0510  136.5920 C   0  0  0  0  0  2  0  0  0  0  0  0
  1  2  1  0  0  0  0
  2  3  2  0  0  0  0
  4  3  1  0  0  0  0
  5  6  1  0  0  0  0
  5  1  2  0  0  0  0
  6  4  2  0  0  0  0
  7 19  1  6  0  0  0
  7  9  1  0  0  0  0
  7 17  1  0  0  0  0
  9  3  1  1  0  0  0
  9 13  1  0  0  0  0
 11 16  1  0  0  0  0
 11 15  2  0  0  0  0
 12 10  1  0  0  0  0
 12  8  1  1  0  0  0
 13 14  2  0  0  0  0
 15 10  1  0  0  0  0
 16 13  1  6  0  0  0
 16 12  1  0  0  0  0
 17 11  1  0  0  0  0
 18 19  1  0  0  0  0
 20 19  1  0  0  0  0
 21 22  1  6  0  0  0
 21  1  1  0  0  0  0
 21 23  1  0  0  0  0
 23 25  1  6  0  0  0
 23 26  1  0  0  0  0
 25 24  1  0  0  0  0
 26 27  1  0  0  0  0
 27 28  1  0  0  0  0
 28 29  1  0  0  0  0
 31 38  1  0  0  0  0
 31 30  1  1  0  0  0
 32 37  1  1  0  0  0
 32 31  1  0  0  0  0
 33 38  1  0  0  0  0
 34 30  1  0  0  0  0
 35 34  1  0  0  0  0
 36 33  1  0  0  0  0
 37 35  2  0  0  0  0
 39 29  1  6  0  0  0
 39 36  1  0  0  0  0
 39 32  1  0  0  0  0
 40  6  1  0  0  0  0
 40 41  1  0  0  0  0
 41 42  1  6  0  0  0
 43 45  1  6  0  0  0
 43 47  1  0  0  0  0
 43 44  1  0  0  0  0
 43 41  1  0  0  0  0
 47 46  1  0  0  0  0
M  END
>  <MODEL>
5

>  <REMARK>
 VINA RESULT:      -8.0      2.894      5.826
  Name = 
  14 active torsions:
  status: ('A' for Active; 'I' for Inactive)
    1  A    between atoms: C_1  and  C_32
    2  A    between atoms: C_1  and  C_39
    3  A    between atoms: C_2  and  C_28
    4  A    between atoms: C_4  and  C_18
    5  A    between atoms: C_6  and  C_33
    6  A    between atoms: C_6  and  C_44
    7  A    between atoms: C_7  and  C_16
    8  A    between atoms: O_8  and  C_10
    9  A    between atoms: O_8  and  C_39
   10  A    between atoms: C_10  and  C_42
   11  A    between atoms: C_18  and  C_32
   12  A    between atoms: C_32  and  C_36
   13  A    between atoms: C_33  and  N_34
   14  A    between atoms: N_34  and  C_38
                            x       y       z     vdW  Elec       q    Type
                         _______ _______ _______ _____ _____    ______ ____

>  <TORSDO>
F 14

$$$$
=
 OpenBabel10222421403D

 47 51  0  0  1  0  0  0  0  0999 V2000
  190.8240  176.7130  138.6020 C   0  0  0  0  0  0  0  0  0  0  0  0
  189.6590  176.3170  138.0190 N   0  0  0  0  0  0  0  0  0  0  0  0
  189.6450  175.5460  136.8970 C   0  0  0  0  0  0  0  0  0  0  0  0
  190.8470  175.1420  136.3130 C   0  0  0  0  0  3  0  0  0  0  0  0
  192.0450  176.3260  138.0450 C   0  0  0  0  0  3  0  0  0  0  0  0
  192.0570  175.5300  136.8930 C   0  0  0  0  0  0  0  0  0  0  0  0
  187.8230  173.8280  136.9010 C   0  0  1  0  0  3  0  0  0  0  0  0
  184.3070  177.7940  137.5280 C   0  0  0  0  0  1  0  0  0  0  0  0
  188.3440  175.1470  136.2700 C   0  0  1  0  0  3  0  0  0  0  0  0
  183.8380  175.9030  136.0750 N   0  0  0  0  0  2  0  0  0  0  0  0
  185.5620  174.6730  136.6090 C   0  0  0  0  0  0  0  0  0  0  0  0
  184.8490  176.8840  136.4460 C   0  0  2  0  0  3  0  0  0  0  0  0
  187.3350  176.2820  136.3680 C   0  0  0  0  0  0  0  0  0  0  0  0
  187.6240  177.3930  135.9530 O   0  0  0  0  0  0  0  0  0  0  0  0
  184.3700  174.6160  136.1370 N   0  0  0  0  0  0  0  0  0  0  0  0
  185.9940  176.0360  137.0050 C   0  0  2  0  0  3  0  0  0  0  0  0
  186.4470  173.6010  136.5910 O   0  0  0  0  0  0  0  0  0  0  0  0
  187.9800  171.4610  136.7150 F   0  0  0  0  0  0  0  0  0  0  0  0
  188.6630  172.6360  136.4610 C   0  0  0  0  0  3  0  0  0  0  0  0
  188.9580  172.7210  135.1120 F   0  0  0  0  0  0  0  0  0  0  0  0
  190.8090  177.5690  139.8280 C   0  0  2  0  0  3  0  0  0  0  0  0
  192.0790  177.3710  140.6440 C   0  0  0  0  0  1  0  0  0  0  0  0
  189.5220  177.3670  140.6390 C   0  0  2  0  0  3  0  0  0  0  0  0
  188.8190  179.1030  139.1170 O   0  0  0  0  0  1  0  0  0  0  0  0
  188.4330  178.3610  140.2350 C   0  0  0  0  0  2  0  0  0  0  0  0
  189.7530  177.3460  142.1500 C   0  0  0  0  0  2  0  0  0  0  0  0
  189.2560  176.0410  142.7430 C   0  0  0  0  0  2  0  0  0  0  0  0
  187.8950  176.1440  143.0260 O   0  0  0  0  0  0  0  0  0  0  0  0
  187.7360  177.4430  143.5130 C   0  0  0  0  0  2  0  0  0  0  0  0
  187.7740  178.0110  148.5860 C   0  0  0  0  0  2  0  0  0  0  0  0
  187.1180  178.3940  147.2510 C   0  0  1  0  0  3  0  0  0  0  0  0
  187.9400  178.0130  145.9780 C   0  0  1  0  0  3  0  0  0  0  0  0
  185.1650  178.5710  146.1640 C   0  0  0  0  0  2  0  0  0  0  0  0
  189.2940  178.0900  148.4930 C   0  0  0  0  0  2  0  0  0  0  0  0
  189.7570  177.1470  147.4260 C   0  0  0  0  0  3  0  0  0  0  0  0
  185.6770  178.1250  144.7870 C   0  0  0  0  0  2  0  0  0  0  0  0
  189.1120  177.1020  146.2550 C   0  0  0  0  0  3  0  0  0  0  0  0
  185.8130  177.8740  147.1970 O   0  0  0  0  0  0  0  0  0  0  0  0
  187.0450  177.4340  144.8710 C   0  0  1  0  0  3  0  0  0  0  0  0
  193.2850  175.1190  136.2860 N   0  0  0  0  0  2  0  0  0  0  0  0
  194.5850  175.2440  136.9340 C   0  0  2  0  0  3  0  0  0  0  0  0
  195.4590  175.9420  136.0970 O   0  0  0  0  0  1  0  0  0  0  0  0
  195.1710  173.8730  137.3070 C   0  0  2  0  0  0  0  0  0  0  0  0
  196.2950  173.6160  136.5410 F   0  0  0  0  0  0  0  0  0  0  0  0
  194.2190  172.8910  137.0310 O   0  0  0  0  0  1  0  0  0  0  0  0
  196.4130  174.8140  139.1490 O   0  0  0  0  0  1  0  0  0  0  0  0
  195.5350  173.7890  138.7890 C   0  0  0  0  0  2  0  0  0  0  0  0
  1 21  1  0  0  0  0
  2  1  2  0  0  0  0
  3  2  1  0  0  0  0
  4  6  1  0  0  0  0
  4  3  2  0  0  0  0
  5  1  1  0  0  0  0
  6  5  2  0  0  0  0
  7 19  1  6  0  0  0
  9 13  1  0  0  0  0
  9  3  1  1  0  0  0
  9  7  1  0  0  0  0
 10 15  1  0  0  0  0
 10 12  1  0  0  0  0
 11 16  1  0  0  0  0
 12 16  1  0  0  0  0
 12  8  1  1  0  0  0
 14 13  2  0  0  0  0
 15 11  2  0  0  0  0
 16 13  1  6  0  0  0
 17 11  1  0  0  0  0
 17  7  1  0  0  0  0
 19 18  1  0  0  0  0
 20 19  1  0  0  0  0
 21 23  1  0  0  0  0
 21 22  1  1  0  0  0
 23 25  1  1  0  0  0
 23 26  1  0  0  0  0
 24 25  1  0  0  0  0
 26 27  1  0  0  0  0
 27 28  1  0  0  0  0
 28 29  1  0  0  0  0
 31 30  1  1  0  0  0
 32 37  1  1  0  0  0
 32 31  1  0  0  0  0
 33 38  1  0  0  0  0
 34 30  1  0  0  0  0
 35 34  1  0  0  0  0
 36 39  1  0  0  0  0
 36 33  1  0  0  0  0
 37 35  2  0  0  0  0
 38 31  1  0  0  0  0
 39 29  1  6  0  0  0
 39 32  1  0  0  0  0
 40  6  1  0  0  0  0
 40 41  1  0  0  0  0
 41 42  1  6  0  0  0
 41 43  1  0  0  0  0
 43 44  1  6  0  0  0
 43 47  1  0  0  0  0
 45 43  1  0  0  0  0
 47 46  1  0  0  0  0
M  END
>  <MODEL>
6

>  <REMARK>
 VINA RESULT:      -7.9      1.750      3.045
  Name = 
  14 active torsions:
  status: ('A' for Active; 'I' for Inactive)
    1  A    between atoms: C_1  and  C_32
    2  A    between atoms: C_1  and  C_39
    3  A    between atoms: C_2  and  C_28
    4  A    between atoms: C_4  and  C_18
    5  A    between atoms: C_6  and  C_33
    6  A    between atoms: C_6  and  C_44
    7  A    between atoms: C_7  and  C_16
    8  A    between atoms: O_8  and  C_10
    9  A    between atoms: O_8  and  C_39
   10  A    between atoms: C_10  and  C_42
   11  A    between atoms: C_18  and  C_32
   12  A    between atoms: C_32  and  C_36
   13  A    between atoms: C_33  and  N_34
   14  A    between atoms: N_34  and  C_38
                            x       y       z     vdW  Elec       q    Type
                         _______ _______ _______ _____ _____    ______ ____

>  <TORSDO>
F 14

$$$$
=
 OpenBabel10222421403D

 47 51  0  0  1  0  0  0  0  0999 V2000
  188.8410  177.3610  137.9570 C   0  0  0  0  0  0  0  0  0  0  0  0
  189.8280  176.5910  137.4210 N   0  0  0  0  0  0  0  0  0  0  0  0
  190.8090  176.0450  138.1910 C   0  0  0  0  0  0  0  0  0  0  0  0
  190.8220  176.2710  139.5680 C   0  0  0  0  0  3  0  0  0  0  0  0
  188.8230  177.6080  139.3310 C   0  0  0  0  0  3  0  0  0  0  0  0
  189.8190  177.0540  140.1460 C   0  0  0  0  0  0  0  0  0  0  0  0
  191.3410  174.4540  136.3320 C   0  0  1  0  0  3  0  0  0  0  0  0
  195.3910  177.6520  134.9710 C   0  0  0  0  0  1  0  0  0  0  0  0
  191.8910  175.2200  137.5640 C   0  0  1  0  0  3  0  0  0  0  0  0
  195.6090  175.2330  134.9000 N   0  0  0  0  0  2  0  0  0  0  0  0
  193.5200  174.7270  135.2870 C   0  0  0  0  0  0  0  0  0  0  0  0
  195.1350  176.3520  135.7030 C   0  0  2  0  0  3  0  0  0  0  0  0
  193.0940  176.0880  137.2250 C   0  0  0  0  0  0  0  0  0  0  0  0
  193.6070  176.7850  138.0870 O   0  0  0  0  0  0  0  0  0  0  0  0
  194.6010  174.2810  134.7590 N   0  0  0  0  0  0  0  0  0  0  0  0
  193.6280  176.1080  135.8180 C   0  0  2  0  0  3  0  0  0  0  0  0
  192.3940  173.9420  135.5130 O   0  0  0  0  0  0  0  0  0  0  0  0
  189.1080  173.7860  136.8140 F   0  0  0  0  0  0  0  0  0  0  0  0
  190.4100  173.3250  136.7540 C   0  0  0  0  0  3  0  0  0  0  0  0
  190.4900  172.2720  135.8600 F   0  0  0  0  0  0  0  0  0  0  0  0
  187.7830  177.9570  137.0850 C   0  0  2  0  0  3  0  0  0  0  0  0
  187.9680  179.4630  136.9560 C   0  0  0  0  0  1  0  0  0  0  0  0
  186.3770  177.5510  137.5500 C   0  0  2  0  0  3  0  0  0  0  0  0
  185.8300  176.4760  135.4590 O   0  0  0  0  0  1  0  0  0  0  0  0
  185.4020  177.4360  136.3780 C   0  0  0  0  0  2  0  0  0  0  0  0
  185.8300  178.4310  138.6730 C   0  0  0  0  0  2  0  0  0  0  0  0
  184.3190  178.5270  138.5830 C   0  0  0  0  0  2  0  0  0  0  0  0
  183.7460  177.9650  139.7230 O   0  0  0  0  0  0  0  0  0  0  0  0
  184.5350  178.4320  140.7770 C   0  0  0  0  0  2  0  0  0  0  0  0
  184.3920  178.6580  145.8750 C   0  0  0  0  0  2  0  0  0  0  0  0
  183.7350  179.0650  144.5480 C   0  0  1  0  0  3  0  0  0  0  0  0
  184.6210  178.8510  143.2790 C   0  0  1  0  0  3  0  0  0  0  0  0
  181.8020  179.1280  143.4150 C   0  0  0  0  0  2  0  0  0  0  0  0
  185.8990  178.8870  145.8340 C   0  0  0  0  0  2  0  0  0  0  0  0
  186.4780  178.0670  144.7230 C   0  0  0  0  0  3  0  0  0  0  0  0
  182.3890  178.8270  142.0290 C   0  0  0  0  0  2  0  0  0  0  0  0
  185.8700  178.0400  143.5330 C   0  0  0  0  0  3  0  0  0  0  0  0
  182.4890  178.4280  144.4200 O   0  0  0  0  0  0  0  0  0  0  0  0
  183.8150  178.2650  142.1100 C   0  0  1  0  0  3  0  0  0  0  0  0
  189.8420  177.2890  141.5560 N   0  0  0  0  0  2  0  0  0  0  0  0
  190.0750  176.2410  142.5430 C   0  0  2  0  0  3  0  0  0  0  0  0
  188.8510  175.7880  143.0410 O   0  0  0  0  0  1  0  0  0  0  0  0
  190.9790  176.7260  143.6870 C   0  0  2  0  0  0  0  0  0  0  0  0
  191.7950  175.6940  144.1140 F   0  0  0  0  0  0  0  0  0  0  0  0
  190.1730  177.1190  144.7560 O   0  0  0  0  0  1  0  0  0  0  0  0
  191.4490  179.0790  143.9390 O   0  0  0  0  0  1  0  0  0  0  0  0
  191.8410  177.9180  143.2700 C   0  0  0  0  0  2  0  0  0  0  0  0
  1  5  1  0  0  0  0
  2  1  2  0  0  0  0
  2  3  1  0  0  0  0
  3  4  2  0  0  0  0
  4  6  1  0  0  0  0
  5  6  2  0  0  0  0
  6 40  1  0  0  0  0
  7 19  1  1  0  0  0
  7  9  1  0  0  0  0
  9  3  1  6  0  0  0
 10 12  1  0  0  0  0
 11 17  1  0  0  0  0
 12  8  1  6  0  0  0
 12 16  1  0  0  0  0
 13  9  1  0  0  0  0
 13 14  2  0  0  0  0
 15 10  1  0  0  0  0
 15 11  2  0  0  0  0
 16 11  1  1  0  0  0
 16 13  1  0  0  0  0
 17  7  1  0  0  0  0
 19 18  1  0  0  0  0
 20 19  1  0  0  0  0
 21 22  1  1  0  0  0
 21 23  1  0  0  0  0
 21  1  1  0  0  0  0
 23 25  1  6  0  0  0
 23 26  1  0  0  0  0
 24 25  1  0  0  0  0
 27 26  1  0  0  0  0
 27 28  1  0  0  0  0
 28 29  1  0  0  0  0
 31 30  1  1  0  0  0
 32 37  1  1  0  0  0
 32 31  1  0  0  0  0
 33 38  1  0  0  0  0
 34 30  1  0  0  0  0
 35 34  1  0  0  0  0
 36 39  1  0  0  0  0
 36 33  1  0  0  0  0
 37 35  2  0  0  0  0
 38 31  1  0  0  0  0
 39 29  1  6  0  0  0
 39 32  1  0  0  0  0
 40 41  1  0  0  0  0
 41 42  1  1  0  0  0
 41 43  1  0  0  0  0
 43 44  1  1  0  0  0
 43 45  1  0  0  0  0
 47 43  1  0  0  0  0
 47 46  1  0  0  0  0
M  END
>  <MODEL>
7

>  <REMARK>
 VINA RESULT:      -7.8      2.569      7.064
  Name = 
  14 active torsions:
  status: ('A' for Active; 'I' for Inactive)
    1  A    between atoms: C_1  and  C_32
    2  A    between atoms: C_1  and  C_39
    3  A    between atoms: C_2  and  C_28
    4  A    between atoms: C_4  and  C_18
    5  A    between atoms: C_6  and  C_33
    6  A    between atoms: C_6  and  C_44
    7  A    between atoms: C_7  and  C_16
    8  A    between atoms: O_8  and  C_10
    9  A    between atoms: O_8  and  C_39
   10  A    between atoms: C_10  and  C_42
   11  A    between atoms: C_18  and  C_32
   12  A    between atoms: C_32  and  C_36
   13  A    between atoms: C_33  and  N_34
   14  A    between atoms: N_34  and  C_38
                            x       y       z     vdW  Elec       q    Type
                         _______ _______ _______ _____ _____    ______ ____

>  <TORSDO>
F 14

$$$$
=
 OpenBabel10222421403D

 47 51  0  0  1  0  0  0  0  0999 V2000
  187.7560  178.0480  139.8040 C   0  0  0  0  0  0  0  0  0  0  0  0
  188.6310  177.5160  140.7020 N   0  0  0  0  0  0  0  0  0  0  0  0
  188.3770  177.5240  142.0400 C   0  0  0  0  0  0  0  0  0  0  0  0
  187.1950  178.0890  142.5230 C   0  0  0  0  0  3  0  0  0  0  0  0
  186.5630  178.6200  140.2520 C   0  0  0  0  0  3  0  0  0  0  0  0
  186.2780  178.6370  141.6230 C   0  0  0  0  0  0  0  0  0  0  0  0
  190.7220  177.7080  142.8980 C   0  0  1  0  0  3  0  0  0  0  0  0
  188.7210  177.9890  147.8380 C   0  0  0  0  0  1  0  0  0  0  0  0
  189.3720  176.9500  143.0020 C   0  0  1  0  0  3  0  0  0  0  0  0
  190.7410  176.7260  147.3600 N   0  0  0  0  0  2  0  0  0  0  0  0
  191.0130  177.3580  145.2870 C   0  0  0  0  0  0  0  0  0  0  0  0
  189.3820  176.9930  146.9090 C   0  0  2  0  0  3  0  0  0  0  0  0
  188.8080  176.9490  144.4150 C   0  0  0  0  0  0  0  0  0  0  0  0
  187.7260  176.4280  144.6410 O   0  0  0  0  0  0  0  0  0  0  0  0
  191.6410  176.9040  146.3100 N   0  0  0  0  0  0  0  0  0  0  0  0
  189.5720  177.6190  145.5250 C   0  0  2  0  0  3  0  0  0  0  0  0
  191.5700  177.4340  144.0150 O   0  0  0  0  0  0  0  0  0  0  0  0
  192.8110  177.4580  141.7860 F   0  0  0  0  0  0  0  0  0  0  0  0
  191.4440  177.3750  141.5980 C   0  0  0  0  0  3  0  0  0  0  0  0
  191.1090  176.1030  141.1700 F   0  0  0  0  0  0  0  0  0  0  0  0
  188.0660  178.0350  138.3410 C   0  0  2  0  0  3  0  0  0  0  0  0
  186.9210  178.6380  137.5380 C   0  0  0  0  0  1  0  0  0  0  0  0
  188.4770  176.6340  137.8660 C   0  0  2  0  0  3  0  0  0  0  0  0
  190.4380  175.2490  138.1120 O   0  0  0  0  0  1  0  0  0  0  0  0
  189.9920  176.5090  137.7060 C   0  0  0  0  0  2  0  0  0  0  0  0
  187.7240  176.1700  136.6190 C   0  0  0  0  0  2  0  0  0  0  0  0
  186.9310  174.9120  136.9160 C   0  0  0  0  0  2  0  0  0  0  0  0
  186.1020  174.6160  135.8350 O   0  0  0  0  0  0  0  0  0  0  0  0
  185.0730  175.5580  135.9150 C   0  0  0  0  0  2  0  0  0  0  0  0
  181.1180  176.1910  139.0800 C   0  0  0  0  0  2  0  0  0  0  0  0
  181.6250  175.6140  137.7500 C   0  0  1  0  0  3  0  0  0  0  0  0
  183.0220  176.1430  137.2900 C   0  0  1  0  0  3  0  0  0  0  0  0
  181.6910  173.7780  136.4670 C   0  0  0  0  0  2  0  0  0  0  0  0
  181.5970  177.6260  139.2740 C   0  0  0  0  0  2  0  0  0  0  0  0
  183.0940  177.6350  139.2690 C   0  0  0  0  0  3  0  0  0  0  0  0
  183.1090  173.9870  135.9150 C   0  0  0  0  0  2  0  0  0  0  0  0
  183.7590  176.9280  138.3490 C   0  0  0  0  0  3  0  0  0  0  0  0
  181.5960  174.2100  137.7990 O   0  0  0  0  0  0  0  0  0  0  0  0
  183.9030  175.0170  136.7290 C   0  0  1  0  0  3  0  0  0  0  0  0
  185.0730  179.2210  142.1240 N   0  0  0  0  0  2  0  0  0  0  0  0
  184.1650  178.5360  143.0380 C   0  0  2  0  0  3  0  0  0  0  0  0
  182.8770  178.5260  142.4970 O   0  0  0  0  0  1  0  0  0  0  0  0
  184.1620  179.1850  144.4310 C   0  0  2  0  0  0  0  0  0  0  0  0
  182.8640  179.2950  144.8970 F   0  0  0  0  0  0  0  0  0  0  0  0
  184.7000  180.4680  144.3260 O   0  0  0  0  0  1  0  0  0  0  0  0
  184.5660  178.6230  146.7420 O   0  0  0  0  0  1  0  0  0  0  0  0
  184.9980  178.3910  145.4340 C   0  0  0  0  0  2  0  0  0  0  0  0
  1  5  2  0  0  0  0
  1  2  1  0  0  0  0
  2  3  2  0  0  0  0
  3  4  1  0  0  0  0
  5  6  1  0  0  0  0
  6 40  1  0  0  0  0
  6  4  2  0  0  0  0
  7 19  1  6  0  0  0
  7  9  1  0  0  0  0
  7 17  1  0  0  0  0
  9  3  1  6  0  0  0
  9 13  1  0  0  0  0
 11 16  1  0  0  0  0
 11 15  2  0  0  0  0
 12 10  1  0  0  0  0
 12  8  1  1  0  0  0
 13 14  2  0  0  0  0
 15 10  1  0  0  0  0
 16 13  1  6  0  0  0
 16 12  1  0  0  0  0
 17 11  1  0  0  0  0
 19 18  1  0  0  0  0
 20 19  1  0  0  0  0
 21 22  1  6  0  0  0
 21  1  1  0  0  0  0
 23 26  1  6  0  0  0
 23 21  1  0  0  0  0
 25 23  1  0  0  0  0
 25 24  1  0  0  0  0
 26 27  1  0  0  0  0
 28 29  1  0  0  0  0
 28 27  1  0  0  0  0
 30 34  1  0  0  0  0
 31 38  1  0  0  0  0
 31 30  1  1  0  0  0
 32 31  1  0  0  0  0
 32 37  1  1  0  0  0
 33 38  1  0  0  0  0
 35 34  1  0  0  0  0
 36 33  1  0  0  0  0
 36 39  1  0  0  0  0
 37 35  2  0  0  0  0
 39 29  1  6  0  0  0
 39 32  1  0  0  0  0
 40 41  1  0  0  0  0
 41 42  1  6  0  0  0
 41 43  1  0  0  0  0
 43 45  1  6  0  0  0
 43 44  1  0  0  0  0
 43 47  1  0  0  0  0
 47 46  1  0  0  0  0
M  END
>  <MODEL>
8

>  <REMARK>
 VINA RESULT:      -7.8      3.308      9.525
  Name = 
  14 active torsions:
  status: ('A' for Active; 'I' for Inactive)
    1  A    between atoms: C_1  and  C_32
    2  A    between atoms: C_1  and  C_39
    3  A    between atoms: C_2  and  C_28
    4  A    between atoms: C_4  and  C_18
    5  A    between atoms: C_6  and  C_33
    6  A    between atoms: C_6  and  C_44
    7  A    between atoms: C_7  and  C_16
    8  A    between atoms: O_8  and  C_10
    9  A    between atoms: O_8  and  C_39
   10  A    between atoms: C_10  and  C_42
   11  A    between atoms: C_18  and  C_32
   12  A    between atoms: C_32  and  C_36
   13  A    between atoms: C_33  and  N_34
   14  A    between atoms: N_34  and  C_38
                            x       y       z     vdW  Elec       q    Type
                         _______ _______ _______ _____ _____    ______ ____

>  <TORSDO>
F 14

$$$$
=
 OpenBabel10222421403D

 47 51  0  0  1  0  0  0  0  0999 V2000
  186.6690  178.4810  141.0950 C   0  0  0  0  0  0  0  0  0  0  0  0
  187.1450  178.0220  142.2850 N   0  0  0  0  0  0  0  0  0  0  0  0
  188.3530  177.4020  142.3840 C   0  0  0  0  0  0  0  0  0  0  0  0
  189.1390  177.2210  141.2440 C   0  0  0  0  0  3  0  0  0  0  0  0
  187.4290  178.3170  139.9340 C   0  0  0  0  0  3  0  0  0  0  0  0
  188.6770  177.6860  140.0100 C   0  0  0  0  0  0  0  0  0  0  0  0
  190.2590  177.4280  144.0060 C   0  0  1  0  0  3  0  0  0  0  0  0
  186.8030  178.8970  147.7970 C   0  0  0  0  0  1  0  0  0  0  0  0
  188.8350  176.8910  143.7060 C   0  0  1  0  0  3  0  0  0  0  0  0
  188.5830  177.3080  148.2540 N   0  0  0  0  0  2  0  0  0  0  0  0
  189.6540  177.4970  146.3600 C   0  0  0  0  0  0  0  0  0  0  0  0
  187.5340  177.6650  147.3090 C   0  0  2  0  0  3  0  0  0  0  0  0
  187.8380  177.2310  144.8050 C   0  0  0  0  0  0  0  0  0  0  0  0
  186.6650  176.9120  144.6860 O   0  0  0  0  0  0  0  0  0  0  0  0
  189.8010  177.1640  147.5910 N   0  0  0  0  0  0  0  0  0  0  0  0
  188.2960  177.9890  146.0210 C   0  0  2  0  0  3  0  0  0  0  0  0
  190.6110  177.2570  145.3800 O   0  0  0  0  0  0  0  0  0  0  0  0
  192.2570  177.6870  142.7380 F   0  0  0  0  0  0  0  0  0  0  0  0
  191.2990  176.7630  143.1130 C   0  0  0  0  0  3  0  0  0  0  0  0
  191.9040  175.7090  143.7750 F   0  0  0  0  0  0  0  0  0  0  0  0
  185.3340  179.1480  141.0150 C   0  0  2  0  0  3  0  0  0  0  0  0
  184.6430  179.1480  142.3720 C   0  0  0  0  0  1  0  0  0  0  0  0
  184.4740  178.5540  139.8900 C   0  0  2  0  0  3  0  0  0  0  0  0
  184.2550  180.7150  138.8380 O   0  0  0  0  0  1  0  0  0  0  0  0
  183.5410  179.5980  139.2760 C   0  0  0  0  0  2  0  0  0  0  0  0
  183.7300  177.2840  140.3010 C   0  0  0  0  0  2  0  0  0  0  0  0
  182.6790  176.9280  139.2660 C   0  0  0  0  0  2  0  0  0  0  0  0
  183.3020  176.5490  138.0780 O   0  0  0  0  0  0  0  0  0  0  0  0
  183.3330  175.1530  138.1290 C   0  0  0  0  0  2  0  0  0  0  0  0
  185.4990  171.7350  135.0170 C   0  0  0  0  0  2  0  0  0  0  0  0
  185.2270  173.2170  135.3140 C   0  0  1  0  0  3  0  0  0  0  0  0
  184.1250  173.4830  136.3890 C   0  0  1  0  0  3  0  0  0  0  0  0
  186.1710  175.2400  135.5120 C   0  0  0  0  0  2  0  0  0  0  0  0
  184.2300  170.9030  135.1670 C   0  0  0  0  0  2  0  0  0  0  0  0
  183.7300  171.0420  136.5710 C   0  0  0  0  0  3  0  0  0  0  0  0
  185.2890  175.7460  136.6620 C   0  0  0  0  0  2  0  0  0  0  0  0
  183.6960  172.2490  137.1460 C   0  0  0  0  0  3  0  0  0  0  0  0
  186.4300  173.8660  135.6380 O   0  0  0  0  0  0  0  0  0  0  0  0
  184.5280  174.6080  137.3550 C   0  0  1  0  0  3  0  0  0  0  0  0
  189.4830  177.4900  138.8450 N   0  0  0  0  0  2  0  0  0  0  0  0
  190.4830  176.4360  138.7260 C   0  0  2  0  0  3  0  0  0  0  0  0
  191.7550  177.0060  138.6320 O   0  0  0  0  0  1  0  0  0  0  0  0
  190.2090  175.5240  137.5190 C   0  0  2  0  0  0  0  0  0  0  0  0
  188.8510  175.2860  137.4060 F   0  0  0  0  0  0  0  0  0  0  0  0
  190.8520  174.3030  137.7270 O   0  0  0  0  0  1  0  0  0  0  0  0
  191.8420  175.4250  135.7450 O   0  0  0  0  0  1  0  0  0  0  0  0
  190.7300  176.1280  136.2150 C   0  0  0  0  0  2  0  0  0  0  0  0
  1  2  1  0  0  0  0
  2  3  2  0  0  0  0
  4  3  1  0  0  0  0
  5  6  1  0  0  0  0
  5  1  2  0  0  0  0
  6  4  2  0  0  0  0
  7 19  1  6  0  0  0
  7 17  1  0  0  0  0
  9  3  1  6  0  0  0
  9  7  1  0  0  0  0
  9 13  1  0  0  0  0
 11 15  2  0  0  0  0
 12  8  1  1  0  0  0
 12 10  1  0  0  0  0
 14 13  2  0  0  0  0
 15 10  1  0  0  0  0
 16 13  1  6  0  0  0
 16 11  1  0  0  0  0
 16 12  1  0  0  0  0
 17 11  1  0  0  0  0
 18 19  1  0  0  0  0
 19 20  1  0  0  0  0
 21  1  1  0  0  0  0
 21 22  1  1  0  0  0
 23 25  1  1  0  0  0
 23 26  1  0  0  0  0
 23 21  1  0  0  0  0
 24 25  1  0  0  0  0
 27 26  1  0  0  0  0
 28 29  1  0  0  0  0
 28 27  1  0  0  0  0
 30 34  1  0  0  0  0
 31 30  1  1  0  0  0
 31 38  1  0  0  0  0
 31 32  1  0  0  0  0
 32 37  1  1  0  0  0
 32 39  1  0  0  0  0
 33 38  1  0  0  0  0
 33 36  1  0  0  0  0
 34 35  1  0  0  0  0
 35 37  2  0  0  0  0
 36 39  1  0  0  0  0
 39 29  1  6  0  0  0
 40  6  1  0  0  0  0
 41 42  1  6  0  0  0
 41 40  1  0  0  0  0
 43 44  1  6  0  0  0
 43 45  1  0  0  0  0
 43 41  1  0  0  0  0
 46 47  1  0  0  0  0
 47 43  1  0  0  0  0
M  END
>  <MODEL>
9

>  <REMARK>
 VINA RESULT:      -7.8      3.095      8.749
  Name = 
  14 active torsions:
  status: ('A' for Active; 'I' for Inactive)
    1  A    between atoms: C_1  and  C_32
    2  A    between atoms: C_1  and  C_39
    3  A    between atoms: C_2  and  C_28
    4  A    between atoms: C_4  and  C_18
    5  A    between atoms: C_6  and  C_33
    6  A    between atoms: C_6  and  C_44
    7  A    between atoms: C_7  and  C_16
    8  A    between atoms: O_8  and  C_10
    9  A    between atoms: O_8  and  C_39
   10  A    between atoms: C_10  and  C_42
   11  A    between atoms: C_18  and  C_32
   12  A    between atoms: C_32  and  C_36
   13  A    between atoms: C_33  and  N_34
   14  A    between atoms: N_34  and  C_38
                            x       y       z     vdW  Elec       q    Type
                         _______ _______ _______ _____ _____    ______ ____

>  <TORSDO>
F 14

$$$$
