=
 OpenBabel10232412243D

 38 40  0  0  1  0  0  0  0  0999 V2000
  191.5440  177.2380  142.3720 C   0  0  0  0  0  0  0  0  0  0  0  0
  189.2530  177.3160  144.2890 C   0  0  2  0  0  3  0  0  0  0  0  0
  189.8330  176.1770  141.2890 C   0  0  0  0  0  2  0  0  0  0  0  0
  188.7190  176.7750  141.7140 C   0  0  1  0  0  3  0  0  0  0  0  0
  191.5010  177.5940  140.0370 O   0  0  0  0  0  0  0  0  0  0  0  0
  191.0550  176.9630  141.2020 C   0  0  0  0  0  0  0  0  0  0  0  0
  188.1510  176.1850  143.3190 S   0  0  0  0  0  0  0  0  0  0  0  0
  189.0360  178.8440  140.2130 C   0  0  0  0  0  2  0  0  0  0  0  0
  190.6680  176.7540  144.5390 C   0  0  0  0  0  2  0  0  0  0  0  0
  188.3160  178.0890  141.2470 N   0  0  0  0  0  0  0  0  0  0  0  0
  191.7070  177.3900  143.6520 C   0  0  0  0  0  3  0  0  0  0  0  0
  189.2870  177.9920  138.9700 C   0  0  0  0  0  2  0  0  0  0  0  0
  190.7640  177.5990  138.8060 C   0  0  2  0  0  3  0  0  0  0  0  0
  187.2320  177.8840  145.6410 C   0  0  0  0  0  3  0  0  0  0  0  0
  187.3820  178.4240  147.9950 C   0  0  0  0  0  3  0  0  0  0  0  0
  188.6160  177.6870  145.5900 C   0  0  0  0  0  0  0  0  0  0  0  0
  189.5840  178.4320  149.1750 C   0  0  0  0  0  1  0  0  0  0  0  0
  188.7680  178.2420  147.9490 C   0  0  0  0  0  0  0  0  0  0  0  0
  185.1430  178.4430  146.8880 C   0  0  0  0  0  1  0  0  0  0  0  0
  189.3850  177.8770  146.7490 C   0  0  0  0  0  3  0  0  0  0  0  0
  186.6150  178.2450  146.8400 C   0  0  0  0  0  0  0  0  0  0  0  0
  192.0240  174.6900  136.9590 O   0  0  0  0  0  0  0  0  0  0  0  0
  192.0360  175.8230  137.5070 C   0  0  0  0  0  0  0  0  0  0  0  0
  190.8540  176.3000  138.1550 N   0  0  0  0  0  2  0  0  0  0  0  0
  193.2710  176.6620  137.4220 C   0  0  0  0  0  2  0  0  0  0  0  0
  193.8620  176.4940  135.1170 O   0  0  0  0  0  0  0  0  0  0  0  0
  194.1420  176.1940  136.3070 C   0  0  0  0  0  0  0  0  0  0  0  0
  195.3010  175.4180  136.5890 N   0  0  0  0  0  1  0  0  0  0  0  0
  187.0280  178.6330  141.6580 C   0  0  0  0  0  2  0  0  0  0  0  0
  185.9900  178.4450  140.5660 C   0  0  0  0  0  2  0  0  0  0  0  0
  184.9980  179.5030  140.6370 N   0  0  0  0  0  2  0  0  0  0  0  0
  184.1410  179.3530  139.4750 C   0  0  0  0  0  2  0  0  0  0  0  0
  182.7510  178.9120  139.9110 C   0  0  0  0  0  2  0  0  0  0  0  0
  182.7950  178.3560  141.2550 N   0  0  0  0  0  2  0  0  0  0  0  0
  181.7020  178.9520  142.0090 C   0  0  0  0  0  2  0  0  0  0  0  0
  182.0760  179.0440  143.4760 C   0  0  0  0  0  2  0  0  0  0  0  0
  183.5300  178.6610  143.6740 C   0  0  0  0  0  2  0  0  0  0  0  0
  184.3330  179.8950  144.0250 C   0  0  0  0  0  1  0  0  0  0  0  0
  1 11  2  0  0  0  0
  2  9  1  0  0  0  0
  2 16  1  1  0  0  0
  4  3  1  1  0  0  0
  4  7  1  0  0  0  0
  5  6  1  0  0  0  0
  6  3  1  0  0  0  0
  6  1  2  0  0  0  0
  7  2  1  0  0  0  0
  8 10  1  0  0  0  0
 10 29  1  0  0  0  0
 10  4  1  0  0  0  0
 11  9  1  0  0  0  0
 12  8  1  0  0  0  0
 13 24  1  1  0  0  0
 13 12  1  0  0  0  0
 13  5  1  0  0  0  0
 14 21  1  0  0  0  0
 16 14  2  0  0  0  0
 16 20  1  0  0  0  0
 18 15  1  0  0  0  0
 18 17  1  0  0  0  0
 20 18  2  0  0  0  0
 21 19  1  0  0  0  0
 21 15  2  0  0  0  0
 22 23  2  0  0  0  0
 23 24  1  0  0  0  0
 25 23  1  0  0  0  0
 26 27  2  0  0  0  0
 27 28  1  0  0  0  0
 27 25  1  0  0  0  0
 30 31  1  0  0  0  0
 30 29  1  0  0  0  0
 32 33  1  0  0  0  0
 32 31  1  0  0  0  0
 33 34  1  0  0  0  0
 34 35  1  0  0  0  0
 35 36  1  0  0  0  0
 36 37  1  0  0  0  0
 37 38  1  0  0  0  0
M  END
>  <MODEL>
1

>  <REMARK>
 VINA RESULT:      -7.7      0.000      0.000
  Name = 
  13 active torsions:
  status: ('A' for Active; 'I' for Inactive)
    1  A    between atoms: N_2  and  C_3
    2  A    between atoms: N_2  and  C_15
    3  A    between atoms: C_3  and  C_8
    4  A    between atoms: C_5  and  C_9
    5  A    between atoms: C_8  and  N_33
    6  A    between atoms: C_15  and  C_30
    7  A    between atoms: C_16  and  C_27
    8  A    between atoms: C_19  and  C_27
    9  A    between atoms: C_20  and  C_30
   10  A    between atoms: N_24  and  C_29
   11  A    between atoms: C_29  and  C_37
   12  A    between atoms: C_31  and  N_38
   13  A    between atoms: N_33  and  C_37
                            x       y       z     vdW  Elec       q    Type
                         _______ _______ _______ _____ _____    ______ ____

>  <TORSDO>
F 13

$$$$
=
 OpenBabel10232412243D

 38 40  0  0  1  0  0  0  0  0999 V2000
  191.5550  177.4420  142.4570 C   0  0  0  0  0  0  0  0  0  0  0  0
  189.2180  177.3960  144.3180 C   0  0  2  0  0  3  0  0  0  0  0  0
  189.9590  176.2210  141.3670 C   0  0  0  0  0  2  0  0  0  0  0  0
  188.7910  176.7420  141.7490 C   0  0  1  0  0  3  0  0  0  0  0  0
  191.5430  177.7280  140.1120 O   0  0  0  0  0  0  0  0  0  0  0  0
  191.1180  177.0970  141.2850 C   0  0  0  0  0  0  0  0  0  0  0  0
  188.2310  176.1550  143.3570 S   0  0  0  0  0  0  0  0  0  0  0  0
  188.9850  178.7860  140.1930 C   0  0  0  0  0  2  0  0  0  0  0  0
  190.6650  176.9540  144.6160 C   0  0  0  0  0  2  0  0  0  0  0  0
  188.3000  178.0070  141.2330 N   0  0  0  0  0  0  0  0  0  0  0  0
  191.6730  177.6430  143.7340 C   0  0  0  0  0  3  0  0  0  0  0  0
  189.3320  177.9210  138.9830 C   0  0  0  0  0  2  0  0  0  0  0  0
  190.8390  177.6400  138.8650 C   0  0  2  0  0  3  0  0  0  0  0  0
  189.2750  177.9100  146.7600 C   0  0  0  0  0  3  0  0  0  0  0  0
  187.2570  178.3780  148.0130 C   0  0  0  0  0  3  0  0  0  0  0  0
  188.5210  177.7530  145.5920 C   0  0  0  0  0  0  0  0  0  0  0  0
  185.0210  178.3670  146.9000 C   0  0  0  0  0  1  0  0  0  0  0  0
  186.4970  178.2080  146.8530 C   0  0  0  0  0  0  0  0  0  0  0  0
  189.4550  178.4040  149.2010 C   0  0  0  0  0  1  0  0  0  0  0  0
  187.1260  177.8940  145.6450 C   0  0  0  0  0  3  0  0  0  0  0  0
  188.6460  178.2280  147.9660 C   0  0  0  0  0  0  0  0  0  0  0  0
  190.3900  174.6130  136.8410 O   0  0  0  0  0  0  0  0  0  0  0  0
  190.1400  175.7530  137.3120 C   0  0  0  0  0  0  0  0  0  0  0  0
  191.0450  176.3340  138.2550 N   0  0  0  0  0  2  0  0  0  0  0  0
  188.8790  176.4480  136.9120 C   0  0  0  0  0  2  0  0  0  0  0  0
  187.8630  175.9240  134.8180 O   0  0  0  0  0  0  0  0  0  0  0  0
  188.7800  176.5330  135.4270 C   0  0  0  0  0  0  0  0  0  0  0  0
  189.7170  177.3180  134.6990 N   0  0  0  0  0  1  0  0  0  0  0  0
  186.9640  178.4600  141.5980 C   0  0  0  0  0  2  0  0  0  0  0  0
  186.0610  178.5140  140.3780 C   0  0  0  0  0  2  0  0  0  0  0  0
  185.0160  179.5020  140.5790 N   0  0  0  0  0  2  0  0  0  0  0  0
  184.1100  179.3880  139.4490 C   0  0  0  0  0  2  0  0  0  0  0  0
  182.7510  178.8950  139.9240 C   0  0  0  0  0  2  0  0  0  0  0  0
  182.8530  178.3450  141.2680 N   0  0  0  0  0  2  0  0  0  0  0  0
  181.8740  179.0330  142.0960 C   0  0  0  0  0  2  0  0  0  0  0  0
  182.2540  178.9070  143.5590 C   0  0  0  0  0  2  0  0  0  0  0  0
  183.7440  178.6540  143.6950 C   0  0  0  0  0  2  0  0  0  0  0  0
  184.4530  179.9630  143.9740 C   0  0  0  0  0  1  0  0  0  0  0  0
  1 11  2  0  0  0  0
  2  9  1  0  0  0  0
  2 16  1  1  0  0  0
  4  3  1  1  0  0  0
  4  7  1  0  0  0  0
  5  6  1  0  0  0  0
  6  3  1  0  0  0  0
  6  1  2  0  0  0  0
  7  2  1  0  0  0  0
  8 10  1  0  0  0  0
 10 29  1  0  0  0  0
 10  4  1  0  0  0  0
 11  9  1  0  0  0  0
 12  8  1  0  0  0  0
 13 24  1  1  0  0  0
 13 12  1  0  0  0  0
 13  5  1  0  0  0  0
 14 21  1  0  0  0  0
 16 20  1  0  0  0  0
 16 14  2  0  0  0  0
 18 17  1  0  0  0  0
 18 15  1  0  0  0  0
 20 18  2  0  0  0  0
 21 15  2  0  0  0  0
 21 19  1  0  0  0  0
 22 23  2  0  0  0  0
 23 24  1  0  0  0  0
 25 23  1  0  0  0  0
 26 27  2  0  0  0  0
 27 25  1  0  0  0  0
 28 27  1  0  0  0  0
 30 31  1  0  0  0  0
 30 29  1  0  0  0  0
 32 33  1  0  0  0  0
 32 31  1  0  0  0  0
 33 34  1  0  0  0  0
 34 35  1  0  0  0  0
 35 36  1  0  0  0  0
 36 37  1  0  0  0  0
 37 38  1  0  0  0  0
M  END
>  <MODEL>
2

>  <REMARK>
 VINA RESULT:      -7.2      1.391      2.319
  Name = 
  13 active torsions:
  status: ('A' for Active; 'I' for Inactive)
    1  A    between atoms: N_2  and  C_3
    2  A    between atoms: N_2  and  C_15
    3  A    between atoms: C_3  and  C_8
    4  A    between atoms: C_5  and  C_9
    5  A    between atoms: C_8  and  N_33
    6  A    between atoms: C_15  and  C_30
    7  A    between atoms: C_16  and  C_27
    8  A    between atoms: C_19  and  C_27
    9  A    between atoms: C_20  and  C_30
   10  A    between atoms: N_24  and  C_29
   11  A    between atoms: C_29  and  C_37
   12  A    between atoms: C_31  and  N_38
   13  A    between atoms: N_33  and  C_37
                            x       y       z     vdW  Elec       q    Type
                         _______ _______ _______ _____ _____    ______ ____

>  <TORSDO>
F 13

$$$$
=
 OpenBabel10232412243D

 38 40  0  0  1  0  0  0  0  0999 V2000
  191.5360  177.3060  142.4760 C   0  0  0  0  0  0  0  0  0  0  0  0
  189.1810  177.3770  144.3140 C   0  0  2  0  0  3  0  0  0  0  0  0
  189.9050  176.1280  141.3890 C   0  0  0  0  0  2  0  0  0  0  0  0
  188.7550  176.6980  141.7510 C   0  0  1  0  0  3  0  0  0  0  0  0
  191.5570  177.5550  140.1270 O   0  0  0  0  0  0  0  0  0  0  0  0
  191.0970  176.9590  141.3050 C   0  0  0  0  0  0  0  0  0  0  0  0
  188.1580  176.1580  143.3630 S   0  0  0  0  0  0  0  0  0  0  0  0
  189.0390  178.7080  140.1660 C   0  0  0  0  0  2  0  0  0  0  0  0
  190.6080  176.8860  144.6340 C   0  0  0  0  0  2  0  0  0  0  0  0
  188.3160  177.9730  141.2110 N   0  0  0  0  0  0  0  0  0  0  0  0
  191.6490  177.5220  143.7510 C   0  0  0  0  0  3  0  0  0  0  0  0
  189.3650  177.8120  138.9730 C   0  0  0  0  0  2  0  0  0  0  0  0
  190.8620  177.4740  138.8740 C   0  0  2  0  0  3  0  0  0  0  0  0
  189.2290  177.9000  146.7540 C   0  0  0  0  0  3  0  0  0  0  0  0
  187.2230  178.4880  147.9740 C   0  0  0  0  0  3  0  0  0  0  0  0
  188.4860  177.7790  145.5760 C   0  0  0  0  0  0  0  0  0  0  0  0
  185.0060  178.5970  146.8260 C   0  0  0  0  0  1  0  0  0  0  0  0
  186.4720  178.3550  146.8020 C   0  0  0  0  0  0  0  0  0  0  0  0
  189.4000  178.3960  149.1950 C   0  0  0  0  0  1  0  0  0  0  0  0
  187.1000  177.9990  145.6060 C   0  0  0  0  0  3  0  0  0  0  0  0
  188.6020  178.2600  147.9490 C   0  0  0  0  0  0  0  0  0  0  0  0
  192.2630  174.5730  137.1180 O   0  0  0  0  0  0  0  0  0  0  0  0
  192.2090  175.7320  137.6040 C   0  0  0  0  0  0  0  0  0  0  0  0
  191.0240  176.1510  138.2870 N   0  0  0  0  0  2  0  0  0  0  0  0
  193.3670  176.6580  137.4130 C   0  0  0  0  0  2  0  0  0  0  0  0
  193.6920  176.4120  135.0630 O   0  0  0  0  0  0  0  0  0  0  0  0
  194.1640  176.2560  136.2190 C   0  0  0  0  0  0  0  0  0  0  0  0
  195.4650  175.7070  136.3870 N   0  0  0  0  0  1  0  0  0  0  0  0
  186.9940  178.4810  141.5550 C   0  0  0  0  0  2  0  0  0  0  0  0
  186.0990  178.5290  140.3300 C   0  0  0  0  0  2  0  0  0  0  0  0
  185.0530  179.5180  140.5190 N   0  0  0  0  0  2  0  0  0  0  0  0
  183.9840  178.8630  141.2520 C   0  0  0  0  0  2  0  0  0  0  0  0
  183.4520  177.6860  140.4490 C   0  0  0  0  0  2  0  0  0  0  0  0
  182.5910  178.1550  139.3730 N   0  0  0  0  0  2  0  0  0  0  0  0
  181.4660  178.8460  139.9850 C   0  0  0  0  0  2  0  0  0  0  0  0
  180.6120  179.4960  138.9130 C   0  0  0  0  0  2  0  0  0  0  0  0
  181.4870  180.2580  137.9350 C   0  0  0  0  0  2  0  0  0  0  0  0
  181.6560  181.6840  138.4170 C   0  0  0  0  0  1  0  0  0  0  0  0
  1 11  2  0  0  0  0
  2  9  1  0  0  0  0
  2 16  1  1  0  0  0
  4  3  1  1  0  0  0
  4  7  1  0  0  0  0
  5  6  1  0  0  0  0
  6  3  1  0  0  0  0
  6  1  2  0  0  0  0
  7  2  1  0  0  0  0
  8 10  1  0  0  0  0
 10 29  1  0  0  0  0
 10  4  1  0  0  0  0
 11  9  1  0  0  0  0
 12  8  1  0  0  0  0
 13 24  1  1  0  0  0
 13 12  1  0  0  0  0
 13  5  1  0  0  0  0
 14 21  1  0  0  0  0
 16 20  1  0  0  0  0
 16 14  2  0  0  0  0
 18 17  1  0  0  0  0
 18 15  1  0  0  0  0
 20 18  2  0  0  0  0
 21 15  2  0  0  0  0
 21 19  1  0  0  0  0
 22 23  2  0  0  0  0
 23 24  1  0  0  0  0
 25 23  1  0  0  0  0
 26 27  2  0  0  0  0
 27 28  1  0  0  0  0
 27 25  1  0  0  0  0
 30 31  1  0  0  0  0
 30 29  1  0  0  0  0
 31 32  1  0  0  0  0
 33 32  1  0  0  0  0
 34 35  1  0  0  0  0
 34 33  1  0  0  0  0
 36 35  1  0  0  0  0
 37 38  1  0  0  0  0
 37 36  1  0  0  0  0
M  END
>  <MODEL>
3

>  <REMARK>
 VINA RESULT:      -7.1      0.994      2.251
  Name = 
  13 active torsions:
  status: ('A' for Active; 'I' for Inactive)
    1  A    between atoms: N_2  and  C_3
    2  A    between atoms: N_2  and  C_15
    3  A    between atoms: C_3  and  C_8
    4  A    between atoms: C_5  and  C_9
    5  A    between atoms: C_8  and  N_33
    6  A    between atoms: C_15  and  C_30
    7  A    between atoms: C_16  and  C_27
    8  A    between atoms: C_19  and  C_27
    9  A    between atoms: C_20  and  C_30
   10  A    between atoms: N_24  and  C_29
   11  A    between atoms: C_29  and  C_37
   12  A    between atoms: C_31  and  N_38
   13  A    between atoms: N_33  and  C_37
                            x       y       z     vdW  Elec       q    Type
                         _______ _______ _______ _____ _____    ______ ____

>  <TORSDO>
F 13

$$$$
=
 OpenBabel10232412243D

 38 40  0  0  1  0  0  0  0  0999 V2000
  188.9600  175.0330  136.9030 C   0  0  0  0  0  0  0  0  0  0  0  0
  186.7210  177.0030  137.1040 C   0  0  2  0  0  3  0  0  0  0  0  0
  189.9770  177.0800  136.9290 C   0  0  0  0  0  2  0  0  0  0  0  0
  189.1990  177.8530  137.6900 C   0  0  1  0  0  3  0  0  0  0  0  0
  191.0380  175.0730  138.0240 O   0  0  0  0  0  0  0  0  0  0  0  0
  190.0490  175.6580  137.2280 C   0  0  0  0  0  0  0  0  0  0  0  0
  187.7640  178.5090  136.8220 S   0  0  0  0  0  0  0  0  0  0  0  0
  190.0590  176.8550  139.9040 C   0  0  0  0  0  2  0  0  0  0  0  0
  186.9090  175.8990  136.0420 C   0  0  0  0  0  2  0  0  0  0  0  0
  189.1790  177.7470  139.1380 N   0  0  0  0  0  0  0  0  0  0  0  0
  187.7440  174.7500  136.5450 C   0  0  0  0  0  3  0  0  0  0  0  0
  191.5210  177.0230  139.4950 C   0  0  0  0  0  2  0  0  0  0  0  0
  192.0580  175.8220  138.7000 C   0  0  2  0  0  3  0  0  0  0  0  0
  184.8410  178.1410  138.2890 C   0  0  0  0  0  3  0  0  0  0  0  0
  182.5690  178.0510  137.4590 C   0  0  0  0  0  3  0  0  0  0  0  0
  185.2750  177.3710  137.2050 C   0  0  0  0  0  0  0  0  0  0  0  0
  182.0140  176.8070  135.3650 C   0  0  0  0  0  1  0  0  0  0  0  0
  182.9940  177.2700  136.3800 C   0  0  0  0  0  0  0  0  0  0  0  0
  183.0420  179.3120  139.5630 C   0  0  0  0  0  1  0  0  0  0  0  0
  184.3430  176.9280  136.2530 C   0  0  0  0  0  3  0  0  0  0  0  0
  183.4930  178.4850  138.4130 C   0  0  0  0  0  0  0  0  0  0  0  0
  194.9390  175.9090  136.4290 O   0  0  0  0  0  0  0  0  0  0  0  0
  194.1000  175.4320  137.2370 C   0  0  0  0  0  0  0  0  0  0  0  0
  193.0670  176.2760  137.7540 N   0  0  0  0  0  2  0  0  0  0  0  0
  194.2350  174.0090  137.6740 C   0  0  0  0  0  2  0  0  0  0  0  0
  196.0390  172.7970  138.6580 O   0  0  0  0  0  0  0  0  0  0  0  0
  195.3710  173.8630  138.6280 C   0  0  0  0  0  0  0  0  0  0  0  0
  195.7080  174.9370  139.4980 N   0  0  0  0  0  1  0  0  0  0  0  0
  188.3990  178.7020  139.9160 C   0  0  0  0  0  2  0  0  0  0  0  0
  188.5270  178.4180  141.4020 C   0  0  0  0  0  2  0  0  0  0  0  0
  187.2270  178.0820  141.9560 N   0  0  0  0  0  2  0  0  0  0  0  0
  187.4700  177.2570  143.1260 C   0  0  0  0  0  2  0  0  0  0  0  0
  188.8490  177.5590  143.6950 C   0  0  0  0  0  2  0  0  0  0  0  0
  188.7540  177.8700  145.1130 N   0  0  0  0  0  2  0  0  0  0  0  0
  187.3400  177.9190  145.4550 C   0  0  0  0  0  2  0  0  0  0  0  0
  187.1580  177.6730  146.9410 C   0  0  0  0  0  2  0  0  0  0  0  0
  188.4570  177.1870  147.5560 C   0  0  0  0  0  2  0  0  0  0  0  0
  188.9440  178.2010  148.5700 C   0  0  0  0  0  1  0  0  0  0  0  0
  1  6  2  0  0  0  0
  2 16  1  6  0  0  0
  3  6  1  0  0  0  0
  4  3  1  6  0  0  0
  4 10  1  0  0  0  0
  5 13  1  0  0  0  0
  6  5  1  0  0  0  0
  7  2  1  0  0  0  0
  7  4  1  0  0  0  0
  9 11  1  0  0  0  0
  9  2  1  0  0  0  0
 10  8  1  0  0  0  0
 10 29  1  0  0  0  0
 11  1  2  0  0  0  0
 12  8  1  0  0  0  0
 13 24  1  6  0  0  0
 13 12  1  0  0  0  0
 14 21  1  0  0  0  0
 15 21  2  0  0  0  0
 16 14  2  0  0  0  0
 17 18  1  0  0  0  0
 18 15  1  0  0  0  0
 20 18  2  0  0  0  0
 20 16  1  0  0  0  0
 21 19  1  0  0  0  0
 22 23  2  0  0  0  0
 23 25  1  0  0  0  0
 23 24  1  0  0  0  0
 25 27  1  0  0  0  0
 27 26  2  0  0  0  0
 27 28  1  0  0  0  0
 29 30  1  0  0  0  0
 30 31  1  0  0  0  0
 31 32  1  0  0  0  0
 32 33  1  0  0  0  0
 33 34  1  0  0  0  0
 34 35  1  0  0  0  0
 35 36  1  0  0  0  0
 36 37  1  0  0  0  0
 37 38  1  0  0  0  0
M  END
>  <MODEL>
4

>  <REMARK>
 VINA RESULT:      -7.0      2.791      6.826
  Name = 
  13 active torsions:
  status: ('A' for Active; 'I' for Inactive)
    1  A    between atoms: N_2  and  C_3
    2  A    between atoms: N_2  and  C_15
    3  A    between atoms: C_3  and  C_8
    4  A    between atoms: C_5  and  C_9
    5  A    between atoms: C_8  and  N_33
    6  A    between atoms: C_15  and  C_30
    7  A    between atoms: C_16  and  C_27
    8  A    between atoms: C_19  and  C_27
    9  A    between atoms: C_20  and  C_30
   10  A    between atoms: N_24  and  C_29
   11  A    between atoms: C_29  and  C_37
   12  A    between atoms: C_31  and  N_38
   13  A    between atoms: N_33  and  C_37
                            x       y       z     vdW  Elec       q    Type
                         _______ _______ _______ _____ _____    ______ ____

>  <TORSDO>
F 13

$$$$
=
 OpenBabel10232412243D

 38 40  0  0  1  0  0  0  0  0999 V2000
  188.9030  175.0580  136.9560 C   0  0  0  0  0  0  0  0  0  0  0  0
  186.5820  176.9070  137.3120 C   0  0  2  0  0  3  0  0  0  0  0  0
  189.8290  177.1420  137.1160 C   0  0  0  0  0  2  0  0  0  0  0  0
  189.0270  177.8250  137.9350 C   0  0  1  0  0  3  0  0  0  0  0  0
  190.9900  175.1130  138.0610 O   0  0  0  0  0  0  0  0  0  0  0  0
  189.9680  175.7070  137.3150 C   0  0  0  0  0  0  0  0  0  0  0  0
  187.5540  178.4740  137.1260 S   0  0  0  0  0  0  0  0  0  0  0  0
  189.9540  176.7170  140.0670 C   0  0  0  0  0  2  0  0  0  0  0  0
  186.8070  175.8880  136.1740 C   0  0  0  0  0  2  0  0  0  0  0  0
  189.0270  177.6190  139.3720 N   0  0  0  0  0  0  0  0  0  0  0  0
  187.6970  174.7460  136.5890 C   0  0  0  0  0  3  0  0  0  0  0  0
  191.4030  176.9770  139.6590 C   0  0  0  0  0  2  0  0  0  0  0  0
  191.9840  175.8590  138.7790 C   0  0  2  0  0  3  0  0  0  0  0  0
  184.1990  176.4110  136.7600 C   0  0  0  0  0  3  0  0  0  0  0  0
  182.3810  177.7450  137.6400 C   0  0  0  0  0  3  0  0  0  0  0  0
  185.1230  177.2030  137.4490 C   0  0  0  0  0  0  0  0  0  0  0  0
  182.8240  179.6850  139.1500 C   0  0  0  0  0  1  0  0  0  0  0  0
  183.3000  178.5490  138.3200 C   0  0  0  0  0  0  0  0  0  0  0  0
  181.8540  175.8240  136.1310 C   0  0  0  0  0  1  0  0  0  0  0  0
  184.6680  178.2810  138.2230 C   0  0  0  0  0  3  0  0  0  0  0  0
  182.8310  176.6770  136.8590 C   0  0  0  0  0  0  0  0  0  0  0  0
  194.8150  176.2240  136.4740 O   0  0  0  0  0  0  0  0  0  0  0  0
  194.0060  175.6550  137.2520 C   0  0  0  0  0  0  0  0  0  0  0  0
  192.9610  176.4220  137.8580 N   0  0  0  0  0  2  0  0  0  0  0  0
  194.1880  174.2040  137.5620 C   0  0  0  0  0  2  0  0  0  0  0  0
  195.7220  172.8850  138.8250 O   0  0  0  0  0  0  0  0  0  0  0  0
  195.2290  174.0230  138.6130 C   0  0  0  0  0  0  0  0  0  0  0  0
  195.6750  175.1420  139.3690 N   0  0  0  0  0  1  0  0  0  0  0  0
  188.2150  178.4820  140.2210 C   0  0  0  0  0  2  0  0  0  0  0  0
  188.4960  178.2140  141.6880 C   0  0  0  0  0  2  0  0  0  0  0  0
  187.2530  177.9530  142.3920 N   0  0  0  0  0  2  0  0  0  0  0  0
  187.6050  177.2670  143.6230 C   0  0  0  0  0  2  0  0  0  0  0  0
  186.7940  177.8340  144.7800 C   0  0  0  0  0  2  0  0  0  0  0  0
  187.5640  177.7760  146.0140 N   0  0  0  0  0  2  0  0  0  0  0  0
  188.9110  177.3480  145.6680 C   0  0  0  0  0  2  0  0  0  0  0  0
  189.6560  176.9230  146.9180 C   0  0  0  0  0  2  0  0  0  0  0  0
  191.1310  176.7350  146.6140 C   0  0  0  0  0  2  0  0  0  0  0  0
  191.3730  176.9610  145.1360 C   0  0  0  0  0  1  0  0  0  0  0  0
  1  6  2  0  0  0  0
  2 16  1  6  0  0  0
  3  6  1  0  0  0  0
  4  3  1  6  0  0  0
  4 10  1  0  0  0  0
  5 13  1  0  0  0  0
  6  5  1  0  0  0  0
  7  2  1  0  0  0  0
  7  4  1  0  0  0  0
  9 11  1  0  0  0  0
  9  2  1  0  0  0  0
 10  8  1  0  0  0  0
 10 29  1  0  0  0  0
 11  1  2  0  0  0  0
 12  8  1  0  0  0  0
 13 24  1  6  0  0  0
 13 12  1  0  0  0  0
 14 21  2  0  0  0  0
 14 16  1  0  0  0  0
 15 18  2  0  0  0  0
 16 20  2  0  0  0  0
 18 17  1  0  0  0  0
 19 21  1  0  0  0  0
 20 18  1  0  0  0  0
 21 15  1  0  0  0  0
 22 23  2  0  0  0  0
 23 25  1  0  0  0  0
 23 24  1  0  0  0  0
 25 27  1  0  0  0  0
 27 26  2  0  0  0  0
 27 28  1  0  0  0  0
 29 30  1  0  0  0  0
 30 31  1  0  0  0  0
 31 32  1  0  0  0  0
 32 33  1  0  0  0  0
 33 34  1  0  0  0  0
 35 34  1  0  0  0  0
 35 36  1  0  0  0  0
 37 36  1  0  0  0  0
 38 37  1  0  0  0  0
M  END
>  <MODEL>
5

>  <REMARK>
 VINA RESULT:      -6.9      2.788      6.858
  Name = 
  13 active torsions:
  status: ('A' for Active; 'I' for Inactive)
    1  A    between atoms: N_2  and  C_3
    2  A    between atoms: N_2  and  C_15
    3  A    between atoms: C_3  and  C_8
    4  A    between atoms: C_5  and  C_9
    5  A    between atoms: C_8  and  N_33
    6  A    between atoms: C_15  and  C_30
    7  A    between atoms: C_16  and  C_27
    8  A    between atoms: C_19  and  C_27
    9  A    between atoms: C_20  and  C_30
   10  A    between atoms: N_24  and  C_29
   11  A    between atoms: C_29  and  C_37
   12  A    between atoms: C_31  and  N_38
   13  A    between atoms: N_33  and  C_37
                            x       y       z     vdW  Elec       q    Type
                         _______ _______ _______ _____ _____    ______ ____

>  <TORSDO>
F 13

$$$$
=
 OpenBabel10232412243D

 38 40  0  0  1  0  0  0  0  0999 V2000
  189.4350  177.1140  135.3500 C   0  0  0  0  0  0  0  0  0  0  0  0
  191.8880  175.8340  136.4790 C   0  0  2  0  0  3  0  0  0  0  0  0
  188.7070  175.9620  137.1860 C   0  0  0  0  0  2  0  0  0  0  0  0
  189.7200  176.0010  138.0540 C   0  0  1  0  0  3  0  0  0  0  0  0
  187.6710  178.1620  136.5190 O   0  0  0  0  0  0  0  0  0  0  0  0
  188.5270  177.0840  136.2760 C   0  0  0  0  0  0  0  0  0  0  0  0
  191.0020  174.7800  137.7200 S   0  0  0  0  0  0  0  0  0  0  0  0
  189.2460  178.4260  138.7820 C   0  0  0  0  0  2  0  0  0  0  0  0
  191.3400  175.7100  135.0420 C   0  0  0  0  0  2  0  0  0  0  0  0
  190.0420  177.1920  138.8190 N   0  0  0  0  0  0  0  0  0  0  0  0
  190.5000  176.8940  134.6400 C   0  0  0  0  0  3  0  0  0  0  0  0
  187.7620  178.1430  139.0080 C   0  0  0  0  0  2  0  0  0  0  0  0
  186.9220  178.3220  137.7330 C   0  0  2  0  0  3  0  0  0  0  0  0
  194.1680  176.0950  135.4950 C   0  0  0  0  0  3  0  0  0  0  0  0
  196.1030  174.9950  136.4460 C   0  0  0  0  0  3  0  0  0  0  0  0
  193.3560  175.5440  136.4910 C   0  0  0  0  0  0  0  0  0  0  0  0
  195.8920  173.5450  138.4690 C   0  0  0  0  0  1  0  0  0  0  0  0
  195.2940  174.4300  137.4370 C   0  0  0  0  0  0  0  0  0  0  0  0
  196.3960  176.4260  134.4190 C   0  0  0  0  0  1  0  0  0  0  0  0
  193.9230  174.7010  137.4580 C   0  0  0  0  0  3  0  0  0  0  0  0
  195.5380  175.8280  135.4750 C   0  0  0  0  0  0  0  0  0  0  0  0
  183.5700  176.9050  138.2040 O   0  0  0  0  0  0  0  0  0  0  0  0
  184.4860  177.7680  138.2040 C   0  0  0  0  0  0  0  0  0  0  0  0
  185.7950  177.4000  137.7600 N   0  0  0  0  0  2  0  0  0  0  0  0
  184.1950  179.1410  138.7170 C   0  0  0  0  0  2  0  0  0  0  0  0
  185.2430  179.5380  140.8230 O   0  0  0  0  0  0  0  0  0  0  0  0
  184.2140  179.1560  140.2070 C   0  0  0  0  0  0  0  0  0  0  0  0
  183.0610  178.7480  140.9350 N   0  0  0  0  0  1  0  0  0  0  0  0
  191.0820  177.1310  139.8380 C   0  0  0  0  0  2  0  0  0  0  0  0
  190.4810  176.8870  141.2100 C   0  0  0  0  0  2  0  0  0  0  0  0
  191.1940  177.6630  142.2090 N   0  0  0  0  0  2  0  0  0  0  0  0
  191.4810  176.7630  143.3120 C   0  0  0  0  0  2  0  0  0  0  0  0
  191.1040  177.4240  144.6300 C   0  0  0  0  0  2  0  0  0  0  0  0
  189.8050  178.0700  144.5190 N   0  0  0  0  0  2  0  0  0  0  0  0
  188.7950  177.0800  144.8620 C   0  0  0  0  0  2  0  0  0  0  0  0
  187.5520  177.2950  144.0200 C   0  0  0  0  0  2  0  0  0  0  0  0
  186.4130  177.8050  144.8840 C   0  0  0  0  0  2  0  0  0  0  0  0
  186.7870  177.6630  146.3450 C   0  0  0  0  0  1  0  0  0  0  0  0
  1  6  2  0  0  0  0
  2 16  1  6  0  0  0
  2  7  1  0  0  0  0
  4  3  1  6  0  0  0
  4 10  1  0  0  0  0
  5 13  1  0  0  0  0
  6  5  1  0  0  0  0
  6  3  1  0  0  0  0
  7  4  1  0  0  0  0
  8 10  1  0  0  0  0
  8 12  1  0  0  0  0
  9  2  1  0  0  0  0
 10 29  1  0  0  0  0
 11  9  1  0  0  0  0
 11  1  2  0  0  0  0
 13 24  1  1  0  0  0
 13 12  1  0  0  0  0
 14 16  1  0  0  0  0
 15 18  2  0  0  0  0
 16 20  2  0  0  0  0
 18 20  1  0  0  0  0
 18 17  1  0  0  0  0
 19 21  1  0  0  0  0
 21 14  2  0  0  0  0
 21 15  1  0  0  0  0
 22 23  2  0  0  0  0
 23 25  1  0  0  0  0
 24 23  1  0  0  0  0
 25 27  1  0  0  0  0
 27 26  2  0  0  0  0
 27 28  1  0  0  0  0
 29 30  1  0  0  0  0
 30 31  1  0  0  0  0
 31 32  1  0  0  0  0
 32 33  1  0  0  0  0
 34 33  1  0  0  0  0
 34 35  1  0  0  0  0
 36 35  1  0  0  0  0
 36 37  1  0  0  0  0
 37 38  1  0  0  0  0
M  END
>  <MODEL>
6

>  <REMARK>
 VINA RESULT:      -6.8      2.974      8.925
  Name = 
  13 active torsions:
  status: ('A' for Active; 'I' for Inactive)
    1  A    between atoms: N_2  and  C_3
    2  A    between atoms: N_2  and  C_15
    3  A    between atoms: C_3  and  C_8
    4  A    between atoms: C_5  and  C_9
    5  A    between atoms: C_8  and  N_33
    6  A    between atoms: C_15  and  C_30
    7  A    between atoms: C_16  and  C_27
    8  A    between atoms: C_19  and  C_27
    9  A    between atoms: C_20  and  C_30
   10  A    between atoms: N_24  and  C_29
   11  A    between atoms: C_29  and  C_37
   12  A    between atoms: C_31  and  N_38
   13  A    between atoms: N_33  and  C_37
                            x       y       z     vdW  Elec       q    Type
                         _______ _______ _______ _____ _____    ______ ____

>  <TORSDO>
F 13

$$$$
=
 OpenBabel10232412243D

 38 40  0  0  1  0  0  0  0  0999 V2000
  189.3290  177.1810  135.2200 C   0  0  0  0  0  0  0  0  0  0  0  0
  191.7790  175.8650  136.3140 C   0  0  2  0  0  3  0  0  0  0  0  0
  188.5960  175.9680  137.0130 C   0  0  0  0  0  2  0  0  0  0  0  0
  189.6060  175.9780  137.8850 C   0  0  1  0  0  3  0  0  0  0  0  0
  187.5600  178.1880  136.4180 O   0  0  0  0  0  0  0  0  0  0  0  0
  188.4180  177.1200  136.1410 C   0  0  0  0  0  0  0  0  0  0  0  0
  190.8900  174.7700  137.5150 S   0  0  0  0  0  0  0  0  0  0  0  0
  189.1280  178.3770  138.6930 C   0  0  0  0  0  2  0  0  0  0  0  0
  191.2360  175.7890  134.8710 C   0  0  0  0  0  2  0  0  0  0  0  0
  189.9240  177.1430  138.6920 N   0  0  0  0  0  0  0  0  0  0  0  0
  190.3970  176.9850  134.5060 C   0  0  0  0  0  3  0  0  0  0  0  0
  187.6430  178.0860  138.9040 C   0  0  0  0  0  2  0  0  0  0  0  0
  186.8070  178.3070  137.6330 C   0  0  2  0  0  3  0  0  0  0  0  0
  193.7570  174.6630  137.2490 C   0  0  0  0  0  3  0  0  0  0  0  0
  195.9940  175.0340  136.4010 C   0  0  0  0  0  3  0  0  0  0  0  0
  193.2470  175.5760  136.3210 C   0  0  0  0  0  0  0  0  0  0  0  0
  196.4130  176.6460  134.5400 C   0  0  0  0  0  1  0  0  0  0  0  0
  195.4920  175.9580  135.4800 C   0  0  0  0  0  0  0  0  0  0  0  0
  195.6600  173.4080  138.2690 C   0  0  0  0  0  1  0  0  0  0  0  0
  194.1220  176.2320  135.4410 C   0  0  0  0  0  3  0  0  0  0  0  0
  195.1260  174.3870  137.2860 C   0  0  0  0  0  0  0  0  0  0  0  0
  183.5060  176.8100  138.2010 O   0  0  0  0  0  0  0  0  0  0  0  0
  184.4240  177.6690  138.2470 C   0  0  0  0  0  0  0  0  0  0  0  0
  185.6800  177.3840  137.6250 N   0  0  0  0  0  2  0  0  0  0  0  0
  184.1950  178.9430  138.9940 C   0  0  0  0  0  2  0  0  0  0  0  0
  183.7990  177.8720  141.0890 O   0  0  0  0  0  0  0  0  0  0  0  0
  184.4430  178.7450  140.4500 C   0  0  0  0  0  0  0  0  0  0  0  0
  185.4190  179.5370  141.1180 N   0  0  0  0  0  1  0  0  0  0  0  0
  190.9610  177.0480  139.7110 C   0  0  0  0  0  2  0  0  0  0  0  0
  190.3760  176.5960  141.0370 C   0  0  0  0  0  2  0  0  0  0  0  0
  190.5810  177.6210  142.0450 N   0  0  0  0  0  2  0  0  0  0  0  0
  189.2640  178.0620  142.4700 C   0  0  0  0  0  2  0  0  0  0  0  0
  188.2960  176.8880  142.4510 C   0  0  0  0  0  2  0  0  0  0  0  0
  187.6230  176.7660  143.7360 N   0  0  0  0  0  2  0  0  0  0  0  0
  188.0820  177.8640  144.5740 C   0  0  0  0  0  2  0  0  0  0  0  0
  187.9000  177.5080  146.0370 C   0  0  0  0  0  2  0  0  0  0  0  0
  189.2160  177.6490  146.7800 C   0  0  0  0  0  2  0  0  0  0  0  0
  188.9420  178.0140  148.2240 C   0  0  0  0  0  1  0  0  0  0  0  0
  1  6  2  0  0  0  0
  2 16  1  6  0  0  0
  2  7  1  0  0  0  0
  4  3  1  6  0  0  0
  4 10  1  0  0  0  0
  5 13  1  0  0  0  0
  6  5  1  0  0  0  0
  6  3  1  0  0  0  0
  7  4  1  0  0  0  0
  8 12  1  0  0  0  0
  9  2  1  0  0  0  0
 10  8  1  0  0  0  0
 10 29  1  0  0  0  0
 11  9  1  0  0  0  0
 11  1  2  0  0  0  0
 13 24  1  6  0  0  0
 13 12  1  0  0  0  0
 14 21  1  0  0  0  0
 15 21  2  0  0  0  0
 16 14  2  0  0  0  0
 17 18  1  0  0  0  0
 18 15  1  0  0  0  0
 20 18  2  0  0  0  0
 20 16  1  0  0  0  0
 21 19  1  0  0  0  0
 22 23  2  0  0  0  0
 23 25  1  0  0  0  0
 24 23  1  0  0  0  0
 25 27  1  0  0  0  0
 27 26  2  0  0  0  0
 27 28  1  0  0  0  0
 29 30  1  0  0  0  0
 30 31  1  0  0  0  0
 31 32  1  0  0  0  0
 33 32  1  0  0  0  0
 33 34  1  0  0  0  0
 34 35  1  0  0  0  0
 35 36  1  0  0  0  0
 36 37  1  0  0  0  0
 37 38  1  0  0  0  0
M  END
>  <MODEL>
7

>  <REMARK>
 VINA RESULT:      -6.7      3.058      8.837
  Name = 
  13 active torsions:
  status: ('A' for Active; 'I' for Inactive)
    1  A    between atoms: N_2  and  C_3
    2  A    between atoms: N_2  and  C_15
    3  A    between atoms: C_3  and  C_8
    4  A    between atoms: C_5  and  C_9
    5  A    between atoms: C_8  and  N_33
    6  A    between atoms: C_15  and  C_30
    7  A    between atoms: C_16  and  C_27
    8  A    between atoms: C_19  and  C_27
    9  A    between atoms: C_20  and  C_30
   10  A    between atoms: N_24  and  C_29
   11  A    between atoms: C_29  and  C_37
   12  A    between atoms: C_31  and  N_38
   13  A    between atoms: N_33  and  C_37
                            x       y       z     vdW  Elec       q    Type
                         _______ _______ _______ _____ _____    ______ ____

>  <TORSDO>
F 13

$$$$
=
 OpenBabel10232412243D

 38 40  0  0  1  0  0  0  0  0999 V2000
  191.5940  177.4420  142.6180 C   0  0  0  0  0  0  0  0  0  0  0  0
  189.1590  177.4000  144.3490 C   0  0  2  0  0  3  0  0  0  0  0  0
  190.0690  176.1960  141.4580 C   0  0  0  0  0  2  0  0  0  0  0  0
  188.8780  176.7120  141.7690 C   0  0  1  0  0  3  0  0  0  0  0  0
  191.7080  177.7000  140.2730 O   0  0  0  0  0  0  0  0  0  0  0  0
  191.2250  177.0790  141.4290 C   0  0  0  0  0  0  0  0  0  0  0  0
  188.2350  176.1400  143.3520 S   0  0  0  0  0  0  0  0  0  0  0  0
  189.1420  178.7390  140.2010 C   0  0  0  0  0  2  0  0  0  0  0  0
  190.5910  176.9720  144.7320 C   0  0  0  0  0  2  0  0  0  0  0  0
  188.4070  177.9670  141.2120 N   0  0  0  0  0  0  0  0  0  0  0  0
  191.6410  177.6590  143.8980 C   0  0  0  0  0  3  0  0  0  0  0  0
  189.5610  177.8620  139.0220 C   0  0  0  0  0  2  0  0  0  0  0  0
  191.0740  177.5920  138.9900 C   0  0  2  0  0  3  0  0  0  0  0  0
  189.0750  177.9180  146.7900 C   0  0  0  0  0  3  0  0  0  0  0  0
  186.9920  178.4090  147.9200 C   0  0  0  0  0  3  0  0  0  0  0  0
  188.3910  177.7660  145.5790 C   0  0  0  0  0  0  0  0  0  0  0  0
  184.8250  178.4190  146.6750 C   0  0  0  0  0  1  0  0  0  0  0  0
  186.3000  178.2450  146.7160 C   0  0  0  0  0  0  0  0  0  0  0  0
  189.1150  178.4150  149.2360 C   0  0  0  0  0  1  0  0  0  0  0  0
  186.9970  177.9210  145.5480 C   0  0  0  0  0  3  0  0  0  0  0  0
  188.3790  178.2450  147.9560 C   0  0  0  0  0  0  0  0  0  0  0  0
  191.1830  174.7620  136.6580 O   0  0  0  0  0  0  0  0  0  0  0  0
  190.9380  175.9220  137.0780 C   0  0  0  0  0  0  0  0  0  0  0  0
  191.3230  176.2800  138.4090 N   0  0  0  0  0  2  0  0  0  0  0  0
  190.2080  176.8800  136.1930 C   0  0  0  0  0  2  0  0  0  0  0  0
  187.8840  176.3550  136.3110 O   0  0  0  0  0  0  0  0  0  0  0  0
  188.9610  176.2560  135.6670 C   0  0  0  0  0  0  0  0  0  0  0  0
  188.9860  175.5590  134.4280 N   0  0  0  0  0  1  0  0  0  0  0  0
  187.0500  178.4140  141.4970 C   0  0  0  0  0  2  0  0  0  0  0  0
  186.2150  178.4470  140.2300 C   0  0  0  0  0  2  0  0  0  0  0  0
  185.2170  179.4980  140.3210 N   0  0  0  0  0  2  0  0  0  0  0  0
  184.1680  179.1630  139.3730 C   0  0  0  0  0  2  0  0  0  0  0  0
  184.6570  178.0800  138.4230 C   0  0  0  0  0  2  0  0  0  0  0  0
  183.6390  177.7870  137.4240 N   0  0  0  0  0  2  0  0  0  0  0  0
  182.3980  178.3990  137.8730 C   0  0  0  0  0  2  0  0  0  0  0  0
  181.2420  177.4400  137.6640 C   0  0  0  0  0  2  0  0  0  0  0  0
  181.6380  176.0390  138.0910 C   0  0  0  0  0  2  0  0  0  0  0  0
  181.7410  175.9830  139.6010 C   0  0  0  0  0  1  0  0  0  0  0  0
  1 11  2  0  0  0  0
  2  9  1  0  0  0  0
  2 16  1  1  0  0  0
  4  3  1  1  0  0  0
  4  7  1  0  0  0  0
  5  6  1  0  0  0  0
  6  3  1  0  0  0  0
  6  1  2  0  0  0  0
  7  2  1  0  0  0  0
  8 10  1  0  0  0  0
 10 29  1  0  0  0  0
 10  4  1  0  0  0  0
 11  9  1  0  0  0  0
 12  8  1  0  0  0  0
 13 24  1  1  0  0  0
 13 12  1  0  0  0  0
 13  5  1  0  0  0  0
 14 21  1  0  0  0  0
 15 21  2  0  0  0  0
 16 14  2  0  0  0  0
 17 18  1  0  0  0  0
 18 15  1  0  0  0  0
 20 16  1  0  0  0  0
 20 18  2  0  0  0  0
 21 19  1  0  0  0  0
 22 23  2  0  0  0  0
 23 24  1  0  0  0  0
 25 23  1  0  0  0  0
 27 25  1  0  0  0  0
 27 26  2  0  0  0  0
 28 27  1  0  0  0  0
 30 31  1  0  0  0  0
 30 29  1  0  0  0  0
 32 31  1  0  0  0  0
 33 32  1  0  0  0  0
 34 35  1  0  0  0  0
 34 33  1  0  0  0  0
 36 35  1  0  0  0  0
 36 37  1  0  0  0  0
 37 38  1  0  0  0  0
M  END
>  <MODEL>
8

>  <REMARK>
 VINA RESULT:      -6.7      1.755      3.071
  Name = 
  13 active torsions:
  status: ('A' for Active; 'I' for Inactive)
    1  A    between atoms: N_2  and  C_3
    2  A    between atoms: N_2  and  C_15
    3  A    between atoms: C_3  and  C_8
    4  A    between atoms: C_5  and  C_9
    5  A    between atoms: C_8  and  N_33
    6  A    between atoms: C_15  and  C_30
    7  A    between atoms: C_16  and  C_27
    8  A    between atoms: C_19  and  C_27
    9  A    between atoms: C_20  and  C_30
   10  A    between atoms: N_24  and  C_29
   11  A    between atoms: C_29  and  C_37
   12  A    between atoms: C_31  and  N_38
   13  A    between atoms: N_33  and  C_37
                            x       y       z     vdW  Elec       q    Type
                         _______ _______ _______ _____ _____    ______ ____

>  <TORSDO>
F 13

$$$$
=
 OpenBabel10232412243D

 38 40  0  0  1  0  0  0  0  0999 V2000
  188.7180  175.0280  136.9900 C   0  0  0  0  0  0  0  0  0  0  0  0
  186.3520  176.8290  137.2870 C   0  0  2  0  0  3  0  0  0  0  0  0
  189.5920  177.1380  137.0820 C   0  0  0  0  0  2  0  0  0  0  0  0
  188.7730  177.8270  137.8790 C   0  0  1  0  0  3  0  0  0  0  0  0
  190.8030  175.1700  138.0910 O   0  0  0  0  0  0  0  0  0  0  0  0
  189.7660  175.7140  137.3270 C   0  0  0  0  0  0  0  0  0  0  0  0
  187.2850  178.4130  137.0500 S   0  0  0  0  0  0  0  0  0  0  0  0
  189.7270  176.8120  140.0450 C   0  0  0  0  0  2  0  0  0  0  0  0
  186.6020  175.7800  136.1830 C   0  0  0  0  0  2  0  0  0  0  0  0
  188.7780  177.6680  139.3220 N   0  0  0  0  0  0  0  0  0  0  0  0
  187.5200  174.6750  136.6350 C   0  0  0  0  0  3  0  0  0  0  0  0
  191.1690  177.0950  139.6280 C   0  0  0  0  0  2  0  0  0  0  0  0
  191.7770  175.9630  138.7840 C   0  0  2  0  0  3  0  0  0  0  0  0
  184.4530  178.1790  138.1840 C   0  0  0  0  0  3  0  0  0  0  0  0
  182.1480  177.6040  137.7210 C   0  0  0  0  0  3  0  0  0  0  0  0
  184.8860  177.0940  137.4150 C   0  0  0  0  0  0  0  0  0  0  0  0
  181.5750  175.6210  136.3130 C   0  0  0  0  0  1  0  0  0  0  0  0
  182.5730  176.5090  136.9630 C   0  0  0  0  0  0  0  0  0  0  0  0
  182.6370  179.6000  139.1420 C   0  0  0  0  0  1  0  0  0  0  0  0
  183.9390  176.2520  136.8120 C   0  0  0  0  0  3  0  0  0  0  0  0
  183.0880  178.4380  138.3320 C   0  0  0  0  0  0  0  0  0  0  0  0
  194.6620  176.3560  136.5510 O   0  0  0  0  0  0  0  0  0  0  0  0
  193.8730  175.7950  137.3550 C   0  0  0  0  0  0  0  0  0  0  0  0
  192.7410  176.5200  137.8450 N   0  0  0  0  0  2  0  0  0  0  0  0
  194.1660  174.4040  137.8150 C   0  0  0  0  0  2  0  0  0  0  0  0
  196.4440  173.7530  137.5320 O   0  0  0  0  0  0  0  0  0  0  0  0
  195.5810  174.2940  138.2710 C   0  0  0  0  0  0  0  0  0  0  0  0
  195.9580  174.8130  139.5410 N   0  0  0  0  0  1  0  0  0  0  0  0
  187.9450  178.5380  140.1420 C   0  0  0  0  0  2  0  0  0  0  0  0
  187.8920  178.0390  141.5750 C   0  0  0  0  0  2  0  0  0  0  0  0
  186.7140  178.5670  142.2410 N   0  0  0  0  0  2  0  0  0  0  0  0
  186.4190  177.6700  143.3450 C   0  0  0  0  0  2  0  0  0  0  0  0
  187.7130  177.2310  144.0140 C   0  0  0  0  0  2  0  0  0  0  0  0
  187.7010  177.5890  145.4240 N   0  0  0  0  0  2  0  0  0  0  0  0
  189.0790  177.5700  145.8910 C   0  0  0  0  0  2  0  0  0  0  0  0
  190.0110  177.9780  144.7670 C   0  0  0  0  0  2  0  0  0  0  0  0
  191.3160  177.2090  144.8600 C   0  0  0  0  0  2  0  0  0  0  0  0
  191.3660  176.1670  143.7630 C   0  0  0  0  0  1  0  0  0  0  0  0
  1  6  2  0  0  0  0
  2 16  1  6  0  0  0
  3  6  1  0  0  0  0
  4  3  1  6  0  0  0
  4 10  1  0  0  0  0
  5 13  1  0  0  0  0
  6  5  1  0  0  0  0
  7  2  1  0  0  0  0
  7  4  1  0  0  0  0
  9 11  1  0  0  0  0
  9  2  1  0  0  0  0
 10  8  1  0  0  0  0
 10 29  1  0  0  0  0
 11  1  2  0  0  0  0
 12  8  1  0  0  0  0
 13 24  1  6  0  0  0
 13 12  1  0  0  0  0
 14 21  1  0  0  0  0
 15 21  2  0  0  0  0
 16 14  2  0  0  0  0
 17 18  1  0  0  0  0
 18 15  1  0  0  0  0
 20 18  2  0  0  0  0
 20 16  1  0  0  0  0
 21 19  1  0  0  0  0
 22 23  2  0  0  0  0
 23 25  1  0  0  0  0
 23 24  1  0  0  0  0
 25 27  1  0  0  0  0
 26 27  2  0  0  0  0
 27 28  1  0  0  0  0
 29 30  1  0  0  0  0
 30 31  1  0  0  0  0
 31 32  1  0  0  0  0
 32 33  1  0  0  0  0
 33 34  1  0  0  0  0
 34 35  1  0  0  0  0
 36 37  1  0  0  0  0
 36 35  1  0  0  0  0
 38 37  1  0  0  0  0
M  END
>  <MODEL>
9

>  <REMARK>
 VINA RESULT:      -6.7      2.805      6.878
  Name = 
  13 active torsions:
  status: ('A' for Active; 'I' for Inactive)
    1  A    between atoms: N_2  and  C_3
    2  A    between atoms: N_2  and  C_15
    3  A    between atoms: C_3  and  C_8
    4  A    between atoms: C_5  and  C_9
    5  A    between atoms: C_8  and  N_33
    6  A    between atoms: C_15  and  C_30
    7  A    between atoms: C_16  and  C_27
    8  A    between atoms: C_19  and  C_27
    9  A    between atoms: C_20  and  C_30
   10  A    between atoms: N_24  and  C_29
   11  A    between atoms: C_29  and  C_37
   12  A    between atoms: C_31  and  N_38
   13  A    between atoms: N_33  and  C_37
                            x       y       z     vdW  Elec       q    Type
                         _______ _______ _______ _____ _____    ______ ____

>  <TORSDO>
F 13

$$$$
