=
 OpenBabel10222421363D

 43 46  0  0  1  0  0  0  0  0999 V2000
  193.2780  174.2570  137.3590 C   0  0  0  0  0  3  0  0  0  0  0  0
  190.3130  176.7800  140.1900 C   0  0  0  0  0  0  0  0  0  0  0  0
  188.8000  179.0580  137.0080 C   0  0  0  0  0  2  0  0  0  0  0  0
  192.8400  174.9710  138.4730 C   0  0  0  0  0  3  0  0  0  0  0  0
  187.7660  178.4360  136.0680 C   0  0  0  0  0  2  0  0  0  0  0  0
  191.9200  175.6520  135.9430 C   0  0  0  0  0  3  0  0  0  0  0  0
  190.1450  177.2930  141.4790 C   0  0  0  0  0  3  0  0  0  0  0  0
  191.9240  176.0290  138.3510 C   0  0  0  0  0  0  0  0  0  0  0  0
  186.8210  177.5050  136.8330 C   0  0  1  0  0  3  0  0  0  0  0  0
  192.8220  174.5930  136.0840 C   0  0  0  0  0  0  0  0  0  0  0  0
  192.6720  177.2800  140.3480 C   0  0  0  0  0  3  0  0  0  0  0  0
  191.6030  176.7620  139.6040 C   0  0  0  0  0  0  0  0  0  0  0  0
  192.4730  177.7950  141.5910 N   0  0  0  0  0  0  0  0  0  0  0  0
  191.4530  176.3720  137.0480 C   0  0  0  0  0  0  0  0  0  0  0  0
  189.6430  177.9830  137.6940 C   0  0  2  0  0  3  0  0  0  0  0  0
  191.2440  177.8080  142.1680 C   0  0  0  0  0  0  0  0  0  0  0  0
  190.5410  177.4010  136.7640 O   0  0  0  0  0  0  0  0  0  0  0  0
  187.5950  176.3890  137.5400 C   0  0  0  0  0  2  0  0  0  0  0  0
  188.7670  176.9240  138.3050 C   0  0  0  0  0  0  0  0  0  0  0  0
  189.1060  176.3630  139.4630 C   0  0  0  0  0  3  0  0  0  0  0  0
  182.4220  174.8750  137.5800 N   0  0  0  0  0  2  0  0  0  0  0  0
  184.0100  178.6720  138.8780 O   0  0  0  0  0  0  0  0  0  0  0  0
  182.7850  176.2330  137.8630 C   0  0  0  0  0  0  0  0  0  0  0  0
  186.0140  178.2680  137.7770 N   0  0  0  0  0  2  0  0  0  0  0  0
  184.1580  176.6200  137.7530 N   0  0  0  0  0  2  0  0  0  0  0  0
  184.6920  177.8870  138.1620 C   0  0  0  0  0  0  0  0  0  0  0  0
  181.9010  177.0810  138.1650 O   0  0  0  0  0  0  0  0  0  0  0  0
  180.5030  174.4960  138.8400 O   0  0  0  0  0  1  0  0  0  0  0  0
  181.0530  174.3620  137.5640 C   0  0  0  0  0  0  0  0  0  0  0  0
  181.0460  172.8950  137.1770 C   0  0  0  0  0  1  0  0  0  0  0  0
  180.2020  175.1500  136.5810 C   0  0  0  0  0  1  0  0  0  0  0  0
  192.4940  172.7050  134.3500 C   0  0  0  0  0  1  0  0  0  0  0  0
  194.3780  174.1440  134.3460 O   0  0  0  0  0  0  0  0  0  0  0  0
  193.2910  173.8370  134.9050 C   0  0  0  0  0  0  0  0  0  0  0  0
  191.0830  178.3190  143.5570 C   0  0  0  0  0  2  0  0  0  0  0  0
  189.3060  178.0620  145.0890 C   0  0  0  0  0  3  0  0  0  0  0  0
  190.1030  177.5230  144.2450 N   0  0  0  0  0  0  0  0  0  0  0  0
  188.2850  177.2370  145.8080 C   0  0  0  0  0  2  0  0  0  0  0  0
  187.0780  178.0770  146.2100 C   0  0  0  0  0  2  0  0  0  0  0  0
  186.2820  178.4230  145.0400 N   0  0  0  0  0  2  0  0  0  0  0  0
  184.2510  178.7670  146.3620 O   0  0  0  0  0  1  0  0  0  0  0  0
  184.9100  178.8030  145.1380 C   0  0  0  0  0  0  0  0  0  0  0  0
  184.2890  179.1710  144.1060 O   0  0  0  0  0  0  0  0  0  0  0  0
  1  4  1  0  0  0  0
  2  7  1  0  0  0  0
  5  9  1  0  0  0  0
  5  3  1  0  0  0  0
  6 10  1  0  0  0  0
  6 14  2  0  0  0  0
  7 16  2  0  0  0  0
  8  4  2  0  0  0  0
  8 12  1  0  0  0  0
  9 18  1  0  0  0  0
  9 24  1  1  0  0  0
 10  1  2  0  0  0  0
 11 13  2  0  0  0  0
 12  2  2  0  0  0  0
 12 11  1  0  0  0  0
 13 16  1  0  0  0  0
 14  8  1  0  0  0  0
 15  3  1  6  0  0  0
 15 19  1  0  0  0  0
 16 35  1  0  0  0  0
 17 14  1  0  0  0  0
 17 15  1  0  0  0  0
 18 19  1  0  0  0  0
 19 20  2  0  0  0  0
 20  2  1  0  0  0  0
 21 23  1  0  0  0  0
 23 27  2  0  0  0  0
 24 26  1  0  0  0  0
 25 23  1  0  0  0  0
 25 26  1  0  0  0  0
 26 22  2  0  0  0  0
 29 21  1  0  0  0  0
 29 28  1  0  0  0  0
 30 29  1  0  0  0  0
 31 29  1  0  0  0  0
 32 34  1  0  0  0  0
 33 34  2  0  0  0  0
 34 10  1  0  0  0  0
 35 37  1  0  0  0  0
 36 38  1  0  0  0  0
 37 36  2  0  0  0  0
 38 39  1  0  0  0  0
 40 42  1  0  0  0  0
 40 39  1  0  0  0  0
 42 41  1  0  0  0  0
 43 42  2  0  0  0  0
M  END
>  <MODEL>
1

>  <REMARK>
 VINA RESULT:      -6.8      0.000      0.000
  Name = 
  8 active torsions:
  status: ('A' for Active; 'I' for Inactive)
    1  A    between atoms: N_1  and  C_13
    2  A    between atoms: N_5  and  C_31
    3  A    between atoms: C_6  and  C_29
    4  A    between atoms: C_6  and  C_31
    5  A    between atoms: C_17  and  N_23
    6  A    between atoms: C_18  and  C_35
    7  A    between atoms: C_33  and  C_40
    8  A    between atoms: C_40  and  N_43
                            x       y       z     vdW  Elec       q    Type
                         _______ _______ _______ _____ _____    ______ ____

>  <TORSDO>
F 8

$$$$
=
 OpenBabel10222421363D

 43 46  0  0  1  0  0  0  0  0999 V2000
  180.9800  182.9170  137.8370 C   0  0  0  0  0  3  0  0  0  0  0  0
  182.1890  178.9750  140.3180 C   0  0  0  0  0  0  0  0  0  0  0  0
  180.5770  176.3670  137.4540 C   0  0  0  0  0  2  0  0  0  0  0  0
  181.1640  182.0790  138.9350 C   0  0  0  0  0  3  0  0  0  0  0  0
  181.3590  176.0930  136.1680 C   0  0  0  0  0  2  0  0  0  0  0  0
  180.4560  181.0030  136.4750 C   0  0  0  0  0  3  0  0  0  0  0  0
  182.3900  178.4650  141.6040 C   0  0  0  0  0  3  0  0  0  0  0  0
  181.0130  180.6870  138.8260 C   0  0  0  0  0  0  0  0  0  0  0  0
  182.8640  176.0620  136.4390 C   0  0  1  0  0  3  0  0  0  0  0  0
  180.6230  182.3870  136.5980 C   0  0  0  0  0  0  0  0  0  0  0  0
  180.3540  180.2920  141.1770 C   0  0  0  0  0  3  0  0  0  0  0  0
  181.1550  179.9150  140.0890 C   0  0  0  0  0  0  0  0  0  0  0  0
  180.5590  179.7600  142.4120 N   0  0  0  0  0  0  0  0  0  0  0  0
  180.6520  180.1400  137.5590 C   0  0  0  0  0  0  0  0  0  0  0  0
  180.9770  177.7070  138.0700 C   0  0  2  0  0  3  0  0  0  0  0  0
  181.5530  178.8660  142.6470 C   0  0  0  0  0  0  0  0  0  0  0  0
  180.4640  178.7750  137.2920 O   0  0  0  0  0  0  0  0  0  0  0  0
  183.3460  177.3820  137.0490 C   0  0  0  0  0  2  0  0  0  0  0  0
  182.4730  177.8190  138.1860 C   0  0  0  0  0  0  0  0  0  0  0  0
  183.0180  178.4280  139.2350 C   0  0  0  0  0  3  0  0  0  0  0  0
  188.0230  175.5950  136.4210 N   0  0  0  0  0  2  0  0  0  0  0  0
  184.7270  173.3850  138.1160 O   0  0  0  0  0  0  0  0  0  0  0  0
  186.9820  174.6930  136.8190 C   0  0  0  0  0  0  0  0  0  0  0  0
  183.2020  174.9310  137.2950 N   0  0  0  0  0  2  0  0  0  0  0  0
  185.6430  175.1850  136.9250 N   0  0  0  0  0  2  0  0  0  0  0  0
  184.5360  174.4510  137.4670 C   0  0  0  0  0  0  0  0  0  0  0  0
  187.2380  173.4760  137.0330 O   0  0  0  0  0  0  0  0  0  0  0  0
  189.8280  174.3530  137.2030 O   0  0  0  0  0  1  0  0  0  0  0  0
  189.4150  175.2140  136.1840 C   0  0  0  0  0  0  0  0  0  0  0  0
  190.3050  176.4420  136.1870 C   0  0  0  0  0  1  0  0  0  0  0  0
  189.5480  174.4930  134.8520 C   0  0  0  0  0  1  0  0  0  0  0  0
  180.7260  184.7350  135.5260 C   0  0  0  0  0  1  0  0  0  0  0  0
  179.9980  182.8130  134.3460 O   0  0  0  0  0  0  0  0  0  0  0  0
  180.4250  183.2780  135.4370 C   0  0  0  0  0  0  0  0  0  0  0  0
  181.7850  178.3610  144.0270 C   0  0  0  0  0  2  0  0  0  0  0  0
  184.0190  178.4750  144.7790 C   0  0  0  0  0  3  0  0  0  0  0  0
  182.8960  179.0640  144.6100 N   0  0  0  0  0  0  0  0  0  0  0  0
  185.1770  179.2030  145.3860 C   0  0  0  0  0  2  0  0  0  0  0  0
  185.8890  178.3440  146.4250 C   0  0  0  0  0  2  0  0  0  0  0  0
  187.2150  177.9660  145.9560 N   0  0  0  0  0  2  0  0  0  0  0  0
  187.9270  177.2120  148.1730 O   0  0  0  0  0  1  0  0  0  0  0  0
  188.1870  177.3710  146.8150 C   0  0  0  0  0  0  0  0  0  0  0  0
  189.2890  176.9890  146.3420 O   0  0  0  0  0  0  0  0  0  0  0  0
  1  4  1  0  0  0  0
  2  7  1  0  0  0  0
  5  9  1  0  0  0  0
  5  3  1  0  0  0  0
  6 10  1  0  0  0  0
  6 14  2  0  0  0  0
  7 16  2  0  0  0  0
  8  4  2  0  0  0  0
  8 12  1  0  0  0  0
  9 18  1  0  0  0  0
  9 24  1  1  0  0  0
 10  1  2  0  0  0  0
 11 13  2  0  0  0  0
 12  2  2  0  0  0  0
 12 11  1  0  0  0  0
 13 16  1  0  0  0  0
 14  8  1  0  0  0  0
 15  3  1  6  0  0  0
 15 19  1  0  0  0  0
 16 35  1  0  0  0  0
 17 14  1  0  0  0  0
 17 15  1  0  0  0  0
 18 19  1  0  0  0  0
 19 20  2  0  0  0  0
 20  2  1  0  0  0  0
 21 23  1  0  0  0  0
 23 25  1  0  0  0  0
 23 27  2  0  0  0  0
 24 26  1  0  0  0  0
 25 26  1  0  0  0  0
 26 22  2  0  0  0  0
 29 30  1  0  0  0  0
 29 21  1  0  0  0  0
 29 28  1  0  0  0  0
 31 29  1  0  0  0  0
 33 34  2  0  0  0  0
 34 32  1  0  0  0  0
 34 10  1  0  0  0  0
 35 37  1  0  0  0  0
 36 38  1  0  0  0  0
 37 36  2  0  0  0  0
 38 39  1  0  0  0  0
 40 39  1  0  0  0  0
 40 42  1  0  0  0  0
 42 41  1  0  0  0  0
 43 42  2  0  0  0  0
M  END
>  <MODEL>
2

>  <REMARK>
 VINA RESULT:      -6.8      4.046      9.305
  Name = 
  8 active torsions:
  status: ('A' for Active; 'I' for Inactive)
    1  A    between atoms: N_1  and  C_13
    2  A    between atoms: N_5  and  C_31
    3  A    between atoms: C_6  and  C_29
    4  A    between atoms: C_6  and  C_31
    5  A    between atoms: C_17  and  N_23
    6  A    between atoms: C_18  and  C_35
    7  A    between atoms: C_33  and  C_40
    8  A    between atoms: C_40  and  N_43
                            x       y       z     vdW  Elec       q    Type
                         _______ _______ _______ _____ _____    ______ ____

>  <TORSDO>
F 8

$$$$
=
 OpenBabel10222421363D

 43 46  0  0  1  0  0  0  0  0999 V2000
  187.5700  178.1250  137.2310 C   0  0  0  0  0  3  0  0  0  0  0  0
  191.4680  177.2560  139.9170 C   0  0  0  0  0  0  0  0  0  0  0  0
  192.5930  173.9060  137.6550 C   0  0  0  0  0  2  0  0  0  0  0  0
  188.3580  177.9940  138.3730 C   0  0  0  0  0  3  0  0  0  0  0  0
  193.2740  174.1130  136.3010 C   0  0  0  0  0  2  0  0  0  0  0  0
  188.7920  176.3300  136.1930 C   0  0  0  0  0  3  0  0  0  0  0  0
  192.0020  177.3650  141.2040 C   0  0  0  0  0  3  0  0  0  0  0  0
  189.3860  177.0400  138.4470 C   0  0  0  0  0  0  0  0  0  0  0  0
  194.1960  175.3340  136.3320 C   0  0  1  0  0  3  0  0  0  0  0  0
  187.7800  177.2930  136.1310 C   0  0  0  0  0  0  0  0  0  0  0  0
  189.3200  176.7460  140.9010 C   0  0  0  0  0  3  0  0  0  0  0  0
  190.0960  176.9460  139.7500 C   0  0  0  0  0  0  0  0  0  0  0  0
  189.8740  176.8360  142.1400 N   0  0  0  0  0  0  0  0  0  0  0  0
  189.6060  176.1900  137.3220 C   0  0  0  0  0  0  0  0  0  0  0  0
  191.7580  175.1240  138.0460 C   0  0  2  0  0  3  0  0  0  0  0  0
  191.1850  177.1430  142.3140 C   0  0  0  0  0  0  0  0  0  0  0  0
  190.5900  175.1930  137.2440 O   0  0  0  0  0  0  0  0  0  0  0  0
  193.4240  176.6030  136.7060 C   0  0  0  0  0  2  0  0  0  0  0  0
  192.5580  176.3910  137.9100 C   0  0  0  0  0  0  0  0  0  0  0  0
  192.3960  177.3800  138.7850 C   0  0  0  0  0  3  0  0  0  0  0  0
  195.8480  170.4830  135.5740 N   0  0  0  0  0  2  0  0  0  0  0  0
  196.8310  173.6930  138.2850 O   0  0  0  0  0  0  0  0  0  0  0  0
  196.0680  171.4130  136.6430 C   0  0  0  0  0  0  0  0  0  0  0  0
  195.3090  175.1050  137.2460 N   0  0  0  0  0  2  0  0  0  0  0  0
  195.6650  172.7740  136.4700 N   0  0  0  0  0  2  0  0  0  0  0  0
  195.9690  173.8450  137.3760 C   0  0  0  0  0  0  0  0  0  0  0  0
  196.5730  171.0260  137.7330 O   0  0  0  0  0  0  0  0  0  0  0  0
  197.4930  168.8600  135.8430 O   0  0  0  0  0  1  0  0  0  0  0  0
  196.1240  169.0490  135.6430 C   0  0  0  0  0  0  0  0  0  0  0  0
  195.7190  168.3720  134.3470 C   0  0  0  0  0  1  0  0  0  0  0  0
  195.3700  168.4180  136.8020 C   0  0  0  0  0  1  0  0  0  0  0  0
  186.2010  176.2670  134.3620 C   0  0  0  0  0  1  0  0  0  0  0  0
  186.8390  178.5500  134.3480 O   0  0  0  0  0  0  0  0  0  0  0  0
  186.9410  177.4330  134.9230 C   0  0  0  0  0  0  0  0  0  0  0  0
  191.7340  177.2980  143.6890 C   0  0  0  0  0  2  0  0  0  0  0  0
  190.2270  177.1490  145.4980 C   0  0  0  0  0  3  0  0  0  0  0  0
  190.7200  177.8480  144.5460 N   0  0  0  0  0  0  0  0  0  0  0  0
  189.1700  177.7170  146.3920 C   0  0  0  0  0  2  0  0  0  0  0  0
  187.8370  177.8450  145.6630 C   0  0  0  0  0  2  0  0  0  0  0  0
  186.7410  177.9550  146.6170 N   0  0  0  0  0  2  0  0  0  0  0  0
  185.2190  178.9110  144.9550 O   0  0  0  0  0  0  0  0  0  0  0  0
  185.4510  178.4370  146.2420 C   0  0  0  0  0  0  0  0  0  0  0  0
  184.5140  178.4370  147.0850 O   0  0  0  0  0  1  0  0  0  0  0  0
  1  4  1  0  0  0  0
  2  7  1  0  0  0  0
  4  8  2  0  0  0  0
  5  9  1  0  0  0  0
  5  3  1  0  0  0  0
  6 14  2  0  0  0  0
  7 16  2  0  0  0  0
  8 12  1  0  0  0  0
  9 18  1  0  0  0  0
  9 24  1  1  0  0  0
 10  6  1  0  0  0  0
 10  1  2  0  0  0  0
 11 13  2  0  0  0  0
 12  2  2  0  0  0  0
 12 11  1  0  0  0  0
 13 16  1  0  0  0  0
 14  8  1  0  0  0  0
 15  3  1  6  0  0  0
 16 35  1  0  0  0  0
 17 14  1  0  0  0  0
 17 15  1  0  0  0  0
 18 19  1  0  0  0  0
 19 15  1  0  0  0  0
 19 20  2  0  0  0  0
 20  2  1  0  0  0  0
 21 29  1  0  0  0  0
 21 23  1  0  0  0  0
 23 27  2  0  0  0  0
 24 26  1  0  0  0  0
 25 23  1  0  0  0  0
 25 26  1  0  0  0  0
 26 22  2  0  0  0  0
 29 28  1  0  0  0  0
 29 31  1  0  0  0  0
 30 29  1  0  0  0  0
 32 34  1  0  0  0  0
 33 34  2  0  0  0  0
 34 10  1  0  0  0  0
 35 37  1  0  0  0  0
 36 38  1  0  0  0  0
 37 36  2  0  0  0  0
 39 38  1  0  0  0  0
 39 40  1  0  0  0  0
 41 42  2  0  0  0  0
 42 40  1  0  0  0  0
 42 43  1  0  0  0  0
M  END
>  <MODEL>
3

>  <REMARK>
 VINA RESULT:      -6.7      3.593      8.264
  Name = 
  8 active torsions:
  status: ('A' for Active; 'I' for Inactive)
    1  A    between atoms: N_1  and  C_13
    2  A    between atoms: N_5  and  C_31
    3  A    between atoms: C_6  and  C_29
    4  A    between atoms: C_6  and  C_31
    5  A    between atoms: C_17  and  N_23
    6  A    between atoms: C_18  and  C_35
    7  A    between atoms: C_33  and  C_40
    8  A    between atoms: C_40  and  N_43
                            x       y       z     vdW  Elec       q    Type
                         _______ _______ _______ _____ _____    ______ ____

>  <TORSDO>
F 8

$$$$
=
 OpenBabel10222421363D

 43 46  0  0  1  0  0  0  0  0999 V2000
  181.3140  181.9140  137.6640 C   0  0  0  0  0  3  0  0  0  0  0  0
  183.5070  178.4380  140.1680 C   0  0  0  0  0  0  0  0  0  0  0  0
  181.6990  175.3580  137.9660 C   0  0  0  0  0  2  0  0  0  0  0  0
  181.8250  181.2320  138.7660 C   0  0  0  0  0  3  0  0  0  0  0  0
  182.2310  175.0240  136.5710 C   0  0  0  0  0  2  0  0  0  0  0  0
  180.7770  179.8090  136.6240 C   0  0  0  0  0  3  0  0  0  0  0  0
  184.0300  178.1050  141.4200 C   0  0  0  0  0  3  0  0  0  0  0  0
  181.8380  179.8290  138.8180 C   0  0  0  0  0  0  0  0  0  0  0  0
  183.7510  175.1880  136.5120 C   0  0  1  0  0  3  0  0  0  0  0  0
  180.7840  181.2080  136.5830 C   0  0  0  0  0  0  0  0  0  0  0  0
  181.7300  179.6390  141.2810 C   0  0  0  0  0  3  0  0  0  0  0  0
  182.3340  179.2280  140.0850 C   0  0  0  0  0  0  0  0  0  0  0  0
  182.2490  179.2780  142.4850 N   0  0  0  0  0  0  0  0  0  0  0  0
  181.3010  179.1040  137.7130 C   0  0  0  0  0  0  0  0  0  0  0  0
  182.0380  176.7950  138.3590 C   0  0  2  0  0  3  0  0  0  0  0  0
  183.3790  178.5300  142.5790 C   0  0  0  0  0  0  0  0  0  0  0  0
  181.2420  177.7050  137.6170 O   0  0  0  0  0  0  0  0  0  0  0  0
  184.1710  176.6130  136.8820 C   0  0  0  0  0  2  0  0  0  0  0  0
  183.4980  177.0820  138.1370 C   0  0  0  0  0  0  0  0  0  0  0  0
  184.1620  177.8640  138.9840 C   0  0  0  0  0  3  0  0  0  0  0  0
  188.8520  175.5390  135.6820 N   0  0  0  0  0  2  0  0  0  0  0  0
  186.2720  173.0010  138.0320 O   0  0  0  0  0  0  0  0  0  0  0  0
  188.0510  174.5240  136.3030 C   0  0  0  0  0  0  0  0  0  0  0  0
  184.4010  174.2060  137.3730 N   0  0  0  0  0  2  0  0  0  0  0  0
  186.6800  174.8070  136.5930 N   0  0  0  0  0  2  0  0  0  0  0  0
  185.8080  173.9600  137.3560 C   0  0  0  0  0  0  0  0  0  0  0  0
  188.5390  173.3870  136.5500 O   0  0  0  0  0  0  0  0  0  0  0  0
  190.6310  176.4860  134.5190 O   0  0  0  0  0  1  0  0  0  0  0  0
  190.2370  175.3610  135.2470 C   0  0  0  0  0  0  0  0  0  0  0  0
  190.3560  174.1350  134.3610 C   0  0  0  0  0  1  0  0  0  0  0  0
  191.1560  175.2120  136.4480 C   0  0  0  0  0  1  0  0  0  0  0  0
  179.9830  183.4000  135.4750 C   0  0  0  0  0  1  0  0  0  0  0  0
  179.9840  181.3140  134.3490 O   0  0  0  0  0  0  0  0  0  0  0  0
  180.2390  181.9320  135.4180 C   0  0  0  0  0  0  0  0  0  0  0  0
  183.9510  178.2160  143.9160 C   0  0  0  0  0  2  0  0  0  0  0  0
  186.1410  178.1650  144.7940 C   0  0  0  0  0  3  0  0  0  0  0  0
  185.3670  178.0010  143.7890 N   0  0  0  0  0  0  0  0  0  0  0  0
  187.6150  177.9440  144.6650 C   0  0  0  0  0  2  0  0  0  0  0  0
  187.9230  176.5390  144.1600 C   0  0  0  0  0  2  0  0  0  0  0  0
  188.5020  176.5910  142.8230 N   0  0  0  0  0  2  0  0  0  0  0  0
  190.7180  175.9200  143.6170 O   0  0  0  0  0  1  0  0  0  0  0  0
  189.8620  176.2410  142.5690 C   0  0  0  0  0  0  0  0  0  0  0  0
  190.2920  176.2250  141.3850 O   0  0  0  0  0  0  0  0  0  0  0  0
  1  4  1  0  0  0  0
  2  7  1  0  0  0  0
  4  8  2  0  0  0  0
  5  3  1  0  0  0  0
  6 14  2  0  0  0  0
  7 16  2  0  0  0  0
  8 12  1  0  0  0  0
  9  5  1  0  0  0  0
  9 18  1  0  0  0  0
  9 24  1  1  0  0  0
 10  6  1  0  0  0  0
 10  1  2  0  0  0  0
 11 13  2  0  0  0  0
 12  2  2  0  0  0  0
 12 11  1  0  0  0  0
 13 16  1  0  0  0  0
 14  8  1  0  0  0  0
 15  3  1  6  0  0  0
 16 35  1  0  0  0  0
 17 14  1  0  0  0  0
 17 15  1  0  0  0  0
 18 19  1  0  0  0  0
 19 15  1  0  0  0  0
 19 20  2  0  0  0  0
 20  2  1  0  0  0  0
 21 23  1  0  0  0  0
 23 27  2  0  0  0  0
 23 25  1  0  0  0  0
 25 26  1  0  0  0  0
 26 24  1  0  0  0  0
 26 22  2  0  0  0  0
 28 29  1  0  0  0  0
 29 21  1  0  0  0  0
 29 31  1  0  0  0  0
 30 29  1  0  0  0  0
 33 34  2  0  0  0  0
 34 32  1  0  0  0  0
 34 10  1  0  0  0  0
 37 35  1  0  0  0  0
 37 36  2  0  0  0  0
 38 36  1  0  0  0  0
 39 38  1  0  0  0  0
 40 39  1  0  0  0  0
 42 40  1  0  0  0  0
 42 41  1  0  0  0  0
 43 42  2  0  0  0  0
M  END
>  <MODEL>
4

>  <REMARK>
 VINA RESULT:      -6.3      3.642      8.905
  Name = 
  8 active torsions:
  status: ('A' for Active; 'I' for Inactive)
    1  A    between atoms: N_1  and  C_13
    2  A    between atoms: N_5  and  C_31
    3  A    between atoms: C_6  and  C_29
    4  A    between atoms: C_6  and  C_31
    5  A    between atoms: C_17  and  N_23
    6  A    between atoms: C_18  and  C_35
    7  A    between atoms: C_33  and  C_40
    8  A    between atoms: C_40  and  N_43
                            x       y       z     vdW  Elec       q    Type
                         _______ _______ _______ _____ _____    ______ ____

>  <TORSDO>
F 8

$$$$
=
 OpenBabel10222421363D

 43 46  0  0  1  0  0  0  0  0999 V2000
  192.3930  175.7400  135.0230 C   0  0  0  0  0  3  0  0  0  0  0  0
  188.0450  175.8140  137.0850 C   0  0  0  0  0  0  0  0  0  0  0  0
  189.6050  176.2860  140.9510 C   0  0  0  0  0  2  0  0  0  0  0  0
  191.0690  175.3860  135.2750 C   0  0  0  0  0  3  0  0  0  0  0  0
  190.1050  177.6620  141.3920 C   0  0  0  0  0  2  0  0  0  0  0  0
  192.6960  176.2370  137.3590 C   0  0  0  0  0  3  0  0  0  0  0  0
  186.7350  175.3390  136.9790 C   0  0  0  0  0  3  0  0  0  0  0  0
  190.5250  175.4620  136.5680 C   0  0  0  0  0  0  0  0  0  0  0  0
  189.2400  178.7760  140.7980 C   0  0  1  0  0  3  0  0  0  0  0  0
  193.2190  176.1670  136.0630 C   0  0  0  0  0  0  0  0  0  0  0  0
  188.8360  173.6820  136.2670 C   0  0  0  0  0  3  0  0  0  0  0  0
  189.1280  174.9770  136.7170 C   0  0  0  0  0  0  0  0  0  0  0  0
  187.5520  173.2390  136.1980 N   0  0  0  0  0  0  0  0  0  0  0  0
  191.3660  175.9030  137.6340 C   0  0  0  0  0  0  0  0  0  0  0  0
  189.6320  176.1490  139.4290 C   0  0  2  0  0  3  0  0  0  0  0  0
  186.5040  174.0350  136.5360 C   0  0  0  0  0  0  0  0  0  0  0  0
  190.9700  176.0310  138.9740 O   0  0  0  0  0  0  0  0  0  0  0  0
  189.2290  178.7120  139.2670 C   0  0  0  0  0  2  0  0  0  0  0  0
  188.9610  177.3230  138.7720 C   0  0  0  0  0  0  0  0  0  0  0  0
  188.2370  177.1480  137.6690 C   0  0  0  0  0  3  0  0  0  0  0  0
  189.6520  177.9430  145.8930 N   0  0  0  0  0  2  0  0  0  0  0  0
  186.4080  178.2420  143.0640 O   0  0  0  0  0  0  0  0  0  0  0  0
  188.5500  177.8040  144.9870 C   0  0  0  0  0  0  0  0  0  0  0  0
  187.8880  178.7120  141.3390 N   0  0  0  0  0  2  0  0  0  0  0  0
  188.6740  178.3280  143.6620 N   0  0  0  0  0  2  0  0  0  0  0  0
  187.6060  178.4130  142.7060 C   0  0  0  0  0  0  0  0  0  0  0  0
  187.5040  177.1940  145.3410 O   0  0  0  0  0  0  0  0  0  0  0  0
  189.0170  176.1630  147.2500 O   0  0  0  0  0  1  0  0  0  0  0  0
  189.7020  177.3790  147.2420 C   0  0  0  0  0  0  0  0  0  0  0  0
  189.0430  178.3220  148.2310 C   0  0  0  0  0  1  0  0  0  0  0  0
  191.1430  177.1300  147.6600 C   0  0  0  0  0  1  0  0  0  0  0  0
  195.6400  175.5020  135.4510 C   0  0  0  0  0  1  0  0  0  0  0  0
  194.9810  177.7450  135.8460 O   0  0  0  0  0  0  0  0  0  0  0  0
  194.6230  176.5370  135.7930 C   0  0  0  0  0  0  0  0  0  0  0  0
  185.1120  173.5340  136.3810 C   0  0  0  0  0  2  0  0  0  0  0  0
  183.3130  174.8470  137.1620 C   0  0  0  0  0  3  0  0  0  0  0  0
  184.2940  174.0700  137.4340 N   0  0  0  0  0  0  0  0  0  0  0  0
  182.4600  175.4080  138.2560 C   0  0  0  0  0  2  0  0  0  0  0  0
  182.5570  176.9280  138.3090 C   0  0  0  0  0  2  0  0  0  0  0  0
  183.9500  177.3500  138.3740 N   0  0  0  0  0  2  0  0  0  0  0  0
  183.3690  179.5930  139.1640 O   0  0  0  0  0  1  0  0  0  0  0  0
  184.3320  178.6450  138.8380 C   0  0  0  0  0  0  0  0  0  0  0  0
  185.5530  178.9320  138.9510 O   0  0  0  0  0  0  0  0  0  0  0  0
  1  4  2  0  0  0  0
  1 10  1  0  0  0  0
  2 20  1  0  0  0  0
  3  5  1  0  0  0  0
  4  8  1  0  0  0  0
  6 14  1  0  0  0  0
  7  2  1  0  0  0  0
  8 12  1  0  0  0  0
  8 14  2  0  0  0  0
  9 24  1  1  0  0  0
  9  5  1  0  0  0  0
 10  6  2  0  0  0  0
 11 12  1  0  0  0  0
 12  2  2  0  0  0  0
 13 11  2  0  0  0  0
 13 16  1  0  0  0  0
 14 17  1  0  0  0  0
 15  3  1  1  0  0  0
 16  7  2  0  0  0  0
 17 15  1  0  0  0  0
 18  9  1  0  0  0  0
 19 18  1  0  0  0  0
 19 15  1  0  0  0  0
 20 19  2  0  0  0  0
 21 29  1  0  0  0  0
 23 27  2  0  0  0  0
 23 21  1  0  0  0  0
 24 26  1  0  0  0  0
 25 23  1  0  0  0  0
 26 22  2  0  0  0  0
 26 25  1  0  0  0  0
 29 28  1  0  0  0  0
 29 31  1  0  0  0  0
 29 30  1  0  0  0  0
 32 34  1  0  0  0  0
 34 33  2  0  0  0  0
 34 10  1  0  0  0  0
 35 16  1  0  0  0  0
 35 37  1  0  0  0  0
 36 37  2  0  0  0  0
 36 38  1  0  0  0  0
 38 39  1  0  0  0  0
 39 40  1  0  0  0  0
 40 42  1  0  0  0  0
 42 43  2  0  0  0  0
 42 41  1  0  0  0  0
M  END
>  <MODEL>
5

>  <REMARK>
 VINA RESULT:      -6.2      2.366      7.345
  Name = 
  8 active torsions:
  status: ('A' for Active; 'I' for Inactive)
    1  A    between atoms: N_1  and  C_13
    2  A    between atoms: N_5  and  C_31
    3  A    between atoms: C_6  and  C_29
    4  A    between atoms: C_6  and  C_31
    5  A    between atoms: C_17  and  N_23
    6  A    between atoms: C_18  and  C_35
    7  A    between atoms: C_33  and  C_40
    8  A    between atoms: C_40  and  N_43
                            x       y       z     vdW  Elec       q    Type
                         _______ _______ _______ _____ _____    ______ ____

>  <TORSDO>
F 8

$$$$
=
 OpenBabel10222421363D

 43 46  0  0  1  0  0  0  0  0999 V2000
  185.8300  178.1040  137.9400 C   0  0  0  0  0  3  0  0  0  0  0  0
  190.3870  177.3990  139.3150 C   0  0  0  0  0  0  0  0  0  0  0  0
  190.7580  173.8260  137.1480 C   0  0  0  0  0  2  0  0  0  0  0  0
  186.9410  178.0610  138.7790 C   0  0  0  0  0  3  0  0  0  0  0  0
  190.9690  173.8880  135.6340 C   0  0  0  0  0  2  0  0  0  0  0  0
  186.6700  176.1900  136.7450 C   0  0  0  0  0  3  0  0  0  0  0  0
  191.3030  177.6160  140.3490 C   0  0  0  0  0  3  0  0  0  0  0  0
  187.9470  177.0950  138.6130 C   0  0  0  0  0  0  0  0  0  0  0  0
  191.8440  175.0850  135.2520 C   0  0  1  0  0  3  0  0  0  0  0  0
  185.6830  177.1670  136.9160 C   0  0  0  0  0  0  0  0  0  0  0  0
  188.6710  177.0340  140.9770 C   0  0  0  0  0  3  0  0  0  0  0  0
  189.0360  177.1070  139.6250 C   0  0  0  0  0  0  0  0  0  0  0  0
  189.5900  177.2270  141.9600 N   0  0  0  0  0  0  0  0  0  0  0  0
  187.8030  176.1380  137.5640 C   0  0  0  0  0  0  0  0  0  0  0  0
  190.0810  175.0950  137.6650 C   0  0  2  0  0  3  0  0  0  0  0  0
  190.8860  177.5180  141.6770 C   0  0  0  0  0  0  0  0  0  0  0  0
  188.7180  175.1150  137.2730 O   0  0  0  0  0  0  0  0  0  0  0  0
  191.2210  176.4010  135.7280 C   0  0  0  0  0  2  0  0  0  0  0  0
  190.7860  176.3240  137.1600 C   0  0  0  0  0  0  0  0  0  0  0  0
  190.9050  177.3940  137.9400 C   0  0  0  0  0  3  0  0  0  0  0  0
  193.0800  170.0780  134.7720 N   0  0  0  0  0  2  0  0  0  0  0  0
  194.9490  173.5710  136.4810 O   0  0  0  0  0  0  0  0  0  0  0  0
  193.6540  171.1350  135.5530 C   0  0  0  0  0  0  0  0  0  0  0  0
  193.1910  174.9170  135.7810 N   0  0  0  0  0  2  0  0  0  0  0  0
  193.2370  172.4810  135.3080 N   0  0  0  0  0  2  0  0  0  0  0  0
  193.8380  173.6480  135.8870 C   0  0  0  0  0  0  0  0  0  0  0  0
  194.4830  170.8760  136.4680 O   0  0  0  0  0  0  0  0  0  0  0  0
  192.3350  167.9150  134.3470 O   0  0  0  0  0  1  0  0  0  0  0  0
  193.3420  168.6530  134.9720 C   0  0  0  0  0  0  0  0  0  0  0  0
  193.3480  168.3220  136.4530 C   0  0  0  0  0  1  0  0  0  0  0  0
  194.6800  168.2680  134.3610 C   0  0  0  0  0  1  0  0  0  0  0  0
  183.1520  176.8250  136.5290 C   0  0  0  0  0  1  0  0  0  0  0  0
  184.6220  177.5850  134.8330 O   0  0  0  0  0  0  0  0  0  0  0  0
  184.5020  177.2130  136.0310 C   0  0  0  0  0  0  0  0  0  0  0  0
  191.8440  177.7890  142.7830 C   0  0  0  0  0  2  0  0  0  0  0  0
  191.4990  177.6350  145.1130 C   0  0  0  0  0  3  0  0  0  0  0  0
  191.4210  177.0820  143.9610 N   0  0  0  0  0  0  0  0  0  0  0  0
  191.0610  176.9020  146.3420 C   0  0  0  0  0  2  0  0  0  0  0  0
  189.6690  177.3400  146.7820 C   0  0  0  0  0  2  0  0  0  0  0  0
  188.6720  176.9500  145.7930 N   0  0  0  0  0  2  0  0  0  0  0  0
  186.9420  178.3670  146.7870 O   0  0  0  0  0  1  0  0  0  0  0  0
  187.3540  177.4970  145.7830 C   0  0  0  0  0  0  0  0  0  0  0  0
  186.5560  177.1880  144.8590 O   0  0  0  0  0  0  0  0  0  0  0  0
  1  4  1  0  0  0  0
  2 12  2  0  0  0  0
  2  7  1  0  0  0  0
  5  3  1  0  0  0  0
  6 10  1  0  0  0  0
  6 14  2  0  0  0  0
  7 16  2  0  0  0  0
  8  4  2  0  0  0  0
  8 12  1  0  0  0  0
  9  5  1  0  0  0  0
  9 18  1  0  0  0  0
  9 24  1  1  0  0  0
 10  1  2  0  0  0  0
 11 13  2  0  0  0  0
 12 11  1  0  0  0  0
 14  8  1  0  0  0  0
 15  3  1  6  0  0  0
 16 13  1  0  0  0  0
 16 35  1  0  0  0  0
 17 14  1  0  0  0  0
 17 15  1  0  0  0  0
 18 19  1  0  0  0  0
 19 15  1  0  0  0  0
 19 20  2  0  0  0  0
 20  2  1  0  0  0  0
 21 29  1  0  0  0  0
 21 23  1  0  0  0  0
 23 27  2  0  0  0  0
 24 26  1  0  0  0  0
 25 23  1  0  0  0  0
 25 26  1  0  0  0  0
 26 22  2  0  0  0  0
 28 29  1  0  0  0  0
 29 30  1  0  0  0  0
 31 29  1  0  0  0  0
 33 34  2  0  0  0  0
 34 32  1  0  0  0  0
 34 10  1  0  0  0  0
 35 37  1  0  0  0  0
 36 38  1  0  0  0  0
 37 36  2  0  0  0  0
 38 39  1  0  0  0  0
 40 39  1  0  0  0  0
 42 40  1  0  0  0  0
 42 41  1  0  0  0  0
 43 42  2  0  0  0  0
M  END
>  <MODEL>
6

>  <REMARK>
 VINA RESULT:      -5.7      3.286      7.667
  Name = 
  8 active torsions:
  status: ('A' for Active; 'I' for Inactive)
    1  A    between atoms: N_1  and  C_13
    2  A    between atoms: N_5  and  C_31
    3  A    between atoms: C_6  and  C_29
    4  A    between atoms: C_6  and  C_31
    5  A    between atoms: C_17  and  N_23
    6  A    between atoms: C_18  and  C_35
    7  A    between atoms: C_33  and  C_40
    8  A    between atoms: C_40  and  N_43
                            x       y       z     vdW  Elec       q    Type
                         _______ _______ _______ _____ _____    ______ ____

>  <TORSDO>
F 8

$$$$
=
 OpenBabel10222421363D

 43 46  0  0  1  0  0  0  0  0999 V2000
  182.2400  175.5740  135.9480 C   0  0  0  0  0  3  0  0  0  0  0  0
  186.6880  173.7780  136.3370 C   0  0  0  0  0  0  0  0  0  0  0  0
  188.5170  177.3750  135.1900 C   0  0  0  0  0  2  0  0  0  0  0  0
  183.2850  174.6590  135.8390 C   0  0  0  0  0  3  0  0  0  0  0  0
  188.6270  178.5150  136.2050 C   0  0  0  0  0  2  0  0  0  0  0  0
  183.7940  177.3780  135.5940 C   0  0  0  0  0  3  0  0  0  0  0  0
  187.4500  172.6110  136.2270 C   0  0  0  0  0  3  0  0  0  0  0  0
  184.6070  175.0810  135.6200 C   0  0  0  0  0  0  0  0  0  0  0  0
  188.8720  177.9710  137.6140 C   0  0  1  0  0  3  0  0  0  0  0  0
  182.4850  176.9420  135.8250 C   0  0  0  0  0  0  0  0  0  0  0  0
  185.3640  173.0350  134.4560 C   0  0  0  0  0  3  0  0  0  0  0  0
  185.6140  174.0020  135.4400 C   0  0  0  0  0  0  0  0  0  0  0  0
  186.1390  171.9210  134.3590 N   0  0  0  0  0  0  0  0  0  0  0  0
  184.8620  176.4790  135.4980 C   0  0  0  0  0  0  0  0  0  0  0  0
  187.3690  176.4290  135.5420 C   0  0  2  0  0  3  0  0  0  0  0  0
  187.1640  171.6890  135.2190 C   0  0  0  0  0  0  0  0  0  0  0  0
  186.1240  177.0540  135.2780 O   0  0  0  0  0  0  0  0  0  0  0  0
  187.7520  177.0200  138.0450 C   0  0  0  0  0  2  0  0  0  0  0  0
  187.4440  176.0070  136.9840 C   0  0  0  0  0  0  0  0  0  0  0  0
  187.1070  174.7700  137.3370 C   0  0  0  0  0  3  0  0  0  0  0  0
  190.1390  177.5960  142.6230 N   0  0  0  0  0  2  0  0  0  0  0  0
  192.0610  176.6690  138.8730 O   0  0  0  0  0  0  0  0  0  0  0  0
  190.9200  177.4760  141.4270 C   0  0  0  0  0  0  0  0  0  0  0  0
  190.1740  177.3190  137.6870 N   0  0  0  0  0  2  0  0  0  0  0  0
  190.2480  177.4040  140.1660 N   0  0  0  0  0  2  0  0  0  0  0  0
  190.8820  177.1170  138.9110 C   0  0  0  0  0  0  0  0  0  0  0  0
  192.1800  177.4760  141.4840 O   0  0  0  0  0  0  0  0  0  0  0  0
  191.4480  176.6460  144.2960 O   0  0  0  0  0  1  0  0  0  0  0  0
  190.6880  177.7700  143.9670 C   0  0  0  0  0  0  0  0  0  0  0  0
  189.5670  177.9190  144.9790 C   0  0  0  0  0  1  0  0  0  0  0  0
  191.5850  178.9970  144.0180 C   0  0  0  0  0  1  0  0  0  0  0  0
  180.4790  178.1900  134.7790 C   0  0  0  0  0  1  0  0  0  0  0  0
  181.1670  178.5130  137.0230 O   0  0  0  0  0  0  0  0  0  0  0  0
  181.3750  177.9090  135.9370 C   0  0  0  0  0  0  0  0  0  0  0  0
  187.9430  170.4250  135.1200 C   0  0  0  0  0  2  0  0  0  0  0  0
  190.2960  170.2970  135.0100 C   0  0  0  0  0  3  0  0  0  0  0  0
  189.2010  170.6910  134.4780 N   0  0  0  0  0  0  0  0  0  0  0  0
  191.6090  170.5730  134.3460 C   0  0  0  0  0  2  0  0  0  0  0  0
  192.5100  171.4250  135.2320 C   0  0  0  0  0  2  0  0  0  0  0  0
  192.4710  172.8200  134.8120 N   0  0  0  0  0  2  0  0  0  0  0  0
  192.2630  173.6410  137.1090 O   0  0  0  0  0  1  0  0  0  0  0  0
  192.3950  173.8950  135.7480 C   0  0  0  0  0  0  0  0  0  0  0  0
  192.4450  175.0850  135.3380 O   0  0  0  0  0  0  0  0  0  0  0  0
  2 20  1  0  0  0  0
  3  5  1  0  0  0  0
  4  1  1  0  0  0  0
  5  9  1  0  0  0  0
  6 10  1  0  0  0  0
  7  2  1  0  0  0  0
  8  4  2  0  0  0  0
  9 24  1  6  0  0  0
  9 18  1  0  0  0  0
 10 34  1  0  0  0  0
 10  1  2  0  0  0  0
 11 12  1  0  0  0  0
 12  8  1  0  0  0  0
 12  2  2  0  0  0  0
 13 11  2  0  0  0  0
 13 16  1  0  0  0  0
 14  6  2  0  0  0  0
 14  8  1  0  0  0  0
 15  3  1  1  0  0  0
 15 19  1  0  0  0  0
 16  7  2  0  0  0  0
 17 14  1  0  0  0  0
 17 15  1  0  0  0  0
 19 20  2  0  0  0  0
 19 18  1  0  0  0  0
 21 29  1  0  0  0  0
 22 26  2  0  0  0  0
 23 27  2  0  0  0  0
 23 21  1  0  0  0  0
 24 26  1  0  0  0  0
 25 23  1  0  0  0  0
 26 25  1  0  0  0  0
 29 31  1  0  0  0  0
 29 28  1  0  0  0  0
 29 30  1  0  0  0  0
 32 34  1  0  0  0  0
 34 33  2  0  0  0  0
 35 16  1  0  0  0  0
 37 36  2  0  0  0  0
 37 35  1  0  0  0  0
 38 36  1  0  0  0  0
 38 39  1  0  0  0  0
 40 39  1  0  0  0  0
 40 42  1  0  0  0  0
 42 41  1  0  0  0  0
 43 42  2  0  0  0  0
M  END
>  <MODEL>
7

>  <REMARK>
 VINA RESULT:      -5.7      3.572      9.915
  Name = 
  8 active torsions:
  status: ('A' for Active; 'I' for Inactive)
    1  A    between atoms: N_1  and  C_13
    2  A    between atoms: N_5  and  C_31
    3  A    between atoms: C_6  and  C_29
    4  A    between atoms: C_6  and  C_31
    5  A    between atoms: C_17  and  N_23
    6  A    between atoms: C_18  and  C_35
    7  A    between atoms: C_33  and  C_40
    8  A    between atoms: C_40  and  N_43
                            x       y       z     vdW  Elec       q    Type
                         _______ _______ _______ _____ _____    ______ ____

>  <TORSDO>
F 8

$$$$
=
 OpenBabel10222421363D

 43 46  0  0  1  0  0  0  0  0999 V2000
  189.2420  177.8220  142.0090 C   0  0  0  0  0  3  0  0  0  0  0  0
  189.4320  176.5730  137.3650 C   0  0  0  0  0  0  0  0  0  0  0  0
  193.6260  176.4540  137.3050 C   0  0  0  0  0  2  0  0  0  0  0  0
  188.9230  177.8110  140.6530 C   0  0  0  0  0  3  0  0  0  0  0  0
  194.3480  175.2490  137.9100 C   0  0  0  0  0  2  0  0  0  0  0  0
  191.5440  177.3790  141.4610 C   0  0  0  0  0  3  0  0  0  0  0  0
  188.7800  176.6900  136.1350 C   0  0  0  0  0  3  0  0  0  0  0  0
  189.9000  177.5710  139.6720 C   0  0  0  0  0  0  0  0  0  0  0  0
  193.5640  173.9590  137.6610 C   0  0  1  0  0  3  0  0  0  0  0  0
  190.5550  177.6070  142.4250 C   0  0  0  0  0  0  0  0  0  0  0  0
  188.8040  178.8520  137.8640 C   0  0  0  0  0  3  0  0  0  0  0  0
  189.4450  177.6710  138.2600 C   0  0  0  0  0  0  0  0  0  0  0  0
  188.1980  178.9440  136.6500 N   0  0  0  0  0  0  0  0  0  0  0  0
  191.2440  177.3470  140.0950 C   0  0  0  0  0  0  0  0  0  0  0  0
  192.2310  176.6220  137.9060 C   0  0  2  0  0  3  0  0  0  0  0  0
  188.1680  177.8960  135.7870 C   0  0  0  0  0  0  0  0  0  0  0  0
  192.3280  177.0950  139.2400 O   0  0  0  0  0  0  0  0  0  0  0  0
  192.1520  174.0460  138.2490 C   0  0  0  0  0  2  0  0  0  0  0  0
  191.4700  175.3250  137.8680 C   0  0  0  0  0  0  0  0  0  0  0  0
  190.1610  175.3250  137.6300 C   0  0  0  0  0  3  0  0  0  0  0  0
  197.0070  170.1910  136.7810 N   0  0  0  0  0  2  0  0  0  0  0  0
  194.3920  172.6150  134.3510 O   0  0  0  0  0  0  0  0  0  0  0  0
  196.3410  171.1040  135.8990 C   0  0  0  0  0  0  0  0  0  0  0  0
  193.5230  173.6570  136.2350 N   0  0  0  0  0  2  0  0  0  0  0  0
  195.2620  171.8930  136.4060 N   0  0  0  0  0  2  0  0  0  0  0  0
  194.4000  172.7190  135.6090 C   0  0  0  0  0  0  0  0  0  0  0  0
  196.7290  171.2370  134.7050 O   0  0  0  0  0  0  0  0  0  0  0  0
  198.1070  169.0550  135.0740 O   0  0  0  0  0  1  0  0  0  0  0  0
  198.1790  169.3910  136.4280 C   0  0  0  0  0  0  0  0  0  0  0  0
  198.2140  168.1170  137.2500 C   0  0  0  0  0  1  0  0  0  0  0  0
  199.4540  170.1840  136.6660 C   0  0  0  0  0  1  0  0  0  0  0  0
  190.0170  176.9480  144.8650 C   0  0  0  0  0  1  0  0  0  0  0  0
  191.9330  178.2070  144.2650 O   0  0  0  0  0  0  0  0  0  0  0  0
  190.8910  177.6220  143.8630 C   0  0  0  0  0  0  0  0  0  0  0  0
  187.4360  178.0180  134.4970 C   0  0  0  0  0  2  0  0  0  0  0  0
  185.6230  177.1390  135.7260 C   0  0  0  0  0  3  0  0  0  0  0  0
  186.0290  177.8330  134.7310 N   0  0  0  0  0  0  0  0  0  0  0  0
  184.1590  176.9430  135.9720 C   0  0  0  0  0  2  0  0  0  0  0  0
  183.8470  176.9190  137.4630 C   0  0  0  0  0  2  0  0  0  0  0  0
  183.5610  178.2640  137.9480 N   0  0  0  0  0  2  0  0  0  0  0  0
  185.6640  178.4010  139.1940 O   0  0  0  0  0  1  0  0  0  0  0  0
  184.4830  178.9930  138.7580 C   0  0  0  0  0  0  0  0  0  0  0  0
  184.2240  180.1810  139.0840 O   0  0  0  0  0  0  0  0  0  0  0  0
  1 10  1  0  0  0  0
  2 20  1  0  0  0  0
  2 12  1  0  0  0  0
  3  5  1  0  0  0  0
  4  1  2  0  0  0  0
  6 10  2  0  0  0  0
  7  2  2  0  0  0  0
  8 14  2  0  0  0  0
  8  4  1  0  0  0  0
  9 24  1  6  0  0  0
  9  5  1  0  0  0  0
  9 18  1  0  0  0  0
 10 34  1  0  0  0  0
 11 12  2  0  0  0  0
 12  8  1  0  0  0  0
 13 11  1  0  0  0  0
 14  6  1  0  0  0  0
 15  3  1  1  0  0  0
 15 17  1  0  0  0  0
 16  7  1  0  0  0  0
 16 13  2  0  0  0  0
 17 14  1  0  0  0  0
 19 15  1  0  0  0  0
 19 18  1  0  0  0  0
 20 19  2  0  0  0  0
 22 26  2  0  0  0  0
 23 25  1  0  0  0  0
 23 21  1  0  0  0  0
 26 24  1  0  0  0  0
 26 25  1  0  0  0  0
 27 23  2  0  0  0  0
 28 29  1  0  0  0  0
 29 31  1  0  0  0  0
 29 21  1  0  0  0  0
 29 30  1  0  0  0  0
 34 33  2  0  0  0  0
 34 32  1  0  0  0  0
 35 37  1  0  0  0  0
 35 16  1  0  0  0  0
 36 38  1  0  0  0  0
 37 36  2  0  0  0  0
 38 39  1  0  0  0  0
 39 40  1  0  0  0  0
 40 42  1  0  0  0  0
 42 43  2  0  0  0  0
 42 41  1  0  0  0  0
M  END
>  <MODEL>
8

>  <REMARK>
 VINA RESULT:      -5.6      3.718      9.905
  Name = 
  8 active torsions:
  status: ('A' for Active; 'I' for Inactive)
    1  A    between atoms: N_1  and  C_13
    2  A    between atoms: N_5  and  C_31
    3  A    between atoms: C_6  and  C_29
    4  A    between atoms: C_6  and  C_31
    5  A    between atoms: C_17  and  N_23
    6  A    between atoms: C_18  and  C_35
    7  A    between atoms: C_33  and  C_40
    8  A    between atoms: C_40  and  N_43
                            x       y       z     vdW  Elec       q    Type
                         _______ _______ _______ _____ _____    ______ ____

>  <TORSDO>
F 8

$$$$
=
 OpenBabel10222421363D

 43 46  0  0  1  0  0  0  0  0999 V2000
  182.4600  175.4420  135.6380 C   0  0  0  0  0  3  0  0  0  0  0  0
  186.8700  173.6480  136.3430 C   0  0  0  0  0  0  0  0  0  0  0  0
  188.7740  177.2370  135.2970 C   0  0  0  0  0  2  0  0  0  0  0  0
  183.5090  174.5260  135.6080 C   0  0  0  0  0  3  0  0  0  0  0  0
  188.8160  178.3840  136.3080 C   0  0  0  0  0  2  0  0  0  0  0  0
  184.0360  177.2430  135.3780 C   0  0  0  0  0  3  0  0  0  0  0  0
  187.6360  172.4810  136.2940 C   0  0  0  0  0  3  0  0  0  0  0  0
  184.8440  174.9460  135.4760 C   0  0  0  0  0  0  0  0  0  0  0  0
  188.9640  177.8510  137.7350 C   0  0  1  0  0  3  0  0  0  0  0  0
  182.7130  176.8090  135.5220 C   0  0  0  0  0  0  0  0  0  0  0  0
  185.6770  172.8910  134.3820 C   0  0  0  0  0  3  0  0  0  0  0  0
  185.8600  173.8660  135.3730 C   0  0  0  0  0  0  0  0  0  0  0  0
  186.4560  171.7770  134.3460 N   0  0  0  0  0  0  0  0  0  0  0  0
  185.1070  176.3440  135.3610 C   0  0  0  0  0  0  0  0  0  0  0  0
  187.6050  176.2940  135.5770 C   0  0  2  0  0  3  0  0  0  0  0  0
  187.4200  171.5510  135.2750 C   0  0  0  0  0  0  0  0  0  0  0  0
  186.3810  176.9160  135.2240 O   0  0  0  0  0  0  0  0  0  0  0  0
  187.8160  176.9030  138.0950 C   0  0  0  0  0  2  0  0  0  0  0  0
  187.5810  175.8820  137.0230 C   0  0  0  0  0  0  0  0  0  0  0  0
  187.2200  174.6480  137.3610 C   0  0  0  0  0  3  0  0  0  0  0  0
  189.9700  177.6760  142.8130 N   0  0  0  0  0  2  0  0  0  0  0  0
  192.0780  176.5930  139.2070 O   0  0  0  0  0  0  0  0  0  0  0  0
  190.8110  177.5060  141.6650 C   0  0  0  0  0  0  0  0  0  0  0  0
  190.2580  177.1990  137.9000 N   0  0  0  0  0  2  0  0  0  0  0  0
  190.2050  177.3850  140.3750 N   0  0  0  0  0  2  0  0  0  0  0  0
  190.9010  177.0460  139.1660 C   0  0  0  0  0  0  0  0  0  0  0  0
  192.0670  177.5050  141.7870 O   0  0  0  0  0  0  0  0  0  0  0  0
  191.2700  176.8380  144.5510 O   0  0  0  0  0  1  0  0  0  0  0  0
  190.4500  177.9040  144.1750 C   0  0  0  0  0  0  0  0  0  0  0  0
  189.2810  177.9870  145.1390 C   0  0  0  0  0  1  0  0  0  0  0  0
  191.2580  179.1900  144.2450 C   0  0  0  0  0  1  0  0  0  0  0  0
  180.4000  177.5440  136.4060 C   0  0  0  0  0  1  0  0  0  0  0  0
  181.6490  178.8230  134.8490 O   0  0  0  0  0  0  0  0  0  0  0  0
  181.5990  177.7770  135.5510 C   0  0  0  0  0  0  0  0  0  0  0  0
  188.2030  170.2860  135.2390 C   0  0  0  0  0  2  0  0  0  0  0  0
  186.0770  169.2630  135.1640 C   0  0  0  0  0  3  0  0  0  0  0  0
  187.3190  169.1740  135.4600 N   0  0  0  0  0  0  0  0  0  0  0  0
  185.1540  168.1080  135.3940 C   0  0  0  0  0  2  0  0  0  0  0  0
  183.6950  168.5330  135.2800 C   0  0  0  0  0  2  0  0  0  0  0  0
  183.5390  169.9320  135.6580 N   0  0  0  0  0  2  0  0  0  0  0  0
  181.1580  169.9550  135.0890 O   0  0  0  0  0  0  0  0  0  0  0  0
  182.2790  170.6000  135.6000 C   0  0  0  0  0  0  0  0  0  0  0  0
  182.1810  171.7860  136.0130 O   0  0  0  0  0  1  0  0  0  0  0  0
  2 20  1  0  0  0  0
  3  5  1  0  0  0  0
  4  1  1  0  0  0  0
  5  9  1  0  0  0  0
  6 10  1  0  0  0  0
  7  2  1  0  0  0  0
  8  4  2  0  0  0  0
  9 24  1  6  0  0  0
  9 18  1  0  0  0  0
 10 34  1  0  0  0  0
 10  1  2  0  0  0  0
 11 12  1  0  0  0  0
 12  8  1  0  0  0  0
 12  2  2  0  0  0  0
 13 11  2  0  0  0  0
 13 16  1  0  0  0  0
 14  6  2  0  0  0  0
 14  8  1  0  0  0  0
 15  3  1  1  0  0  0
 15 19  1  0  0  0  0
 16  7  2  0  0  0  0
 17 14  1  0  0  0  0
 17 15  1  0  0  0  0
 19 20  2  0  0  0  0
 19 18  1  0  0  0  0
 21 29  1  0  0  0  0
 23 27  2  0  0  0  0
 23 21  1  0  0  0  0
 24 26  1  0  0  0  0
 25 23  1  0  0  0  0
 26 22  2  0  0  0  0
 26 25  1  0  0  0  0
 29 31  1  0  0  0  0
 29 28  1  0  0  0  0
 29 30  1  0  0  0  0
 33 34  2  0  0  0  0
 34 32  1  0  0  0  0
 35 16  1  0  0  0  0
 35 37  1  0  0  0  0
 36 38  1  0  0  0  0
 36 37  2  0  0  0  0
 39 38  1  0  0  0  0
 39 40  1  0  0  0  0
 41 42  2  0  0  0  0
 42 40  1  0  0  0  0
 42 43  1  0  0  0  0
M  END
>  <MODEL>
9

>  <REMARK>
 VINA RESULT:      -5.4      3.900      9.928
  Name = 
  8 active torsions:
  status: ('A' for Active; 'I' for Inactive)
    1  A    between atoms: N_1  and  C_13
    2  A    between atoms: N_5  and  C_31
    3  A    between atoms: C_6  and  C_29
    4  A    between atoms: C_6  and  C_31
    5  A    between atoms: C_17  and  N_23
    6  A    between atoms: C_18  and  C_35
    7  A    between atoms: C_33  and  C_40
    8  A    between atoms: C_40  and  N_43
                            x       y       z     vdW  Elec       q    Type
                         _______ _______ _______ _____ _____    ______ ____

>  <TORSDO>
F 8

$$$$
