=
 OpenBabel10222421413D

 47 52  0  0  1  0  0  0  0  0999 V2000
  189.7780  177.5160  144.9610 N   0  0  0  0  0  0  0  0  0  0  0  0
  190.9690  177.5030  144.1040 C   0  0  0  0  0  0  0  0  0  0  0  0
  191.2750  177.3970  140.2760 C   0  0  0  0  0  3  0  0  0  0  0  0
  189.2330  177.7370  142.1990 C   0  0  2  0  0  3  0  0  0  0  0  0
  184.2450  178.4160  142.3660 S   0  0  0  0  0  0  0  0  0  0  0  0
  188.5600  177.6850  144.5380 C   0  0  0  0  0  3  0  0  0  0  0  0
  185.6720  178.1440  144.8160 C   0  0  0  0  0  1  0  0  0  0  0  0
  188.9540  177.8130  140.7780 N   0  0  0  0  0  0  0  0  0  0  0  0
  186.6150  178.1700  141.1860 C   0  0  0  0  0  0  0  0  0  0  0  0
  185.1990  178.4050  140.8010 C   0  0  2  0  0  3  0  0  0  0  0  0
  187.6100  178.0430  140.3110 C   0  0  0  0  0  2  0  0  0  0  0  0
  185.7410  178.1890  143.3290 C   0  0  1  0  0  3  0  0  0  0  0  0
  190.0330  177.6300  139.8360 C   0  0  0  0  0  0  0  0  0  0  0  0
  191.7990  178.6530  144.4220 N   0  0  0  0  0  1  0  0  0  0  0  0
  186.8570  178.0660  142.6140 C   0  0  0  0  0  0  0  0  0  0  0  0
  190.6240  177.5080  142.6380 C   0  0  0  0  0  0  0  0  0  0  0  0
  191.5800  177.3420  141.7200 C   0  0  0  0  0  3  0  0  0  0  0  0
  188.2450  177.8420  143.1050 C   0  0  0  0  0  0  0  0  0  0  0  0
  182.9950  179.1970  139.1080 N   0  0  0  0  0  0  0  0  0  0  0  0
  183.9550  180.0420  139.3200 C   0  0  0  0  0  3  0  0  0  0  0  0
  185.0730  179.6960  140.1390 N   0  0  0  0  0  2  0  0  0  0  0  0
  181.3990  180.8920  138.1900 C   0  0  0  0  0  2  0  0  0  0  0  0
  181.2360  178.3960  137.6110 C   0  0  0  0  0  2  0  0  0  0  0  0
  180.2390  181.0640  137.2100 C   0  0  0  0  0  2  0  0  0  0  0  0
  181.5460  178.4640  136.1220 C   0  0  0  0  0  2  0  0  0  0  0  0
  180.5380  179.3520  135.4030 C   0  0  0  0  0  2  0  0  0  0  0  0
  180.7000  180.8190  135.7780 C   0  0  0  0  0  2  0  0  0  0  0  0
  181.8740  179.5030  138.3130 N   0  0  0  0  0  0  0  0  0  0  0  0
  189.7870  177.6760  138.3620 C   0  0  0  0  0  2  0  0  0  0  0  0
  190.0450  176.3030  137.7370 C   0  0  1  0  0  3  0  0  0  0  0  0
  187.7830  176.4240  136.8860 C   0  0  0  0  0  1  0  0  0  0  0  0
  188.8220  175.5540  137.4290 N   0  0  0  0  0  2  0  0  0  0  0  0
  191.0570  176.3150  136.5870 C   0  0  0  0  0  2  0  0  0  0  0  0
  192.1160  175.3320  136.7730 N   0  0  0  0  0  0  0  0  0  0  0  0
  193.1370  173.2980  136.8180 C   0  0  0  0  0  0  0  0  0  0  0  0
  193.3150  175.5000  137.5130 C   0  0  0  0  0  0  0  0  0  0  0  0
  194.0040  174.2260  137.5550 C   0  0  0  0  0  0  0  0  0  0  0  0
  193.6750  176.5760  138.0680 O   0  0  0  0  0  0  0  0  0  0  0  0
  192.0560  173.9530  136.3880 C   0  0  0  0  0  3  0  0  0  0  0  0
  195.1440  173.9560  138.1080 N   0  0  0  0  0  0  0  0  0  0  0  0
  193.5700  171.4180  135.2730 C   0  0  0  0  0  1  0  0  0  0  0  0
  193.3560  171.9380  136.5770 O   0  0  0  0  0  0  0  0  0  0  0  0
  195.8660  174.9200  138.7750 O   0  0  0  0  0  0  0  0  0  0  0  0
  197.1820  175.3850  140.7310 C   0  0  0  0  0  1  0  0  0  0  0  0
  197.0640  174.5750  139.4520 C   0  0  2  0  0  3  0  0  0  0  0  0
  198.2740  174.8120  138.5540 C   0  0  0  0  0  2  0  0  0  0  0  0
  197.9090  175.5130  137.4000 O   0  0  0  0  0  1  0  0  0  0  0  0
  2 14  1  0  0  0  0
  2  1  2  0  0  0  0
  3 17  1  0  0  0  0
  4 16  1  6  0  0  0
  4 18  1  0  0  0  0
  5 12  1  0  0  0  0
  6  1  1  0  0  0  0
  8  4  1  0  0  0  0
  9 15  2  0  0  0  0
 10 21  1  1  0  0  0
 10  9  1  0  0  0  0
 10  5  1  0  0  0  0
 11  8  1  0  0  0  0
 11  9  1  0  0  0  0
 12  7  1  6  0  0  0
 13  3  2  0  0  0  0
 13  8  1  0  0  0  0
 15 18  1  0  0  0  0
 15 12  1  0  0  0  0
 16  2  1  0  0  0  0
 17 16  2  0  0  0  0
 18  6  2  0  0  0  0
 19 20  2  0  0  0  0
 20 21  1  0  0  0  0
 22 28  1  0  0  0  0
 23 28  1  0  0  0  0
 24 22  1  0  0  0  0
 25 23  1  0  0  0  0
 26 27  1  0  0  0  0
 26 25  1  0  0  0  0
 27 24  1  0  0  0  0
 28 19  1  0  0  0  0
 29 13  1  0  0  0  0
 30 33  1  6  0  0  0
 30 29  1  0  0  0  0
 31 32  1  0  0  0  0
 32 30  1  0  0  0  0
 33 34  1  0  0  0  0
 34 36  1  0  0  0  0
 35 37  1  0  0  0  0
 36 37  1  0  0  0  0
 36 38  2  0  0  0  0
 37 40  2  0  0  0  0
 39 34  1  0  0  0  0
 39 35  2  0  0  0  0
 40 43  1  0  0  0  0
 41 42  1  0  0  0  0
 42 35  1  0  0  0  0
 43 45  1  0  0  0  0
 45 44  1  1  0  0  0
 46 45  1  0  0  0  0
 47 46  1  0  0  0  0
M  END
>  <MODEL>
1

>  <REMARK>
 VINA RESULT:      -8.4      0.000      0.000
  Name = 
  11 active torsions:
  status: ('A' for Active; 'I' for Inactive)
    1  A    between atoms: N_3  and  C_45
    2  A    between atoms: N_8  and  N_47
    3  A    between atoms: O_11  and  C_15
    4  A    between atoms: C_14  and  C_41
    5  A    between atoms: C_20  and  C_32
    6  A    between atoms: C_20  and  C_35
    7  A    between atoms: C_28  and  N_40
    8  A    between atoms: O_31  and  N_33
    9  A    between atoms: O_31  and  C_41
   10  A    between atoms: C_35  and  N_42
   11  A    between atoms: C_35  and  C_45
                            x       y       z     vdW  Elec       q    Type
                         _______ _______ _______ _____ _____    ______ ____

>  <TORSDO>
F 11

$$$$
=
 OpenBabel10222421413D

 47 52  0  0  1  0  0  0  0  0999 V2000
  189.3510  177.1860  147.5290 N   0  0  0  0  0  0  0  0  0  0  0  0
  190.5550  176.8120  146.7790 C   0  0  0  0  0  0  0  0  0  0  0  0
  191.0150  176.0370  143.0440 C   0  0  0  0  0  3  0  0  0  0  0  0
  188.9910  177.0580  144.7310 C   0  0  2  0  0  3  0  0  0  0  0  0
  184.2330  178.6770  144.4090 S   0  0  0  0  0  0  0  0  0  0  0  0
  188.2120  177.5090  146.9930 C   0  0  0  0  0  3  0  0  0  0  0  0
  185.4620  178.5400  146.9750 C   0  0  0  0  0  1  0  0  0  0  0  0
  188.8010  176.9550  143.2970 N   0  0  0  0  0  0  0  0  0  0  0  0
  186.5620  177.8050  143.4650 C   0  0  0  0  0  0  0  0  0  0  0  0
  185.2390  178.2360  142.9410 C   0  0  2  0  0  3  0  0  0  0  0  0
  187.5530  177.3550  142.6990 C   0  0  0  0  0  2  0  0  0  0  0  0
  185.6080  178.3310  145.5080 C   0  0  1  0  0  3  0  0  0  0  0  0
  189.8660  176.4240  142.4800 C   0  0  0  0  0  0  0  0  0  0  0  0
  191.5810  177.8220  146.9850 N   0  0  0  0  0  1  0  0  0  0  0  0
  186.7100  177.8890  144.9070 C   0  0  0  0  0  0  0  0  0  0  0  0
  190.2880  176.6450  145.3060 C   0  0  0  0  0  0  0  0  0  0  0  0
  191.2350  176.1580  144.4990 C   0  0  0  0  0  3  0  0  0  0  0  0
  188.0020  177.4910  145.5330 C   0  0  0  0  0  0  0  0  0  0  0  0
  184.0900  178.5430  140.3070 N   0  0  0  0  0  0  0  0  0  0  0  0
  184.8020  179.5100  140.7950 C   0  0  0  0  0  3  0  0  0  0  0  0
  185.4020  179.4040  142.0880 N   0  0  0  0  0  2  0  0  0  0  0  0
  183.2860  177.3940  138.2350 C   0  0  0  0  0  2  0  0  0  0  0  0
  183.0270  179.9230  138.5920 C   0  0  0  0  0  2  0  0  0  0  0  0
  182.5150  177.6280  136.9370 C   0  0  0  0  0  2  0  0  0  0  0  0
  181.5090  180.0130  138.6560 C   0  0  0  0  0  2  0  0  0  0  0  0
  180.8850  179.4840  137.3690 C   0  0  0  0  0  2  0  0  0  0  0  0
  181.0600  177.9780  137.2280 C   0  0  0  0  0  2  0  0  0  0  0  0
  183.4770  178.6120  139.0420 N   0  0  0  0  0  0  0  0  0  0  0  0
  189.7030  176.2780  141.0000 C   0  0  0  0  0  2  0  0  0  0  0  0
  190.4120  177.4210  140.2720 C   0  0  1  0  0  3  0  0  0  0  0  0
  192.8270  177.5650  140.2980 C   0  0  0  0  0  1  0  0  0  0  0  0
  191.6580  177.0200  139.6130 N   0  0  0  0  0  2  0  0  0  0  0  0
  189.4950  178.2630  139.3790 C   0  0  0  0  0  2  0  0  0  0  0  0
  189.1780  177.5940  138.1250 N   0  0  0  0  0  0  0  0  0  0  0  0
  189.4660  176.8180  136.0040 C   0  0  0  0  0  0  0  0  0  0  0  0
  187.8890  177.2450  137.6460 C   0  0  0  0  0  0  0  0  0  0  0  0
  188.0300  176.7330  136.2980 C   0  0  0  0  0  0  0  0  0  0  0  0
  186.8140  177.4050  138.2880 O   0  0  0  0  0  0  0  0  0  0  0  0
  190.1020  177.3240  137.0630 C   0  0  0  0  0  3  0  0  0  0  0  0
  187.0990  176.2820  135.5170 N   0  0  0  0  0  0  0  0  0  0  0  0
  191.3790  175.7970  134.8190 C   0  0  0  0  0  1  0  0  0  0  0  0
  190.1170  176.4470  134.8240 O   0  0  0  0  0  0  0  0  0  0  0  0
  185.7800  176.2550  135.9120 O   0  0  0  0  0  0  0  0  0  0  0  0
  185.1310  174.3080  137.1610 C   0  0  0  0  0  1  0  0  0  0  0  0
  185.0370  175.0480  135.8390 C   0  0  2  0  0  3  0  0  0  0  0  0
  185.5480  174.1730  134.6980 C   0  0  0  0  0  2  0  0  0  0  0  0
  184.8850  172.9410  134.6810 O   0  0  0  0  0  1  0  0  0  0  0  0
  2 14  1  0  0  0  0
  2  1  2  0  0  0  0
  3 17  1  0  0  0  0
  4 16  1  1  0  0  0
  4 18  1  0  0  0  0
  5 12  1  0  0  0  0
  6  1  1  0  0  0  0
  8  4  1  0  0  0  0
  9 15  2  0  0  0  0
 10 21  1  6  0  0  0
 10  9  1  0  0  0  0
 10  5  1  0  0  0  0
 11  8  1  0  0  0  0
 11  9  1  0  0  0  0
 12  7  1  1  0  0  0
 13  3  2  0  0  0  0
 13  8  1  0  0  0  0
 15 12  1  0  0  0  0
 15 18  1  0  0  0  0
 16  2  1  0  0  0  0
 17 16  2  0  0  0  0
 18  6  2  0  0  0  0
 19 20  2  0  0  0  0
 20 21  1  0  0  0  0
 22 28  1  0  0  0  0
 23 25  1  0  0  0  0
 23 28  1  0  0  0  0
 24 27  1  0  0  0  0
 24 22  1  0  0  0  0
 26 25  1  0  0  0  0
 27 26  1  0  0  0  0
 28 19  1  0  0  0  0
 29 13  1  0  0  0  0
 30 33  1  6  0  0  0
 30 29  1  0  0  0  0
 32 30  1  0  0  0  0
 32 31  1  0  0  0  0
 34 33  1  0  0  0  0
 35 37  1  0  0  0  0
 35 39  2  0  0  0  0
 36 34  1  0  0  0  0
 36 38  2  0  0  0  0
 37 36  1  0  0  0  0
 39 34  1  0  0  0  0
 40 43  1  0  0  0  0
 40 37  2  0  0  0  0
 41 42  1  0  0  0  0
 42 35  1  0  0  0  0
 45 43  1  0  0  0  0
 45 44  1  1  0  0  0
 46 45  1  0  0  0  0
 47 46  1  0  0  0  0
M  END
>  <MODEL>
2

>  <REMARK>
 VINA RESULT:      -8.2      3.108      5.430
  Name = 
  11 active torsions:
  status: ('A' for Active; 'I' for Inactive)
    1  A    between atoms: N_3  and  C_45
    2  A    between atoms: N_8  and  N_47
    3  A    between atoms: O_11  and  C_15
    4  A    between atoms: C_14  and  C_41
    5  A    between atoms: C_20  and  C_32
    6  A    between atoms: C_20  and  C_35
    7  A    between atoms: C_28  and  N_40
    8  A    between atoms: O_31  and  N_33
    9  A    between atoms: O_31  and  C_41
   10  A    between atoms: C_35  and  N_42
   11  A    between atoms: C_35  and  C_45
                            x       y       z     vdW  Elec       q    Type
                         _______ _______ _______ _____ _____    ______ ____

>  <TORSDO>
F 11

$$$$
=
 OpenBabel10222421413D

 47 52  0  0  1  0  0  0  0  0999 V2000
  180.1580  178.7440  140.3290 N   0  0  0  0  0  0  0  0  0  0  0  0
  180.5490  178.4950  138.9370 C   0  0  2  0  0  3  0  0  0  0  0  0
  184.0330  178.3480  137.3240 C   0  0  0  0  0  3  0  0  0  0  0  0
  182.9410  178.4860  139.9260 C   0  0  0  0  0  0  0  0  0  0  0  0
  184.5210  178.7380  144.7020 S   0  0  0  0  0  0  0  0  0  0  0  0
  180.9780  178.7790  141.3370 C   0  0  0  0  0  3  0  0  0  0  0  0
  181.7240  178.8700  144.1760 C   0  0  0  0  0  1  0  0  0  0  0  0
  184.3710  178.3890  139.7100 N   0  0  0  0  0  0  0  0  0  0  0  0
  184.8040  178.4860  142.0700 C   0  0  0  0  0  0  0  0  0  0  0  0
  185.6590  178.4950  143.2860 C   0  0  2  0  0  3  0  0  0  0  0  0
  185.2780  178.3850  140.8300 C   0  0  0  0  0  2  0  0  0  0  0  0
  183.0960  178.7370  143.6120 C   0  0  1  0  0  3  0  0  0  0  0  0
  184.8780  178.3240  138.3600 C   0  0  0  0  0  0  0  0  0  0  0  0
  179.9820  177.2310  138.4990 N   0  0  0  0  0  1  0  0  0  0  0  0
  183.3790  178.6170  142.3170 C   0  0  0  0  0  0  0  0  0  0  0  0
  182.0440  178.4790  138.7530 C   0  0  0  0  0  0  0  0  0  0  0  0
  182.5720  178.4200  137.5270 C   0  0  0  0  0  3  0  0  0  0  0  0
  182.4340  178.6090  141.1660 C   0  0  0  0  0  0  0  0  0  0  0  0
  188.0390  178.0400  144.8600 N   0  0  0  0  0  0  0  0  0  0  0  0
  187.5130  177.0430  144.2200 C   0  0  0  0  0  3  0  0  0  0  0  0
  186.3430  177.2170  143.4190 N   0  0  0  0  0  2  0  0  0  0  0  0
  189.0630  177.6150  147.1040 C   0  0  0  0  0  2  0  0  0  0  0  0
  190.4800  178.0460  145.0060 C   0  0  0  0  0  2  0  0  0  0  0  0
  190.4020  177.4020  147.8080 C   0  0  0  0  0  2  0  0  0  0  0  0
  191.1580  176.6890  144.8790 C   0  0  0  0  0  2  0  0  0  0  0  0
  191.9610  176.3710  146.1350 C   0  0  0  0  0  2  0  0  0  0  0  0
  191.0600  176.1100  147.3360 C   0  0  0  0  0  2  0  0  0  0  0  0
  189.1870  177.9080  145.6640 N   0  0  0  0  0  0  0  0  0  0  0  0
  186.3480  178.2490  138.0900 C   0  0  0  0  0  2  0  0  0  0  0  0
  186.6340  177.2300  136.9850 C   0  0  1  0  0  3  0  0  0  0  0  0
  186.5950  177.3080  134.5670 C   0  0  0  0  0  1  0  0  0  0  0  0
  187.2290  177.8160  135.7800 N   0  0  0  0  0  2  0  0  0  0  0  0
  187.3520  175.9650  137.4660 C   0  0  0  0  0  2  0  0  0  0  0  0
  188.7080  176.2390  137.9220 N   0  0  0  0  0  0  0  0  0  0  0  0
  190.3840  177.1540  139.1610 C   0  0  0  0  0  0  0  0  0  0  0  0
  189.9120  175.9950  137.2120 C   0  0  0  0  0  0  0  0  0  0  0  0
  191.0090  176.5530  137.9760 C   0  0  0  0  0  0  0  0  0  0  0  0
  189.9830  175.4270  136.0870 O   0  0  0  0  0  0  0  0  0  0  0  0
  189.0630  176.9700  139.1030 C   0  0  0  0  0  3  0  0  0  0  0  0
  192.2730  176.5220  137.6920 N   0  0  0  0  0  0  0  0  0  0  0  0
  191.7750  177.1480  141.2040 C   0  0  0  0  0  1  0  0  0  0  0  0
  191.0190  177.8240  140.2110 O   0  0  0  0  0  0  0  0  0  0  0  0
  192.7370  175.9250  136.5410 O   0  0  0  0  0  0  0  0  0  0  0  0
  193.4680  173.6880  136.0540 C   0  0  0  0  0  1  0  0  0  0  0  0
  193.8570  175.0560  136.5890 C   0  0  2  0  0  3  0  0  0  0  0  0
  194.3860  174.9420  138.0160 C   0  0  0  0  0  2  0  0  0  0  0  0
  195.7820  175.0320  138.0380 O   0  0  0  0  0  1  0  0  0  0  0  0
  1  6  2  0  0  0  0
  2 14  1  1  0  0  0
  2  1  1  0  0  0  0
  3 17  1  0  0  0  0
  3 13  2  0  0  0  0
  4 18  2  0  0  0  0
  8  4  1  0  0  0  0
  8 11  1  0  0  0  0
  9 15  2  0  0  0  0
  9 10  1  0  0  0  0
 10 21  1  1  0  0  0
 10  5  1  0  0  0  0
 11  9  1  0  0  0  0
 12  7  1  6  0  0  0
 12  5  1  0  0  0  0
 13  8  1  0  0  0  0
 15 12  1  0  0  0  0
 16  2  1  0  0  0  0
 16  4  1  0  0  0  0
 17 16  2  0  0  0  0
 18  6  1  0  0  0  0
 18 15  1  0  0  0  0
 19 28  1  0  0  0  0
 20 19  2  0  0  0  0
 21 20  1  0  0  0  0
 22 24  1  0  0  0  0
 23 28  1  0  0  0  0
 25 23  1  0  0  0  0
 25 26  1  0  0  0  0
 26 27  1  0  0  0  0
 27 24  1  0  0  0  0
 28 22  1  0  0  0  0
 29 13  1  0  0  0  0
 30 33  1  1  0  0  0
 30 29  1  0  0  0  0
 31 32  1  0  0  0  0
 32 30  1  0  0  0  0
 33 34  1  0  0  0  0
 34 39  1  0  0  0  0
 35 42  1  0  0  0  0
 36 34  1  0  0  0  0
 36 37  1  0  0  0  0
 37 35  1  0  0  0  0
 38 36  2  0  0  0  0
 39 35  2  0  0  0  0
 40 37  2  0  0  0  0
 42 41  1  0  0  0  0
 43 45  1  0  0  0  0
 43 40  1  0  0  0  0
 45 44  1  1  0  0  0
 45 46  1  0  0  0  0
 46 47  1  0  0  0  0
M  END
>  <MODEL>
3

>  <REMARK>
 VINA RESULT:      -7.9      2.237      7.702
  Name = 
  11 active torsions:
  status: ('A' for Active; 'I' for Inactive)
    1  A    between atoms: N_3  and  C_45
    2  A    between atoms: N_8  and  N_47
    3  A    between atoms: O_11  and  C_15
    4  A    between atoms: C_14  and  C_41
    5  A    between atoms: C_20  and  C_32
    6  A    between atoms: C_20  and  C_35
    7  A    between atoms: C_28  and  N_40
    8  A    between atoms: O_31  and  N_33
    9  A    between atoms: O_31  and  C_41
   10  A    between atoms: C_35  and  N_42
   11  A    between atoms: C_35  and  C_45
                            x       y       z     vdW  Elec       q    Type
                         _______ _______ _______ _____ _____    ______ ____

>  <TORSDO>
F 11

$$$$
=
 OpenBabel10222421413D

 47 52  0  0  1  0  0  0  0  0999 V2000
  189.7150  177.6390  144.8360 N   0  0  0  0  0  0  0  0  0  0  0  0
  190.9010  177.5990  143.9730 C   0  0  0  0  0  0  0  0  0  0  0  0
  191.1830  177.3850  140.1460 C   0  0  0  0  0  3  0  0  0  0  0  0
  189.1530  177.7830  142.0720 C   0  0  2  0  0  3  0  0  0  0  0  0
  184.1680  178.4790  142.2520 S   0  0  0  0  0  0  0  0  0  0  0  0
  188.4950  177.7990  144.4160 C   0  0  0  0  0  3  0  0  0  0  0  0
  185.6110  178.2720  144.6990 C   0  0  0  0  0  1  0  0  0  0  0  0
  188.8660  177.8200  140.6510 N   0  0  0  0  0  0  0  0  0  0  0  0
  186.5300  178.1950  141.0640 C   0  0  0  0  0  0  0  0  0  0  0  0
  185.1120  178.4220  140.6810 C   0  0  2  0  0  3  0  0  0  0  0  0
  187.5200  178.0410  140.1870 C   0  0  0  0  0  2  0  0  0  0  0  0
  185.6700  178.2760  143.2110 C   0  0  1  0  0  3  0  0  0  0  0  0
  189.9390  177.6080  139.7090 C   0  0  0  0  0  0  0  0  0  0  0  0
  191.7360  178.7550  144.2520 N   0  0  0  0  0  1  0  0  0  0  0  0
  186.7810  178.1300  142.4930 C   0  0  0  0  0  0  0  0  0  0  0  0
  190.5470  177.5630  142.5090 C   0  0  0  0  0  0  0  0  0  0  0  0
  191.4970  177.3690  141.5900 C   0  0  0  0  0  3  0  0  0  0  0  0
  188.1710  177.9170  142.9820 C   0  0  0  0  0  0  0  0  0  0  0  0
  182.9810  179.1120  138.8560 N   0  0  0  0  0  0  0  0  0  0  0  0
  183.9030  179.9890  139.0990 C   0  0  0  0  0  3  0  0  0  0  0  0
  184.9850  179.6940  139.9850 N   0  0  0  0  0  2  0  0  0  0  0  0
  181.4040  180.7420  137.7980 C   0  0  0  0  0  2  0  0  0  0  0  0
  181.3130  178.2240  137.3040 C   0  0  0  0  0  2  0  0  0  0  0  0
  180.2910  180.8560  136.7570 C   0  0  0  0  0  2  0  0  0  0  0  0
  181.6960  178.2440  135.8310 C   0  0  0  0  0  2  0  0  0  0  0  0
  180.7090  179.0850  135.0310 C   0  0  0  0  0  2  0  0  0  0  0  0
  180.8280  180.5680  135.3590 C   0  0  0  0  0  2  0  0  0  0  0  0
  181.8960  179.3670  137.9960 N   0  0  0  0  0  0  0  0  0  0  0  0
  189.6830  177.6130  138.2350 C   0  0  0  0  0  2  0  0  0  0  0  0
  189.8690  176.2080  137.6590 C   0  0  1  0  0  3  0  0  0  0  0  0
  188.3880  175.5030  135.8800 C   0  0  0  0  0  1  0  0  0  0  0  0
  188.6100  175.5350  137.3230 N   0  0  0  0  0  2  0  0  0  0  0  0
  190.9230  176.1160  136.5500 C   0  0  0  0  0  2  0  0  0  0  0  0
  192.0990  175.3660  136.9670 N   0  0  0  0  0  0  0  0  0  0  0  0
  194.2130  174.9830  137.7190 C   0  0  0  0  0  0  0  0  0  0  0  0
  192.3830  174.0030  136.6920 C   0  0  0  0  0  0  0  0  0  0  0  0
  193.7210  173.7140  137.1680 C   0  0  0  0  0  0  0  0  0  0  0  0
  191.6030  173.2110  136.0930 O   0  0  0  0  0  0  0  0  0  0  0  0
  193.2700  175.9170  137.5840 C   0  0  0  0  0  3  0  0  0  0  0  0
  194.3500  172.5820  137.1330 N   0  0  0  0  0  0  0  0  0  0  0  0
  195.9320  174.5140  139.4320 C   0  0  0  0  0  1  0  0  0  0  0  0
  195.4610  175.2310  138.3010 O   0  0  0  0  0  0  0  0  0  0  0  0
  193.7760  171.4570  136.5850 O   0  0  0  0  0  0  0  0  0  0  0  0
  193.6410  169.0600  136.6940 C   0  0  0  0  0  1  0  0  0  0  0  0
  194.5320  170.2640  136.4470 C   0  0  2  0  0  3  0  0  0  0  0  0
  195.7130  170.2630  137.4140 C   0  0  0  0  0  2  0  0  0  0  0  0
  195.6010  169.2160  138.3360 O   0  0  0  0  0  1  0  0  0  0  0  0
  2 14  1  0  0  0  0
  2  1  2  0  0  0  0
  3 17  1  0  0  0  0
  4 16  1  1  0  0  0
  4 18  1  0  0  0  0
  5 12  1  0  0  0  0
  6  1  1  0  0  0  0
  8  4  1  0  0  0  0
  9 15  2  0  0  0  0
 10 21  1  1  0  0  0
 10  9  1  0  0  0  0
 10  5  1  0  0  0  0
 11  8  1  0  0  0  0
 11  9  1  0  0  0  0
 12  7  1  6  0  0  0
 13  3  2  0  0  0  0
 13  8  1  0  0  0  0
 15 18  1  0  0  0  0
 15 12  1  0  0  0  0
 16  2  1  0  0  0  0
 17 16  2  0  0  0  0
 18  6  2  0  0  0  0
 19 20  2  0  0  0  0
 20 21  1  0  0  0  0
 22 28  1  0  0  0  0
 23 28  1  0  0  0  0
 24 22  1  0  0  0  0
 25 23  1  0  0  0  0
 26 27  1  0  0  0  0
 26 25  1  0  0  0  0
 27 24  1  0  0  0  0
 28 19  1  0  0  0  0
 29 13  1  0  0  0  0
 30 33  1  6  0  0  0
 30 29  1  0  0  0  0
 31 32  1  0  0  0  0
 32 30  1  0  0  0  0
 33 34  1  0  0  0  0
 34 39  1  0  0  0  0
 35 42  1  0  0  0  0
 36 34  1  0  0  0  0
 36 37  1  0  0  0  0
 37 35  1  0  0  0  0
 38 36  2  0  0  0  0
 39 35  2  0  0  0  0
 40 37  2  0  0  0  0
 42 41  1  0  0  0  0
 43 40  1  0  0  0  0
 45 43  1  0  0  0  0
 45 44  1  1  0  0  0
 45 46  1  0  0  0  0
 46 47  1  0  0  0  0
M  END
>  <MODEL>
4

>  <REMARK>
 VINA RESULT:      -7.9      1.070      2.494
  Name = 
  11 active torsions:
  status: ('A' for Active; 'I' for Inactive)
    1  A    between atoms: N_3  and  C_45
    2  A    between atoms: N_8  and  N_47
    3  A    between atoms: O_11  and  C_15
    4  A    between atoms: C_14  and  C_41
    5  A    between atoms: C_20  and  C_32
    6  A    between atoms: C_20  and  C_35
    7  A    between atoms: C_28  and  N_40
    8  A    between atoms: O_31  and  N_33
    9  A    between atoms: O_31  and  C_41
   10  A    between atoms: C_35  and  N_42
   11  A    between atoms: C_35  and  C_45
                            x       y       z     vdW  Elec       q    Type
                         _______ _______ _______ _____ _____    ______ ____

>  <TORSDO>
F 11

$$$$
=
 OpenBabel10222421413D

 47 52  0  0  1  0  0  0  0  0999 V2000
  187.5790  177.8680  148.3970 N   0  0  0  0  0  0  0  0  0  0  0  0
  188.9740  177.4830  148.1570 C   0  0  0  0  0  0  0  0  0  0  0  0
  190.7050  176.2900  144.9400 C   0  0  0  0  0  3  0  0  0  0  0  0
  188.2070  177.3790  145.6870 C   0  0  2  0  0  3  0  0  0  0  0  0
  183.8230  178.6450  143.5550 S   0  0  0  0  0  0  0  0  0  0  0  0
  186.6880  178.0520  147.4670 C   0  0  0  0  0  3  0  0  0  0  0  0
  184.0950  178.8980  146.3790 C   0  0  0  0  0  1  0  0  0  0  0  0
  188.5230  177.0910  144.3010 N   0  0  0  0  0  0  0  0  0  0  0  0
  186.3480  177.8130  143.5840 C   0  0  0  0  0  0  0  0  0  0  0  0
  185.2800  178.0930  142.5890 C   0  0  2  0  0  3  0  0  0  0  0  0
  187.5500  177.3370  143.2670 C   0  0  0  0  0  2  0  0  0  0  0  0
  184.7410  178.5220  145.0910 C   0  0  1  0  0  3  0  0  0  0  0  0
  189.8140  176.5330  143.9730 C   0  0  0  0  0  0  0  0  0  0  0  0
  189.8480  178.5720  148.5590 N   0  0  0  0  0  1  0  0  0  0  0  0
  185.9900  178.0800  144.9650 C   0  0  0  0  0  0  0  0  0  0  0  0
  189.2330  177.1220  146.7170 C   0  0  0  0  0  0  0  0  0  0  0  0
  190.4080  176.6010  146.3530 C   0  0  0  0  0  3  0  0  0  0  0  0
  186.9950  177.8430  146.0390 C   0  0  0  0  0  0  0  0  0  0  0  0
  184.8290  178.1390  139.7350 N   0  0  0  0  0  0  0  0  0  0  0  0
  185.4480  179.1360  140.2860 C   0  0  0  0  0  3  0  0  0  0  0  0
  185.7060  179.1570  141.6910 N   0  0  0  0  0  2  0  0  0  0  0  0
  185.5480  177.5570  137.4090 C   0  0  0  0  0  2  0  0  0  0  0  0
  183.2350  178.5450  137.9260 C   0  0  0  0  0  2  0  0  0  0  0  0
  185.0480  177.4720  135.9680 C   0  0  0  0  0  2  0  0  0  0  0  0
  182.3630  177.3620  137.5280 C   0  0  0  0  0  2  0  0  0  0  0  0
  182.5880  176.9970  136.0660 C   0  0  0  0  0  2  0  0  0  0  0  0
  183.9700  176.4030  135.8320 C   0  0  0  0  0  2  0  0  0  0  0  0
  184.5490  178.0850  138.3560 N   0  0  0  0  0  0  0  0  0  0  0  0
  190.1730  176.1980  142.5600 C   0  0  0  0  0  2  0  0  0  0  0  0
  190.6250  177.4550  141.8150 C   0  0  1  0  0  3  0  0  0  0  0  0
  191.8880  178.8560  143.3290 C   0  0  0  0  0  1  0  0  0  0  0  0
  190.6150  178.6670  142.6390 N   0  0  0  0  0  2  0  0  0  0  0  0
  191.9150  177.2780  141.0070 C   0  0  0  0  0  2  0  0  0  0  0  0
  191.6530  176.9710  139.6080 N   0  0  0  0  0  0  0  0  0  0  0  0
  190.4690  176.4200  137.7430 C   0  0  0  0  0  0  0  0  0  0  0  0
  192.6030  176.5850  138.6270 C   0  0  0  0  0  0  0  0  0  0  0  0
  191.8890  176.2370  137.4160 C   0  0  0  0  0  0  0  0  0  0  0  0
  193.8500  176.5210  138.8170 O   0  0  0  0  0  0  0  0  0  0  0  0
  190.3590  176.8310  139.0090 C   0  0  0  0  0  3  0  0  0  0  0  0
  192.3850  175.8580  136.2800 N   0  0  0  0  0  0  0  0  0  0  0  0
  189.0050  177.1180  135.8790 C   0  0  0  0  0  1  0  0  0  0  0  0
  189.3680  176.2090  136.9070 O   0  0  0  0  0  0  0  0  0  0  0  0
  193.7430  175.7230  136.0980 O   0  0  0  0  0  0  0  0  0  0  0  0
  193.1580  173.5980  135.1410 C   0  0  0  0  0  1  0  0  0  0  0  0
  194.2810  174.5000  135.6210 C   0  0  2  0  0  3  0  0  0  0  0  0
  195.0930  173.8100  136.7140 C   0  0  0  0  0  2  0  0  0  0  0  0
  194.2650  173.3980  137.7640 O   0  0  0  0  0  1  0  0  0  0  0  0
  2  1  2  0  0  0  0
  2 14  1  0  0  0  0
  3 17  1  0  0  0  0
  4 18  1  1  0  0  0
  4 16  1  0  0  0  0
  5 12  1  0  0  0  0
  6  1  1  0  0  0  0
  8  4  1  0  0  0  0
  9 15  2  0  0  0  0
 10 21  1  6  0  0  0
 10  5  1  0  0  0  0
 10  9  1  0  0  0  0
 11  9  1  0  0  0  0
 11  8  1  0  0  0  0
 12  7  1  1  0  0  0
 13  8  1  0  0  0  0
 13  3  2  0  0  0  0
 15 12  1  0  0  0  0
 15 18  1  0  0  0  0
 16  2  1  0  0  0  0
 17 16  2  0  0  0  0
 18  6  2  0  0  0  0
 19 20  2  0  0  0  0
 20 21  1  0  0  0  0
 22 28  1  0  0  0  0
 23 28  1  0  0  0  0
 24 22  1  0  0  0  0
 25 23  1  0  0  0  0
 26 25  1  0  0  0  0
 27 24  1  0  0  0  0
 27 26  1  0  0  0  0
 28 19  1  0  0  0  0
 29 13  1  0  0  0  0
 30 33  1  1  0  0  0
 30 29  1  0  0  0  0
 30 32  1  0  0  0  0
 32 31  1  0  0  0  0
 34 33  1  0  0  0  0
 35 39  2  0  0  0  0
 36 38  2  0  0  0  0
 36 34  1  0  0  0  0
 37 35  1  0  0  0  0
 37 36  1  0  0  0  0
 39 34  1  0  0  0  0
 40 37  2  0  0  0  0
 41 42  1  0  0  0  0
 42 35  1  0  0  0  0
 43 40  1  0  0  0  0
 45 44  1  1  0  0  0
 45 43  1  0  0  0  0
 45 46  1  0  0  0  0
 46 47  1  0  0  0  0
M  END
>  <MODEL>
5

>  <REMARK>
 VINA RESULT:      -7.5      2.275      4.140
  Name = 
  11 active torsions:
  status: ('A' for Active; 'I' for Inactive)
    1  A    between atoms: N_3  and  C_45
    2  A    between atoms: N_8  and  N_47
    3  A    between atoms: O_11  and  C_15
    4  A    between atoms: C_14  and  C_41
    5  A    between atoms: C_20  and  C_32
    6  A    between atoms: C_20  and  C_35
    7  A    between atoms: C_28  and  N_40
    8  A    between atoms: O_31  and  N_33
    9  A    between atoms: O_31  and  C_41
   10  A    between atoms: C_35  and  N_42
   11  A    between atoms: C_35  and  C_45
                            x       y       z     vdW  Elec       q    Type
                         _______ _______ _______ _____ _____    ______ ____

>  <TORSDO>
F 11

$$$$
=
 OpenBabel10222421413D

 47 52  0  0  1  0  0  0  0  0999 V2000
  188.1520  177.8400  146.0800 N   0  0  0  0  0  0  0  0  0  0  0  0
  186.7130  178.1070  145.9720 C   0  0  0  0  0  0  0  0  0  0  0  0
  184.5890  179.0810  142.9220 C   0  0  0  0  0  3  0  0  0  0  0  0
  187.2280  178.2120  143.4370 C   0  0  2  0  0  3  0  0  0  0  0  0
  191.4750  177.2470  140.9060 S   0  0  0  0  0  0  0  0  0  0  0  0
  188.9610  177.7050  145.0710 C   0  0  0  0  0  3  0  0  0  0  0  0
  191.4970  177.0420  143.7480 C   0  0  0  0  0  1  0  0  0  0  0  0
  186.7570  178.4400  142.0850 N   0  0  0  0  0  0  0  0  0  0  0  0
  188.9040  177.8760  141.1690 C   0  0  0  0  0  0  0  0  0  0  0  0
  189.8910  177.6580  140.0790 C   0  0  2  0  0  3  0  0  0  0  0  0
  187.6430  178.2480  140.9640 C   0  0  0  0  0  2  0  0  0  0  0  0
  190.7010  177.3330  142.5230 C   0  0  1  0  0  3  0  0  0  0  0  0
  185.4000  178.8860  141.8760 C   0  0  0  0  0  0  0  0  0  0  0  0
  185.9740  176.9620  146.4760 N   0  0  0  0  0  1  0  0  0  0  0  0
  189.4140  177.6720  142.5130 C   0  0  0  0  0  0  0  0  0  0  0  0
  186.2890  178.4120  144.5590 C   0  0  0  0  0  0  0  0  0  0  0  0
  185.0450  178.8290  144.3040 C   0  0  0  0  0  3  0  0  0  0  0  0
  188.5020  177.8540  143.6760 C   0  0  0  0  0  0  0  0  0  0  0  0
  191.4250  176.5360  137.9030 N   0  0  0  0  0  0  0  0  0  0  0  0
  190.2710  176.0180  138.1860 C   0  0  0  0  0  3  0  0  0  0  0  0
  189.4680  176.5430  139.2450 N   0  0  0  0  0  2  0  0  0  0  0  0
  193.6480  176.4890  136.7530 C   0  0  0  0  0  2  0  0  0  0  0  0
  191.6620  175.0670  135.9630 C   0  0  0  0  0  2  0  0  0  0  0  0
  194.4300  175.7820  135.6480 C   0  0  0  0  0  2  0  0  0  0  0  0
  192.2220  173.6790  136.2430 C   0  0  0  0  0  2  0  0  0  0  0  0
  193.5140  173.4550  135.4670 C   0  0  0  0  0  2  0  0  0  0  0  0
  194.6530  174.3150  135.9970 C   0  0  0  0  0  2  0  0  0  0  0  0
  192.2480  176.0430  136.8720 N   0  0  0  0  0  0  0  0  0  0  0  0
  184.8800  179.1580  140.5000 C   0  0  0  0  0  2  0  0  0  0  0  0
  184.0740  177.9620  139.9910 C   0  0  1  0  0  3  0  0  0  0  0  0
  181.7020  177.5190  139.8130 C   0  0  0  0  0  1  0  0  0  0  0  0
  182.8230  177.7370  140.7230 N   0  0  0  0  0  2  0  0  0  0  0  0
  183.9040  177.9180  138.4690 C   0  0  0  0  0  2  0  0  0  0  0  0
  185.1110  177.4670  137.7910 N   0  0  0  0  0  0  0  0  0  0  0  0
  187.1320  177.5910  136.7510 C   0  0  0  0  0  0  0  0  0  0  0  0
  185.3140  176.2150  137.1530 C   0  0  0  0  0  0  0  0  0  0  0  0
  186.6000  176.2490  136.4870 C   0  0  0  0  0  0  0  0  0  0  0  0
  184.4800  175.2670  137.1450 O   0  0  0  0  0  0  0  0  0  0  0  0
  186.2570  178.2740  137.4920 C   0  0  0  0  0  3  0  0  0  0  0  0
  187.1720  175.3010  135.8130 N   0  0  0  0  0  0  0  0  0  0  0  0
  188.9810  179.2170  136.9710 C   0  0  0  0  0  1  0  0  0  0  0  0
  188.3510  178.1240  136.3190 O   0  0  0  0  0  0  0  0  0  0  0  0
  186.5650  174.0780  135.6340 O   0  0  0  0  0  0  0  0  0  0  0  0
  188.5130  172.8460  136.3120 C   0  0  0  0  0  1  0  0  0  0  0  0
  186.9990  172.9500  136.3770 C   0  0  2  0  0  3  0  0  0  0  0  0
  186.3510  171.6760  135.8440 C   0  0  0  0  0  2  0  0  0  0  0  0
  184.9760  171.6690  136.1060 O   0  0  0  0  0  1  0  0  0  0  0  0
  2  1  2  0  0  0  0
  2 14  1  0  0  0  0
  3 17  1  0  0  0  0
  4 18  1  1  0  0  0
  4 16  1  0  0  0  0
  5 12  1  0  0  0  0
  6  1  1  0  0  0  0
  8  4  1  0  0  0  0
  9 15  2  0  0  0  0
 10 21  1  6  0  0  0
 10  5  1  0  0  0  0
 10  9  1  0  0  0  0
 11  9  1  0  0  0  0
 11  8  1  0  0  0  0
 12  7  1  1  0  0  0
 13  8  1  0  0  0  0
 13  3  2  0  0  0  0
 15 12  1  0  0  0  0
 15 18  1  0  0  0  0
 16  2  1  0  0  0  0
 17 16  2  0  0  0  0
 18  6  2  0  0  0  0
 19 20  2  0  0  0  0
 20 21  1  0  0  0  0
 22 28  1  0  0  0  0
 23 25  1  0  0  0  0
 23 28  1  0  0  0  0
 24 27  1  0  0  0  0
 24 22  1  0  0  0  0
 26 27  1  0  0  0  0
 26 25  1  0  0  0  0
 28 19  1  0  0  0  0
 29 13  1  0  0  0  0
 30 33  1  6  0  0  0
 30 29  1  0  0  0  0
 30 32  1  0  0  0  0
 31 32  1  0  0  0  0
 34 33  1  0  0  0  0
 35 39  2  0  0  0  0
 36 34  1  0  0  0  0
 37 35  1  0  0  0  0
 37 36  1  0  0  0  0
 38 36  2  0  0  0  0
 39 34  1  0  0  0  0
 40 37  2  0  0  0  0
 42 35  1  0  0  0  0
 42 41  1  0  0  0  0
 43 40  1  0  0  0  0
 43 45  1  0  0  0  0
 45 44  1  6  0  0  0
 46 47  1  0  0  0  0
 46 45  1  0  0  0  0
M  END
>  <MODEL>
6

>  <REMARK>
 VINA RESULT:      -7.4      3.514      8.329
  Name = 
  11 active torsions:
  status: ('A' for Active; 'I' for Inactive)
    1  A    between atoms: N_3  and  C_45
    2  A    between atoms: N_8  and  N_47
    3  A    between atoms: O_11  and  C_15
    4  A    between atoms: C_14  and  C_41
    5  A    between atoms: C_20  and  C_32
    6  A    between atoms: C_20  and  C_35
    7  A    between atoms: C_28  and  N_40
    8  A    between atoms: O_31  and  N_33
    9  A    between atoms: O_31  and  C_41
   10  A    between atoms: C_35  and  N_42
   11  A    between atoms: C_35  and  C_45
                            x       y       z     vdW  Elec       q    Type
                         _______ _______ _______ _____ _____    ______ ____

>  <TORSDO>
F 11

$$$$
=
 OpenBabel10222421413D

 47 52  0  0  1  0  0  0  0  0999 V2000
  187.2410  175.9260  135.6890 N   0  0  0  0  0  0  0  0  0  0  0  0
  186.9340  176.9380  136.7060 C   0  0  2  0  0  3  0  0  0  0  0  0
  188.8300  177.8970  139.9080 C   0  0  0  0  0  3  0  0  0  0  0  0
  189.2610  176.2810  137.6300 C   0  0  0  0  0  0  0  0  0  0  0  0
  192.7820  173.1980  135.7700 S   0  0  0  0  0  0  0  0  0  0  0  0
  188.3620  175.2740  135.6040 C   0  0  0  0  0  3  0  0  0  0  0  0
  190.3320  173.4950  134.3470 C   0  0  0  0  0  1  0  0  0  0  0  0
  190.2800  176.4400  138.6500 N   0  0  0  0  0  0  0  0  0  0  0  0
  191.7660  174.9500  137.4930 C   0  0  0  0  0  0  0  0  0  0  0  0
  193.0300  174.1940  137.2880 C   0  0  2  0  0  3  0  0  0  0  0  0
  191.5400  175.7500  138.5320 C   0  0  0  0  0  2  0  0  0  0  0  0
  191.1450  173.8910  135.5310 C   0  0  1  0  0  3  0  0  0  0  0  0
  190.0080  177.2750  139.7950 C   0  0  0  0  0  0  0  0  0  0  0  0
  186.7900  178.2340  136.0650 N   0  0  0  0  0  1  0  0  0  0  0  0
  190.7530  174.7450  136.4730 C   0  0  0  0  0  0  0  0  0  0  0  0
  187.9860  177.0110  137.7820 C   0  0  0  0  0  0  0  0  0  0  0  0
  187.7900  177.7670  138.8660 C   0  0  0  0  0  3  0  0  0  0  0  0
  189.4530  175.4640  136.5790 C   0  0  0  0  0  0  0  0  0  0  0  0
  195.8300  173.4870  137.3740 N   0  0  0  0  0  0  0  0  0  0  0  0
  195.5040  174.7180  137.1340 C   0  0  0  0  0  3  0  0  0  0  0  0
  194.1340  175.1230  137.0920 N   0  0  0  0  0  2  0  0  0  0  0  0
  197.4880  171.6120  137.3290 C   0  0  0  0  0  2  0  0  0  0  0  0
  198.2000  174.0710  137.5230 C   0  0  0  0  0  2  0  0  0  0  0  0
  198.9860  171.3150  137.2860 C   0  0  0  0  0  2  0  0  0  0  0  0
  198.9320  174.2250  136.1980 C   0  0  0  0  0  2  0  0  0  0  0  0
  200.0860  173.2340  136.1040 C   0  0  0  0  0  2  0  0  0  0  0  0
  199.5950  171.7980  135.9750 C   0  0  0  0  0  2  0  0  0  0  0  0
  197.1670  173.0480  137.4160 N   0  0  0  0  0  0  0  0  0  0  0  0
  191.0210  177.4470  140.8830 C   0  0  0  0  0  2  0  0  0  0  0  0
  190.4420  176.9950  142.2240 C   0  0  1  0  0  3  0  0  0  0  0  0
  191.8200  175.6960  143.7310 C   0  0  0  0  0  1  0  0  0  0  0  0
  190.8640  175.6500  142.6280 N   0  0  0  0  0  2  0  0  0  0  0  0
  190.5640  178.0330  143.3450 C   0  0  0  0  0  2  0  0  0  0  0  0
  189.4290  177.9980  144.2560 N   0  0  0  0  0  0  0  0  0  0  0  0
  188.2720  177.6890  146.1920 C   0  0  0  0  0  0  0  0  0  0  0  0
  188.0540  177.9810  143.9050 C   0  0  0  0  0  0  0  0  0  0  0  0
  187.2800  177.7980  145.1160 C   0  0  0  0  0  0  0  0  0  0  0  0
  187.6100  178.0680  142.7270 O   0  0  0  0  0  0  0  0  0  0  0  0
  189.4980  177.7970  145.6740 C   0  0  0  0  0  3  0  0  0  0  0  0
  185.9900  177.7530  145.2360 N   0  0  0  0  0  0  0  0  0  0  0  0
  188.7220  178.2260  148.5620 C   0  0  0  0  0  1  0  0  0  0  0  0
  188.0320  177.5000  147.5570 O   0  0  0  0  0  0  0  0  0  0  0  0
  185.1610  177.8670  144.1430 O   0  0  0  0  0  0  0  0  0  0  0  0
  183.2670  179.1750  144.8320 C   0  0  0  0  0  1  0  0  0  0  0  0
  184.4620  179.0770  143.9010 C   0  0  2  0  0  3  0  0  0  0  0  0
  184.0140  179.1550  142.4440 C   0  0  0  0  0  2  0  0  0  0  0  0
  185.0890  179.4780  141.6080 O   0  0  0  0  0  1  0  0  0  0  0  0
  1  2  1  0  0  0  0
  2 14  1  6  0  0  0
  2 16  1  0  0  0  0
  4 16  1  0  0  0  0
  4  8  1  0  0  0  0
  5 10  1  0  0  0  0
  6  1  2  0  0  0  0
  6 18  1  0  0  0  0
  8 13  1  0  0  0  0
  9 11  1  0  0  0  0
 10 21  1  6  0  0  0
 10  9  1  0  0  0  0
 11  8  1  0  0  0  0
 12  7  1  1  0  0  0
 12  5  1  0  0  0  0
 12 15  1  0  0  0  0
 13  3  2  0  0  0  0
 13 29  1  0  0  0  0
 15 18  1  0  0  0  0
 15  9  2  0  0  0  0
 16 17  2  0  0  0  0
 17  3  1  0  0  0  0
 18  4  2  0  0  0  0
 19 28  1  0  0  0  0
 20 19  2  0  0  0  0
 21 20  1  0  0  0  0
 22 28  1  0  0  0  0
 24 22  1  0  0  0  0
 25 23  1  0  0  0  0
 26 25  1  0  0  0  0
 27 26  1  0  0  0  0
 27 24  1  0  0  0  0
 28 23  1  0  0  0  0
 30 29  1  6  0  0  0
 30 32  1  0  0  0  0
 30 33  1  0  0  0  0
 32 31  1  0  0  0  0
 33 34  1  0  0  0  0
 34 39  1  0  0  0  0
 35 42  1  0  0  0  0
 36 34  1  0  0  0  0
 36 37  1  0  0  0  0
 37 40  2  0  0  0  0
 37 35  1  0  0  0  0
 38 36  2  0  0  0  0
 39 35  2  0  0  0  0
 42 41  1  0  0  0  0
 43 40  1  0  0  0  0
 45 43  1  0  0  0  0
 45 44  1  1  0  0  0
 46 45  1  0  0  0  0
 47 46  1  0  0  0  0
M  END
>  <MODEL>
7

>  <REMARK>
 VINA RESULT:      -7.4      4.547     11.736
  Name = 
  11 active torsions:
  status: ('A' for Active; 'I' for Inactive)
    1  A    between atoms: N_3  and  C_45
    2  A    between atoms: N_8  and  N_47
    3  A    between atoms: O_11  and  C_15
    4  A    between atoms: C_14  and  C_41
    5  A    between atoms: C_20  and  C_32
    6  A    between atoms: C_20  and  C_35
    7  A    between atoms: C_28  and  N_40
    8  A    between atoms: O_31  and  N_33
    9  A    between atoms: O_31  and  C_41
   10  A    between atoms: C_35  and  N_42
   11  A    between atoms: C_35  and  C_45
                            x       y       z     vdW  Elec       q    Type
                         _______ _______ _______ _____ _____    ______ ____

>  <TORSDO>
F 11

$$$$
=
 OpenBabel10222421413D

 47 52  0  0  1  0  0  0  0  0999 V2000
  180.0830  177.2410  140.2670 N   0  0  0  0  0  0  0  0  0  0  0  0
  180.2370  176.8450  138.8630 C   0  0  2  0  0  3  0  0  0  0  0  0
  183.1560  177.4100  136.4280 C   0  0  0  0  0  3  0  0  0  0  0  0
  182.6450  177.7380  139.1880 C   0  0  0  0  0  0  0  0  0  0  0  0
  185.0030  179.3940  143.3190 S   0  0  0  0  0  0  0  0  0  0  0  0
  181.0350  177.7170  141.0140 C   0  0  0  0  0  3  0  0  0  0  0  0
  182.2780  178.5900  143.5280 C   0  0  0  0  0  1  0  0  0  0  0  0
  183.9480  178.0260  138.6200 N   0  0  0  0  0  0  0  0  0  0  0  0
  184.8020  178.7160  140.7560 C   0  0  0  0  0  0  0  0  0  0  0  0
  185.8370  179.2190  141.6960 C   0  0  2  0  0  3  0  0  0  0  0  0
  185.0150  178.5120  139.4570 C   0  0  0  0  0  2  0  0  0  0  0  0
  183.4670  178.7560  142.6460 C   0  0  1  0  0  3  0  0  0  0  0  0
  184.1560  177.8440  137.2030 C   0  0  0  0  0  0  0  0  0  0  0  0
  180.0470  175.4090  138.7460 N   0  0  0  0  0  1  0  0  0  0  0  0
  183.4990  178.4680  141.3470 C   0  0  0  0  0  0  0  0  0  0  0  0
  181.5790  177.2330  138.2990 C   0  0  0  0  0  0  0  0  0  0  0  0
  181.8300  177.0880  136.9950 C   0  0  0  0  0  3  0  0  0  0  0  0
  182.3950  177.9520  140.4920 C   0  0  0  0  0  0  0  0  0  0  0  0
  186.8930  178.1710  144.1740 N   0  0  0  0  0  0  0  0  0  0  0  0
  187.3980  177.7570  143.0540 C   0  0  0  0  0  3  0  0  0  0  0  0
  186.9210  178.2520  141.8020 N   0  0  0  0  0  2  0  0  0  0  0  0
  188.7340  177.2990  145.6270 C   0  0  0  0  0  2  0  0  0  0  0  0
  186.3480  177.6620  146.5020 C   0  0  0  0  0  2  0  0  0  0  0  0
  189.0670  176.9140  147.0680 C   0  0  0  0  0  2  0  0  0  0  0  0
  186.6160  178.7730  147.5070 C   0  0  0  0  0  2  0  0  0  0  0  0
  187.6170  178.3140  148.5600 C   0  0  0  0  0  2  0  0  0  0  0  0
  189.0140  178.1350  147.9790 C   0  0  0  0  0  2  0  0  0  0  0  0
  187.3310  177.7020  145.4270 N   0  0  0  0  0  0  0  0  0  0  0  0
  185.4770  178.1520  136.5710 C   0  0  0  0  0  2  0  0  0  0  0  0
  186.5030  177.0770  136.9350 C   0  0  1  0  0  3  0  0  0  0  0  0
  186.0620  175.2370  135.4270 C   0  0  0  0  0  1  0  0  0  0  0  0
  185.9960  175.7080  136.8080 N   0  0  0  0  0  2  0  0  0  0  0  0
  187.8800  177.2780  136.2920 C   0  0  0  0  0  2  0  0  0  0  0  0
  188.9620  176.8180  137.1500 N   0  0  0  0  0  0  0  0  0  0  0  0
  190.5700  175.4350  137.9780 C   0  0  0  0  0  0  0  0  0  0  0  0
  189.3210  177.3340  138.4220 C   0  0  0  0  0  0  0  0  0  0  0  0
  190.3540  176.4860  138.9800 C   0  0  0  0  0  0  0  0  0  0  0  0
  188.7830  178.3360  138.9710 O   0  0  0  0  0  0  0  0  0  0  0  0
  189.7530  175.6410  136.9420 C   0  0  0  0  0  3  0  0  0  0  0  0
  190.9720  176.6240  140.1110 N   0  0  0  0  0  0  0  0  0  0  0  0
  192.2050  173.9150  136.9180 C   0  0  0  0  0  1  0  0  0  0  0  0
  191.4680  174.3660  138.0450 O   0  0  0  0  0  0  0  0  0  0  0  0
  190.6770  177.6590  140.9710 O   0  0  0  0  0  0  0  0  0  0  0  0
  191.6020  178.1510  143.1330 C   0  0  0  0  0  1  0  0  0  0  0  0
  190.5240  177.4120  142.3590 C   0  0  2  0  0  3  0  0  0  0  0  0
  190.5880  175.9150  142.6480 C   0  0  0  0  0  2  0  0  0  0  0  0
  191.4930  175.6450  143.6810 O   0  0  0  0  0  1  0  0  0  0  0  0
  1  6  2  0  0  0  0
  2 14  1  1  0  0  0
  2  1  1  0  0  0  0
  3 17  1  0  0  0  0
  3 13  2  0  0  0  0
  4 18  2  0  0  0  0
  8  4  1  0  0  0  0
  8 11  1  0  0  0  0
  9 15  2  0  0  0  0
  9 10  1  0  0  0  0
 10 21  1  1  0  0  0
 10  5  1  0  0  0  0
 11  9  1  0  0  0  0
 12  5  1  0  0  0  0
 12  7  1  6  0  0  0
 13  8  1  0  0  0  0
 15 12  1  0  0  0  0
 16  2  1  0  0  0  0
 16  4  1  0  0  0  0
 17 16  2  0  0  0  0
 18  6  1  0  0  0  0
 18 15  1  0  0  0  0
 19 28  1  0  0  0  0
 20 19  2  0  0  0  0
 21 20  1  0  0  0  0
 22 24  1  0  0  0  0
 23 25  1  0  0  0  0
 24 27  1  0  0  0  0
 25 26  1  0  0  0  0
 27 26  1  0  0  0  0
 28 22  1  0  0  0  0
 28 23  1  0  0  0  0
 29 30  1  0  0  0  0
 29 13  1  0  0  0  0
 30 33  1  6  0  0  0
 31 32  1  0  0  0  0
 32 30  1  0  0  0  0
 33 34  1  0  0  0  0
 34 36  1  0  0  0  0
 35 42  1  0  0  0  0
 35 37  1  0  0  0  0
 36 38  2  0  0  0  0
 36 37  1  0  0  0  0
 37 40  2  0  0  0  0
 39 34  1  0  0  0  0
 39 35  2  0  0  0  0
 40 43  1  0  0  0  0
 41 42  1  0  0  0  0
 43 45  1  0  0  0  0
 45 46  1  0  0  0  0
 45 44  1  1  0  0  0
 46 47  1  0  0  0  0
M  END
>  <MODEL>
8

>  <REMARK>
 VINA RESULT:      -7.4      2.949      7.616
  Name = 
  11 active torsions:
  status: ('A' for Active; 'I' for Inactive)
    1  A    between atoms: N_3  and  C_45
    2  A    between atoms: N_8  and  N_47
    3  A    between atoms: O_11  and  C_15
    4  A    between atoms: C_14  and  C_41
    5  A    between atoms: C_20  and  C_32
    6  A    between atoms: C_20  and  C_35
    7  A    between atoms: C_28  and  N_40
    8  A    between atoms: O_31  and  N_33
    9  A    between atoms: O_31  and  C_41
   10  A    between atoms: C_35  and  N_42
   11  A    between atoms: C_35  and  C_45
                            x       y       z     vdW  Elec       q    Type
                         _______ _______ _______ _____ _____    ______ ____

>  <TORSDO>
F 11

$$$$
=
 OpenBabel10222421413D

 47 52  0  0  1  0  0  0  0  0999 V2000
  194.6930  173.9850  136.4210 N   0  0  0  0  0  0  0  0  0  0  0  0
  194.5550  175.0640  137.4060 C   0  0  0  0  0  0  0  0  0  0  0  0
  191.4250  176.9270  138.6300 C   0  0  0  0  0  3  0  0  0  0  0  0
  192.0230  174.6690  137.0400 C   0  0  2  0  0  3  0  0  0  0  0  0
  189.6010  171.1600  134.3590 S   0  0  0  0  0  0  0  0  0  0  0  0
  193.7020  173.3210  135.9030 C   0  0  0  0  0  3  0  0  0  0  0  0
  192.4500  171.1680  134.3470 C   0  0  0  0  0  1  0  0  0  0  0  0
  190.6540  175.0480  137.3320 N   0  0  0  0  0  0  0  0  0  0  0  0
  189.7990  173.2370  136.0080 C   0  0  0  0  0  0  0  0  0  0  0  0
  188.7350  172.3940  135.4020 C   0  0  2  0  0  3  0  0  0  0  0  0
  189.5580  174.2850  136.7930 C   0  0  0  0  0  2  0  0  0  0  0  0
  191.2010  171.8030  134.8530 C   0  0  1  0  0  3  0  0  0  0  0  0
  190.4030  176.2120  138.1480 C   0  0  0  0  0  0  0  0  0  0  0  0
  195.1410  174.6390  138.6670 N   0  0  0  0  0  1  0  0  0  0  0  0
  191.1570  172.8530  135.6700 C   0  0  0  0  0  0  0  0  0  0  0  0
  193.1210  175.4710  137.6180 C   0  0  0  0  0  0  0  0  0  0  0  0
  192.8260  176.5400  138.3630 C   0  0  0  0  0  3  0  0  0  0  0  0
  192.2970  173.6270  136.2350 C   0  0  0  0  0  0  0  0  0  0  0  0
  186.0080  172.9900  136.1500 N   0  0  0  0  0  0  0  0  0  0  0  0
  186.6340  172.0410  136.7730 C   0  0  0  0  0  3  0  0  0  0  0  0
  187.9860  171.7140  136.4490 N   0  0  0  0  0  2  0  0  0  0  0  0
  184.0990  174.5920  135.9190 C   0  0  0  0  0  2  0  0  0  0  0  0
  183.8970  172.3940  137.2310 C   0  0  0  0  0  2  0  0  0  0  0  0
  182.6140  174.7670  136.2320 C   0  0  0  0  0  2  0  0  0  0  0  0
  182.8810  171.6730  136.3560 C   0  0  0  0  0  2  0  0  0  0  0  0
  181.5910  172.4770  136.2580 C   0  0  0  0  0  2  0  0  0  0  0  0
  181.7760  173.7580  135.4550 C   0  0  0  0  0  2  0  0  0  0  0  0
  184.6740  173.3370  136.4350 N   0  0  0  0  0  0  0  0  0  0  0  0
  189.0070  176.6530  138.4540 C   0  0  0  0  0  2  0  0  0  0  0  0
  189.0190  178.0290  139.1220 C   0  0  1  0  0  3  0  0  0  0  0  0
  188.6340  178.7230  136.8360 C   0  0  0  0  0  1  0  0  0  0  0  0
  189.0370  179.1470  138.1740 N   0  0  0  0  0  2  0  0  0  0  0  0
  187.9830  178.1960  140.2400 C   0  0  0  0  0  2  0  0  0  0  0  0
  188.5610  178.0010  141.5620 N   0  0  0  0  0  0  0  0  0  0  0  0
  190.1140  177.4750  143.1410 C   0  0  0  0  0  0  0  0  0  0  0  0
  187.8600  177.8710  142.7890 C   0  0  0  0  0  0  0  0  0  0  0  0
  188.8180  177.5470  143.8260 C   0  0  0  0  0  0  0  0  0  0  0  0
  186.6090  177.9800  142.9180 O   0  0  0  0  0  0  0  0  0  0  0  0
  189.9410  177.7290  141.8420 C   0  0  0  0  0  3  0  0  0  0  0  0
  188.5920  177.3700  145.0900 N   0  0  0  0  0  0  0  0  0  0  0  0
  191.9060  175.8760  143.7280 C   0  0  0  0  0  1  0  0  0  0  0  0
  191.3610  177.1870  143.7060 O   0  0  0  0  0  0  0  0  0  0  0  0
  187.3220  177.4650  145.6140 O   0  0  0  0  0  0  0  0  0  0  0  0
  187.7030  177.4240  147.9860 C   0  0  0  0  0  1  0  0  0  0  0  0
  187.0980  178.1810  146.8170 C   0  0  2  0  0  3  0  0  0  0  0  0
  185.6050  178.4030  147.0390 C   0  0  0  0  0  2  0  0  0  0  0  0
  185.1450  179.4890  146.2860 O   0  0  0  0  0  1  0  0  0  0  0  0
  1  2  2  0  0  0  0
  2 16  1  0  0  0  0
  2 14  1  0  0  0  0
  4 18  1  6  0  0  0
  4  8  1  0  0  0  0
  4 16  1  0  0  0  0
  5 12  1  0  0  0  0
  5 10  1  0  0  0  0
  6 18  2  0  0  0  0
  6  1  1  0  0  0  0
  8 13  1  0  0  0  0
  9 11  1  0  0  0  0
 10  9  1  0  0  0  0
 10 21  1  1  0  0  0
 11  8  1  0  0  0  0
 12  7  1  6  0  0  0
 12 15  1  0  0  0  0
 13 29  1  0  0  0  0
 13  3  2  0  0  0  0
 15  9  2  0  0  0  0
 15 18  1  0  0  0  0
 16 17  2  0  0  0  0
 17  3  1  0  0  0  0
 19 28  1  0  0  0  0
 19 20  2  0  0  0  0
 21 20  1  0  0  0  0
 22 24  1  0  0  0  0
 22 28  1  0  0  0  0
 25 23  1  0  0  0  0
 26 25  1  0  0  0  0
 27 24  1  0  0  0  0
 27 26  1  0  0  0  0
 28 23  1  0  0  0  0
 30 29  1  6  0  0  0
 30 33  1  0  0  0  0
 31 32  1  0  0  0  0
 32 30  1  0  0  0  0
 33 34  1  0  0  0  0
 34 39  1  0  0  0  0
 34 36  1  0  0  0  0
 35 42  1  0  0  0  0
 35 37  1  0  0  0  0
 36 38  2  0  0  0  0
 36 37  1  0  0  0  0
 37 40  2  0  0  0  0
 39 35  2  0  0  0  0
 40 43  1  0  0  0  0
 42 41  1  0  0  0  0
 43 45  1  0  0  0  0
 45 46  1  0  0  0  0
 45 44  1  1  0  0  0
 47 46  1  0  0  0  0
M  END
>  <MODEL>
9

>  <REMARK>
 VINA RESULT:      -7.4      4.253      8.657
  Name = 
  11 active torsions:
  status: ('A' for Active; 'I' for Inactive)
    1  A    between atoms: N_3  and  C_45
    2  A    between atoms: N_8  and  N_47
    3  A    between atoms: O_11  and  C_15
    4  A    between atoms: C_14  and  C_41
    5  A    between atoms: C_20  and  C_32
    6  A    between atoms: C_20  and  C_35
    7  A    between atoms: C_28  and  N_40
    8  A    between atoms: O_31  and  N_33
    9  A    between atoms: O_31  and  C_41
   10  A    between atoms: C_35  and  N_42
   11  A    between atoms: C_35  and  C_45
                            x       y       z     vdW  Elec       q    Type
                         _______ _______ _______ _____ _____    ______ ____

>  <TORSDO>
F 11

$$$$
