=
 OpenBabel10232411073D

 39 44  0  0  1  0  0  0  0  0999 V2000
  182.8770  179.2560  145.2860 O   0  0  0  0  0  0  0  0  0  0  0  0
  188.1590  177.8790  145.1820 C   0  0  0  0  0  3  0  0  0  0  0  0
  186.0330  178.1510  144.1850 C   0  0  0  0  0  0  0  0  0  0  0  0
  183.0420  178.4470  142.1930 C   0  0  0  0  0  1  0  0  0  0  0  0
  184.8430  179.0400  146.4380 N   0  0  0  0  0  0  0  0  0  0  0  0
  189.2040  178.0340  140.8970 C   0  0  2  0  0  3  0  0  0  0  0  0
  185.4760  177.7940  142.1260 N   0  0  0  0  0  0  0  0  0  0  0  0
  190.1210  177.0530  143.7630 C   0  0  2  0  0  3  0  0  0  0  0  0
  187.7700  177.3760  142.8060 C   0  0  0  0  0  0  0  0  0  0  0  0
  186.4750  177.7470  143.0020 N   0  0  0  0  0  0  0  0  0  0  0  0
  190.5950  177.7960  141.4340 C   0  0  0  0  0  0  0  0  0  0  0  0
  188.2350  176.9870  141.4350 C   0  0  0  0  0  2  0  0  0  0  0  0
  192.2570  178.0240  143.1210 O   0  0  0  0  0  1  0  0  0  0  0  0
  184.7290  178.4780  144.1340 C   0  0  0  0  0  0  0  0  0  0  0  0
  186.1800  178.7060  146.4770 C   0  0  0  0  0  3  0  0  0  0  0  0
  190.8770  178.0690  142.8870 C   0  0  2  0  0  3  0  0  0  0  0  0
  188.6590  177.4260  143.9250 C   0  0  0  0  0  0  0  0  0  0  0  0
  184.3810  178.2430  142.8070 C   0  0  0  0  0  0  0  0  0  0  0  0
  184.0950  178.9380  145.2890 C   0  0  0  0  0  0  0  0  0  0  0  0
  186.8130  178.2440  145.3090 C   0  0  0  0  0  0  0  0  0  0  0  0
  191.4580  177.2920  140.7280 O   0  0  0  0  0  0  0  0  0  0  0  0
  192.0930  176.1180  147.4900 C   0  0  0  0  0  0  0  0  0  0  0  0
  191.7060  175.6270  145.1430 C   0  0  0  0  0  3  0  0  0  0  0  0
  192.3430  175.3380  146.3530 C   0  0  0  0  0  3  0  0  0  0  0  0
  190.8080  176.7030  145.0590 C   0  0  0  0  0  0  0  0  0  0  0  0
  190.5620  177.4860  146.1900 C   0  0  0  0  0  3  0  0  0  0  0  0
  191.1990  177.1950  147.4000 C   0  0  0  0  0  3  0  0  0  0  0  0
  193.4740  176.8280  149.4700 N   0  0  0  0  0  1  0  0  0  0  0  0
  192.7660  175.8120  148.7650 C   0  0  0  0  0  0  0  0  0  0  0  0
  192.7190  174.6490  149.2460 O   0  0  0  0  0  0  0  0  0  0  0  0
  188.7590  176.7200  137.6580 C   0  0  0  0  0  2  0  0  0  0  0  0
  189.6180  177.0170  138.7350 O   0  0  0  0  0  0  0  0  0  0  0  0
  189.1050  178.1640  139.3700 C   0  0  1  0  0  3  0  0  0  0  0  0
  187.7010  178.4360  138.8790 C   0  0  0  0  0  2  0  0  0  0  0  0
  187.6980  177.7920  137.5360 C   0  0  2  0  0  3  0  0  0  0  0  0
  185.7660  177.2360  136.0000 C   0  0  0  0  0  0  0  0  0  0  0  0
  184.4430  176.5900  135.8110 C   0  0  0  0  0  1  0  0  0  0  0  0
  186.3980  177.1910  137.2810 N   0  0  0  0  0  2  0  0  0  0  0  0
  186.3200  177.8220  135.0310 O   0  0  0  0  0  0  0  0  0  0  0  0
  1 19  2  0  0  0  0
  2 20  2  0  0  0  0
  3 20  1  0  0  0  0
  4 18  1  0  0  0  0
  5 15  2  0  0  0  0
  6 11  1  0  0  0  0
  6 12  1  6  0  0  0
  7 18  2  0  0  0  0
  7 10  1  0  0  0  0
  8 17  1  0  0  0  0
  8 25  1  1  0  0  0
  9 10  1  0  0  0  0
  9 17  2  0  0  0  0
 10  3  1  0  0  0  0
 11 16  1  0  0  0  0
 12  9  1  0  0  0  0
 14  3  2  0  0  0  0
 14 19  1  0  0  0  0
 16 13  1  6  0  0  0
 16  8  1  0  0  0  0
 17  2  1  0  0  0  0
 18 14  1  0  0  0  0
 19  5  1  0  0  0  0
 20 15  1  0  0  0  0
 21 11  2  0  0  0  0
 22 29  1  0  0  0  0
 23 24  1  0  0  0  0
 24 22  2  0  0  0  0
 25 23  2  0  0  0  0
 25 26  1  0  0  0  0
 26 27  2  0  0  0  0
 27 22  1  0  0  0  0
 29 30  2  0  0  0  0
 29 28  1  0  0  0  0
 31 32  1  0  0  0  0
 32 33  1  0  0  0  0
 33 34  1  1  0  0  0
 33  6  1  0  0  0  0
 35 38  1  1  0  0  0
 35 31  1  0  0  0  0
 35 34  1  0  0  0  0
 36 38  1  0  0  0  0
 37 36  1  0  0  0  0
 39 36  2  0  0  0  0
M  END
>  <MODEL>
1

>  <REMARK>
 VINA RESULT:      -9.9      0.000      0.000
  Name = 
  4 active torsions:
  status: ('A' for Active; 'I' for Inactive)
    1  A    between atoms: C_3  and  C_9
    2  A    between atoms: C_11  and  C_19
    3  A    between atoms: C_12  and  C_22
    4  A    between atoms: N_15  and  C_35
                            x       y       z     vdW  Elec       q    Type
                         _______ _______ _______ _____ _____    ______ ____

>  <TORSDO>
F 4

$$$$
=
 OpenBabel10232411073D

 39 44  0  0  1  0  0  0  0  0999 V2000
  190.3390  177.3780  147.8330 O   0  0  0  0  0  0  0  0  0  0  0  0
  190.5390  177.2720  142.3780 C   0  0  0  0  0  3  0  0  0  0  0  0
  189.3900  177.3110  144.4430 C   0  0  0  0  0  0  0  0  0  0  0  0
  187.1850  177.4340  147.2930 C   0  0  0  0  0  1  0  0  0  0  0  0
  191.6320  177.3170  145.9450 N   0  0  0  0  0  0  0  0  0  0  0  0
  186.5590  178.7300  141.1490 C   0  0  2  0  0  3  0  0  0  0  0  0
  187.2540  177.3720  144.7740 N   0  0  0  0  0  0  0  0  0  0  0  0
  189.2070  177.2840  140.1930 C   0  0  2  0  0  3  0  0  0  0  0  0
  188.0820  177.3120  142.4920 C   0  0  0  0  0  0  0  0  0  0  0  0
  188.2050  177.3270  143.8470 N   0  0  0  0  0  0  0  0  0  0  0  0
  187.1860  178.6770  139.7770 C   0  0  0  0  0  0  0  0  0  0  0  0
  186.7230  177.3950  141.8660 C   0  0  0  0  0  2  0  0  0  0  0  0
  189.0630  178.8330  138.3230 O   0  0  0  0  0  1  0  0  0  0  0  0
  189.2640  177.3450  145.7830 C   0  0  0  0  0  0  0  0  0  0  0  0
  191.7490  177.2880  144.5710 C   0  0  0  0  0  3  0  0  0  0  0  0
  188.6850  178.6300  139.6560 C   0  0  2  0  0  3  0  0  0  0  0  0
  189.2790  177.2730  141.7090 C   0  0  0  0  0  0  0  0  0  0  0  0
  187.8870  177.3820  145.9830 C   0  0  0  0  0  0  0  0  0  0  0  0
  190.4110  177.3470  146.5760 C   0  0  0  0  0  0  0  0  0  0  0  0
  190.5890  177.2870  143.7770 C   0  0  0  0  0  0  0  0  0  0  0  0
  186.4880  178.5710  138.7770 O   0  0  0  0  0  0  0  0  0  0  0  0
  192.8170  175.9010  138.2670 C   0  0  0  0  0  0  0  0  0  0  0  0
  190.4080  175.7680  138.5480 C   0  0  0  0  0  3  0  0  0  0  0  0
  191.5810  175.3320  137.9270 C   0  0  0  0  0  3  0  0  0  0  0  0
  190.4590  176.7790  139.5200 C   0  0  0  0  0  0  0  0  0  0  0  0
  191.6890  177.3520  139.8560 C   0  0  0  0  0  3  0  0  0  0  0  0
  192.8610  176.9150  139.2340 C   0  0  0  0  0  3  0  0  0  0  0  0
  194.5670  176.1300  136.4740 N   0  0  0  0  0  1  0  0  0  0  0  0
  194.0540  175.4410  137.6110 C   0  0  0  0  0  0  0  0  0  0  0  0
  194.6710  174.4350  138.0510 O   0  0  0  0  0  0  0  0  0  0  0  0
  183.4580  179.4670  139.6480 C   0  0  0  0  0  2  0  0  0  0  0  0
  184.7630  179.8740  139.9880 O   0  0  0  0  0  0  0  0  0  0  0  0
  185.1030  179.2160  141.1860 C   0  0  1  0  0  3  0  0  0  0  0  0
  184.1070  178.1130  141.4630 C   0  0  0  0  0  2  0  0  0  0  0  0
  182.8940  178.5820  140.7370 C   0  0  2  0  0  3  0  0  0  0  0  0
  180.8490  177.1140  140.4900 C   0  0  0  0  0  0  0  0  0  0  0  0
  180.1980  175.9440  139.8480 C   0  0  0  0  0  1  0  0  0  0  0  0
  182.1980  177.4440  140.1560 N   0  0  0  0  0  2  0  0  0  0  0  0
  180.2060  177.8050  141.3270 O   0  0  0  0  0  0  0  0  0  0  0  0
  2 20  2  0  0  0  0
  3 14  2  0  0  0  0
  5 19  1  0  0  0  0
  6 33  1  0  0  0  0
  6 12  1  6  0  0  0
  7 18  2  0  0  0  0
  8 25  1  6  0  0  0
  8 17  1  0  0  0  0
  9 10  1  0  0  0  0
 10  3  1  0  0  0  0
 10  7  1  0  0  0  0
 11  6  1  0  0  0  0
 12  9  1  0  0  0  0
 14 18  1  0  0  0  0
 14 19  1  0  0  0  0
 15  5  2  0  0  0  0
 16 13  1  6  0  0  0
 16 11  1  0  0  0  0
 16  8  1  0  0  0  0
 17  2  1  0  0  0  0
 17  9  2  0  0  0  0
 18  4  1  0  0  0  0
 19  1  2  0  0  0  0
 20  3  1  0  0  0  0
 20 15  1  0  0  0  0
 21 11  2  0  0  0  0
 22 27  1  0  0  0  0
 23 25  2  0  0  0  0
 24 22  2  0  0  0  0
 24 23  1  0  0  0  0
 25 26  1  0  0  0  0
 27 26  2  0  0  0  0
 28 29  1  0  0  0  0
 29 30  2  0  0  0  0
 29 22  1  0  0  0  0
 31 32  1  0  0  0  0
 31 35  1  0  0  0  0
 32 33  1  0  0  0  0
 33 34  1  6  0  0  0
 35 38  1  6  0  0  0
 35 34  1  0  0  0  0
 36 39  2  0  0  0  0
 37 36  1  0  0  0  0
 38 36  1  0  0  0  0
M  END
>  <MODEL>
2

>  <REMARK>
 VINA RESULT:      -9.8      3.067      6.342
  Name = 
  4 active torsions:
  status: ('A' for Active; 'I' for Inactive)
    1  A    between atoms: C_3  and  C_9
    2  A    between atoms: C_11  and  C_19
    3  A    between atoms: C_12  and  C_22
    4  A    between atoms: N_15  and  C_35
                            x       y       z     vdW  Elec       q    Type
                         _______ _______ _______ _____ _____    ______ ____

>  <TORSDO>
F 4

$$$$
=
 OpenBabel10232411073D

 39 44  0  0  1  0  0  0  0  0999 V2000
  191.0500  176.7680  136.6910 O   0  0  0  0  0  0  0  0  0  0  0  0
  189.6640  176.9820  141.9670 C   0  0  0  0  0  3  0  0  0  0  0  0
  189.3880  177.5590  139.6930 C   0  0  0  0  0  0  0  0  0  0  0  0
  188.5020  178.6800  136.3820 C   0  0  0  0  0  1  0  0  0  0  0  0
  191.4990  176.1120  138.8380 N   0  0  0  0  0  0  0  0  0  0  0  0
  185.4600  178.3250  141.8990 C   0  0  2  0  0  3  0  0  0  0  0  0
  187.8520  178.8030  138.8140 N   0  0  0  0  0  0  0  0  0  0  0  0
  188.0210  177.8890  143.7070 C   0  0  2  0  0  3  0  0  0  0  0  0
  187.8380  178.4490  141.2170 C   0  0  0  0  0  0  0  0  0  0  0  0
  188.3180  178.2990  139.9520 N   0  0  0  0  0  0  0  0  0  0  0  0
  185.5580  178.0470  143.3800 C   0  0  0  0  0  0  0  0  0  0  0  0
  186.5900  179.2450  141.4510 C   0  0  0  0  0  2  0  0  0  0  0  0
  186.4410  176.8420  145.2320 O   0  0  0  0  0  1  0  0  0  0  0  0
  189.6660  177.5470  138.3750 C   0  0  0  0  0  0  0  0  0  0  0  0
  191.2010  176.1270  140.1840 C   0  0  0  0  0  3  0  0  0  0  0  0
  186.6710  177.1720  143.8910 C   0  0  2  0  0  3  0  0  0  0  0  0
  188.5260  177.7840  142.2800 C   0  0  0  0  0  0  0  0  0  0  0  0
  188.6740  178.3510  137.8220 C   0  0  0  0  0  0  0  0  0  0  0  0
  190.7540  176.8070  137.9140 C   0  0  0  0  0  0  0  0  0  0  0  0
  190.1020  176.8750  140.6420 C   0  0  0  0  0  0  0  0  0  0  0  0
  184.8070  178.6040  144.1690 O   0  0  0  0  0  0  0  0  0  0  0  0
  191.0180  176.8740  146.6470 C   0  0  0  0  0  0  0  0  0  0  0  0
  188.7920  177.6880  146.1180 C   0  0  0  0  0  3  0  0  0  0  0  0
  189.7670  177.3510  147.0610 C   0  0  0  0  0  3  0  0  0  0  0  0
  189.0600  177.5530  144.7470 C   0  0  0  0  0  0  0  0  0  0  0  0
  190.3050  177.0720  144.3320 C   0  0  0  0  0  3  0  0  0  0  0  0
  191.2790  176.7360  145.2760 C   0  0  0  0  0  3  0  0  0  0  0  0
  192.7610  175.2900  147.5330 N   0  0  0  0  0  1  0  0  0  0  0  0
  192.0460  176.5180  147.6410 C   0  0  0  0  0  0  0  0  0  0  0  0
  192.3030  177.2980  148.5970 O   0  0  0  0  0  0  0  0  0  0  0  0
  183.1650  179.2590  139.3940 C   0  0  0  0  0  2  0  0  0  0  0  0
  184.2290  179.6080  140.2500 O   0  0  0  0  0  0  0  0  0  0  0  0
  184.0930  178.8310  141.4170 C   0  0  1  0  0  3  0  0  0  0  0  0
  183.0910  177.7240  141.1800 C   0  0  0  0  0  2  0  0  0  0  0  0
  182.2430  178.2820  140.0900 C   0  0  2  0  0  3  0  0  0  0  0  0
  180.7090  176.3900  139.4080 C   0  0  0  0  0  0  0  0  0  0  0  0
  180.3600  175.3320  138.4270 C   0  0  0  0  0  1  0  0  0  0  0  0
  181.8500  177.2190  139.1780 N   0  0  0  0  0  2  0  0  0  0  0  0
  179.9970  176.5470  140.4370 O   0  0  0  0  0  0  0  0  0  0  0  0
  1 19  2  0  0  0  0
  2 17  1  0  0  0  0
  3 10  1  0  0  0  0
  3 20  1  0  0  0  0
  4 18  1  0  0  0  0
  5 15  2  0  0  0  0
  6 12  1  1  0  0  0
  6 11  1  0  0  0  0
  7 10  1  0  0  0  0
  8 16  1  0  0  0  0
  8 25  1  1  0  0  0
  9 12  1  0  0  0  0
  9 17  2  0  0  0  0
 10  9  1  0  0  0  0
 11 16  1  0  0  0  0
 11 21  2  0  0  0  0
 14  3  2  0  0  0  0
 15 20  1  0  0  0  0
 16 13  1  1  0  0  0
 17  8  1  0  0  0  0
 18 14  1  0  0  0  0
 18  7  2  0  0  0  0
 19 14  1  0  0  0  0
 19  5  1  0  0  0  0
 20  2  2  0  0  0  0
 22 24  1  0  0  0  0
 22 29  1  0  0  0  0
 23 24  2  0  0  0  0
 25 23  1  0  0  0  0
 26 25  2  0  0  0  0
 26 27  1  0  0  0  0
 27 22  2  0  0  0  0
 28 29  1  0  0  0  0
 29 30  2  0  0  0  0
 31 35  1  0  0  0  0
 31 32  1  0  0  0  0
 32 33  1  0  0  0  0
 33 34  1  6  0  0  0
 33  6  1  0  0  0  0
 35 38  1  6  0  0  0
 35 34  1  0  0  0  0
 36 39  2  0  0  0  0
 37 36  1  0  0  0  0
 38 36  1  0  0  0  0
M  END
>  <MODEL>
3

>  <REMARK>
 VINA RESULT:      -9.8      2.679      5.718
  Name = 
  4 active torsions:
  status: ('A' for Active; 'I' for Inactive)
    1  A    between atoms: C_3  and  C_9
    2  A    between atoms: C_11  and  C_19
    3  A    between atoms: C_12  and  C_22
    4  A    between atoms: N_15  and  C_35
                            x       y       z     vdW  Elec       q    Type
                         _______ _______ _______ _____ _____    ______ ____

>  <TORSDO>
F 4

$$$$
=
 OpenBabel10232411073D

 39 44  0  0  1  0  0  0  0  0999 V2000
  191.9630  177.2110  140.2690 O   0  0  0  0  0  0  0  0  0  0  0  0
  186.7030  178.4130  141.1030 C   0  0  0  0  0  3  0  0  0  0  0  0
  188.8060  177.5770  141.7840 C   0  0  0  0  0  0  0  0  0  0  0  0
  191.7930  176.2660  143.3220 C   0  0  0  0  0  1  0  0  0  0  0  0
  190.0080  178.0390  139.4130 N   0  0  0  0  0  0  0  0  0  0  0  0
  186.3500  178.6030  145.4980 C   0  0  2  0  0  3  0  0  0  0  0  0
  189.3620  176.8010  143.7250 N   0  0  0  0  0  0  0  0  0  0  0  0
  184.7590  178.4440  142.7670 C   0  0  2  0  0  3  0  0  0  0  0  0
  187.0800  177.5540  143.3770 C   0  0  0  0  0  0  0  0  0  0  0  0
  188.3650  177.3060  143.0050 N   0  0  0  0  0  0  0  0  0  0  0  0
  184.9590  179.0850  145.1640 C   0  0  0  0  0  0  0  0  0  0  0  0
  186.6470  177.2880  144.7870 C   0  0  0  0  0  2  0  0  0  0  0  0
  183.4170  180.2190  143.7490 O   0  0  0  0  0  1  0  0  0  0  0  0
  190.1080  177.2610  141.6540 C   0  0  0  0  0  0  0  0  0  0  0  0
  188.6760  178.3630  139.5600 C   0  0  0  0  0  3  0  0  0  0  0  0
  184.6730  179.6010  143.7790 C   0  0  2  0  0  3  0  0  0  0  0  0
  186.1960  178.1180  142.4030 C   0  0  0  0  0  0  0  0  0  0  0  0
  190.4540  176.7630  142.9060 C   0  0  0  0  0  0  0  0  0  0  0  0
  190.7470  177.4910  140.4350 C   0  0  0  0  0  0  0  0  0  0  0  0
  188.0380  178.1290  140.7910 C   0  0  0  0  0  0  0  0  0  0  0  0
  184.0470  178.9670  145.9720 O   0  0  0  0  0  0  0  0  0  0  0  0
  182.1170  178.7720  139.3650 C   0  0  0  0  0  0  0  0  0  0  0  0
  184.2730  179.2100  140.3950 C   0  0  0  0  0  3  0  0  0  0  0  0
  183.4120  179.3050  139.2990 C   0  0  0  0  0  3  0  0  0  0  0  0
  183.8450  178.5800  141.5740 C   0  0  0  0  0  0  0  0  0  0  0  0
  182.5570  178.0410  141.6410 C   0  0  0  0  0  3  0  0  0  0  0  0
  181.6970  178.1380  140.5440 C   0  0  0  0  0  3  0  0  0  0  0  0
  180.0850  178.0040  138.0960 N   0  0  0  0  0  1  0  0  0  0  0  0
  181.2100  178.8720  138.2080 C   0  0  0  0  0  0  0  0  0  0  0  0
  181.4200  179.7270  137.3080 O   0  0  0  0  0  0  0  0  0  0  0  0
  187.4880  176.9180  148.3750 C   0  0  0  0  0  2  0  0  0  0  0  0
  186.4350  177.2230  147.4900 O   0  0  0  0  0  0  0  0  0  0  0  0
  186.6720  178.5210  146.9970 C   0  0  1  0  0  3  0  0  0  0  0  0
  188.0830  178.9460  147.3340 C   0  0  0  0  0  2  0  0  0  0  0  0
  188.3920  178.1200  148.5350 C   0  0  2  0  0  3  0  0  0  0  0  0
  190.3350  176.9140  147.4550 C   0  0  0  0  0  0  0  0  0  0  0  0
  191.7740  176.5460  147.4840 C   0  0  0  0  0  1  0  0  0  0  0  0
  189.7880  177.7130  148.5050 N   0  0  0  0  0  2  0  0  0  0  0  0
  189.6080  176.5140  146.5050 O   0  0  0  0  0  0  0  0  0  0  0  0
  1 19  2  0  0  0  0
  2 17  1  0  0  0  0
  3 10  1  0  0  0  0
  5 15  2  0  0  0  0
  5 19  1  0  0  0  0
  6 12  1  1  0  0  0
  6 33  1  0  0  0  0
  8 25  1  6  0  0  0
  8 16  1  0  0  0  0
  9 12  1  0  0  0  0
 10  9  1  0  0  0  0
 10  7  1  0  0  0  0
 11  6  1  0  0  0  0
 11 21  2  0  0  0  0
 14  3  2  0  0  0  0
 14 18  1  0  0  0  0
 15 20  1  0  0  0  0
 16 13  1  1  0  0  0
 16 11  1  0  0  0  0
 17  8  1  0  0  0  0
 17  9  2  0  0  0  0
 18  4  1  0  0  0  0
 18  7  2  0  0  0  0
 19 14  1  0  0  0  0
 20  2  2  0  0  0  0
 20  3  1  0  0  0  0
 22 27  1  0  0  0  0
 23 25  2  0  0  0  0
 24 22  2  0  0  0  0
 24 23  1  0  0  0  0
 25 26  1  0  0  0  0
 27 26  2  0  0  0  0
 28 29  1  0  0  0  0
 29 22  1  0  0  0  0
 30 29  2  0  0  0  0
 31 35  1  0  0  0  0
 32 31  1  0  0  0  0
 33 34  1  6  0  0  0
 33 32  1  0  0  0  0
 34 35  1  0  0  0  0
 35 38  1  6  0  0  0
 36 37  1  0  0  0  0
 36 38  1  0  0  0  0
 39 36  2  0  0  0  0
M  END
>  <MODEL>
4

>  <REMARK>
 VINA RESULT:      -9.5      2.601      9.517
  Name = 
  4 active torsions:
  status: ('A' for Active; 'I' for Inactive)
    1  A    between atoms: C_3  and  C_9
    2  A    between atoms: C_11  and  C_19
    3  A    between atoms: C_12  and  C_22
    4  A    between atoms: N_15  and  C_35
                            x       y       z     vdW  Elec       q    Type
                         _______ _______ _______ _____ _____    ______ ____

>  <TORSDO>
F 4

$$$$
=
 OpenBabel10232411073D

 39 44  0  0  1  0  0  0  0  0999 V2000
  182.6760  179.3210  145.5790 O   0  0  0  0  0  0  0  0  0  0  0  0
  187.9410  177.9390  145.1690 C   0  0  0  0  0  3  0  0  0  0  0  0
  185.7560  178.1890  144.3040 C   0  0  0  0  0  0  0  0  0  0  0  0
  182.6430  178.4410  142.5020 C   0  0  0  0  0  1  0  0  0  0  0  0
  184.7120  179.1300  146.6080 N   0  0  0  0  0  0  0  0  0  0  0  0
  188.7100  177.9940  140.8230 C   0  0  2  0  0  3  0  0  0  0  0  0
  185.0690  177.7850  142.2940 N   0  0  0  0  0  0  0  0  0  0  0  0
  189.8100  177.0790  143.6460 C   0  0  2  0  0  3  0  0  0  0  0  0
  187.4010  177.3820  142.8350 C   0  0  0  0  0  0  0  0  0  0  0  0
  186.1210  177.7580  143.1040 N   0  0  0  0  0  0  0  0  0  0  0  0
  190.1320  177.7680  141.2760 C   0  0  0  0  0  0  0  0  0  0  0  0
  187.7780  176.9610  141.4470 C   0  0  0  0  0  2  0  0  0  0  0  0
  191.8990  178.0350  142.8470 O   0  0  0  0  0  1  0  0  0  0  0  0
  184.4510  178.5160  144.3290 C   0  0  0  0  0  0  0  0  0  0  0  0
  186.0490  178.7980  146.5680 C   0  0  0  0  0  3  0  0  0  0  0  0
  190.5070  178.0750  142.7010 C   0  0  2  0  0  3  0  0  0  0  0  0
  188.3610  177.4570  143.8930 C   0  0  0  0  0  0  0  0  0  0  0  0
  184.0190  178.2510  143.0330 C   0  0  0  0  0  0  0  0  0  0  0  0
  183.8920  179.0030  145.5110 C   0  0  0  0  0  0  0  0  0  0  0  0
  186.6060  178.3080  145.3740 C   0  0  0  0  0  0  0  0  0  0  0  0
  190.9490  177.2480  140.5270 O   0  0  0  0  0  0  0  0  0  0  0  0
  192.0160  176.0990  147.2280 C   0  0  0  0  0  0  0  0  0  0  0  0
  190.2640  177.3710  146.1270 C   0  0  0  0  0  3  0  0  0  0  0  0
  190.9800  177.0420  147.2810 C   0  0  0  0  0  3  0  0  0  0  0  0
  190.5790  176.7590  144.9040 C   0  0  0  0  0  0  0  0  0  0  0  0
  191.6070  175.8140  144.8500 C   0  0  0  0  0  3  0  0  0  0  0  0
  192.3230  175.4870  146.0040 C   0  0  0  0  0  3  0  0  0  0  0  0
  193.5160  176.7480  149.1410 N   0  0  0  0  0  1  0  0  0  0  0  0
  192.7710  175.7520  148.4450 C   0  0  0  0  0  0  0  0  0  0  0  0
  192.7630  174.5710  148.8830 O   0  0  0  0  0  0  0  0  0  0  0  0
  189.7770  178.8090  137.5660 C   0  0  0  0  0  2  0  0  0  0  0  0
  189.1850  179.2100  138.7790 O   0  0  0  0  0  0  0  0  0  0  0  0
  188.5140  178.0890  139.3030 C   0  0  1  0  0  3  0  0  0  0  0  0
  188.9440  176.8430  138.5620 C   0  0  0  0  0  2  0  0  0  0  0  0
  189.3800  177.3850  137.2450 C   0  0  2  0  0  3  0  0  0  0  0  0
  190.5760  176.0550  135.4560 C   0  0  0  0  0  0  0  0  0  0  0  0
  191.7880  175.3120  135.0260 C   0  0  0  0  0  1  0  0  0  0  0  0
  190.5290  176.6340  136.7620 N   0  0  0  0  0  2  0  0  0  0  0  0
  189.5980  176.1640  134.6680 O   0  0  0  0  0  0  0  0  0  0  0  0
  2 20  2  0  0  0  0
  3 14  2  0  0  0  0
  3 20  1  0  0  0  0
  4 18  1  0  0  0  0
  6 11  1  0  0  0  0
  6 12  1  6  0  0  0
  7 18  2  0  0  0  0
  7 10  1  0  0  0  0
  8 17  1  0  0  0  0
  8 25  1  1  0  0  0
  9 10  1  0  0  0  0
  9 17  2  0  0  0  0
 10  3  1  0  0  0  0
 11 16  1  0  0  0  0
 12  9  1  0  0  0  0
 14 19  1  0  0  0  0
 15  5  2  0  0  0  0
 16 13  1  6  0  0  0
 16  8  1  0  0  0  0
 17  2  1  0  0  0  0
 18 14  1  0  0  0  0
 19  1  2  0  0  0  0
 19  5  1  0  0  0  0
 20 15  1  0  0  0  0
 21 11  2  0  0  0  0
 22 24  1  0  0  0  0
 22 29  1  0  0  0  0
 23 24  2  0  0  0  0
 25 23  1  0  0  0  0
 26 25  2  0  0  0  0
 26 27  1  0  0  0  0
 27 22  2  0  0  0  0
 29 30  2  0  0  0  0
 29 28  1  0  0  0  0
 31 32  1  0  0  0  0
 32 33  1  0  0  0  0
 33 34  1  6  0  0  0
 33  6  1  0  0  0  0
 35 38  1  1  0  0  0
 35 31  1  0  0  0  0
 35 34  1  0  0  0  0
 36 38  1  0  0  0  0
 37 36  1  0  0  0  0
 39 36  2  0  0  0  0
M  END
>  <MODEL>
5

>  <REMARK>
 VINA RESULT:      -8.5      1.496      2.009
  Name = 
  4 active torsions:
  status: ('A' for Active; 'I' for Inactive)
    1  A    between atoms: C_3  and  C_9
    2  A    between atoms: C_11  and  C_19
    3  A    between atoms: C_12  and  C_22
    4  A    between atoms: N_15  and  C_35
                            x       y       z     vdW  Elec       q    Type
                         _______ _______ _______ _____ _____    ______ ____

>  <TORSDO>
F 4

$$$$
=
 OpenBabel10232411073D

 39 44  0  0  1  0  0  0  0  0999 V2000
  189.1840  177.4620  146.5160 O   0  0  0  0  0  0  0  0  0  0  0  0
  186.2380  178.0230  141.9540 C   0  0  0  0  0  3  0  0  0  0  0  0
  188.2710  177.9980  143.1580 C   0  0  0  0  0  0  0  0  0  0  0  0
  191.6160  178.0020  144.5070 C   0  0  0  0  0  1  0  0  0  0  0  0
  187.1140  177.4680  145.5380 N   0  0  0  0  0  0  0  0  0  0  0  0
  189.1750  177.3930  138.7200 C   0  0  2  0  0  3  0  0  0  0  0  0
  190.2740  178.2780  142.3910 N   0  0  0  0  0  0  0  0  0  0  0  0
  186.2730  178.4390  139.4290 C   0  0  2  0  0  3  0  0  0  0  0  0
  188.4030  178.3990  140.8470 C   0  0  0  0  0  0  0  0  0  0  0  0
  188.9860  178.2410  142.0680 N   0  0  0  0  0  0  0  0  0  0  0  0
  187.9380  177.4610  137.8570 C   0  0  0  0  0  0  0  0  0  0  0  0
  189.2580  178.6100  139.6350 C   0  0  0  0  0  2  0  0  0  0  0  0
  185.6110  177.1140  137.5000 O   0  0  0  0  0  1  0  0  0  0  0  0
  189.0620  177.8660  144.2400 C   0  0  0  0  0  0  0  0  0  0  0  0
  186.3150  177.6000  144.4210 C   0  0  0  0  0  3  0  0  0  0  0  0
  186.5880  177.2580  138.4920 C   0  0  2  0  0  3  0  0  0  0  0  0
  186.9780  178.3010  140.7660 C   0  0  0  0  0  0  0  0  0  0  0  0
  190.3450  178.0490  143.7350 C   0  0  0  0  0  0  0  0  0  0  0  0
  188.4820  177.5930  145.4790 C   0  0  0  0  0  0  0  0  0  0  0  0
  186.9060  177.8740  143.1760 C   0  0  0  0  0  0  0  0  0  0  0  0
  188.0170  177.7750  136.6780 O   0  0  0  0  0  0  0  0  0  0  0  0
  182.0940  179.4770  139.7600 C   0  0  0  0  0  0  0  0  0  0  0  0
  183.9470  178.0270  140.3600 C   0  0  0  0  0  3  0  0  0  0  0  0
  182.5980  178.3760  140.4640 C   0  0  0  0  0  3  0  0  0  0  0  0
  184.8080  178.7790  139.5450 C   0  0  0  0  0  0  0  0  0  0  0  0
  184.3090  179.8810  138.8470 C   0  0  0  0  0  3  0  0  0  0  0  0
  182.9590  180.2280  138.9510 C   0  0  0  0  0  3  0  0  0  0  0  0
  180.0590  179.9860  141.1500 N   0  0  0  0  0  1  0  0  0  0  0  0
  180.6710  179.8450  139.8700 C   0  0  0  0  0  0  0  0  0  0  0  0
  179.9820  180.0400  138.8340 O   0  0  0  0  0  0  0  0  0  0  0  0
  192.3690  175.9550  138.3390 C   0  0  0  0  0  2  0  0  0  0  0  0
  191.5620  176.9870  138.8580 O   0  0  0  0  0  0  0  0  0  0  0  0
  190.4900  177.1650  137.9620 C   0  0  1  0  0  3  0  0  0  0  0  0
  190.4340  176.0030  136.9950 C   0  0  0  0  0  2  0  0  0  0  0  0
  191.8420  175.5190  136.9900 C   0  0  2  0  0  3  0  0  0  0  0  0
  192.6260  173.3800  135.8900 C   0  0  0  0  0  0  0  0  0  0  0  0
  192.6090  171.8950  135.8490 C   0  0  0  0  0  1  0  0  0  0  0  0
  191.8630  174.0680  136.8820 N   0  0  0  0  0  2  0  0  0  0  0  0
  193.3120  174.0200  135.0480 O   0  0  0  0  0  0  0  0  0  0  0  0
  2 20  2  0  0  0  0
  3 20  1  0  0  0  0
  3 14  2  0  0  0  0
  6 12  1  6  0  0  0
  7 18  2  0  0  0  0
  8 25  1  1  0  0  0
  8 17  1  0  0  0  0
  9 10  1  0  0  0  0
 10  7  1  0  0  0  0
 10  3  1  0  0  0  0
 11 16  1  0  0  0  0
 11  6  1  0  0  0  0
 12  9  1  0  0  0  0
 14 19  1  0  0  0  0
 15  5  2  0  0  0  0
 16 13  1  6  0  0  0
 16  8  1  0  0  0  0
 17  9  2  0  0  0  0
 17  2  1  0  0  0  0
 18 14  1  0  0  0  0
 18  4  1  0  0  0  0
 19  5  1  0  0  0  0
 19  1  2  0  0  0  0
 20 15  1  0  0  0  0
 21 11  2  0  0  0  0
 22 29  1  0  0  0  0
 22 24  1  0  0  0  0
 23 24  2  0  0  0  0
 25 23  1  0  0  0  0
 26 27  1  0  0  0  0
 26 25  2  0  0  0  0
 27 22  2  0  0  0  0
 29 28  1  0  0  0  0
 30 29  2  0  0  0  0
 31 32  1  0  0  0  0
 33 34  1  1  0  0  0
 33  6  1  0  0  0  0
 33 32  1  0  0  0  0
 35 38  1  1  0  0  0
 35 34  1  0  0  0  0
 35 31  1  0  0  0  0
 36 38  1  0  0  0  0
 37 36  1  0  0  0  0
 39 36  2  0  0  0  0
M  END
>  <MODEL>
6

>  <REMARK>
 VINA RESULT:      -8.1      3.272      7.735
  Name = 
  4 active torsions:
  status: ('A' for Active; 'I' for Inactive)
    1  A    between atoms: C_3  and  C_9
    2  A    between atoms: C_11  and  C_19
    3  A    between atoms: C_12  and  C_22
    4  A    between atoms: N_15  and  C_35
                            x       y       z     vdW  Elec       q    Type
                         _______ _______ _______ _____ _____    ______ ____

>  <TORSDO>
F 4

$$$$
=
 OpenBabel10232411073D

 39 44  0  0  1  0  0  0  0  0999 V2000
  183.8160  179.1990  138.4670 O   0  0  0  0  0  0  0  0  0  0  0  0
  188.4330  178.0690  141.1530 C   0  0  0  0  0  3  0  0  0  0  0  0
  186.9970  177.9270  139.2820 C   0  0  0  0  0  0  0  0  0  0  0  0
  185.2230  177.4610  136.1770 C   0  0  0  0  0  1  0  0  0  0  0  0
  185.0490  179.4360  140.3820 N   0  0  0  0  0  0  0  0  0  0  0  0
  191.2500  176.9010  137.9620 C   0  0  2  0  0  3  0  0  0  0  0  0
  187.3570  176.9160  137.4040 N   0  0  0  0  0  0  0  0  0  0  0  0
  190.7150  176.9140  141.0820 C   0  0  2  0  0  3  0  0  0  0  0  0
  189.0660  176.8250  139.1270 C   0  0  0  0  0  0  0  0  0  0  0  0
  187.8630  177.1880  138.6020 N   0  0  0  0  0  0  0  0  0  0  0  0
  192.2330  176.9000  139.1080 C   0  0  0  0  0  0  0  0  0  0  0  0
  190.0360  176.0410  138.2960 C   0  0  0  0  0  2  0  0  0  0  0  0
  193.0090  177.7160  141.2040 O   0  0  0  0  0  1  0  0  0  0  0  0
  185.8890  178.1700  138.5570 C   0  0  0  0  0  0  0  0  0  0  0  0
  186.1910  179.1850  141.1120 C   0  0  0  0  0  3  0  0  0  0  0  0
  191.8820  177.6300  140.3770 C   0  0  2  0  0  3  0  0  0  0  0  0
  189.3780  177.2610  140.4530 C   0  0  0  0  0  0  0  0  0  0  0  0
  186.1300  177.5140  137.3540 C   0  0  0  0  0  0  0  0  0  0  0  0
  184.8700  178.9470  139.1090 C   0  0  0  0  0  0  0  0  0  0  0  0
  187.2150  178.4020  140.5490 C   0  0  0  0  0  0  0  0  0  0  0  0
  193.2570  176.2330  139.0490 O   0  0  0  0  0  0  0  0  0  0  0  0
  190.7340  177.1510  145.3940 C   0  0  0  0  0  0  0  0  0  0  0  0
  190.2340  178.1590  143.2410 C   0  0  0  0  0  3  0  0  0  0  0  0
  190.2390  178.2230  144.6370 C   0  0  0  0  0  3  0  0  0  0  0  0
  190.7270  177.0200  142.5860 C   0  0  0  0  0  0  0  0  0  0  0  0
  191.2150  175.9480  143.3380 C   0  0  0  0  0  3  0  0  0  0  0  0
  191.2200  176.0130  144.7350 C   0  0  0  0  0  3  0  0  0  0  0  0
  189.5710  177.6270  147.5740 N   0  0  0  0  0  1  0  0  0  0  0  0
  190.7380  177.2190  146.8660 C   0  0  0  0  0  0  0  0  0  0  0  0
  191.7750  176.9140  147.5130 O   0  0  0  0  0  0  0  0  0  0  0  0
  193.8660  175.8410  135.8540 C   0  0  0  0  0  2  0  0  0  0  0  0
  193.2020  176.8880  136.5240 O   0  0  0  0  0  0  0  0  0  0  0  0
  191.8400  176.5370  136.5920 C   0  0  1  0  0  3  0  0  0  0  0  0
  191.6690  175.0790  136.2310 C   0  0  0  0  0  2  0  0  0  0  0  0
  192.8630  174.8140  135.3800 C   0  0  2  0  0  3  0  0  0  0  0  0
  192.6810  172.3010  135.1600 C   0  0  0  0  0  0  0  0  0  0  0  0
  193.2510  170.9590  135.4420 C   0  0  0  0  0  1  0  0  0  0  0  0
  193.3560  173.4690  135.6300 N   0  0  0  0  0  2  0  0  0  0  0  0
  191.6050  172.3980  134.5110 O   0  0  0  0  0  0  0  0  0  0  0  0
  1 19  2  0  0  0  0
  3 20  1  0  0  0  0
  4 18  1  0  0  0  0
  5 15  2  0  0  0  0
  6 12  1  1  0  0  0
  6 11  1  0  0  0  0
  7 10  1  0  0  0  0
  8 25  1  1  0  0  0
  9 17  2  0  0  0  0
 10  9  1  0  0  0  0
 10  3  1  0  0  0  0
 11 16  1  0  0  0  0
 12  9  1  0  0  0  0
 14 19  1  0  0  0  0
 14  3  2  0  0  0  0
 16  8  1  0  0  0  0
 16 13  1  1  0  0  0
 17  8  1  0  0  0  0
 17  2  1  0  0  0  0
 18  7  2  0  0  0  0
 18 14  1  0  0  0  0
 19  5  1  0  0  0  0
 20 15  1  0  0  0  0
 20  2  2  0  0  0  0
 21 11  2  0  0  0  0
 22 29  1  0  0  0  0
 23 24  1  0  0  0  0
 24 22  2  0  0  0  0
 25 23  2  0  0  0  0
 25 26  1  0  0  0  0
 26 27  2  0  0  0  0
 27 22  1  0  0  0  0
 29 30  2  0  0  0  0
 29 28  1  0  0  0  0
 31 32  1  0  0  0  0
 32 33  1  0  0  0  0
 33 34  1  1  0  0  0
 33  6  1  0  0  0  0
 35 38  1  1  0  0  0
 35 31  1  0  0  0  0
 35 34  1  0  0  0  0
 36 37  1  0  0  0  0
 36 38  1  0  0  0  0
 39 36  2  0  0  0  0
M  END
>  <MODEL>
7

>  <REMARK>
 VINA RESULT:      -7.9      3.328      5.083
  Name = 
  4 active torsions:
  status: ('A' for Active; 'I' for Inactive)
    1  A    between atoms: C_3  and  C_9
    2  A    between atoms: C_11  and  C_19
    3  A    between atoms: C_12  and  C_22
    4  A    between atoms: N_15  and  C_35
                            x       y       z     vdW  Elec       q    Type
                         _______ _______ _______ _____ _____    ______ ____

>  <TORSDO>
F 4

$$$$
=
 OpenBabel10232411073D

 39 44  0  0  1  0  0  0  0  0999 V2000
  190.7170  177.2240  147.8010 O   0  0  0  0  0  0  0  0  0  0  0  0
  190.8570  177.2150  142.3440 C   0  0  0  0  0  3  0  0  0  0  0  0
  189.7310  177.1910  144.4210 C   0  0  0  0  0  0  0  0  0  0  0  0
  187.5560  177.2140  147.2970 C   0  0  0  0  0  1  0  0  0  0  0  0
  191.9890  177.2260  145.8980 N   0  0  0  0  0  0  0  0  0  0  0  0
  186.8290  178.5990  141.1840 C   0  0  2  0  0  3  0  0  0  0  0  0
  187.5980  177.1960  144.7770 N   0  0  0  0  0  0  0  0  0  0  0  0
  189.5000  177.2320  140.1740 C   0  0  2  0  0  3  0  0  0  0  0  0
  188.4010  177.1950  142.4850 C   0  0  0  0  0  0  0  0  0  0  0  0
  188.5390  177.1890  143.8390 N   0  0  0  0  0  0  0  0  0  0  0  0
  187.4420  178.5830  139.8040 C   0  0  0  0  0  0  0  0  0  0  0  0
  187.0330  177.2550  141.8750 C   0  0  0  0  0  2  0  0  0  0  0  0
  189.2980  178.8080  138.3320 O   0  0  0  0  0  1  0  0  0  0  0  0
  189.6190  177.2000  145.7630 C   0  0  0  0  0  0  0  0  0  0  0  0
  192.0910  177.2230  144.5230 C   0  0  0  0  0  3  0  0  0  0  0  0
  188.9410  178.5740  139.6650 C   0  0  2  0  0  3  0  0  0  0  0  0
  189.5900  177.1970  141.6890 C   0  0  0  0  0  0  0  0  0  0  0  0
  188.2450  177.2010  145.9790 C   0  0  0  0  0  0  0  0  0  0  0  0
  190.7750  177.2160  146.5440 C   0  0  0  0  0  0  0  0  0  0  0  0
  190.9220  177.2070  143.7420 C   0  0  0  0  0  0  0  0  0  0  0  0
  186.7350  178.4780  138.8100 O   0  0  0  0  0  0  0  0  0  0  0  0
  193.0720  175.8410  138.1840 C   0  0  0  0  0  0  0  0  0  0  0  0
  192.0070  177.3290  139.7810 C   0  0  0  0  0  3  0  0  0  0  0  0
  193.1570  176.8670  139.1350 C   0  0  0  0  0  3  0  0  0  0  0  0
  190.7550  176.7690  139.4790 C   0  0  0  0  0  0  0  0  0  0  0  0
  190.6690  175.7410  138.5350 C   0  0  0  0  0  3  0  0  0  0  0  0
  191.8200  175.2810  137.8900 C   0  0  0  0  0  3  0  0  0  0  0  0
  194.3100  175.2110  136.0860 N   0  0  0  0  0  1  0  0  0  0  0  0
  194.2850  175.3530  137.5030 C   0  0  0  0  0  0  0  0  0  0  0  0
  195.3130  175.0590  138.1690 O   0  0  0  0  0  0  0  0  0  0  0  0
  183.4150  178.0830  141.8820 C   0  0  0  0  0  2  0  0  0  0  0  0
  184.4960  177.9710  140.9850 O   0  0  0  0  0  0  0  0  0  0  0  0
  185.3630  179.0490  141.2450 C   0  0  1  0  0  3  0  0  0  0  0  0
  184.9880  179.7030  142.5560 C   0  0  0  0  0  2  0  0  0  0  0  0
  183.5460  179.3560  142.6890 C   0  0  2  0  0  3  0  0  0  0  0  0
  184.2320  178.8580  145.0720 C   0  0  0  0  0  0  0  0  0  0  0  0
  183.8330  178.6230  146.4830 C   0  0  0  0  0  1  0  0  0  0  0  0
  183.2270  179.1050  144.0860 N   0  0  0  0  0  2  0  0  0  0  0  0
  185.4520  178.8340  144.7560 O   0  0  0  0  0  0  0  0  0  0  0  0
  2 20  2  0  0  0  0
  3 14  2  0  0  0  0
  5 19  1  0  0  0  0
  6 33  1  0  0  0  0
  6 12  1  6  0  0  0
  7 18  2  0  0  0  0
  8 25  1  6  0  0  0
  8 17  1  0  0  0  0
  9 10  1  0  0  0  0
 10  3  1  0  0  0  0
 10  7  1  0  0  0  0
 11  6  1  0  0  0  0
 12  9  1  0  0  0  0
 14 18  1  0  0  0  0
 14 19  1  0  0  0  0
 15  5  2  0  0  0  0
 16 13  1  6  0  0  0
 16 11  1  0  0  0  0
 16  8  1  0  0  0  0
 17  2  1  0  0  0  0
 17  9  2  0  0  0  0
 18  4  1  0  0  0  0
 19  1  2  0  0  0  0
 20  3  1  0  0  0  0
 20 15  1  0  0  0  0
 21 11  2  0  0  0  0
 22 24  1  0  0  0  0
 24 23  2  0  0  0  0
 25 23  1  0  0  0  0
 26 25  2  0  0  0  0
 27 22  2  0  0  0  0
 27 26  1  0  0  0  0
 28 29  1  0  0  0  0
 29 30  2  0  0  0  0
 29 22  1  0  0  0  0
 31 35  1  0  0  0  0
 32 33  1  0  0  0  0
 32 31  1  0  0  0  0
 33 34  1  1  0  0  0
 34 35  1  0  0  0  0
 35 38  1  1  0  0  0
 36 37  1  0  0  0  0
 38 36  1  0  0  0  0
 39 36  2  0  0  0  0
M  END
>  <MODEL>
8

>  <REMARK>
 VINA RESULT:      -7.8      2.809      6.858
  Name = 
  4 active torsions:
  status: ('A' for Active; 'I' for Inactive)
    1  A    between atoms: C_3  and  C_9
    2  A    between atoms: C_11  and  C_19
    3  A    between atoms: C_12  and  C_22
    4  A    between atoms: N_15  and  C_35
                            x       y       z     vdW  Elec       q    Type
                         _______ _______ _______ _____ _____    ______ ____

>  <TORSDO>
F 4

$$$$
=
 OpenBabel10232411073D

 39 44  0  0  1  0  0  0  0  0999 V2000
  190.9130  176.6520  138.0570 O   0  0  0  0  0  0  0  0  0  0  0  0
  187.8980  177.5240  142.5240 C   0  0  0  0  0  3  0  0  0  0  0  0
  188.3660  177.7620  140.2200 C   0  0  0  0  0  0  0  0  0  0  0  0
  188.5870  178.3590  136.6700 C   0  0  0  0  0  1  0  0  0  0  0  0
  190.6500  176.3280  140.3080 N   0  0  0  0  0  0  0  0  0  0  0  0
  183.9310  178.6110  140.9220 C   0  0  2  0  0  3  0  0  0  0  0  0
  187.1870  178.7850  138.7230 N   0  0  0  0  0  0  0  0  0  0  0  0
  185.7750  178.5740  143.4950 C   0  0  2  0  0  3  0  0  0  0  0  0
  186.4010  178.7700  141.0200 C   0  0  0  0  0  0  0  0  0  0  0  0
  187.2650  178.4710  140.0120 N   0  0  0  0  0  0  0  0  0  0  0  0
  183.5480  178.5490  142.3810 C   0  0  0  0  0  0  0  0  0  0  0  0
  185.1390  179.5210  140.7230 C   0  0  0  0  0  2  0  0  0  0  0  0
  183.7950  177.6640  144.5760 O   0  0  0  0  0  1  0  0  0  0  0  0
  189.0540  177.5820  139.0770 C   0  0  0  0  0  0  0  0  0  0  0  0
  189.9340  176.5140  141.4710 C   0  0  0  0  0  3  0  0  0  0  0  0
  184.4430  177.8160  143.3440 C   0  0  2  0  0  3  0  0  0  0  0  0
  186.7140  178.2980  142.3340 C   0  0  0  0  0  0  0  0  0  0  0  0
  188.2880  178.2450  138.1230 C   0  0  0  0  0  0  0  0  0  0  0  0
  190.2380  176.8450  139.1020 C   0  0  0  0  0  0  0  0  0  0  0  0
  188.7410  177.2570  141.4380 C   0  0  0  0  0  0  0  0  0  0  0  0
  182.5790  179.1680  142.7980 O   0  0  0  0  0  0  0  0  0  0  0  0
  187.6250  178.2660  147.3850 C   0  0  0  0  0  0  0  0  0  0  0  0
  187.5690  177.6500  145.0360 C   0  0  0  0  0  3  0  0  0  0  0  0
  188.1620  177.5630  146.2980 C   0  0  0  0  0  3  0  0  0  0  0  0
  186.4260  178.4430  144.8490 C   0  0  0  0  0  0  0  0  0  0  0  0
  185.8920  179.1500  145.9300 C   0  0  0  0  0  3  0  0  0  0  0  0
  186.4860  179.0610  147.1910 C   0  0  0  0  0  3  0  0  0  0  0  0
  189.6470  178.4150  148.8750 N   0  0  0  0  0  1  0  0  0  0  0  0
  188.2520  178.1730  148.7160 C   0  0  0  0  0  0  0  0  0  0  0  0
  187.5590  177.8820  149.7260 O   0  0  0  0  0  0  0  0  0  0  0  0
  182.4260  178.7130  137.7380 C   0  0  0  0  0  2  0  0  0  0  0  0
  183.2910  179.2950  138.6850 O   0  0  0  0  0  0  0  0  0  0  0  0
  182.7890  178.9690  139.9600 C   0  0  1  0  0  3  0  0  0  0  0  0
  181.7450  177.8830  139.8360 C   0  0  0  0  0  2  0  0  0  0  0  0
  181.2540  178.0650  138.4410 C   0  0  2  0  0  3  0  0  0  0  0  0
  180.3930  175.6920  138.5990 C   0  0  0  0  0  0  0  0  0  0  0  0
  180.1090  174.3990  137.9250 C   0  0  0  0  0  1  0  0  0  0  0  0
  180.9610  176.7680  137.8500 N   0  0  0  0  0  2  0  0  0  0  0  0
  180.1330  175.8270  139.8250 O   0  0  0  0  0  0  0  0  0  0  0  0
  1 19  2  0  0  0  0
  3 20  1  0  0  0  0
  4 18  1  0  0  0  0
  5 15  2  0  0  0  0
  6 12  1  1  0  0  0
  6 11  1  0  0  0  0
  7 10  1  0  0  0  0
  8 25  1  1  0  0  0
  9 17  2  0  0  0  0
 10  3  1  0  0  0  0
 10  9  1  0  0  0  0
 11 21  2  0  0  0  0
 11 16  1  0  0  0  0
 12  9  1  0  0  0  0
 14 19  1  0  0  0  0
 14  3  2  0  0  0  0
 16  8  1  0  0  0  0
 16 13  1  1  0  0  0
 17  2  1  0  0  0  0
 17  8  1  0  0  0  0
 18  7  2  0  0  0  0
 18 14  1  0  0  0  0
 19  5  1  0  0  0  0
 20 15  1  0  0  0  0
 20  2  2  0  0  0  0
 22 29  1  0  0  0  0
 23 24  1  0  0  0  0
 24 22  2  0  0  0  0
 25 23  2  0  0  0  0
 25 26  1  0  0  0  0
 26 27  2  0  0  0  0
 27 22  1  0  0  0  0
 29 28  1  0  0  0  0
 29 30  2  0  0  0  0
 31 35  1  0  0  0  0
 31 32  1  0  0  0  0
 32 33  1  0  0  0  0
 33 34  1  6  0  0  0
 33  6  1  0  0  0  0
 35 38  1  6  0  0  0
 35 34  1  0  0  0  0
 36 39  2  0  0  0  0
 37 36  1  0  0  0  0
 38 36  1  0  0  0  0
M  END
>  <MODEL>
9

>  <REMARK>
 VINA RESULT:      -7.3      3.005      6.139
  Name = 
  4 active torsions:
  status: ('A' for Active; 'I' for Inactive)
    1  A    between atoms: C_3  and  C_9
    2  A    between atoms: C_11  and  C_19
    3  A    between atoms: C_12  and  C_22
    4  A    between atoms: N_15  and  C_35
                            x       y       z     vdW  Elec       q    Type
                         _______ _______ _______ _____ _____    ______ ____

>  <TORSDO>
F 4

$$$$
