=
 OpenBabel10232410433D

 64 67  0  0  1  0  0  0  0  0999 V2000
  188.1800  178.1350  139.9350 C   0  0  0  0  0  0  0  0  0  0  0  0
  187.3520  178.3700  138.9520 N   0  0  0  0  0  0  0  0  0  0  0  0
  187.7190  176.3430  134.8830 C   0  0  0  0  0  2  0  0  0  0  0  0
  187.3210  175.2320  137.1370 C   0  0  0  0  0  2  0  0  0  0  0  0
  188.1810  177.7340  135.3050 C   0  0  0  0  0  3  0  0  0  0  0  0
  188.0950  175.1810  135.8500 C   0  0  1  0  0  3  0  0  0  0  0  0
  187.3310  177.7130  137.6810 C   0  0  1  0  0  3  0  0  0  0  0  0
  187.9780  178.3380  136.5000 C   0  0  0  0  0  3  0  0  0  0  0  0
  187.2410  176.4270  137.6200 C   0  0  0  0  0  2  0  0  0  0  0  0
  187.9570  173.8070  135.1940 C   0  0  1  0  0  3  0  0  0  0  0  0
  189.9420  173.1800  136.0840 O   0  0  0  0  0  1  0  0  0  0  0  0
  188.6540  172.7800  135.9610 N   0  0  0  0  0  2  0  0  0  0  0  0
  186.5450  173.4670  135.0600 N   0  0  0  0  0  2  0  0  0  0  0  0
  186.2740  172.2900  135.8790 C   0  0  0  0  0  2  0  0  0  0  0  0
  184.8480  171.7910  135.6610 C   0  0  1  0  0  3  0  0  0  0  0  0
  184.9060  170.3420  135.1980 C   0  0  0  0  0  1  0  0  0  0  0  0
  181.9360  172.9470  135.7420 C   0  0  0  0  0  2  0  0  0  0  0  0
  183.3510  174.3330  137.3410 C   0  0  0  0  0  0  0  0  0  0  0  0
  182.0270  174.1870  136.6190 C   0  0  0  0  0  2  0  0  0  0  0  0
  182.2750  171.4750  136.7510 S   0  0  0  0  0  0  0  0  0  0  0  0
  184.1910  173.3050  137.5520 C   0  0  0  0  0  3  0  0  0  0  0  0
  184.0400  171.9230  136.9610 C   0  0  2  0  0  3  0  0  0  0  0  0
  182.7030  175.9000  138.9980 O   0  0  0  0  0  1  0  0  0  0  0  0
  183.6630  175.6310  138.0200 C   0  0  2  0  0  3  0  0  0  0  0  0
  183.7220  176.7690  137.0090 C   0  0  0  0  0  2  0  0  0  0  0  0
  181.6700  177.8440  136.2470 N   0  0  0  0  0  1  0  0  0  0  0  0
  182.6630  177.8190  137.3080 C   0  0  0  0  0  2  0  0  0  0  0  0
  189.3710  176.1330  140.3840 O   0  0  0  0  0  0  0  0  0  0  0  0
  190.5220  177.6950  139.0980 N   0  0  0  0  0  2  0  0  0  0  0  0
  189.3590  177.2510  139.8000 C   0  0  0  0  0  0  0  0  0  0  0  0
  191.6980  176.8550  138.9430 C   0  0  0  0  0  2  0  0  0  0  0  0
  191.4640  175.8280  137.8510 C   0  0  1  0  0  3  0  0  0  0  0  0
  191.3900  176.4830  136.6180 O   0  0  0  0  0  1  0  0  0  0  0  0
  192.6240  174.8490  137.8480 C   0  0  0  0  0  2  0  0  0  0  0  0
  193.6490  175.2310  136.7990 C   0  0  0  0  0  2  0  0  0  0  0  0
  194.9920  174.6260  137.1700 C   0  0  1  0  0  3  0  0  0  0  0  0
  196.0130  175.5100  136.8070 O   0  0  0  0  0  1  0  0  0  0  0  0
  195.0620  174.3270  138.6630 C   0  0  2  0  0  3  0  0  0  0  0  0
  195.8600  175.2890  139.2900 O   0  0  0  0  0  1  0  0  0  0  0  0
  195.6410  173.0050  138.8660 N   0  0  0  0  0  2  0  0  0  0  0  0
  195.2500  172.1640  137.7430 C   0  0  0  0  0  2  0  0  0  0  0  0
  195.5520  169.6700  137.8250 C   0  0  1  0  0  3  0  0  0  0  0  0
  194.9770  169.6330  139.0960 O   0  0  0  0  0  1  0  0  0  0  0  0
  197.7400  170.0230  136.2010 C   0  0  0  0  0  2  0  0  0  0  0  0
  196.2450  171.0270  137.5960 C   0  0  1  0  0  3  0  0  0  0  0  0
  197.0400  168.6770  136.4190 C   0  0  0  0  0  2  0  0  0  0  0  0
  196.4990  168.6310  137.7190 O   0  0  0  0  0  0  0  0  0  0  0  0
  196.7990  171.0670  136.2980 O   0  0  0  0  0  0  0  0  0  0  0  0
  187.9170  178.7620  141.2770 C   0  0  1  0  0  3  0  0  0  0  0  0
  185.3850  179.3630  141.6410 N   0  0  0  0  0  0  0  0  0  0  0  0
  186.5000  179.0990  141.4800 C   0  0  0  0  0  0  0  0  0  0  0  0
  188.4430  177.9020  142.3880 C   0  0  0  0  0  0  0  0  0  0  0  0
  187.9210  176.8280  142.6450 O   0  0  0  0  0  0  0  0  0  0  0  0
  189.6540  178.3530  143.1340 C   0  0  0  0  0  2  0  0  0  0  0  0
  190.5100  177.1530  143.5120 C   0  0  0  0  0  2  0  0  0  0  0  0
  189.4520  177.1670  147.2330 C   0  0  0  0  0  0  0  0  0  0  0  0
  191.7320  176.2930  145.6120 C   0  0  0  0  0  2  0  0  0  0  0  0
  189.7070  178.5110  147.8990 C   0  0  0  0  0  1  0  0  0  0  0  0
  192.7120  175.6260  147.6850 O   0  0  0  0  0  1  0  0  0  0  0  0
  190.5510  176.9950  144.9950 C   0  0  0  0  0  0  0  0  0  0  0  0
  191.7590  176.4800  147.1280 C   0  0  2  0  0  3  0  0  0  0  0  0
  188.0710  176.6970  147.6380 C   0  0  0  0  0  1  0  0  0  0  0  0
  190.4410  176.1790  147.6920 N   0  0  0  0  0  2  0  0  0  0  0  0
  189.4790  177.3320  145.7320 C   0  0  0  0  0  3  0  0  0  0  0  0
  1 49  1  0  0  0  0
  2  1  2  0  0  0  0
  3  5  1  0  0  0  0
  3  6  1  0  0  0  0
  4  9  1  0  0  0  0
  5  8  2  0  0  0  0
  6 10  1  6  0  0  0
  6  4  1  0  0  0  0
  7  2  1  1  0  0  0
  8  7  1  0  0  0  0
  9  7  1  0  0  0  0
 10 13  1  1  0  0  0
 10 12  1  0  0  0  0
 12 11  1  0  0  0  0
 13 14  1  0  0  0  0
 15 16  1  1  0  0  0
 15 14  1  0  0  0  0
 17 19  1  0  0  0  0
 17 20  1  0  0  0  0
 18 21  2  0  0  0  0
 18 24  1  0  0  0  0
 19 18  1  0  0  0  0
 20 22  1  0  0  0  0
 22 15  1  6  0  0  0
 22 21  1  0  0  0  0
 24 23  1  1  0  0  0
 25 27  1  0  0  0  0
 25 24  1  0  0  0  0
 26 27  1  0  0  0  0
 29 30  1  0  0  0  0
 30  1  1  0  0  0  0
 30 28  2  0  0  0  0
 31 29  1  0  0  0  0
 32 33  1  6  0  0  0
 32 31  1  0  0  0  0
 34 32  1  0  0  0  0
 35 36  1  0  0  0  0
 35 34  1  0  0  0  0
 36 37  1  1  0  0  0
 36 38  1  0  0  0  0
 38 40  1  0  0  0  0
 38 39  1  1  0  0  0
 41 40  1  0  0  0  0
 42 43  1  1  0  0  0
 44 48  1  0  0  0  0
 44 46  1  0  0  0  0
 45 41  1  6  0  0  0
 45 42  1  0  0  0  0
 46 47  1  0  0  0  0
 47 42  1  0  0  0  0
 48 45  1  0  0  0  0
 49 51  1  1  0  0  0
 49 52  1  0  0  0  0
 51 50  3  0  0  0  0
 52 53  2  0  0  0  0
 52 54  1  0  0  0  0
 54 55  1  0  0  0  0
 55 60  1  0  0  0  0
 56 62  1  0  0  0  0
 56 63  1  0  0  0  0
 56 58  1  0  0  0  0
 57 61  1  0  0  0  0
 60 57  1  0  0  0  0
 60 64  2  0  0  0  0
 61 59  1  1  0  0  0
 61 63  1  0  0  0  0
 64 56  1  0  0  0  0
M  END
>  <MODEL>
1

>  <REMARK>
 VINA RESULT:      -6.8      0.000      0.000
  Name = 
  26 active torsions:
  status: ('A' for Active; 'I' for Inactive)
    1  A    between atoms: C_3  and  C_16
    2  A    between atoms: C_3  and  C_62
    3  A    between atoms: C_4  and  C_43
    4  A    between atoms: C_4  and  C_63
    5  A    between atoms: C_5  and  C_18
    6  A    between atoms: C_6  and  C_7
    7  A    between atoms: C_6  and  C_54
    8  A    between atoms: C_7  and  C_36
    9  A    between atoms: C_8  and  N_33
   10  A    between atoms: C_8  and  C_34
   11  A    between atoms: C_16  and  N_29
   12  A    between atoms: C_18  and  C_55
   13  A    between atoms: C_19  and  C_36
   14  A    between atoms: C_19  and  C_58
   15  A    between atoms: C_25  and  C_27
   16  A    between atoms: C_27  and  N_33
   17  A    between atoms: C_28  and  C_41
   18  A    between atoms: N_29  and  C_41
   19  A    between atoms: C_32  and  N_46
   20  A    between atoms: C_34  and  C_42
   21  A    between atoms: C_36  and  C_53
   22  A    between atoms: C_37  and  C_54
   23  A    between atoms: N_38  and  C_63
   24  A    between atoms: C_40  and  C_55
   25  A    between atoms: C_41  and  N_57
   26  A    between atoms: C_42  and  C_43
                            x       y       z     vdW  Elec       q    Type
                         _______ _______ _______ _____ _____    ______ ____

>  <TORSDO>
F 26

$$$$
=
 OpenBabel10232410433D

 64 67  0  0  1  0  0  0  0  0999 V2000
  188.3250  178.1200  140.0630 C   0  0  0  0  0  0  0  0  0  0  0  0
  187.5940  178.3430  139.0040 N   0  0  0  0  0  0  0  0  0  0  0  0
  188.4740  176.4230  134.9620 C   0  0  0  0  0  2  0  0  0  0  0  0
  187.8360  175.2500  137.1270 C   0  0  0  0  0  2  0  0  0  0  0  0
  188.8570  177.8100  135.4660 C   0  0  0  0  0  3  0  0  0  0  0  0
  188.7560  175.2440  135.9390 C   0  0  1  0  0  3  0  0  0  0  0  0
  187.7350  177.7170  137.7250 C   0  0  1  0  0  3  0  0  0  0  0  0
  188.5040  178.3820  136.6420 C   0  0  0  0  0  3  0  0  0  0  0  0
  187.6780  176.4320  137.6240 C   0  0  0  0  0  2  0  0  0  0  0  0
  188.7230  173.8840  135.2420 C   0  0  1  0  0  3  0  0  0  0  0  0
  190.5840  173.3150  136.3980 O   0  0  0  0  0  1  0  0  0  0  0  0
  189.3580  172.8530  136.0550 N   0  0  0  0  0  2  0  0  0  0  0  0
  187.3420  173.5170  134.9480 N   0  0  0  0  0  2  0  0  0  0  0  0
  187.0000  172.3370  135.7340 C   0  0  0  0  0  2  0  0  0  0  0  0
  185.5360  171.9550  135.5370 C   0  0  1  0  0  3  0  0  0  0  0  0
  185.4610  170.4710  135.2050 C   0  0  0  0  0  1  0  0  0  0  0  0
  182.4110  172.1930  135.5550 C   0  0  0  0  0  2  0  0  0  0  0  0
  183.3470  174.3750  136.4720 C   0  0  0  0  0  0  0  0  0  0  0  0
  182.1260  173.6260  135.9780 C   0  0  0  0  0  2  0  0  0  0  0  0
  183.1850  171.3030  136.9360 S   0  0  0  0  0  0  0  0  0  0  0  0
  184.4600  173.7600  136.9090 C   0  0  0  0  0  3  0  0  0  0  0  0
  184.7320  172.2780  136.8060 C   0  0  2  0  0  3  0  0  0  0  0  0
  184.4900  176.3600  137.0840 O   0  0  0  0  0  1  0  0  0  0  0  0
  183.2540  175.8570  136.6680 C   0  0  2  0  0  3  0  0  0  0  0  0
  182.1730  176.2020  137.6850 C   0  0  0  0  0  2  0  0  0  0  0  0
  182.8430  176.8150  139.9470 N   0  0  0  0  0  1  0  0  0  0  0  0
  182.5460  175.6960  139.0690 C   0  0  0  0  0  2  0  0  0  0  0  0
  189.4950  176.0830  140.3910 O   0  0  0  0  0  0  0  0  0  0  0  0
  190.8130  177.8730  139.7040 N   0  0  0  0  0  2  0  0  0  0  0  0
  189.5510  177.2910  140.0340 C   0  0  0  0  0  0  0  0  0  0  0  0
  192.0380  177.0910  139.6630 C   0  0  0  0  0  2  0  0  0  0  0  0
  192.0750  176.2460  138.4040 C   0  0  1  0  0  3  0  0  0  0  0  0
  191.4150  176.9290  137.3780 O   0  0  0  0  0  1  0  0  0  0  0  0
  193.5240  176.0100  138.0200 C   0  0  0  0  0  2  0  0  0  0  0  0
  193.7700  174.5450  137.7180 C   0  0  0  0  0  2  0  0  0  0  0  0
  195.1000  174.4010  136.9980 C   0  0  1  0  0  3  0  0  0  0  0  0
  195.5100  175.6530  136.5300 O   0  0  0  0  0  1  0  0  0  0  0  0
  196.1600  173.8120  137.9200 C   0  0  2  0  0  3  0  0  0  0  0  0
  195.5350  173.1950  139.0080 O   0  0  0  0  0  1  0  0  0  0  0  0
  197.0330  174.8770  138.3980 N   0  0  0  0  0  2  0  0  0  0  0  0
  198.4110  174.4280  138.2600 C   0  0  0  0  0  2  0  0  0  0  0  0
  199.3110  174.2650  135.9190 C   0  0  1  0  0  3  0  0  0  0  0  0
  198.6700  175.4570  135.5800 O   0  0  0  0  0  1  0  0  0  0  0  0
  199.2690  171.5370  136.2440 C   0  0  0  0  0  2  0  0  0  0  0  0
  198.5300  173.5420  137.0330 C   0  0  1  0  0  3  0  0  0  0  0  0
  200.0560  172.2590  135.1440 C   0  0  0  0  0  2  0  0  0  0  0  0
  199.3800  173.4400  134.7770 O   0  0  0  0  0  0  0  0  0  0  0  0
  199.2010  172.3520  137.3900 O   0  0  0  0  0  0  0  0  0  0  0  0
  187.8970  178.7010  141.3820 C   0  0  1  0  0  3  0  0  0  0  0  0
  185.3000  179.0810  141.5320 N   0  0  0  0  0  0  0  0  0  0  0  0
  186.4440  178.9140  141.4650 C   0  0  0  0  0  0  0  0  0  0  0  0
  188.3980  177.8730  142.5270 C   0  0  0  0  0  0  0  0  0  0  0  0
  187.9220  176.7710  142.7540 O   0  0  0  0  0  0  0  0  0  0  0  0
  189.5310  178.3910  143.3490 C   0  0  0  0  0  2  0  0  0  0  0  0
  190.5070  177.2660  143.6590 C   0  0  0  0  0  2  0  0  0  0  0  0
  189.5440  177.1500  147.4050 C   0  0  0  0  0  0  0  0  0  0  0  0
  191.7410  176.2550  145.6840 C   0  0  0  0  0  2  0  0  0  0  0  0
  189.8750  178.4490  148.1240 C   0  0  0  0  0  1  0  0  0  0  0  0
  192.7410  175.4490  147.6960 O   0  0  0  0  0  1  0  0  0  0  0  0
  190.5780  177.0360  145.1320 C   0  0  0  0  0  0  0  0  0  0  0  0
  191.8140  176.3680  147.2050 C   0  0  2  0  0  3  0  0  0  0  0  0
  188.1540  176.7230  147.8250 C   0  0  0  0  0  1  0  0  0  0  0  0
  190.4980  176.0990  147.7910 N   0  0  0  0  0  2  0  0  0  0  0  0
  189.5410  177.3840  145.9120 C   0  0  0  0  0  3  0  0  0  0  0  0
  1 49  1  0  0  0  0
  2  1  2  0  0  0  0
  3  5  1  0  0  0  0
  3  6  1  0  0  0  0
  4  9  1  0  0  0  0
  5  8  2  0  0  0  0
  6 10  1  6  0  0  0
  6  4  1  0  0  0  0
  7  2  1  1  0  0  0
  8  7  1  0  0  0  0
  9  7  1  0  0  0  0
 10 13  1  1  0  0  0
 10 12  1  0  0  0  0
 12 11  1  0  0  0  0
 13 14  1  0  0  0  0
 15 16  1  1  0  0  0
 15 14  1  0  0  0  0
 17 19  1  0  0  0  0
 17 20  1  0  0  0  0
 18 24  1  0  0  0  0
 18 21  2  0  0  0  0
 19 18  1  0  0  0  0
 22 15  1  6  0  0  0
 22 21  1  0  0  0  0
 22 20  1  0  0  0  0
 24 23  1  1  0  0  0
 24 25  1  0  0  0  0
 25 27  1  0  0  0  0
 27 26  1  0  0  0  0
 29 30  1  0  0  0  0
 30  1  1  0  0  0  0
 30 28  2  0  0  0  0
 31 29  1  0  0  0  0
 32 33  1  6  0  0  0
 32 31  1  0  0  0  0
 34 32  1  0  0  0  0
 35 34  1  0  0  0  0
 36 37  1  1  0  0  0
 36 35  1  0  0  0  0
 36 38  1  0  0  0  0
 38 40  1  0  0  0  0
 38 39  1  1  0  0  0
 41 40  1  0  0  0  0
 42 43  1  6  0  0  0
 42 45  1  0  0  0  0
 44 48  1  0  0  0  0
 45 48  1  0  0  0  0
 45 41  1  1  0  0  0
 46 44  1  0  0  0  0
 47 46  1  0  0  0  0
 47 42  1  0  0  0  0
 49 51  1  6  0  0  0
 49 52  1  0  0  0  0
 51 50  3  0  0  0  0
 52 53  2  0  0  0  0
 52 54  1  0  0  0  0
 54 55  1  0  0  0  0
 55 60  1  0  0  0  0
 56 63  1  0  0  0  0
 56 62  1  0  0  0  0
 56 58  1  0  0  0  0
 57 61  1  0  0  0  0
 60 57  1  0  0  0  0
 60 64  2  0  0  0  0
 61 59  1  1  0  0  0
 61 63  1  0  0  0  0
 64 56  1  0  0  0  0
M  END
>  <MODEL>
2

>  <REMARK>
 VINA RESULT:      -6.6      1.535      2.052
  Name = 
  26 active torsions:
  status: ('A' for Active; 'I' for Inactive)
    1  A    between atoms: C_3  and  C_16
    2  A    between atoms: C_3  and  C_62
    3  A    between atoms: C_4  and  C_43
    4  A    between atoms: C_4  and  C_63
    5  A    between atoms: C_5  and  C_18
    6  A    between atoms: C_6  and  C_7
    7  A    between atoms: C_6  and  C_54
    8  A    between atoms: C_7  and  C_36
    9  A    between atoms: C_8  and  N_33
   10  A    between atoms: C_8  and  C_34
   11  A    between atoms: C_16  and  N_29
   12  A    between atoms: C_18  and  C_55
   13  A    between atoms: C_19  and  C_36
   14  A    between atoms: C_19  and  C_58
   15  A    between atoms: C_25  and  C_27
   16  A    between atoms: C_27  and  N_33
   17  A    between atoms: C_28  and  C_41
   18  A    between atoms: N_29  and  C_41
   19  A    between atoms: C_32  and  N_46
   20  A    between atoms: C_34  and  C_42
   21  A    between atoms: C_36  and  C_53
   22  A    between atoms: C_37  and  C_54
   23  A    between atoms: N_38  and  C_63
   24  A    between atoms: C_40  and  C_55
   25  A    between atoms: C_41  and  N_57
   26  A    between atoms: C_42  and  C_43
                            x       y       z     vdW  Elec       q    Type
                         _______ _______ _______ _____ _____    ______ ____

>  <TORSDO>
F 26

$$$$
=
 OpenBabel10232410433D

 64 67  0  0  1  0  0  0  0  0999 V2000
  185.0030  178.7590  142.5580 C   0  0  0  0  0  0  0  0  0  0  0  0
  183.7260  178.5830  142.3460 N   0  0  0  0  0  0  0  0  0  0  0  0
  182.0630  178.1720  138.1200 C   0  0  0  0  0  2  0  0  0  0  0  0
  182.9140  176.3150  139.6360 C   0  0  0  0  0  2  0  0  0  0  0  0
  182.6150  179.4120  138.8150 C   0  0  0  0  0  3  0  0  0  0  0  0
  182.9280  176.8840  138.2450 C   0  0  1  0  0  3  0  0  0  0  0  0
  183.0910  178.4000  141.0770 C   0  0  1  0  0  3  0  0  0  0  0  0
  183.0210  179.5180  140.1030 C   0  0  0  0  0  3  0  0  0  0  0  0
  183.0390  177.2260  140.5440 C   0  0  0  0  0  2  0  0  0  0  0  0
  182.5370  175.8140  137.2250 C   0  0  1  0  0  3  0  0  0  0  0  0
  181.3200  173.9720  137.7280 O   0  0  0  0  0  1  0  0  0  0  0  0
  181.1960  175.2990  137.4830 N   0  0  0  0  0  2  0  0  0  0  0  0
  182.6150  176.3690  135.8780 N   0  0  0  0  0  2  0  0  0  0  0  0
  183.4110  175.4680  135.0530 C   0  0  0  0  0  2  0  0  0  0  0  0
  183.0180  174.0130  135.2960 C   0  0  1  0  0  3  0  0  0  0  0  0
  181.8840  173.6520  134.3470 C   0  0  0  0  0  1  0  0  0  0  0  0
  184.6160  172.7220  137.6620 C   0  0  0  0  0  2  0  0  0  0  0  0
  186.2770  174.0360  136.2500 C   0  0  0  0  0  0  0  0  0  0  0  0
  186.0270  173.2780  137.5380 C   0  0  0  0  0  2  0  0  0  0  0  0
  184.2600  171.6680  136.2260 S   0  0  0  0  0  0  0  0  0  0  0  0
  185.5210  173.8840  135.1480 C   0  0  0  0  0  3  0  0  0  0  0  0
  184.2330  173.0970  135.0790 C   0  0  2  0  0  3  0  0  0  0  0  0
  188.6360  174.0790  136.4800 O   0  0  0  0  0  1  0  0  0  0  0  0
  187.5270  174.8500  136.1210 C   0  0  2  0  0  3  0  0  0  0  0  0
  187.4490  176.1010  136.9890 C   0  0  0  0  0  2  0  0  0  0  0  0
  186.0650  178.0420  137.4980 N   0  0  0  0  0  1  0  0  0  0  0  0
  186.3740  177.0490  136.4820 C   0  0  0  0  0  2  0  0  0  0  0  0
  185.6080  179.5440  140.4030 O   0  0  0  0  0  0  0  0  0  0  0  0
  187.3060  178.4580  141.5660 N   0  0  0  0  0  2  0  0  0  0  0  0
  185.9780  178.9760  141.4660 C   0  0  0  0  0  0  0  0  0  0  0  0
  188.2920  178.6520  140.5160 C   0  0  0  0  0  2  0  0  0  0  0  0
  189.4320  177.6660  140.6830 C   0  0  1  0  0  3  0  0  0  0  0  0
  188.9570  176.5270  141.3410 O   0  0  0  0  0  1  0  0  0  0  0  0
  189.9540  177.2890  139.3080 C   0  0  0  0  0  2  0  0  0  0  0  0
  191.4630  177.4160  139.2500 C   0  0  0  0  0  2  0  0  0  0  0  0
  192.0590  176.0850  138.8240 C   0  0  1  0  0  3  0  0  0  0  0  0
  191.0320  175.2260  138.4230 O   0  0  0  0  0  1  0  0  0  0  0  0
  193.0590  176.2740  137.6890 C   0  0  2  0  0  3  0  0  0  0  0  0
  192.4960  175.8130  136.4950 O   0  0  0  0  0  1  0  0  0  0  0  0
  194.2710  175.5190  137.9810 N   0  0  0  0  0  2  0  0  0  0  0  0
  194.7550  174.9420  136.7340 C   0  0  0  0  0  2  0  0  0  0  0  0
  196.4270  173.3140  135.8010 C   0  0  1  0  0  3  0  0  0  0  0  0
  195.4140  172.3730  135.6040 O   0  0  0  0  0  1  0  0  0  0  0  0
  198.2910  174.5150  137.4220 C   0  0  0  0  0  2  0  0  0  0  0  0
  196.0730  174.2330  136.9860 C   0  0  1  0  0  3  0  0  0  0  0  0
  198.6410  173.6120  136.2340 C   0  0  0  0  0  2  0  0  0  0  0  0
  197.6350  172.6390  136.0690 O   0  0  0  0  0  0  0  0  0  0  0  0
  197.0880  175.1990  137.1590 O   0  0  0  0  0  0  0  0  0  0  0  0
  185.5230  178.7120  143.9690 C   0  0  1  0  0  3  0  0  0  0  0  0
  183.6480  179.1490  145.7590 N   0  0  0  0  0  0  0  0  0  0  0  0
  184.4740  178.9580  144.9700 C   0  0  0  0  0  0  0  0  0  0  0  0
  186.2480  177.4270  144.2360 C   0  0  0  0  0  0  0  0  0  0  0  0
  186.5270  176.6670  143.3210 O   0  0  0  0  0  0  0  0  0  0  0  0
  186.6800  177.1210  145.6310 C   0  0  0  0  0  2  0  0  0  0  0  0
  187.6400  178.1920  146.1270 C   0  0  0  0  0  2  0  0  0  0  0  0
  191.0700  177.4470  144.4990 C   0  0  0  0  0  0  0  0  0  0  0  0
  189.8440  177.3410  147.1590 C   0  0  0  0  0  2  0  0  0  0  0  0
  191.1060  176.0810  143.8320 C   0  0  0  0  0  1  0  0  0  0  0  0
  191.9530  176.5010  147.8940 O   0  0  0  0  0  1  0  0  0  0  0  0
  189.0520  177.7440  145.9430 C   0  0  0  0  0  0  0  0  0  0  0  0
  191.1420  176.6390  146.7680 C   0  0  2  0  0  3  0  0  0  0  0  0
  191.7020  178.4470  143.5550 C   0  0  0  0  0  1  0  0  0  0  0  0
  191.8460  177.4220  145.7490 N   0  0  0  0  0  2  0  0  0  0  0  0
  189.6360  177.8570  144.7390 C   0  0  0  0  0  3  0  0  0  0  0  0
  1 49  1  0  0  0  0
  2  1  2  0  0  0  0
  3  6  1  0  0  0  0
  3  5  1  0  0  0  0
  4  9  1  0  0  0  0
  5  8  2  0  0  0  0
  6 10  1  6  0  0  0
  6  4  1  0  0  0  0
  7  2  1  6  0  0  0
  8  7  1  0  0  0  0
  9  7  1  0  0  0  0
 10 13  1  6  0  0  0
 10 12  1  0  0  0  0
 12 11  1  0  0  0  0
 14 15  1  0  0  0  0
 14 13  1  0  0  0  0
 15 16  1  6  0  0  0
 18 19  1  0  0  0  0
 19 17  1  0  0  0  0
 20 17  1  0  0  0  0
 21 18  2  0  0  0  0
 22 21  1  0  0  0  0
 22 15  1  1  0  0  0
 22 20  1  0  0  0  0
 24 18  1  0  0  0  0
 24 23  1  1  0  0  0
 24 25  1  0  0  0  0
 27 25  1  0  0  0  0
 27 26  1  0  0  0  0
 28 30  2  0  0  0  0
 30 29  1  0  0  0  0
 30  1  1  0  0  0  0
 31 32  1  0  0  0  0
 31 29  1  0  0  0  0
 32 33  1  6  0  0  0
 34 32  1  0  0  0  0
 35 34  1  0  0  0  0
 36 37  1  6  0  0  0
 36 35  1  0  0  0  0
 38 39  1  6  0  0  0
 38 40  1  0  0  0  0
 38 36  1  0  0  0  0
 41 40  1  0  0  0  0
 42 43  1  1  0  0  0
 42 47  1  0  0  0  0
 42 45  1  0  0  0  0
 45 41  1  6  0  0  0
 45 48  1  0  0  0  0
 46 44  1  0  0  0  0
 47 46  1  0  0  0  0
 48 44  1  0  0  0  0
 49 52  1  0  0  0  0
 49 51  1  1  0  0  0
 51 50  3  0  0  0  0
 52 54  1  0  0  0  0
 53 52  2  0  0  0  0
 54 55  1  0  0  0  0
 56 64  1  0  0  0  0
 56 63  1  0  0  0  0
 58 56  1  0  0  0  0
 60 55  1  0  0  0  0
 60 57  1  0  0  0  0
 61 57  1  0  0  0  0
 61 59  1  1  0  0  0
 62 56  1  0  0  0  0
 63 61  1  0  0  0  0
 64 60  2  0  0  0  0
M  END
>  <MODEL>
3

>  <REMARK>
 VINA RESULT:      -6.4      2.243      4.455
  Name = 
  26 active torsions:
  status: ('A' for Active; 'I' for Inactive)
    1  A    between atoms: C_3  and  C_16
    2  A    between atoms: C_3  and  C_62
    3  A    between atoms: C_4  and  C_43
    4  A    between atoms: C_4  and  C_63
    5  A    between atoms: C_5  and  C_18
    6  A    between atoms: C_6  and  C_7
    7  A    between atoms: C_6  and  C_54
    8  A    between atoms: C_7  and  C_36
    9  A    between atoms: C_8  and  N_33
   10  A    between atoms: C_8  and  C_34
   11  A    between atoms: C_16  and  N_29
   12  A    between atoms: C_18  and  C_55
   13  A    between atoms: C_19  and  C_36
   14  A    between atoms: C_19  and  C_58
   15  A    between atoms: C_25  and  C_27
   16  A    between atoms: C_27  and  N_33
   17  A    between atoms: C_28  and  C_41
   18  A    between atoms: N_29  and  C_41
   19  A    between atoms: C_32  and  N_46
   20  A    between atoms: C_34  and  C_42
   21  A    between atoms: C_36  and  C_53
   22  A    between atoms: C_37  and  C_54
   23  A    between atoms: N_38  and  C_63
   24  A    between atoms: C_40  and  C_55
   25  A    between atoms: C_41  and  N_57
   26  A    between atoms: C_42  and  C_43
                            x       y       z     vdW  Elec       q    Type
                         _______ _______ _______ _____ _____    ______ ____

>  <TORSDO>
F 26

$$$$
=
 OpenBabel10232410433D

 64 67  0  0  1  0  0  0  0  0999 V2000
  189.2400  177.5700  140.2320 C   0  0  0  0  0  0  0  0  0  0  0  0
  189.2280  176.9190  139.1000 N   0  0  0  0  0  0  0  0  0  0  0  0
  186.6860  177.4800  135.3560 C   0  0  0  0  0  2  0  0  0  0  0  0
  186.5890  175.5570  137.0190 C   0  0  0  0  0  2  0  0  0  0  0  0
  188.0190  178.1270  135.7130 C   0  0  0  0  0  3  0  0  0  0  0  0
  186.6020  175.9390  135.5660 C   0  0  1  0  0  3  0  0  0  0  0  0
  188.3260  177.1250  138.0090 C   0  0  1  0  0  3  0  0  0  0  0  0
  188.7050  178.0040  136.8740 C   0  0  0  0  0  3  0  0  0  0  0  0
  187.4520  176.2230  137.7130 C   0  0  0  0  0  2  0  0  0  0  0  0
  185.4140  175.3120  134.8360 C   0  0  1  0  0  3  0  0  0  0  0  0
  186.0450  173.2190  135.4260 O   0  0  0  0  0  1  0  0  0  0  0  0
  185.7350  173.9760  134.3460 N   0  0  0  0  0  2  0  0  0  0  0  0
  184.2620  175.2600  135.7280 N   0  0  0  0  0  2  0  0  0  0  0  0
  183.0650  175.5750  134.9570 C   0  0  0  0  0  2  0  0  0  0  0  0
  182.2490  176.6710  135.6380 C   0  0  1  0  0  3  0  0  0  0  0  0
  182.2950  177.9200  134.7690 C   0  0  0  0  0  1  0  0  0  0  0  0
  181.2440  175.4240  138.3320 C   0  0  0  0  0  2  0  0  0  0  0  0
  180.7540  173.7430  136.4840 C   0  0  0  0  0  0  0  0  0  0  0  0
  180.8050  174.0120  137.9750 C   0  0  0  0  0  2  0  0  0  0  0  0
  180.1510  176.6180  137.5080 S   0  0  0  0  0  0  0  0  0  0  0  0
  180.6730  174.7190  135.5630 C   0  0  0  0  0  3  0  0  0  0  0  0
  180.8030  176.1970  135.8480 C   0  0  2  0  0  3  0  0  0  0  0  0
  180.2260  171.5090  137.0780 O   0  0  0  0  0  1  0  0  0  0  0  0
  180.5940  172.3320  136.0110 C   0  0  2  0  0  3  0  0  0  0  0  0
  181.8830  171.8260  135.3730 C   0  0  0  0  0  2  0  0  0  0  0  0
  183.5600  171.8120  137.1430 N   0  0  0  0  0  1  0  0  0  0  0  0
  182.6760  170.9730  136.3510 C   0  0  0  0  0  2  0  0  0  0  0  0
  188.4440  179.4590  141.4270 O   0  0  0  0  0  0  0  0  0  0  0  0
  186.8330  178.3330  140.1800 N   0  0  0  0  0  2  0  0  0  0  0  0
  188.1780  178.5240  140.6240 C   0  0  0  0  0  0  0  0  0  0  0  0
  185.7630  179.2490  140.5410 C   0  0  0  0  0  2  0  0  0  0  0  0
  184.4180  178.6460  140.1840 C   0  0  1  0  0  3  0  0  0  0  0  0
  184.5860  177.7590  139.1150 O   0  0  0  0  0  1  0  0  0  0  0  0
  183.8830  177.9010  141.3930 C   0  0  0  0  0  2  0  0  0  0  0  0
  184.8210  178.0450  142.5740 C   0  0  0  0  0  2  0  0  0  0  0  0
  184.1560  178.9030  143.6370 C   0  0  1  0  0  3  0  0  0  0  0  0
  182.7690  178.8550  143.4680 O   0  0  0  0  0  1  0  0  0  0  0  0
  184.5310  178.4270  145.0360 C   0  0  2  0  0  3  0  0  0  0  0  0
  183.7240  179.0750  145.9770 O   0  0  0  0  0  1  0  0  0  0  0  0
  185.9310  178.7400  145.2960 N   0  0  0  0  0  2  0  0  0  0  0  0
  186.4010  177.8590  146.3560 C   0  0  0  0  0  2  0  0  0  0  0  0
  188.4230  177.1310  147.6600 C   0  0  1  0  0  3  0  0  0  0  0  0
  187.7860  177.4710  148.8540 O   0  0  0  0  0  1  0  0  0  0  0  0
  189.9170  177.8320  145.4640 C   0  0  0  0  0  2  0  0  0  0  0  0
  187.9030  178.0160  146.5110 C   0  0  1  0  0  3  0  0  0  0  0  0
  190.4270  176.9390  146.6010 C   0  0  0  0  0  2  0  0  0  0  0  0
  189.8120  177.3170  147.8110 O   0  0  0  0  0  0  0  0  0  0  0  0
  188.5310  177.6460  145.3020 O   0  0  0  0  0  0  0  0  0  0  0  0
  190.3950  177.3750  141.1750 C   0  0  1  0  0  3  0  0  0  0  0  0
  190.0480  175.3360  142.7980 N   0  0  0  0  0  0  0  0  0  0  0  0
  190.2020  176.2350  142.0840 C   0  0  0  0  0  0  0  0  0  0  0  0
  191.6920  177.2700  140.4290 C   0  0  0  0  0  0  0  0  0  0  0  0
  192.7580  177.3970  141.0130 O   0  0  0  0  0  0  0  0  0  0  0  0
  191.6610  176.9470  138.9730 C   0  0  0  0  0  2  0  0  0  0  0  0
  193.0600  176.6090  138.4830 C   0  0  0  0  0  2  0  0  0  0  0  0
  194.1930  173.5160  136.4540 C   0  0  0  0  0  0  0  0  0  0  0  0
  191.6870  174.8080  137.2530 C   0  0  0  0  0  2  0  0  0  0  0  0
  194.5930  173.8760  135.0320 C   0  0  0  0  0  1  0  0  0  0  0  0
  190.6150  173.0820  136.0000 O   0  0  0  0  0  1  0  0  0  0  0  0
  193.0250  175.3960  137.6150 C   0  0  0  0  0  0  0  0  0  0  0  0
  191.8190  173.7730  136.1380 C   0  0  2  0  0  3  0  0  0  0  0  0
  195.2410  172.5760  137.0120 C   0  0  0  0  0  1  0  0  0  0  0  0
  192.8930  172.8280  136.4570 N   0  0  0  0  0  2  0  0  0  0  0  0
  194.1700  174.7640  137.3050 C   0  0  0  0  0  3  0  0  0  0  0  0
  1 30  1  0  0  0  0
  1 49  1  0  0  0  0
  2  1  2  0  0  0  0
  3  6  1  0  0  0  0
  3  5  1  0  0  0  0
  4  9  1  0  0  0  0
  5  8  2  0  0  0  0
  6 10  1  1  0  0  0
  6  4  1  0  0  0  0
  7  2  1  6  0  0  0
  8  7  1  0  0  0  0
  9  7  1  0  0  0  0
 10 12  1  1  0  0  0
 10 13  1  0  0  0  0
 12 11  1  0  0  0  0
 14 15  1  0  0  0  0
 14 13  1  0  0  0  0
 15 16  1  6  0  0  0
 18 19  1  0  0  0  0
 19 17  1  0  0  0  0
 20 17  1  0  0  0  0
 21 22  1  0  0  0  0
 21 18  2  0  0  0  0
 22 15  1  1  0  0  0
 22 20  1  0  0  0  0
 24 18  1  0  0  0  0
 24 23  1  1  0  0  0
 25 24  1  0  0  0  0
 25 27  1  0  0  0  0
 27 26  1  0  0  0  0
 29 31  1  0  0  0  0
 29 30  1  0  0  0  0
 30 28  2  0  0  0  0
 32 33  1  6  0  0  0
 32 31  1  0  0  0  0
 32 34  1  0  0  0  0
 34 35  1  0  0  0  0
 35 36  1  0  0  0  0
 36 37  1  1  0  0  0
 36 38  1  0  0  0  0
 38 40  1  0  0  0  0
 38 39  1  1  0  0  0
 40 41  1  0  0  0  0
 42 47  1  0  0  0  0
 42 43  1  1  0  0  0
 44 46  1  0  0  0  0
 45 41  1  6  0  0  0
 45 42  1  0  0  0  0
 46 47  1  0  0  0  0
 48 44  1  0  0  0  0
 48 45  1  0  0  0  0
 49 51  1  6  0  0  0
 51 50  3  0  0  0  0
 52 53  2  0  0  0  0
 52 49  1  0  0  0  0
 54 52  1  0  0  0  0
 55 54  1  0  0  0  0
 56 63  1  0  0  0  0
 56 62  1  0  0  0  0
 56 64  1  0  0  0  0
 57 60  1  0  0  0  0
 58 56  1  0  0  0  0
 60 55  1  0  0  0  0
 61 59  1  1  0  0  0
 61 63  1  0  0  0  0
 61 57  1  0  0  0  0
 64 60  2  0  0  0  0
M  END
>  <MODEL>
4

>  <REMARK>
 VINA RESULT:      -5.8      2.801      8.673
  Name = 
  26 active torsions:
  status: ('A' for Active; 'I' for Inactive)
    1  A    between atoms: C_3  and  C_16
    2  A    between atoms: C_3  and  C_62
    3  A    between atoms: C_4  and  C_43
    4  A    between atoms: C_4  and  C_63
    5  A    between atoms: C_5  and  C_18
    6  A    between atoms: C_6  and  C_7
    7  A    between atoms: C_6  and  C_54
    8  A    between atoms: C_7  and  C_36
    9  A    between atoms: C_8  and  N_33
   10  A    between atoms: C_8  and  C_34
   11  A    between atoms: C_16  and  N_29
   12  A    between atoms: C_18  and  C_55
   13  A    between atoms: C_19  and  C_36
   14  A    between atoms: C_19  and  C_58
   15  A    between atoms: C_25  and  C_27
   16  A    between atoms: C_27  and  N_33
   17  A    between atoms: C_28  and  C_41
   18  A    between atoms: N_29  and  C_41
   19  A    between atoms: C_32  and  N_46
   20  A    between atoms: C_34  and  C_42
   21  A    between atoms: C_36  and  C_53
   22  A    between atoms: C_37  and  C_54
   23  A    between atoms: N_38  and  C_63
   24  A    between atoms: C_40  and  C_55
   25  A    between atoms: C_41  and  N_57
   26  A    between atoms: C_42  and  C_43
                            x       y       z     vdW  Elec       q    Type
                         _______ _______ _______ _____ _____    ______ ____

>  <TORSDO>
F 26

$$$$
=
 OpenBabel10232410433D

 64 67  0  0  1  0  0  0  0  0999 V2000
  188.3370  177.4300  137.1490 C   0  0  0  0  0  0  0  0  0  0  0  0
  189.1810  176.7240  136.4450 N   0  0  0  0  0  0  0  0  0  0  0  0
  193.3880  175.3530  137.5500 C   0  0  0  0  0  2  0  0  0  0  0  0
  192.5880  176.2390  135.3030 C   0  0  0  0  0  2  0  0  0  0  0  0
  192.0670  175.0420  138.2440 C   0  0  0  0  0  3  0  0  0  0  0  0
  193.3970  175.1830  136.0020 C   0  0  1  0  0  3  0  0  0  0  0  0
  190.5370  176.4270  136.7910 C   0  0  1  0  0  3  0  0  0  0  0  0
  190.8430  175.5370  137.9390 C   0  0  0  0  0  3  0  0  0  0  0  0
  191.4580  176.4640  135.8870 C   0  0  0  0  0  2  0  0  0  0  0  0
  194.8130  175.1240  135.4280 C   0  0  1  0  0  3  0  0  0  0  0  0
  196.7530  176.2540  135.7190 O   0  0  0  0  0  1  0  0  0  0  0  0
  195.8010  175.5750  136.4020 N   0  0  0  0  0  2  0  0  0  0  0  0
  195.1120  173.7640  134.9970 N   0  0  0  0  0  2  0  0  0  0  0  0
  195.7850  173.0700  136.0900 C   0  0  0  0  0  2  0  0  0  0  0  0
  195.2640  171.6430  136.2350 C   0  0  1  0  0  3  0  0  0  0  0  0
  193.8600  171.5770  135.6510 C   0  0  0  0  0  1  0  0  0  0  0  0
  196.6960  169.2780  137.7110 C   0  0  0  0  0  2  0  0  0  0  0  0
  198.5010  170.6860  136.5980 C   0  0  0  0  0  0  0  0  0  0  0  0
  198.1830  169.5620  137.5630 C   0  0  0  0  0  2  0  0  0  0  0  0
  195.9870  168.9310  136.0750 S   0  0  0  0  0  0  0  0  0  0  0  0
  197.6450  171.1060  135.6500 C   0  0  0  0  0  3  0  0  0  0  0  0
  196.2060  170.6640  135.5190 C   0  0  2  0  0  3  0  0  0  0  0  0
  200.0660  172.1640  137.5910 O   0  0  0  0  0  1  0  0  0  0  0  0
  199.8940  171.2350  136.5620 C   0  0  2  0  0  3  0  0  0  0  0  0
  200.1860  171.8790  135.2130 C   0  0  0  0  0  2  0  0  0  0  0  0
  198.9360  173.9500  134.9070 N   0  0  0  0  0  1  0  0  0  0  0  0
  200.2120  173.3960  135.3270 C   0  0  0  0  0  2  0  0  0  0  0  0
  188.9830  179.4220  138.2640 O   0  0  0  0  0  0  0  0  0  0  0  0
  188.9320  177.5190  139.6020 N   0  0  0  0  0  2  0  0  0  0  0  0
  188.7330  178.1900  138.3560 C   0  0  0  0  0  0  0  0  0  0  0  0
  189.3190  178.2300  140.8090 C   0  0  0  0  0  2  0  0  0  0  0  0
  190.0510  177.2960  141.7530 C   0  0  1  0  0  3  0  0  0  0  0  0
  190.3500  176.1080  141.0770 O   0  0  0  0  0  1  0  0  0  0  0  0
  191.3350  177.9700  142.2050 C   0  0  0  0  0  2  0  0  0  0  0  0
  191.2760  178.3060  143.6810 C   0  0  0  0  0  2  0  0  0  0  0  0
  190.4690  177.2410  144.4040 C   0  0  1  0  0  3  0  0  0  0  0  0
  191.3150  176.5110  145.2430 O   0  0  0  0  0  1  0  0  0  0  0  0
  189.3390  177.8670  145.2130 C   0  0  2  0  0  3  0  0  0  0  0  0
  189.4430  177.4590  146.5460 O   0  0  0  0  0  1  0  0  0  0  0  0
  188.0570  177.4370  144.6690 N   0  0  0  0  0  2  0  0  0  0  0  0
  187.0610  177.5410  145.7250 C   0  0  0  0  0  2  0  0  0  0  0  0
  185.0110  178.9830  145.9130 C   0  0  1  0  0  3  0  0  0  0  0  0
  184.8450  178.5900  147.2420 O   0  0  0  0  0  1  0  0  0  0  0  0
  184.6320  178.5480  143.2270 C   0  0  0  0  0  2  0  0  0  0  0  0
  185.7100  177.8670  145.1140 C   0  0  1  0  0  3  0  0  0  0  0  0
  183.9470  179.6670  144.0210 C   0  0  0  0  0  2  0  0  0  0  0  0
  183.7450  179.2460  145.3510 O   0  0  0  0  0  0  0  0  0  0  0  0
  185.9000  178.2840  143.7780 O   0  0  0  0  0  0  0  0  0  0  0  0
  186.8890  177.4560  136.7420 C   0  0  1  0  0  3  0  0  0  0  0  0
  186.5250  178.4720  134.3460 N   0  0  0  0  0  0  0  0  0  0  0  0
  186.6850  178.0250  135.4020 C   0  0  0  0  0  0  0  0  0  0  0  0
  186.2680  176.0970  136.8640 C   0  0  0  0  0  0  0  0  0  0  0  0
  186.8710  175.1010  136.4920 O   0  0  0  0  0  0  0  0  0  0  0  0
  184.9250  175.9730  137.5030 C   0  0  0  0  0  2  0  0  0  0  0  0
  184.5440  174.5070  137.6370 C   0  0  0  0  0  2  0  0  0  0  0  0
  181.6110  172.6060  135.9780 C   0  0  0  0  0  0  0  0  0  0  0  0
  182.6430  175.3450  136.1110 C   0  0  0  0  0  2  0  0  0  0  0  0
  182.0340  171.8980  134.7000 C   0  0  0  0  0  1  0  0  0  0  0  0
  180.8470  175.8950  134.6390 O   0  0  0  0  0  1  0  0  0  0  0  0
  183.3490  174.2050  136.7950 C   0  0  0  0  0  0  0  0  0  0  0  0
  181.6460  174.8380  135.0720 C   0  0  2  0  0  3  0  0  0  0  0  0
  180.7650  171.6460  136.7880 C   0  0  0  0  0  1  0  0  0  0  0  0
  180.8030  173.7920  135.6570 N   0  0  0  0  0  2  0  0  0  0  0  0
  182.8350  172.9640  136.7880 C   0  0  0  0  0  3  0  0  0  0  0  0
  1 30  1  0  0  0  0
  2  1  2  0  0  0  0
  3  5  1  0  0  0  0
  4  9  1  0  0  0  0
  4  6  1  0  0  0  0
  6 10  1  6  0  0  0
  6  3  1  0  0  0  0
  7  2  1  6  0  0  0
  7  8  1  0  0  0  0
  8  5  2  0  0  0  0
  9  7  1  0  0  0  0
 10 13  1  1  0  0  0
 10 12  1  0  0  0  0
 11 12  1  0  0  0  0
 13 14  1  0  0  0  0
 14 15  1  0  0  0  0
 15 16  1  6  0  0  0
 18 19  1  0  0  0  0
 19 17  1  0  0  0  0
 20 17  1  0  0  0  0
 21 18  2  0  0  0  0
 22 21  1  0  0  0  0
 22 20  1  0  0  0  0
 22 15  1  1  0  0  0
 24 18  1  0  0  0  0
 24 23  1  1  0  0  0
 25 27  1  0  0  0  0
 25 24  1  0  0  0  0
 26 27  1  0  0  0  0
 28 30  2  0  0  0  0
 29 31  1  0  0  0  0
 30 29  1  0  0  0  0
 31 32  1  0  0  0  0
 32 33  1  6  0  0  0
 32 34  1  0  0  0  0
 34 35  1  0  0  0  0
 35 36  1  0  0  0  0
 36 38  1  0  0  0  0
 36 37  1  1  0  0  0
 38 39  1  1  0  0  0
 40 38  1  0  0  0  0
 40 41  1  0  0  0  0
 42 43  1  1  0  0  0
 44 48  1  0  0  0  0
 44 46  1  0  0  0  0
 45 41  1  1  0  0  0
 45 42  1  0  0  0  0
 46 47  1  0  0  0  0
 47 42  1  0  0  0  0
 48 45  1  0  0  0  0
 49 51  1  6  0  0  0
 49 52  1  0  0  0  0
 49  1  1  0  0  0  0
 50 51  3  0  0  0  0
 52 54  1  0  0  0  0
 53 52  2  0  0  0  0
 54 55  1  0  0  0  0
 56 62  1  0  0  0  0
 56 64  1  0  0  0  0
 57 60  1  0  0  0  0
 58 56  1  0  0  0  0
 60 55  1  0  0  0  0
 61 59  1  1  0  0  0
 61 63  1  0  0  0  0
 61 57  1  0  0  0  0
 63 56  1  0  0  0  0
 64 60  2  0  0  0  0
M  END
>  <MODEL>
5

>  <REMARK>
 VINA RESULT:      -5.6      3.191     11.566
  Name = 
  26 active torsions:
  status: ('A' for Active; 'I' for Inactive)
    1  A    between atoms: C_3  and  C_16
    2  A    between atoms: C_3  and  C_62
    3  A    between atoms: C_4  and  C_43
    4  A    between atoms: C_4  and  C_63
    5  A    between atoms: C_5  and  C_18
    6  A    between atoms: C_6  and  C_7
    7  A    between atoms: C_6  and  C_54
    8  A    between atoms: C_7  and  C_36
    9  A    between atoms: C_8  and  N_33
   10  A    between atoms: C_8  and  C_34
   11  A    between atoms: C_16  and  N_29
   12  A    between atoms: C_18  and  C_55
   13  A    between atoms: C_19  and  C_36
   14  A    between atoms: C_19  and  C_58
   15  A    between atoms: C_25  and  C_27
   16  A    between atoms: C_27  and  N_33
   17  A    between atoms: C_28  and  C_41
   18  A    between atoms: N_29  and  C_41
   19  A    between atoms: C_32  and  N_46
   20  A    between atoms: C_34  and  C_42
   21  A    between atoms: C_36  and  C_53
   22  A    between atoms: C_37  and  C_54
   23  A    between atoms: N_38  and  C_63
   24  A    between atoms: C_40  and  C_55
   25  A    between atoms: C_41  and  N_57
   26  A    between atoms: C_42  and  C_43
                            x       y       z     vdW  Elec       q    Type
                         _______ _______ _______ _____ _____    ______ ____

>  <TORSDO>
F 26

$$$$
=
 OpenBabel10232410433D

 64 67  0  0  1  0  0  0  0  0999 V2000
  188.4380  177.2190  137.1790 C   0  0  0  0  0  0  0  0  0  0  0  0
  189.2840  176.5560  136.4370 N   0  0  0  0  0  0  0  0  0  0  0  0
  193.6220  175.4910  137.3600 C   0  0  0  0  0  2  0  0  0  0  0  0
  192.6100  176.0330  135.0900 C   0  0  0  0  0  2  0  0  0  0  0  0
  192.3740  175.2350  138.1980 C   0  0  0  0  0  3  0  0  0  0  0  0
  193.5170  175.1110  135.8540 C   0  0  1  0  0  3  0  0  0  0  0  0
  190.6750  176.3540  136.7050 C   0  0  1  0  0  3  0  0  0  0  0  0
  191.1100  175.6420  137.9330 C   0  0  0  0  0  3  0  0  0  0  0  0
  191.5200  176.2980  135.7310 C   0  0  0  0  0  2  0  0  0  0  0  0
  194.8850  175.0210  135.1770 C   0  0  1  0  0  3  0  0  0  0  0  0
  196.5180  176.5480  135.5360 O   0  0  0  0  0  1  0  0  0  0  0  0
  195.9530  175.4420  136.0770 N   0  0  0  0  0  2  0  0  0  0  0  0
  195.1180  173.6570  134.7190 N   0  0  0  0  0  2  0  0  0  0  0  0
  195.6010  172.8670  135.8470 C   0  0  0  0  0  2  0  0  0  0  0  0
  194.9740  171.4760  135.8480 C   0  0  1  0  0  3  0  0  0  0  0  0
  193.7080  171.5130  135.0040 C   0  0  0  0  0  1  0  0  0  0  0  0
  196.3540  169.3150  137.6510 C   0  0  0  0  0  2  0  0  0  0  0  0
  198.1990  170.6380  136.5000 C   0  0  0  0  0  0  0  0  0  0  0  0
  197.8420  169.6160  137.5600 C   0  0  0  0  0  2  0  0  0  0  0  0
  195.7510  168.7790  136.0240 S   0  0  0  0  0  0  0  0  0  0  0  0
  197.3950  170.9350  135.4640 C   0  0  0  0  0  3  0  0  0  0  0  0
  195.9750  170.4480  135.2980 C   0  0  2  0  0  3  0  0  0  0  0  0
  200.2280  170.9270  137.6920 O   0  0  0  0  0  1  0  0  0  0  0  0
  199.5820  171.2120  136.4870 C   0  0  2  0  0  3  0  0  0  0  0  0
  199.5400  172.7180  136.2530 C   0  0  0  0  0  2  0  0  0  0  0  0
  199.0420  174.7030  137.5770 N   0  0  0  0  0  1  0  0  0  0  0  0
  199.8210  173.4770  137.5400 C   0  0  0  0  0  2  0  0  0  0  0  0
  189.1010  179.2550  138.2010 O   0  0  0  0  0  0  0  0  0  0  0  0
  189.0740  177.4070  139.6160 N   0  0  0  0  0  2  0  0  0  0  0  0
  188.8540  178.0270  138.3470 C   0  0  0  0  0  0  0  0  0  0  0  0
  189.4800  178.1670  140.7870 C   0  0  0  0  0  2  0  0  0  0  0  0
  190.1670  177.2560  141.7870 C   0  0  1  0  0  3  0  0  0  0  0  0
  190.3600  176.0000  141.2010 O   0  0  0  0  0  1  0  0  0  0  0  0
  191.5070  177.8650  142.1570 C   0  0  0  0  0  2  0  0  0  0  0  0
  191.5900  178.1200  143.6490 C   0  0  0  0  0  2  0  0  0  0  0  0
  190.5930  177.2230  144.3640 C   0  0  1  0  0  3  0  0  0  0  0  0
  191.2530  176.5060  145.3660 O   0  0  0  0  0  1  0  0  0  0  0  0
  189.4570  178.0420  144.9660 C   0  0  2  0  0  3  0  0  0  0  0  0
  189.5630  178.0250  146.3600 O   0  0  0  0  0  1  0  0  0  0  0  0
  188.1790  177.4650  144.5660 N   0  0  0  0  0  2  0  0  0  0  0  0
  187.2740  177.5430  145.7040 C   0  0  0  0  0  2  0  0  0  0  0  0
  185.3900  179.2050  145.7810 C   0  0  1  0  0  3  0  0  0  0  0  0
  185.4030  179.1680  147.1770 O   0  0  0  0  0  1  0  0  0  0  0  0
  184.5700  178.1760  143.3700 C   0  0  0  0  0  2  0  0  0  0  0  0
  185.8730  177.8580  145.2110 C   0  0  1  0  0  3  0  0  0  0  0  0
  184.1010  179.5230  143.9330 C   0  0  0  0  0  2  0  0  0  0  0  0
  184.0760  179.4630  145.3410 O   0  0  0  0  0  0  0  0  0  0  0  0
  185.8850  177.9150  143.8000 O   0  0  0  0  0  0  0  0  0  0  0  0
  186.9710  177.1430  136.8600 C   0  0  1  0  0  3  0  0  0  0  0  0
  186.2350  174.7640  136.0180 N   0  0  0  0  0  0  0  0  0  0  0  0
  186.5600  175.8120  136.3880 C   0  0  0  0  0  0  0  0  0  0  0  0
  186.1390  177.5940  138.0240 C   0  0  0  0  0  0  0  0  0  0  0  0
  186.4310  177.2630  139.1630 O   0  0  0  0  0  0  0  0  0  0  0  0
  184.9850  178.5060  137.7730 C   0  0  0  0  0  2  0  0  0  0  0  0
  184.5570  179.1750  139.0700 C   0  0  0  0  0  2  0  0  0  0  0  0
  180.8250  179.5730  138.1310 C   0  0  0  0  0  0  0  0  0  0  0  0
  182.4190  178.6710  140.4190 C   0  0  0  0  0  2  0  0  0  0  0  0
  180.3370  181.0030  138.3030 C   0  0  0  0  0  1  0  0  0  0  0  0
  180.3230  178.3380  141.5120 O   0  0  0  0  0  1  0  0  0  0  0  0
  183.0680  179.2040  139.1690 C   0  0  0  0  0  0  0  0  0  0  0  0
  180.9400  179.0450  140.4790 C   0  0  2  0  0  3  0  0  0  0  0  0
  180.3100  179.0580  136.8040 C   0  0  0  0  0  1  0  0  0  0  0  0
  180.2900  178.7220  139.2060 N   0  0  0  0  0  2  0  0  0  0  0  0
  182.3350  179.5520  138.0980 C   0  0  0  0  0  3  0  0  0  0  0  0
  1 30  1  0  0  0  0
  2  1  2  0  0  0  0
  3  5  1  0  0  0  0
  4  9  1  0  0  0  0
  4  6  1  0  0  0  0
  6 10  1  6  0  0  0
  6  3  1  0  0  0  0
  7  2  1  6  0  0  0
  7  8  1  0  0  0  0
  8  5  2  0  0  0  0
  9  7  1  0  0  0  0
 10 13  1  1  0  0  0
 10 12  1  0  0  0  0
 11 12  1  0  0  0  0
 13 14  1  0  0  0  0
 14 15  1  0  0  0  0
 15 16  1  6  0  0  0
 18 19  1  0  0  0  0
 19 17  1  0  0  0  0
 20 17  1  0  0  0  0
 21 18  2  0  0  0  0
 22 21  1  0  0  0  0
 22 15  1  1  0  0  0
 22 20  1  0  0  0  0
 24 18  1  0  0  0  0
 24 23  1  1  0  0  0
 25 24  1  0  0  0  0
 25 27  1  0  0  0  0
 27 26  1  0  0  0  0
 28 30  2  0  0  0  0
 29 31  1  0  0  0  0
 30 29  1  0  0  0  0
 31 32  1  0  0  0  0
 32 33  1  6  0  0  0
 32 34  1  0  0  0  0
 34 35  1  0  0  0  0
 35 36  1  0  0  0  0
 36 38  1  0  0  0  0
 36 37  1  1  0  0  0
 38 39  1  1  0  0  0
 40 38  1  0  0  0  0
 40 41  1  0  0  0  0
 42 43  1  1  0  0  0
 44 48  1  0  0  0  0
 44 46  1  0  0  0  0
 45 41  1  1  0  0  0
 45 42  1  0  0  0  0
 46 47  1  0  0  0  0
 47 42  1  0  0  0  0
 48 45  1  0  0  0  0
 49 51  1  1  0  0  0
 49  1  1  0  0  0  0
 49 52  1  0  0  0  0
 50 51  3  0  0  0  0
 52 53  2  0  0  0  0
 54 52  1  0  0  0  0
 54 55  1  0  0  0  0
 55 60  1  0  0  0  0
 56 58  1  0  0  0  0
 56 63  1  0  0  0  0
 57 61  1  0  0  0  0
 60 57  1  0  0  0  0
 61 59  1  1  0  0  0
 62 56  1  0  0  0  0
 63 61  1  0  0  0  0
 64 56  1  0  0  0  0
 64 60  2  0  0  0  0
M  END
>  <MODEL>
6

>  <REMARK>
 VINA RESULT:      -5.4      3.370     11.061
  Name = 
  26 active torsions:
  status: ('A' for Active; 'I' for Inactive)
    1  A    between atoms: C_3  and  C_16
    2  A    between atoms: C_3  and  C_62
    3  A    between atoms: C_4  and  C_43
    4  A    between atoms: C_4  and  C_63
    5  A    between atoms: C_5  and  C_18
    6  A    between atoms: C_6  and  C_7
    7  A    between atoms: C_6  and  C_54
    8  A    between atoms: C_7  and  C_36
    9  A    between atoms: C_8  and  N_33
   10  A    between atoms: C_8  and  C_34
   11  A    between atoms: C_16  and  N_29
   12  A    between atoms: C_18  and  C_55
   13  A    between atoms: C_19  and  C_36
   14  A    between atoms: C_19  and  C_58
   15  A    between atoms: C_25  and  C_27
   16  A    between atoms: C_27  and  N_33
   17  A    between atoms: C_28  and  C_41
   18  A    between atoms: N_29  and  C_41
   19  A    between atoms: C_32  and  N_46
   20  A    between atoms: C_34  and  C_42
   21  A    between atoms: C_36  and  C_53
   22  A    between atoms: C_37  and  C_54
   23  A    between atoms: N_38  and  C_63
   24  A    between atoms: C_40  and  C_55
   25  A    between atoms: C_41  and  N_57
   26  A    between atoms: C_42  and  C_43
                            x       y       z     vdW  Elec       q    Type
                         _______ _______ _______ _____ _____    ______ ____

>  <TORSDO>
F 26

$$$$
=
 OpenBabel10232410433D

 64 67  0  0  1  0  0  0  0  0999 V2000
  183.9840  178.2790  140.7630 C   0  0  0  0  0  0  0  0  0  0  0  0
  184.2920  178.0340  139.5170 N   0  0  0  0  0  0  0  0  0  0  0  0
  188.5900  177.7970  138.0120 C   0  0  0  0  0  2  0  0  0  0  0  0
  186.5180  176.7780  136.9450 C   0  0  0  0  0  2  0  0  0  0  0  0
  188.0830  178.1290  139.4110 C   0  0  0  0  0  3  0  0  0  0  0  0
  187.9500  176.5490  137.3370 C   0  0  1  0  0  3  0  0  0  0  0  0
  185.6040  178.0490  138.9470 C   0  0  1  0  0  3  0  0  0  0  0  0
  186.7950  178.2760  139.8030 C   0  0  0  0  0  3  0  0  0  0  0  0
  185.8450  177.3880  137.8650 C   0  0  0  0  0  2  0  0  0  0  0  0
  188.7600  176.0510  136.1390 C   0  0  1  0  0  3  0  0  0  0  0  0
  189.6670  177.4070  134.5690 O   0  0  0  0  0  1  0  0  0  0  0  0
  188.4920  176.8490  134.9470 N   0  0  0  0  0  2  0  0  0  0  0  0
  190.1820  176.0840  136.4610 N   0  0  0  0  0  2  0  0  0  0  0  0
  190.6480  174.7140  136.6380 C   0  0  0  0  0  2  0  0  0  0  0  0
  191.9740  174.4900  135.9150 C   0  0  1  0  0  3  0  0  0  0  0  0
  191.7370  174.6150  134.4160 C   0  0  0  0  0  1  0  0  0  0  0  0
  194.6300  175.0740  134.3570 C   0  0  0  0  0  2  0  0  0  0  0  0
  195.2690  174.4000  136.7270 C   0  0  0  0  0  0  0  0  0  0  0  0
  195.7450  174.6890  135.3180 C   0  0  0  0  0  2  0  0  0  0  0  0
  193.7280  176.5010  135.0270 S   0  0  0  0  0  0  0  0  0  0  0  0
  194.0940  174.8400  137.2120 C   0  0  0  0  0  3  0  0  0  0  0  0
  193.0150  175.5120  136.3960 C   0  0  2  0  0  3  0  0  0  0  0  0
  196.3750  172.4080  137.3830 O   0  0  0  0  0  1  0  0  0  0  0  0
  196.2180  173.7610  137.6930 C   0  0  2  0  0  3  0  0  0  0  0  0
  195.7220  173.9220  139.1250 C   0  0  0  0  0  2  0  0  0  0  0  0
  195.9650  175.9220  140.4970 N   0  0  0  0  0  1  0  0  0  0  0  0
  196.6750  174.7840  139.9390 C   0  0  0  0  0  2  0  0  0  0  0  0
  185.5950  179.8560  141.5030 O   0  0  0  0  0  0  0  0  0  0  0  0
  185.2670  178.0430  142.9260 N   0  0  0  0  0  2  0  0  0  0  0  0
  184.9620  178.7930  141.7480 C   0  0  0  0  0  0  0  0  0  0  0  0
  186.2200  178.5160  143.9170 C   0  0  0  0  0  2  0  0  0  0  0  0
  185.4860  179.1480  145.0840 C   0  0  1  0  0  3  0  0  0  0  0  0
  184.5330  180.0450  144.5910 O   0  0  0  0  0  1  0  0  0  0  0  0
  184.8010  178.0510  145.8790 C   0  0  0  0  0  2  0  0  0  0  0  0
  185.3620  177.9720  147.2850 C   0  0  0  0  0  2  0  0  0  0  0  0
  186.7820  178.5120  147.2860 C   0  0  1  0  0  3  0  0  0  0  0  0
  186.8170  179.7180  147.9930 O   0  0  0  0  0  1  0  0  0  0  0  0
  187.7460  177.5100  147.9080 C   0  0  2  0  0  3  0  0  0  0  0  0
  188.5280  178.1560  148.8710 O   0  0  0  0  0  1  0  0  0  0  0  0
  188.6080  176.9570  146.8710 N   0  0  0  0  0  2  0  0  0  0  0  0
  189.2100  178.0660  146.1460 C   0  0  0  0  0  2  0  0  0  0  0  0
  191.0650  176.5770  145.3330 C   0  0  1  0  0  3  0  0  0  0  0  0
  191.9710  177.2360  146.1650 O   0  0  0  0  0  1  0  0  0  0  0  0
  189.6920  176.3980  142.9610 C   0  0  0  0  0  2  0  0  0  0  0  0
  189.9310  177.5340  144.9200 C   0  0  1  0  0  3  0  0  0  0  0  0
  190.8110  175.4380  143.3800 C   0  0  0  0  0  2  0  0  0  0  0  0
  191.7440  176.1220  144.1840 O   0  0  0  0  0  0  0  0  0  0  0  0
  189.0040  176.8510  144.1030 O   0  0  0  0  0  0  0  0  0  0  0  0
  182.5840  178.0020  141.2380 C   0  0  1  0  0  3  0  0  0  0  0  0
  181.6520  179.8860  142.8160 N   0  0  0  0  0  0  0  0  0  0  0  0
  182.0630  179.0570  142.1200 C   0  0  0  0  0  0  0  0  0  0  0  0
  181.6610  177.7460  140.0840 C   0  0  0  0  0  0  0  0  0  0  0  0
  181.0870  178.6700  139.5280 O   0  0  0  0  0  0  0  0  0  0  0  0
  181.5030  176.3480  139.5850 C   0  0  0  0  0  2  0  0  0  0  0  0
  181.2930  176.3520  138.0790 C   0  0  0  0  0  2  0  0  0  0  0  0
  183.8090  173.6820  136.8500 C   0  0  0  0  0  0  0  0  0  0  0  0
  180.9060  173.9980  137.1010 C   0  0  0  0  0  2  0  0  0  0  0  0
  184.2930  173.9560  135.4340 C   0  0  0  0  0  1  0  0  0  0  0  0
  180.7720  171.8280  136.1170 O   0  0  0  0  0  1  0  0  0  0  0  0
  181.8540  175.1080  137.4760 C   0  0  0  0  0  0  0  0  0  0  0  0
  181.5980  172.9450  136.2390 C   0  0  2  0  0  3  0  0  0  0  0  0
  185.0120  173.3180  137.6940 C   0  0  0  0  0  1  0  0  0  0  0  0
  182.8690  172.5510  136.8540 N   0  0  0  0  0  2  0  0  0  0  0  0
  183.1850  174.9330  137.4230 C   0  0  0  0  0  3  0  0  0  0  0  0
  1 49  1  0  0  0  0
  1 30  1  0  0  0  0
  2  1  2  0  0  0  0
  3  5  1  0  0  0  0
  4  6  1  0  0  0  0
  4  9  1  0  0  0  0
  5  8  2  0  0  0  0
  6 10  1  6  0  0  0
  6  3  1  0  0  0  0
  7  2  1  1  0  0  0
  7  8  1  0  0  0  0
  9  7  1  0  0  0  0
 10 12  1  6  0  0  0
 10 13  1  0  0  0  0
 11 12  1  0  0  0  0
 13 14  1  0  0  0  0
 15 16  1  6  0  0  0
 15 14  1  0  0  0  0
 17 20  1  0  0  0  0
 17 19  1  0  0  0  0
 18 21  2  0  0  0  0
 18 24  1  0  0  0  0
 19 18  1  0  0  0  0
 20 22  1  0  0  0  0
 22 15  1  6  0  0  0
 22 21  1  0  0  0  0
 24 23  1  6  0  0  0
 24 25  1  0  0  0  0
 25 27  1  0  0  0  0
 27 26  1  0  0  0  0
 28 30  2  0  0  0  0
 29 31  1  0  0  0  0
 30 29  1  0  0  0  0
 31 32  1  0  0  0  0
 32 33  1  6  0  0  0
 32 34  1  0  0  0  0
 34 35  1  0  0  0  0
 35 36  1  0  0  0  0
 36 38  1  0  0  0  0
 36 37  1  1  0  0  0
 38 39  1  1  0  0  0
 40 38  1  0  0  0  0
 41 40  1  0  0  0  0
 42 43  1  1  0  0  0
 44 46  1  0  0  0  0
 44 48  1  0  0  0  0
 45 42  1  0  0  0  0
 45 41  1  1  0  0  0
 46 47  1  0  0  0  0
 47 42  1  0  0  0  0
 48 45  1  0  0  0  0
 49 51  1  6  0  0  0
 51 50  3  0  0  0  0
 52 49  1  0  0  0  0
 53 52  2  0  0  0  0
 54 52  1  0  0  0  0
 55 54  1  0  0  0  0
 56 63  1  0  0  0  0
 56 64  1  0  0  0  0
 56 62  1  0  0  0  0
 57 60  1  0  0  0  0
 58 56  1  0  0  0  0
 60 55  1  0  0  0  0
 61 59  1  1  0  0  0
 61 63  1  0  0  0  0
 61 57  1  0  0  0  0
 64 60  2  0  0  0  0
M  END
>  <MODEL>
7

>  <REMARK>
 VINA RESULT:      -5.2      3.081     10.265
  Name = 
  26 active torsions:
  status: ('A' for Active; 'I' for Inactive)
    1  A    between atoms: C_3  and  C_16
    2  A    between atoms: C_3  and  C_62
    3  A    between atoms: C_4  and  C_43
    4  A    between atoms: C_4  and  C_63
    5  A    between atoms: C_5  and  C_18
    6  A    between atoms: C_6  and  C_7
    7  A    between atoms: C_6  and  C_54
    8  A    between atoms: C_7  and  C_36
    9  A    between atoms: C_8  and  N_33
   10  A    between atoms: C_8  and  C_34
   11  A    between atoms: C_16  and  N_29
   12  A    between atoms: C_18  and  C_55
   13  A    between atoms: C_19  and  C_36
   14  A    between atoms: C_19  and  C_58
   15  A    between atoms: C_25  and  C_27
   16  A    between atoms: C_27  and  N_33
   17  A    between atoms: C_28  and  C_41
   18  A    between atoms: N_29  and  C_41
   19  A    between atoms: C_32  and  N_46
   20  A    between atoms: C_34  and  C_42
   21  A    between atoms: C_36  and  C_53
   22  A    between atoms: C_37  and  C_54
   23  A    between atoms: N_38  and  C_63
   24  A    between atoms: C_40  and  C_55
   25  A    between atoms: C_41  and  N_57
   26  A    between atoms: C_42  and  C_43
                            x       y       z     vdW  Elec       q    Type
                         _______ _______ _______ _____ _____    ______ ____

>  <TORSDO>
F 26

$$$$
=
 OpenBabel10232410433D

 64 67  0  0  1  0  0  0  0  0999 V2000
  188.3540  176.5410  137.2940 C   0  0  0  0  0  0  0  0  0  0  0  0
  188.3720  177.5140  138.1660 N   0  0  0  0  0  0  0  0  0  0  0  0
  184.5430  179.1140  140.0560 C   0  0  0  0  0  2  0  0  0  0  0  0
  186.7490  178.6110  141.2170 C   0  0  0  0  0  2  0  0  0  0  0  0
  184.7230  178.3890  138.7270 C   0  0  0  0  0  3  0  0  0  0  0  0
  185.2550  178.4710  141.2820 C   0  0  1  0  0  3  0  0  0  0  0  0
  187.2340  178.1370  138.7690 C   0  0  1  0  0  3  0  0  0  0  0  0
  185.8890  178.0030  138.1550 C   0  0  0  0  0  3  0  0  0  0  0  0
  187.2180  178.3640  140.0390 C   0  0  0  0  0  2  0  0  0  0  0  0
  184.7240  179.0030  142.6130 C   0  0  1  0  0  3  0  0  0  0  0  0
  182.7570  177.9260  142.2990 O   0  0  0  0  0  1  0  0  0  0  0  0
  183.2710  179.1450  142.5880 N   0  0  0  0  0  2  0  0  0  0  0  0
  185.1250  178.1110  143.6940 N   0  0  0  0  0  2  0  0  0  0  0  0
  184.9760  178.8210  144.9600 C   0  0  0  0  0  2  0  0  0  0  0  0
  186.2910  178.8390  145.7350 C   0  0  1  0  0  3  0  0  0  0  0  0
  186.0060  179.2730  147.1650 C   0  0  0  0  0  1  0  0  0  0  0  0
  188.7660  178.0730  147.4990 C   0  0  0  0  0  2  0  0  0  0  0  0
  189.3910  177.6240  145.0730 C   0  0  0  0  0  0  0  0  0  0  0  0
  189.8670  177.7300  146.5080 C   0  0  0  0  0  2  0  0  0  0  0  0
  187.4320  176.8490  147.3610 S   0  0  0  0  0  0  0  0  0  0  0  0
  188.1050  177.4190  144.7370 C   0  0  0  0  0  3  0  0  0  0  0  0
  186.9410  177.4470  145.6990 C   0  0  2  0  0  3  0  0  0  0  0  0
  190.7700  178.8410  143.5760 O   0  0  0  0  0  1  0  0  0  0  0  0
  190.4100  177.5520  143.9780 C   0  0  2  0  0  3  0  0  0  0  0  0
  189.8740  176.7590  142.7920 C   0  0  0  0  0  2  0  0  0  0  0  0
  190.3090  176.1920  140.4610 N   0  0  0  0  0  1  0  0  0  0  0  0
  190.5650  177.1730  141.5020 C   0  0  0  0  0  2  0  0  0  0  0  0
  186.4000  175.1950  137.2520 O   0  0  0  0  0  0  0  0  0  0  0  0
  186.7580  176.4680  135.3370 N   0  0  0  0  0  2  0  0  0  0  0  0
  187.1090  176.0520  136.6590 C   0  0  0  0  0  0  0  0  0  0  0  0
  185.5430  176.0120  134.6810 C   0  0  0  0  0  2  0  0  0  0  0  0
  184.4000  176.9620  134.9840 C   0  0  1  0  0  3  0  0  0  0  0  0
  184.6420  178.1840  134.3470 O   0  0  0  0  0  1  0  0  0  0  0  0
  183.1120  176.3530  134.4610 C   0  0  0  0  0  2  0  0  0  0  0  0
  183.0170  174.8870  134.8340 C   0  0  0  0  0  2  0  0  0  0  0  0
  181.6480  174.6110  135.4310 C   0  0  1  0  0  3  0  0  0  0  0  0
  180.9450  173.7430  134.5910 O   0  0  0  0  0  1  0  0  0  0  0  0
  181.7710  174.0080  136.8250 C   0  0  2  0  0  3  0  0  0  0  0  0
  181.6380  175.0210  137.7810 O   0  0  0  0  0  1  0  0  0  0  0  0
  183.0750  173.3730  136.9650 N   0  0  0  0  0  2  0  0  0  0  0  0
  183.0310  172.0940  136.2700 C   0  0  0  0  0  2  0  0  0  0  0  0
  184.4320  170.2240  135.3420 C   0  0  1  0  0  3  0  0  0  0  0  0
  183.7200  169.2990  136.1080 O   0  0  0  0  0  1  0  0  0  0  0  0
  186.4600  172.0590  135.0850 C   0  0  0  0  0  2  0  0  0  0  0  0
  184.4480  171.5950  136.0450 C   0  0  1  0  0  3  0  0  0  0  0  0
  186.4350  170.7010  134.3750 C   0  0  0  0  0  2  0  0  0  0  0  0
  185.7530  169.7620  135.1740 O   0  0  0  0  0  0  0  0  0  0  0  0
  185.1430  172.5310  135.2500 O   0  0  0  0  0  0  0  0  0  0  0  0
  189.6440  175.8580  136.9340 C   0  0  1  0  0  3  0  0  0  0  0  0
  189.4210  173.2400  136.8480 N   0  0  0  0  0  0  0  0  0  0  0  0
  189.5180  174.3930  136.8860 C   0  0  0  0  0  0  0  0  0  0  0  0
  190.2090  176.4040  135.6570 C   0  0  0  0  0  0  0  0  0  0  0  0
  190.0120  177.5670  135.3370 O   0  0  0  0  0  0  0  0  0  0  0  0
  191.0660  175.5210  134.8130 C   0  0  0  0  0  2  0  0  0  0  0  0
  192.3450  176.2490  134.4280 C   0  0  0  0  0  2  0  0  0  0  0  0
  194.6760  173.4400  135.7100 C   0  0  0  0  0  0  0  0  0  0  0  0
  194.8040  176.3230  135.1980 C   0  0  0  0  0  2  0  0  0  0  0  0
  194.4490  173.1310  137.1820 C   0  0  0  0  0  1  0  0  0  0  0  0
  197.0430  176.1810  136.0120 O   0  0  0  0  0  1  0  0  0  0  0  0
  193.5310  175.5440  134.9960 C   0  0  0  0  0  0  0  0  0  0  0  0
  195.8030  175.5430  136.0490 C   0  0  2  0  0  3  0  0  0  0  0  0
  194.7740  172.1260  134.9640 C   0  0  0  0  0  1  0  0  0  0  0  0
  195.9380  174.1770  135.5350 N   0  0  0  0  0  2  0  0  0  0  0  0
  193.4970  174.2110  135.1660 C   0  0  0  0  0  3  0  0  0  0  0  0
  1  2  2  0  0  0  0
  3  6  1  0  0  0  0
  4  6  1  0  0  0  0
  5  3  1  0  0  0  0
  6 10  1  1  0  0  0
  7  2  1  1  0  0  0
  7  9  1  0  0  0  0
  8  5  2  0  0  0  0
  8  7  1  0  0  0  0
  9  4  1  0  0  0  0
 10 12  1  6  0  0  0
 10 13  1  0  0  0  0
 11 12  1  0  0  0  0
 13 14  1  0  0  0  0
 14 15  1  0  0  0  0
 15 16  1  1  0  0  0
 18 19  1  0  0  0  0
 19 17  1  0  0  0  0
 20 17  1  0  0  0  0
 21 18  2  0  0  0  0
 21 22  1  0  0  0  0
 22 15  1  1  0  0  0
 22 20  1  0  0  0  0
 24 23  1  6  0  0  0
 24 18  1  0  0  0  0
 25 24  1  0  0  0  0
 26 27  1  0  0  0  0
 27 25  1  0  0  0  0
 29 30  1  0  0  0  0
 30 28  2  0  0  0  0
 30  1  1  0  0  0  0
 31 32  1  0  0  0  0
 31 29  1  0  0  0  0
 32 33  1  6  0  0  0
 34 35  1  0  0  0  0
 34 32  1  0  0  0  0
 35 36  1  0  0  0  0
 36 37  1  6  0  0  0
 36 38  1  0  0  0  0
 38 40  1  0  0  0  0
 38 39  1  1  0  0  0
 41 40  1  0  0  0  0
 42 45  1  0  0  0  0
 42 43  1  1  0  0  0
 44 48  1  0  0  0  0
 45 41  1  6  0  0  0
 46 44  1  0  0  0  0
 46 47  1  0  0  0  0
 47 42  1  0  0  0  0
 48 45  1  0  0  0  0
 49 51  1  6  0  0  0
 49  1  1  0  0  0  0
 50 51  3  0  0  0  0
 52 49  1  0  0  0  0
 53 52  2  0  0  0  0
 54 52  1  0  0  0  0
 55 54  1  0  0  0  0
 55 60  1  0  0  0  0
 56 58  1  0  0  0  0
 57 61  1  0  0  0  0
 60 64  2  0  0  0  0
 60 57  1  0  0  0  0
 61 59  1  6  0  0  0
 62 56  1  0  0  0  0
 63 56  1  0  0  0  0
 63 61  1  0  0  0  0
 64 56  1  0  0  0  0
M  END
>  <MODEL>
8

>  <REMARK>
 VINA RESULT:      -4.9      3.292     10.246
  Name = 
  26 active torsions:
  status: ('A' for Active; 'I' for Inactive)
    1  A    between atoms: C_3  and  C_16
    2  A    between atoms: C_3  and  C_62
    3  A    between atoms: C_4  and  C_43
    4  A    between atoms: C_4  and  C_63
    5  A    between atoms: C_5  and  C_18
    6  A    between atoms: C_6  and  C_7
    7  A    between atoms: C_6  and  C_54
    8  A    between atoms: C_7  and  C_36
    9  A    between atoms: C_8  and  N_33
   10  A    between atoms: C_8  and  C_34
   11  A    between atoms: C_16  and  N_29
   12  A    between atoms: C_18  and  C_55
   13  A    between atoms: C_19  and  C_36
   14  A    between atoms: C_19  and  C_58
   15  A    between atoms: C_25  and  C_27
   16  A    between atoms: C_27  and  N_33
   17  A    between atoms: C_28  and  C_41
   18  A    between atoms: N_29  and  C_41
   19  A    between atoms: C_32  and  N_46
   20  A    between atoms: C_34  and  C_42
   21  A    between atoms: C_36  and  C_53
   22  A    between atoms: C_37  and  C_54
   23  A    between atoms: N_38  and  C_63
   24  A    between atoms: C_40  and  C_55
   25  A    between atoms: C_41  and  N_57
   26  A    between atoms: C_42  and  C_43
                            x       y       z     vdW  Elec       q    Type
                         _______ _______ _______ _____ _____    ______ ____

>  <TORSDO>
F 26

$$$$
=
 OpenBabel10232410433D

 64 67  0  0  1  0  0  0  0  0999 V2000
  188.9590  177.5620  140.4590 C   0  0  0  0  0  0  0  0  0  0  0  0
  188.9300  176.8310  139.3760 N   0  0  0  0  0  0  0  0  0  0  0  0
  186.4560  177.4310  135.5920 C   0  0  0  0  0  2  0  0  0  0  0  0
  186.9830  175.2360  136.7660 C   0  0  0  0  0  2  0  0  0  0  0  0
  187.4730  178.3710  136.2290 C   0  0  0  0  0  3  0  0  0  0  0  0
  186.9040  175.9460  135.4450 C   0  0  1  0  0  3  0  0  0  0  0  0
  188.0420  176.9920  138.2650 C   0  0  1  0  0  3  0  0  0  0  0  0
  188.1270  178.1980  137.4030 C   0  0  0  0  0  3  0  0  0  0  0  0
  187.5420  175.9560  137.6820 C   0  0  0  0  0  2  0  0  0  0  0  0
  186.0260  175.1640  134.4670 C   0  0  1  0  0  3  0  0  0  0  0  0
  187.7460  173.7000  134.6160 O   0  0  0  0  0  1  0  0  0  0  0  0
  186.4080  173.7570  134.4180 N   0  0  0  0  0  2  0  0  0  0  0  0
  184.6260  175.2950  134.8520 N   0  0  0  0  0  2  0  0  0  0  0  0
  184.4580  174.7290  136.1860 C   0  0  0  0  0  2  0  0  0  0  0  0
  183.3670  173.6610  136.1930 C   0  0  1  0  0  3  0  0  0  0  0  0
  183.9930  172.3300  136.5820 C   0  0  0  0  0  1  0  0  0  0  0  0
  180.3580  173.8790  135.3450 C   0  0  0  0  0  2  0  0  0  0  0  0
  181.0300  176.1190  136.3510 C   0  0  0  0  0  0  0  0  0  0  0  0
  179.9830  175.3330  135.5880 C   0  0  0  0  0  2  0  0  0  0  0  0
  180.7180  173.0790  136.9350 S   0  0  0  0  0  0  0  0  0  0  0  0
  181.9770  175.5390  137.1100 C   0  0  0  0  0  3  0  0  0  0  0  0
  182.2520  174.0550  137.1730 C   0  0  2  0  0  3  0  0  0  0  0  0
  181.9130  178.2110  135.6690 O   0  0  0  0  0  1  0  0  0  0  0  0
  180.9040  177.6090  136.4250 C   0  0  2  0  0  3  0  0  0  0  0  0
  180.9690  178.0860  137.8710 C   0  0  0  0  0  2  0  0  0  0  0  0
  182.0250  179.7000  139.3620 N   0  0  0  0  0  1  0  0  0  0  0  0
  182.1490  179.0220  138.0820 C   0  0  0  0  0  2  0  0  0  0  0  0
  188.2820  179.7620  141.0320 O   0  0  0  0  0  0  0  0  0  0  0  0
  186.5550  178.2100  140.8800 N   0  0  0  0  0  2  0  0  0  0  0  0
  187.9310  178.5800  140.7720 C   0  0  0  0  0  0  0  0  0  0  0  0
  185.5160  179.1810  141.1830 C   0  0  0  0  0  2  0  0  0  0  0  0
  184.3140  178.4850  141.7940 C   0  0  1  0  0  3  0  0  0  0  0  0
  183.8100  177.5580  140.8760 O   0  0  0  0  0  1  0  0  0  0  0  0
  184.7570  177.7720  143.0590 C   0  0  0  0  0  2  0  0  0  0  0  0
  185.6580  178.6600  143.8920 C   0  0  0  0  0  2  0  0  0  0  0  0
  184.9360  179.0430  145.1720 C   0  0  1  0  0  3  0  0  0  0  0  0
  183.7740  178.2750  145.2940 O   0  0  0  0  0  1  0  0  0  0  0  0
  185.8320  178.8350  146.3880 C   0  0  2  0  0  3  0  0  0  0  0  0
  185.5570  179.8230  147.3390 O   0  0  0  0  0  1  0  0  0  0  0  0
  187.2290  178.9230  145.9810 N   0  0  0  0  0  2  0  0  0  0  0  0
  187.7950  177.5830  146.0200 C   0  0  0  0  0  2  0  0  0  0  0  0
  189.5930  177.3150  147.7570 C   0  0  1  0  0  3  0  0  0  0  0  0
  188.9030  178.1730  148.6160 O   0  0  0  0  0  1  0  0  0  0  0  0
  191.3440  176.9140  145.6800 C   0  0  0  0  0  2  0  0  0  0  0  0
  189.2870  177.6750  146.2910 C   0  0  1  0  0  3  0  0  0  0  0  0
  191.6420  176.5440  147.1370 C   0  0  0  0  0  2  0  0  0  0  0  0
  190.9760  177.4400  147.9970 O   0  0  0  0  0  0  0  0  0  0  0  0
  189.9650  176.7840  145.4300 O   0  0  0  0  0  0  0  0  0  0  0  0
  190.1000  177.3920  141.4240 C   0  0  1  0  0  3  0  0  0  0  0  0
  189.8310  175.2710  142.9520 N   0  0  0  0  0  0  0  0  0  0  0  0
  189.9510  176.2050  142.2790 C   0  0  0  0  0  0  0  0  0  0  0  0
  191.4190  177.3930  140.7090 C   0  0  0  0  0  0  0  0  0  0  0  0
  192.4600  177.5710  141.3230 O   0  0  0  0  0  0  0  0  0  0  0  0
  191.4440  177.1120  139.2440 C   0  0  0  0  0  2  0  0  0  0  0  0
  192.6850  176.3080  138.8880 C   0  0  0  0  0  2  0  0  0  0  0  0
  193.2820  174.0920  135.7730 C   0  0  0  0  0  0  0  0  0  0  0  0
  191.3240  176.0590  136.7130 C   0  0  0  0  0  2  0  0  0  0  0  0
  194.2940  174.7060  134.8160 C   0  0  0  0  0  1  0  0  0  0  0  0
  190.2550  175.7270  134.6040 O   0  0  0  0  0  1  0  0  0  0  0  0
  192.5390  175.7070  137.5290 C   0  0  0  0  0  0  0  0  0  0  0  0
  191.4790  175.6060  135.2630 C   0  0  2  0  0  3  0  0  0  0  0  0
  193.6160  172.6240  135.9300 C   0  0  0  0  0  1  0  0  0  0  0  0
  191.9240  174.2110  135.2200 N   0  0  0  0  0  2  0  0  0  0  0  0
  193.3970  174.7550  137.1250 C   0  0  0  0  0  3  0  0  0  0  0  0
  1 30  1  0  0  0  0
  1 49  1  0  0  0  0
  2  1  2  0  0  0  0
  3  5  1  0  0  0  0
  4  9  1  0  0  0  0
  5  8  2  0  0  0  0
  6 10  1  6  0  0  0
  6  3  1  0  0  0  0
  6  4  1  0  0  0  0
  7  2  1  6  0  0  0
  8  7  1  0  0  0  0
  9  7  1  0  0  0  0
 10 12  1  1  0  0  0
 10 13  1  0  0  0  0
 12 11  1  0  0  0  0
 13 14  1  0  0  0  0
 14 15  1  0  0  0  0
 15 16  1  1  0  0  0
 17 19  1  0  0  0  0
 17 20  1  0  0  0  0
 18 24  1  0  0  0  0
 18 21  2  0  0  0  0
 19 18  1  0  0  0  0
 20 22  1  0  0  0  0
 21 22  1  0  0  0  0
 22 15  1  6  0  0  0
 24 23  1  6  0  0  0
 24 25  1  0  0  0  0
 25 27  1  0  0  0  0
 27 26  1  0  0  0  0
 29 31  1  0  0  0  0
 30 29  1  0  0  0  0
 30 28  2  0  0  0  0
 31 32  1  0  0  0  0
 32 33  1  6  0  0  0
 32 34  1  0  0  0  0
 34 35  1  0  0  0  0
 35 36  1  0  0  0  0
 36 37  1  1  0  0  0
 36 38  1  0  0  0  0
 38 39  1  1  0  0  0
 40 41  1  0  0  0  0
 40 38  1  0  0  0  0
 42 47  1  0  0  0  0
 42 43  1  1  0  0  0
 44 46  1  0  0  0  0
 45 41  1  1  0  0  0
 45 42  1  0  0  0  0
 46 47  1  0  0  0  0
 48 44  1  0  0  0  0
 48 45  1  0  0  0  0
 49 51  1  6  0  0  0
 51 50  3  0  0  0  0
 52 53  2  0  0  0  0
 52 49  1  0  0  0  0
 54 52  1  0  0  0  0
 55 54  1  0  0  0  0
 56 62  1  0  0  0  0
 56 64  1  0  0  0  0
 57 60  1  0  0  0  0
 58 56  1  0  0  0  0
 60 55  1  0  0  0  0
 61 59  1  6  0  0  0
 61 57  1  0  0  0  0
 63 61  1  0  0  0  0
 63 56  1  0  0  0  0
 64 60  2  0  0  0  0
M  END
>  <MODEL>
9

>  <REMARK>
 VINA RESULT:      -4.7      3.055      8.331
  Name = 
  26 active torsions:
  status: ('A' for Active; 'I' for Inactive)
    1  A    between atoms: C_3  and  C_16
    2  A    between atoms: C_3  and  C_62
    3  A    between atoms: C_4  and  C_43
    4  A    between atoms: C_4  and  C_63
    5  A    between atoms: C_5  and  C_18
    6  A    between atoms: C_6  and  C_7
    7  A    between atoms: C_6  and  C_54
    8  A    between atoms: C_7  and  C_36
    9  A    between atoms: C_8  and  N_33
   10  A    between atoms: C_8  and  C_34
   11  A    between atoms: C_16  and  N_29
   12  A    between atoms: C_18  and  C_55
   13  A    between atoms: C_19  and  C_36
   14  A    between atoms: C_19  and  C_58
   15  A    between atoms: C_25  and  C_27
   16  A    between atoms: C_27  and  N_33
   17  A    between atoms: C_28  and  C_41
   18  A    between atoms: N_29  and  C_41
   19  A    between atoms: C_32  and  N_46
   20  A    between atoms: C_34  and  C_42
   21  A    between atoms: C_36  and  C_53
   22  A    between atoms: C_37  and  C_54
   23  A    between atoms: N_38  and  C_63
   24  A    between atoms: C_40  and  C_55
   25  A    between atoms: C_41  and  N_57
   26  A    between atoms: C_42  and  C_43
                            x       y       z     vdW  Elec       q    Type
                         _______ _______ _______ _____ _____    ______ ____

>  <TORSDO>
F 26

$$$$
