=
 OpenBabel10232410543D

 49 51  0  0  1  0  0  0  0  0999 V2000
  187.3170  178.0620  145.0180 C   0  0  2  0  0  3  0  0  0  0  0  0
  186.8210  177.1840  147.1480 O   0  0  0  0  0  0  0  0  0  0  0  0
  187.6610  177.7430  146.4540 C   0  0  0  0  0  0  0  0  0  0  0  0
  189.0240  178.0160  147.0240 C   0  0  0  0  0  2  0  0  0  0  0  0
  189.9780  176.8470  146.8060 C   0  0  0  0  0  2  0  0  0  0  0  0
  191.0900  176.9070  147.7420 N   0  0  0  0  0  2  0  0  0  0  0  0
  192.2150  176.0220  147.6590 C   0  0  0  0  0  0  0  0  0  0  0  0
  192.3040  175.1910  146.7320 O   0  0  0  0  0  0  0  0  0  0  0  0
  193.2080  176.0710  148.6330 O   0  0  0  0  0  1  0  0  0  0  0  0
  185.9080  178.5820  144.9040 C   0  0  0  0  0  0  0  0  0  0  0  0
  185.5650  179.5760  145.6110 O   0  0  0  0  0  0  0  0  0  0  0  0
  184.9830  178.0230  144.0080 O   0  0  0  0  0  0  0  0  0  0  0  0
  183.9380  178.7450  143.3540 C   0  0  2  0  0  3  0  0  0  0  0  0
  182.7230  178.8610  144.2670 C   0  0  0  0  0  1  0  0  0  0  0  0
  184.4810  179.6400  140.6670 O   0  0  0  0  0  0  0  0  0  0  0  0
  183.5460  178.0750  142.1200 N   0  0  0  0  0  2  0  0  0  0  0  0
  183.6790  178.6800  140.8430 C   0  0  0  0  0  0  0  0  0  0  0  0
  182.8790  178.1230  139.6960 C   0  0  0  0  0  2  0  0  0  0  0  0
  182.6830  176.0470  138.4360 N   0  0  0  0  0  0  0  0  0  0  0  0
  183.7810  176.8790  136.5900 N   0  0  0  0  0  2  0  0  0  0  0  0
  182.8230  175.9860  137.1450 C   0  0  0  0  0  0  0  0  0  0  0  0
  185.2420  178.3430  137.7390 O   0  0  0  0  0  0  0  0  0  0  0  0
  183.6340  177.0070  138.9880 C   0  0  1  0  0  3  0  0  0  0  0  0
  184.2930  177.5170  137.7600 C   0  0  0  0  0  0  0  0  0  0  0  0
  181.8070  174.9350  136.1310 S   0  0  0  0  0  0  0  0  0  0  0  0
  181.4600  172.2800  136.5690 C   0  0  0  0  0  1  0  0  0  0  0  0
  182.3800  173.4220  136.9470 C   0  0  0  0  0  2  0  0  0  0  0  0
  187.5450  176.9140  144.0270 C   0  0  0  0  0  2  0  0  0  0  0  0
  189.4080  177.5620  142.3700 C   0  0  0  0  0  0  0  0  0  0  0  0
  188.0490  177.3120  142.6650 C   0  0  0  0  0  0  0  0  0  0  0  0
  187.4340  178.0370  140.4280 C   0  0  0  0  0  3  0  0  0  0  0  0
  187.0760  177.5920  141.6980 C   0  0  0  0  0  3  0  0  0  0  0  0
  188.7810  178.1980  140.0960 C   0  0  0  0  0  0  0  0  0  0  0  0
  189.7570  177.9760  141.0740 C   0  0  0  0  0  3  0  0  0  0  0  0
  190.4670  177.5240  143.4420 C   0  0  2  0  0  3  0  0  0  0  0  0
  190.8840  178.9210  143.8640 C   0  0  0  0  0  1  0  0  0  0  0  0
  191.5390  175.3690  143.6150 O   0  0  0  0  0  1  0  0  0  0  0  0
  191.6880  176.6670  143.1200 C   0  0  0  0  0  2  0  0  0  0  0  0
  189.2670  178.8160  138.4720 S   0  0  0  0  0  0  0  0  0  0  0  0
  188.5030  176.5410  135.9210 C   0  0  0  0  0  0  0  0  0  0  0  0
  188.8680  176.1540  138.1820 N   0  0  0  0  0  2  0  0  0  0  0  0
  187.6890  176.7940  134.5310 S   0  0  0  0  0  0  0  0  0  0  0  0
  189.6260  177.3100  136.2720 N   0  0  0  0  0  2  0  0  0  0  0  0
  187.8570  176.0240  137.1400 C   0  0  2  0  0  3  0  0  0  0  0  0
  189.7730  177.2150  137.7150 C   0  0  1  0  0  0  0  0  0  0  0  0
  191.0970  176.9030  138.0340 O   0  0  0  0  0  1  0  0  0  0  0  0
  186.0410  174.5500  136.5240 O   0  0  0  0  0  1  0  0  0  0  0  0
  188.1920  173.8600  136.1640 O   0  0  0  0  0  1  0  0  0  0  0  0
  187.3490  174.5880  137.0160 C   0  0  0  0  0  3  0  0  0  0  0  0
  1 28  1  6  0  0  0
  1  3  1  0  0  0  0
  3  4  1  0  0  0  0
  3  2  2  0  0  0  0
  5  4  1  0  0  0  0
  5  6  1  0  0  0  0
  7  6  1  0  0  0  0
  7  9  1  0  0  0  0
  8  7  2  0  0  0  0
 10  1  1  0  0  0  0
 10 11  2  0  0  0  0
 12 10  1  0  0  0  0
 13 12  1  0  0  0  0
 13 14  1  1  0  0  0
 15 17  2  0  0  0  0
 16 13  1  0  0  0  0
 17 16  1  0  0  0  0
 18 17  1  0  0  0  0
 19 23  1  0  0  0  0
 20 21  1  0  0  0  0
 20 24  1  0  0  0  0
 21 19  2  0  0  0  0
 22 24  2  0  0  0  0
 23 18  1  6  0  0  0
 24 23  1  0  0  0  0
 25 27  1  0  0  0  0
 25 21  1  0  0  0  0
 26 27  1  0  0  0  0
 29 30  1  0  0  0  0
 29 35  1  0  0  0  0
 30 28  1  0  0  0  0
 31 32  1  0  0  0  0
 32 30  2  0  0  0  0
 33 31  2  0  0  0  0
 33 34  1  0  0  0  0
 34 29  2  0  0  0  0
 35 36  1  6  0  0  0
 38 35  1  0  0  0  0
 38 37  1  0  0  0  0
 39 33  1  0  0  0  0
 40 43  1  0  0  0  0
 40 44  1  0  0  0  0
 42 40  2  0  0  0  0
 43 45  1  0  0  0  0
 44 49  1  6  0  0  0
 44 41  1  0  0  0  0
 45 46  1  1  0  0  0
 45 41  1  0  0  0  0
 45 39  1  0  0  0  0
 47 49  1  0  0  0  0
 48 49  1  0  0  0  0
M  END
>  <MODEL>
1

>  <REMARK>
 VINA RESULT:      -6.9      0.000      0.000
  Name = 
  19 active torsions:
  status: ('A' for Active; 'I' for Inactive)
    1  A    between atoms: C_2  and  O_7
    2  A    between atoms: C_2  and  N_35
    3  A    between atoms: C_3  and  C_12
    4  A    between atoms: S_4  and  C_27
    5  A    between atoms: S_4  and  C_32
    6  A    between atoms: O_7  and  C_10
    7  A    between atoms: C_8  and  C_46
    8  A    between atoms: C_9  and  C_25
    9  A    between atoms: C_9  and  C_43
   10  A    between atoms: C_10  and  C_24
   11  A    between atoms: C_12  and  C_36
   12  A    between atoms: N_14  and  C_25
   13  A    between atoms: C_24  and  C_43
   14  A    between atoms: C_24  and  C_46
   15  A    between atoms: C_28  and  S_41
   16  A    between atoms: CA_30  and  C_45
   17  A    between atoms: C_31  and  S_41
   18  A    between atoms: C_39  and  C_42
   19  A    between atoms: C_42  and  C_49
                            x       y       z     vdW  Elec       q    Type
                         _______ _______ _______ _____ _____    ______ ____

>  <TORSDO>
F 19

$$$$
=
 OpenBabel10232410543D

 49 51  0  0  1  0  0  0  0  0999 V2000
  187.8700  177.5940  137.2290 C   0  0  2  0  0  3  0  0  0  0  0  0
  187.2290  178.1850  135.0400 O   0  0  0  0  0  0  0  0  0  0  0  0
  186.9590  177.5130  136.0260 C   0  0  0  0  0  0  0  0  0  0  0  0
  185.7880  176.5720  135.9790 C   0  0  0  0  0  2  0  0  0  0  0  0
  186.2290  175.1130  135.9540 C   0  0  0  0  0  2  0  0  0  0  0  0
  185.4000  174.3080  136.8380 N   0  0  0  0  0  2  0  0  0  0  0  0
  185.2960  172.8840  136.7100 C   0  0  0  0  0  0  0  0  0  0  0  0
  185.9670  172.2700  135.8560 O   0  0  0  0  0  0  0  0  0  0  0  0
  184.4220  172.1770  137.5300 O   0  0  0  0  0  1  0  0  0  0  0  0
  187.3030  178.5200  138.2720 C   0  0  0  0  0  0  0  0  0  0  0  0
  188.0660  178.9410  139.1940 O   0  0  0  0  0  0  0  0  0  0  0  0
  185.9720  178.9610  138.2270 O   0  0  0  0  0  0  0  0  0  0  0  0
  184.9180  178.4690  139.0580 C   0  0  2  0  0  3  0  0  0  0  0  0
  183.5890  178.5270  138.3140 C   0  0  0  0  0  1  0  0  0  0  0  0
  186.3880  178.0430  141.5010 O   0  0  0  0  0  0  0  0  0  0  0  0
  184.8170  179.2560  140.2790 N   0  0  0  0  0  2  0  0  0  0  0  0
  185.4270  178.8620  141.4990 C   0  0  0  0  0  0  0  0  0  0  0  0
  184.9350  179.4770  142.7810 C   0  0  0  0  0  2  0  0  0  0  0  0
  185.8130  178.4640  144.8150 N   0  0  0  0  0  0  0  0  0  0  0  0
  183.9450  178.9710  146.0640 N   0  0  0  0  0  2  0  0  0  0  0  0
  185.3440  178.7300  145.9990 C   0  0  0  0  0  0  0  0  0  0  0  0
  182.3570  178.8020  144.3170 O   0  0  0  0  0  0  0  0  0  0  0  0
  184.7160  178.4190  143.8520 C   0  0  1  0  0  3  0  0  0  0  0  0
  183.5540  178.7680  144.7060 C   0  0  0  0  0  0  0  0  0  0  0  0
  186.4010  178.8900  147.4210 S   0  0  0  0  0  0  0  0  0  0  0  0
  188.8670  177.7950  147.1260 C   0  0  0  0  0  1  0  0  0  0  0  0
  187.4020  177.4490  146.9670 C   0  0  0  0  0  2  0  0  0  0  0  0
  189.3240  177.9680  136.9160 C   0  0  0  0  0  2  0  0  0  0  0  0
  191.0480  176.4790  138.1200 C   0  0  0  0  0  0  0  0  0  0  0  0
  190.3180  176.8380  136.9650 C   0  0  0  0  0  0  0  0  0  0  0  0
  191.5860  175.2210  135.6650 C   0  0  0  0  0  3  0  0  0  0  0  0
  190.6270  176.2280  135.7430 C   0  0  0  0  0  3  0  0  0  0  0  0
  192.2470  174.7940  136.8190 C   0  0  0  0  0  0  0  0  0  0  0  0
  191.9870  175.4370  138.0350 C   0  0  0  0  0  3  0  0  0  0  0  0
  190.9400  177.2710  139.3970 C   0  0  2  0  0  3  0  0  0  0  0  0
  192.2960  177.4630  140.0520 C   0  0  0  0  0  1  0  0  0  0  0  0
  190.5500  176.0440  141.4380 O   0  0  0  0  0  1  0  0  0  0  0  0
  189.9210  176.7450  140.4050 C   0  0  0  0  0  2  0  0  0  0  0  0
  193.5250  173.5230  136.7370 S   0  0  0  0  0  0  0  0  0  0  0  0
  196.9970  173.6160  137.1930 C   0  0  0  0  0  0  0  0  0  0  0  0
  195.3600  175.0290  138.0410 N   0  0  0  0  0  2  0  0  0  0  0  0
  198.0710  172.3910  137.1360 S   0  0  0  0  0  0  0  0  0  0  0  0
  196.1200  173.8820  136.1260 N   0  0  0  0  0  2  0  0  0  0  0  0
  196.4030  174.0980  138.4520 C   0  0  2  0  0  3  0  0  0  0  0  0
  194.9990  174.6270  136.6730 C   0  0  1  0  0  0  0  0  0  0  0  0
  194.7510  175.7520  135.8820 O   0  0  0  0  0  1  0  0  0  0  0  0
  198.2920  175.5860  138.7140 O   0  0  0  0  0  1  0  0  0  0  0  0
  196.7220  175.4950  140.3750 O   0  0  0  0  0  1  0  0  0  0  0  0
  197.4060  174.7520  139.4030 C   0  0  0  0  0  3  0  0  0  0  0  0
  1 28  1  6  0  0  0
  1 10  1  0  0  0  0
  2  3  2  0  0  0  0
  3  1  1  0  0  0  0
  4  3  1  0  0  0  0
  5  4  1  0  0  0  0
  5  6  1  0  0  0  0
  7  6  1  0  0  0  0
  7  9  1  0  0  0  0
  8  7  2  0  0  0  0
 10 11  2  0  0  0  0
 12 10  1  0  0  0  0
 12 13  1  0  0  0  0
 13 14  1  6  0  0  0
 13 16  1  0  0  0  0
 16 17  1  0  0  0  0
 17 15  2  0  0  0  0
 17 18  1  0  0  0  0
 19 21  2  0  0  0  0
 21 20  1  0  0  0  0
 21 25  1  0  0  0  0
 22 24  2  0  0  0  0
 23 18  1  6  0  0  0
 23 24  1  0  0  0  0
 23 19  1  0  0  0  0
 24 20  1  0  0  0  0
 27 26  1  0  0  0  0
 27 25  1  0  0  0  0
 28 30  1  0  0  0  0
 29 35  1  0  0  0  0
 30 29  2  0  0  0  0
 31 32  2  0  0  0  0
 31 33  1  0  0  0  0
 32 30  1  0  0  0  0
 33 34  2  0  0  0  0
 34 29  1  0  0  0  0
 35 36  1  1  0  0  0
 35 38  1  0  0  0  0
 38 37  1  0  0  0  0
 39 33  1  0  0  0  0
 40 44  1  0  0  0  0
 41 44  1  0  0  0  0
 42 40  2  0  0  0  0
 43 45  1  0  0  0  0
 43 40  1  0  0  0  0
 44 49  1  1  0  0  0
 45 46  1  6  0  0  0
 45 39  1  0  0  0  0
 45 41  1  0  0  0  0
 47 49  1  0  0  0  0
 49 48  1  0  0  0  0
M  END
>  <MODEL>
2

>  <REMARK>
 VINA RESULT:      -6.8      4.200      8.534
  Name = 
  19 active torsions:
  status: ('A' for Active; 'I' for Inactive)
    1  A    between atoms: C_2  and  O_7
    2  A    between atoms: C_2  and  N_35
    3  A    between atoms: C_3  and  C_12
    4  A    between atoms: S_4  and  C_27
    5  A    between atoms: S_4  and  C_32
    6  A    between atoms: O_7  and  C_10
    7  A    between atoms: C_8  and  C_46
    8  A    between atoms: C_9  and  C_25
    9  A    between atoms: C_9  and  C_43
   10  A    between atoms: C_10  and  C_24
   11  A    between atoms: C_12  and  C_36
   12  A    between atoms: N_14  and  C_25
   13  A    between atoms: C_24  and  C_43
   14  A    between atoms: C_24  and  C_46
   15  A    between atoms: C_28  and  S_41
   16  A    between atoms: CA_30  and  C_45
   17  A    between atoms: C_31  and  S_41
   18  A    between atoms: C_39  and  C_42
   19  A    between atoms: C_42  and  C_49
                            x       y       z     vdW  Elec       q    Type
                         _______ _______ _______ _____ _____    ______ ____

>  <TORSDO>
F 19

$$$$
=
 OpenBabel10232410543D

 49 51  0  0  1  0  0  0  0  0999 V2000
  187.0660  178.2200  145.3190 C   0  0  2  0  0  3  0  0  0  0  0  0
  187.1900  178.7540  147.6110 O   0  0  0  0  0  0  0  0  0  0  0  0
  187.6120  178.0350  146.7160 C   0  0  0  0  0  0  0  0  0  0  0  0
  188.5910  176.9440  147.0470 C   0  0  0  0  0  2  0  0  0  0  0  0
  190.0280  177.3570  146.7480 C   0  0  0  0  0  2  0  0  0  0  0  0
  190.9230  176.9090  147.8040 N   0  0  0  0  0  2  0  0  0  0  0  0
  192.0310  176.0340  147.5540 C   0  0  0  0  0  0  0  0  0  0  0  0
  192.3000  175.6630  146.3940 O   0  0  0  0  0  0  0  0  0  0  0  0
  192.8020  175.5710  148.6170 O   0  0  0  0  0  1  0  0  0  0  0  0
  185.6030  178.5770  145.3550 C   0  0  0  0  0  0  0  0  0  0  0  0
  185.1730  179.2910  146.3110 O   0  0  0  0  0  0  0  0  0  0  0  0
  184.7180  178.1790  144.3420 O   0  0  0  0  0  0  0  0  0  0  0  0
  183.6300  178.9630  143.8500 C   0  0  2  0  0  3  0  0  0  0  0  0
  182.3390  178.5800  144.5630 C   0  0  0  0  0  1  0  0  0  0  0  0
  181.2380  179.4580  142.3180 O   0  0  0  0  0  0  0  0  0  0  0  0
  183.4610  178.7650  142.4170 N   0  0  0  0  0  2  0  0  0  0  0  0
  182.1970  178.8430  141.7740 C   0  0  0  0  0  0  0  0  0  0  0  0
  182.0420  178.2190  140.4140 C   0  0  0  0  0  2  0  0  0  0  0  0
  183.1190  176.4520  139.1280 N   0  0  0  0  0  0  0  0  0  0  0  0
  184.0750  177.9120  137.6230 N   0  0  0  0  0  2  0  0  0  0  0  0
  183.5500  176.6220  137.9120 C   0  0  0  0  0  0  0  0  0  0  0  0
  184.3910  179.7220  139.1150 O   0  0  0  0  0  0  0  0  0  0  0  0
  183.3650  177.6620  139.9090 C   0  0  1  0  0  3  0  0  0  0  0  0
  183.9590  178.5610  138.8900 C   0  0  0  0  0  0  0  0  0  0  0  0
  183.3920  175.3620  136.6680 S   0  0  0  0  0  0  0  0  0  0  0  0
  184.3590  172.8350  136.8830 C   0  0  0  0  0  1  0  0  0  0  0  0
  184.1990  174.1040  137.6930 C   0  0  0  0  0  2  0  0  0  0  0  0
  187.3040  177.0410  144.3680 C   0  0  0  0  0  2  0  0  0  0  0  0
  189.1390  177.4450  142.6050 C   0  0  0  0  0  0  0  0  0  0  0  0
  187.7780  177.3980  142.9850 C   0  0  0  0  0  0  0  0  0  0  0  0
  187.1440  178.2750  140.8080 C   0  0  0  0  0  3  0  0  0  0  0  0
  186.8020  177.8520  142.0890 C   0  0  0  0  0  3  0  0  0  0  0  0
  188.4760  178.2370  140.3910 C   0  0  0  0  0  0  0  0  0  0  0  0
  189.4660  177.8400  141.2970 C   0  0  0  0  0  3  0  0  0  0  0  0
  190.2430  177.2140  143.6040 C   0  0  2  0  0  3  0  0  0  0  0  0
  191.1530  178.4240  143.7200 C   0  0  0  0  0  1  0  0  0  0  0  0
  190.2500  174.8970  142.9320 O   0  0  0  0  0  1  0  0  0  0  0  0
  191.0580  175.9410  143.3900 C   0  0  0  0  0  2  0  0  0  0  0  0
  188.9500  178.8220  138.7510 S   0  0  0  0  0  0  0  0  0  0  0  0
  190.2900  175.9170  137.3250 C   0  0  0  0  0  0  0  0  0  0  0  0
  188.8900  177.5130  136.3820 N   0  0  0  0  0  2  0  0  0  0  0  0
  191.6690  175.1320  137.7010 S   0  0  0  0  0  0  0  0  0  0  0  0
  189.3090  176.1950  138.2930 N   0  0  0  0  0  2  0  0  0  0  0  0
  190.2090  176.9100  136.2390 C   0  0  2  0  0  3  0  0  0  0  0  0
  188.5220  177.3100  137.7910 C   0  0  1  0  0  0  0  0  0  0  0  0
  187.1610  177.0110  137.9020 O   0  0  0  0  0  1  0  0  0  0  0  0
  191.7760  176.2460  134.5190 O   0  0  0  0  0  1  0  0  0  0  0  0
  189.8450  175.0450  134.7750 O   0  0  0  0  0  1  0  0  0  0  0  0
  190.4180  176.3230  134.8430 C   0  0  0  0  0  3  0  0  0  0  0  0
  1 28  1  6  0  0  0
  1 10  1  0  0  0  0
  1  3  1  0  0  0  0
  3  4  1  0  0  0  0
  3  2  2  0  0  0  0
  5  4  1  0  0  0  0
  5  6  1  0  0  0  0
  7  6  1  0  0  0  0
  7  9  1  0  0  0  0
  8  7  2  0  0  0  0
 10 11  2  0  0  0  0
 12 10  1  0  0  0  0
 13 12  1  0  0  0  0
 13 14  1  1  0  0  0
 16 13  1  0  0  0  0
 17 15  2  0  0  0  0
 17 16  1  0  0  0  0
 18 17  1  0  0  0  0
 19 23  1  0  0  0  0
 20 21  1  0  0  0  0
 20 24  1  0  0  0  0
 21 19  2  0  0  0  0
 23 18  1  6  0  0  0
 24 22  2  0  0  0  0
 24 23  1  0  0  0  0
 25 27  1  0  0  0  0
 25 21  1  0  0  0  0
 26 27  1  0  0  0  0
 29 30  1  0  0  0  0
 29 35  1  0  0  0  0
 30 28  1  0  0  0  0
 31 32  1  0  0  0  0
 32 30  2  0  0  0  0
 33 31  2  0  0  0  0
 33 34  1  0  0  0  0
 34 29  2  0  0  0  0
 35 36  1  6  0  0  0
 37 38  1  0  0  0  0
 38 35  1  0  0  0  0
 39 33  1  0  0  0  0
 40 42  2  0  0  0  0
 40 43  1  0  0  0  0
 41 45  1  0  0  0  0
 44 49  1  6  0  0  0
 44 41  1  0  0  0  0
 44 40  1  0  0  0  0
 45 46  1  1  0  0  0
 45 43  1  0  0  0  0
 45 39  1  0  0  0  0
 47 49  1  0  0  0  0
 48 49  1  0  0  0  0
M  END
>  <MODEL>
3

>  <REMARK>
 VINA RESULT:      -6.7      1.537      1.980
  Name = 
  19 active torsions:
  status: ('A' for Active; 'I' for Inactive)
    1  A    between atoms: C_2  and  O_7
    2  A    between atoms: C_2  and  N_35
    3  A    between atoms: C_3  and  C_12
    4  A    between atoms: S_4  and  C_27
    5  A    between atoms: S_4  and  C_32
    6  A    between atoms: O_7  and  C_10
    7  A    between atoms: C_8  and  C_46
    8  A    between atoms: C_9  and  C_25
    9  A    between atoms: C_9  and  C_43
   10  A    between atoms: C_10  and  C_24
   11  A    between atoms: C_12  and  C_36
   12  A    between atoms: N_14  and  C_25
   13  A    between atoms: C_24  and  C_43
   14  A    between atoms: C_24  and  C_46
   15  A    between atoms: C_28  and  S_41
   16  A    between atoms: CA_30  and  C_45
   17  A    between atoms: C_31  and  S_41
   18  A    between atoms: C_39  and  C_42
   19  A    between atoms: C_42  and  C_49
                            x       y       z     vdW  Elec       q    Type
                         _______ _______ _______ _____ _____    ______ ____

>  <TORSDO>
F 19

$$$$
=
 OpenBabel10232410543D

 49 51  0  0  1  0  0  0  0  0999 V2000
  186.9040  177.9910  139.5130 C   0  0  2  0  0  3  0  0  0  0  0  0
  187.6350  178.6190  141.6640 O   0  0  0  0  0  0  0  0  0  0  0  0
  186.6870  178.5710  140.8910 C   0  0  0  0  0  0  0  0  0  0  0  0
  185.3680  179.1610  141.3050 C   0  0  0  0  0  2  0  0  0  0  0  0
  184.4780  178.1380  142.0000 C   0  0  0  0  0  2  0  0  0  0  0  0
  183.2970  178.7770  142.5590 N   0  0  0  0  0  2  0  0  0  0  0  0
  182.0170  178.7270  141.9140 C   0  0  0  0  0  0  0  0  0  0  0  0
  181.8590  178.0780  140.8610 O   0  0  0  0  0  0  0  0  0  0  0  0
  180.9420  179.4290  142.4530 O   0  0  0  0  0  1  0  0  0  0  0  0
  188.3590  178.0490  139.1270 C   0  0  0  0  0  0  0  0  0  0  0  0
  188.7600  179.0070  138.4010 O   0  0  0  0  0  0  0  0  0  0  0  0
  189.2850  177.0980  139.5840 O   0  0  0  0  0  0  0  0  0  0  0  0
  190.4460  177.3950  140.3620 C   0  0  2  0  0  3  0  0  0  0  0  0
  191.6920  176.8360  139.6850 C   0  0  0  0  0  1  0  0  0  0  0  0
  191.5050  178.5020  142.8050 O   0  0  0  0  0  0  0  0  0  0  0  0
  190.3300  176.8220  141.6970 N   0  0  0  0  0  2  0  0  0  0  0  0
  191.0470  177.3260  142.8140 C   0  0  0  0  0  0  0  0  0  0  0  0
  191.2060  176.4450  144.0230 C   0  0  0  0  0  2  0  0  0  0  0  0
  189.9480  177.8450  145.5700 N   0  0  0  0  0  0  0  0  0  0  0  0
  190.3440  176.4750  147.3800 N   0  0  0  0  0  2  0  0  0  0  0  0
  189.5090  177.4160  146.7170 C   0  0  0  0  0  0  0  0  0  0  0  0
  192.4870  175.7150  146.7240 O   0  0  0  0  0  0  0  0  0  0  0  0
  191.2620  177.2680  145.3020 C   0  0  1  0  0  3  0  0  0  0  0  0
  191.4510  176.3900  146.4830 C   0  0  0  0  0  0  0  0  0  0  0  0
  187.9190  177.8920  147.3580 S   0  0  0  0  0  0  0  0  0  0  0  0
  185.6660  178.1380  145.8660 C   0  0  0  0  0  1  0  0  0  0  0  0
  187.0830  177.6130  145.7740 C   0  0  0  0  0  2  0  0  0  0  0  0
  186.0340  178.6020  138.4080 C   0  0  0  0  0  2  0  0  0  0  0  0
  185.5810  177.0000  136.4420 C   0  0  0  0  0  0  0  0  0  0  0  0
  185.1750  177.6360  137.6380 C   0  0  0  0  0  0  0  0  0  0  0  0
  182.9530  176.6830  137.3850 C   0  0  0  0  0  3  0  0  0  0  0  0
  183.8510  177.4970  138.0700 C   0  0  0  0  0  3  0  0  0  0  0  0
  183.3700  175.9770  136.2550 C   0  0  0  0  0  0  0  0  0  0  0  0
  184.6750  176.1540  135.7810 C   0  0  0  0  0  3  0  0  0  0  0  0
  186.9050  177.3140  135.7950 C   0  0  2  0  0  3  0  0  0  0  0  0
  186.7220  178.0220  134.4640 C   0  0  0  0  0  1  0  0  0  0  0  0
  188.3480  176.0310  134.3470 O   0  0  0  0  0  1  0  0  0  0  0  0
  187.8560  176.1290  135.6520 C   0  0  0  0  0  2  0  0  0  0  0  0
  182.2140  174.9520  135.3240 S   0  0  0  0  0  0  0  0  0  0  0  0
  183.9900  172.0090  135.9960 C   0  0  0  0  0  0  0  0  0  0  0  0
  181.7130  172.3120  135.6530 N   0  0  0  0  0  2  0  0  0  0  0  0
  185.5460  171.6510  135.6640 S   0  0  0  0  0  0  0  0  0  0  0  0
  183.6340  173.1520  136.7320 N   0  0  0  0  0  2  0  0  0  0  0  0
  182.8780  171.6250  135.1090 C   0  0  2  0  0  3  0  0  0  0  0  0
  182.2520  173.4580  136.4010 C   0  0  1  0  0  0  0  0  0  0  0  0
  181.5210  173.6630  137.5740 O   0  0  0  0  0  1  0  0  0  0  0  0
  183.3610  169.4280  135.9990 O   0  0  0  0  0  1  0  0  0  0  0  0
  181.2850  169.8320  135.1260 O   0  0  0  0  0  1  0  0  0  0  0  0
  182.6530  170.1170  135.0090 C   0  0  0  0  0  3  0  0  0  0  0  0
  1 28  1  6  0  0  0
  1  3  1  0  0  0  0
  3  4  1  0  0  0  0
  3  2  2  0  0  0  0
  4  5  1  0  0  0  0
  5  6  1  0  0  0  0
  7  9  1  0  0  0  0
  7  6  1  0  0  0  0
  8  7  2  0  0  0  0
 10  1  1  0  0  0  0
 10 12  1  0  0  0  0
 11 10  2  0  0  0  0
 12 13  1  0  0  0  0
 13 14  1  6  0  0  0
 13 16  1  0  0  0  0
 15 17  2  0  0  0  0
 16 17  1  0  0  0  0
 17 18  1  0  0  0  0
 19 21  2  0  0  0  0
 21 25  1  0  0  0  0
 21 20  1  0  0  0  0
 23 18  1  6  0  0  0
 23 19  1  0  0  0  0
 23 24  1  0  0  0  0
 24 22  2  0  0  0  0
 24 20  1  0  0  0  0
 27 26  1  0  0  0  0
 27 25  1  0  0  0  0
 29 30  1  0  0  0  0
 30 32  2  0  0  0  0
 30 28  1  0  0  0  0
 31 32  1  0  0  0  0
 33 31  2  0  0  0  0
 34 33  1  0  0  0  0
 34 29  2  0  0  0  0
 35 36  1  6  0  0  0
 35 29  1  0  0  0  0
 37 38  1  0  0  0  0
 38 35  1  0  0  0  0
 39 33  1  0  0  0  0
 39 45  1  0  0  0  0
 40 43  1  0  0  0  0
 41 45  1  0  0  0  0
 42 40  2  0  0  0  0
 44 49  1  1  0  0  0
 44 41  1  0  0  0  0
 44 40  1  0  0  0  0
 45 43  1  0  0  0  0
 45 46  1  1  0  0  0
 49 48  1  0  0  0  0
 49 47  1  0  0  0  0
M  END
>  <MODEL>
4

>  <REMARK>
 VINA RESULT:      -6.3      2.922      8.814
  Name = 
  19 active torsions:
  status: ('A' for Active; 'I' for Inactive)
    1  A    between atoms: C_2  and  O_7
    2  A    between atoms: C_2  and  N_35
    3  A    between atoms: C_3  and  C_12
    4  A    between atoms: S_4  and  C_27
    5  A    between atoms: S_4  and  C_32
    6  A    between atoms: O_7  and  C_10
    7  A    between atoms: C_8  and  C_46
    8  A    between atoms: C_9  and  C_25
    9  A    between atoms: C_9  and  C_43
   10  A    between atoms: C_10  and  C_24
   11  A    between atoms: C_12  and  C_36
   12  A    between atoms: N_14  and  C_25
   13  A    between atoms: C_24  and  C_43
   14  A    between atoms: C_24  and  C_46
   15  A    between atoms: C_28  and  S_41
   16  A    between atoms: CA_30  and  C_45
   17  A    between atoms: C_31  and  S_41
   18  A    between atoms: C_39  and  C_42
   19  A    between atoms: C_42  and  C_49
                            x       y       z     vdW  Elec       q    Type
                         _______ _______ _______ _____ _____    ______ ____

>  <TORSDO>
F 19

$$$$
=
 OpenBabel10232410543D

 49 51  0  0  1  0  0  0  0  0999 V2000
  186.5160  178.4220  145.1760 C   0  0  2  0  0  3  0  0  0  0  0  0
  186.6740  179.5040  147.2630 O   0  0  0  0  0  0  0  0  0  0  0  0
  186.9100  178.4810  146.6330 C   0  0  0  0  0  0  0  0  0  0  0  0
  187.5030  177.2980  147.3440 C   0  0  0  0  0  2  0  0  0  0  0  0
  188.9440  177.5530  147.7730 C   0  0  0  0  0  2  0  0  0  0  0  0
  189.8550  176.6610  147.0740 N   0  0  0  0  0  2  0  0  0  0  0  0
  191.2590  176.6160  147.3620 C   0  0  0  0  0  0  0  0  0  0  0  0
  191.7450  177.3150  148.2740 O   0  0  0  0  0  1  0  0  0  0  0  0
  192.0970  175.8030  146.6030 O   0  0  0  0  0  0  0  0  0  0  0  0
  185.0190  178.4740  145.0190 C   0  0  0  0  0  0  0  0  0  0  0  0
  184.3110  178.7910  146.0220 O   0  0  0  0  0  0  0  0  0  0  0  0
  184.3930  178.2240  143.7880 O   0  0  0  0  0  0  0  0  0  0  0  0
  183.2490  178.9230  143.2940 C   0  0  2  0  0  3  0  0  0  0  0  0
  182.0660  178.7330  144.2360 C   0  0  0  0  0  1  0  0  0  0  0  0
  181.0620  179.8590  141.6650 O   0  0  0  0  0  0  0  0  0  0  0  0
  182.8870  178.4410  141.9680 N   0  0  0  0  0  2  0  0  0  0  0  0
  181.6810  178.8150  141.3170 C   0  0  0  0  0  0  0  0  0  0  0  0
  181.1860  177.9660  140.1780 C   0  0  0  0  0  2  0  0  0  0  0  0
  180.4630  179.7070  138.6350 N   0  0  0  0  0  0  0  0  0  0  0  0
  182.4930  180.7960  138.6640 N   0  0  0  0  0  2  0  0  0  0  0  0
  181.0800  180.8460  138.5110 C   0  0  0  0  0  0  0  0  0  0  0  0
  183.8580  178.8860  138.9640 O   0  0  0  0  0  0  0  0  0  0  0  0
  181.4390  178.6400  138.8380 C   0  0  1  0  0  3  0  0  0  0  0  0
  182.7130  179.4000  138.8640 C   0  0  0  0  0  0  0  0  0  0  0  0
  180.2040  182.3760  138.2780 S   0  0  0  0  0  0  0  0  0  0  0  0
  181.0910  182.9190  135.7710 C   0  0  0  0  0  1  0  0  0  0  0  0
  180.0260  182.1200  136.4930 C   0  0  0  0  0  2  0  0  0  0  0  0
  187.0930  177.2340  144.3970 C   0  0  0  0  0  2  0  0  0  0  0  0
  189.0100  177.5520  142.7060 C   0  0  0  0  0  0  0  0  0  0  0  0
  187.6340  177.5460  143.0270 C   0  0  0  0  0  0  0  0  0  0  0  0
  187.1160  178.3870  140.8060 C   0  0  0  0  0  3  0  0  0  0  0  0
  186.7090  178.0030  142.0810 C   0  0  0  0  0  3  0  0  0  0  0  0
  188.4640  178.3080  140.4480 C   0  0  0  0  0  0  0  0  0  0  0  0
  189.4030  177.9070  141.4050 C   0  0  0  0  0  3  0  0  0  0  0  0
  190.0650  177.3170  143.7570 C   0  0  2  0  0  3  0  0  0  0  0  0
  190.8690  178.5750  144.0300 C   0  0  0  0  0  1  0  0  0  0  0  0
  190.2800  175.0470  142.9680 O   0  0  0  0  0  1  0  0  0  0  0  0
  190.9870  176.1290  143.4980 C   0  0  0  0  0  2  0  0  0  0  0  0
  189.0220  178.8420  138.8180 S   0  0  0  0  0  0  0  0  0  0  0  0
  188.4190  176.9500  135.9320 C   0  0  0  0  0  0  0  0  0  0  0  0
  188.0090  176.4200  138.1560 N   0  0  0  0  0  2  0  0  0  0  0  0
  188.1330  177.4630  134.4110 S   0  0  0  0  0  0  0  0  0  0  0  0
  189.5630  177.3500  136.6450 N   0  0  0  0  0  2  0  0  0  0  0  0
  187.3390  176.6160  136.8770 C   0  0  2  0  0  3  0  0  0  0  0  0
  189.2630  177.1820  138.0580 C   0  0  1  0  0  0  0  0  0  0  0  0
  190.3050  176.4890  138.6810 O   0  0  0  0  0  1  0  0  0  0  0  0
  187.1400  174.2050  136.8650 O   0  0  0  0  0  1  0  0  0  0  0  0
  185.2410  175.4670  137.0540 O   0  0  0  0  0  1  0  0  0  0  0  0
  186.5150  175.3930  136.4730 C   0  0  0  0  0  3  0  0  0  0  0  0
  1 28  1  1  0  0  0
  1  3  1  0  0  0  0
  3  2  2  0  0  0  0
  3  4  1  0  0  0  0
  4  5  1  0  0  0  0
  6  7  1  0  0  0  0
  6  5  1  0  0  0  0
  7  8  1  0  0  0  0
  9  7  2  0  0  0  0
 10  1  1  0  0  0  0
 10 11  2  0  0  0  0
 12 10  1  0  0  0  0
 13 12  1  0  0  0  0
 13 14  1  1  0  0  0
 16 13  1  0  0  0  0
 17 15  2  0  0  0  0
 17 16  1  0  0  0  0
 18 17  1  0  0  0  0
 19 23  1  0  0  0  0
 20 24  1  0  0  0  0
 21 19  2  0  0  0  0
 21 20  1  0  0  0  0
 23 24  1  0  0  0  0
 23 18  1  1  0  0  0
 24 22  2  0  0  0  0
 25 21  1  0  0  0  0
 26 27  1  0  0  0  0
 27 25  1  0  0  0  0
 29 30  1  0  0  0  0
 29 35  1  0  0  0  0
 30 28  1  0  0  0  0
 31 32  1  0  0  0  0
 32 30  2  0  0  0  0
 33 31  2  0  0  0  0
 33 34  1  0  0  0  0
 34 29  2  0  0  0  0
 35 36  1  6  0  0  0
 37 38  1  0  0  0  0
 38 35  1  0  0  0  0
 39 33  1  0  0  0  0
 40 43  1  0  0  0  0
 40 44  1  0  0  0  0
 42 40  2  0  0  0  0
 43 45  1  0  0  0  0
 44 49  1  6  0  0  0
 44 41  1  0  0  0  0
 45 41  1  0  0  0  0
 45 46  1  1  0  0  0
 45 39  1  0  0  0  0
 49 47  1  0  0  0  0
 49 48  1  0  0  0  0
M  END
>  <MODEL>
5

>  <REMARK>
 VINA RESULT:      -6.3      2.276      2.941
  Name = 
  19 active torsions:
  status: ('A' for Active; 'I' for Inactive)
    1  A    between atoms: C_2  and  O_7
    2  A    between atoms: C_2  and  N_35
    3  A    between atoms: C_3  and  C_12
    4  A    between atoms: S_4  and  C_27
    5  A    between atoms: S_4  and  C_32
    6  A    between atoms: O_7  and  C_10
    7  A    between atoms: C_8  and  C_46
    8  A    between atoms: C_9  and  C_25
    9  A    between atoms: C_9  and  C_43
   10  A    between atoms: C_10  and  C_24
   11  A    between atoms: C_12  and  C_36
   12  A    between atoms: N_14  and  C_25
   13  A    between atoms: C_24  and  C_43
   14  A    between atoms: C_24  and  C_46
   15  A    between atoms: C_28  and  S_41
   16  A    between atoms: CA_30  and  C_45
   17  A    between atoms: C_31  and  S_41
   18  A    between atoms: C_39  and  C_42
   19  A    between atoms: C_42  and  C_49
                            x       y       z     vdW  Elec       q    Type
                         _______ _______ _______ _____ _____    ______ ____

>  <TORSDO>
F 19

$$$$
=
 OpenBabel10232410543D

 49 51  0  0  1  0  0  0  0  0999 V2000
  187.3290  177.8900  141.6580 C   0  0  2  0  0  3  0  0  0  0  0  0
  189.3200  177.8780  142.9190 O   0  0  0  0  0  0  0  0  0  0  0  0
  188.1320  177.5820  142.9000 C   0  0  0  0  0  0  0  0  0  0  0  0
  187.4970  177.0030  144.1340 C   0  0  0  0  0  2  0  0  0  0  0  0
  188.0470  177.6340  145.4080 C   0  0  0  0  0  2  0  0  0  0  0  0
  189.2500  176.9430  145.8480 N   0  0  0  0  0  2  0  0  0  0  0  0
  189.8210  177.1450  147.1470 C   0  0  0  0  0  0  0  0  0  0  0  0
  189.2670  177.8930  147.9770 O   0  0  0  0  0  1  0  0  0  0  0  0
  191.0200  176.5200  147.4810 O   0  0  0  0  0  0  0  0  0  0  0  0
  188.2250  178.0140  140.4540 C   0  0  0  0  0  0  0  0  0  0  0  0
  188.4880  179.1700  140.0060 O   0  0  0  0  0  0  0  0  0  0  0  0
  188.8070  176.8920  139.8450 O   0  0  0  0  0  0  0  0  0  0  0  0
  189.1470  176.7960  138.4600 C   0  0  2  0  0  3  0  0  0  0  0  0
  187.9330  176.3630  137.6470 C   0  0  0  0  0  1  0  0  0  0  0  0
  191.9340  177.1850  139.0860 O   0  0  0  0  0  0  0  0  0  0  0  0
  190.2230  175.8340  138.2610 N   0  0  0  0  0  2  0  0  0  0  0  0
  191.5940  176.1740  138.4110 C   0  0  0  0  0  0  0  0  0  0  0  0
  192.6290  175.2780  137.7870 C   0  0  0  0  0  2  0  0  0  0  0  0
  194.8880  175.6910  136.9720 N   0  0  0  0  0  0  0  0  0  0  0  0
  194.4160  174.9790  134.8330 N   0  0  0  0  0  2  0  0  0  0  0  0
  195.3580  175.1560  135.8840 C   0  0  0  0  0  0  0  0  0  0  0  0
  192.1540  175.6700  134.7730 O   0  0  0  0  0  0  0  0  0  0  0  0
  193.4820  176.0370  136.7810 C   0  0  1  0  0  3  0  0  0  0  0  0
  193.2360  175.5420  135.4040 C   0  0  0  0  0  0  0  0  0  0  0  0
  197.0370  174.5840  135.7600 S   0  0  0  0  0  0  0  0  0  0  0  0
  198.1150  174.6210  138.2500 C   0  0  0  0  0  1  0  0  0  0  0  0
  197.0420  173.9190  137.4460 C   0  0  0  0  0  2  0  0  0  0  0  0
  186.4090  179.1120  141.7680 C   0  0  0  0  0  2  0  0  0  0  0  0
  183.8590  178.7990  141.9580 C   0  0  0  0  0  0  0  0  0  0  0  0
  185.0310  178.9510  141.1830 C   0  0  0  0  0  0  0  0  0  0  0  0
  183.7390  178.5680  139.1600 C   0  0  0  0  0  3  0  0  0  0  0  0
  184.9580  178.7940  139.7940 C   0  0  0  0  0  3  0  0  0  0  0  0
  182.5620  178.5080  139.9090 C   0  0  0  0  0  0  0  0  0  0  0  0
  182.6310  178.6070  141.3030 C   0  0  0  0  0  3  0  0  0  0  0  0
  183.9160  178.7040  143.4610 C   0  0  2  0  0  3  0  0  0  0  0  0
  182.5280  178.7410  144.0750 C   0  0  0  0  0  1  0  0  0  0  0  0
  184.8830  179.5010  145.5230 O   0  0  0  0  0  1  0  0  0  0  0  0
  184.8380  179.7120  144.1420 C   0  0  0  0  0  2  0  0  0  0  0  0
  180.9770  178.1710  139.1150 S   0  0  0  0  0  0  0  0  0  0  0  0
  182.3090  175.0440  138.2710 C   0  0  0  0  0  0  0  0  0  0  0  0
  180.0890  175.7090  138.4230 N   0  0  0  0  0  2  0  0  0  0  0  0
  183.7500  174.6920  137.5950 S   0  0  0  0  0  0  0  0  0  0  0  0
  182.2100  175.8040  139.4500 N   0  0  0  0  0  2  0  0  0  0  0  0
  181.0740  175.1920  137.4810 C   0  0  2  0  0  3  0  0  0  0  0  0
  180.8710  176.3690  139.4800 C   0  0  1  0  0  0  0  0  0  0  0  0
  180.2920  176.1410  140.7310 O   0  0  0  0  0  1  0  0  0  0  0  0
  181.4240  173.5470  135.7430 O   0  0  0  0  0  1  0  0  0  0  0  0
  180.5860  172.8600  137.7570 O   0  0  0  0  0  1  0  0  0  0  0  0
  180.6010  173.9000  136.8160 C   0  0  0  0  0  3  0  0  0  0  0  0
  1 28  1  1  0  0  0
  1  3  1  0  0  0  0
  3  2  2  0  0  0  0
  3  4  1  0  0  0  0
  4  5  1  0  0  0  0
  5  6  1  0  0  0  0
  6  7  1  0  0  0  0
  7  9  2  0  0  0  0
  7  8  1  0  0  0  0
 10  1  1  0  0  0  0
 11 10  2  0  0  0  0
 12 10  1  0  0  0  0
 13 14  1  6  0  0  0
 13 12  1  0  0  0  0
 16 17  1  0  0  0  0
 16 13  1  0  0  0  0
 17 15  2  0  0  0  0
 18 17  1  0  0  0  0
 20 24  1  0  0  0  0
 20 21  1  0  0  0  0
 21 19  2  0  0  0  0
 22 24  2  0  0  0  0
 23 19  1  0  0  0  0
 23 18  1  1  0  0  0
 24 23  1  0  0  0  0
 25 21  1  0  0  0  0
 25 27  1  0  0  0  0
 27 26  1  0  0  0  0
 29 35  1  0  0  0  0
 30 28  1  0  0  0  0
 30 29  2  0  0  0  0
 31 32  2  0  0  0  0
 31 33  1  0  0  0  0
 32 30  1  0  0  0  0
 33 34  2  0  0  0  0
 34 29  1  0  0  0  0
 35 36  1  1  0  0  0
 35 38  1  0  0  0  0
 38 37  1  0  0  0  0
 39 45  1  0  0  0  0
 39 33  1  0  0  0  0
 40 43  1  0  0  0  0
 41 45  1  0  0  0  0
 42 40  2  0  0  0  0
 43 45  1  0  0  0  0
 44 49  1  1  0  0  0
 44 40  1  0  0  0  0
 44 41  1  0  0  0  0
 45 46  1  1  0  0  0
 47 49  1  0  0  0  0
 49 48  1  0  0  0  0
M  END
>  <MODEL>
6

>  <REMARK>
 VINA RESULT:      -6.0      3.495      8.018
  Name = 
  19 active torsions:
  status: ('A' for Active; 'I' for Inactive)
    1  A    between atoms: C_2  and  O_7
    2  A    between atoms: C_2  and  N_35
    3  A    between atoms: C_3  and  C_12
    4  A    between atoms: S_4  and  C_27
    5  A    between atoms: S_4  and  C_32
    6  A    between atoms: O_7  and  C_10
    7  A    between atoms: C_8  and  C_46
    8  A    between atoms: C_9  and  C_25
    9  A    between atoms: C_9  and  C_43
   10  A    between atoms: C_10  and  C_24
   11  A    between atoms: C_12  and  C_36
   12  A    between atoms: N_14  and  C_25
   13  A    between atoms: C_24  and  C_43
   14  A    between atoms: C_24  and  C_46
   15  A    between atoms: C_28  and  S_41
   16  A    between atoms: CA_30  and  C_45
   17  A    between atoms: C_31  and  S_41
   18  A    between atoms: C_39  and  C_42
   19  A    between atoms: C_42  and  C_49
                            x       y       z     vdW  Elec       q    Type
                         _______ _______ _______ _____ _____    ______ ____

>  <TORSDO>
F 19

$$$$
=
 OpenBabel10232410543D

 49 51  0  0  1  0  0  0  0  0999 V2000
  190.5840  174.2860  137.0660 C   0  0  2  0  0  3  0  0  0  0  0  0
  192.0340  172.6210  136.2440 O   0  0  0  0  0  0  0  0  0  0  0  0
  191.9310  173.7870  136.6010 C   0  0  0  0  0  0  0  0  0  0  0  0
  193.1200  174.7000  136.4870 C   0  0  0  0  0  2  0  0  0  0  0  0
  194.1420  174.4460  137.5900 C   0  0  0  0  0  2  0  0  0  0  0  0
  195.3740  175.1730  137.3270 N   0  0  0  0  0  2  0  0  0  0  0  0
  196.6670  174.6280  137.6240 C   0  0  0  0  0  0  0  0  0  0  0  0
  196.7820  173.4710  138.0760 O   0  0  0  0  0  1  0  0  0  0  0  0
  197.8070  175.4030  137.4300 O   0  0  0  0  0  0  0  0  0  0  0  0
  189.4730  173.6810  136.2490 C   0  0  0  0  0  0  0  0  0  0  0  0
  189.3090  174.0760  135.0550 O   0  0  0  0  0  0  0  0  0  0  0  0
  188.6470  172.6670  136.7570 O   0  0  0  0  0  0  0  0  0  0  0  0
  187.2600  172.5110  136.4520 C   0  0  2  0  0  3  0  0  0  0  0  0
  187.0900  171.8900  135.0700 C   0  0  0  0  0  1  0  0  0  0  0  0
  184.9800  173.2100  138.0730 O   0  0  0  0  0  0  0  0  0  0  0  0
  186.5790  173.7990  136.4840 N   0  0  0  0  0  2  0  0  0  0  0  0
  185.3470  174.0000  137.1600 C   0  0  0  0  0  0  0  0  0  0  0  0
  184.5150  175.2000  136.7970 C   0  0  0  0  0  2  0  0  0  0  0  0
  183.6980  176.4710  138.7090 N   0  0  0  0  0  0  0  0  0  0  0  0
  181.8260  177.2320  137.6040 N   0  0  0  0  0  2  0  0  0  0  0  0
  182.8190  177.4230  138.6040 C   0  0  0  0  0  0  0  0  0  0  0  0
  181.4960  175.3380  136.2240 O   0  0  0  0  0  0  0  0  0  0  0  0
  183.3690  175.3940  137.7790 C   0  0  1  0  0  3  0  0  0  0  0  0
  182.1760  175.9460  137.0910 C   0  0  0  0  0  0  0  0  0  0  0  0
  182.9190  178.9140  139.5690 S   0  0  0  0  0  0  0  0  0  0  0  0
  184.7890  178.7770  141.5310 C   0  0  0  0  0  1  0  0  0  0  0  0
  183.5610  178.0480  141.0260 C   0  0  0  0  0  2  0  0  0  0  0  0
  190.4400  175.8120  137.1160 C   0  0  0  0  0  2  0  0  0  0  0  0
  188.9060  176.9470  138.8480 C   0  0  0  0  0  0  0  0  0  0  0  0
  190.1550  176.4020  138.4710 C   0  0  0  0  0  0  0  0  0  0  0  0
  191.1100  177.1430  140.5810 C   0  0  0  0  0  3  0  0  0  0  0  0
  191.2500  176.5440  139.3320 C   0  0  0  0  0  3  0  0  0  0  0  0
  189.8590  177.6000  141.0000 C   0  0  0  0  0  0  0  0  0  0  0  0
  188.7700  177.5150  140.1250 C   0  0  0  0  0  3  0  0  0  0  0  0
  187.7660  177.0510  137.8680 C   0  0  2  0  0  3  0  0  0  0  0  0
  188.2650  177.2910  136.4540 C   0  0  0  0  0  1  0  0  0  0  0  0
  186.6870  179.1500  137.3670 O   0  0  0  0  0  1  0  0  0  0  0  0
  186.6810  178.0580  138.2390 C   0  0  0  0  0  2  0  0  0  0  0  0
  189.6600  178.4200  142.5950 S   0  0  0  0  0  0  0  0  0  0  0  0
  187.6660  177.3090  145.2520 C   0  0  0  0  0  0  0  0  0  0  0  0
  189.9410  177.0110  144.8900 N   0  0  0  0  0  2  0  0  0  0  0  0
  186.2890  177.9550  145.8410 S   0  0  0  0  0  0  0  0  0  0  0  0
  187.8030  176.9700  143.8950 N   0  0  0  0  0  2  0  0  0  0  0  0
  188.9910  177.6000  145.8260 C   0  0  2  0  0  3  0  0  0  0  0  0
  189.2270  176.9420  143.6060 C   0  0  1  0  0  0  0  0  0  0  0  0
  189.5480  175.7600  142.9320 O   0  0  0  0  0  1  0  0  0  0  0  0
  190.4520  176.4950  147.4060 O   0  0  0  0  0  1  0  0  0  0  0  0
  189.0210  178.1080  148.1700 O   0  0  0  0  0  1  0  0  0  0  0  0
  189.1860  177.0670  147.2450 C   0  0  0  0  0  3  0  0  0  0  0  0
  1 28  1  6  0  0  0
  2  3  2  0  0  0  0
  3  1  1  0  0  0  0
  4  3  1  0  0  0  0
  4  5  1  0  0  0  0
  6  5  1  0  0  0  0
  6  7  1  0  0  0  0
  7  8  1  0  0  0  0
  9  7  2  0  0  0  0
 10 12  1  0  0  0  0
 10  1  1  0  0  0  0
 11 10  2  0  0  0  0
 13 14  1  6  0  0  0
 13 16  1  0  0  0  0
 13 12  1  0  0  0  0
 16 17  1  0  0  0  0
 17 15  2  0  0  0  0
 18 17  1  0  0  0  0
 20 21  1  0  0  0  0
 21 19  2  0  0  0  0
 21 25  1  0  0  0  0
 22 24  2  0  0  0  0
 23 18  1  6  0  0  0
 23 19  1  0  0  0  0
 24 20  1  0  0  0  0
 24 23  1  0  0  0  0
 25 27  1  0  0  0  0
 27 26  1  0  0  0  0
 28 30  1  0  0  0  0
 29 34  1  0  0  0  0
 30 29  2  0  0  0  0
 30 32  1  0  0  0  0
 31 33  1  0  0  0  0
 32 31  2  0  0  0  0
 33 39  1  0  0  0  0
 34 33  2  0  0  0  0
 35 36  1  6  0  0  0
 35 38  1  0  0  0  0
 35 29  1  0  0  0  0
 37 38  1  0  0  0  0
 39 45  1  0  0  0  0
 40 44  1  0  0  0  0
 40 42  2  0  0  0  0
 41 44  1  0  0  0  0
 43 40  1  0  0  0  0
 44 49  1  1  0  0  0
 45 46  1  6  0  0  0
 45 43  1  0  0  0  0
 45 41  1  0  0  0  0
 49 47  1  0  0  0  0
 49 48  1  0  0  0  0
M  END
>  <MODEL>
7

>  <REMARK>
 VINA RESULT:      -6.0      3.341      8.298
  Name = 
  19 active torsions:
  status: ('A' for Active; 'I' for Inactive)
    1  A    between atoms: C_2  and  O_7
    2  A    between atoms: C_2  and  N_35
    3  A    between atoms: C_3  and  C_12
    4  A    between atoms: S_4  and  C_27
    5  A    between atoms: S_4  and  C_32
    6  A    between atoms: O_7  and  C_10
    7  A    between atoms: C_8  and  C_46
    8  A    between atoms: C_9  and  C_25
    9  A    between atoms: C_9  and  C_43
   10  A    between atoms: C_10  and  C_24
   11  A    between atoms: C_12  and  C_36
   12  A    between atoms: N_14  and  C_25
   13  A    between atoms: C_24  and  C_43
   14  A    between atoms: C_24  and  C_46
   15  A    between atoms: C_28  and  S_41
   16  A    between atoms: CA_30  and  C_45
   17  A    between atoms: C_31  and  S_41
   18  A    between atoms: C_39  and  C_42
   19  A    between atoms: C_42  and  C_49
                            x       y       z     vdW  Elec       q    Type
                         _______ _______ _______ _____ _____    ______ ____

>  <TORSDO>
F 19

$$$$
=
 OpenBabel10232410543D

 49 51  0  0  1  0  0  0  0  0999 V2000
  189.2870  177.3500  141.4610 C   0  0  2  0  0  3  0  0  0  0  0  0
  190.1210  175.4400  142.5610 O   0  0  0  0  0  0  0  0  0  0  0  0
  190.1860  176.6580  142.4590 C   0  0  0  0  0  0  0  0  0  0  0  0
  191.2080  177.4110  143.2640 C   0  0  0  0  0  2  0  0  0  0  0  0
  191.5480  176.6960  144.5670 C   0  0  0  0  0  2  0  0  0  0  0  0
  190.4990  176.8990  145.5550 N   0  0  0  0  0  2  0  0  0  0  0  0
  190.7690  176.9620  146.9610 C   0  0  0  0  0  0  0  0  0  0  0  0
  191.9400  176.8980  147.3890 O   0  0  0  0  0  0  0  0  0  0  0  0
  189.7160  177.0730  147.8650 O   0  0  0  0  0  1  0  0  0  0  0  0
  190.0180  177.6150  140.1710 C   0  0  0  0  0  0  0  0  0  0  0  0
  191.2700  177.4250  140.1290 O   0  0  0  0  0  0  0  0  0  0  0  0
  189.3440  178.0240  139.0100 O   0  0  0  0  0  0  0  0  0  0  0  0
  189.1030  177.1970  137.8690 C   0  0  2  0  0  3  0  0  0  0  0  0
  187.6100  176.9370  137.7120 C   0  0  0  0  0  1  0  0  0  0  0  0
  191.5510  176.4320  136.5530 O   0  0  0  0  0  0  0  0  0  0  0  0
  189.7990  175.9240  138.0030 N   0  0  0  0  0  2  0  0  0  0  0  0
  190.8880  175.5530  137.1710 C   0  0  0  0  0  0  0  0  0  0  0  0
  191.2610  174.0980  137.0810 C   0  0  0  0  0  2  0  0  0  0  0  0
  193.6880  173.9080  137.1880 N   0  0  0  0  0  0  0  0  0  0  0  0
  193.7240  171.8110  136.2360 N   0  0  0  0  0  2  0  0  0  0  0  0
  194.3140  172.7720  137.1020 C   0  0  0  0  0  0  0  0  0  0  0  0
  191.8390  172.0810  134.8310 O   0  0  0  0  0  0  0  0  0  0  0  0
  192.5420  173.9060  136.2820 C   0  0  1  0  0  3  0  0  0  0  0  0
  192.6080  172.5360  135.7180 C   0  0  0  0  0  0  0  0  0  0  0  0
  195.7500  172.4060  138.0870 S   0  0  0  0  0  0  0  0  0  0  0  0
  196.0280  174.6600  139.5740 C   0  0  0  0  0  1  0  0  0  0  0  0
  196.2610  174.1430  138.1700 C   0  0  0  0  0  2  0  0  0  0  0  0
  188.6210  178.6330  141.9710 C   0  0  0  0  0  2  0  0  0  0  0  0
  186.2900  178.4130  143.0480 C   0  0  0  0  0  0  0  0  0  0  0  0
  187.1160  178.6550  141.9260 C   0  0  0  0  0  0  0  0  0  0  0  0
  185.1490  178.7310  140.4990 C   0  0  0  0  0  3  0  0  0  0  0  0
  186.5320  178.7720  140.6590 C   0  0  0  0  0  3  0  0  0  0  0  0
  184.3200  178.5850  141.6130 C   0  0  0  0  0  0  0  0  0  0  0  0
  184.8960  178.4100  142.8770 C   0  0  0  0  0  3  0  0  0  0  0  0
  186.8710  178.0280  144.3840 C   0  0  2  0  0  3  0  0  0  0  0  0
  187.1580  176.5390  144.4600 C   0  0  0  0  0  1  0  0  0  0  0  0
  186.6030  177.9720  146.7810 O   0  0  0  0  0  1  0  0  0  0  0  0
  186.0690  178.4880  145.5980 C   0  0  0  0  0  2  0  0  0  0  0  0
  182.5290  178.4840  141.4270 S   0  0  0  0  0  0  0  0  0  0  0  0
  181.2940  176.7350  138.6540 C   0  0  0  0  0  0  0  0  0  0  0  0
  183.4360  177.5380  139.0580 N   0  0  0  0  0  2  0  0  0  0  0  0
  180.0530  175.6810  138.5760 S   0  0  0  0  0  0  0  0  0  0  0  0
  181.1330  178.0320  139.1710 N   0  0  0  0  0  2  0  0  0  0  0  0
  182.6940  176.3060  138.8220 C   0  0  2  0  0  3  0  0  0  0  0  0
  182.4480  178.4910  139.5870 C   0  0  1  0  0  0  0  0  0  0  0  0
  182.6830  179.7710  139.0770 O   0  0  0  0  0  1  0  0  0  0  0  0
  184.2220  176.2630  136.9470 O   0  0  0  0  0  1  0  0  0  0  0  0
  183.8100  174.3180  138.0780 O   0  0  0  0  0  1  0  0  0  0  0  0
  183.2530  175.5250  137.6330 C   0  0  0  0  0  3  0  0  0  0  0  0
  1 28  1  1  0  0  0
  1  3  1  0  0  0  0
  3  2  2  0  0  0  0
  3  4  1  0  0  0  0
  4  5  1  0  0  0  0
  5  6  1  0  0  0  0
  6  7  1  0  0  0  0
  7  8  2  0  0  0  0
  7  9  1  0  0  0  0
 10  1  1  0  0  0  0
 11 10  2  0  0  0  0
 12 10  1  0  0  0  0
 13 14  1  1  0  0  0
 13 16  1  0  0  0  0
 13 12  1  0  0  0  0
 15 17  2  0  0  0  0
 17 16  1  0  0  0  0
 18 17  1  0  0  0  0
 20 21  1  0  0  0  0
 21 19  2  0  0  0  0
 21 25  1  0  0  0  0
 22 24  2  0  0  0  0
 23 18  1  1  0  0  0
 23 19  1  0  0  0  0
 24 20  1  0  0  0  0
 24 23  1  0  0  0  0
 25 27  1  0  0  0  0
 27 26  1  0  0  0  0
 29 35  1  0  0  0  0
 30 28  1  0  0  0  0
 30 29  2  0  0  0  0
 31 32  2  0  0  0  0
 31 33  1  0  0  0  0
 32 30  1  0  0  0  0
 33 34  2  0  0  0  0
 34 29  1  0  0  0  0
 35 36  1  6  0  0  0
 35 38  1  0  0  0  0
 38 37  1  0  0  0  0
 39 33  1  0  0  0  0
 40 44  1  0  0  0  0
 40 43  1  0  0  0  0
 41 45  1  0  0  0  0
 42 40  2  0  0  0  0
 43 45  1  0  0  0  0
 44 49  1  6  0  0  0
 44 41  1  0  0  0  0
 45 46  1  6  0  0  0
 45 39  1  0  0  0  0
 47 49  1  0  0  0  0
 49 48  1  0  0  0  0
M  END
>  <MODEL>
8

>  <REMARK>
 VINA RESULT:      -5.9      3.256      7.474
  Name = 
  19 active torsions:
  status: ('A' for Active; 'I' for Inactive)
    1  A    between atoms: C_2  and  O_7
    2  A    between atoms: C_2  and  N_35
    3  A    between atoms: C_3  and  C_12
    4  A    between atoms: S_4  and  C_27
    5  A    between atoms: S_4  and  C_32
    6  A    between atoms: O_7  and  C_10
    7  A    between atoms: C_8  and  C_46
    8  A    between atoms: C_9  and  C_25
    9  A    between atoms: C_9  and  C_43
   10  A    between atoms: C_10  and  C_24
   11  A    between atoms: C_12  and  C_36
   12  A    between atoms: N_14  and  C_25
   13  A    between atoms: C_24  and  C_43
   14  A    between atoms: C_24  and  C_46
   15  A    between atoms: C_28  and  S_41
   16  A    between atoms: CA_30  and  C_45
   17  A    between atoms: C_31  and  S_41
   18  A    between atoms: C_39  and  C_42
   19  A    between atoms: C_42  and  C_49
                            x       y       z     vdW  Elec       q    Type
                         _______ _______ _______ _____ _____    ______ ____

>  <TORSDO>
F 19

$$$$
=
 OpenBabel10232410543D

 49 51  0  0  1  0  0  0  0  0999 V2000
  186.9870  177.6380  137.7950 C   0  0  2  0  0  3  0  0  0  0  0  0
  185.4880  179.1410  138.8180 O   0  0  0  0  0  0  0  0  0  0  0  0
  185.6000  178.1240  138.1460 C   0  0  0  0  0  0  0  0  0  0  0  0
  184.3650  177.4430  137.6280 C   0  0  0  0  0  2  0  0  0  0  0  0
  183.6830  176.6030  138.7020 C   0  0  0  0  0  2  0  0  0  0  0  0
  182.5150  177.2920  139.2300 N   0  0  0  0  0  2  0  0  0  0  0  0
  181.2020  176.7160  139.1960 C   0  0  0  0  0  0  0  0  0  0  0  0
  181.0230  175.5630  138.7530 O   0  0  0  0  0  0  0  0  0  0  0  0
  180.1100  177.4560  139.6390 O   0  0  0  0  0  1  0  0  0  0  0  0
  188.0270  178.6630  138.1650 C   0  0  0  0  0  0  0  0  0  0  0  0
  188.3040  179.5790  137.3330 O   0  0  0  0  0  0  0  0  0  0  0  0
  188.6630  178.6540  139.4160 O   0  0  0  0  0  0  0  0  0  0  0  0
  188.2450  177.8790  140.5410 C   0  0  2  0  0  3  0  0  0  0  0  0
  187.3170  178.6970  141.4310 C   0  0  0  0  0  1  0  0  0  0  0  0
  188.2330  175.9850  142.7150 O   0  0  0  0  0  0  0  0  0  0  0  0
  189.3970  177.4470  141.3220 N   0  0  0  0  0  2  0  0  0  0  0  0
  189.2760  176.6630  142.5000 C   0  0  0  0  0  0  0  0  0  0  0  0
  190.4340  176.6240  143.4600 C   0  0  0  0  0  2  0  0  0  0  0  0
  188.8950  177.9550  144.8000 N   0  0  0  0  0  0  0  0  0  0  0  0
  189.7410  177.2030  146.8060 N   0  0  0  0  0  2  0  0  0  0  0  0
  188.6450  177.7040  146.0510 C   0  0  0  0  0  0  0  0  0  0  0  0
  191.9820  176.9150  146.1020 O   0  0  0  0  0  0  0  0  0  0  0  0
  190.3070  177.7060  144.5220 C   0  0  1  0  0  3  0  0  0  0  0  0
  190.7880  177.2120  145.8350 C   0  0  0  0  0  0  0  0  0  0  0  0
  187.0150  177.8700  146.7420 S   0  0  0  0  0  0  0  0  0  0  0  0
  185.2360  178.8030  144.9170 C   0  0  0  0  0  1  0  0  0  0  0  0
  186.2020  177.6580  145.1370 C   0  0  0  0  0  2  0  0  0  0  0  0
  187.1680  177.1960  136.3370 C   0  0  0  0  0  2  0  0  0  0  0  0
  188.1920  174.8460  136.0810 C   0  0  0  0  0  0  0  0  0  0  0  0
  188.3130  176.2540  136.0740 C   0  0  0  0  0  0  0  0  0  0  0  0
  190.7190  176.0430  135.8010 C   0  0  0  0  0  3  0  0  0  0  0  0
  189.5840  176.8310  135.9720 C   0  0  0  0  0  3  0  0  0  0  0  0
  190.6000  174.6550  135.7130 C   0  0  0  0  0  0  0  0  0  0  0  0
  189.3410  174.0640  135.8710 C   0  0  0  0  0  3  0  0  0  0  0  0
  186.8950  174.1680  136.4400 C   0  0  2  0  0  3  0  0  0  0  0  0
  187.1230  172.9690  137.3430 C   0  0  0  0  0  1  0  0  0  0  0  0
  185.2880  174.9010  134.7960 O   0  0  0  0  0  1  0  0  0  0  0  0
  186.0080  173.7940  135.2560 C   0  0  0  0  0  2  0  0  0  0  0  0
  192.0600  173.6100  135.5360 S   0  0  0  0  0  0  0  0  0  0  0  0
  195.1900  174.7540  136.6130 C   0  0  0  0  0  0  0  0  0  0  0  0
  193.8310  173.1040  137.5200 N   0  0  0  0  0  2  0  0  0  0  0  0
  196.3910  175.4290  135.7410 S   0  0  0  0  0  0  0  0  0  0  0  0
  193.8840  175.2750  136.6020 N   0  0  0  0  0  2  0  0  0  0  0  0
  195.1460  173.3160  136.9290 C   0  0  2  0  0  3  0  0  0  0  0  0
  192.9950  174.2000  137.0090 C   0  0  1  0  0  0  0  0  0  0  0  0
  192.1280  174.6580  138.0050 O   0  0  0  0  0  1  0  0  0  0  0  0
  196.2440  173.5350  139.0740 O   0  0  0  0  0  1  0  0  0  0  0  0
  196.1450  171.4710  138.0920 O   0  0  0  0  0  1  0  0  0  0  0  0
  196.2680  172.8480  137.8560 C   0  0  0  0  0  3  0  0  0  0  0  0
  1 28  1  6  0  0  0
  1  3  1  0  0  0  0
  1 10  1  0  0  0  0
  3  2  2  0  0  0  0
  4  3  1  0  0  0  0
  4  5  1  0  0  0  0
  5  6  1  0  0  0  0
  7  6  1  0  0  0  0
  7  9  1  0  0  0  0
  8  7  2  0  0  0  0
 10 12  1  0  0  0  0
 11 10  2  0  0  0  0
 12 13  1  0  0  0  0
 13 16  1  0  0  0  0
 13 14  1  1  0  0  0
 16 17  1  0  0  0  0
 17 15  2  0  0  0  0
 17 18  1  0  0  0  0
 19 21  2  0  0  0  0
 21 25  1  0  0  0  0
 21 20  1  0  0  0  0
 23 18  1  6  0  0  0
 23 19  1  0  0  0  0
 23 24  1  0  0  0  0
 24 22  2  0  0  0  0
 24 20  1  0  0  0  0
 26 27  1  0  0  0  0
 27 25  1  0  0  0  0
 29 35  1  0  0  0  0
 30 29  1  0  0  0  0
 30 28  1  0  0  0  0
 31 32  1  0  0  0  0
 32 30  2  0  0  0  0
 33 31  2  0  0  0  0
 33 34  1  0  0  0  0
 34 29  2  0  0  0  0
 35 36  1  6  0  0  0
 37 38  1  0  0  0  0
 38 35  1  0  0  0  0
 39 33  1  0  0  0  0
 39 45  1  0  0  0  0
 40 44  1  0  0  0  0
 42 40  2  0  0  0  0
 43 40  1  0  0  0  0
 43 45  1  0  0  0  0
 44 41  1  0  0  0  0
 44 49  1  1  0  0  0
 45 41  1  0  0  0  0
 45 46  1  1  0  0  0
 49 48  1  0  0  0  0
 49 47  1  0  0  0  0
M  END
>  <MODEL>
9

>  <REMARK>
 VINA RESULT:      -5.9      3.719      8.903
  Name = 
  19 active torsions:
  status: ('A' for Active; 'I' for Inactive)
    1  A    between atoms: C_2  and  O_7
    2  A    between atoms: C_2  and  N_35
    3  A    between atoms: C_3  and  C_12
    4  A    between atoms: S_4  and  C_27
    5  A    between atoms: S_4  and  C_32
    6  A    between atoms: O_7  and  C_10
    7  A    between atoms: C_8  and  C_46
    8  A    between atoms: C_9  and  C_25
    9  A    between atoms: C_9  and  C_43
   10  A    between atoms: C_10  and  C_24
   11  A    between atoms: C_12  and  C_36
   12  A    between atoms: N_14  and  C_25
   13  A    between atoms: C_24  and  C_43
   14  A    between atoms: C_24  and  C_46
   15  A    between atoms: C_28  and  S_41
   16  A    between atoms: CA_30  and  C_45
   17  A    between atoms: C_31  and  S_41
   18  A    between atoms: C_39  and  C_42
   19  A    between atoms: C_42  and  C_49
                            x       y       z     vdW  Elec       q    Type
                         _______ _______ _______ _____ _____    ______ ____

>  <TORSDO>
F 19

$$$$
