=
 OpenBabel10232410263D

 70 76  0  0  1  0  0  0  0  0999 V2000
  188.7910  176.7520  139.5740 C   0  0  2  0  0  3  0  0  0  0  0  0
  190.1530  176.0630  139.2420 C   0  0  1  0  0  3  0  0  0  0  0  0
  190.0470  174.8200  138.3250 C   0  0  1  0  0  3  0  0  0  0  0  0
  189.1560  175.0480  137.2520 O   0  0  0  0  0  0  0  0  0  0  0  0
  190.5200  175.0070  136.9320 C   0  0  0  0  0  2  0  0  0  0  0  0
  191.0890  177.0240  138.7130 O   0  0  0  0  0  0  0  0  0  0  0  0
  192.4640  177.0430  138.9900 C   0  0  0  0  0  3  0  0  0  0  0  0
  193.3560  176.6010  138.1030 C   0  0  0  0  0  3  0  0  0  0  0  0
  192.9630  176.0260  136.7750 C   0  0  0  0  0  2  0  0  0  0  0  0
  194.0080  175.2700  136.1950 O   0  0  0  0  0  0  0  0  0  0  0  0
  195.0820  176.1510  135.9690 C   0  0  0  0  0  2  0  0  0  0  0  0
  195.6760  175.9510  134.5860 C   0  0  0  0  0  2  0  0  0  0  0  0
  198.0770  175.7850  135.3560 N   0  0  0  0  0  2  0  0  0  0  0  0
  196.9670  173.9720  134.3540 O   0  0  0  0  0  0  0  0  0  0  0  0
  196.9430  175.1870  134.7240 C   0  0  0  0  0  0  0  0  0  0  0  0
  199.2870  175.0300  135.6490 C   0  0  0  0  0  2  0  0  0  0  0  0
  199.0180  173.5690  135.6090 C   0  0  0  0  0  0  0  0  0  0  0  0
  198.8890  173.0000  134.5390 O   0  0  0  0  0  0  0  0  0  0  0  0
  198.9300  172.7950  136.8730 C   0  0  0  0  0  2  0  0  0  0  0  0
  197.5970  172.9520  137.5580 C   0  0  0  0  0  0  0  0  0  0  0  0
  197.4350  173.8990  138.3190 O   0  0  0  0  0  0  0  0  0  0  0  0
  196.4490  171.9950  137.3440 C   0  0  0  0  0  2  0  0  0  0  0  0
  196.7410  171.0910  136.3220 O   0  0  0  0  0  0  0  0  0  0  0  0
  196.9420  169.8550  136.9510 C   0  0  2  0  0  3  0  0  0  0  0  0
  198.9010  168.3260  137.3950 C   0  0  0  0  0  2  0  0  0  0  0  0
  199.2990  169.4000  136.4020 C   0  0  0  0  0  2  0  0  0  0  0  0
  198.3440  169.7290  137.5530 C   0  0  0  0  0  3  0  0  0  0  0  0
  196.6620  168.6810  135.9930 C   0  0  0  0  0  2  0  0  0  0  0  0
  195.9210  169.1100  134.7380 C   0  0  0  0  0  2  0  0  0  0  0  0
  194.5610  168.8560  134.9160 O   0  0  0  0  0  0  0  0  0  0  0  0
  192.0010  171.4640  135.0870 C   0  0  0  0  0  2  0  0  0  0  0  0
  193.9240  169.9510  134.3550 C   0  0  2  0  0  3  0  0  0  0  0  0
  194.3410  171.1090  135.0240 O   0  0  0  0  0  0  0  0  0  0  0  0
  193.3490  172.0630  134.7650 C   0  0  0  0  0  2  0  0  0  0  0  0
  192.1160  169.7730  134.4980 S   0  0  0  0  0  0  0  0  0  0  0  0
  188.2910  178.0690  138.4290 S   0  0  0  0  0  0  0  0  0  0  0  0
  186.5200  177.7870  138.6560 C   0  0  1  0  0  3  0  0  0  0  0  0
  185.7800  178.8580  139.4930 C   0  0  2  0  0  3  0  0  0  0  0  0
  186.4510  179.0870  140.6950 O   0  0  0  0  0  1  0  0  0  0  0  0
  183.9430  178.6610  141.1110 O   0  0  0  0  0  1  0  0  0  0  0  0
  184.2710  178.6440  139.7540 C   0  0  1  0  0  3  0  0  0  0  0  0
  183.3760  179.5950  138.9660 C   0  0  0  0  0  1  0  0  0  0  0  0
  185.7850  177.2140  137.4300 C   0  0  0  0  0  2  0  0  0  0  0  0
  186.5330  176.1450  136.7570 N   0  0  0  0  0  0  0  0  0  0  0  0
  186.1340  174.8790  137.3540 C   0  0  0  0  0  2  0  0  0  0  0  0
  185.9050  175.7040  135.4900 C   0  0  1  0  0  3  0  0  0  0  0  0
  185.4640  174.3840  136.1050 C   0  0  1  0  0  3  0  0  0  0  0  0
  184.6960  176.4930  135.0000 C   0  0  0  0  0  1  0  0  0  0  0  0
  186.3620  170.9400  134.9310 C   0  0  0  0  0  3  0  0  0  0  0  0
  187.6430  171.1380  134.4310 C   0  0  0  0  0  3  0  0  0  0  0  0
  187.4580  173.4460  135.0080 N   0  0  0  0  0  0  0  0  0  0  0  0
  185.6640  171.9790  135.4520 N   0  0  0  0  0  0  0  0  0  0  0  0
  188.1820  172.4270  134.4790 C   0  0  0  0  0  3  0  0  0  0  0  0
  186.2100  173.2350  135.4930 C   0  0  0  0  0  0  0  0  0  0  0  0
  188.6950  177.2970  141.0030 C   0  0  0  0  0  2  0  0  0  0  0  0
  189.7000  176.7100  141.8230 O   0  0  0  0  0  0  0  0  0  0  0  0
  190.4120  177.4300  142.7920 C   0  0  0  0  0  0  0  0  0  0  0  0
  191.6730  177.5570  142.7550 O   0  0  0  0  0  0  0  0  0  0  0  0
  189.6230  178.1040  143.8880 C   0  0  0  0  0  2  0  0  0  0  0  0
  188.3820  177.3910  144.2220 N   0  0  0  0  0  0  0  0  0  0  0  0
  188.2810  177.2560  145.6670 C   0  0  0  0  0  2  0  0  0  0  0  0
  189.3600  176.4070  146.1430 N   0  0  0  0  0  2  0  0  0  0  0  0
  190.5240  176.8810  146.8430 C   0  0  0  0  0  0  0  0  0  0  0  0
  190.4320  177.7500  147.8470 C   0  0  0  0  0  2  0  0  0  0  0  0
  191.8120  176.1710  146.6530 C   0  0  0  0  0  1  0  0  0  0  0  0
  187.2210  178.1600  143.7430 C   0  0  0  0  0  2  0  0  0  0  0  0
  184.9870  178.9070  144.2100 C   0  0  2  0  0  3  0  0  0  0  0  0
  184.8640  177.5790  143.7590 O   0  0  0  0  0  0  0  0  0  0  0  0
  185.9710  177.8590  144.5770 C   0  0  1  0  0  0  0  0  0  0  0  0
  185.6300  178.9650  145.5620 C   0  0  0  0  0  2  0  0  0  0  0  0
  1 55  1  1  0  0  0
  2  6  1  6  0  0  0
  2  1  1  0  0  0  0
  3  2  1  1  0  0  0
  4  3  1  0  0  0  0
  5  4  1  0  0  0  0
  5  3  1  0  0  0  0
  6  7  1  0  0  0  0
  8  7  2  0  0  0  0
  9  8  1  0  0  0  0
 10  9  1  0  0  0  0
 11 10  1  0  0  0  0
 12 15  1  0  0  0  0
 12 11  1  0  0  0  0
 13 16  1  0  0  0  0
 14 15  2  0  0  0  0
 15 13  1  0  0  0  0
 17 16  1  0  0  0  0
 17 19  1  0  0  0  0
 18 17  2  0  0  0  0
 19 20  1  0  0  0  0
 20 21  2  0  0  0  0
 22 20  1  0  0  0  0
 23 24  1  0  0  0  0
 23 22  1  0  0  0  0
 24 28  1  6  0  0  0
 24 27  1  0  0  0  0
 25 27  1  0  0  0  0
 26 25  1  0  0  0  0
 26 27  1  0  0  0  0
 29 30  1  0  0  0  0
 29 28  1  0  0  0  0
 32 35  1  0  0  0  0
 32 30  1  1  0  0  0
 32 33  1  0  0  0  0
 34 33  1  0  0  0  0
 34 31  1  0  0  0  0
 35 31  1  0  0  0  0
 36 37  1  0  0  0  0
 36  1  1  0  0  0  0
 37 43  1  6  0  0  0
 37 38  1  0  0  0  0
 38 41  1  0  0  0  0
 38 39  1  1  0  0  0
 41 42  1  6  0  0  0
 41 40  1  0  0  0  0
 44 45  1  0  0  0  0
 44 43  1  0  0  0  0
 46 48  1  1  0  0  0
 46 47  1  0  0  0  0
 46 44  1  0  0  0  0
 47 54  1  6  0  0  0
 47 45  1  0  0  0  0
 49 52  2  0  0  0  0
 50 53  2  0  0  0  0
 50 49  1  0  0  0  0
 51 54  2  0  0  0  0
 52 54  1  0  0  0  0
 53 51  1  0  0  0  0
 55 56  1  0  0  0  0
 56 57  1  0  0  0  0
 57 59  1  0  0  0  0
 58 57  2  0  0  0  0
 59 60  1  0  0  0  0
 60 61  1  0  0  0  0
 61 62  1  0  0  0  0
 62 63  1  0  0  0  0
 63 64  2  0  0  0  0
 65 63  1  0  0  0  0
 66 60  1  0  0  0  0
 67 69  1  0  0  0  0
 67 70  1  1  0  0  0
 68 67  1  0  0  0  0
 68 69  1  0  0  0  0
 69 66  1  6  0  0  0
 69 70  1  0  0  0  0
M  END
>  <MODEL>
1

>  <REMARK>
 VINA RESULT:      -3.5      0.000      0.000
  Name = 
  38 active torsions:
  status: ('A' for Active; 'I' for Inactive)
    1  A    between atoms: N_1  and  C_51
    2  A    between atoms: C_2  and  C_12
    3  A    between atoms: C_2  and  C_26
    4  A    between atoms: O_3  and  C_9
    5  A    between atoms: O_3  and  C_57
    6  A    between atoms: C_4  and  C_52
    7  A    between atoms: C_6  and  C_57
    8  A    between atoms: C_6  and  C_70
    9  A    between atoms: C_7  and  C_24
   10  A    between atoms: C_7  and  C_51
   11  A    between atoms: C_7  and  S_66
   12  A    between atoms: C_9  and  C_61
   13  A    between atoms: C_10  and  C_52
   14  A    between atoms: C_10  and  S_66
   15  A    between atoms: C_10  and  C_69
   16  A    between atoms: C_11  and  C_26
   17  A    between atoms: C_11  and  N_59
   18  A    between atoms: C_12  and  C_33
   19  A    between atoms: N_15  and  C_27
   20  A    between atoms: N_15  and  C_42
   21  A    between atoms: C_18  and  O_54
   22  A    between atoms: C_19  and  C_45
   23  A    between atoms: C_19  and  N_58
   24  A    between atoms: C_20  and  C_35
   25  A    between atoms: C_20  and  O_54
   26  A    between atoms: C_24  and  C_46
   27  A    between atoms: O_28  and  C_39
   28  A    between atoms: O_28  and  C_69
   29  A    between atoms: C_31  and  O_53
   30  A    between atoms: C_32  and  C_35
   31  A    between atoms: C_32  and  C_62
   32  A    between atoms: C_32  and  O_63
   33  A    between atoms: C_33  and  O_63
   34  A    between atoms: C_37  and  C_49
   35  A    between atoms: C_39  and  C_60
   36  A    between atoms: C_42  and  N_58
   37  A    between atoms: C_52  and  O_53
   38  A    between atoms: N_58  and  C_60
                            x       y       z     vdW  Elec       q    Type
                         _______ _______ _______ _____ _____    ______ ____

>  <TORSDO>
F 38

$$$$
=
 OpenBabel10232410263D

 70 76  0  0  1  0  0  0  0  0999 V2000
  187.3240  177.2700  139.7630 C   0  0  2  0  0  3  0  0  0  0  0  0
  188.7050  176.6470  139.3840 C   0  0  1  0  0  3  0  0  0  0  0  0
  188.6830  175.7130  138.1490 C   0  0  1  0  0  3  0  0  0  0  0  0
  187.3700  175.5540  137.6500 O   0  0  0  0  0  0  0  0  0  0  0  0
  188.2410  176.3370  136.8800 C   0  0  0  0  0  2  0  0  0  0  0  0
  189.7020  177.6800  139.2400 O   0  0  0  0  0  0  0  0  0  0  0  0
  191.0470  177.5570  139.6200 C   0  0  0  0  0  3  0  0  0  0  0  0
  192.0020  177.3200  138.7200 C   0  0  0  0  0  3  0  0  0  0  0  0
  191.7130  177.1340  137.2600 C   0  0  0  0  0  2  0  0  0  0  0  0
  192.7740  176.4820  136.5890 O   0  0  0  0  0  0  0  0  0  0  0  0
  193.8890  177.3380  136.6450 C   0  0  0  0  0  2  0  0  0  0  0  0
  194.6580  177.3280  135.3360 C   0  0  0  0  0  2  0  0  0  0  0  0
  196.9280  176.8030  136.3150 N   0  0  0  0  0  2  0  0  0  0  0  0
  195.7890  175.2790  134.9340 O   0  0  0  0  0  0  0  0  0  0  0  0
  195.8280  176.4240  135.4840 C   0  0  0  0  0  0  0  0  0  0  0  0
  198.0240  175.8920  136.6100 C   0  0  0  0  0  2  0  0  0  0  0  0
  197.5600  174.4800  136.5710 C   0  0  0  0  0  0  0  0  0  0  0  0
  197.3370  173.9380  135.5020 O   0  0  0  0  0  0  0  0  0  0  0  0
  197.3900  173.7190  137.8340 C   0  0  0  0  0  2  0  0  0  0  0  0
  196.1310  174.0930  138.5730 C   0  0  0  0  0  0  0  0  0  0  0  0
  196.1160  175.1330  139.2220 O   0  0  0  0  0  0  0  0  0  0  0  0
  194.8830  173.2440  138.5430 C   0  0  0  0  0  2  0  0  0  0  0  0
  194.5370  172.9160  137.2320 O   0  0  0  0  0  0  0  0  0  0  0  0
  194.7670  171.5390  137.1100 C   0  0  2  0  0  3  0  0  0  0  0  0
  196.5690  169.7850  136.8730 C   0  0  0  0  0  2  0  0  0  0  0  0
  196.0350  170.1650  135.5070 C   0  0  0  0  0  2  0  0  0  0  0  0
  196.1780  171.2270  136.6010 C   0  0  0  0  0  3  0  0  0  0  0  0
  193.7120  170.8670  136.2100 C   0  0  0  0  0  2  0  0  0  0  0  0
  193.0930  171.8290  135.2110 C   0  0  0  0  0  2  0  0  0  0  0  0
  192.0840  171.1620  134.5170 O   0  0  0  0  0  0  0  0  0  0  0  0
  188.8180  171.9780  135.9500 C   0  0  0  0  0  2  0  0  0  0  0  0
  190.9870  172.0030  134.6010 C   0  0  2  0  0  3  0  0  0  0  0  0
  191.0590  172.7250  135.8000 O   0  0  0  0  0  0  0  0  0  0  0  0
  189.7520  173.1600  136.0500 C   0  0  0  0  0  2  0  0  0  0  0  0
  189.4430  171.0360  134.5570 S   0  0  0  0  0  0  0  0  0  0  0  0
  186.7710  178.6310  138.6960 S   0  0  0  0  0  0  0  0  0  0  0  0
  185.0520  178.0770  138.6410 C   0  0  1  0  0  3  0  0  0  0  0  0
  184.0730  178.8580  139.5500 C   0  0  2  0  0  3  0  0  0  0  0  0
  182.8930  178.1370  139.7300 O   0  0  0  0  0  1  0  0  0  0  0  0
  184.7830  180.9370  138.4490 O   0  0  0  0  0  1  0  0  0  0  0  0
  183.7530  180.3210  139.1640 C   0  0  1  0  0  3  0  0  0  0  0  0
  182.4190  180.4830  138.4430 C   0  0  0  0  0  1  0  0  0  0  0  0
  184.5430  177.6560  137.2490 C   0  0  0  0  0  2  0  0  0  0  0  0
  184.2910  176.2140  137.1400 N   0  0  0  0  0  0  0  0  0  0  0  0
  183.3550  175.8450  138.1920 C   0  0  0  0  0  2  0  0  0  0  0  0
  183.2460  175.8810  136.1440 C   0  0  1  0  0  3  0  0  0  0  0  0
  182.2500  175.5090  137.2320 C   0  0  1  0  0  3  0  0  0  0  0  0
  182.7030  177.0240  135.2940 C   0  0  0  0  0  1  0  0  0  0  0  0
  180.8080  172.1490  138.0540 C   0  0  0  0  0  3  0  0  0  0  0  0
  181.5180  171.3200  137.1950 C   0  0  0  0  0  3  0  0  0  0  0  0
  182.6620  173.2430  136.3650 N   0  0  0  0  0  0  0  0  0  0  0  0
  181.0340  173.4860  138.0550 N   0  0  0  0  0  0  0  0  0  0  0  0
  182.4590  171.9010  136.3390 C   0  0  0  0  0  3  0  0  0  0  0  0
  181.9620  174.0370  137.2110 C   0  0  0  0  0  0  0  0  0  0  0  0
  187.2210  177.7300  141.2200 C   0  0  0  0  0  2  0  0  0  0  0  0
  188.4030  177.3810  141.9320 O   0  0  0  0  0  0  0  0  0  0  0  0
  188.8570  178.0900  143.0520 C   0  0  0  0  0  0  0  0  0  0  0  0
  190.0680  178.4450  143.1870 O   0  0  0  0  0  0  0  0  0  0  0  0
  187.8440  178.4690  144.1040 C   0  0  0  0  0  2  0  0  0  0  0  0
  187.3200  177.3090  144.8390 N   0  0  0  0  0  0  0  0  0  0  0  0
  188.4020  176.6870  145.5860 C   0  0  0  0  0  2  0  0  0  0  0  0
  188.9620  177.6560  146.5120 N   0  0  0  0  0  2  0  0  0  0  0  0
  189.8890  177.3400  147.5650 C   0  0  0  0  0  0  0  0  0  0  0  0
  190.9940  176.6340  147.3350 C   0  0  0  0  0  2  0  0  0  0  0  0
  189.7800  178.0590  148.8560 C   0  0  0  0  0  1  0  0  0  0  0  0
  186.2870  177.7490  145.7930 C   0  0  0  0  0  2  0  0  0  0  0  0
  184.1120  178.7540  145.6440 C   0  0  2  0  0  3  0  0  0  0  0  0
  184.9240  179.6880  146.3160 O   0  0  0  0  0  0  0  0  0  0  0  0
  185.5310  178.9740  145.2690 C   0  0  1  0  0  0  0  0  0  0  0  0
  184.5040  178.6320  144.2020 C   0  0  0  0  0  2  0  0  0  0  0  0
  1 55  1  1  0  0  0
  2  6  1  6  0  0  0
  2  1  1  0  0  0  0
  3  2  1  1  0  0  0
  4  3  1  0  0  0  0
  5  4  1  0  0  0  0
  5  3  1  0  0  0  0
  6  7  1  0  0  0  0
  8  7  2  0  0  0  0
  9  8  1  0  0  0  0
 10 11  1  0  0  0  0
 10  9  1  0  0  0  0
 12 15  1  0  0  0  0
 12 11  1  0  0  0  0
 13 16  1  0  0  0  0
 14 15  2  0  0  0  0
 15 13  1  0  0  0  0
 17 16  1  0  0  0  0
 17 19  1  0  0  0  0
 18 17  2  0  0  0  0
 19 20  1  0  0  0  0
 20 21  2  0  0  0  0
 22 20  1  0  0  0  0
 23 22  1  0  0  0  0
 24 28  1  6  0  0  0
 24 23  1  0  0  0  0
 26 27  1  0  0  0  0
 26 25  1  0  0  0  0
 27 25  1  0  0  0  0
 27 24  1  0  0  0  0
 29 28  1  0  0  0  0
 30 29  1  0  0  0  0
 31 34  1  0  0  0  0
 32 30  1  1  0  0  0
 32 33  1  0  0  0  0
 33 34  1  0  0  0  0
 35 32  1  0  0  0  0
 35 31  1  0  0  0  0
 36  1  1  0  0  0  0
 37 43  1  6  0  0  0
 37 36  1  0  0  0  0
 37 38  1  0  0  0  0
 38 39  1  6  0  0  0
 40 41  1  0  0  0  0
 41 42  1  6  0  0  0
 41 38  1  0  0  0  0
 44 43  1  0  0  0  0
 44 45  1  0  0  0  0
 46 48  1  1  0  0  0
 46 44  1  0  0  0  0
 46 47  1  0  0  0  0
 47 54  1  6  0  0  0
 47 45  1  0  0  0  0
 49 52  2  0  0  0  0
 50 49  1  0  0  0  0
 51 54  2  0  0  0  0
 53 51  1  0  0  0  0
 53 50  2  0  0  0  0
 54 52  1  0  0  0  0
 55 56  1  0  0  0  0
 56 57  1  0  0  0  0
 57 58  2  0  0  0  0
 57 59  1  0  0  0  0
 59 60  1  0  0  0  0
 60 61  1  0  0  0  0
 60 66  1  0  0  0  0
 61 62  1  0  0  0  0
 62 63  1  0  0  0  0
 63 65  1  0  0  0  0
 64 63  2  0  0  0  0
 67 70  1  6  0  0  0
 67 68  1  0  0  0  0
 69 67  1  0  0  0  0
 69 66  1  1  0  0  0
 69 68  1  0  0  0  0
 70 69  1  0  0  0  0
M  END
>  <MODEL>
2

>  <REMARK>
 VINA RESULT:      -2.0      2.170      2.845
  Name = 
  38 active torsions:
  status: ('A' for Active; 'I' for Inactive)
    1  A    between atoms: N_1  and  C_51
    2  A    between atoms: C_2  and  C_12
    3  A    between atoms: C_2  and  C_26
    4  A    between atoms: O_3  and  C_9
    5  A    between atoms: O_3  and  C_57
    6  A    between atoms: C_4  and  C_52
    7  A    between atoms: C_6  and  C_57
    8  A    between atoms: C_6  and  C_70
    9  A    between atoms: C_7  and  C_24
   10  A    between atoms: C_7  and  C_51
   11  A    between atoms: C_7  and  S_66
   12  A    between atoms: C_9  and  C_61
   13  A    between atoms: C_10  and  C_52
   14  A    between atoms: C_10  and  S_66
   15  A    between atoms: C_10  and  C_69
   16  A    between atoms: C_11  and  C_26
   17  A    between atoms: C_11  and  N_59
   18  A    between atoms: C_12  and  C_33
   19  A    between atoms: N_15  and  C_27
   20  A    between atoms: N_15  and  C_42
   21  A    between atoms: C_18  and  O_54
   22  A    between atoms: C_19  and  C_45
   23  A    between atoms: C_19  and  N_58
   24  A    between atoms: C_20  and  C_35
   25  A    between atoms: C_20  and  O_54
   26  A    between atoms: C_24  and  C_46
   27  A    between atoms: O_28  and  C_39
   28  A    between atoms: O_28  and  C_69
   29  A    between atoms: C_31  and  O_53
   30  A    between atoms: C_32  and  C_35
   31  A    between atoms: C_32  and  C_62
   32  A    between atoms: C_32  and  O_63
   33  A    between atoms: C_33  and  O_63
   34  A    between atoms: C_37  and  C_49
   35  A    between atoms: C_39  and  C_60
   36  A    between atoms: C_42  and  N_58
   37  A    between atoms: C_52  and  O_53
   38  A    between atoms: N_58  and  C_60
                            x       y       z     vdW  Elec       q    Type
                         _______ _______ _______ _____ _____    ______ ____

>  <TORSDO>
F 38

$$$$
=
 OpenBabel10232410263D

 70 76  0  0  1  0  0  0  0  0999 V2000
  187.5790  177.9060  138.7280 C   0  0  2  0  0  3  0  0  0  0  0  0
  188.1400  177.0180  137.5720 C   0  0  1  0  0  3  0  0  0  0  0  0
  187.4010  177.1640  136.2200 C   0  0  1  0  0  3  0  0  0  0  0  0
  187.9380  178.2250  135.4550 O   0  0  0  0  0  0  0  0  0  0  0  0
  188.2240  176.9270  135.0100 C   0  0  0  0  0  2  0  0  0  0  0  0
  189.5590  177.2270  137.4180 O   0  0  0  0  0  0  0  0  0  0  0  0
  190.4260  177.6390  138.4410 C   0  0  0  0  0  3  0  0  0  0  0  0
  191.6890  177.2170  138.4900 C   0  0  0  0  0  3  0  0  0  0  0  0
  192.2630  176.2560  137.4920 C   0  0  0  0  0  2  0  0  0  0  0  0
  192.9030  175.1610  138.1180 O   0  0  0  0  0  0  0  0  0  0  0  0
  193.7990  174.6130  137.1820 C   0  0  0  0  0  2  0  0  0  0  0  0
  194.6750  175.6870  136.5630 C   0  0  0  0  0  2  0  0  0  0  0  0
  197.1600  175.2680  136.3720 N   0  0  0  0  0  2  0  0  0  0  0  0
  195.6070  174.1860  134.9770 O   0  0  0  0  0  0  0  0  0  0  0  0
  195.8310  175.0290  135.9010 C   0  0  0  0  0  0  0  0  0  0  0  0
  198.3060  174.5330  135.8560 C   0  0  0  0  0  2  0  0  0  0  0  0
  198.4700  173.2410  136.5730 C   0  0  0  0  0  0  0  0  0  0  0  0
  198.5980  173.2260  137.7850 O   0  0  0  0  0  0  0  0  0  0  0  0
  198.4520  171.9650  135.8160 C   0  0  0  0  0  2  0  0  0  0  0  0
  197.0840  171.3360  135.7700 C   0  0  0  0  0  0  0  0  0  0  0  0
  196.8760  170.4370  134.9620 O   0  0  0  0  0  0  0  0  0  0  0  0
  195.9570  171.7600  136.6800 C   0  0  0  0  0  2  0  0  0  0  0  0
  195.3030  170.6480  137.2130 O   0  0  0  0  0  0  0  0  0  0  0  0
  194.1730  170.4490  136.4080 C   0  0  2  0  0  3  0  0  0  0  0  0
  194.8210  168.0150  136.2230 C   0  0  0  0  0  2  0  0  0  0  0  0
  193.3370  168.1770  135.9600 C   0  0  0  0  0  2  0  0  0  0  0  0
  194.3260  169.2420  135.4780 C   0  0  0  0  0  3  0  0  0  0  0  0
  193.8280  171.7120  135.5960 C   0  0  0  0  0  2  0  0  0  0  0  0
  192.4540  171.6390  134.9520 C   0  0  0  0  0  2  0  0  0  0  0  0
  191.7260  172.7670  135.3280 O   0  0  0  0  0  0  0  0  0  0  0  0
  188.3550  171.3470  135.2430 C   0  0  0  0  0  2  0  0  0  0  0  0
  190.5010  172.6200  134.6970 C   0  0  2  0  0  3  0  0  0  0  0  0
  189.5470  173.3880  135.3760 O   0  0  0  0  0  0  0  0  0  0  0  0
  188.3090  172.8390  135.0200 C   0  0  0  0  0  2  0  0  0  0  0  0
  189.9960  170.8690  134.6970 S   0  0  0  0  0  0  0  0  0  0  0  0
  188.1840  177.4880  140.3880 S   0  0  0  0  0  0  0  0  0  0  0  0
  187.0910  178.6530  141.2330 C   0  0  1  0  0  3  0  0  0  0  0  0
  185.6160  178.6390  140.7630 C   0  0  2  0  0  3  0  0  0  0  0  0
  185.2550  179.8860  140.2520 O   0  0  0  0  0  1  0  0  0  0  0  0
  183.7890  179.1790  142.3130 O   0  0  0  0  0  1  0  0  0  0  0  0
  184.5510  178.1440  141.7670 C   0  0  1  0  0  3  0  0  0  0  0  0
  183.6520  177.0440  141.2100 C   0  0  0  0  0  1  0  0  0  0  0  0
  187.3510  178.8200  142.7420 C   0  0  0  0  0  2  0  0  0  0  0  0
  188.5350  178.0870  143.2070 N   0  0  0  0  0  0  0  0  0  0  0  0
  188.9680  178.6890  144.4590 C   0  0  0  0  0  2  0  0  0  0  0  0
  188.1990  176.8550  143.9570 C   0  0  1  0  0  3  0  0  0  0  0  0
  188.6290  177.4760  145.2770 C   0  0  1  0  0  3  0  0  0  0  0  0
  186.7290  176.4520  144.0120 C   0  0  0  0  0  1  0  0  0  0  0  0
  191.4310  176.4470  147.5430 C   0  0  0  0  0  3  0  0  0  0  0  0
  192.1680  175.6080  146.7160 C   0  0  0  0  0  3  0  0  0  0  0  0
  190.5660  175.9860  144.9880 N   0  0  0  0  0  0  0  0  0  0  0  0
  190.2960  177.0310  147.0860 N   0  0  0  0  0  0  0  0  0  0  0  0
  191.7070  175.3850  145.4160 C   0  0  0  0  0  3  0  0  0  0  0  0
  189.8600  176.8030  145.8070 C   0  0  0  0  0  0  0  0  0  0  0  0
  186.0490  177.9770  138.7790 C   0  0  0  0  0  2  0  0  0  0  0  0
  185.4870  177.3160  137.6510 O   0  0  0  0  0  0  0  0  0  0  0  0
  184.8420  176.0750  137.7370 C   0  0  0  0  0  0  0  0  0  0  0  0
  185.4240  174.9840  137.4520 O   0  0  0  0  0  0  0  0  0  0  0  0
  183.4150  176.0560  138.2270 C   0  0  0  0  0  2  0  0  0  0  0  0
  182.6790  177.2840  137.8970 N   0  0  0  0  0  0  0  0  0  0  0  0
  181.2800  176.9560  137.6650 C   0  0  0  0  0  2  0  0  0  0  0  0
  181.1980  175.8480  136.7290 N   0  0  0  0  0  2  0  0  0  0  0  0
  181.0850  174.4650  137.1090 C   0  0  0  0  0  0  0  0  0  0  0  0
  180.7140  174.1040  138.3350 C   0  0  0  0  0  2  0  0  0  0  0  0
  181.0830  173.4290  136.0490 C   0  0  0  0  0  1  0  0  0  0  0  0
  182.7560  178.2290  139.0220 C   0  0  0  0  0  2  0  0  0  0  0  0
  181.1180  179.9580  139.3310 C   0  0  2  0  0  3  0  0  0  0  0  0
  182.3560  180.5320  139.6780 O   0  0  0  0  0  0  0  0  0  0  0  0
  182.3640  179.6460  138.5880 C   0  0  1  0  0  0  0  0  0  0  0  0
  181.0320  179.7000  137.8580 C   0  0  0  0  0  2  0  0  0  0  0  0
  1 55  1  1  0  0  0
  1 36  1  0  0  0  0
  2  6  1  6  0  0  0
  2  1  1  0  0  0  0
  3  2  1  1  0  0  0
  4  3  1  0  0  0  0
  5  4  1  0  0  0  0
  5  3  1  0  0  0  0
  6  7  1  0  0  0  0
  7  8  2  0  0  0  0
  9 10  1  0  0  0  0
  9  8  1  0  0  0  0
 11 10  1  0  0  0  0
 12 11  1  0  0  0  0
 14 15  2  0  0  0  0
 15 13  1  0  0  0  0
 15 12  1  0  0  0  0
 16 13  1  0  0  0  0
 16 17  1  0  0  0  0
 17 18  2  0  0  0  0
 19 17  1  0  0  0  0
 20 19  1  0  0  0  0
 20 22  1  0  0  0  0
 21 20  2  0  0  0  0
 22 23  1  0  0  0  0
 24 28  1  6  0  0  0
 24 23  1  0  0  0  0
 26 25  1  0  0  0  0
 27 26  1  0  0  0  0
 27 25  1  0  0  0  0
 27 24  1  0  0  0  0
 29 30  1  0  0  0  0
 29 28  1  0  0  0  0
 32 35  1  0  0  0  0
 32 30  1  1  0  0  0
 32 33  1  0  0  0  0
 34 31  1  0  0  0  0
 34 33  1  0  0  0  0
 35 31  1  0  0  0  0
 36 37  1  0  0  0  0
 37 43  1  1  0  0  0
 38 39  1  1  0  0  0
 38 37  1  0  0  0  0
 38 41  1  0  0  0  0
 41 42  1  6  0  0  0
 41 40  1  0  0  0  0
 43 44  1  0  0  0  0
 44 46  1  0  0  0  0
 44 45  1  0  0  0  0
 45 47  1  0  0  0  0
 46 48  1  1  0  0  0
 46 47  1  0  0  0  0
 47 54  1  6  0  0  0
 50 49  1  0  0  0  0
 51 53  1  0  0  0  0
 51 54  2  0  0  0  0
 52 49  2  0  0  0  0
 53 50  2  0  0  0  0
 54 52  1  0  0  0  0
 56 57  1  0  0  0  0
 56 55  1  0  0  0  0
 57 59  1  0  0  0  0
 58 57  2  0  0  0  0
 60 59  1  0  0  0  0
 60 66  1  0  0  0  0
 61 60  1  0  0  0  0
 62 63  1  0  0  0  0
 62 61  1  0  0  0  0
 63 64  2  0  0  0  0
 65 63  1  0  0  0  0
 67 70  1  6  0  0  0
 67 68  1  0  0  0  0
 69 66  1  1  0  0  0
 69 67  1  0  0  0  0
 69 68  1  0  0  0  0
 70 69  1  0  0  0  0
M  END
>  <MODEL>
3

>  <REMARK>
 VINA RESULT:      -1.4      2.317      6.842
  Name = 
  38 active torsions:
  status: ('A' for Active; 'I' for Inactive)
    1  A    between atoms: N_1  and  C_51
    2  A    between atoms: C_2  and  C_12
    3  A    between atoms: C_2  and  C_26
    4  A    between atoms: O_3  and  C_9
    5  A    between atoms: O_3  and  C_57
    6  A    between atoms: C_4  and  C_52
    7  A    between atoms: C_6  and  C_57
    8  A    between atoms: C_6  and  C_70
    9  A    between atoms: C_7  and  C_24
   10  A    between atoms: C_7  and  C_51
   11  A    between atoms: C_7  and  S_66
   12  A    between atoms: C_9  and  C_61
   13  A    between atoms: C_10  and  C_52
   14  A    between atoms: C_10  and  S_66
   15  A    between atoms: C_10  and  C_69
   16  A    between atoms: C_11  and  C_26
   17  A    between atoms: C_11  and  N_59
   18  A    between atoms: C_12  and  C_33
   19  A    between atoms: N_15  and  C_27
   20  A    between atoms: N_15  and  C_42
   21  A    between atoms: C_18  and  O_54
   22  A    between atoms: C_19  and  C_45
   23  A    between atoms: C_19  and  N_58
   24  A    between atoms: C_20  and  C_35
   25  A    between atoms: C_20  and  O_54
   26  A    between atoms: C_24  and  C_46
   27  A    between atoms: O_28  and  C_39
   28  A    between atoms: O_28  and  C_69
   29  A    between atoms: C_31  and  O_53
   30  A    between atoms: C_32  and  C_35
   31  A    between atoms: C_32  and  C_62
   32  A    between atoms: C_32  and  O_63
   33  A    between atoms: C_33  and  O_63
   34  A    between atoms: C_37  and  C_49
   35  A    between atoms: C_39  and  C_60
   36  A    between atoms: C_42  and  N_58
   37  A    between atoms: C_52  and  O_53
   38  A    between atoms: N_58  and  C_60
                            x       y       z     vdW  Elec       q    Type
                         _______ _______ _______ _____ _____    ______ ____

>  <TORSDO>
F 38

$$$$
=
 OpenBabel10232410263D

 70 76  0  0  1  0  0  0  0  0999 V2000
  191.1500  176.8400  137.1600 C   0  0  2  0  0  3  0  0  0  0  0  0
  191.2630  176.2130  138.5860 C   0  0  1  0  0  3  0  0  0  0  0  0
  192.7090  176.0500  139.1140 C   0  0  1  0  0  3  0  0  0  0  0  0
  193.3060  177.3050  139.3720 O   0  0  0  0  0  0  0  0  0  0  0  0
  192.9490  176.5410  140.4920 C   0  0  0  0  0  2  0  0  0  0  0  0
  190.4440  176.9410  139.5230 O   0  0  0  0  0  0  0  0  0  0  0  0
  189.0470  176.8410  139.6170 C   0  0  0  0  0  3  0  0  0  0  0  0
  188.4550  176.4520  140.7470 C   0  0  0  0  0  3  0  0  0  0  0  0
  189.2250  176.0640  141.9750 C   0  0  0  0  0  2  0  0  0  0  0  0
  189.8650  177.1750  142.5710 O   0  0  0  0  0  0  0  0  0  0  0  0
  190.5430  176.7020  143.7090 C   0  0  0  0  0  2  0  0  0  0  0  0
  190.0890  177.4270  144.9630 C   0  0  0  0  0  2  0  0  0  0  0  0
  187.9270  177.7960  146.2180 N   0  0  0  0  0  2  0  0  0  0  0  0
  188.0740  176.2980  144.4130 O   0  0  0  0  0  0  0  0  0  0  0  0
  188.6550  177.1120  145.1950 C   0  0  0  0  0  0  0  0  0  0  0  0
  186.4900  177.6330  146.3840 C   0  0  0  0  0  2  0  0  0  0  0  0
  185.7490  178.4290  145.3700 C   0  0  0  0  0  0  0  0  0  0  0  0
  185.5470  179.6170  145.5520 O   0  0  0  0  0  0  0  0  0  0  0  0
  185.2740  177.7820  144.1210 C   0  0  0  0  0  2  0  0  0  0  0  0
  183.8550  178.1530  143.7780 C   0  0  0  0  0  0  0  0  0  0  0  0
  183.0070  178.1150  144.6630 O   0  0  0  0  0  0  0  0  0  0  0  0
  183.4310  178.5770  142.3930 C   0  0  0  0  0  2  0  0  0  0  0  0
  184.0990  177.8320  141.4200 O   0  0  0  0  0  0  0  0  0  0  0  0
  183.4950  178.1660  140.2010 C   0  0  2  0  0  3  0  0  0  0  0  0
  183.7200  179.7700  138.2630 C   0  0  0  0  0  2  0  0  0  0  0  0
  182.5390  180.1640  139.1260 C   0  0  0  0  0  2  0  0  0  0  0  0
  183.8090  179.6020  139.7690 C   0  0  0  0  0  3  0  0  0  0  0  0
  181.9720  177.9400  140.2450 C   0  0  0  0  0  2  0  0  0  0  0  0
  181.5480  176.6570  139.5520 C   0  0  0  0  0  2  0  0  0  0  0  0
  182.5980  175.7430  139.6270 O   0  0  0  0  0  0  0  0  0  0  0  0
  181.9410  174.6390  136.2020 C   0  0  0  0  0  2  0  0  0  0  0  0
  183.0170  175.5830  138.3170 C   0  0  2  0  0  3  0  0  0  0  0  0
  182.3940  176.5530  137.5200 O   0  0  0  0  0  0  0  0  0  0  0  0
  182.4610  176.0570  136.2130 C   0  0  0  0  0  2  0  0  0  0  0  0
  182.5860  173.9190  137.7130 S   0  0  0  0  0  0  0  0  0  0  0  0
  189.7750  178.0040  136.9340 S   0  0  0  0  0  0  0  0  0  0  0  0
  188.5390  176.7110  136.6720 C   0  0  1  0  0  3  0  0  0  0  0  0
  187.2670  177.1550  135.9110 C   0  0  2  0  0  3  0  0  0  0  0  0
  187.5580  178.2130  135.0480 O   0  0  0  0  0  1  0  0  0  0  0  0
  186.2410  177.4290  138.1250 O   0  0  0  0  0  1  0  0  0  0  0  0
  186.0090  177.4790  136.7490 C   0  0  1  0  0  3  0  0  0  0  0  0
  185.3370  178.7920  136.3580 C   0  0  0  0  0  1  0  0  0  0  0  0
  189.1080  175.3170  136.3490 C   0  0  0  0  0  2  0  0  0  0  0  0
  188.0660  174.2990  136.1620 N   0  0  0  0  0  0  0  0  0  0  0  0
  188.2540  173.7060  134.8470 C   0  0  0  0  0  2  0  0  0  0  0  0
  188.4160  172.9910  136.7630 C   0  0  1  0  0  3  0  0  0  0  0  0
  188.6350  172.3610  135.3960 C   0  0  1  0  0  3  0  0  0  0  0  0
  189.6950  172.9240  137.5910 C   0  0  0  0  0  1  0  0  0  0  0  0
  185.3120  170.6860  134.9530 C   0  0  0  0  0  3  0  0  0  0  0  0
  185.6910  169.3820  134.6580 C   0  0  0  0  0  3  0  0  0  0  0  0
  187.9730  170.0610  134.8220 N   0  0  0  0  0  0  0  0  0  0  0  0
  186.2530  171.6370  135.1750 N   0  0  0  0  0  0  0  0  0  0  0  0
  187.0560  169.0860  134.5940 C   0  0  0  0  0  3  0  0  0  0  0  0
  187.5860  171.3270  135.1110 C   0  0  0  0  0  0  0  0  0  0  0  0
  191.1010  175.8130  136.0240 C   0  0  0  0  0  2  0  0  0  0  0  0
  192.4150  175.3670  135.7050 O   0  0  0  0  0  0  0  0  0  0  0  0
  192.6980  174.0600  135.2880 C   0  0  0  0  0  0  0  0  0  0  0  0
  191.8420  173.3340  134.6970 O   0  0  0  0  0  0  0  0  0  0  0  0
  194.0920  173.5320  135.5260 C   0  0  0  0  0  2  0  0  0  0  0  0
  194.3920  173.3280  136.9500 N   0  0  0  0  0  0  0  0  0  0  0  0
  194.8210  171.9520  137.1560 C   0  0  0  0  0  2  0  0  0  0  0  0
  196.2320  171.8390  136.8310 N   0  0  0  0  0  2  0  0  0  0  0  0
  196.8890  170.6140  136.4590 C   0  0  0  0  0  0  0  0  0  0  0  0
  196.4280  169.8430  135.4770 C   0  0  0  0  0  2  0  0  0  0  0  0
  198.2590  170.3560  136.9620 C   0  0  0  0  0  1  0  0  0  0  0  0
  195.4860  174.2230  137.3620 C   0  0  0  0  0  2  0  0  0  0  0  0
  197.0700  175.8200  136.5210 C   0  0  2  0  0  3  0  0  0  0  0  0
  197.7680  174.6010  136.6240 O   0  0  0  0  0  0  0  0  0  0  0  0
  196.4330  174.5200  136.1940 C   0  0  1  0  0  0  0  0  0  0  0  0
  196.0530  175.7730  135.4210 C   0  0  0  0  0  2  0  0  0  0  0  0
  1 55  1  6  0  0  0
  1  2  1  0  0  0  0
  2  6  1  1  0  0  0
  3  2  1  1  0  0  0
  3  4  1  0  0  0  0
  3  5  1  0  0  0  0
  4  5  1  0  0  0  0
  6  7  1  0  0  0  0
  7  8  2  0  0  0  0
  8  9  1  0  0  0  0
  9 10  1  0  0  0  0
 10 11  1  0  0  0  0
 11 12  1  0  0  0  0
 12 15  1  0  0  0  0
 13 16  1  0  0  0  0
 14 15  2  0  0  0  0
 15 13  1  0  0  0  0
 17 18  2  0  0  0  0
 17 16  1  0  0  0  0
 19 17  1  0  0  0  0
 20 19  1  0  0  0  0
 20 21  2  0  0  0  0
 22 20  1  0  0  0  0
 23 22  1  0  0  0  0
 24 28  1  1  0  0  0
 24 23  1  0  0  0  0
 25 26  1  0  0  0  0
 25 27  1  0  0  0  0
 26 27  1  0  0  0  0
 27 24  1  0  0  0  0
 29 30  1  0  0  0  0
 29 28  1  0  0  0  0
 31 34  1  0  0  0  0
 31 35  1  0  0  0  0
 32 30  1  1  0  0  0
 33 32  1  0  0  0  0
 34 33  1  0  0  0  0
 35 32  1  0  0  0  0
 36  1  1  0  0  0  0
 37 43  1  6  0  0  0
 37 36  1  0  0  0  0
 38 39  1  1  0  0  0
 38 37  1  0  0  0  0
 38 41  1  0  0  0  0
 41 42  1  6  0  0  0
 41 40  1  0  0  0  0
 44 43  1  0  0  0  0
 44 46  1  0  0  0  0
 45 47  1  0  0  0  0
 45 44  1  0  0  0  0
 46 48  1  1  0  0  0
 47 54  1  6  0  0  0
 47 46  1  0  0  0  0
 49 52  2  0  0  0  0
 50 49  1  0  0  0  0
 51 54  2  0  0  0  0
 53 50  2  0  0  0  0
 53 51  1  0  0  0  0
 54 52  1  0  0  0  0
 56 55  1  0  0  0  0
 57 59  1  0  0  0  0
 57 56  1  0  0  0  0
 58 57  2  0  0  0  0
 59 60  1  0  0  0  0
 60 61  1  0  0  0  0
 60 66  1  0  0  0  0
 62 61  1  0  0  0  0
 63 62  1  0  0  0  0
 63 65  1  0  0  0  0
 64 63  2  0  0  0  0
 67 70  1  6  0  0  0
 67 68  1  0  0  0  0
 69 67  1  0  0  0  0
 69 68  1  0  0  0  0
 69 66  1  1  0  0  0
 70 69  1  0  0  0  0
M  END
>  <MODEL>
4

>  <REMARK>
 VINA RESULT:      -1.2      2.319     11.129
  Name = 
  38 active torsions:
  status: ('A' for Active; 'I' for Inactive)
    1  A    between atoms: N_1  and  C_51
    2  A    between atoms: C_2  and  C_12
    3  A    between atoms: C_2  and  C_26
    4  A    between atoms: O_3  and  C_9
    5  A    between atoms: O_3  and  C_57
    6  A    between atoms: C_4  and  C_52
    7  A    between atoms: C_6  and  C_57
    8  A    between atoms: C_6  and  C_70
    9  A    between atoms: C_7  and  C_24
   10  A    between atoms: C_7  and  C_51
   11  A    between atoms: C_7  and  S_66
   12  A    between atoms: C_9  and  C_61
   13  A    between atoms: C_10  and  C_52
   14  A    between atoms: C_10  and  S_66
   15  A    between atoms: C_10  and  C_69
   16  A    between atoms: C_11  and  C_26
   17  A    between atoms: C_11  and  N_59
   18  A    between atoms: C_12  and  C_33
   19  A    between atoms: N_15  and  C_27
   20  A    between atoms: N_15  and  C_42
   21  A    between atoms: C_18  and  O_54
   22  A    between atoms: C_19  and  C_45
   23  A    between atoms: C_19  and  N_58
   24  A    between atoms: C_20  and  C_35
   25  A    between atoms: C_20  and  O_54
   26  A    between atoms: C_24  and  C_46
   27  A    between atoms: O_28  and  C_39
   28  A    between atoms: O_28  and  C_69
   29  A    between atoms: C_31  and  O_53
   30  A    between atoms: C_32  and  C_35
   31  A    between atoms: C_32  and  C_62
   32  A    between atoms: C_32  and  O_63
   33  A    between atoms: C_33  and  O_63
   34  A    between atoms: C_37  and  C_49
   35  A    between atoms: C_39  and  C_60
   36  A    between atoms: C_42  and  N_58
   37  A    between atoms: C_52  and  O_53
   38  A    between atoms: N_58  and  C_60
                            x       y       z     vdW  Elec       q    Type
                         _______ _______ _______ _____ _____    ______ ____

>  <TORSDO>
F 38

$$$$
