=
 OpenBabel10222422073D

 31 33  0  0  1  0  0  0  0  0999 V2000
  184.7990  178.4660  139.4770 C   0  0  1  0  0  3  0  0  0  0  0  0
  181.5340  179.2920  140.3550 C   0  0  0  0  0  2  0  0  0  0  0  0
  182.5840  179.6590  139.2980 C   0  0  2  0  0  3  0  0  0  0  0  0
  181.5790  177.8850  140.4770 O   0  0  0  0  0  0  0  0  0  0  0  0
  181.9420  180.1250  138.1510 O   0  0  0  0  0  1  0  0  0  0  0  0
  182.7990  176.1130  139.6330 O   0  0  0  0  0  0  0  0  0  0  0  0
  182.5880  177.3520  139.7090 C   0  0  0  0  0  0  0  0  0  0  0  0
  183.3550  178.3760  138.9630 C   0  0  2  0  0  3  0  0  0  0  0  0
  186.0980  177.7960  137.4070 C   0  0  0  0  0  0  0  0  0  0  0  0
  185.7870  178.6840  138.3580 C   0  0  0  0  0  3  0  0  0  0  0  0
  188.0540  177.1160  136.0270 C   0  0  0  0  0  3  0  0  0  0  0  0
  189.2740  177.5430  136.3150 C   0  0  0  0  0  3  0  0  0  0  0  0
  187.1120  178.2210  136.3850 C   0  0  2  0  0  3  0  0  0  0  0  0
  188.0030  179.2420  136.9130 N   0  0  0  0  0  0  0  0  0  0  0  0
  189.2090  178.8530  136.8590 N   0  0  0  0  0  0  0  0  0  0  0  0
  185.4600  176.4630  137.3740 C   0  0  0  0  0  3  0  0  0  0  0  0
  184.6110  176.1550  136.4970 O   0  0  0  0  0  0  0  0  0  0  0  0
  184.9270  179.5200  140.4800 N   0  0  0  0  0  2  0  0  0  0  0  0
  185.7600  179.0140  141.5650 C   0  0  1  0  0  3  0  0  0  0  0  0
  185.0810  179.0280  145.2560 C   0  0  0  0  0  2  0  0  0  0  0  0
  184.9420  178.0680  142.4550 C   0  0  2  0  0  3  0  0  0  0  0  0
  183.7650  178.7820  143.1360 C   0  0  0  0  0  2  0  0  0  0  0  0
  185.8120  177.3680  143.5090 C   0  0  0  0  0  2  0  0  0  0  0  0
  186.2770  178.3520  144.5900 C   0  0  2  0  0  3  0  0  0  0  0  0
  184.2460  179.7580  144.2100 C   0  0  0  0  0  2  0  0  0  0  0  0
  187.1840  177.6860  145.6280 C   0  0  1  0  0  3  0  0  0  0  0  0
  188.6610  177.8200  145.2790 C   0  0  0  0  0  1  0  0  0  0  0  0
  188.0080  177.7770  147.6810 C   0  0  0  0  0  1  0  0  0  0  0  0
  186.9460  178.2260  146.8940 O   0  0  0  0  0  0  0  0  0  0  0  0
  188.2540  178.8990  141.4760 C   0  0  0  0  0  1  0  0  0  0  0  0
  186.9610  178.2790  140.9810 C   0  0  0  0  0  2  0  0  0  0  0  0
  1 10  1  6  0  0  0
  1 18  1  0  0  0  0
  2  4  1  0  0  0  0
  3  5  1  6  0  0  0
  3  2  1  0  0  0  0
  6  7  2  0  0  0  0
  7  4  1  0  0  0  0
  8  3  1  0  0  0  0
  8  1  1  1  0  0  0
  8  7  1  0  0  0  0
  9 10  2  0  0  0  0
 11 12  2  0  0  0  0
 11 13  1  0  0  0  0
 12 15  1  0  0  0  0
 13 14  1  0  0  0  0
 13  9  1  1  0  0  0
 15 14  2  0  0  0  0
 16  9  1  0  0  0  0
 17 16  2  0  0  0  0
 18 19  1  0  0  0  0
 19 31  1  6  0  0  0
 21 19  1  1  0  0  0
 21 22  1  0  0  0  0
 21 23  1  0  0  0  0
 22 25  1  0  0  0  0
 23 24  1  0  0  0  0
 24 20  1  0  0  0  0
 24 26  1  1  0  0  0
 25 20  1  0  0  0  0
 26 27  1  6  0  0  0
 26 29  1  0  0  0  0
 29 28  1  0  0  0  0
 31 30  1  0  0  0  0
M  END
>  <MODEL>
1

>  <REMARK>
 VINA RESULT:      -6.7      0.000      0.000
  Name = 
  10 active torsions:
  status: ('A' for Active; 'I' for Inactive)
    1  A    between atoms: C_3  and  N_9
    2  A    between atoms: C_3  and  C_14
    3  A    between atoms: C_3  and  C_25
    4  A    between atoms: C_5  and  C_6
    5  A    between atoms: C_6  and  C_7
    6  A    between atoms: N_9  and  C_18
    7  A    between atoms: C_12  and  C_18
    8  A    between atoms: C_15  and  C_18
    9  A    between atoms: C_21  and  C_27
   10  A    between atoms: C_21  and  O_30
                            x       y       z     vdW  Elec       q    Type
                         _______ _______ _______ _____ _____    ______ ____

>  <TORSDO>
F 10

$$$$
=
 OpenBabel10222422073D

 31 33  0  0  1  0  0  0  0  0999 V2000
  188.5110  178.1110  140.0270 C   0  0  1  0  0  3  0  0  0  0  0  0
  189.7800  176.5540  137.1850 C   0  0  0  0  0  2  0  0  0  0  0  0
  188.6060  176.4150  138.1630 C   0  0  2  0  0  3  0  0  0  0  0  0
  189.8890  177.9350  136.9010 O   0  0  0  0  0  0  0  0  0  0  0  0
  187.5470  175.7700  137.5250 O   0  0  0  0  0  1  0  0  0  0  0  0
  188.8950  179.9180  137.5470 O   0  0  0  0  0  0  0  0  0  0  0  0
  189.0030  178.6680  137.6540 C   0  0  0  0  0  0  0  0  0  0  0  0
  188.1750  177.8340  138.5550 C   0  0  2  0  0  3  0  0  0  0  0  0
  186.0760  178.7530  140.3140 C   0  0  0  0  0  0  0  0  0  0  0  0
  187.3170  178.6200  140.7950 C   0  0  0  0  0  3  0  0  0  0  0  0
  185.3920  179.0450  142.6880 C   0  0  0  0  0  2  0  0  0  0  0  0
  184.4180  178.3170  143.2120 C   0  0  0  0  0  3  0  0  0  0  0  0
  185.0340  179.2820  141.2560 C   0  0  2  0  0  3  0  0  0  0  0  0
  183.7780  178.5630  141.1170 N   0  0  0  0  0  2  0  0  0  0  0  0
  183.4410  178.0360  142.2200 N   0  0  0  0  0  0  0  0  0  0  0  0
  185.7600  178.3860  138.9180 C   0  0  0  0  0  3  0  0  0  0  0  0
  185.0520  179.1220  138.1810 O   0  0  0  0  0  0  0  0  0  0  0  0
  189.0560  176.9170  140.6670 N   0  0  0  0  0  2  0  0  0  0  0  0
  189.5280  177.2900  141.9960 C   0  0  1  0  0  3  0  0  0  0  0  0
  188.8010  177.3980  145.6750 C   0  0  0  0  0  2  0  0  0  0  0  0
  189.1890  176.1800  143.0010 C   0  0  2  0  0  3  0  0  0  0  0  0
  187.7970  176.3650  143.6240 C   0  0  0  0  0  2  0  0  0  0  0  0
  190.2470  176.0600  144.1070 C   0  0  0  0  0  2  0  0  0  0  0  0
  190.1930  177.2570  145.0630 C   0  0  2  0  0  3  0  0  0  0  0  0
  187.7610  177.5620  144.5730 C   0  0  0  0  0  2  0  0  0  0  0  0
  191.2690  177.1820  146.1500 C   0  0  1  0  0  3  0  0  0  0  0  0
  190.6780  177.1830  147.5530 C   0  0  0  0  0  1  0  0  0  0  0  0
  192.3060  175.5710  147.2590 C   0  0  0  0  0  1  0  0  0  0  0  0
  192.0580  176.0430  145.9690 O   0  0  0  0  0  0  0  0  0  0  0  0
  191.5620  177.3110  140.5460 C   0  0  0  0  0  1  0  0  0  0  0  0
  191.0350  177.5170  141.9520 C   0  0  0  0  0  2  0  0  0  0  0  0
  1 18  1  0  0  0  0
  1 10  1  1  0  0  0
  2  3  1  0  0  0  0
  3  5  1  6  0  0  0
  3  8  1  0  0  0  0
  4  2  1  0  0  0  0
  4  7  1  0  0  0  0
  6  7  2  0  0  0  0
  7  8  1  0  0  0  0
  8  1  1  1  0  0  0
  9 10  2  0  0  0  0
 11 12  1  0  0  0  0
 13  9  1  6  0  0  0
 13 11  1  0  0  0  0
 14 13  1  0  0  0  0
 14 15  1  0  0  0  0
 15 12  2  0  0  0  0
 16  9  1  0  0  0  0
 17 16  2  0  0  0  0
 18 19  1  0  0  0  0
 19 31  1  6  0  0  0
 21 19  1  6  0  0  0
 21 22  1  0  0  0  0
 21 23  1  0  0  0  0
 22 25  1  0  0  0  0
 23 24  1  0  0  0  0
 24 20  1  0  0  0  0
 24 26  1  1  0  0  0
 25 20  1  0  0  0  0
 26 27  1  1  0  0  0
 29 26  1  0  0  0  0
 29 28  1  0  0  0  0
 30 31  1  0  0  0  0
M  END
>  <MODEL>
2

>  <REMARK>
 VINA RESULT:      -6.7      2.895      5.594
  Name = 
  10 active torsions:
  status: ('A' for Active; 'I' for Inactive)
    1  A    between atoms: C_3  and  N_9
    2  A    between atoms: C_3  and  C_14
    3  A    between atoms: C_3  and  C_25
    4  A    between atoms: C_5  and  C_6
    5  A    between atoms: C_6  and  C_7
    6  A    between atoms: N_9  and  C_18
    7  A    between atoms: C_12  and  C_18
    8  A    between atoms: C_15  and  C_18
    9  A    between atoms: C_21  and  C_27
   10  A    between atoms: C_21  and  O_30
                            x       y       z     vdW  Elec       q    Type
                         _______ _______ _______ _____ _____    ______ ____

>  <TORSDO>
F 10

$$$$
=
 OpenBabel10222422073D

 31 33  0  0  1  0  0  0  0  0999 V2000
  188.1630  178.3680  140.6770 C   0  0  1  0  0  3  0  0  0  0  0  0
  188.6370  177.3500  137.3830 C   0  0  0  0  0  2  0  0  0  0  0  0
  188.4370  178.6430  138.1860 C   0  0  2  0  0  3  0  0  0  0  0  0
  189.5570  176.5720  138.1220 O   0  0  0  0  0  0  0  0  0  0  0  0
  189.0020  179.7100  137.4900 O   0  0  0  0  0  1  0  0  0  0  0  0
  190.6950  176.6790  140.1300 O   0  0  0  0  0  0  0  0  0  0  0  0
  189.8680  177.1730  139.3180 C   0  0  0  0  0  0  0  0  0  0  0  0
  189.1690  178.4620  139.5220 C   0  0  2  0  0  3  0  0  0  0  0  0
  185.6940  178.9140  140.8490 C   0  0  0  0  0  0  0  0  0  0  0  0
  186.7350  178.3930  140.1900 C   0  0  0  0  0  3  0  0  0  0  0  0
  183.4830  177.7740  140.7780 C   0  0  0  0  0  2  0  0  0  0  0  0
  183.1830  176.9250  139.8060 C   0  0  0  0  0  3  0  0  0  0  0  0
  184.3540  178.8310  140.1770 C   0  0  2  0  0  3  0  0  0  0  0  0
  184.4780  178.3950  138.7950 N   0  0  0  0  0  2  0  0  0  0  0  0
  183.8110  177.3340  138.6000 N   0  0  0  0  0  0  0  0  0  0  0  0
  185.8710  179.5440  142.1740 C   0  0  0  0  0  3  0  0  0  0  0  0
  184.8920  179.8030  142.9220 O   0  0  0  0  0  0  0  0  0  0  0  0
  188.4050  177.1720  141.4800 N   0  0  0  0  0  2  0  0  0  0  0  0
  188.7110  177.5950  142.8420 C   0  0  1  0  0  3  0  0  0  0  0  0
  187.3990  177.9240  146.3420 C   0  0  0  0  0  2  0  0  0  0  0  0
  188.1970  176.5480  143.8410 C   0  0  2  0  0  3  0  0  0  0  0  0
  186.7250  176.7780  144.2170 C   0  0  0  0  0  2  0  0  0  0  0  0
  189.0600  176.4880  145.1100 C   0  0  0  0  0  2  0  0  0  0  0  0
  188.8700  177.7400  145.9730 C   0  0  2  0  0  3  0  0  0  0  0  0
  186.5540  178.0290  145.0780 C   0  0  0  0  0  2  0  0  0  0  0  0
  189.7550  177.7230  147.2230 C   0  0  1  0  0  3  0  0  0  0  0  0
  189.0160  178.2110  148.4630 C   0  0  0  0  0  1  0  0  0  0  0  0
  191.6350  176.6040  147.5550 C   0  0  0  0  0  1  0  0  0  0  0  0
  190.2530  176.4370  147.4430 O   0  0  0  0  0  0  0  0  0  0  0  0
  190.5500  179.1890  143.4050 C   0  0  0  0  0  1  0  0  0  0  0  0
  190.2180  177.7680  142.9920 C   0  0  0  0  0  2  0  0  0  0  0  0
  1 10  1  6  0  0  0
  1 18  1  0  0  0  0
  2  4  1  0  0  0  0
  2  3  1  0  0  0  0
  3  5  1  6  0  0  0
  3  8  1  0  0  0  0
  4  7  1  0  0  0  0
  7  8  1  0  0  0  0
  7  6  2  0  0  0  0
  8  1  1  1  0  0  0
  9 16  1  0  0  0  0
 10  9  2  0  0  0  0
 12 11  1  0  0  0  0
 13 11  1  0  0  0  0
 13  9  1  1  0  0  0
 14 13  1  0  0  0  0
 15 14  1  0  0  0  0
 15 12  2  0  0  0  0
 16 17  2  0  0  0  0
 18 19  1  0  0  0  0
 19 31  1  6  0  0  0
 21 19  1  6  0  0  0
 21 22  1  0  0  0  0
 21 23  1  0  0  0  0
 22 25  1  0  0  0  0
 23 24  1  0  0  0  0
 24 20  1  0  0  0  0
 24 26  1  1  0  0  0
 25 20  1  0  0  0  0
 26 29  1  0  0  0  0
 26 27  1  1  0  0  0
 29 28  1  0  0  0  0
 31 30  1  0  0  0  0
M  END
>  <MODEL>
3

>  <REMARK>
 VINA RESULT:      -6.6      2.865      5.168
  Name = 
  10 active torsions:
  status: ('A' for Active; 'I' for Inactive)
    1  A    between atoms: C_3  and  N_9
    2  A    between atoms: C_3  and  C_14
    3  A    between atoms: C_3  and  C_25
    4  A    between atoms: C_5  and  C_6
    5  A    between atoms: C_6  and  C_7
    6  A    between atoms: N_9  and  C_18
    7  A    between atoms: C_12  and  C_18
    8  A    between atoms: C_15  and  C_18
    9  A    between atoms: C_21  and  C_27
   10  A    between atoms: C_21  and  O_30
                            x       y       z     vdW  Elec       q    Type
                         _______ _______ _______ _____ _____    ______ ____

>  <TORSDO>
F 10

$$$$
=
 OpenBabel10222422073D

 31 33  0  0  1  0  0  0  0  0999 V2000
  189.2740  177.2690  139.2020 C   0  0  1  0  0  3  0  0  0  0  0  0
  188.4750  176.5720  135.8870 C   0  0  0  0  0  2  0  0  0  0  0  0
  187.9400  176.2930  137.2980 C   0  0  2  0  0  3  0  0  0  0  0  0
  188.8450  177.9360  135.8740 O   0  0  0  0  0  0  0  0  0  0  0  0
  186.5670  176.0600  137.2330 O   0  0  0  0  0  1  0  0  0  0  0  0
  188.9400  179.7180  137.3420 O   0  0  0  0  0  0  0  0  0  0  0  0
  188.7020  178.5020  137.1190 C   0  0  0  0  0  0  0  0  0  0  0  0
  188.2040  177.5490  138.1370 C   0  0  2  0  0  3  0  0  0  0  0  0
  191.4590  176.3530  138.3020 C   0  0  0  0  0  0  0  0  0  0  0  0
  190.6710  177.3790  138.6440 C   0  0  0  0  0  3  0  0  0  0  0  0
  193.0640  176.0810  136.4200 C   0  0  0  0  0  3  0  0  0  0  0  0
  194.1300  175.3030  136.5390 C   0  0  0  0  0  3  0  0  0  0  0  0
  192.8200  176.6900  137.7640 C   0  0  2  0  0  3  0  0  0  0  0  0
  193.8720  176.1020  138.5770 N   0  0  0  0  0  0  0  0  0  0  0  0
  194.6030  175.3370  137.8780 N   0  0  0  0  0  0  0  0  0  0  0  0
  190.9940  174.9570  138.4460 C   0  0  0  0  0  3  0  0  0  0  0  0
  190.7730  174.2240  137.4470 O   0  0  0  0  0  0  0  0  0  0  0  0
  189.1120  178.1610  140.3470 N   0  0  0  0  0  2  0  0  0  0  0  0
  189.3330  177.3850  141.5620 C   0  0  1  0  0  3  0  0  0  0  0  0
  190.7960  176.4660  144.8920 C   0  0  0  0  0  2  0  0  0  0  0  0
  190.4220  178.0500  142.4150 C   0  0  2  0  0  3  0  0  0  0  0  0
  191.6360  177.1330  142.6270 C   0  0  0  0  0  2  0  0  0  0  0  0
  189.8820  178.5270  143.7710 C   0  0  0  0  0  2  0  0  0  0  0  0
  189.5620  177.3430  144.6920 C   0  0  2  0  0  3  0  0  0  0  0  0
  191.3000  175.9590  143.5460 C   0  0  0  0  0  2  0  0  0  0  0  0
  188.9790  177.7930  146.0340 C   0  0  1  0  0  3  0  0  0  0  0  0
  187.4600  177.6920  146.0700 C   0  0  0  0  0  1  0  0  0  0  0  0
  189.3640  177.8310  148.2140 C   0  0  0  0  0  1  0  0  0  0  0  0
  189.5280  177.0410  147.0750 O   0  0  0  0  0  0  0  0  0  0  0  0
  187.0300  178.3130  141.8360 C   0  0  0  0  0  1  0  0  0  0  0  0
  188.0300  177.2940  142.3480 C   0  0  0  0  0  2  0  0  0  0  0  0
  1 10  1  6  0  0  0
  1 18  1  0  0  0  0
  2  3  1  0  0  0  0
  3  5  1  6  0  0  0
  3  8  1  0  0  0  0
  4  2  1  0  0  0  0
  4  7  1  0  0  0  0
  7  6  2  0  0  0  0
  7  8  1  0  0  0  0
  8  1  1  1  0  0  0
  9 16  1  0  0  0  0
  9 10  2  0  0  0  0
 11 12  2  0  0  0  0
 11 13  1  0  0  0  0
 12 15  1  0  0  0  0
 13  9  1  1  0  0  0
 13 14  1  0  0  0  0
 15 14  2  0  0  0  0
 17 16  2  0  0  0  0
 18 19  1  0  0  0  0
 19 31  1  1  0  0  0
 21 19  1  1  0  0  0
 21 22  1  0  0  0  0
 21 23  1  0  0  0  0
 22 25  1  0  0  0  0
 23 24  1  0  0  0  0
 24 20  1  0  0  0  0
 24 26  1  1  0  0  0
 25 20  1  0  0  0  0
 26 27  1  6  0  0  0
 26 29  1  0  0  0  0
 29 28  1  0  0  0  0
 30 31  1  0  0  0  0
M  END
>  <MODEL>
4

>  <REMARK>
 VINA RESULT:      -6.6      3.429      5.624
  Name = 
  10 active torsions:
  status: ('A' for Active; 'I' for Inactive)
    1  A    between atoms: C_3  and  N_9
    2  A    between atoms: C_3  and  C_14
    3  A    between atoms: C_3  and  C_25
    4  A    between atoms: C_5  and  C_6
    5  A    between atoms: C_6  and  C_7
    6  A    between atoms: N_9  and  C_18
    7  A    between atoms: C_12  and  C_18
    8  A    between atoms: C_15  and  C_18
    9  A    between atoms: C_21  and  C_27
   10  A    between atoms: C_21  and  O_30
                            x       y       z     vdW  Elec       q    Type
                         _______ _______ _______ _____ _____    ______ ____

>  <TORSDO>
F 10

$$$$
=
 OpenBabel10222422073D

 31 33  0  0  1  0  0  0  0  0999 V2000
  188.0000  177.6830  144.8970 C   0  0  1  0  0  3  0  0  0  0  0  0
  186.2840  179.5380  147.2900 C   0  0  0  0  0  2  0  0  0  0  0  0
  186.0010  178.7480  146.0050 C   0  0  2  0  0  3  0  0  0  0  0  0
  187.1810  178.7460  148.0440 O   0  0  0  0  0  0  0  0  0  0  0  0
  184.6800  178.3050  146.0170 O   0  0  0  0  0  1  0  0  0  0  0  0
  188.3320  176.7540  147.8280 O   0  0  0  0  0  0  0  0  0  0  0  0
  187.5620  177.6250  147.3450 C   0  0  0  0  0  0  0  0  0  0  0  0
  186.9440  177.5380  146.0020 C   0  0  2  0  0  3  0  0  0  0  0  0
  190.5180  177.8440  145.1400 C   0  0  0  0  0  0  0  0  0  0  0  0
  189.3590  177.2070  145.3460 C   0  0  0  0  0  3  0  0  0  0  0  0
  191.9300  175.7950  145.1600 C   0  0  0  0  0  3  0  0  0  0  0  0
  191.9600  174.9970  146.2160 C   0  0  0  0  0  3  0  0  0  0  0  0
  191.7590  177.1890  145.6750 C   0  0  2  0  0  3  0  0  0  0  0  0
  191.6780  176.9900  147.1130 N   0  0  0  0  0  0  0  0  0  0  0  0
  191.8010  175.7620  147.4020 N   0  0  0  0  0  0  0  0  0  0  0  0
  190.5570  179.1360  144.4230 C   0  0  0  0  0  3  0  0  0  0  0  0
  191.6420  179.6590  144.0580 O   0  0  0  0  0  0  0  0  0  0  0  0
  187.5870  176.9740  143.6890 N   0  0  0  0  0  2  0  0  0  0  0  0
  188.2240  177.6180  142.5450 C   0  0  1  0  0  3  0  0  0  0  0  0
  191.0130  177.7240  140.0370 C   0  0  0  0  0  2  0  0  0  0  0  0
  188.7750  176.5520  141.5870 C   0  0  2  0  0  3  0  0  0  0  0  0
  190.2430  176.2090  141.8800 C   0  0  0  0  0  2  0  0  0  0  0  0
  188.6150  176.9610  140.1150 C   0  0  0  0  0  2  0  0  0  0  0  0
  189.5630  178.1090  139.7500 C   0  0  2  0  0  3  0  0  0  0  0  0
  191.1740  177.3630  141.5100 C   0  0  0  0  0  2  0  0  0  0  0  0
  189.3900  178.5640  138.2980 C   0  0  1  0  0  3  0  0  0  0  0  0
  189.7880  177.4850  137.3000 C   0  0  0  0  0  1  0  0  0  0  0  0
  187.7660  178.4710  136.7970 C   0  0  0  0  0  1  0  0  0  0  0  0
  188.0690  178.9570  138.0690 O   0  0  0  0  0  0  0  0  0  0  0  0
  185.8020  178.1790  142.3050 C   0  0  0  0  0  1  0  0  0  0  0  0
  187.2060  178.4960  141.8260 C   0  0  0  0  0  2  0  0  0  0  0  0
  1 10  1  1  0  0  0
  2  4  1  0  0  0  0
  3  5  1  1  0  0  0
  3  2  1  0  0  0  0
  7  6  2  0  0  0  0
  7  4  1  0  0  0  0
  8  1  1  6  0  0  0
  8  3  1  0  0  0  0
  8  7  1  0  0  0  0
  9 10  2  0  0  0  0
 11 13  1  0  0  0  0
 11 12  2  0  0  0  0
 12 15  1  0  0  0  0
 13  9  1  6  0  0  0
 13 14  1  0  0  0  0
 14 15  2  0  0  0  0
 16  9  1  0  0  0  0
 17 16  2  0  0  0  0
 18  1  1  0  0  0  0
 19 31  1  6  0  0  0
 19 18  1  0  0  0  0
 20 25  1  0  0  0  0
 21 22  1  0  0  0  0
 21 19  1  1  0  0  0
 23 21  1  0  0  0  0
 24 26  1  6  0  0  0
 24 20  1  0  0  0  0
 24 23  1  0  0  0  0
 25 22  1  0  0  0  0
 26 27  1  6  0  0  0
 28 29  1  0  0  0  0
 29 26  1  0  0  0  0
 31 30  1  0  0  0  0
M  END
>  <MODEL>
5

>  <REMARK>
 VINA RESULT:      -6.5      3.683      8.233
  Name = 
  10 active torsions:
  status: ('A' for Active; 'I' for Inactive)
    1  A    between atoms: C_3  and  N_9
    2  A    between atoms: C_3  and  C_14
    3  A    between atoms: C_3  and  C_25
    4  A    between atoms: C_5  and  C_6
    5  A    between atoms: C_6  and  C_7
    6  A    between atoms: N_9  and  C_18
    7  A    between atoms: C_12  and  C_18
    8  A    between atoms: C_15  and  C_18
    9  A    between atoms: C_21  and  C_27
   10  A    between atoms: C_21  and  O_30
                            x       y       z     vdW  Elec       q    Type
                         _______ _______ _______ _____ _____    ______ ____

>  <TORSDO>
F 10

$$$$
=
 OpenBabel10222422073D

 31 33  0  0  1  0  0  0  0  0999 V2000
  188.9530  177.2890  141.7160 C   0  0  1  0  0  3  0  0  0  0  0  0
  191.7240  178.1090  143.6560 C   0  0  0  0  0  2  0  0  0  0  0  0
  190.2230  178.4190  143.5790 C   0  0  2  0  0  3  0  0  0  0  0  0
  191.8450  176.7150  143.4520 O   0  0  0  0  0  0  0  0  0  0  0  0
  189.7620  178.7850  144.8420 O   0  0  0  0  0  1  0  0  0  0  0  0
  190.4820  174.9120  142.9710 O   0  0  0  0  0  0  0  0  0  0  0  0
  190.6260  176.1490  143.1590 C   0  0  0  0  0  0  0  0  0  0  0  0
  189.5180  177.1310  143.1340 C   0  0  2  0  0  3  0  0  0  0  0  0
  186.6980  178.0390  142.5950 C   0  0  0  0  0  0  0  0  0  0  0  0
  187.6880  178.1100  141.6980 C   0  0  0  0  0  3  0  0  0  0  0  0
  184.2220  178.2130  142.4040 C   0  0  0  0  0  2  0  0  0  0  0  0
  183.6410  178.4280  141.2330 C   0  0  0  0  0  3  0  0  0  0  0  0
  185.5230  178.9500  142.3850 C   0  0  2  0  0  3  0  0  0  0  0  0
  185.5370  179.5380  141.0550 N   0  0  0  0  0  2  0  0  0  0  0  0
  184.4760  179.2460  140.4260 N   0  0  0  0  0  0  0  0  0  0  0  0
  186.7730  177.1050  143.7380 C   0  0  0  0  0  3  0  0  0  0  0  0
  186.5530  177.4820  144.9190 O   0  0  0  0  0  0  0  0  0  0  0  0
  189.9510  177.8730  140.8230 N   0  0  0  0  0  2  0  0  0  0  0  0
  189.9830  177.0790  139.5990 C   0  0  1  0  0  3  0  0  0  0  0  0
  187.6690  176.7240  136.6680 C   0  0  0  0  0  2  0  0  0  0  0  0
  189.7310  177.9830  138.3840 C   0  0  2  0  0  3  0  0  0  0  0  0
  188.2840  178.4950  138.3310 C   0  0  0  0  0  2  0  0  0  0  0  0
  190.0910  177.2880  137.0630 C   0  0  0  0  0  2  0  0  0  0  0  0
  189.0920  176.1740  136.7290 C   0  0  2  0  0  3  0  0  0  0  0  0
  187.3020  177.3720  137.9980 C   0  0  0  0  0  2  0  0  0  0  0  0
  189.4560  175.4360  135.4380 C   0  0  1  0  0  3  0  0  0  0  0  0
  190.6380  176.0730  134.7190 C   0  0  0  0  0  1  0  0  0  0  0  0
  191.1180  173.9800  135.5690 C   0  0  0  0  0  1  0  0  0  0  0  0
  189.7340  174.0940  135.7100 O   0  0  0  0  0  0  0  0  0  0  0  0
  192.4350  177.2890  140.0310 C   0  0  0  0  0  1  0  0  0  0  0  0
  191.3410  176.3980  139.4740 C   0  0  0  0  0  2  0  0  0  0  0  0
  1 10  1  1  0  0  0
  3  2  1  0  0  0  0
  3  5  1  1  0  0  0
  4  2  1  0  0  0  0
  6  7  2  0  0  0  0
  7  4  1  0  0  0  0
  8  1  1  6  0  0  0
  8  7  1  0  0  0  0
  8  3  1  0  0  0  0
  9 16  1  0  0  0  0
 10  9  2  0  0  0  0
 12 11  1  0  0  0  0
 13 11  1  0  0  0  0
 13  9  1  6  0  0  0
 14 13  1  0  0  0  0
 15 14  1  0  0  0  0
 15 12  2  0  0  0  0
 16 17  2  0  0  0  0
 18  1  1  0  0  0  0
 19 31  1  6  0  0  0
 19 18  1  0  0  0  0
 20 24  1  0  0  0  0
 20 25  1  0  0  0  0
 21 19  1  1  0  0  0
 22 21  1  0  0  0  0
 23 21  1  0  0  0  0
 24 26  1  6  0  0  0
 24 23  1  0  0  0  0
 25 22  1  0  0  0  0
 26 27  1  1  0  0  0
 26 29  1  0  0  0  0
 28 29  1  0  0  0  0
 31 30  1  0  0  0  0
M  END
>  <MODEL>
6

>  <REMARK>
 VINA RESULT:      -6.3      3.253      8.094
  Name = 
  10 active torsions:
  status: ('A' for Active; 'I' for Inactive)
    1  A    between atoms: C_3  and  N_9
    2  A    between atoms: C_3  and  C_14
    3  A    between atoms: C_3  and  C_25
    4  A    between atoms: C_5  and  C_6
    5  A    between atoms: C_6  and  C_7
    6  A    between atoms: N_9  and  C_18
    7  A    between atoms: C_12  and  C_18
    8  A    between atoms: C_15  and  C_18
    9  A    between atoms: C_21  and  C_27
   10  A    between atoms: C_21  and  O_30
                            x       y       z     vdW  Elec       q    Type
                         _______ _______ _______ _____ _____    ______ ____

>  <TORSDO>
F 10

$$$$
=
 OpenBabel10222422073D

 31 33  0  0  1  0  0  0  0  0999 V2000
  187.2880  178.4130  141.1710 C   0  0  1  0  0  3  0  0  0  0  0  0
  183.9400  178.0330  142.0420 C   0  0  0  0  0  2  0  0  0  0  0  0
  185.2110  178.7100  142.5710 C   0  0  2  0  0  3  0  0  0  0  0  0
  183.9090  178.2940  140.6530 O   0  0  0  0  0  0  0  0  0  0  0  0
  184.8580  179.7910  143.3760 O   0  0  0  0  0  1  0  0  0  0  0  0
  185.2240  179.3220  139.0560 O   0  0  0  0  0  0  0  0  0  0  0  0
  185.0440  178.9540  140.2460 C   0  0  0  0  0  0  0  0  0  0  0  0
  185.9930  179.2170  141.3520 C   0  0  2  0  0  3  0  0  0  0  0  0
  188.7150  177.5800  139.2500 C   0  0  0  0  0  0  0  0  0  0  0  0
  187.6540  178.2460  139.7170 C   0  0  0  0  0  3  0  0  0  0  0  0
  188.4290  178.7990  137.1000 C   0  0  0  0  0  2  0  0  0  0  0  0
  187.4780  178.4590  136.2430 C   0  0  0  0  0  3  0  0  0  0  0  0
  188.8910  177.5390  137.7600 C   0  0  2  0  0  3  0  0  0  0  0  0
  188.0380  176.5300  137.1510 N   0  0  0  0  0  2  0  0  0  0  0  0
  187.2610  177.0570  136.2990 N   0  0  0  0  0  0  0  0  0  0  0  0
  189.6590  176.9130  140.1710 C   0  0  0  0  0  3  0  0  0  0  0  0
  190.5300  176.1030  139.7580 O   0  0  0  0  0  0  0  0  0  0  0  0
  188.3890  179.0310  141.9050 N   0  0  0  0  0  2  0  0  0  0  0  0
  188.9390  178.0370  142.8200 C   0  0  1  0  0  3  0  0  0  0  0  0
  191.6050  176.3870  144.8810 C   0  0  0  0  0  2  0  0  0  0  0  0
  190.1850  178.6020  143.5170 C   0  0  2  0  0  3  0  0  0  0  0  0
  191.4840  177.9970  142.9650 C   0  0  0  0  0  2  0  0  0  0  0  0
  190.1270  178.4190  145.0410 C   0  0  0  0  0  2  0  0  0  0  0  0
  190.2950  176.9460  145.4320 C   0  0  2  0  0  3  0  0  0  0  0  0
  191.6360  176.5300  143.3640 C   0  0  0  0  0  2  0  0  0  0  0  0
  190.1960  176.7330  146.9460 C   0  0  1  0  0  3  0  0  0  0  0  0
  191.5590  176.5250  147.5920 C   0  0  0  0  0  1  0  0  0  0  0  0
  188.3630  177.2870  148.0560 C   0  0  0  0  0  1  0  0  0  0  0  0
  189.5490  177.8170  147.5440 O   0  0  0  0  0  0  0  0  0  0  0  0
  187.5080  176.1980  143.7210 C   0  0  0  0  0  1  0  0  0  0  0  0
  187.8830  177.6610  143.8540 C   0  0  0  0  0  2  0  0  0  0  0  0
  1 10  1  6  0  0  0
  1 18  1  0  0  0  0
  2  3  1  0  0  0  0
  3  5  1  1  0  0  0
  4  2  1  0  0  0  0
  6  7  2  0  0  0  0
  7  4  1  0  0  0  0
  7  8  1  0  0  0  0
  8  1  1  6  0  0  0
  8  3  1  0  0  0  0
  9 10  2  0  0  0  0
  9 16  1  0  0  0  0
 11 13  1  0  0  0  0
 12 15  2  0  0  0  0
 12 11  1  0  0  0  0
 13  9  1  1  0  0  0
 14 13  1  0  0  0  0
 15 14  1  0  0  0  0
 17 16  2  0  0  0  0
 18 19  1  0  0  0  0
 19 31  1  1  0  0  0
 20 24  1  0  0  0  0
 21 19  1  6  0  0  0
 21 23  1  0  0  0  0
 22 25  1  0  0  0  0
 22 21  1  0  0  0  0
 23 24  1  0  0  0  0
 24 26  1  1  0  0  0
 25 20  1  0  0  0  0
 26 29  1  0  0  0  0
 26 27  1  1  0  0  0
 29 28  1  0  0  0  0
 30 31  1  0  0  0  0
M  END
>  <MODEL>
7

>  <REMARK>
 VINA RESULT:      -6.2      2.679      4.263
  Name = 
  10 active torsions:
  status: ('A' for Active; 'I' for Inactive)
    1  A    between atoms: C_3  and  N_9
    2  A    between atoms: C_3  and  C_14
    3  A    between atoms: C_3  and  C_25
    4  A    between atoms: C_5  and  C_6
    5  A    between atoms: C_6  and  C_7
    6  A    between atoms: N_9  and  C_18
    7  A    between atoms: C_12  and  C_18
    8  A    between atoms: C_15  and  C_18
    9  A    between atoms: C_21  and  C_27
   10  A    between atoms: C_21  and  O_30
                            x       y       z     vdW  Elec       q    Type
                         _______ _______ _______ _____ _____    ______ ____

>  <TORSDO>
F 10

$$$$
=
 OpenBabel10222422073D

 31 33  0  0  1  0  0  0  0  0999 V2000
  188.7110  178.1090  145.4650 C   0  0  1  0  0  3  0  0  0  0  0  0
  189.1350  175.8860  148.1090 C   0  0  0  0  0  2  0  0  0  0  0  0
  189.9760  176.6060  147.0470 C   0  0  2  0  0  3  0  0  0  0  0  0
  188.2300  176.8500  148.6100 O   0  0  0  0  0  0  0  0  0  0  0  0
  191.2850  176.7400  147.5070 O   0  0  0  0  0  1  0  0  0  0  0  0
  187.6560  179.0530  148.2140 O   0  0  0  0  0  0  0  0  0  0  0  0
  188.3390  178.0370  147.9230 C   0  0  0  0  0  0  0  0  0  0  0  0
  189.3610  177.9980  146.8520 C   0  0  2  0  0  3  0  0  0  0  0  0
  190.4800  177.8360  143.6710 C   0  0  0  0  0  0  0  0  0  0  0  0
  189.4820  177.3470  144.4160 C   0  0  0  0  0  3  0  0  0  0  0  0
  191.8660  177.6280  141.6150 C   0  0  0  0  0  2  0  0  0  0  0  0
  191.3230  177.2860  140.4570 C   0  0  0  0  0  3  0  0  0  0  0  0
  191.1110  176.9000  142.6810 C   0  0  2  0  0  3  0  0  0  0  0  0
  190.1060  176.1740  141.9200 N   0  0  0  0  0  2  0  0  0  0  0  0
  190.2420  176.3920  140.6780 N   0  0  0  0  0  0  0  0  0  0  0  0
  190.9340  179.2330  143.8310 C   0  0  0  0  0  3  0  0  0  0  0  0
  191.9790  179.5220  144.4710 O   0  0  0  0  0  0  0  0  0  0  0  0
  187.3230  177.6560  145.5050 N   0  0  0  0  0  2  0  0  0  0  0  0
  186.5670  178.4240  144.5220 C   0  0  1  0  0  3  0  0  0  0  0  0
  185.2720  179.2200  141.0910 C   0  0  0  0  0  2  0  0  0  0  0  0
  186.1710  177.5190  143.3460 C   0  0  2  0  0  3  0  0  0  0  0  0
  187.0420  177.7630  142.1050 C   0  0  0  0  0  2  0  0  0  0  0  0
  184.6860  177.6630  142.9820 C   0  0  0  0  0  2  0  0  0  0  0  0
  184.4010  179.0220  142.3300 C   0  0  2  0  0  3  0  0  0  0  0  0
  186.7460  179.1200  141.4680 C   0  0  0  0  0  2  0  0  0  0  0  0
  182.9180  179.2070  141.9990 C   0  0  1  0  0  3  0  0  0  0  0  0
  182.4250  178.2020  140.9660 C   0  0  0  0  0  1  0  0  0  0  0  0
  180.8440  179.3940  142.7500 C   0  0  0  0  0  1  0  0  0  0  0  0
  182.1480  179.1090  143.1600 O   0  0  0  0  0  0  0  0  0  0  0  0
  185.0240  178.2810  146.4800 C   0  0  0  0  0  1  0  0  0  0  0  0
  185.3220  179.0050  145.1820 C   0  0  0  0  0  2  0  0  0  0  0  0
  1 10  1  6  0  0  0
  1 18  1  0  0  0  0
  2  4  1  0  0  0  0
  3  5  1  1  0  0  0
  3  2  1  0  0  0  0
  7  6  2  0  0  0  0
  7  4  1  0  0  0  0
  8  1  1  6  0  0  0
  8  3  1  0  0  0  0
  8  7  1  0  0  0  0
  9 16  1  0  0  0  0
  9 10  2  0  0  0  0
 11 13  1  0  0  0  0
 12 15  2  0  0  0  0
 12 11  1  0  0  0  0
 13  9  1  1  0  0  0
 14 13  1  0  0  0  0
 15 14  1  0  0  0  0
 16 17  2  0  0  0  0
 19 31  1  1  0  0  0
 19 18  1  0  0  0  0
 20 25  1  0  0  0  0
 20 24  1  0  0  0  0
 21 19  1  1  0  0  0
 22 21  1  0  0  0  0
 23 21  1  0  0  0  0
 24 26  1  6  0  0  0
 24 23  1  0  0  0  0
 25 22  1  0  0  0  0
 26 27  1  6  0  0  0
 26 29  1  0  0  0  0
 28 29  1  0  0  0  0
 31 30  1  0  0  0  0
M  END
>  <MODEL>
8

>  <REMARK>
 VINA RESULT:      -6.0      3.387      7.574
  Name = 
  10 active torsions:
  status: ('A' for Active; 'I' for Inactive)
    1  A    between atoms: C_3  and  N_9
    2  A    between atoms: C_3  and  C_14
    3  A    between atoms: C_3  and  C_25
    4  A    between atoms: C_5  and  C_6
    5  A    between atoms: C_6  and  C_7
    6  A    between atoms: N_9  and  C_18
    7  A    between atoms: C_12  and  C_18
    8  A    between atoms: C_15  and  C_18
    9  A    between atoms: C_21  and  C_27
   10  A    between atoms: C_21  and  O_30
                            x       y       z     vdW  Elec       q    Type
                         _______ _______ _______ _____ _____    ______ ____

>  <TORSDO>
F 10

$$$$
=
 OpenBabel10222422073D

 31 33  0  0  1  0  0  0  0  0999 V2000
  190.7780  176.3910  138.1020 C   0  0  1  0  0  3  0  0  0  0  0  0
  193.6610  174.5650  137.4210 C   0  0  0  0  0  2  0  0  0  0  0  0
  192.5400  175.2950  136.6700 C   0  0  2  0  0  3  0  0  0  0  0  0
  194.0350  175.4170  138.4860 O   0  0  0  0  0  0  0  0  0  0  0  0
  193.0050  175.6890  135.4160 O   0  0  0  0  0  1  0  0  0  0  0  0
  193.3840  177.4400  139.3920 O   0  0  0  0  0  0  0  0  0  0  0  0
  193.2210  176.5240  138.5450 C   0  0  0  0  0  0  0  0  0  0  0  0
  192.1790  176.5380  137.4930 C   0  0  2  0  0  3  0  0  0  0  0  0
  189.1610  175.3520  136.4510 C   0  0  0  0  0  0  0  0  0  0  0  0
  190.0060  175.2520  137.4820 C   0  0  0  0  0  3  0  0  0  0  0  0
  187.0120  174.1260  136.1770 C   0  0  0  0  0  3  0  0  0  0  0  0
  186.6970  173.1150  136.9720 C   0  0  0  0  0  3  0  0  0  0  0  0
  188.4960  174.0860  135.9910 C   0  0  2  0  0  3  0  0  0  0  0  0
  188.8900  172.9510  136.8110 N   0  0  0  0  0  0  0  0  0  0  0  0
  187.8740  172.4120  137.3450 N   0  0  0  0  0  0  0  0  0  0  0  0
  188.9070  176.6540  135.7990 C   0  0  0  0  0  3  0  0  0  0  0  0
  188.5120  176.7330  134.6060 O   0  0  0  0  0  0  0  0  0  0  0  0
  190.8570  176.2220  139.5510 N   0  0  0  0  0  2  0  0  0  0  0  0
  189.7770  176.9930  140.1570 C   0  0  1  0  0  3  0  0  0  0  0  0
  189.0250  176.3260  143.7720 C   0  0  0  0  0  2  0  0  0  0  0  0
  190.2750  177.6670  141.4430 C   0  0  2  0  0  3  0  0  0  0  0  0
  191.0520  176.6970  142.3450 C   0  0  0  0  0  2  0  0  0  0  0  0
  189.1320  178.3180  142.2350 C   0  0  0  0  0  2  0  0  0  0  0  0
  188.2210  177.2600  142.8700 C   0  0  2  0  0  3  0  0  0  0  0  0
  190.1310  175.6500  142.9690 C   0  0  0  0  0  2  0  0  0  0  0  0
  187.0460  177.8850  143.6280 C   0  0  1  0  0  3  0  0  0  0  0  0
  185.8080  178.0380  142.7540 C   0  0  0  0  0  1  0  0  0  0  0  0
  186.2490  178.0370  145.6870 C   0  0  0  0  0  1  0  0  0  0  0  0
  186.7380  177.1200  144.7550 O   0  0  0  0  0  0  0  0  0  0  0  0
  187.7740  178.0390  139.0930 C   0  0  0  0  0  1  0  0  0  0  0  0
  189.2890  178.0450  139.1670 C   0  0  0  0  0  2  0  0  0  0  0  0
  1 10  1  6  0  0  0
  1 18  1  0  0  0  0
  2  4  1  0  0  0  0
  3  5  1  6  0  0  0
  3  2  1  0  0  0  0
  3  8  1  0  0  0  0
  4  7  1  0  0  0  0
  7  6  2  0  0  0  0
  8  1  1  1  0  0  0
  8  7  1  0  0  0  0
  9 10  2  0  0  0  0
 11 12  2  0  0  0  0
 12 15  1  0  0  0  0
 13 11  1  0  0  0  0
 13  9  1  1  0  0  0
 13 14  1  0  0  0  0
 14 15  2  0  0  0  0
 16  9  1  0  0  0  0
 17 16  2  0  0  0  0
 18 19  1  0  0  0  0
 19 31  1  6  0  0  0
 21 19  1  6  0  0  0
 21 23  1  0  0  0  0
 21 22  1  0  0  0  0
 22 25  1  0  0  0  0
 23 24  1  0  0  0  0
 24 26  1  1  0  0  0
 24 20  1  0  0  0  0
 25 20  1  0  0  0  0
 26 27  1  6  0  0  0
 26 29  1  0  0  0  0
 29 28  1  0  0  0  0
 30 31  1  0  0  0  0
M  END
>  <MODEL>
9

>  <REMARK>
 VINA RESULT:      -5.9      4.273      6.946
  Name = 
  10 active torsions:
  status: ('A' for Active; 'I' for Inactive)
    1  A    between atoms: C_3  and  N_9
    2  A    between atoms: C_3  and  C_14
    3  A    between atoms: C_3  and  C_25
    4  A    between atoms: C_5  and  C_6
    5  A    between atoms: C_6  and  C_7
    6  A    between atoms: N_9  and  C_18
    7  A    between atoms: C_12  and  C_18
    8  A    between atoms: C_15  and  C_18
    9  A    between atoms: C_21  and  C_27
   10  A    between atoms: C_21  and  O_30
                            x       y       z     vdW  Elec       q    Type
                         _______ _______ _______ _____ _____    ______ ____

>  <TORSDO>
F 10

$$$$
