=
 OpenBabel10232412143D

 68 74  0  0  1  0  0  0  0  0999 V2000
  188.1440  176.3760  143.8460 C   0  0  0  0  0  2  0  0  0  0  0  0
  189.3950  177.6810  148.3650 C   0  0  0  0  0  3  0  0  0  0  0  0
  189.6230  177.4650  145.4180 C   0  0  0  0  0  0  0  0  0  0  0  0
  188.0430  177.1210  148.0760 C   0  0  0  0  0  3  0  0  0  0  0  0
  190.6690  177.5910  146.1630 C   0  0  0  0  0  3  0  0  0  0  0  0
  188.4450  177.4160  144.8900 C   0  0  0  0  0  0  0  0  0  0  0  0
  190.4890  177.8740  147.5980 C   0  0  0  0  0  3  0  0  0  0  0  0
  187.3940  178.0380  145.7680 C   0  0  2  0  0  3  0  0  0  0  0  0
  187.2090  177.2370  147.0280 C   0  0  0  0  0  3  0  0  0  0  0  0
  184.9800  179.5250  141.7900 N   0  0  0  0  0  2  0  0  0  0  0  0
  186.0550  178.7520  143.7320 N   0  0  0  0  0  2  0  0  0  0  0  0
  184.9180  179.3100  143.0640 C   0  0  0  0  0  0  0  0  0  0  0  0
  184.9850  177.9960  145.6710 O   0  0  0  0  0  0  0  0  0  0  0  0
  186.0670  178.2800  145.0870 C   0  0  0  0  0  0  0  0  0  0  0  0
  183.7180  179.7850  143.8290 C   0  0  0  0  0  2  0  0  0  0  0  0
  182.0240  178.8550  142.3580 C   0  0  0  0  0  0  0  0  0  0  0  0
  182.5280  178.9260  143.5530 C   0  0  0  0  0  3  0  0  0  0  0  0
  181.5270  178.7740  141.1540 C   0  0  0  0  0  3  0  0  0  0  0  0
  182.3980  178.4580  139.9840 C   0  0  0  0  0  2  0  0  0  0  0  0
  181.5560  178.1020  138.7490 C   0  0  1  0  0  3  0  0  0  0  0  0
  180.1210  176.1110  138.1580 C   0  0  0  0  0  2  0  0  0  0  0  0
  182.0940  173.9640  136.4390 C   0  0  0  0  0  2  0  0  0  0  0  0
  179.9820  174.6900  137.5960 C   0  0  0  0  0  2  0  0  0  0  0  0
  183.0810  175.0580  136.8760 C   0  0  0  0  0  2  0  0  0  0  0  0
  182.4280  176.4410  137.0350 C   0  0  2  0  0  3  0  0  0  0  0  0
  181.5710  176.6080  138.3330 C   0  0  1  0  0  0  0  0  0  0  0  0
  180.6360  175.7190  135.3350 C   0  0  0  0  0  2  0  0  0  0  0  0
  182.2100  175.8280  139.4860 C   0  0  0  0  0  1  0  0  0  0  0  0
  180.6670  174.4750  136.2410 C   0  0  1  0  0  3  0  0  0  0  0  0
  181.6620  176.7940  135.7440 C   0  0  0  0  0  2  0  0  0  0  0  0
  180.2810  178.7090  138.7560 O   0  0  0  0  0  0  0  0  0  0  0  0
  180.2900  179.6810  137.8060 N   0  0  0  0  0  2  0  0  0  0  0  0
  179.9820  180.9350  138.4750 C   0  0  0  0  0  2  0  0  0  0  0  0
  180.3180  182.1010  137.5610 C   0  0  0  0  0  1  0  0  0  0  0  0
  189.8250  177.3690  140.0010 C   0  0  0  0  0  0  0  0  0  0  0  0
  190.4990  176.4880  140.8630 C   0  0  0  0  0  3  0  0  0  0  0  0
  188.0510  177.5730  141.6490 C   0  0  0  0  0  3  0  0  0  0  0  0
  188.7430  176.7200  142.5160 C   0  0  0  0  0  0  0  0  0  0  0  0
  190.6660  175.3000  142.9500 O   0  0  0  0  0  1  0  0  0  0  0  0
  189.9700  176.1700  142.1160 C   0  0  0  0  0  0  0  0  0  0  0  0
  188.5790  177.8800  140.3940 C   0  0  0  0  0  3  0  0  0  0  0  0
  191.4270  176.7420  138.1570 N   0  0  0  0  0  0  0  0  0  0  0  0
  189.9550  177.0900  136.3510 O   0  0  0  0  0  0  0  0  0  0  0  0
  191.2940  176.8190  136.7080 C   0  0  0  0  0  2  0  0  0  0  0  0
  189.3210  177.5790  137.5060 C   0  0  1  0  0  3  0  0  0  0  0  0
  190.3540  177.6200  138.6020 C   0  0  1  0  0  3  0  0  0  0  0  0
  191.1370  175.4080  138.5020 N   0  0  0  0  0  2  0  0  0  0  0  0
  191.9980  174.5720  137.6810 C   0  0  0  0  0  2  0  0  0  0  0  0
  191.1950  173.9690  136.5370 C   0  0  2  0  0  3  0  0  0  0  0  0
  190.2440  173.0880  137.0520 O   0  0  0  0  0  1  0  0  0  0  0  0
  192.0830  173.2400  135.5270 C   0  0  1  0  0  3  0  0  0  0  0  0
  194.6700  172.2720  135.7200 C   0  0  2  0  0  3  0  0  0  0  0  0
  194.2000  171.2610  134.6650 C   0  0  2  0  0  3  0  0  0  0  0  0
  192.6710  171.1760  134.5550 C   0  0  0  0  0  2  0  0  0  0  0  0
  193.8060  173.8880  135.5580 S   0  0  0  0  0  0  0  0  0  0  0  0
  192.0180  171.7880  135.7080 N   0  0  0  0  0  2  0  0  0  0  0  0
  194.7140  169.9950  134.9590 O   0  0  0  0  0  1  0  0  0  0  0  0
  196.8140  171.9100  136.9950 C   0  0  0  0  0  2  0  0  0  0  0  0
  200.2300  173.6230  138.3490 O   0  0  0  0  0  0  0  0  0  0  0  0
  198.1370  174.0030  135.3940 C   0  0  0  0  0  2  0  0  0  0  0  0
  198.3330  172.0410  136.9510 C   0  0  0  0  0  2  0  0  0  0  0  0
  198.6950  173.4080  136.6000 N   0  0  0  0  0  0  0  0  0  0  0  0
  196.1940  172.4330  135.6940 C   0  0  0  0  0  3  0  0  0  0  0  0
  196.6160  173.8840  135.4230 C   0  0  0  0  0  2  0  0  0  0  0  0
  199.7160  174.1090  137.3080 C   0  0  0  0  0  3  0  0  0  0  0  0
  188.7800  178.9820  137.2500 C   0  0  0  0  0  2  0  0  0  0  0  0
  186.8450  177.5570  136.8970 N   0  0  0  0  0  1  0  0  0  0  0  0
  187.2930  178.9360  136.9520 C   0  0  0  0  0  2  0  0  0  0  0  0
  1  6  1  0  0  0  0
  3  5  2  0  0  0  0
  4  2  1  0  0  0  0
  5  7  1  0  0  0  0
  6  3  2  0  0  0  0
  6  8  1  0  0  0  0
  7  2  2  0  0  0  0
  8 14  1  6  0  0  0
  8  9  1  0  0  0  0
  9  4  2  0  0  0  0
 10 12  2  0  0  0  0
 11 14  1  0  0  0  0
 12 11  1  0  0  0  0
 12 15  1  0  0  0  0
 14 13  2  0  0  0  0
 16 17  2  0  0  0  0
 17 15  1  0  0  0  0
 18 16  2  0  0  0  0
 19 18  1  0  0  0  0
 20 31  1  0  0  0  0
 20 19  1  1  0  0  0
 21 26  1  0  0  0  0
 22 24  1  0  0  0  0
 23 21  1  0  0  0  0
 24 25  1  0  0  0  0
 25 30  1  6  0  0  0
 25 26  1  0  0  0  0
 26 20  1  0  0  0  0
 26 28  1  1  0  0  0
 27 30  1  0  0  0  0
 29 27  1  1  0  0  0
 29 22  1  0  0  0  0
 29 23  1  0  0  0  0
 32 33  1  0  0  0  0
 32 31  1  0  0  0  0
 34 33  1  0  0  0  0
 35 41  2  0  0  0  0
 35 36  1  0  0  0  0
 36 40  2  0  0  0  0
 37 38  2  0  0  0  0
 38  1  1  0  0  0  0
 40 38  1  0  0  0  0
 40 39  1  0  0  0  0
 41 37  1  0  0  0  0
 42 47  1  0  0  0  0
 42 46  1  0  0  0  0
 43 44  1  0  0  0  0
 43 45  1  0  0  0  0
 44 42  1  0  0  0  0
 45 66  1  6  0  0  0
 45 46  1  0  0  0  0
 46 35  1  1  0  0  0
 48 47  1  0  0  0  0
 49 50  1  1  0  0  0
 49 48  1  0  0  0  0
 51 55  1  0  0  0  0
 51 56  1  0  0  0  0
 51 49  1  1  0  0  0
 52 63  1  6  0  0  0
 53 57  1  1  0  0  0
 53 52  1  0  0  0  0
 54 53  1  0  0  0  0
 54 56  1  0  0  0  0
 55 52  1  0  0  0  0
 60 64  1  0  0  0  0
 60 62  1  0  0  0  0
 61 58  1  0  0  0  0
 62 61  1  0  0  0  0
 62 65  1  0  0  0  0
 63 58  1  0  0  0  0
 64 63  1  0  0  0  0
 65 59  2  0  0  0  0
 67 68  1  0  0  0  0
 68 66  1  0  0  0  0
M  END
>  <MODEL>
1

>  <REMARK>
 VINA RESULT:      -7.9      0.000      0.000
  Name = 
  19 active torsions:
  status: ('A' for Active; 'I' for Inactive)
    1  A    between atoms: C_1  and  C_26
    2  A    between atoms: C_1  and  C_61
    3  A    between atoms: N_2  and  N_19
    4  A    between atoms: C_7  and  C_45
    5  A    between atoms: C_11  and  C_52
    6  A    between atoms: N_12  and  C_32
    7  A    between atoms: N_12  and  O_59
    8  A    between atoms: C_13  and  C_41
    9  A    between atoms: C_13  and  C_62
   10  A    between atoms: C_17  and  C_53
   11  A    between atoms: N_19  and  C_38
   12  A    between atoms: C_20  and  C_26
   13  A    between atoms: C_22  and  C_30
   14  A    between atoms: C_22  and  C_56
   15  A    between atoms: C_24  and  C_44
   16  A    between atoms: C_24  and  C_49
   17  A    between atoms: C_26  and  O_59
   18  A    between atoms: C_38  and  C_45
   19  A    between atoms: C_63  and  C_64
                            x       y       z     vdW  Elec       q    Type
                         _______ _______ _______ _____ _____    ______ ____

>  <TORSDO>
F 19

$$$$
=
 OpenBabel10232412143D

 68 74  0  0  1  0  0  0  0  0999 V2000
  188.2150  176.2740  143.7950 C   0  0  0  0  0  2  0  0  0  0  0  0
  188.3410  178.1400  148.2880 C   0  0  0  0  0  3  0  0  0  0  0  0
  189.2650  177.5950  145.5240 C   0  0  0  0  0  0  0  0  0  0  0  0
  187.1040  177.4960  147.7600 C   0  0  0  0  0  3  0  0  0  0  0  0
  190.1030  177.8490  146.4730 C   0  0  0  0  0  3  0  0  0  0  0  0
  188.2470  177.4380  144.7450 C   0  0  0  0  0  0  0  0  0  0  0  0
  189.5840  178.2870  147.7810 C   0  0  0  0  0  3  0  0  0  0  0  0
  187.0100  178.1140  145.2710 C   0  0  2  0  0  3  0  0  0  0  0  0
  186.5410  177.4570  146.5410 C   0  0  0  0  0  3  0  0  0  0  0  0
  185.5490  179.3060  140.7650 N   0  0  0  0  0  2  0  0  0  0  0  0
  186.1660  178.6670  142.9410 N   0  0  0  0  0  2  0  0  0  0  0  0
  185.1890  179.1070  141.9910 C   0  0  0  0  0  0  0  0  0  0  0  0
  184.7130  177.8500  144.5840 O   0  0  0  0  0  0  0  0  0  0  0  0
  185.8800  178.2220  144.2740 C   0  0  0  0  0  0  0  0  0  0  0  0
  183.8000  179.4840  142.4170 C   0  0  0  0  0  2  0  0  0  0  0  0
  182.5640  178.0340  140.9110 C   0  0  0  0  0  0  0  0  0  0  0  0
  182.8320  178.3830  142.1330 C   0  0  0  0  0  3  0  0  0  0  0  0
  182.3060  177.6750  139.6840 C   0  0  0  0  0  3  0  0  0  0  0  0
  183.4080  177.3530  138.7300 C   0  0  0  0  0  2  0  0  0  0  0  0
  183.0240  176.1760  137.8200 C   0  0  1  0  0  3  0  0  0  0  0  0
  184.2010  173.9430  137.7780 C   0  0  0  0  0  2  0  0  0  0  0  0
  186.0220  173.8540  134.9260 C   0  0  0  0  0  2  0  0  0  0  0  0
  185.2270  172.9900  137.1510 C   0  0  0  0  0  2  0  0  0  0  0  0
  185.4700  175.2870  134.9330 C   0  0  0  0  0  2  0  0  0  0  0  0
  184.1180  175.4180  135.6550 C   0  0  2  0  0  3  0  0  0  0  0  0
  184.2100  175.3800  137.2160 C   0  0  1  0  0  0  0  0  0  0  0  0
  183.6630  172.9440  135.1130 C   0  0  0  0  0  2  0  0  0  0  0  0
  185.4960  176.0680  137.6820 C   0  0  0  0  0  1  0  0  0  0  0  0
  185.1110  172.8470  135.6290 C   0  0  1  0  0  3  0  0  0  0  0  0
  183.1280  174.3890  135.0720 C   0  0  0  0  0  2  0  0  0  0  0  0
  181.9800  175.3870  138.3480 O   0  0  0  0  0  0  0  0  0  0  0  0
  180.8960  175.5580  137.5450 N   0  0  0  0  0  2  0  0  0  0  0  0
  179.9830  174.4600  137.8200 C   0  0  0  0  0  2  0  0  0  0  0  0
  180.6420  173.1410  137.4550 C   0  0  0  0  0  1  0  0  0  0  0  0
  189.8510  177.2510  139.9260 C   0  0  0  0  0  0  0  0  0  0  0  0
  190.6990  176.8620  140.9770 C   0  0  0  0  0  3  0  0  0  0  0  0
  187.9440  176.9750  141.4070 C   0  0  0  0  0  3  0  0  0  0  0  0
  188.7960  176.6190  142.4580 C   0  0  0  0  0  0  0  0  0  0  0  0
  191.0470  176.1790  143.2590 O   0  0  0  0  0  1  0  0  0  0  0  0
  190.1800  176.5560  142.2380 C   0  0  0  0  0  0  0  0  0  0  0  0
  188.4650  177.2710  140.1470 C   0  0  0  0  0  3  0  0  0  0  0  0
  191.2670  176.4170  138.0130 N   0  0  0  0  0  0  0  0  0  0  0  0
  189.8950  177.1950  136.2640 O   0  0  0  0  0  0  0  0  0  0  0  0
  191.1450  176.6180  136.5760 C   0  0  0  0  0  2  0  0  0  0  0  0
  189.3890  177.7320  137.4610 C   0  0  1  0  0  3  0  0  0  0  0  0
  190.4140  177.4750  138.5360 C   0  0  1  0  0  3  0  0  0  0  0  0
  190.6970  175.1580  138.2790 N   0  0  0  0  0  2  0  0  0  0  0  0
  191.3120  174.2210  137.3520 C   0  0  0  0  0  2  0  0  0  0  0  0
  190.3060  173.8090  136.2880 C   0  0  2  0  0  3  0  0  0  0  0  0
  189.1680  173.2850  136.9030 O   0  0  0  0  0  1  0  0  0  0  0  0
  190.8820  172.7840  135.3100 C   0  0  1  0  0  3  0  0  0  0  0  0
  192.8830  170.8920  135.6030 C   0  0  2  0  0  3  0  0  0  0  0  0
  192.1020  170.1320  134.5210 C   0  0  2  0  0  3  0  0  0  0  0  0
  190.6650  170.6450  134.3470 C   0  0  0  0  0  2  0  0  0  0  0  0
  192.7190  172.7140  135.4180 S   0  0  0  0  0  0  0  0  0  0  0  0
  190.2530  171.4720  135.4770 N   0  0  0  0  0  2  0  0  0  0  0  0
  192.0730  168.7680  134.8270 O   0  0  0  0  0  1  0  0  0  0  0  0
  194.9440  170.6700  137.0370 C   0  0  0  0  0  2  0  0  0  0  0  0
  198.8980  171.5030  137.3620 O   0  0  0  0  0  0  0  0  0  0  0  0
  196.6400  170.6770  134.6260 C   0  0  0  0  0  2  0  0  0  0  0  0
  196.3930  170.1980  137.0800 C   0  0  0  0  0  2  0  0  0  0  0  0
  197.1380  170.8110  135.9880 N   0  0  0  0  0  0  0  0  0  0  0  0
  194.3500  170.4490  135.6410 C   0  0  0  0  0  3  0  0  0  0  0  0
  195.1900  171.1500  134.5650 C   0  0  0  0  0  2  0  0  0  0  0  0
  198.4290  171.3800  136.2000 C   0  0  0  0  0  3  0  0  0  0  0  0
  189.1650  179.2320  137.3060 C   0  0  0  0  0  2  0  0  0  0  0  0
  186.7650  178.8760  137.1700 N   0  0  0  0  0  1  0  0  0  0  0  0
  187.8980  179.5040  136.5160 C   0  0  0  0  0  2  0  0  0  0  0  0
  1  6  1  0  0  0  0
  3  5  2  0  0  0  0
  4  2  1  0  0  0  0
  5  7  1  0  0  0  0
  6  8  1  0  0  0  0
  6  3  2  0  0  0  0
  7  2  2  0  0  0  0
  8 14  1  6  0  0  0
  8  9  1  0  0  0  0
  9  4  2  0  0  0  0
 10 12  2  0  0  0  0
 11 14  1  0  0  0  0
 12 15  1  0  0  0  0
 12 11  1  0  0  0  0
 14 13  2  0  0  0  0
 16 17  2  0  0  0  0
 17 15  1  0  0  0  0
 18 16  2  0  0  0  0
 19 18  1  0  0  0  0
 20 31  1  0  0  0  0
 20 19  1  1  0  0  0
 22 24  1  0  0  0  0
 23 21  1  0  0  0  0
 25 24  1  6  0  0  0
 25 26  1  0  0  0  0
 26 28  1  1  0  0  0
 26 21  1  0  0  0  0
 26 20  1  0  0  0  0
 27 29  1  0  0  0  0
 29 22  1  6  0  0  0
 29 23  1  0  0  0  0
 30 27  1  0  0  0  0
 30 25  1  0  0  0  0
 32 33  1  0  0  0  0
 32 31  1  0  0  0  0
 34 33  1  0  0  0  0
 35 41  2  0  0  0  0
 35 36  1  0  0  0  0
 36 40  2  0  0  0  0
 37 38  2  0  0  0  0
 38  1  1  0  0  0  0
 40 38  1  0  0  0  0
 40 39  1  0  0  0  0
 41 37  1  0  0  0  0
 42 47  1  0  0  0  0
 42 46  1  0  0  0  0
 43 44  1  0  0  0  0
 43 45  1  0  0  0  0
 44 42  1  0  0  0  0
 45 66  1  6  0  0  0
 45 46  1  0  0  0  0
 46 35  1  1  0  0  0
 48 47  1  0  0  0  0
 49 50  1  1  0  0  0
 49 48  1  0  0  0  0
 51 55  1  0  0  0  0
 51 56  1  0  0  0  0
 51 49  1  1  0  0  0
 52 63  1  6  0  0  0
 53 57  1  1  0  0  0
 53 52  1  0  0  0  0
 54 53  1  0  0  0  0
 54 56  1  0  0  0  0
 55 52  1  0  0  0  0
 58 61  1  0  0  0  0
 60 62  1  0  0  0  0
 62 65  1  0  0  0  0
 62 61  1  0  0  0  0
 63 58  1  0  0  0  0
 64 60  1  0  0  0  0
 64 63  1  0  0  0  0
 65 59  2  0  0  0  0
 68 67  1  0  0  0  0
 68 66  1  0  0  0  0
M  END
>  <MODEL>
2

>  <REMARK>
 VINA RESULT:      -7.3      1.763      2.586
  Name = 
  19 active torsions:
  status: ('A' for Active; 'I' for Inactive)
    1  A    between atoms: C_1  and  C_26
    2  A    between atoms: C_1  and  C_61
    3  A    between atoms: N_2  and  N_19
    4  A    between atoms: C_7  and  C_45
    5  A    between atoms: C_11  and  C_52
    6  A    between atoms: N_12  and  C_32
    7  A    between atoms: N_12  and  O_59
    8  A    between atoms: C_13  and  C_41
    9  A    between atoms: C_13  and  C_62
   10  A    between atoms: C_17  and  C_53
   11  A    between atoms: N_19  and  C_38
   12  A    between atoms: C_20  and  C_26
   13  A    between atoms: C_22  and  C_30
   14  A    between atoms: C_22  and  C_56
   15  A    between atoms: C_24  and  C_44
   16  A    between atoms: C_24  and  C_49
   17  A    between atoms: C_26  and  O_59
   18  A    between atoms: C_38  and  C_45
   19  A    between atoms: C_63  and  C_64
                            x       y       z     vdW  Elec       q    Type
                         _______ _______ _______ _____ _____    ______ ____

>  <TORSDO>
F 19

$$$$
=
 OpenBabel10232412143D

 68 74  0  0  1  0  0  0  0  0999 V2000
  188.2290  179.1830  141.5130 C   0  0  0  0  0  2  0  0  0  0  0  0
  191.0660  175.7530  143.4810 C   0  0  0  0  0  3  0  0  0  0  0  0
  190.2180  178.4820  142.6950 C   0  0  0  0  0  0  0  0  0  0  0  0
  189.6780  175.4380  143.0390 C   0  0  0  0  0  3  0  0  0  0  0  0
  191.4650  178.1830  142.8350 C   0  0  0  0  0  3  0  0  0  0  0  0
  188.9280  178.5540  142.6870 C   0  0  0  0  0  0  0  0  0  0  0  0
  191.8220  176.8690  143.3990 C   0  0  0  0  0  3  0  0  0  0  0  0
  188.2880  177.5270  143.5800 C   0  0  2  0  0  3  0  0  0  0  0  0
  188.5300  176.1370  143.0550 C   0  0  0  0  0  3  0  0  0  0  0  0
  184.5000  180.6110  143.6160 N   0  0  0  0  0  2  0  0  0  0  0  0
  186.2520  179.0450  143.5900 N   0  0  0  0  0  2  0  0  0  0  0  0
  184.9800  179.4970  144.0650 C   0  0  0  0  0  0  0  0  0  0  0  0
  186.0770  176.7940  144.2060 O   0  0  0  0  0  0  0  0  0  0  0  0
  186.8170  177.7510  143.8440 C   0  0  0  0  0  0  0  0  0  0  0  0
  184.2650  178.7870  145.1770 C   0  0  0  0  0  2  0  0  0  0  0  0
  182.4620  178.6140  143.5590 C   0  0  0  0  0  0  0  0  0  0  0  0
  182.8790  178.4100  144.7720 C   0  0  0  0  0  3  0  0  0  0  0  0
  182.0500  178.8070  142.3360 C   0  0  0  0  0  3  0  0  0  0  0  0
  182.8430  178.3140  141.1720 C   0  0  0  0  0  2  0  0  0  0  0  0
  182.0200  178.3780  139.8770 C   0  0  1  0  0  3  0  0  0  0  0  0
  180.8610  177.1690  137.9880 C   0  0  0  0  0  2  0  0  0  0  0  0
  183.0090  174.7980  136.8840 C   0  0  0  0  0  2  0  0  0  0  0  0
  180.8100  176.0150  136.9780 C   0  0  0  0  0  2  0  0  0  0  0  0
  183.7360  175.3710  138.1110 C   0  0  0  0  0  2  0  0  0  0  0  0
  183.3950  176.8450  138.3880 C   0  0  2  0  0  3  0  0  0  0  0  0
  181.9900  177.0750  139.0350 C   0  0  1  0  0  0  0  0  0  0  0  0
  182.8550  177.1240  135.8880 C   0  0  0  0  0  2  0  0  0  0  0  0
  181.6610  175.9290  139.9950 C   0  0  0  0  0  1  0  0  0  0  0  0
  182.1050  175.8120  136.1830 C   0  0  1  0  0  3  0  0  0  0  0  0
  183.6250  177.6700  137.1060 C   0  0  0  0  0  2  0  0  0  0  0  0
  180.7690  179.0100  140.0470 O   0  0  0  0  0  0  0  0  0  0  0  0
  180.9570  180.3420  139.8530 N   0  0  0  0  0  2  0  0  0  0  0  0
  181.1130  180.5480  138.4220 C   0  0  0  0  0  2  0  0  0  0  0  0
  181.5260  181.9840  138.1520 C   0  0  0  0  0  1  0  0  0  0  0  0
  188.9370  177.0080  137.8570 C   0  0  0  0  0  0  0  0  0  0  0  0
  187.6680  177.5470  138.1270 C   0  0  0  0  0  3  0  0  0  0  0  0
  189.7340  177.9140  139.9660 C   0  0  0  0  0  3  0  0  0  0  0  0
  188.4600  178.4220  140.2440 C   0  0  0  0  0  0  0  0  0  0  0  0
  186.1550  178.7590  139.5540 O   0  0  0  0  0  1  0  0  0  0  0  0
  187.4240  178.2420  139.3140 C   0  0  0  0  0  0  0  0  0  0  0  0
  189.9750  177.2280  138.7750 C   0  0  0  0  0  3  0  0  0  0  0  0
  190.6150  176.0760  136.2220 N   0  0  0  0  0  0  0  0  0  0  0  0
  189.3260  174.2500  135.4790 O   0  0  0  0  0  0  0  0  0  0  0  0
  190.5070  174.9910  135.2570 C   0  0  0  0  0  2  0  0  0  0  0  0
  188.4920  175.0520  136.2770 C   0  0  1  0  0  3  0  0  0  0  0  0
  189.2170  176.3510  136.5200 C   0  0  1  0  0  3  0  0  0  0  0  0
  191.2530  175.5270  137.3520 N   0  0  0  0  0  2  0  0  0  0  0  0
  192.6370  175.9700  137.3010 C   0  0  0  0  0  2  0  0  0  0  0  0
  193.5560  174.8470  137.7560 C   0  0  2  0  0  3  0  0  0  0  0  0
  194.7400  175.3890  138.2550 O   0  0  0  0  0  1  0  0  0  0  0  0
  193.8730  173.8640  136.6280 C   0  0  1  0  0  3  0  0  0  0  0  0
  195.3310  171.5090  136.6030 C   0  0  2  0  0  3  0  0  0  0  0  0
  194.4020  171.1350  135.4380 C   0  0  2  0  0  3  0  0  0  0  0  0
  193.1430  172.0110  135.3700 C   0  0  0  0  0  2  0  0  0  0  0  0
  195.6320  173.3210  136.6870 S   0  0  0  0  0  0  0  0  0  0  0  0
  192.9320  172.7410  136.6160 N   0  0  0  0  0  2  0  0  0  0  0  0
  194.0280  169.7920  135.5430 O   0  0  0  0  0  1  0  0  0  0  0  0
  196.6380  169.5970  137.5980 C   0  0  0  0  0  2  0  0  0  0  0  0
  200.1700  168.4480  139.2220 O   0  0  0  0  0  0  0  0  0  0  0  0
  199.1520  170.7920  136.6280 C   0  0  0  0  0  2  0  0  0  0  0  0
  197.9270  168.7870  137.5160 C   0  0  0  0  0  2  0  0  0  0  0  0
  199.0730  169.6850  137.5710 N   0  0  0  0  0  0  0  0  0  0  0  0
  196.6390  170.7130  136.5460 C   0  0  0  0  0  3  0  0  0  0  0  0
  197.8710  171.6170  136.7000 C   0  0  0  0  0  2  0  0  0  0  0  0
  200.1970  169.4020  138.4020 C   0  0  0  0  0  3  0  0  0  0  0  0
  187.1770  175.3190  135.5520 C   0  0  0  0  0  2  0  0  0  0  0  0
  186.2290  177.3590  134.6340 N   0  0  0  0  0  1  0  0  0  0  0  0
  187.3430  176.4340  134.5370 C   0  0  0  0  0  2  0  0  0  0  0  0
  1  6  1  0  0  0  0
  3  5  2  0  0  0  0
  4  9  2  0  0  0  0
  4  2  1  0  0  0  0
  5  7  1  0  0  0  0
  6  3  2  0  0  0  0
  6  8  1  0  0  0  0
  7  2  2  0  0  0  0
  8 14  1  6  0  0  0
  9  8  1  0  0  0  0
 10 12  2  0  0  0  0
 11 14  1  0  0  0  0
 11 12  1  0  0  0  0
 12 15  1  0  0  0  0
 14 13  2  0  0  0  0
 16 17  2  0  0  0  0
 17 15  1  0  0  0  0
 18 16  2  0  0  0  0
 19 18  1  0  0  0  0
 20 31  1  0  0  0  0
 20 19  1  1  0  0  0
 21 26  1  0  0  0  0
 22 24  1  0  0  0  0
 23 21  1  0  0  0  0
 24 25  1  0  0  0  0
 25 30  1  6  0  0  0
 25 26  1  0  0  0  0
 26 20  1  0  0  0  0
 26 28  1  1  0  0  0
 27 30  1  0  0  0  0
 29 27  1  1  0  0  0
 29 22  1  0  0  0  0
 29 23  1  0  0  0  0
 32 31  1  0  0  0  0
 33 32  1  0  0  0  0
 34 33  1  0  0  0  0
 35 36  2  0  0  0  0
 35 41  1  0  0  0  0
 36 40  1  0  0  0  0
 37 38  1  0  0  0  0
 38  1  1  0  0  0  0
 40 39  1  0  0  0  0
 40 38  2  0  0  0  0
 41 37  2  0  0  0  0
 42 46  1  0  0  0  0
 42 47  1  0  0  0  0
 43 45  1  0  0  0  0
 44 43  1  0  0  0  0
 44 42  1  0  0  0  0
 45 66  1  6  0  0  0
 45 46  1  0  0  0  0
 46 35  1  1  0  0  0
 48 47  1  0  0  0  0
 48 49  1  0  0  0  0
 49 50  1  6  0  0  0
 51 55  1  0  0  0  0
 51 49  1  1  0  0  0
 52 63  1  6  0  0  0
 52 55  1  0  0  0  0
 53 57  1  1  0  0  0
 53 52  1  0  0  0  0
 54 53  1  0  0  0  0
 54 56  1  0  0  0  0
 56 51  1  0  0  0  0
 60 64  1  0  0  0  0
 60 62  1  0  0  0  0
 61 62  1  0  0  0  0
 61 58  1  0  0  0  0
 62 65  1  0  0  0  0
 63 64  1  0  0  0  0
 63 58  1  0  0  0  0
 65 59  2  0  0  0  0
 68 67  1  0  0  0  0
 68 66  1  0  0  0  0
M  END
>  <MODEL>
3

>  <REMARK>
 VINA RESULT:      -6.2      2.106      2.849
  Name = 
  19 active torsions:
  status: ('A' for Active; 'I' for Inactive)
    1  A    between atoms: C_1  and  C_26
    2  A    between atoms: C_1  and  C_61
    3  A    between atoms: N_2  and  N_19
    4  A    between atoms: C_7  and  C_45
    5  A    between atoms: C_11  and  C_52
    6  A    between atoms: N_12  and  C_32
    7  A    between atoms: N_12  and  O_59
    8  A    between atoms: C_13  and  C_41
    9  A    between atoms: C_13  and  C_62
   10  A    between atoms: C_17  and  C_53
   11  A    between atoms: N_19  and  C_38
   12  A    between atoms: C_20  and  C_26
   13  A    between atoms: C_22  and  C_30
   14  A    between atoms: C_22  and  C_56
   15  A    between atoms: C_24  and  C_44
   16  A    between atoms: C_24  and  C_49
   17  A    between atoms: C_26  and  O_59
   18  A    between atoms: C_38  and  C_45
   19  A    between atoms: C_63  and  C_64
                            x       y       z     vdW  Elec       q    Type
                         _______ _______ _______ _____ _____    ______ ____

>  <TORSDO>
F 19

$$$$
=
 OpenBabel10232412143D

 68 74  0  0  1  0  0  0  0  0999 V2000
  189.0670  178.2370  137.8130 C   0  0  0  0  0  2  0  0  0  0  0  0
  193.3240  176.5720  139.4840 C   0  0  0  0  0  3  0  0  0  0  0  0
  190.5140  177.5090  139.6070 C   0  0  0  0  0  0  0  0  0  0  0  0
  193.0320  176.5970  138.0220 C   0  0  0  0  0  3  0  0  0  0  0  0
  191.3110  177.6480  140.6120 C   0  0  0  0  0  3  0  0  0  0  0  0
  189.9020  177.2000  138.5120 C   0  0  0  0  0  0  0  0  0  0  0  0
  192.6370  177.0060  140.5630 C   0  0  0  0  0  3  0  0  0  0  0  0
  190.5360  176.0330  137.8060 C   0  0  2  0  0  3  0  0  0  0  0  0
  191.9110  176.3930  137.3090 C   0  0  0  0  0  3  0  0  0  0  0  0
  187.0800  172.8590  136.4500 N   0  0  0  0  0  2  0  0  0  0  0  0
  188.7210  174.4450  137.0140 N   0  0  0  0  0  2  0  0  0  0  0  0
  188.0810  173.5840  136.0660 C   0  0  0  0  0  0  0  0  0  0  0  0
  189.8110  175.8700  135.5120 O   0  0  0  0  0  0  0  0  0  0  0  0
  189.7030  175.4410  136.6940 C   0  0  0  0  0  0  0  0  0  0  0  0
  188.6350  173.3940  134.6850 C   0  0  0  0  0  2  0  0  0  0  0  0
  190.5010  171.8460  134.5470 C   0  0  0  0  0  0  0  0  0  0  0  0
  189.2160  172.0290  134.5200 C   0  0  0  0  0  3  0  0  0  0  0  0
  191.7930  171.6630  134.5880 C   0  0  0  0  0  3  0  0  0  0  0  0
  192.6090  172.1970  135.7180 C   0  0  0  0  0  2  0  0  0  0  0  0
  193.9150  171.4050  135.8780 C   0  0  1  0  0  3  0  0  0  0  0  0
  194.8580  173.7430  135.7390 C   0  0  0  0  0  2  0  0  0  0  0  0
  197.9000  173.6560  137.2210 C   0  0  0  0  0  2  0  0  0  0  0  0
  196.0260  174.7210  135.9250 C   0  0  0  0  0  2  0  0  0  0  0  0
  197.4780  172.1780  137.2230 C   0  0  0  0  0  2  0  0  0  0  0  0
  195.9540  171.9790  137.2810 C   0  0  2  0  0  3  0  0  0  0  0  0
  195.2120  172.2530  135.9320 C   0  0  1  0  0  0  0  0  0  0  0  0
  195.7630  174.2690  138.4400 C   0  0  0  0  0  2  0  0  0  0  0  0
  196.0860  171.8120  134.7540 C   0  0  0  0  0  1  0  0  0  0  0  0
  196.7210  174.6260  137.2880 C   0  0  1  0  0  3  0  0  0  0  0  0
  195.3820  172.7760  138.4710 C   0  0  0  0  0  2  0  0  0  0  0  0
  193.8270  170.3830  136.8470 O   0  0  0  0  0  0  0  0  0  0  0  0
  193.5380  169.2270  136.1930 N   0  0  0  0  0  2  0  0  0  0  0  0
  194.7650  168.4480  136.1390 C   0  0  0  0  0  2  0  0  0  0  0  0
  195.1670  168.0260  137.5420 C   0  0  0  0  0  1  0  0  0  0  0  0
  184.9020  178.0260  138.9140 C   0  0  0  0  0  0  0  0  0  0  0  0
  185.8240  178.6800  139.7480 C   0  0  0  0  0  3  0  0  0  0  0  0
  186.7060  177.5380  137.3600 C   0  0  0  0  0  3  0  0  0  0  0  0
  187.6240  178.1630  138.2110 C   0  0  0  0  0  0  0  0  0  0  0  0
  188.0660  179.3920  140.2590 O   0  0  0  0  0  1  0  0  0  0  0  0
  187.1770  178.7430  139.4080 C   0  0  0  0  0  0  0  0  0  0  0  0
  185.3530  177.4860  137.7000 C   0  0  0  0  0  3  0  0  0  0  0  0
  183.0600  177.7000  140.6040 N   0  0  0  0  0  0  0  0  0  0  0  0
  181.7130  179.5120  139.9310 O   0  0  0  0  0  0  0  0  0  0  0  0
  181.7740  178.3680  140.7570 C   0  0  0  0  0  2  0  0  0  0  0  0
  182.7340  179.3730  138.9750 C   0  0  1  0  0  3  0  0  0  0  0  0
  183.4220  178.0590  139.2400 C   0  0  1  0  0  3  0  0  0  0  0  0
  183.9310  178.3220  141.5170 N   0  0  0  0  0  2  0  0  0  0  0  0
  183.4090  178.0400  142.8450 C   0  0  0  0  0  2  0  0  0  0  0  0
  184.4030  178.5020  143.9000 C   0  0  2  0  0  3  0  0  0  0  0  0
  184.1320  179.8260  144.2450 O   0  0  0  0  0  1  0  0  0  0  0  0
  185.8530  178.3780  143.4250 C   0  0  1  0  0  3  0  0  0  0  0  0
  188.1310  177.4660  144.7070 C   0  0  2  0  0  3  0  0  0  0  0  0
  188.5920  177.1080  143.2870 C   0  0  2  0  0  3  0  0  0  0  0  0
  187.4410  177.0750  142.2720 C   0  0  0  0  0  2  0  0  0  0  0  0
  187.0330  178.9400  144.7220 S   0  0  0  0  0  0  0  0  0  0  0  0
  186.1430  177.0270  142.9390 N   0  0  0  0  0  2  0  0  0  0  0  0
  189.2370  175.8670  143.2960 O   0  0  0  0  0  1  0  0  0  0  0  0
  190.5530  176.8910  145.1060 C   0  0  0  0  0  2  0  0  0  0  0  0
  193.2420  175.3730  147.7320 O   0  0  0  0  0  0  0  0  0  0  0  0
  190.2050  177.3660  147.9940 C   0  0  0  0  0  2  0  0  0  0  0  0
  191.7490  177.0860  146.0320 C   0  0  0  0  0  2  0  0  0  0  0  0
  191.3730  176.7340  147.3950 N   0  0  0  0  0  0  0  0  0  0  0  0
  189.3260  177.6310  145.6520 C   0  0  0  0  0  3  0  0  0  0  0  0
  188.9970  177.1770  147.0810 C   0  0  0  0  0  2  0  0  0  0  0  0
  192.2190  175.9270  148.2120 C   0  0  0  0  0  3  0  0  0  0  0  0
  182.1370  179.3730  137.5710 C   0  0  0  0  0  2  0  0  0  0  0  0
  180.9770  177.4440  136.6570 N   0  0  0  0  0  1  0  0  0  0  0  0
  180.8410  178.5850  137.5420 C   0  0  0  0  0  2  0  0  0  0  0  0
  1 38  1  0  0  0  0
  1  6  1  0  0  0  0
  2  7  2  0  0  0  0
  3  5  2  0  0  0  0
  4  2  1  0  0  0  0
  6  3  2  0  0  0  0
  7  5  1  0  0  0  0
  8 14  1  6  0  0  0
  8  6  1  0  0  0  0
  9  8  1  0  0  0  0
  9  4  2  0  0  0  0
 12 10  2  0  0  0  0
 12 11  1  0  0  0  0
 13 14  2  0  0  0  0
 14 11  1  0  0  0  0
 15 12  1  0  0  0  0
 16 18  2  0  0  0  0
 17 16  2  0  0  0  0
 17 15  1  0  0  0  0
 18 19  1  0  0  0  0
 20 19  1  1  0  0  0
 20 26  1  0  0  0  0
 20 31  1  0  0  0  0
 21 23  1  0  0  0  0
 21 26  1  0  0  0  0
 22 24  1  0  0  0  0
 22 29  1  0  0  0  0
 25 24  1  6  0  0  0
 25 30  1  0  0  0  0
 26 28  1  6  0  0  0
 26 25  1  0  0  0  0
 27 30  1  0  0  0  0
 29 23  1  6  0  0  0
 29 27  1  0  0  0  0
 32 31  1  0  0  0  0
 33 32  1  0  0  0  0
 33 34  1  0  0  0  0
 35 36  1  0  0  0  0
 37 41  1  0  0  0  0
 37 38  2  0  0  0  0
 38 40  1  0  0  0  0
 40 36  2  0  0  0  0
 40 39  1  0  0  0  0
 41 35  2  0  0  0  0
 42 44  1  0  0  0  0
 42 47  1  0  0  0  0
 43 44  1  0  0  0  0
 45 66  1  6  0  0  0
 45 46  1  0  0  0  0
 45 43  1  0  0  0  0
 46 35  1  1  0  0  0
 46 42  1  0  0  0  0
 47 48  1  0  0  0  0
 48 49  1  0  0  0  0
 49 50  1  6  0  0  0
 51 49  1  1  0  0  0
 51 55  1  0  0  0  0
 52 55  1  0  0  0  0
 52 63  1  1  0  0  0
 53 57  1  1  0  0  0
 53 52  1  0  0  0  0
 54 56  1  0  0  0  0
 54 53  1  0  0  0  0
 56 51  1  0  0  0  0
 58 63  1  0  0  0  0
 58 61  1  0  0  0  0
 59 65  2  0  0  0  0
 61 62  1  0  0  0  0
 62 60  1  0  0  0  0
 62 65  1  0  0  0  0
 63 64  1  0  0  0  0
 64 60  1  0  0  0  0
 67 68  1  0  0  0  0
 68 66  1  0  0  0  0
M  END
>  <MODEL>
4

>  <REMARK>
 VINA RESULT:      -6.0      2.825     11.656
  Name = 
  19 active torsions:
  status: ('A' for Active; 'I' for Inactive)
    1  A    between atoms: C_1  and  C_26
    2  A    between atoms: C_1  and  C_61
    3  A    between atoms: N_2  and  N_19
    4  A    between atoms: C_7  and  C_45
    5  A    between atoms: C_11  and  C_52
    6  A    between atoms: N_12  and  C_32
    7  A    between atoms: N_12  and  O_59
    8  A    between atoms: C_13  and  C_41
    9  A    between atoms: C_13  and  C_62
   10  A    between atoms: C_17  and  C_53
   11  A    between atoms: N_19  and  C_38
   12  A    between atoms: C_20  and  C_26
   13  A    between atoms: C_22  and  C_30
   14  A    between atoms: C_22  and  C_56
   15  A    between atoms: C_24  and  C_44
   16  A    between atoms: C_24  and  C_49
   17  A    between atoms: C_26  and  O_59
   18  A    between atoms: C_38  and  C_45
   19  A    between atoms: C_63  and  C_64
                            x       y       z     vdW  Elec       q    Type
                         _______ _______ _______ _____ _____    ______ ____

>  <TORSDO>
F 19

$$$$
=
 OpenBabel10232412143D

 68 74  0  0  1  0  0  0  0  0999 V2000
  189.0440  177.4530  136.8400 C   0  0  0  0  0  2  0  0  0  0  0  0
  186.2400  173.4770  136.7220 C   0  0  0  0  0  3  0  0  0  0  0  0
  187.0840  176.2490  136.0970 C   0  0  0  0  0  0  0  0  0  0  0  0
  187.6140  173.4290  137.3000 C   0  0  0  0  0  3  0  0  0  0  0  0
  185.8390  175.9090  136.0880 C   0  0  0  0  0  3  0  0  0  0  0  0
  188.3740  176.3260  136.1050 C   0  0  0  0  0  0  0  0  0  0  0  0
  185.4900  174.4850  136.2280 C   0  0  0  0  0  3  0  0  0  0  0  0
  189.0320  174.9980  135.8450 C   0  0  2  0  0  3  0  0  0  0  0  0
  188.7660  174.0410  136.9750 C   0  0  0  0  0  3  0  0  0  0  0  0
  193.1620  172.6580  134.6930 N   0  0  0  0  0  2  0  0  0  0  0  0
  191.2170  173.8750  135.2060 N   0  0  0  0  0  2  0  0  0  0  0  0
  192.6420  173.7310  135.1960 C   0  0  0  0  0  0  0  0  0  0  0  0
  191.1020  176.1910  135.5160 O   0  0  0  0  0  0  0  0  0  0  0  0
  190.5100  175.0760  135.5450 C   0  0  0  0  0  0  0  0  0  0  0  0
  193.5310  174.7220  135.8860 C   0  0  0  0  0  2  0  0  0  0  0  0
  195.7530  175.5250  135.3230 C   0  0  0  0  0  0  0  0  0  0  0  0
  194.5330  175.2970  134.9410 C   0  0  0  0  0  3  0  0  0  0  0  0
  196.9820  175.7410  135.7060 C   0  0  0  0  0  3  0  0  0  0  0  0
  197.7810  174.6670  136.3660 C   0  0  0  0  0  2  0  0  0  0  0  0
  196.8760  173.7240  137.1740 C   0  0  1  0  0  3  0  0  0  0  0  0
  196.5730  172.1520  135.2220 C   0  0  0  0  0  2  0  0  0  0  0  0
  198.1140  169.2560  136.0530 C   0  0  0  0  0  2  0  0  0  0  0  0
  196.7030  170.7530  134.6060 C   0  0  0  0  0  2  0  0  0  0  0  0
  198.2240  170.0830  137.3430 C   0  0  0  0  0  2  0  0  0  0  0  0
  198.2690  171.5990  137.0940 C   0  0  2  0  0  3  0  0  0  0  0  0
  196.8880  172.2380  136.7290 C   0  0  1  0  0  0  0  0  0  0  0  0
  199.2400  171.1230  134.7600 C   0  0  0  0  0  2  0  0  0  0  0  0
  195.7660  171.5320  137.4950 C   0  0  0  0  0  1  0  0  0  0  0  0
  198.0820  170.1080  134.7850 C   0  0  1  0  0  3  0  0  0  0  0  0
  199.3810  171.9150  136.0740 C   0  0  0  0  0  2  0  0  0  0  0  0
  196.9620  173.9330  138.5670 O   0  0  0  0  0  0  0  0  0  0  0  0
  197.5120  175.1610  138.7600 N   0  0  0  0  0  2  0  0  0  0  0  0
  198.4750  175.0330  139.8420 C   0  0  0  0  0  2  0  0  0  0  0  0
  197.8290  175.4430  141.1550 C   0  0  0  0  0  1  0  0  0  0  0  0
  187.1190  178.3260  140.5990 C   0  0  0  0  0  0  0  0  0  0  0  0
  188.4270  177.8140  140.5740 C   0  0  0  0  0  3  0  0  0  0  0  0
  187.0920  178.2830  138.1690 C   0  0  0  0  0  3  0  0  0  0  0  0
  188.3830  177.7440  138.1520 C   0  0  0  0  0  0  0  0  0  0  0  0
  190.3490  177.0040  139.3720 O   0  0  0  0  0  1  0  0  0  0  0  0
  189.0550  177.5150  139.3630 C   0  0  0  0  0  0  0  0  0  0  0  0
  186.4720  178.5890  139.3820 C   0  0  0  0  0  3  0  0  0  0  0  0
  185.3730  179.6750  141.8190 N   0  0  0  0  0  0  0  0  0  0  0  0
  184.8780  178.0870  143.4860 O   0  0  0  0  0  0  0  0  0  0  0  0
  184.6640  179.4180  143.0650 C   0  0  0  0  0  2  0  0  0  0  0  0
  186.0010  177.6170  142.7830 C   0  0  1  0  0  3  0  0  0  0  0  0
  186.4900  178.7470  141.9130 C   0  0  1  0  0  3  0  0  0  0  0  0
  184.4990  179.2810  140.7870 N   0  0  0  0  0  2  0  0  0  0  0  0
  183.2390  178.9330  141.4230 C   0  0  0  0  0  2  0  0  0  0  0  0
  182.7670  177.5750  140.9250 C   0  0  2  0  0  3  0  0  0  0  0  0
  183.7970  176.9570  140.2160 O   0  0  0  0  0  1  0  0  0  0  0  0
  181.5230  177.6810  140.0410 C   0  0  1  0  0  3  0  0  0  0  0  0
  180.8190  179.5000  138.0750 C   0  0  2  0  0  3  0  0  0  0  0  0
  180.0100  178.3270  137.5040 C   0  0  2  0  0  3  0  0  0  0  0  0
  180.4410  176.9680  138.0740 C   0  0  0  0  0  2  0  0  0  0  0  0
  180.9410  179.4240  139.9090 S   0  0  0  0  0  0  0  0  0  0  0  0
  181.7390  177.0530  138.7360 N   0  0  0  0  0  2  0  0  0  0  0  0
  180.1280  178.3040  136.1110 O   0  0  0  0  0  1  0  0  0  0  0  0
  180.7780  181.1710  136.1880 C   0  0  0  0  0  2  0  0  0  0  0  0
  181.2780  185.0580  135.1510 O   0  0  0  0  0  0  0  0  0  0  0  0
  179.9940  183.3000  138.0700 C   0  0  0  0  0  2  0  0  0  0  0  0
  180.1950  182.4920  135.7000 C   0  0  0  0  0  2  0  0  0  0  0  0
  180.4270  183.5270  136.6980 N   0  0  0  0  0  0  0  0  0  0  0  0
  180.2610  180.8440  137.5940 C   0  0  0  0  0  3  0  0  0  0  0  0
  180.5730  181.9820  138.5770 C   0  0  0  0  0  2  0  0  0  0  0  0
  180.9030  184.8200  136.3280 C   0  0  0  0  0  3  0  0  0  0  0  0
  187.0940  177.2050  143.7620 C   0  0  0  0  0  2  0  0  0  0  0  0
  188.3180  178.0920  145.6640 N   0  0  0  0  0  1  0  0  0  0  0  0
  187.0140  178.0310  145.0320 C   0  0  0  0  0  2  0  0  0  0  0  0
  1 38  1  0  0  0  0
  2  4  1  0  0  0  0
  3  6  2  0  0  0  0
  5  3  2  0  0  0  0
  5  7  1  0  0  0  0
  6  1  1  0  0  0  0
  7  2  2  0  0  0  0
  8 14  1  1  0  0  0
  8  6  1  0  0  0  0
  8  9  1  0  0  0  0
  9  4  2  0  0  0  0
 10 12  2  0  0  0  0
 11 14  1  0  0  0  0
 12 11  1  0  0  0  0
 12 15  1  0  0  0  0
 13 14  2  0  0  0  0
 16 18  2  0  0  0  0
 17 16  2  0  0  0  0
 17 15  1  0  0  0  0
 18 19  1  0  0  0  0
 20 19  1  6  0  0  0
 20 31  1  0  0  0  0
 21 26  1  0  0  0  0
 22 24  1  0  0  0  0
 23 21  1  0  0  0  0
 25 30  1  6  0  0  0
 25 24  1  0  0  0  0
 26 25  1  0  0  0  0
 26 20  1  0  0  0  0
 26 28  1  1  0  0  0
 27 29  1  0  0  0  0
 27 30  1  0  0  0  0
 29 23  1  1  0  0  0
 29 22  1  0  0  0  0
 31 32  1  0  0  0  0
 32 33  1  0  0  0  0
 33 34  1  0  0  0  0
 36 35  1  0  0  0  0
 37 41  1  0  0  0  0
 38 37  2  0  0  0  0
 38 40  1  0  0  0  0
 40 39  1  0  0  0  0
 40 36  2  0  0  0  0
 41 35  2  0  0  0  0
 42 46  1  0  0  0  0
 42 44  1  0  0  0  0
 44 43  1  0  0  0  0
 45 43  1  0  0  0  0
 45 66  1  1  0  0  0
 46 35  1  6  0  0  0
 46 45  1  0  0  0  0
 47 48  1  0  0  0  0
 47 42  1  0  0  0  0
 49 50  1  6  0  0  0
 49 48  1  0  0  0  0
 51 49  1  1  0  0  0
 52 63  1  1  0  0  0
 52 55  1  0  0  0  0
 53 57  1  6  0  0  0
 53 54  1  0  0  0  0
 53 52  1  0  0  0  0
 54 56  1  0  0  0  0
 55 51  1  0  0  0  0
 56 51  1  0  0  0  0
 58 63  1  0  0  0  0
 59 65  2  0  0  0  0
 60 64  1  0  0  0  0
 61 58  1  0  0  0  0
 61 62  1  0  0  0  0
 62 60  1  0  0  0  0
 63 64  1  0  0  0  0
 65 62  1  0  0  0  0
 66 68  1  0  0  0  0
 68 67  1  0  0  0  0
M  END
>  <MODEL>
5

>  <REMARK>
 VINA RESULT:      -5.9      2.995     13.904
  Name = 
  19 active torsions:
  status: ('A' for Active; 'I' for Inactive)
    1  A    between atoms: C_1  and  C_26
    2  A    between atoms: C_1  and  C_61
    3  A    between atoms: N_2  and  N_19
    4  A    between atoms: C_7  and  C_45
    5  A    between atoms: C_11  and  C_52
    6  A    between atoms: N_12  and  C_32
    7  A    between atoms: N_12  and  O_59
    8  A    between atoms: C_13  and  C_41
    9  A    between atoms: C_13  and  C_62
   10  A    between atoms: C_17  and  C_53
   11  A    between atoms: N_19  and  C_38
   12  A    between atoms: C_20  and  C_26
   13  A    between atoms: C_22  and  C_30
   14  A    between atoms: C_22  and  C_56
   15  A    between atoms: C_24  and  C_44
   16  A    between atoms: C_24  and  C_49
   17  A    between atoms: C_26  and  O_59
   18  A    between atoms: C_38  and  C_45
   19  A    between atoms: C_63  and  C_64
                            x       y       z     vdW  Elec       q    Type
                         _______ _______ _______ _____ _____    ______ ____

>  <TORSDO>
F 19

$$$$
=
 OpenBabel10232412143D

 68 74  0  0  1  0  0  0  0  0999 V2000
  189.2030  178.8010  140.7840 C   0  0  0  0  0  2  0  0  0  0  0  0
  190.9860  175.1380  143.4460 C   0  0  0  0  0  3  0  0  0  0  0  0
  190.8930  177.8330  142.2150 C   0  0  0  0  0  0  0  0  0  0  0  0
  189.5850  175.1040  142.9380 C   0  0  0  0  0  3  0  0  0  0  0  0
  192.0160  177.2650  142.4990 C   0  0  0  0  0  3  0  0  0  0  0  0
  189.6650  178.2140  142.0880 C   0  0  0  0  0  0  0  0  0  0  0  0
  192.0030  176.0090  143.2700 C   0  0  0  0  0  3  0  0  0  0  0  0
  188.7460  177.5270  143.0600 C   0  0  2  0  0  3  0  0  0  0  0  0
  188.6520  176.0550  142.7580 C   0  0  0  0  0  3  0  0  0  0  0  0
  184.8450  178.5180  145.8290 N   0  0  0  0  0  2  0  0  0  0  0  0
  186.6930  178.1230  144.4320 N   0  0  0  0  0  2  0  0  0  0  0  0
  185.2980  178.3780  144.6250 C   0  0  0  0  0  0  0  0  0  0  0  0
  186.8510  178.7310  142.1770 O   0  0  0  0  0  0  0  0  0  0  0  0
  187.3690  178.1400  143.1660 C   0  0  0  0  0  0  0  0  0  0  0  0
  184.3310  178.3400  143.4780 C   0  0  0  0  0  2  0  0  0  0  0  0
  182.1250  179.2030  142.9440 C   0  0  0  0  0  0  0  0  0  0  0  0
  183.0350  178.9840  143.8440 C   0  0  0  0  0  3  0  0  0  0  0  0
  181.2070  179.4110  142.0400 C   0  0  0  0  0  3  0  0  0  0  0  0
  180.7470  178.3080  141.1460 C   0  0  0  0  0  2  0  0  0  0  0  0
  181.1380  178.5820  139.6860 C   0  0  1  0  0  3  0  0  0  0  0  0
  181.8310  176.2000  139.2200 C   0  0  0  0  0  2  0  0  0  0  0  0
  184.2500  176.3330  136.8560 C   0  0  0  0  0  2  0  0  0  0  0  0
  182.7760  175.1950  138.5470 C   0  0  0  0  0  2  0  0  0  0  0  0
  184.0030  177.8150  137.1740 C   0  0  0  0  0  2  0  0  0  0  0  0
  182.5660  178.1090  137.6380 C   0  0  2  0  0  3  0  0  0  0  0  0
  182.2590  177.6780  139.1100 C   0  0  1  0  0  0  0  0  0  0  0  0
  181.7880  176.0340  136.3290 C   0  0  0  0  0  2  0  0  0  0  0  0
  183.4970  177.8860  139.9860 C   0  0  0  0  0  1  0  0  0  0  0  0
  183.0150  175.4530  137.0550 C   0  0  1  0  0  3  0  0  0  0  0  0
  181.5710  177.5350  136.6080 C   0  0  0  0  0  2  0  0  0  0  0  0
  180.0230  178.7660  138.8400 O   0  0  0  0  0  0  0  0  0  0  0  0
  180.1930  179.9510  138.1960 N   0  0  0  0  0  2  0  0  0  0  0  0
  180.6060  180.9250  139.1940 C   0  0  0  0  0  2  0  0  0  0  0  0
  181.7140  181.7990  138.6320 C   0  0  0  0  0  1  0  0  0  0  0  0
  188.8490  175.8130  137.6940 C   0  0  0  0  0  0  0  0  0  0  0  0
  187.7910  176.7040  137.9440 C   0  0  0  0  0  3  0  0  0  0  0  0
  190.1330  176.8980  139.4490 C   0  0  0  0  0  3  0  0  0  0  0  0
  189.0650  177.7620  139.7130 C   0  0  0  0  0  0  0  0  0  0  0  0
  186.8230  178.5300  139.1760 O   0  0  0  0  0  1  0  0  0  0  0  0
  187.8910  177.6670  138.9500 C   0  0  0  0  0  0  0  0  0  0  0  0
  190.0330  175.9430  138.4360 C   0  0  0  0  0  3  0  0  0  0  0  0
  190.0120  174.6190  135.8030 N   0  0  0  0  0  0  0  0  0  0  0  0
  188.8910  172.5580  136.0140 O   0  0  0  0  0  0  0  0  0  0  0  0
  189.7780  173.3090  135.2110 C   0  0  0  0  0  2  0  0  0  0  0  0
  188.2480  173.4730  136.8670 C   0  0  1  0  0  3  0  0  0  0  0  0
  188.7710  174.8450  136.5290 C   0  0  1  0  0  3  0  0  0  0  0  0
  191.0800  174.4510  136.7050 N   0  0  0  0  0  2  0  0  0  0  0  0
  192.2920  174.8060  135.9830 C   0  0  0  0  0  2  0  0  0  0  0  0
  193.0590  173.5460  135.6110 C   0  0  2  0  0  3  0  0  0  0  0  0
  192.7790  172.5420  136.5380 O   0  0  0  0  0  1  0  0  0  0  0  0
  194.5690  173.7840  135.5480 C   0  0  1  0  0  3  0  0  0  0  0  0
  196.4670  174.0670  137.5440 C   0  0  2  0  0  3  0  0  0  0  0  0
  197.4290  173.5060  136.4860 C   0  0  2  0  0  3  0  0  0  0  0  0
  196.7050  172.8170  135.3210 C   0  0  0  0  0  2  0  0  0  0  0  0
  195.1030  175.0390  136.7850 S   0  0  0  0  0  0  0  0  0  0  0  0
  195.3140  172.5270  135.6540 N   0  0  0  0  0  2  0  0  0  0  0  0
  198.3140  172.6020  137.0820 O   0  0  0  0  0  1  0  0  0  0  0  0
  198.5870  174.2370  138.8960 C   0  0  0  0  0  2  0  0  0  0  0  0
  200.1620  174.6120  142.6130 O   0  0  0  0  0  0  0  0  0  0  0  0
  197.1800  175.8460  140.9260 C   0  0  0  0  0  2  0  0  0  0  0  0
  199.3480  175.0590  139.9310 C   0  0  0  0  0  2  0  0  0  0  0  0
  198.5060  175.2710  141.1010 N   0  0  0  0  0  0  0  0  0  0  0  0
  197.2220  174.8720  138.6070 C   0  0  0  0  0  3  0  0  0  0  0  0
  196.4020  175.0320  139.8960 C   0  0  0  0  0  2  0  0  0  0  0  0
  199.0160  175.0970  142.4220 C   0  0  0  0  0  3  0  0  0  0  0  0
  186.7400  173.4230  136.6430 C   0  0  0  0  0  2  0  0  0  0  0  0
  185.1980  173.4480  134.7660 N   0  0  0  0  0  1  0  0  0  0  0  0
  186.3730  174.0870  135.3290 C   0  0  0  0  0  2  0  0  0  0  0  0
  1  6  1  0  0  0  0
  3  5  2  0  0  0  0
  4  2  1  0  0  0  0
  5  7  1  0  0  0  0
  6  3  2  0  0  0  0
  6  8  1  0  0  0  0
  7  2  2  0  0  0  0
  8 14  1  6  0  0  0
  9  4  2  0  0  0  0
  9  8  1  0  0  0  0
 11 12  1  0  0  0  0
 12 10  2  0  0  0  0
 13 14  2  0  0  0  0
 14 11  1  0  0  0  0
 15 17  1  0  0  0  0
 15 12  1  0  0  0  0
 16 17  2  0  0  0  0
 18 16  2  0  0  0  0
 19 18  1  0  0  0  0
 20 19  1  1  0  0  0
 22 29  1  0  0  0  0
 22 24  1  0  0  0  0
 23 21  1  0  0  0  0
 24 25  1  0  0  0  0
 25 30  1  6  0  0  0
 25 26  1  0  0  0  0
 26 21  1  0  0  0  0
 26 20  1  0  0  0  0
 26 28  1  1  0  0  0
 27 30  1  0  0  0  0
 29 27  1  1  0  0  0
 29 23  1  0  0  0  0
 31 20  1  0  0  0  0
 32 31  1  0  0  0  0
 32 33  1  0  0  0  0
 34 33  1  0  0  0  0
 35 36  2  0  0  0  0
 35 41  1  0  0  0  0
 36 40  1  0  0  0  0
 37 38  1  0  0  0  0
 38  1  1  0  0  0  0
 40 39  1  0  0  0  0
 40 38  2  0  0  0  0
 41 37  2  0  0  0  0
 42 46  1  0  0  0  0
 42 47  1  0  0  0  0
 43 45  1  0  0  0  0
 44 42  1  0  0  0  0
 44 43  1  0  0  0  0
 45 66  1  6  0  0  0
 46 45  1  0  0  0  0
 46 35  1  1  0  0  0
 48 47  1  0  0  0  0
 49 48  1  0  0  0  0
 49 50  1  1  0  0  0
 51 49  1  1  0  0  0
 51 56  1  0  0  0  0
 51 55  1  0  0  0  0
 52 63  1  1  0  0  0
 53 57  1  1  0  0  0
 53 52  1  0  0  0  0
 54 56  1  0  0  0  0
 54 53  1  0  0  0  0
 55 52  1  0  0  0  0
 58 61  1  0  0  0  0
 60 62  1  0  0  0  0
 61 62  1  0  0  0  0
 62 65  1  0  0  0  0
 63 58  1  0  0  0  0
 63 64  1  0  0  0  0
 64 60  1  0  0  0  0
 65 59  2  0  0  0  0
 67 68  1  0  0  0  0
 68 66  1  0  0  0  0
M  END
>  <MODEL>
6

>  <REMARK>
 VINA RESULT:      -5.6      2.357      3.544
  Name = 
  19 active torsions:
  status: ('A' for Active; 'I' for Inactive)
    1  A    between atoms: C_1  and  C_26
    2  A    between atoms: C_1  and  C_61
    3  A    between atoms: N_2  and  N_19
    4  A    between atoms: C_7  and  C_45
    5  A    between atoms: C_11  and  C_52
    6  A    between atoms: N_12  and  C_32
    7  A    between atoms: N_12  and  O_59
    8  A    between atoms: C_13  and  C_41
    9  A    between atoms: C_13  and  C_62
   10  A    between atoms: C_17  and  C_53
   11  A    between atoms: N_19  and  C_38
   12  A    between atoms: C_20  and  C_26
   13  A    between atoms: C_22  and  C_30
   14  A    between atoms: C_22  and  C_56
   15  A    between atoms: C_24  and  C_44
   16  A    between atoms: C_24  and  C_49
   17  A    between atoms: C_26  and  O_59
   18  A    between atoms: C_38  and  C_45
   19  A    between atoms: C_63  and  C_64
                            x       y       z     vdW  Elec       q    Type
                         _______ _______ _______ _____ _____    ______ ____

>  <TORSDO>
F 19

$$$$
=
 OpenBabel10232412143D

 68 74  0  0  1  0  0  0  0  0999 V2000
  185.6920  177.2980  137.6890 C   0  0  0  0  0  2  0  0  0  0  0  0
  182.7130  174.4360  135.1160 C   0  0  0  0  0  3  0  0  0  0  0  0
  184.0010  176.9570  135.9960 C   0  0  0  0  0  0  0  0  0  0  0  0
  183.7870  173.8530  135.9700 C   0  0  0  0  0  3  0  0  0  0  0  0
  182.8100  176.9510  135.5010 C   0  0  0  0  0  3  0  0  0  0  0  0
  185.2080  176.7170  136.3890 C   0  0  0  0  0  0  0  0  0  0  0  0
  182.2890  175.7020  134.9160 C   0  0  0  0  0  3  0  0  0  0  0  0
  185.7760  175.4650  135.7780 C   0  0  2  0  0  3  0  0  0  0  0  0
  185.0360  174.2490  136.2680 C   0  0  0  0  0  3  0  0  0  0  0  0
  190.2790  177.1660  134.9450 N   0  0  0  0  0  2  0  0  0  0  0  0
  188.1510  176.2940  135.4320 N   0  0  0  0  0  2  0  0  0  0  0  0
  189.5620  176.1330  135.2530 C   0  0  0  0  0  0  0  0  0  0  0  0
  187.7250  174.3320  136.6340 O   0  0  0  0  0  0  0  0  0  0  0  0
  187.2660  175.2950  135.9600 C   0  0  0  0  0  0  0  0  0  0  0  0
  190.2010  174.7760  135.2670 C   0  0  0  0  0  2  0  0  0  0  0  0
  192.6230  174.5960  135.2310 C   0  0  0  0  0  0  0  0  0  0  0  0
  191.5220  174.7950  134.5710 C   0  0  0  0  0  3  0  0  0  0  0  0
  193.7270  174.3830  135.8920 C   0  0  0  0  0  3  0  0  0  0  0  0
  193.8750  173.1890  136.7760 C   0  0  0  0  0  2  0  0  0  0  0  0
  194.6810  172.0830  136.0780 C   0  0  1  0  0  3  0  0  0  0  0  0
  196.2800  173.4440  134.6760 C   0  0  0  0  0  2  0  0  0  0  0  0
  199.2000  173.5790  136.3820 C   0  0  0  0  0  2  0  0  0  0  0  0
  197.6940  173.9780  134.4080 C   0  0  0  0  0  2  0  0  0  0  0  0
  198.3530  172.6210  137.2330 C   0  0  0  0  0  2  0  0  0  0  0  0
  196.8430  172.8950  137.1400 C   0  0  2  0  0  3  0  0  0  0  0  0
  196.1750  172.4060  135.8130 C   0  0  1  0  0  0  0  0  0  0  0  0
  197.3870  175.3430  136.5630 C   0  0  0  0  0  2  0  0  0  0  0  0
  196.8370  171.1090  135.3400 C   0  0  0  0  0  1  0  0  0  0  0  0
  198.3710  174.6170  135.6260 C   0  0  1  0  0  3  0  0  0  0  0  0
  196.5750  174.3810  137.4520 C   0  0  0  0  0  2  0  0  0  0  0  0
  194.4310  170.7990  136.6070 O   0  0  0  0  0  0  0  0  0  0  0  0
  193.2570  170.3640  136.0790 N   0  0  0  0  0  2  0  0  0  0  0  0
  192.9450  169.0940  136.7160 C   0  0  0  0  0  2  0  0  0  0  0  0
  194.1840  168.5490  137.4060 C   0  0  0  0  0  1  0  0  0  0  0  0
  182.4150  178.2130  140.3390 C   0  0  0  0  0  0  0  0  0  0  0  0
  183.2940  179.2260  139.9220 C   0  0  0  0  0  3  0  0  0  0  0  0
  183.6730  176.6190  139.0030 C   0  0  0  0  0  3  0  0  0  0  0  0
  184.5630  177.6270  138.6160 C   0  0  0  0  0  0  0  0  0  0  0  0
  185.2220  179.9640  138.6840 O   0  0  0  0  0  1  0  0  0  0  0  0
  184.3660  178.9390  139.0740 C   0  0  0  0  0  0  0  0  0  0  0  0
  182.5970  176.9130  139.8430 C   0  0  0  0  0  3  0  0  0  0  0  0
  181.1540  177.9920  142.5110 N   0  0  0  0  0  0  0  0  0  0  0  0
  180.3440  180.2010  142.6130 O   0  0  0  0  0  0  0  0  0  0  0  0
  180.2670  178.9180  143.2000 C   0  0  0  0  0  2  0  0  0  0  0  0
  180.9320  180.0300  141.3480 C   0  0  1  0  0  3  0  0  0  0  0  0
  181.1950  178.5570  141.1700 C   0  0  1  0  0  3  0  0  0  0  0  0
  182.4110  178.1240  143.1320 N   0  0  0  0  0  2  0  0  0  0  0  0
  182.4650  179.4730  143.6730 C   0  0  0  0  0  2  0  0  0  0  0  0
  183.9030  179.8400  144.0050 C   0  0  2  0  0  3  0  0  0  0  0  0
  184.5840  180.1590  142.8290 O   0  0  0  0  0  1  0  0  0  0  0  0
  184.6360  178.7130  144.7360 C   0  0  1  0  0  3  0  0  0  0  0  0
  187.3280  178.0930  144.9220 C   0  0  2  0  0  3  0  0  0  0  0  0
  186.9280  177.4770  146.2710 C   0  0  2  0  0  3  0  0  0  0  0  0
  185.5580  177.9590  146.7680 C   0  0  0  0  0  2  0  0  0  0  0  0
  185.9680  177.9900  143.6890 S   0  0  0  0  0  0  0  0  0  0  0  0
  185.1180  179.1500  146.0480 N   0  0  0  0  0  2  0  0  0  0  0  0
  187.9000  177.7710  147.2330 O   0  0  0  0  0  1  0  0  0  0  0  0
  189.5520  178.5610  143.8320 C   0  0  0  0  0  2  0  0  0  0  0  0
  192.0500  177.6070  140.7850 O   0  0  0  0  0  0  0  0  0  0  0  0
  189.6760  175.7820  142.8580 C   0  0  0  0  0  2  0  0  0  0  0  0
  190.8570  177.9460  143.3380 C   0  0  0  0  0  2  0  0  0  0  0  0
  190.5650  176.8500  142.4230 N   0  0  0  0  0  0  0  0  0  0  0  0
  188.6280  177.4750  144.3950 C   0  0  0  0  0  3  0  0  0  0  0  0
  188.3620  176.3800  143.3520 C   0  0  0  0  0  2  0  0  0  0  0  0
  191.2660  176.7090  141.1890 C   0  0  0  0  0  3  0  0  0  0  0  0
  179.9820  180.5220  140.2610 C   0  0  0  0  0  2  0  0  0  0  0  0
  180.0760  180.5350  137.8330 N   0  0  0  0  0  1  0  0  0  0  0  0
  180.7580  180.9720  139.0370 C   0  0  0  0  0  2  0  0  0  0  0  0
  1 38  1  0  0  0  0
  2  4  1  0  0  0  0
  3  6  2  0  0  0  0
  4  9  2  0  0  0  0
  5  3  2  0  0  0  0
  6  1  1  0  0  0  0
  7  2  2  0  0  0  0
  7  5  1  0  0  0  0
  8 14  1  1  0  0  0
  8  9  1  0  0  0  0
  8  6  1  0  0  0  0
 10 12  2  0  0  0  0
 11 14  1  0  0  0  0
 12 15  1  0  0  0  0
 12 11  1  0  0  0  0
 14 13  2  0  0  0  0
 16 18  2  0  0  0  0
 17 16  2  0  0  0  0
 17 15  1  0  0  0  0
 18 19  1  0  0  0  0
 20 31  1  0  0  0  0
 20 19  1  1  0  0  0
 21 26  1  0  0  0  0
 22 24  1  0  0  0  0
 23 21  1  0  0  0  0
 25 24  1  6  0  0  0
 25 30  1  0  0  0  0
 26 28  1  6  0  0  0
 26 20  1  0  0  0  0
 26 25  1  0  0  0  0
 27 30  1  0  0  0  0
 29 23  1  6  0  0  0
 29 22  1  0  0  0  0
 29 27  1  0  0  0  0
 32 31  1  0  0  0  0
 32 33  1  0  0  0  0
 33 34  1  0  0  0  0
 36 35  1  0  0  0  0
 37 41  1  0  0  0  0
 38 37  2  0  0  0  0
 38 40  1  0  0  0  0
 39 40  1  0  0  0  0
 40 36  2  0  0  0  0
 41 35  2  0  0  0  0
 42 47  1  0  0  0  0
 42 44  1  0  0  0  0
 43 44  1  0  0  0  0
 45 66  1  6  0  0  0
 45 43  1  0  0  0  0
 46 35  1  1  0  0  0
 46 45  1  0  0  0  0
 46 42  1  0  0  0  0
 47 48  1  0  0  0  0
 48 49  1  0  0  0  0
 49 50  1  6  0  0  0
 51 49  1  6  0  0  0
 51 56  1  0  0  0  0
 52 63  1  6  0  0  0
 52 53  1  0  0  0  0
 53 54  1  0  0  0  0
 53 57  1  1  0  0  0
 55 51  1  0  0  0  0
 55 52  1  0  0  0  0
 56 54  1  0  0  0  0
 58 63  1  0  0  0  0
 59 65  2  0  0  0  0
 60 64  1  0  0  0  0
 61 58  1  0  0  0  0
 62 60  1  0  0  0  0
 62 61  1  0  0  0  0
 64 63  1  0  0  0  0
 65 62  1  0  0  0  0
 67 68  1  0  0  0  0
 68 66  1  0  0  0  0
M  END
>  <MODEL>
7

>  <REMARK>
 VINA RESULT:      -5.5      2.801     12.603
  Name = 
  19 active torsions:
  status: ('A' for Active; 'I' for Inactive)
    1  A    between atoms: C_1  and  C_26
    2  A    between atoms: C_1  and  C_61
    3  A    between atoms: N_2  and  N_19
    4  A    between atoms: C_7  and  C_45
    5  A    between atoms: C_11  and  C_52
    6  A    between atoms: N_12  and  C_32
    7  A    between atoms: N_12  and  O_59
    8  A    between atoms: C_13  and  C_41
    9  A    between atoms: C_13  and  C_62
   10  A    between atoms: C_17  and  C_53
   11  A    between atoms: N_19  and  C_38
   12  A    between atoms: C_20  and  C_26
   13  A    between atoms: C_22  and  C_30
   14  A    between atoms: C_22  and  C_56
   15  A    between atoms: C_24  and  C_44
   16  A    between atoms: C_24  and  C_49
   17  A    between atoms: C_26  and  O_59
   18  A    between atoms: C_38  and  C_45
   19  A    between atoms: C_63  and  C_64
                            x       y       z     vdW  Elec       q    Type
                         _______ _______ _______ _____ _____    ______ ____

>  <TORSDO>
F 19

$$$$
=
 OpenBabel10232412143D

 68 74  0  0  1  0  0  0  0  0999 V2000
  188.7370  173.9670  136.7950 C   0  0  0  0  0  2  0  0  0  0  0  0
  187.7090  178.6470  135.9410 C   0  0  0  0  0  3  0  0  0  0  0  0
  187.7430  176.0790  137.4220 C   0  0  0  0  0  0  0  0  0  0  0  0
  188.6850  177.9090  135.0880 C   0  0  0  0  0  3  0  0  0  0  0  0
  186.7900  176.9340  137.5850 C   0  0  0  0  0  3  0  0  0  0  0  0
  188.8230  175.4270  137.1430 C   0  0  0  0  0  0  0  0  0  0  0  0
  186.9150  178.2640  136.9640 C   0  0  0  0  0  3  0  0  0  0  0  0
  189.9350  176.3270  136.6770 C   0  0  2  0  0  3  0  0  0  0  0  0
  189.5940  176.9550  135.3520 C   0  0  0  0  0  3  0  0  0  0  0  0
  194.3610  175.7890  138.6710 N   0  0  0  0  0  2  0  0  0  0  0  0
  192.2440  175.9510  137.6640 N   0  0  0  0  0  2  0  0  0  0  0  0
  193.6450  175.6620  137.6010 C   0  0  0  0  0  0  0  0  0  0  0  0
  191.5680  174.8290  135.7240 O   0  0  0  0  0  0  0  0  0  0  0  0
  191.2950  175.6720  136.6250 C   0  0  0  0  0  0  0  0  0  0  0  0
  194.3220  175.3630  136.2960 C   0  0  0  0  0  2  0  0  0  0  0  0
  195.5890  173.3320  136.7050 C   0  0  0  0  0  0  0  0  0  0  0  0
  195.5970  174.6160  136.5100 C   0  0  0  0  0  3  0  0  0  0  0  0
  195.5800  172.0400  136.8880 C   0  0  0  0  0  3  0  0  0  0  0  0
  194.8620  171.1350  135.9420 C   0  0  0  0  0  2  0  0  0  0  0  0
  195.4710  169.7250  135.9570 C   0  0  1  0  0  3  0  0  0  0  0  0
  197.4690  168.2110  136.2500 C   0  0  0  0  0  2  0  0  0  0  0  0
  200.1360  170.2140  136.8260 C   0  0  0  0  0  2  0  0  0  0  0  0
  198.9440  168.0090  136.6230 C   0  0  0  0  0  2  0  0  0  0  0  0
  198.9620  171.2060  136.8090 C   0  0  0  0  0  2  0  0  0  0  0  0
  197.7950  170.7550  135.9150 C   0  0  2  0  0  3  0  0  0  0  0  0
  196.9090  169.6210  136.5290 C   0  0  1  0  0  0  0  0  0  0  0  0
  199.4730  169.3890  134.5220 C   0  0  0  0  0  2  0  0  0  0  0  0
  196.8020  169.8030  138.0460 C   0  0  0  0  0  1  0  0  0  0  0  0
  199.9090  168.9870  135.9430 C   0  0  1  0  0  3  0  0  0  0  0  0
  198.3290  170.4230  134.5080 C   0  0  0  0  0  2  0  0  0  0  0  0
  194.5710  168.7390  136.4130 O   0  0  0  0  0  0  0  0  0  0  0  0
  193.8690  168.2990  135.3350 N   0  0  0  0  0  2  0  0  0  0  0  0
  192.5470  168.8990  135.4120 C   0  0  0  0  0  2  0  0  0  0  0  0
  191.5190  167.9530  134.8160 C   0  0  0  0  0  1  0  0  0  0  0  0
  184.6670  172.5650  136.5380 C   0  0  0  0  0  0  0  0  0  0  0  0
  185.3000  173.1160  135.4110 C   0  0  0  0  0  3  0  0  0  0  0  0
  186.7060  172.9160  137.8130 C   0  0  0  0  0  3  0  0  0  0  0  0
  187.3200  173.4910  136.6950 C   0  0  0  0  0  0  0  0  0  0  0  0
  187.2100  174.1290  134.3540 O   0  0  0  0  0  1  0  0  0  0  0  0
  186.6130  173.5850  135.4870 C   0  0  0  0  0  0  0  0  0  0  0  0
  185.3970  172.4400  137.7310 C   0  0  0  0  0  3  0  0  0  0  0  0
  182.1670  172.8570  136.6940 N   0  0  0  0  0  0  0  0  0  0  0  0
  181.5930  171.5110  134.8490 O   0  0  0  0  0  0  0  0  0  0  0  0
  181.0830  172.2240  135.9560 C   0  0  0  0  0  2  0  0  0  0  0  0
  182.9680  171.3350  135.0820 C   0  0  1  0  0  3  0  0  0  0  0  0
  183.2810  171.9620  136.4160 C   0  0  1  0  0  3  0  0  0  0  0  0
  182.3800  174.1040  136.0770 N   0  0  0  0  0  2  0  0  0  0  0  0
  181.4120  175.0230  136.6540 C   0  0  0  0  0  2  0  0  0  0  0  0
  181.8030  175.3540  138.0860 C   0  0  2  0  0  3  0  0  0  0  0  0
  180.8560  174.8230  138.9610 O   0  0  0  0  0  1  0  0  0  0  0  0
  181.9330  176.8610  138.3180 C   0  0  1  0  0  3  0  0  0  0  0  0
  183.4390  178.3150  140.1300 C   0  0  2  0  0  3  0  0  0  0  0  0
  183.3910  179.4060  139.0500 C   0  0  2  0  0  3  0  0  0  0  0  0
  182.9840  178.8680  137.6710 C   0  0  0  0  0  2  0  0  0  0  0  0
  181.9290  177.2660  140.1140 S   0  0  0  0  0  0  0  0  0  0  0  0
  183.0920  177.4130  137.6130 N   0  0  0  0  0  2  0  0  0  0  0  0
  184.6380  180.0320  138.9540 O   0  0  0  0  0  1  0  0  0  0  0  0
  185.0500  178.4320  142.0650 C   0  0  0  0  0  2  0  0  0  0  0  0
  185.4910  178.0550  146.0770 O   0  0  0  0  0  0  0  0  0  0  0  0
  182.8570  179.2420  143.8610 C   0  0  0  0  0  2  0  0  0  0  0  0
  185.3250  179.0590  143.4280 C   0  0  0  0  0  2  0  0  0  0  0  0
  184.1830  178.8380  144.3060 N   0  0  0  0  0  0  0  0  0  0  0  0
  183.7040  178.9170  141.5150 C   0  0  0  0  0  3  0  0  0  0  0  0
  182.5640  178.6190  142.4990 C   0  0  0  0  0  2  0  0  0  0  0  0
  184.3580  178.4030  145.6530 C   0  0  0  0  0  3  0  0  0  0  0  0
  183.3060  169.8480  135.1150 C   0  0  0  0  0  2  0  0  0  0  0  0
  185.1280  168.2420  135.0570 N   0  0  0  0  0  1  0  0  0  0  0  0
  184.8030  169.6430  135.2470 C   0  0  0  0  0  2  0  0  0  0  0  0
  1  6  1  0  0  0  0
  2  7  2  0  0  0  0
  3  5  2  0  0  0  0
  4  9  2  0  0  0  0
  4  2  1  0  0  0  0
  6  3  2  0  0  0  0
  7  5  1  0  0  0  0
  8 14  1  6  0  0  0
  8  6  1  0  0  0  0
  9  8  1  0  0  0  0
 12 11  1  0  0  0  0
 12 10  2  0  0  0  0
 13 14  2  0  0  0  0
 14 11  1  0  0  0  0
 15 17  1  0  0  0  0
 15 12  1  0  0  0  0
 16 18  2  0  0  0  0
 17 16  2  0  0  0  0
 19 18  1  0  0  0  0
 20 19  1  1  0  0  0
 20 31  1  0  0  0  0
 20 26  1  0  0  0  0
 21 26  1  0  0  0  0
 21 23  1  0  0  0  0
 24 22  1  0  0  0  0
 25 30  1  6  0  0  0
 25 26  1  0  0  0  0
 25 24  1  0  0  0  0
 26 28  1  1  0  0  0
 29 27  1  6  0  0  0
 29 23  1  0  0  0  0
 29 22  1  0  0  0  0
 30 27  1  0  0  0  0
 32 33  1  0  0  0  0
 32 31  1  0  0  0  0
 34 33  1  0  0  0  0
 35 41  1  0  0  0  0
 36 40  1  0  0  0  0
 36 35  2  0  0  0  0
 38  1  1  0  0  0  0
 38 37  1  0  0  0  0
 39 40  1  0  0  0  0
 40 38  2  0  0  0  0
 41 37  2  0  0  0  0
 43 45  1  0  0  0  0
 43 44  1  0  0  0  0
 44 42  1  0  0  0  0
 45 66  1  1  0  0  0
 45 46  1  0  0  0  0
 46 35  1  6  0  0  0
 46 42  1  0  0  0  0
 47 48  1  0  0  0  0
 47 42  1  0  0  0  0
 48 49  1  0  0  0  0
 49 50  1  1  0  0  0
 51 49  1  1  0  0  0
 51 55  1  0  0  0  0
 52 63  1  1  0  0  0
 53 57  1  6  0  0  0
 53 52  1  0  0  0  0
 54 53  1  0  0  0  0
 55 52  1  0  0  0  0
 56 54  1  0  0  0  0
 56 51  1  0  0  0  0
 58 61  1  0  0  0  0
 60 62  1  0  0  0  0
 61 62  1  0  0  0  0
 62 65  1  0  0  0  0
 63 58  1  0  0  0  0
 63 64  1  0  0  0  0
 64 60  1  0  0  0  0
 65 59  2  0  0  0  0
 66 68  1  0  0  0  0
 67 68  1  0  0  0  0
M  END
>  <MODEL>
8

>  <REMARK>
 VINA RESULT:      -5.4      3.494     13.587
  Name = 
  19 active torsions:
  status: ('A' for Active; 'I' for Inactive)
    1  A    between atoms: C_1  and  C_26
    2  A    between atoms: C_1  and  C_61
    3  A    between atoms: N_2  and  N_19
    4  A    between atoms: C_7  and  C_45
    5  A    between atoms: C_11  and  C_52
    6  A    between atoms: N_12  and  C_32
    7  A    between atoms: N_12  and  O_59
    8  A    between atoms: C_13  and  C_41
    9  A    between atoms: C_13  and  C_62
   10  A    between atoms: C_17  and  C_53
   11  A    between atoms: N_19  and  C_38
   12  A    between atoms: C_20  and  C_26
   13  A    between atoms: C_22  and  C_30
   14  A    between atoms: C_22  and  C_56
   15  A    between atoms: C_24  and  C_44
   16  A    between atoms: C_24  and  C_49
   17  A    between atoms: C_26  and  O_59
   18  A    between atoms: C_38  and  C_45
   19  A    between atoms: C_63  and  C_64
                            x       y       z     vdW  Elec       q    Type
                         _______ _______ _______ _____ _____    ______ ____

>  <TORSDO>
F 19

$$$$
