=
 OpenBabel10232408583D

 46 53  0  0  1  0  0  0  0  0999 V2000
  191.8030  176.7710  142.2110 C   0  0  0  0  0  3  0  0  0  0  0  0
  187.8920  178.0010  143.6720 C   0  0  0  0  0  3  0  0  0  0  0  0
  188.5550  178.0400  140.8350 O   0  0  0  0  0  1  0  0  0  0  0  0
  189.4930  177.6300  141.7800 C   0  0  0  0  0  0  0  0  0  0  0  0
  189.6380  177.0850  146.7880 C   0  0  0  0  0  0  0  0  0  0  0  0
  188.0130  177.8460  145.0520 C   0  0  0  0  0  0  0  0  0  0  0  0
  186.9250  178.0290  146.0710 C   0  0  1  0  0  3  0  0  0  0  0  0
  190.8410  176.7060  147.1280 C   0  0  0  0  0  0  0  0  0  0  0  0
  189.1170  177.6380  143.1340 C   0  0  0  0  0  0  0  0  0  0  0  0
  191.9820  176.3480  147.4520 O   0  0  0  0  0  0  0  0  0  0  0  0
  187.5350  178.2670  147.4650 C   0  0  0  0  0  2  0  0  0  0  0  0
  189.9750  177.2380  144.2220 C   0  0  0  0  0  0  0  0  0  0  0  0
  190.7840  177.2230  141.3420 C   0  0  0  0  0  0  0  0  0  0  0  0
  188.5610  177.1820  147.8320 C   0  0  0  0  0  2  0  0  0  0  0  0
  191.5310  176.7040  143.8870 S   0  0  0  0  0  0  0  0  0  0  0  0
  189.2650  177.3650  145.3900 C   0  0  0  0  0  0  0  0  0  0  0  0
  191.4550  175.5240  138.4830 C   0  0  0  0  0  0  0  0  0  0  0  0
  192.7500  176.1140  138.7620 C   0  0  0  0  0  0  0  0  0  0  0  0
  191.0800  177.2890  139.8700 C   0  0  1  0  0  3  0  0  0  0  0  0
  192.5550  177.1400  139.5830 C   0  0  0  0  0  3  0  0  0  0  0  0
  190.4730  176.2070  139.1710 O   0  0  0  0  0  0  0  0  0  0  0  0
  191.2300  174.5190  137.7510 O   0  0  0  0  0  0  0  0  0  0  0  0
  193.5150  176.2140  135.8190 C   0  0  0  0  0  3  0  0  0  0  0  0
  193.6750  173.4150  135.5030 C   0  0  0  0  0  2  0  0  0  0  0  0
  194.5260  174.4240  138.7840 N   0  0  0  0  0  0  0  0  0  0  0  0
  194.0480  175.4560  136.7830 C   0  0  0  0  0  0  0  0  0  0  0  0
  194.5240  173.4550  137.7980 O   0  0  0  0  0  0  0  0  0  0  0  0
  193.4740  174.3050  134.3470 N   0  0  0  0  0  0  0  0  0  0  0  0
  194.0990  175.7100  138.2190 C   0  0  1  0  0  3  0  0  0  0  0  0
  193.3600  175.5980  134.4840 C   0  0  0  0  0  3  0  0  0  0  0  0
  194.5570  174.1090  136.5480 C   0  0  1  0  0  3  0  0  0  0  0  0
  195.9080  175.4710  140.4900 C   0  0  0  0  0  1  0  0  0  0  0  0
  195.8950  174.5770  139.2660 C   0  0  0  0  0  2  0  0  0  0  0  0
  186.0890  179.1260  145.7090 O   0  0  0  0  0  0  0  0  0  0  0  0
  185.3480  179.1210  143.4170 C   0  0  0  0  0  3  0  0  0  0  0  0
  185.0500  179.0170  144.7790 C   0  0  0  0  0  0  0  0  0  0  0  0
  182.7100  178.6770  144.2260 C   0  0  0  0  0  3  0  0  0  0  0  0
  183.0040  178.7750  142.8590 C   0  0  0  0  0  0  0  0  0  0  0  0
  184.3320  179.0000  142.4630 C   0  0  0  0  0  3  0  0  0  0  0  0
  183.7240  178.7950  145.1810 C   0  0  0  0  0  3  0  0  0  0  0  0
  180.0760  180.1440  139.5800 C   0  0  0  0  0  1  0  0  0  0  0  0
  180.6410  177.7830  140.1100 C   0  0  0  0  0  2  0  0  0  0  0  0
  179.9820  179.0530  140.6350 C   0  0  1  0  0  3  0  0  0  0  0  0
  180.7690  179.4690  141.8650 C   0  0  0  0  0  2  0  0  0  0  0  0
  181.9620  178.6430  141.8780 N   0  0  0  0  0  0  0  0  0  0  0  0
  181.9820  177.6600  140.8130 C   0  0  0  0  0  2  0  0  0  0  0  0
  1 15  1  0  0  0  0
  2  6  2  0  0  0  0
  3  4  1  0  0  0  0
  4  9  2  0  0  0  0
  5  8  2  0  0  0  0
  5 14  1  0  0  0  0
  6 16  1  0  0  0  0
  6  7  1  0  0  0  0
  7 34  1  6  0  0  0
  7 11  1  0  0  0  0
  8 10  2  0  0  0  0
  9  2  1  0  0  0  0
  9 12  1  0  0  0  0
 11 14  1  0  0  0  0
 12 16  2  0  0  0  0
 13  4  1  0  0  0  0
 13  1  2  0  0  0  0
 15 12  1  0  0  0  0
 16  5  1  0  0  0  0
 17 18  1  0  0  0  0
 17 21  1  0  0  0  0
 18 20  2  0  0  0  0
 19 13  1  1  0  0  0
 20 19  1  0  0  0  0
 21 19  1  0  0  0  0
 22 17  2  0  0  0  0
 23 26  2  0  0  0  0
 25 33  1  0  0  0  0
 26 29  1  0  0  0  0
 27 25  1  0  0  0  0
 28 30  2  0  0  0  0
 28 24  1  0  0  0  0
 29 18  1  1  0  0  0
 29 25  1  0  0  0  0
 30 23  1  0  0  0  0
 31 24  1  6  0  0  0
 31 26  1  0  0  0  0
 31 27  1  0  0  0  0
 33 32  1  0  0  0  0
 35 36  1  0  0  0  0
 36 40  2  0  0  0  0
 36 34  1  0  0  0  0
 37 40  1  0  0  0  0
 38 37  2  0  0  0  0
 39 38  1  0  0  0  0
 39 35  2  0  0  0  0
 42 43  1  0  0  0  0
 42 46  1  0  0  0  0
 43 41  1  6  0  0  0
 43 44  1  0  0  0  0
 44 45  1  0  0  0  0
 45 38  1  0  0  0  0
 46 45  1  0  0  0  0
M  END
>  <MODEL>
1

>  <REMARK>
 VINA RESULT:     -10.9      0.000      0.000
  Name = 
  6 active torsions:
  status: ('A' for Active; 'I' for Inactive)
    1  A    between atoms: C_14  and  O_18
    2  A    between atoms: C_16  and  N_27
    3  A    between atoms: C_17  and  O_18
    4  A    between atoms: C_24  and  N_37
    5  A    between atoms: C_26  and  C_38
    6  A    between atoms: C_30  and  C_39
                            x       y       z     vdW  Elec       q    Type
                         _______ _______ _______ _____ _____    ______ ____

>  <TORSDO>
F 6

$$$$
=
 OpenBabel10232408583D

 46 53  0  0  1  0  0  0  0  0999 V2000
  191.7020  177.0000  142.1610 C   0  0  0  0  0  3  0  0  0  0  0  0
  187.7800  178.0070  143.7560 C   0  0  0  0  0  3  0  0  0  0  0  0
  188.3820  178.2120  140.9130 O   0  0  0  0  0  1  0  0  0  0  0  0
  189.3530  177.7920  141.8180 C   0  0  0  0  0  0  0  0  0  0  0  0
  189.6230  177.0040  146.7880 C   0  0  0  0  0  0  0  0  0  0  0  0
  187.9350  177.7880  145.1250 C   0  0  0  0  0  0  0  0  0  0  0  0
  186.8620  177.8790  146.1720 C   0  0  1  0  0  3  0  0  0  0  0  0
  190.8460  176.6540  147.0860 C   0  0  0  0  0  0  0  0  0  0  0  0
  189.0060  177.7180  143.1780 C   0  0  0  0  0  0  0  0  0  0  0  0
  192.0060  176.3230  147.3690 O   0  0  0  0  0  0  0  0  0  0  0  0
  187.4930  178.0700  147.5650 C   0  0  0  0  0  2  0  0  0  0  0  0
  189.9000  177.2970  144.2270 C   0  0  0  0  0  0  0  0  0  0  0  0
  190.6490  177.4570  141.3350 C   0  0  0  0  0  0  0  0  0  0  0  0
  188.5650  177.0070  147.8560 C   0  0  0  0  0  2  0  0  0  0  0  0
  191.4680  176.8390  143.8360 S   0  0  0  0  0  0  0  0  0  0  0  0
  189.2110  177.3380  145.4140 C   0  0  0  0  0  0  0  0  0  0  0  0
  189.5730  176.8890  138.1680 C   0  0  0  0  0  0  0  0  0  0  0  0
  190.6690  175.9430  138.2600 C   0  0  0  0  0  0  0  0  0  0  0  0
  190.9110  177.6060  139.8640 C   0  0  1  0  0  3  0  0  0  0  0  0
  191.4560  176.3360  139.2540 C   0  0  0  0  0  3  0  0  0  0  0  0
  189.7080  177.8540  139.1450 O   0  0  0  0  0  0  0  0  0  0  0  0
  188.6110  176.8470  137.3510 O   0  0  0  0  0  0  0  0  0  0  0  0
  193.4370  174.7890  137.7450 C   0  0  0  0  0  3  0  0  0  0  0  0
  193.5130  175.5160  135.0210 C   0  0  0  0  0  2  0  0  0  0  0  0
  190.2180  174.8430  136.1150 N   0  0  0  0  0  0  0  0  0  0  0  0
  192.3430  174.6740  136.9860 C   0  0  0  0  0  0  0  0  0  0  0  0
  191.1150  175.0280  135.0800 O   0  0  0  0  0  0  0  0  0  0  0  0
  194.7490  175.2520  135.7770 N   0  0  0  0  0  0  0  0  0  0  0  0
  190.9420  174.7410  137.3900 C   0  0  1  0  0  3  0  0  0  0  0  0
  194.7300  174.9520  137.0470 C   0  0  0  0  0  3  0  0  0  0  0  0
  192.3860  174.6090  135.5290 C   0  0  1  0  0  3  0  0  0  0  0  0
  188.8450  173.1370  137.1730 C   0  0  0  0  0  1  0  0  0  0  0  0
  189.5210  173.5810  135.8920 C   0  0  0  0  0  2  0  0  0  0  0  0
  185.9800  178.9600  145.8820 O   0  0  0  0  0  0  0  0  0  0  0  0
  183.6550  178.8550  145.2590 C   0  0  0  0  0  3  0  0  0  0  0  0
  185.0010  178.8970  144.8850 C   0  0  0  0  0  0  0  0  0  0  0  0
  184.3370  178.8350  142.5490 C   0  0  0  0  0  3  0  0  0  0  0  0
  182.9850  178.8000  142.9200 C   0  0  0  0  0  0  0  0  0  0  0  0
  182.6530  178.8080  144.2840 C   0  0  0  0  0  3  0  0  0  0  0  0
  185.3390  178.8850  143.5220 C   0  0  0  0  0  3  0  0  0  0  0  0
  179.9820  176.8750  140.0090 C   0  0  0  0  0  1  0  0  0  0  0  0
  179.9820  179.2590  140.7090 C   0  0  0  0  0  2  0  0  0  0  0  0
  180.7540  178.1830  139.9540 C   0  0  1  0  0  3  0  0  0  0  0  0
  182.0800  178.0200  140.6760 C   0  0  0  0  0  2  0  0  0  0  0  0
  181.9550  178.7590  141.9180 N   0  0  0  0  0  0  0  0  0  0  0  0
  180.6960  179.4670  142.0330 C   0  0  0  0  0  2  0  0  0  0  0  0
  1 15  1  0  0  0  0
  2  6  2  0  0  0  0
  3  4  1  0  0  0  0
  4  9  2  0  0  0  0
  5  8  2  0  0  0  0
  5 14  1  0  0  0  0
  6 16  1  0  0  0  0
  6  7  1  0  0  0  0
  7 34  1  6  0  0  0
  7 11  1  0  0  0  0
  8 10  2  0  0  0  0
  9  2  1  0  0  0  0
  9 12  1  0  0  0  0
 11 14  1  0  0  0  0
 12 16  2  0  0  0  0
 13  4  1  0  0  0  0
 13  1  2  0  0  0  0
 15 12  1  0  0  0  0
 16  5  1  0  0  0  0
 17 18  1  0  0  0  0
 17 21  1  0  0  0  0
 18 20  2  0  0  0  0
 19 13  1  1  0  0  0
 20 19  1  0  0  0  0
 21 19  1  0  0  0  0
 22 17  2  0  0  0  0
 24 28  1  0  0  0  0
 25 29  1  0  0  0  0
 26 29  1  0  0  0  0
 26 23  2  0  0  0  0
 27 31  1  0  0  0  0
 27 25  1  0  0  0  0
 28 30  2  0  0  0  0
 29 18  1  1  0  0  0
 30 23  1  0  0  0  0
 31 24  1  6  0  0  0
 31 26  1  0  0  0  0
 33 25  1  0  0  0  0
 33 32  1  0  0  0  0
 36 35  1  0  0  0  0
 36 34  1  0  0  0  0
 37 38  2  0  0  0  0
 37 40  1  0  0  0  0
 38 39  1  0  0  0  0
 39 35  2  0  0  0  0
 40 36  2  0  0  0  0
 42 46  1  0  0  0  0
 43 41  1  1  0  0  0
 43 44  1  0  0  0  0
 43 42  1  0  0  0  0
 44 45  1  0  0  0  0
 45 46  1  0  0  0  0
 45 38  1  0  0  0  0
M  END
>  <MODEL>
2

>  <REMARK>
 VINA RESULT:     -10.2      1.369      2.515
  Name = 
  6 active torsions:
  status: ('A' for Active; 'I' for Inactive)
    1  A    between atoms: C_14  and  O_18
    2  A    between atoms: C_16  and  N_27
    3  A    between atoms: C_17  and  O_18
    4  A    between atoms: C_24  and  N_37
    5  A    between atoms: C_26  and  C_38
    6  A    between atoms: C_30  and  C_39
                            x       y       z     vdW  Elec       q    Type
                         _______ _______ _______ _____ _____    ______ ____

>  <TORSDO>
F 6

$$$$
=
 OpenBabel10232408583D

 46 53  0  0  1  0  0  0  0  0999 V2000
  191.2480  176.8930  142.1810 C   0  0  0  0  0  3  0  0  0  0  0  0
  187.3950  177.9910  143.8840 C   0  0  0  0  0  3  0  0  0  0  0  0
  187.8660  178.0060  141.0080 O   0  0  0  0  0  1  0  0  0  0  0  0
  188.8810  177.6510  141.8940 C   0  0  0  0  0  0  0  0  0  0  0  0
  189.3810  177.2020  146.8880 C   0  0  0  0  0  0  0  0  0  0  0  0
  187.6140  177.8660  145.2550 C   0  0  0  0  0  0  0  0  0  0  0  0
  186.5890  178.0230  146.3420 C   0  0  1  0  0  3  0  0  0  0  0  0
  190.6190  176.8780  147.1530 C   0  0  0  0  0  0  0  0  0  0  0  0
  188.5960  177.6680  143.2700 C   0  0  0  0  0  0  0  0  0  0  0  0
  191.7930  176.5710  147.4050 O   0  0  0  0  0  0  0  0  0  0  0  0
  187.2810  178.3100  147.6880 C   0  0  0  0  0  2  0  0  0  0  0  0
  189.5400  177.3230  144.3030 C   0  0  0  0  0  0  0  0  0  0  0  0
  190.1560  177.2890  141.3760 C   0  0  0  0  0  0  0  0  0  0  0  0
  188.3720  177.2730  148.0010 C   0  0  0  0  0  2  0  0  0  0  0  0
  191.0910  176.8450  143.8730 S   0  0  0  0  0  0  0  0  0  0  0  0
  188.9040  177.4410  145.5150 C   0  0  0  0  0  0  0  0  0  0  0  0
  188.9560  178.3070  138.3710 C   0  0  0  0  0  0  0  0  0  0  0  0
  188.7330  176.8760  138.2850 C   0  0  0  0  0  0  0  0  0  0  0  0
  190.3500  177.3400  139.8880 C   0  0  1  0  0  3  0  0  0  0  0  0
  189.5280  176.2920  139.1740 C   0  0  0  0  0  3  0  0  0  0  0  0
  189.8930  178.5750  139.3470 O   0  0  0  0  0  0  0  0  0  0  0  0
  188.3750  179.1990  137.6910 O   0  0  0  0  0  0  0  0  0  0  0  0
  189.4180  174.2220  136.9640 C   0  0  0  0  0  3  0  0  0  0  0  0
  189.5660  175.2710  134.3500 C   0  0  0  0  0  2  0  0  0  0  0  0
  187.2390  177.0310  136.3470 N   0  0  0  0  0  0  0  0  0  0  0  0
  188.5380  175.1420  136.5560 C   0  0  0  0  0  0  0  0  0  0  0  0
  187.7480  176.7280  135.0990 O   0  0  0  0  0  0  0  0  0  0  0  0
  190.2350  174.0080  134.7070 N   0  0  0  0  0  0  0  0  0  0  0  0
  187.8130  176.1270  137.3520 C   0  0  1  0  0  3  0  0  0  0  0  0
  190.2060  173.5320  135.9220 C   0  0  0  0  0  3  0  0  0  0  0  0
  188.2660  175.4160  135.1490 C   0  0  1  0  0  3  0  0  0  0  0  0
  185.1760  177.3000  137.6070 C   0  0  0  0  0  1  0  0  0  0  0  0
  185.7970  176.8100  136.3150 C   0  0  0  0  0  2  0  0  0  0  0  0
  185.6870  179.0790  146.0200 O   0  0  0  0  0  0  0  0  0  0  0  0
  183.4210  178.7990  145.2540 C   0  0  0  0  0  3  0  0  0  0  0  0
  184.7730  179.0030  144.9640 C   0  0  0  0  0  0  0  0  0  0  0  0
  184.2400  179.0710  142.5950 C   0  0  0  0  0  3  0  0  0  0  0  0
  182.8810  178.8740  142.8820 C   0  0  0  0  0  0  0  0  0  0  0  0
  182.4800  178.7360  144.2200 C   0  0  0  0  0  3  0  0  0  0  0  0
  185.1800  179.1380  143.6280 C   0  0  0  0  0  3  0  0  0  0  0  0
  180.1820  176.9040  139.7130 C   0  0  0  0  0  1  0  0  0  0  0  0
  179.9820  179.2460  140.5200 C   0  0  0  0  0  2  0  0  0  0  0  0
  180.8660  178.2610  139.7640 C   0  0  1  0  0  3  0  0  0  0  0  0
  182.1580  178.1480  140.5540 C   0  0  0  0  0  2  0  0  0  0  0  0
  181.9140  178.8160  141.8200 N   0  0  0  0  0  0  0  0  0  0  0  0
  180.6050  179.4340  141.8920 C   0  0  0  0  0  2  0  0  0  0  0  0
  1 15  1  0  0  0  0
  2  6  2  0  0  0  0
  3  4  1  0  0  0  0
  4  9  2  0  0  0  0
  5  8  2  0  0  0  0
  5 14  1  0  0  0  0
  6 16  1  0  0  0  0
  6  7  1  0  0  0  0
  7 34  1  6  0  0  0
  7 11  1  0  0  0  0
  8 10  2  0  0  0  0
  9  2  1  0  0  0  0
  9 12  1  0  0  0  0
 11 14  1  0  0  0  0
 12 16  2  0  0  0  0
 13  4  1  0  0  0  0
 13  1  2  0  0  0  0
 15 12  1  0  0  0  0
 16  5  1  0  0  0  0
 17 21  1  0  0  0  0
 18 17  1  0  0  0  0
 18 20  2  0  0  0  0
 19 13  1  1  0  0  0
 20 19  1  0  0  0  0
 21 19  1  0  0  0  0
 22 17  2  0  0  0  0
 24 28  1  0  0  0  0
 25 29  1  0  0  0  0
 26 23  2  0  0  0  0
 26 29  1  0  0  0  0
 27 31  1  0  0  0  0
 27 25  1  0  0  0  0
 28 30  2  0  0  0  0
 29 18  1  1  0  0  0
 30 23  1  0  0  0  0
 31 24  1  6  0  0  0
 31 26  1  0  0  0  0
 33 25  1  0  0  0  0
 33 32  1  0  0  0  0
 36 35  1  0  0  0  0
 36 34  1  0  0  0  0
 37 38  2  0  0  0  0
 37 40  1  0  0  0  0
 38 39  1  0  0  0  0
 39 35  2  0  0  0  0
 40 36  2  0  0  0  0
 42 46  1  0  0  0  0
 43 41  1  1  0  0  0
 43 42  1  0  0  0  0
 43 44  1  0  0  0  0
 44 45  1  0  0  0  0
 45 46  1  0  0  0  0
 45 38  1  0  0  0  0
M  END
>  <MODEL>
3

>  <REMARK>
 VINA RESULT:     -10.1      2.611      3.871
  Name = 
  6 active torsions:
  status: ('A' for Active; 'I' for Inactive)
    1  A    between atoms: C_14  and  O_18
    2  A    between atoms: C_16  and  N_27
    3  A    between atoms: C_17  and  O_18
    4  A    between atoms: C_24  and  N_37
    5  A    between atoms: C_26  and  C_38
    6  A    between atoms: C_30  and  C_39
                            x       y       z     vdW  Elec       q    Type
                         _______ _______ _______ _____ _____    ______ ____

>  <TORSDO>
F 6

$$$$
=
 OpenBabel10232408583D

 46 53  0  0  1  0  0  0  0  0999 V2000
  190.9280  176.7460  141.7400 C   0  0  0  0  0  3  0  0  0  0  0  0
  187.0290  177.9870  143.2250 C   0  0  0  0  0  3  0  0  0  0  0  0
  187.6370  177.9110  140.3770 O   0  0  0  0  0  1  0  0  0  0  0  0
  188.5980  177.5550  141.3190 C   0  0  0  0  0  0  0  0  0  0  0  0
  188.8480  177.2300  146.3420 C   0  0  0  0  0  0  0  0  0  0  0  0
  187.1790  177.8940  144.6080 C   0  0  0  0  0  0  0  0  0  0  0  0
  186.1090  178.1070  145.6400 C   0  0  1  0  0  3  0  0  0  0  0  0
  190.0620  176.8820  146.6740 C   0  0  0  0  0  0  0  0  0  0  0  0
  188.2490  177.6170  142.6790 C   0  0  0  0  0  0  0  0  0  0  0  0
  191.2150  176.5520  146.9900 O   0  0  0  0  0  0  0  0  0  0  0  0
  186.7430  178.4130  147.0100 C   0  0  0  0  0  2  0  0  0  0  0  0
  189.1330  177.2760  143.7650 C   0  0  0  0  0  0  0  0  0  0  0  0
  189.8860  177.1460  140.8730 C   0  0  0  0  0  0  0  0  0  0  0  0
  187.7900  177.3570  147.4020 C   0  0  0  0  0  2  0  0  0  0  0  0
  190.6900  176.7470  143.4230 S   0  0  0  0  0  0  0  0  0  0  0  0
  188.4440  177.4440  144.9410 C   0  0  0  0  0  0  0  0  0  0  0  0
  189.1810  178.5080  137.8470 C   0  0  0  0  0  0  0  0  0  0  0  0
  188.5430  177.2110  137.7200 C   0  0  0  0  0  0  0  0  0  0  0  0
  190.1530  177.1520  139.3950 C   0  0  1  0  0  3  0  0  0  0  0  0
  189.0870  176.4060  138.6260 C   0  0  0  0  0  3  0  0  0  0  0  0
  190.1110  178.4730  138.8650 O   0  0  0  0  0  0  0  0  0  0  0  0
  188.9240  179.5400  137.1660 O   0  0  0  0  0  0  0  0  0  0  0  0
  185.7530  178.4170  137.5640 C   0  0  0  0  0  3  0  0  0  0  0  0
  184.4240  176.0980  138.4650 C   0  0  0  0  0  2  0  0  0  0  0  0
  187.3790  175.3170  136.6860 N   0  0  0  0  0  0  0  0  0  0  0  0
  186.1530  177.2090  137.1540 C   0  0  0  0  0  0  0  0  0  0  0  0
  186.1700  174.9160  137.2230 O   0  0  0  0  0  0  0  0  0  0  0  0
  183.7960  177.4270  138.5630 N   0  0  0  0  0  0  0  0  0  0  0  0
  187.4840  176.7820  136.7350 C   0  0  1  0  0  3  0  0  0  0  0  0
  184.4160  178.5110  138.1850 C   0  0  0  0  0  3  0  0  0  0  0  0
  185.2990  176.0260  137.2080 C   0  0  1  0  0  3  0  0  0  0  0  0
  188.8400  174.9180  134.7830 C   0  0  0  0  0  1  0  0  0  0  0  0
  187.4100  174.9110  135.2850 C   0  0  0  0  0  2  0  0  0  0  0  0
  185.2510  179.1760  145.2470 O   0  0  0  0  0  0  0  0  0  0  0  0
  184.7240  179.1390  142.8980 C   0  0  0  0  0  3  0  0  0  0  0  0
  184.3020  179.0550  144.2270 C   0  0  0  0  0  0  0  0  0  0  0  0
  182.0210  178.7120  143.4660 C   0  0  0  0  0  3  0  0  0  0  0  0
  182.4410  178.7890  142.1300 C   0  0  0  0  0  0  0  0  0  0  0  0
  183.8000  179.0060  141.8550 C   0  0  0  0  0  3  0  0  0  0  0  0
  182.9430  178.8420  144.5080 C   0  0  0  0  0  3  0  0  0  0  0  0
  180.6150  179.5060  137.9640 C   0  0  0  0  0  1  0  0  0  0  0  0
  179.9820  177.6710  139.5170 C   0  0  0  0  0  2  0  0  0  0  0  0
  179.9830  179.1810  139.3080 C   0  0  1  0  0  3  0  0  0  0  0  0
  180.8310  179.7680  140.4220 C   0  0  0  0  0  2  0  0  0  0  0  0
  181.4930  178.6450  141.0600 N   0  0  0  0  0  0  0  0  0  0  0  0
  181.0820  177.3650  140.5180 C   0  0  0  0  0  2  0  0  0  0  0  0
  1 15  1  0  0  0  0
  2  6  2  0  0  0  0
  3  4  1  0  0  0  0
  4  9  2  0  0  0  0
  5  8  2  0  0  0  0
  5 14  1  0  0  0  0
  6 16  1  0  0  0  0
  6  7  1  0  0  0  0
  7 34  1  6  0  0  0
  7 11  1  0  0  0  0
  8 10  2  0  0  0  0
  9  2  1  0  0  0  0
  9 12  1  0  0  0  0
 11 14  1  0  0  0  0
 12 16  2  0  0  0  0
 13  4  1  0  0  0  0
 13  1  2  0  0  0  0
 15 12  1  0  0  0  0
 16  5  1  0  0  0  0
 17 21  1  0  0  0  0
 18 17  1  0  0  0  0
 18 20  2  0  0  0  0
 19 13  1  1  0  0  0
 20 19  1  0  0  0  0
 21 19  1  0  0  0  0
 22 17  2  0  0  0  0
 23 30  1  0  0  0  0
 24 28  1  0  0  0  0
 25 29  1  0  0  0  0
 25 27  1  0  0  0  0
 26 31  1  0  0  0  0
 26 23  2  0  0  0  0
 29 26  1  0  0  0  0
 29 18  1  1  0  0  0
 30 28  2  0  0  0  0
 31 27  1  0  0  0  0
 31 24  1  1  0  0  0
 32 33  1  0  0  0  0
 33 25  1  0  0  0  0
 35 36  1  0  0  0  0
 36 40  2  0  0  0  0
 36 34  1  0  0  0  0
 37 40  1  0  0  0  0
 38 37  2  0  0  0  0
 39 38  1  0  0  0  0
 39 35  2  0  0  0  0
 42 46  1  0  0  0  0
 43 41  1  6  0  0  0
 43 42  1  0  0  0  0
 43 44  1  0  0  0  0
 44 45  1  0  0  0  0
 45 38  1  0  0  0  0
 46 45  1  0  0  0  0
M  END
>  <MODEL>
4

>  <REMARK>
 VINA RESULT:      -9.7      3.055      4.688
  Name = 
  6 active torsions:
  status: ('A' for Active; 'I' for Inactive)
    1  A    between atoms: C_14  and  O_18
    2  A    between atoms: C_16  and  N_27
    3  A    between atoms: C_17  and  O_18
    4  A    between atoms: C_24  and  N_37
    5  A    between atoms: C_26  and  C_38
    6  A    between atoms: C_30  and  C_39
                            x       y       z     vdW  Elec       q    Type
                         _______ _______ _______ _____ _____    ______ ____

>  <TORSDO>
F 6

$$$$
=
 OpenBabel10232408583D

 46 53  0  0  1  0  0  0  0  0999 V2000
  186.1550  178.4000  139.0850 C   0  0  0  0  0  3  0  0  0  0  0  0
  185.4320  178.9130  143.3460 C   0  0  0  0  0  3  0  0  0  0  0  0
  188.1270  178.7260  142.2550 O   0  0  0  0  0  1  0  0  0  0  0  0
  187.0150  178.6440  141.4220 C   0  0  0  0  0  0  0  0  0  0  0  0
  182.0100  178.8350  141.9760 C   0  0  0  0  0  0  0  0  0  0  0  0
  184.0400  178.9340  143.4250 C   0  0  0  0  0  0  0  0  0  0  0  0
  183.2180  179.1910  144.6550 C   0  0  1  0  0  3  0  0  0  0  0  0
  181.4570  178.6400  140.8090 C   0  0  0  0  0  0  0  0  0  0  0  0
  185.7400  178.7360  142.0060 C   0  0  0  0  0  0  0  0  0  0  0  0
  180.9310  178.4550  139.7020 O   0  0  0  0  0  0  0  0  0  0  0  0
  181.7900  178.6470  144.4650 C   0  0  0  0  0  2  0  0  0  0  0  0
  184.5000  178.6730  141.2730 C   0  0  0  0  0  0  0  0  0  0  0  0
  187.2100  178.4740  140.0220 C   0  0  0  0  0  0  0  0  0  0  0  0
  181.1510  179.1640  143.1650 C   0  0  0  0  0  2  0  0  0  0  0  0
  184.5400  178.4980  139.6030 S   0  0  0  0  0  0  0  0  0  0  0  0
  183.4700  178.8110  142.1710 C   0  0  0  0  0  0  0  0  0  0  0  0
  189.2640  177.8650  137.3920 C   0  0  0  0  0  0  0  0  0  0  0  0
  189.4510  176.6560  138.1720 C   0  0  0  0  0  0  0  0  0  0  0  0
  188.6210  178.3570  139.5190 C   0  0  1  0  0  3  0  0  0  0  0  0
  189.0670  176.9180  139.4160 C   0  0  0  0  0  3  0  0  0  0  0  0
  188.7410  178.8600  138.1920 O   0  0  0  0  0  0  0  0  0  0  0  0
  189.5060  178.0080  136.1610 O   0  0  0  0  0  0  0  0  0  0  0  0
  192.4180  176.0700  137.8350 C   0  0  0  0  0  3  0  0  0  0  0  0
  192.3130  175.8360  135.0260 C   0  0  0  0  0  2  0  0  0  0  0  0
  189.2850  174.8270  136.5470 N   0  0  0  0  0  0  0  0  0  0  0  0
  191.3850  175.4570  137.2480 C   0  0  0  0  0  0  0  0  0  0  0  0
  190.1090  174.8550  135.4390 O   0  0  0  0  0  0  0  0  0  0  0  0
  193.5760  176.1350  135.7220 N   0  0  0  0  0  0  0  0  0  0  0  0
  190.0110  175.3290  137.7210 C   0  0  1  0  0  3  0  0  0  0  0  0
  193.6300  176.2840  137.0180 C   0  0  0  0  0  3  0  0  0  0  0  0
  191.4440  174.9180  135.8930 C   0  0  1  0  0  3  0  0  0  0  0  0
  187.4150  173.3230  136.9450 C   0  0  0  0  0  1  0  0  0  0  0  0
  188.9190  173.4380  136.8050 C   0  0  0  0  0  2  0  0  0  0  0  0
  183.8270  178.5820  145.7910 O   0  0  0  0  0  0  0  0  0  0  0  0
  186.0230  179.0640  146.6540 C   0  0  0  0  0  3  0  0  0  0  0  0
  185.1910  178.2780  145.8530 C   0  0  0  0  0  0  0  0  0  0  0  0
  187.1020  176.9130  145.2320 C   0  0  0  0  0  3  0  0  0  0  0  0
  187.9400  177.6950  146.0400 C   0  0  0  0  0  0  0  0  0  0  0  0
  187.3890  178.7750  146.7480 C   0  0  0  0  0  3  0  0  0  0  0  0
  185.7370  177.2000  145.1400 C   0  0  0  0  0  3  0  0  0  0  0  0
  191.6920  175.4330  147.4550 C   0  0  0  0  0  1  0  0  0  0  0  0
  191.6070  177.0330  145.5560 C   0  0  0  0  0  2  0  0  0  0  0  0
  191.4680  176.8850  147.0670 C   0  0  1  0  0  3  0  0  0  0  0  0
  190.0440  177.2870  147.4080 C   0  0  0  0  0  2  0  0  0  0  0  0
  189.3410  177.3930  146.1430 N   0  0  0  0  0  0  0  0  0  0  0  0
  190.2030  177.1830  144.9970 C   0  0  0  0  0  2  0  0  0  0  0  0
  1 15  1  0  0  0  0
  1 13  2  0  0  0  0
  2  6  2  0  0  0  0
  4  9  2  0  0  0  0
  4  3  1  0  0  0  0
  5 16  1  0  0  0  0
  5 14  1  0  0  0  0
  6  7  1  0  0  0  0
  7 34  1  1  0  0  0
  8  5  2  0  0  0  0
  9  2  1  0  0  0  0
 10  8  2  0  0  0  0
 11  7  1  0  0  0  0
 12  9  1  0  0  0  0
 12 16  2  0  0  0  0
 13  4  1  0  0  0  0
 14 11  1  0  0  0  0
 15 12  1  0  0  0  0
 16  6  1  0  0  0  0
 17 18  1  0  0  0  0
 17 21  1  0  0  0  0
 18 20  2  0  0  0  0
 19 13  1  6  0  0  0
 20 19  1  0  0  0  0
 21 19  1  0  0  0  0
 22 17  2  0  0  0  0
 24 28  1  0  0  0  0
 25 33  1  0  0  0  0
 25 29  1  0  0  0  0
 26 29  1  0  0  0  0
 26 23  2  0  0  0  0
 27 31  1  0  0  0  0
 27 25  1  0  0  0  0
 28 30  2  0  0  0  0
 29 18  1  6  0  0  0
 30 23  1  0  0  0  0
 31 24  1  6  0  0  0
 31 26  1  0  0  0  0
 33 32  1  0  0  0  0
 34 36  1  0  0  0  0
 35 39  1  0  0  0  0
 36 35  2  0  0  0  0
 37 38  1  0  0  0  0
 38 45  1  0  0  0  0
 38 39  2  0  0  0  0
 40 37  2  0  0  0  0
 40 36  1  0  0  0  0
 42 43  1  0  0  0  0
 43 44  1  0  0  0  0
 43 41  1  6  0  0  0
 45 44  1  0  0  0  0
 46 42  1  0  0  0  0
 46 45  1  0  0  0  0
M  END
>  <MODEL>
5

>  <REMARK>
 VINA RESULT:      -9.5      2.966      6.737
  Name = 
  6 active torsions:
  status: ('A' for Active; 'I' for Inactive)
    1  A    between atoms: C_14  and  O_18
    2  A    between atoms: C_16  and  N_27
    3  A    between atoms: C_17  and  O_18
    4  A    between atoms: C_24  and  N_37
    5  A    between atoms: C_26  and  C_38
    6  A    between atoms: C_30  and  C_39
                            x       y       z     vdW  Elec       q    Type
                         _______ _______ _______ _____ _____    ______ ____

>  <TORSDO>
F 6

$$$$
=
 OpenBabel10232408583D

 46 53  0  0  1  0  0  0  0  0999 V2000
  186.1970  178.3400  139.0550 C   0  0  0  0  0  3  0  0  0  0  0  0
  185.4470  178.8890  143.3070 C   0  0  0  0  0  3  0  0  0  0  0  0
  188.1490  178.6740  142.2380 O   0  0  0  0  0  1  0  0  0  0  0  0
  187.0420  178.5950  141.3960 C   0  0  0  0  0  0  0  0  0  0  0  0
  182.0340  178.8270  141.9120 C   0  0  0  0  0  0  0  0  0  0  0  0
  184.0540  178.9210  143.3750 C   0  0  0  0  0  0  0  0  0  0  0  0
  183.2250  179.1930  144.5980 C   0  0  1  0  0  3  0  0  0  0  0  0
  181.4880  178.6280  140.7420 C   0  0  0  0  0  0  0  0  0  0  0  0
  185.7630  178.7000  141.9700 C   0  0  0  0  0  0  0  0  0  0  0  0
  180.9690  178.4390  139.6330 O   0  0  0  0  0  0  0  0  0  0  0  0
  181.7940  178.6580  144.4010 C   0  0  0  0  0  2  0  0  0  0  0  0
  184.5280  178.6420  141.2290 C   0  0  0  0  0  0  0  0  0  0  0  0
  187.2460  178.4130  140.0000 C   0  0  0  0  0  0  0  0  0  0  0  0
  181.1690  179.1710  143.0930 C   0  0  0  0  0  2  0  0  0  0  0  0
  184.5790  178.4550  139.5610 S   0  0  0  0  0  0  0  0  0  0  0  0
  183.4930  178.7930  142.1180 C   0  0  0  0  0  0  0  0  0  0  0  0
  189.3570  178.4000  137.3450 C   0  0  0  0  0  0  0  0  0  0  0  0
  189.3610  176.9950  137.7050 C   0  0  0  0  0  0  0  0  0  0  0  0
  188.6590  178.2830  139.5080 C   0  0  1  0  0  3  0  0  0  0  0  0
  188.9420  176.9030  138.9620 C   0  0  0  0  0  3  0  0  0  0  0  0
  188.9090  179.1540  138.4090 O   0  0  0  0  0  0  0  0  0  0  0  0
  189.6810  178.8880  136.2260 O   0  0  0  0  0  0  0  0  0  0  0  0
  187.6570  175.7270  135.5260 C   0  0  0  0  0  3  0  0  0  0  0  0
  187.2360  173.3050  136.9100 C   0  0  0  0  0  2  0  0  0  0  0  0
  190.3600  174.7560  137.7110 N   0  0  0  0  0  0  0  0  0  0  0  0
  188.6510  175.1680  136.2250 C   0  0  0  0  0  0  0  0  0  0  0  0
  189.5180  173.6600  137.7200 O   0  0  0  0  0  0  0  0  0  0  0  0
  186.3270  173.7400  135.8350 N   0  0  0  0  0  0  0  0  0  0  0  0
  189.7890  175.8150  136.8680 C   0  0  1  0  0  3  0  0  0  0  0  0
  186.4890  174.8760  135.2140 C   0  0  0  0  0  3  0  0  0  0  0  0
  188.6670  173.7580  136.5980 C   0  0  1  0  0  3  0  0  0  0  0  0
  192.7590  175.1600  137.7210 C   0  0  0  0  0  1  0  0  0  0  0  0
  191.6300  174.3470  137.1200 C   0  0  0  0  0  2  0  0  0  0  0  0
  183.8210  178.5870  145.7430 O   0  0  0  0  0  0  0  0  0  0  0  0
  186.0090  179.0770  146.6230 C   0  0  0  0  0  3  0  0  0  0  0  0
  185.1840  178.2840  145.8210 C   0  0  0  0  0  0  0  0  0  0  0  0
  187.1010  176.9130  145.2310 C   0  0  0  0  0  3  0  0  0  0  0  0
  187.9310  177.7020  146.0410 C   0  0  0  0  0  0  0  0  0  0  0  0
  187.3730  178.7880  146.7340 C   0  0  0  0  0  3  0  0  0  0  0  0
  185.7370  177.1990  145.1230 C   0  0  0  0  0  3  0  0  0  0  0  0
  191.6650  175.4190  147.4720 C   0  0  0  0  0  1  0  0  0  0  0  0
  191.6070  177.0570  145.6040 C   0  0  0  0  0  2  0  0  0  0  0  0
  191.4440  176.8780  147.1090 C   0  0  1  0  0  3  0  0  0  0  0  0
  190.0140  177.2710  147.4350 C   0  0  0  0  0  2  0  0  0  0  0  0
  189.3320  177.4010  146.1610 N   0  0  0  0  0  0  0  0  0  0  0  0
  190.2120  177.2160  145.0250 C   0  0  0  0  0  2  0  0  0  0  0  0
  1 15  1  0  0  0  0
  1 13  2  0  0  0  0
  2  6  2  0  0  0  0
  4  9  2  0  0  0  0
  4  3  1  0  0  0  0
  5 16  1  0  0  0  0
  5 14  1  0  0  0  0
  6  7  1  0  0  0  0
  7 34  1  1  0  0  0
  8  5  2  0  0  0  0
  9  2  1  0  0  0  0
 10  8  2  0  0  0  0
 11  7  1  0  0  0  0
 12  9  1  0  0  0  0
 12 16  2  0  0  0  0
 13  4  1  0  0  0  0
 14 11  1  0  0  0  0
 15 12  1  0  0  0  0
 16  6  1  0  0  0  0
 17 18  1  0  0  0  0
 17 21  1  0  0  0  0
 18 20  2  0  0  0  0
 19 13  1  6  0  0  0
 20 19  1  0  0  0  0
 21 19  1  0  0  0  0
 22 17  2  0  0  0  0
 23 26  2  0  0  0  0
 25 27  1  0  0  0  0
 26 31  1  0  0  0  0
 26 29  1  0  0  0  0
 28 24  1  0  0  0  0
 29 18  1  1  0  0  0
 29 25  1  0  0  0  0
 30 23  1  0  0  0  0
 30 28  2  0  0  0  0
 31 24  1  1  0  0  0
 31 27  1  0  0  0  0
 33 25  1  0  0  0  0
 33 32  1  0  0  0  0
 34 36  1  0  0  0  0
 35 39  1  0  0  0  0
 36 35  2  0  0  0  0
 37 38  1  0  0  0  0
 38 45  1  0  0  0  0
 38 39  2  0  0  0  0
 40 37  2  0  0  0  0
 40 36  1  0  0  0  0
 42 43  1  0  0  0  0
 43 44  1  0  0  0  0
 43 41  1  6  0  0  0
 45 44  1  0  0  0  0
 46 42  1  0  0  0  0
 46 45  1  0  0  0  0
M  END
>  <MODEL>
6

>  <REMARK>
 VINA RESULT:      -9.4      3.374      6.888
  Name = 
  6 active torsions:
  status: ('A' for Active; 'I' for Inactive)
    1  A    between atoms: C_14  and  O_18
    2  A    between atoms: C_16  and  N_27
    3  A    between atoms: C_17  and  O_18
    4  A    between atoms: C_24  and  N_37
    5  A    between atoms: C_26  and  C_38
    6  A    between atoms: C_30  and  C_39
                            x       y       z     vdW  Elec       q    Type
                         _______ _______ _______ _____ _____    ______ ____

>  <TORSDO>
F 6

$$$$
=
 OpenBabel10232408583D

 46 53  0  0  1  0  0  0  0  0999 V2000
  189.8060  174.3880  136.7350 C   0  0  0  0  0  3  0  0  0  0  0  0
  187.2820  177.8210  137.6250 C   0  0  0  0  0  3  0  0  0  0  0  0
  190.1820  178.0490  137.4480 O   0  0  0  0  0  1  0  0  0  0  0  0
  189.5510  176.8220  137.2570 C   0  0  0  0  0  0  0  0  0  0  0  0
  184.8120  175.1090  137.2590 C   0  0  0  0  0  0  0  0  0  0  0  0
  186.0010  177.2720  137.6310 C   0  0  0  0  0  0  0  0  0  0  0  0
  184.7080  178.0210  137.7850 C   0  0  1  0  0  3  0  0  0  0  0  0
  184.8380  173.8170  137.0670 C   0  0  0  0  0  0  0  0  0  0  0  0
  188.1500  176.7730  137.3600 C   0  0  0  0  0  0  0  0  0  0  0  0
  184.8630  172.5910  136.8860 O   0  0  0  0  0  0  0  0  0  0  0  0
  183.5890  177.0640  138.2400 C   0  0  0  0  0  2  0  0  0  0  0  0
  187.3600  175.5800  137.1830 C   0  0  0  0  0  0  0  0  0  0  0  0
  190.3420  175.6750  136.9670 C   0  0  0  0  0  0  0  0  0  0  0  0
  183.4930  175.8270  137.3310 C   0  0  0  0  0  2  0  0  0  0  0  0
  188.1270  174.1340  136.8100 S   0  0  0  0  0  0  0  0  0  0  0  0
  186.0390  175.9200  137.3430 C   0  0  0  0  0  0  0  0  0  0  0  0
  193.2700  174.7810  135.5060 C   0  0  0  0  0  0  0  0  0  0  0  0
  193.3980  174.1310  136.7980 C   0  0  0  0  0  0  0  0  0  0  0  0
  191.8340  175.8450  136.9140 C   0  0  1  0  0  3  0  0  0  0  0  0
  192.5560  174.7300  137.6320 C   0  0  0  0  0  3  0  0  0  0  0  0
  192.3170  175.7750  135.5770 O   0  0  0  0  0  0  0  0  0  0  0  0
  193.9000  174.4840  134.4520 O   0  0  0  0  0  0  0  0  0  0  0  0
  195.4450  174.3060  139.0420 C   0  0  0  0  0  3  0  0  0  0  0  0
  197.6940  174.2150  137.3420 C   0  0  0  0  0  2  0  0  0  0  0  0
  194.9590  172.4130  136.0090 N   0  0  0  0  0  0  0  0  0  0  0  0
  195.4550  173.4940  137.9800 C   0  0  0  0  0  0  0  0  0  0  0  0
  196.3100  172.7050  136.0030 O   0  0  0  0  0  0  0  0  0  0  0  0
  197.7860  174.7720  138.7030 N   0  0  0  0  0  0  0  0  0  0  0  0
  194.3260  173.0090  137.1930 C   0  0  1  0  0  3  0  0  0  0  0  0
  196.7440  174.8550  139.4850 C   0  0  0  0  0  3  0  0  0  0  0  0
  196.6810  173.0640  137.3160 C   0  0  1  0  0  3  0  0  0  0  0  0
  193.4080  170.5690  135.6760 C   0  0  0  0  0  1  0  0  0  0  0  0
  194.8080  170.9650  136.1000 C   0  0  0  0  0  2  0  0  0  0  0  0
  184.8600  179.0790  138.7270 O   0  0  0  0  0  0  0  0  0  0  0  0
  186.3190  178.7840  140.6210 C   0  0  0  0  0  3  0  0  0  0  0  0
  185.0250  178.8600  140.0990 C   0  0  0  0  0  0  0  0  0  0  0  0
  184.1220  178.5210  142.3280 C   0  0  0  0  0  3  0  0  0  0  0  0
  185.4190  178.4510  142.8570 C   0  0  0  0  0  0  0  0  0  0  0  0
  186.5160  178.5820  141.9910 C   0  0  0  0  0  3  0  0  0  0  0  0
  183.9250  178.7260  140.9600 C   0  0  0  0  0  3  0  0  0  0  0  0
  187.8000  177.9880  146.7710 C   0  0  0  0  0  1  0  0  0  0  0  0
  185.3550  178.4030  146.6140 C   0  0  0  0  0  2  0  0  0  0  0  0
  186.4710  177.4090  146.3160 C   0  0  1  0  0  3  0  0  0  0  0  0
  186.4880  177.2210  144.8100 C   0  0  0  0  0  2  0  0  0  0  0  0
  185.6210  178.2500  144.2660 N   0  0  0  0  0  0  0  0  0  0  0  0
  184.9670  179.0390  145.2910 C   0  0  0  0  0  2  0  0  0  0  0  0
  1 15  1  0  0  0  0
  1 13  2  0  0  0  0
  2  6  2  0  0  0  0
  4  9  2  0  0  0  0
  4  3  1  0  0  0  0
  5 14  1  0  0  0  0
  5 16  1  0  0  0  0
  6  7  1  0  0  0  0
  7 11  1  0  0  0  0
  7 34  1  1  0  0  0
  8  5  2  0  0  0  0
  9  2  1  0  0  0  0
 10  8  2  0  0  0  0
 12 16  2  0  0  0  0
 12  9  1  0  0  0  0
 13  4  1  0  0  0  0
 14 11  1  0  0  0  0
 15 12  1  0  0  0  0
 16  6  1  0  0  0  0
 17 21  1  0  0  0  0
 17 18  1  0  0  0  0
 18 20  2  0  0  0  0
 19 13  1  6  0  0  0
 19 20  1  0  0  0  0
 21 19  1  0  0  0  0
 22 17  2  0  0  0  0
 23 30  1  0  0  0  0
 24 28  1  0  0  0  0
 25 33  1  0  0  0  0
 25 29  1  0  0  0  0
 26 23  2  0  0  0  0
 27 25  1  0  0  0  0
 27 31  1  0  0  0  0
 28 30  2  0  0  0  0
 29 18  1  6  0  0  0
 29 26  1  0  0  0  0
 31 24  1  6  0  0  0
 31 26  1  0  0  0  0
 32 33  1  0  0  0  0
 34 36  1  0  0  0  0
 35 39  1  0  0  0  0
 36 35  2  0  0  0  0
 36 40  1  0  0  0  0
 37 38  1  0  0  0  0
 38 45  1  0  0  0  0
 39 38  2  0  0  0  0
 40 37  2  0  0  0  0
 43 42  1  0  0  0  0
 43 41  1  6  0  0  0
 44 43  1  0  0  0  0
 45 44  1  0  0  0  0
 45 46  1  0  0  0  0
 46 42  1  0  0  0  0
M  END
>  <MODEL>
7

>  <REMARK>
 VINA RESULT:      -9.1      3.350      6.534
  Name = 
  6 active torsions:
  status: ('A' for Active; 'I' for Inactive)
    1  A    between atoms: C_14  and  O_18
    2  A    between atoms: C_16  and  N_27
    3  A    between atoms: C_17  and  O_18
    4  A    between atoms: C_24  and  N_37
    5  A    between atoms: C_26  and  C_38
    6  A    between atoms: C_30  and  C_39
                            x       y       z     vdW  Elec       q    Type
                         _______ _______ _______ _____ _____    ______ ____

>  <TORSDO>
F 6

$$$$
=
 OpenBabel10232408583D

 46 53  0  0  1  0  0  0  0  0999 V2000
  190.7160  177.2660  140.7170 C   0  0  0  0  0  3  0  0  0  0  0  0
  187.4120  177.3730  137.8850 C   0  0  0  0  0  3  0  0  0  0  0  0
  187.3020  178.7870  140.4300 O   0  0  0  0  0  1  0  0  0  0  0  0
  188.4230  178.0390  140.0790 C   0  0  0  0  0  0  0  0  0  0  0  0
  189.8680  175.2450  136.1420 C   0  0  0  0  0  0  0  0  0  0  0  0
  187.8710  176.5690  136.8420 C   0  0  0  0  0  0  0  0  0  0  0  0
  187.1790  176.3240  135.5310 C   0  0  1  0  0  3  0  0  0  0  0  0
  191.0370  174.7280  136.4080 C   0  0  0  0  0  0  0  0  0  0  0  0
  188.4170  177.3740  138.8410 C   0  0  0  0  0  0  0  0  0  0  0  0
  192.1460  174.2350  136.6610 O   0  0  0  0  0  0  0  0  0  0  0  0
  187.7130  175.0350  134.8800 C   0  0  0  0  0  2  0  0  0  0  0  0
  189.5030  176.5690  138.3410 C   0  0  0  0  0  0  0  0  0  0  0  0
  189.5230  177.9780  140.9800 C   0  0  0  0  0  0  0  0  0  0  0  0
  189.2480  175.0360  134.7880 C   0  0  0  0  0  2  0  0  0  0  0  0
  190.8960  176.4040  139.2630 S   0  0  0  0  0  0  0  0  0  0  0  0
  189.1440  176.0960  137.1020 C   0  0  0  0  0  0  0  0  0  0  0  0
  190.6950  178.3960  144.1360 C   0  0  0  0  0  0  0  0  0  0  0  0
  189.4330  177.7290  144.3970 C   0  0  0  0  0  0  0  0  0  0  0  0
  189.4010  178.7040  142.2890 C   0  0  1  0  0  3  0  0  0  0  0  0
  188.6670  177.8850  143.3240 C   0  0  0  0  0  3  0  0  0  0  0  0
  190.6780  178.9440  142.8700 O   0  0  0  0  0  0  0  0  0  0  0  0
  191.6860  178.4580  144.9160 O   0  0  0  0  0  0  0  0  0  0  0  0
  186.5470  177.5150  145.3380 C   0  0  0  0  0  3  0  0  0  0  0  0
  186.8980  179.1510  147.6080 C   0  0  0  0  0  2  0  0  0  0  0  0
  189.8480  177.3820  146.7890 N   0  0  0  0  0  0  0  0  0  0  0  0
  187.6610  177.4210  146.0710 C   0  0  0  0  0  0  0  0  0  0  0  0
  189.1180  178.1240  147.6970 O   0  0  0  0  0  0  0  0  0  0  0  0
  185.5650  178.9360  147.0190 N   0  0  0  0  0  0  0  0  0  0  0  0
  188.9970  177.0110  145.6500 C   0  0  1  0  0  3  0  0  0  0  0  0
  185.3950  178.2120  145.9460 C   0  0  0  0  0  3  0  0  0  0  0  0
  187.7490  177.8860  147.4510 C   0  0  1  0  0  3  0  0  0  0  0  0
  191.7920  176.1040  147.5010 C   0  0  0  0  0  1  0  0  0  0  0  0
  190.2780  176.1530  147.4490 C   0  0  0  0  0  2  0  0  0  0  0  0
  185.7700  176.2260  135.7270 O   0  0  0  0  0  0  0  0  0  0  0  0
  184.1740  174.8520  134.5610 C   0  0  0  0  0  3  0  0  0  0  0  0
  185.0680  175.0220  135.6210 C   0  0  0  0  0  0  0  0  0  0  0  0
  184.5430  172.7830  136.4030 C   0  0  0  0  0  3  0  0  0  0  0  0
  183.6490  172.6060  135.3370 C   0  0  0  0  0  0  0  0  0  0  0  0
  183.4690  173.6520  134.4180 C   0  0  0  0  0  3  0  0  0  0  0  0
  185.2490  173.9800  136.5440 C   0  0  0  0  0  3  0  0  0  0  0  0
  180.0400  169.8840  134.4570 C   0  0  0  0  0  1  0  0  0  0  0  0
  182.4070  169.1380  134.5930 C   0  0  0  0  0  2  0  0  0  0  0  0
  181.2370  169.7180  135.3790 C   0  0  1  0  0  3  0  0  0  0  0  0
  181.6870  171.0810  135.8760 C   0  0  0  0  0  2  0  0  0  0  0  0
  182.9300  171.3700  135.1860 N   0  0  0  0  0  0  0  0  0  0  0  0
  183.3800  170.2770  134.3480 C   0  0  0  0  0  2  0  0  0  0  0  0
  1 13  2  0  0  0  0
  2  9  1  0  0  0  0
  4  3  1  0  0  0  0
  4 13  1  0  0  0  0
  5  8  2  0  0  0  0
  5 16  1  0  0  0  0
  6 16  1  0  0  0  0
  6  2  2  0  0  0  0
  7 34  1  1  0  0  0
  7  6  1  0  0  0  0
  8 10  2  0  0  0  0
  9  4  2  0  0  0  0
 11  7  1  0  0  0  0
 12  9  1  0  0  0  0
 12 15  1  0  0  0  0
 14 11  1  0  0  0  0
 14  5  1  0  0  0  0
 15  1  1  0  0  0  0
 16 12  2  0  0  0  0
 17 18  1  0  0  0  0
 17 22  2  0  0  0  0
 19 13  1  6  0  0  0
 19 21  1  0  0  0  0
 19 20  1  0  0  0  0
 20 18  2  0  0  0  0
 21 17  1  0  0  0  0
 23 30  1  0  0  0  0
 23 26  2  0  0  0  0
 25 33  1  0  0  0  0
 25 27  1  0  0  0  0
 26 31  1  0  0  0  0
 28 24  1  0  0  0  0
 29 18  1  6  0  0  0
 29 26  1  0  0  0  0
 29 25  1  0  0  0  0
 30 28  2  0  0  0  0
 31 24  1  6  0  0  0
 31 27  1  0  0  0  0
 33 32  1  0  0  0  0
 35 36  1  0  0  0  0
 36 34  1  0  0  0  0
 36 40  2  0  0  0  0
 37 40  1  0  0  0  0
 38 37  2  0  0  0  0
 39 35  2  0  0  0  0
 39 38  1  0  0  0  0
 42 43  1  0  0  0  0
 43 41  1  6  0  0  0
 43 44  1  0  0  0  0
 45 38  1  0  0  0  0
 45 44  1  0  0  0  0
 46 42  1  0  0  0  0
 46 45  1  0  0  0  0
M  END
>  <MODEL>
8

>  <REMARK>
 VINA RESULT:      -9.0      5.172      9.627
  Name = 
  6 active torsions:
  status: ('A' for Active; 'I' for Inactive)
    1  A    between atoms: C_14  and  O_18
    2  A    between atoms: C_16  and  N_27
    3  A    between atoms: C_17  and  O_18
    4  A    between atoms: C_24  and  N_37
    5  A    between atoms: C_26  and  C_38
    6  A    between atoms: C_30  and  C_39
                            x       y       z     vdW  Elec       q    Type
                         _______ _______ _______ _____ _____    ______ ____

>  <TORSDO>
F 6

$$$$
=
 OpenBabel10232408583D

 46 53  0  0  1  0  0  0  0  0999 V2000
  192.4830  173.4650  136.6800 C   0  0  0  0  0  3  0  0  0  0  0  0
  190.5900  177.2420  137.7260 C   0  0  0  0  0  3  0  0  0  0  0  0
  193.4830  176.9070  137.7770 O   0  0  0  0  0  1  0  0  0  0  0  0
  192.6510  175.8490  137.4210 C   0  0  0  0  0  0  0  0  0  0  0  0
  187.6910  175.1100  136.9200 C   0  0  0  0  0  0  0  0  0  0  0  0
  189.2320  176.9580  137.5870 C   0  0  0  0  0  0  0  0  0  0  0  0
  188.0960  177.9320  137.7230 C   0  0  1  0  0  3  0  0  0  0  0  0
  187.4890  173.8600  136.6030 C   0  0  0  0  0  0  0  0  0  0  0  0
  191.2620  176.0690  137.4200 C   0  0  0  0  0  0  0  0  0  0  0  0
  187.2960  172.6730  136.3030 O   0  0  0  0  0  0  0  0  0  0  0  0
  186.7800  177.1800  138.0010 C   0  0  0  0  0  2  0  0  0  0  0  0
  190.2790  175.0750  137.0710 C   0  0  0  0  0  0  0  0  0  0  0  0
  193.2320  174.5970  137.0750 C   0  0  0  0  0  0  0  0  0  0  0  0
  186.5310  176.0670  136.9700 C   0  0  0  0  0  2  0  0  0  0  0  0
  190.7870  173.5420  136.6110 S   0  0  0  0  0  0  0  0  0  0  0  0
  189.0380  175.6530  137.1700 C   0  0  0  0  0  0  0  0  0  0  0  0
  196.1180  173.8690  135.4480 C   0  0  0  0  0  0  0  0  0  0  0  0
  195.9900  172.7100  136.3110 C   0  0  0  0  0  0  0  0  0  0  0  0
  194.7270  174.4740  137.1450 C   0  0  1  0  0  3  0  0  0  0  0  0
  195.1690  173.0380  137.3030 C   0  0  0  0  0  3  0  0  0  0  0  0
  195.3400  174.9000  135.9320 O   0  0  0  0  0  0  0  0  0  0  0  0
  196.8050  173.9450  134.3900 O   0  0  0  0  0  0  0  0  0  0  0  0
  194.5760  170.1410  135.4960 C   0  0  0  0  0  3  0  0  0  0  0  0
  194.8330  168.9000  138.0160 C   0  0  0  0  0  2  0  0  0  0  0  0
  197.5200  171.1010  137.3500 N   0  0  0  0  0  0  0  0  0  0  0  0
  195.7050  170.2730  136.2000 C   0  0  0  0  0  0  0  0  0  0  0  0
  196.9820  170.0690  138.0950 O   0  0  0  0  0  0  0  0  0  0  0  0
  193.8030  168.4720  137.0540 N   0  0  0  0  0  0  0  0  0  0  0  0
  196.6680  171.3690  136.1830 C   0  0  1  0  0  3  0  0  0  0  0  0
  193.6500  169.0640  135.9010 C   0  0  0  0  0  3  0  0  0  0  0  0
  196.0910  169.3540  137.2670 C   0  0  1  0  0  3  0  0  0  0  0  0
  199.7220  171.8840  136.6760 C   0  0  0  0  0  1  0  0  0  0  0  0
  198.8280  170.6750  136.8630 C   0  0  0  0  0  2  0  0  0  0  0  0
  188.3630  178.8560  138.7750 O   0  0  0  0  0  0  0  0  0  0  0  0
  189.2500  178.0260  140.8540 C   0  0  0  0  0  3  0  0  0  0  0  0
  188.1770  178.5480  140.1260 C   0  0  0  0  0  0  0  0  0  0  0  0
  186.7960  178.4540  142.1220 C   0  0  0  0  0  3  0  0  0  0  0  0
  187.8720  177.9360  142.8580 C   0  0  0  0  0  0  0  0  0  0  0  0
  189.1000  177.7230  142.2120 C   0  0  0  0  0  3  0  0  0  0  0  0
  186.9470  178.7600  140.7670 C   0  0  0  0  0  3  0  0  0  0  0  0
  188.9220  177.9760  147.3410 C   0  0  0  0  0  1  0  0  0  0  0  0
  186.7350  177.2890  146.3810 C   0  0  0  0  0  2  0  0  0  0  0  0
  188.2180  176.9470  146.4720 C   0  0  1  0  0  3  0  0  0  0  0  0
  188.7630  177.0200  145.0570 C   0  0  0  0  0  2  0  0  0  0  0  0
  187.7190  177.6320  144.2550 N   0  0  0  0  0  0  0  0  0  0  0  0
  186.5040  177.8830  145.0030 C   0  0  0  0  0  2  0  0  0  0  0  0
  1 13  2  0  0  0  0
  4  3  1  0  0  0  0
  5 14  1  0  0  0  0
  5 16  1  0  0  0  0
  6  7  1  0  0  0  0
  6  2  2  0  0  0  0
  7 11  1  0  0  0  0
  7 34  1  1  0  0  0
  8  5  2  0  0  0  0
  9  4  2  0  0  0  0
  9  2  1  0  0  0  0
 10  8  2  0  0  0  0
 12 16  2  0  0  0  0
 12  9  1  0  0  0  0
 13  4  1  0  0  0  0
 14 11  1  0  0  0  0
 15  1  1  0  0  0  0
 15 12  1  0  0  0  0
 16  6  1  0  0  0  0
 17 21  1  0  0  0  0
 17 18  1  0  0  0  0
 18 20  2  0  0  0  0
 19 13  1  6  0  0  0
 19 20  1  0  0  0  0
 21 19  1  0  0  0  0
 22 17  2  0  0  0  0
 23 30  1  0  0  0  0
 23 26  2  0  0  0  0
 25 27  1  0  0  0  0
 26 31  1  0  0  0  0
 28 24  1  0  0  0  0
 29 26  1  0  0  0  0
 29 18  1  1  0  0  0
 29 25  1  0  0  0  0
 30 28  2  0  0  0  0
 31 24  1  1  0  0  0
 31 27  1  0  0  0  0
 32 33  1  0  0  0  0
 33 25  1  0  0  0  0
 34 36  1  0  0  0  0
 35 39  1  0  0  0  0
 36 40  1  0  0  0  0
 36 35  2  0  0  0  0
 37 38  1  0  0  0  0
 38 45  1  0  0  0  0
 39 38  2  0  0  0  0
 40 37  2  0  0  0  0
 42 43  1  0  0  0  0
 43 41  1  1  0  0  0
 44 43  1  0  0  0  0
 45 46  1  0  0  0  0
 45 44  1  0  0  0  0
 46 42  1  0  0  0  0
M  END
>  <MODEL>
9

>  <REMARK>
 VINA RESULT:      -9.0      3.844      7.208
  Name = 
  6 active torsions:
  status: ('A' for Active; 'I' for Inactive)
    1  A    between atoms: C_14  and  O_18
    2  A    between atoms: C_16  and  N_27
    3  A    between atoms: C_17  and  O_18
    4  A    between atoms: C_24  and  N_37
    5  A    between atoms: C_26  and  C_38
    6  A    between atoms: C_30  and  C_39
                            x       y       z     vdW  Elec       q    Type
                         _______ _______ _______ _____ _____    ______ ____

>  <TORSDO>
F 6

$$$$
