=
 OpenBabel10232411083D

 39 44  0  0  1  0  0  0  0  0999 V2000
  182.6410  176.1030  138.7780 C   0  0  0  0  0  0  0  0  0  0  0  0
  181.2500  176.0330  139.3420 C   0  0  0  0  0  3  0  0  0  0  0  0
  184.1940  173.2810  137.1260 C   0  0  1  0  0  3  0  0  0  0  0  0
  182.2270  171.9950  136.8220 C   0  0  1  0  0  3  0  0  0  0  0  0
  182.8350  173.0600  137.4750 N   0  0  0  0  0  0  0  0  0  0  0  0
  180.9170  171.8870  136.8980 N   0  0  0  0  0  2  0  0  0  0  0  0
  183.6490  170.1420  136.0740 C   0  0  0  0  0  1  0  0  0  0  0  0
  183.1110  171.5160  135.7260 C   0  0  2  0  0  3  0  0  0  0  0  0
  180.1970  172.8480  137.7490 C   0  0  0  0  0  2  0  0  0  0  0  0
  184.2770  172.5640  135.7520 C   0  0  0  0  0  2  0  0  0  0  0  0
  184.3680  174.8400  137.2850 C   0  0  2  0  0  3  0  0  0  0  0  0
  182.9910  175.2710  137.7810 C   0  0  0  0  0  0  0  0  0  0  0  0
  180.8000  174.0330  138.0360 C   0  0  0  0  0  0  0  0  0  0  0  0
  182.0760  174.2480  137.3320 C   0  0  0  0  0  0  0  0  0  0  0  0
  180.3740  175.0580  139.0020 C   0  0  0  0  0  3  0  0  0  0  0  0
  184.7910  175.5170  135.9500 C   0  0  1  0  0  3  0  0  0  0  0  0
  186.6140  177.7780  136.6880 N   0  0  0  0  0  2  0  0  0  0  0  0
  185.1690  177.8940  136.7910 C   0  0  0  0  0  2  0  0  0  0  0  0
  184.4960  177.0130  135.7470 C   0  0  2  0  0  3  0  0  0  0  0  0
  186.1040  175.2000  135.5090 O   0  0  0  0  0  0  0  0  0  0  0  0
  186.9890  176.5850  137.4300 C   0  0  1  0  0  3  0  0  0  0  0  0
  187.1170  175.3630  136.5000 C   0  0  1  0  0  3  0  0  0  0  0  0
  187.9870  173.3290  136.3890 C   0  0  0  0  0  1  0  0  0  0  0  0
  187.2840  174.1850  137.2370 O   0  0  0  0  0  0  0  0  0  0  0  0
  188.2690  176.8250  138.2340 C   0  0  0  0  0  2  0  0  0  0  0  0
  188.1450  177.9810  139.2210 C   0  0  0  0  0  2  0  0  0  0  0  0
  188.9420  179.0490  138.8130 O   0  0  0  0  0  1  0  0  0  0  0  0
  183.0060  177.3040  135.6270 C   0  0  0  0  0  2  0  0  0  0  0  0
  181.2040  176.2150  134.3890 C   0  0  0  0  0  2  0  0  0  0  0  0
  182.4440  176.6920  134.3900 C   0  0  0  0  0  3  0  0  0  0  0  0
  183.6370  177.0240  139.3970 C   0  0  0  0  0  2  0  0  0  0  0  0
  183.2310  177.3590  140.6880 O   0  0  0  0  0  0  0  0  0  0  0  0
  183.9840  178.4870  141.0120 C   0  0  0  0  0  2  0  0  0  0  0  0
  184.7650  178.6050  145.2230 C   0  0  0  0  0  3  0  0  0  0  0  0
  184.2500  178.5080  142.4760 C   0  0  0  0  0  0  0  0  0  0  0  0
  185.7780  178.2270  144.3350 C   0  0  0  0  0  3  0  0  0  0  0  0
  185.5210  178.1810  142.9630 C   0  0  0  0  0  3  0  0  0  0  0  0
  183.2420  178.8960  143.3640 C   0  0  0  0  0  3  0  0  0  0  0  0
  183.4980  178.9410  144.7380 C   0  0  0  0  0  3  0  0  0  0  0  0
  1  2  1  0  0  0  0
  1 31  1  0  0  0  0
  3 10  1  6  0  0  0
  3 11  1  0  0  0  0
  3  5  1  0  0  0  0
  4  6  1  6  0  0  0
  4  5  1  0  0  0  0
  6  9  1  0  0  0  0
  8 10  1  0  0  0  0
  8  7  1  1  0  0  0
  8  4  1  0  0  0  0
  9 13  1  0  0  0  0
 11 12  1  6  0  0  0
 12  1  2  0  0  0  0
 13 15  1  0  0  0  0
 14  5  1  0  0  0  0
 14 12  1  0  0  0  0
 14 13  2  0  0  0  0
 15  2  2  0  0  0  0
 16 20  1  1  0  0  0
 16 11  1  0  0  0  0
 17 18  1  0  0  0  0
 17 21  1  0  0  0  0
 19 28  1  1  0  0  0
 19 16  1  0  0  0  0
 19 18  1  0  0  0  0
 20 22  1  0  0  0  0
 21 25  1  6  0  0  0
 22 24  1  1  0  0  0
 22 21  1  0  0  0  0
 23 24  1  0  0  0  0
 25 26  1  0  0  0  0
 27 26  1  0  0  0  0
 29 30  2  0  0  0  0
 30 28  1  0  0  0  0
 31 32  1  0  0  0  0
 32 33  1  0  0  0  0
 33 35  1  0  0  0  0
 35 37  2  0  0  0  0
 35 38  1  0  0  0  0
 36 34  2  0  0  0  0
 37 36  1  0  0  0  0
 38 39  2  0  0  0  0
 39 34  1  0  0  0  0
M  END
>  <MODEL>
1

>  <REMARK>
 VINA RESULT:      -6.2      0.000      0.000
  Name = 
  10 active torsions:
  status: ('A' for Active; 'I' for Inactive)
    1  A    between atoms: C_1  and  C_22
    2  A    between atoms: C_4  and  C_23
    3  A    between atoms: O_5  and  C_22
    4  A    between atoms: O_5  and  C_31
    5  A    between atoms: C_8  and  C_9
    6  A    between atoms: C_9  and  C_33
    7  A    between atoms: C_16  and  C_21
    8  A    between atoms: C_16  and  C_26
    9  A    between atoms: C_20  and  C_31
   10  A    between atoms: O_34  and  C_35
                            x       y       z     vdW  Elec       q    Type
                         _______ _______ _______ _____ _____    ______ ____

>  <TORSDO>
F 10

$$$$
=
 OpenBabel10232411083D

 39 44  0  0  1  0  0  0  0  0999 V2000
  186.3190  177.6620  138.2480 C   0  0  0  0  0  0  0  0  0  0  0  0
  185.2400  178.4410  138.9440 C   0  0  0  0  0  3  0  0  0  0  0  0
  185.8450  174.2310  137.1940 C   0  0  1  0  0  3  0  0  0  0  0  0
  183.4850  174.1780  137.4080 C   0  0  1  0  0  3  0  0  0  0  0  0
  184.6700  174.8340  137.7180 N   0  0  0  0  0  0  0  0  0  0  0  0
  182.3510  174.8060  137.6350 N   0  0  0  0  0  2  0  0  0  0  0  0
  183.5820  171.7610  137.0020 C   0  0  0  0  0  1  0  0  0  0  0  0
  183.7500  173.1350  136.3820 C   0  0  2  0  0  3  0  0  0  0  0  0
  182.4140  176.1220  138.2910 C   0  0  0  0  0  2  0  0  0  0  0  0
  185.2610  173.3780  136.0360 C   0  0  0  0  0  2  0  0  0  0  0  0
  186.8110  175.4530  136.9480 C   0  0  2  0  0  3  0  0  0  0  0  0
  185.9810  176.6280  137.4550 C   0  0  0  0  0  0  0  0  0  0  0  0
  183.5770  176.8230  138.2180 C   0  0  0  0  0  0  0  0  0  0  0  0
  184.6040  176.2040  137.3620 C   0  0  0  0  0  0  0  0  0  0  0  0
  183.9430  178.0520  138.9400 C   0  0  0  0  0  3  0  0  0  0  0  0
  187.2220  175.5770  135.4540 C   0  0  1  0  0  3  0  0  0  0  0  0
  189.9610  176.7930  135.4290 N   0  0  0  0  0  2  0  0  0  0  0  0
  188.7670  177.6000  135.6150 C   0  0  0  0  0  2  0  0  0  0  0  0
  187.5860  176.9640  134.8940 C   0  0  2  0  0  3  0  0  0  0  0  0
  188.1470  174.5960  135.0050 O   0  0  0  0  0  0  0  0  0  0  0  0
  189.9060  175.7320  136.4220 C   0  0  1  0  0  3  0  0  0  0  0  0
  189.2970  174.4440  135.8340 C   0  0  1  0  0  3  0  0  0  0  0  0
  188.8200  172.3050  136.1510 C   0  0  0  0  0  1  0  0  0  0  0  0
  189.0660  173.4950  136.8350 O   0  0  0  0  0  0  0  0  0  0  0  0
  191.2880  175.4850  137.0300 C   0  0  0  0  0  2  0  0  0  0  0  0
  191.7790  176.6440  137.8890 C   0  0  0  0  0  2  0  0  0  0  0  0
  193.1730  176.6670  137.9140 O   0  0  0  0  0  1  0  0  0  0  0  0
  186.3860  177.8990  134.8240 C   0  0  0  0  0  2  0  0  0  0  0  0
  183.9940  177.7800  134.3460 C   0  0  0  0  0  2  0  0  0  0  0  0
  185.1750  177.1730  134.3460 C   0  0  0  0  0  3  0  0  0  0  0  0
  187.7490  177.9840  138.5220 C   0  0  0  0  0  2  0  0  0  0  0  0
  187.8620  178.6070  139.7640 O   0  0  0  0  0  0  0  0  0  0  0  0
  188.6490  177.7410  140.5220 C   0  0  0  0  0  2  0  0  0  0  0  0
  187.0690  177.4370  144.4930 C   0  0  0  0  0  3  0  0  0  0  0  0
  188.1080  177.6540  141.9060 C   0  0  0  0  0  0  0  0  0  0  0  0
  186.2960  178.0040  143.4750 C   0  0  0  0  0  3  0  0  0  0  0  0
  186.8130  178.1100  142.1820 C   0  0  0  0  0  3  0  0  0  0  0  0
  188.8760  177.0770  142.9230 C   0  0  0  0  0  3  0  0  0  0  0  0
  188.3580  176.9710  144.2170 C   0  0  0  0  0  3  0  0  0  0  0  0
  1 31  1  0  0  0  0
  1  2  1  0  0  0  0
  3 10  1  6  0  0  0
  3  5  1  0  0  0  0
  4  6  1  6  0  0  0
  4  5  1  0  0  0  0
  6  9  1  0  0  0  0
  8  7  1  1  0  0  0
  8  4  1  0  0  0  0
 10  8  1  0  0  0  0
 11  3  1  0  0  0  0
 11 12  1  6  0  0  0
 12  1  2  0  0  0  0
 13  9  1  0  0  0  0
 13 15  1  0  0  0  0
 14 12  1  0  0  0  0
 14  5  1  0  0  0  0
 14 13  2  0  0  0  0
 15  2  2  0  0  0  0
 16 20  1  1  0  0  0
 16 11  1  0  0  0  0
 17 18  1  0  0  0  0
 17 21  1  0  0  0  0
 19 28  1  1  0  0  0
 19 16  1  0  0  0  0
 19 18  1  0  0  0  0
 20 22  1  0  0  0  0
 21 25  1  6  0  0  0
 22 21  1  0  0  0  0
 22 24  1  1  0  0  0
 23 24  1  0  0  0  0
 25 26  1  0  0  0  0
 26 27  1  0  0  0  0
 30 29  2  0  0  0  0
 30 28  1  0  0  0  0
 31 32  1  0  0  0  0
 32 33  1  0  0  0  0
 33 35  1  0  0  0  0
 35 37  2  0  0  0  0
 35 38  1  0  0  0  0
 36 34  2  0  0  0  0
 37 36  1  0  0  0  0
 38 39  2  0  0  0  0
 39 34  1  0  0  0  0
M  END
>  <MODEL>
2

>  <REMARK>
 VINA RESULT:      -6.1      2.137      3.454
  Name = 
  10 active torsions:
  status: ('A' for Active; 'I' for Inactive)
    1  A    between atoms: C_1  and  C_22
    2  A    between atoms: C_4  and  C_23
    3  A    between atoms: O_5  and  C_22
    4  A    between atoms: O_5  and  C_31
    5  A    between atoms: C_8  and  C_9
    6  A    between atoms: C_9  and  C_33
    7  A    between atoms: C_16  and  C_21
    8  A    between atoms: C_16  and  C_26
    9  A    between atoms: C_20  and  C_31
   10  A    between atoms: O_34  and  C_35
                            x       y       z     vdW  Elec       q    Type
                         _______ _______ _______ _____ _____    ______ ____

>  <TORSDO>
F 10

$$$$
=
 OpenBabel10232411083D

 39 44  0  0  1  0  0  0  0  0999 V2000
  188.0010  174.4180  136.4020 C   0  0  0  0  0  0  0  0  0  0  0  0
  187.7870  173.3320  135.3860 C   0  0  0  0  0  3  0  0  0  0  0  0
  191.2320  175.0280  137.9170 C   0  0  1  0  0  3  0  0  0  0  0  0
  192.5220  173.7610  136.3860 C   0  0  1  0  0  3  0  0  0  0  0  0
  191.2600  174.0460  136.8900 N   0  0  0  0  0  0  0  0  0  0  0  0
  192.6020  173.0620  135.2730 N   0  0  0  0  0  2  0  0  0  0  0  0
  194.4520  174.0880  137.8640 C   0  0  0  0  0  1  0  0  0  0  0  0
  193.4980  174.7600  136.8960 C   0  0  2  0  0  3  0  0  0  0  0  0
  191.3500  172.5500  134.6930 C   0  0  0  0  0  2  0  0  0  0  0  0
  192.5760  175.7640  137.6730 C   0  0  0  0  0  2  0  0  0  0  0  0
  189.8310  175.7270  137.7240 C   0  0  2  0  0  3  0  0  0  0  0  0
  189.2320  174.9350  136.5650 C   0  0  0  0  0  0  0  0  0  0  0  0
  190.1850  173.1670  135.0270 C   0  0  0  0  0  0  0  0  0  0  0  0
  190.3560  174.3770  135.8510 C   0  0  0  0  0  0  0  0  0  0  0  0
  188.8100  172.7320  134.7350 C   0  0  0  0  0  3  0  0  0  0  0  0
  189.9750  177.2470  137.4330 C   0  0  1  0  0  3  0  0  0  0  0  0
  187.8120  178.6150  138.9920 N   0  0  0  0  0  2  0  0  0  0  0  0
  187.5440  177.9580  137.7240 C   0  0  0  0  0  2  0  0  0  0  0  0
  188.7790  178.0080  136.8350 C   0  0  2  0  0  3  0  0  0  0  0  0
  190.5780  178.0010  138.4770 O   0  0  0  0  0  0  0  0  0  0  0  0
  188.4780  177.6350  139.8350 C   0  0  1  0  0  3  0  0  0  0  0  0
  190.0100  177.7850  139.7670 C   0  0  1  0  0  3  0  0  0  0  0  0
  191.7050  177.3160  141.1140 C   0  0  0  0  0  1  0  0  0  0  0  0
  190.6480  176.7250  140.4200 O   0  0  0  0  0  0  0  0  0  0  0  0
  187.9600  177.7150  141.2730 C   0  0  0  0  0  2  0  0  0  0  0  0
  186.8100  178.7020  141.4400 C   0  0  0  0  0  2  0  0  0  0  0  0
  186.0000  178.3210  142.5090 O   0  0  0  0  0  1  0  0  0  0  0  0
  188.4740  177.5840  135.4040 C   0  0  0  0  0  2  0  0  0  0  0  0
  186.3450  177.0230  134.3480 C   0  0  0  0  0  2  0  0  0  0  0  0
  187.0600  177.8950  135.0500 C   0  0  0  0  0  3  0  0  0  0  0  0
  186.8700  174.8370  137.2780 C   0  0  0  0  0  2  0  0  0  0  0  0
  186.0540  173.7390  137.5520 O   0  0  0  0  0  0  0  0  0  0  0  0
  184.7560  174.2030  137.3420 C   0  0  0  0  0  2  0  0  0  0  0  0
  182.2430  170.9380  136.1660 C   0  0  0  0  0  3  0  0  0  0  0  0
  183.8840  173.0760  136.9140 C   0  0  0  0  0  0  0  0  0  0  0  0
  183.6340  170.7910  136.1510 C   0  0  0  0  0  3  0  0  0  0  0  0
  184.4540  171.8570  136.5270 C   0  0  0  0  0  3  0  0  0  0  0  0
  182.4930  173.2190  136.9390 C   0  0  0  0  0  3  0  0  0  0  0  0
  181.6720  172.1520  136.5620 C   0  0  0  0  0  3  0  0  0  0  0  0
  1 12  1  0  0  0  0
  1 31  1  0  0  0  0
  2  1  2  0  0  0  0
  3 10  1  6  0  0  0
  4  6  1  6  0  0  0
  4  5  1  0  0  0  0
  4  8  1  0  0  0  0
  5  3  1  0  0  0  0
  8 10  1  0  0  0  0
  8  7  1  1  0  0  0
  9 13  1  0  0  0  0
  9  6  1  0  0  0  0
 11 12  1  6  0  0  0
 11  3  1  0  0  0  0
 13 14  1  0  0  0  0
 14 12  2  0  0  0  0
 14  5  1  0  0  0  0
 15 13  2  0  0  0  0
 15  2  1  0  0  0  0
 16 11  1  0  0  0  0
 16 20  1  1  0  0  0
 17 21  1  0  0  0  0
 18 17  1  0  0  0  0
 19 28  1  6  0  0  0
 19 16  1  0  0  0  0
 19 18  1  0  0  0  0
 20 22  1  0  0  0  0
 21 25  1  1  0  0  0
 22 21  1  0  0  0  0
 22 24  1  6  0  0  0
 24 23  1  0  0  0  0
 25 26  1  0  0  0  0
 26 27  1  0  0  0  0
 29 30  2  0  0  0  0
 30 28  1  0  0  0  0
 31 32  1  0  0  0  0
 33 32  1  0  0  0  0
 34 39  1  0  0  0  0
 35 38  1  0  0  0  0
 35 33  1  0  0  0  0
 36 34  2  0  0  0  0
 36 37  1  0  0  0  0
 37 35  2  0  0  0  0
 39 38  2  0  0  0  0
M  END
>  <MODEL>
3

>  <REMARK>
 VINA RESULT:      -5.7      3.243      7.701
  Name = 
  10 active torsions:
  status: ('A' for Active; 'I' for Inactive)
    1  A    between atoms: C_1  and  C_22
    2  A    between atoms: C_4  and  C_23
    3  A    between atoms: O_5  and  C_22
    4  A    between atoms: O_5  and  C_31
    5  A    between atoms: C_8  and  C_9
    6  A    between atoms: C_9  and  C_33
    7  A    between atoms: C_16  and  C_21
    8  A    between atoms: C_16  and  C_26
    9  A    between atoms: C_20  and  C_31
   10  A    between atoms: O_34  and  C_35
                            x       y       z     vdW  Elec       q    Type
                         _______ _______ _______ _____ _____    ______ ____

>  <TORSDO>
F 10

$$$$
=
 OpenBabel10232411083D

 39 44  0  0  1  0  0  0  0  0999 V2000
  187.7410  174.5320  136.4550 C   0  0  0  0  0  0  0  0  0  0  0  0
  187.4550  173.4650  135.4370 C   0  0  0  0  0  3  0  0  0  0  0  0
  191.0290  174.9800  137.9040 C   0  0  1  0  0  3  0  0  0  0  0  0
  192.2250  173.6660  136.3360 C   0  0  1  0  0  3  0  0  0  0  0  0
  190.9890  174.0060  136.8700 N   0  0  0  0  0  0  0  0  0  0  0  0
  192.2480  172.9730  135.2170 N   0  0  0  0  0  2  0  0  0  0  0  0
  194.1990  173.8910  137.7740 C   0  0  0  0  0  1  0  0  0  0  0  0
  193.2570  174.6150  136.8320 C   0  0  2  0  0  3  0  0  0  0  0  0
  190.9620  172.5250  134.6600 C   0  0  0  0  0  2  0  0  0  0  0  0
  192.4000  175.6540  137.6360 C   0  0  0  0  0  2  0  0  0  0  0  0
  189.6580  175.7440  137.7460 C   0  0  2  0  0  3  0  0  0  0  0  0
  188.9980  174.9910  136.5950 C   0  0  0  0  0  0  0  0  0  0  0  0
  189.8340  173.1930  135.0240 C   0  0  0  0  0  0  0  0  0  0  0  0
  190.0790  174.3860  135.8520 C   0  0  0  0  0  0  0  0  0  0  0  0
  188.4350  172.8240  134.7590 C   0  0  0  0  0  3  0  0  0  0  0  0
  189.8670  177.2580  137.4640 C   0  0  1  0  0  3  0  0  0  0  0  0
  187.7500  178.7070  139.0120 N   0  0  0  0  0  2  0  0  0  0  0  0
  187.4640  178.0670  137.7390 C   0  0  0  0  0  2  0  0  0  0  0  0
  188.7070  178.0700  136.8590 C   0  0  2  0  0  3  0  0  0  0  0  0
  190.4920  177.9820  138.5150 O   0  0  0  0  0  0  0  0  0  0  0  0
  188.3680  177.6970  139.8560 C   0  0  1  0  0  3  0  0  0  0  0  0
  189.9060  177.7850  139.7990 C   0  0  1  0  0  3  0  0  0  0  0  0
  191.5460  177.2460  141.1870 C   0  0  0  0  0  1  0  0  0  0  0  0
  190.4950  176.6970  140.4520 O   0  0  0  0  0  0  0  0  0  0  0  0
  187.8440  177.7930  141.2910 C   0  0  0  0  0  2  0  0  0  0  0  0
  186.7490  178.8410  141.4580 C   0  0  0  0  0  2  0  0  0  0  0  0
  185.6230  178.2690  142.0470 O   0  0  0  0  0  1  0  0  0  0  0  0
  188.3950  177.6650  135.4250 C   0  0  0  0  0  2  0  0  0  0  0  0
  186.2430  177.2560  134.3460 C   0  0  0  0  0  2  0  0  0  0  0  0
  187.0150  178.0800  135.0450 C   0  0  0  0  0  3  0  0  0  0  0  0
  186.6500  174.9960  137.3590 C   0  0  0  0  0  2  0  0  0  0  0  0
  185.4890  174.2630  137.1110 O   0  0  0  0  0  0  0  0  0  0  0  0
  184.6420  175.1560  136.4560 C   0  0  0  0  0  2  0  0  0  0  0  0
  182.5740  177.5170  139.3730 C   0  0  0  0  0  3  0  0  0  0  0  0
  183.9060  175.9750  137.4580 C   0  0  0  0  0  0  0  0  0  0  0  0
  182.5760  176.1220  139.4760 C   0  0  0  0  0  3  0  0  0  0  0  0
  183.2440  175.3510  138.5220 C   0  0  0  0  0  3  0  0  0  0  0  0
  183.9130  177.3700  137.3610 C   0  0  0  0  0  3  0  0  0  0  0  0
  183.2450  178.1410  138.3170 C   0  0  0  0  0  3  0  0  0  0  0  0
  1 12  1  0  0  0  0
  1 31  1  0  0  0  0
  2  1  2  0  0  0  0
  3 10  1  6  0  0  0
  4  6  1  6  0  0  0
  4  8  1  0  0  0  0
  4  5  1  0  0  0  0
  5  3  1  0  0  0  0
  8 10  1  0  0  0  0
  8  7  1  1  0  0  0
  9 13  1  0  0  0  0
  9  6  1  0  0  0  0
 11 12  1  6  0  0  0
 11  3  1  0  0  0  0
 13 14  1  0  0  0  0
 14 12  2  0  0  0  0
 14  5  1  0  0  0  0
 15 13  2  0  0  0  0
 15  2  1  0  0  0  0
 16 11  1  0  0  0  0
 16 20  1  1  0  0  0
 17 21  1  0  0  0  0
 18 17  1  0  0  0  0
 19 28  1  6  0  0  0
 19 16  1  0  0  0  0
 19 18  1  0  0  0  0
 20 22  1  0  0  0  0
 21 25  1  1  0  0  0
 22 21  1  0  0  0  0
 22 24  1  6  0  0  0
 24 23  1  0  0  0  0
 25 26  1  0  0  0  0
 26 27  1  0  0  0  0
 29 30  2  0  0  0  0
 30 28  1  0  0  0  0
 32 31  1  0  0  0  0
 33 32  1  0  0  0  0
 33 35  1  0  0  0  0
 34 36  1  0  0  0  0
 35 37  1  0  0  0  0
 37 36  2  0  0  0  0
 38 35  2  0  0  0  0
 38 39  1  0  0  0  0
 39 34  2  0  0  0  0
M  END
>  <MODEL>
4

>  <REMARK>
 VINA RESULT:      -5.6      3.276      6.867
  Name = 
  10 active torsions:
  status: ('A' for Active; 'I' for Inactive)
    1  A    between atoms: C_1  and  C_22
    2  A    between atoms: C_4  and  C_23
    3  A    between atoms: O_5  and  C_22
    4  A    between atoms: O_5  and  C_31
    5  A    between atoms: C_8  and  C_9
    6  A    between atoms: C_9  and  C_33
    7  A    between atoms: C_16  and  C_21
    8  A    between atoms: C_16  and  C_26
    9  A    between atoms: C_20  and  C_31
   10  A    between atoms: O_34  and  C_35
                            x       y       z     vdW  Elec       q    Type
                         _______ _______ _______ _____ _____    ______ ____

>  <TORSDO>
F 10

$$$$
=
 OpenBabel10232411083D

 39 44  0  0  1  0  0  0  0  0999 V2000
  185.3890  178.0520  138.5330 C   0  0  0  0  0  0  0  0  0  0  0  0
  184.5260  179.1000  139.1770 C   0  0  0  0  0  3  0  0  0  0  0  0
  184.1070  174.7900  137.6260 C   0  0  1  0  0  3  0  0  0  0  0  0
  181.8030  175.3170  137.8050 C   0  0  1  0  0  3  0  0  0  0  0  0
  183.1100  175.6830  138.1040 N   0  0  0  0  0  0  0  0  0  0  0  0
  180.8530  176.2090  137.9870 N   0  0  0  0  0  2  0  0  0  0  0  0
  181.3170  172.9310  137.5090 C   0  0  0  0  0  1  0  0  0  0  0  0
  181.8140  174.1930  136.8310 C   0  0  2  0  0  3  0  0  0  0  0  0
  181.2280  177.5000  138.5840 C   0  0  0  0  0  2  0  0  0  0  0  0
  183.3400  174.0500  136.4990 C   0  0  0  0  0  2  0  0  0  0  0  0
  185.3400  175.7310  137.3410 C   0  0  2  0  0  3  0  0  0  0  0  0
  184.8160  177.0940  137.7820 C   0  0  0  0  0  0  0  0  0  0  0  0
  182.5260  177.8970  138.4980 C   0  0  0  0  0  0  0  0  0  0  0  0
  183.3770  177.0100  137.6870 C   0  0  0  0  0  0  0  0  0  0  0  0
  183.1740  179.0350  139.1700 C   0  0  0  0  0  3  0  0  0  0  0  0
  185.7760  175.6830  135.8500 C   0  0  1  0  0  3  0  0  0  0  0  0
  188.5610  176.7840  135.7450 N   0  0  0  0  0  2  0  0  0  0  0  0
  187.3980  177.6510  135.8260 C   0  0  0  0  0  2  0  0  0  0  0  0
  186.2020  176.9880  135.1540 C   0  0  2  0  0  3  0  0  0  0  0  0
  186.6670  174.6260  135.5210 O   0  0  0  0  0  0  0  0  0  0  0  0
  188.4500  175.8360  136.8430 C   0  0  1  0  0  3  0  0  0  0  0  0
  187.7990  174.5180  136.3810 C   0  0  1  0  0  3  0  0  0  0  0  0
  187.2130  172.4480  136.9090 C   0  0  0  0  0  1  0  0  0  0  0  0
  187.5170  173.6880  137.4720 O   0  0  0  0  0  0  0  0  0  0  0  0
  189.8140  175.6000  137.4970 C   0  0  0  0  0  2  0  0  0  0  0  0
  190.9830  175.9480  136.5810 C   0  0  0  0  0  2  0  0  0  0  0  0
  192.0100  176.5360  137.3180 O   0  0  0  0  0  1  0  0  0  0  0  0
  185.0410  177.9560  134.9670 C   0  0  0  0  0  2  0  0  0  0  0  0
  182.6390  177.6750  134.6310 C   0  0  0  0  0  2  0  0  0  0  0  0
  183.8710  177.2690  134.3510 C   0  0  0  0  0  3  0  0  0  0  0  0
  186.8530  178.0340  138.8150 C   0  0  0  0  0  2  0  0  0  0  0  0
  187.1170  178.7420  139.9870 O   0  0  0  0  0  0  0  0  0  0  0  0
  188.1550  178.0380  140.5980 C   0  0  0  0  0  2  0  0  0  0  0  0
  187.3370  177.6550  144.7860 C   0  0  0  0  0  3  0  0  0  0  0  0
  187.8680  177.8840  142.0500 C   0  0  0  0  0  0  0  0  0  0  0  0
  188.6450  177.5070  144.3130 C   0  0  0  0  0  3  0  0  0  0  0  0
  188.9110  177.6240  142.9470 C   0  0  0  0  0  3  0  0  0  0  0  0
  186.5620  178.0430  142.5250 C   0  0  0  0  0  3  0  0  0  0  0  0
  186.2960  177.9250  143.8930 C   0  0  0  0  0  3  0  0  0  0  0  0
  1 31  1  0  0  0  0
  1  2  1  0  0  0  0
  3 10  1  6  0  0  0
  3  5  1  0  0  0  0
  4  6  1  6  0  0  0
  4  5  1  0  0  0  0
  6  9  1  0  0  0  0
  8  7  1  1  0  0  0
  8  4  1  0  0  0  0
 10  8  1  0  0  0  0
 11  3  1  0  0  0  0
 11 12  1  6  0  0  0
 12  1  2  0  0  0  0
 13  9  1  0  0  0  0
 13 15  1  0  0  0  0
 14 12  1  0  0  0  0
 14  5  1  0  0  0  0
 14 13  2  0  0  0  0
 15  2  2  0  0  0  0
 16 20  1  1  0  0  0
 16 11  1  0  0  0  0
 17 18  1  0  0  0  0
 17 21  1  0  0  0  0
 19 28  1  1  0  0  0
 19 18  1  0  0  0  0
 19 16  1  0  0  0  0
 20 22  1  0  0  0  0
 21 25  1  6  0  0  0
 22 21  1  0  0  0  0
 22 24  1  1  0  0  0
 23 24  1  0  0  0  0
 26 27  1  0  0  0  0
 26 25  1  0  0  0  0
 30 29  2  0  0  0  0
 30 28  1  0  0  0  0
 31 32  1  0  0  0  0
 32 33  1  0  0  0  0
 33 35  1  0  0  0  0
 35 38  2  0  0  0  0
 35 37  1  0  0  0  0
 36 34  1  0  0  0  0
 37 36  2  0  0  0  0
 38 39  1  0  0  0  0
 39 34  2  0  0  0  0
M  END
>  <MODEL>
5

>  <REMARK>
 VINA RESULT:      -5.3      2.026      3.090
  Name = 
  10 active torsions:
  status: ('A' for Active; 'I' for Inactive)
    1  A    between atoms: C_1  and  C_22
    2  A    between atoms: C_4  and  C_23
    3  A    between atoms: O_5  and  C_22
    4  A    between atoms: O_5  and  C_31
    5  A    between atoms: C_8  and  C_9
    6  A    between atoms: C_9  and  C_33
    7  A    between atoms: C_16  and  C_21
    8  A    between atoms: C_16  and  C_26
    9  A    between atoms: C_20  and  C_31
   10  A    between atoms: O_34  and  C_35
                            x       y       z     vdW  Elec       q    Type
                         _______ _______ _______ _____ _____    ______ ____

>  <TORSDO>
F 10

$$$$
=
 OpenBabel10232411083D

 39 44  0  0  1  0  0  0  0  0999 V2000
  183.8970  175.4840  137.6410 C   0  0  0  0  0  0  0  0  0  0  0  0
  182.5260  174.8730  137.7100 C   0  0  0  0  0  3  0  0  0  0  0  0
  186.8310  173.5380  136.7990 C   0  0  1  0  0  3  0  0  0  0  0  0
  185.6950  171.6420  135.9430 C   0  0  1  0  0  3  0  0  0  0  0  0
  185.6140  172.8120  136.6880 N   0  0  0  0  0  0  0  0  0  0  0  0
  184.5720  171.0570  135.5840 N   0  0  0  0  0  2  0  0  0  0  0  0
  187.8580  170.4900  135.8420 C   0  0  0  0  0  1  0  0  0  0  0  0
  187.0050  171.5900  135.2420 C   0  0  2  0  0  3  0  0  0  0  0  0
  183.3100  171.6320  136.0780 C   0  0  0  0  0  2  0  0  0  0  0  0
  187.6260  172.9890  135.5840 C   0  0  0  0  0  2  0  0  0  0  0  0
  186.3590  175.0390  136.9010 C   0  0  2  0  0  3  0  0  0  0  0  0
  184.8400  174.9030  136.8770 C   0  0  0  0  0  0  0  0  0  0  0  0
  183.3040  172.9350  136.4680 C   0  0  0  0  0  0  0  0  0  0  0  0
  184.5690  173.6460  136.2190 C   0  0  0  0  0  0  0  0  0  0  0  0
  182.2360  173.6690  137.1640 C   0  0  0  0  0  3  0  0  0  0  0  0
  186.9260  175.9060  135.7420 C   0  0  1  0  0  3  0  0  0  0  0  0
  187.2680  178.6720  136.8430 N   0  0  0  0  0  2  0  0  0  0  0  0
  185.9730  178.1730  136.4130 C   0  0  0  0  0  2  0  0  0  0  0  0
  186.1470  177.1550  135.2940 C   0  0  2  0  0  3  0  0  0  0  0  0
  188.3170  176.1880  135.8310 O   0  0  0  0  0  0  0  0  0  0  0  0
  187.7950  177.7000  137.7880 C   0  0  1  0  0  3  0  0  0  0  0  0
  188.7370  176.6970  137.0950 C   0  0  1  0  0  3  0  0  0  0  0  0
  190.2300  175.0880  137.3970 C   0  0  0  0  0  1  0  0  0  0  0  0
  189.0850  175.6540  137.9600 O   0  0  0  0  0  0  0  0  0  0  0  0
  188.4760  178.4020  138.9660 C   0  0  0  0  0  2  0  0  0  0  0  0
  187.8510  178.0510  140.3120 C   0  0  0  0  0  2  0  0  0  0  0  0
  188.4560  178.7880  141.3290 O   0  0  0  0  0  1  0  0  0  0  0  0
  184.8240  176.8090  134.6230 C   0  0  0  0  0  2  0  0  0  0  0  0
  182.5030  177.5150  134.9020 C   0  0  0  0  0  2  0  0  0  0  0  0
  183.7900  177.8390  134.9260 C   0  0  0  0  0  3  0  0  0  0  0  0
  184.2180  176.6640  138.4930 C   0  0  0  0  0  2  0  0  0  0  0  0
  183.2390  176.8190  139.4740 O   0  0  0  0  0  0  0  0  0  0  0  0
  183.2430  178.1830  139.7630 C   0  0  0  0  0  2  0  0  0  0  0  0
  183.3560  178.8110  144.0000 C   0  0  0  0  0  3  0  0  0  0  0  0
  183.2780  178.3810  141.2380 C   0  0  0  0  0  0  0  0  0  0  0  0
  184.5130  178.4140  143.3210 C   0  0  0  0  0  3  0  0  0  0  0  0
  184.4750  178.2020  141.9410 C   0  0  0  0  0  3  0  0  0  0  0  0
  182.1240  178.7880  141.9160 C   0  0  0  0  0  3  0  0  0  0  0  0
  182.1630  179.0000  143.2980 C   0  0  0  0  0  3  0  0  0  0  0  0
  1  2  1  0  0  0  0
  1 31  1  0  0  0  0
  3 10  1  6  0  0  0
  3 11  1  0  0  0  0
  4  6  1  6  0  0  0
  4  5  1  0  0  0  0
  5  3  1  0  0  0  0
  6  9  1  0  0  0  0
  8 10  1  0  0  0  0
  8  7  1  1  0  0  0
  8  4  1  0  0  0  0
  9 13  1  0  0  0  0
 11 12  1  6  0  0  0
 12  1  2  0  0  0  0
 13 15  1  0  0  0  0
 14 13  2  0  0  0  0
 14  5  1  0  0  0  0
 14 12  1  0  0  0  0
 15  2  2  0  0  0  0
 16 20  1  1  0  0  0
 16 11  1  0  0  0  0
 17 21  1  0  0  0  0
 18 17  1  0  0  0  0
 19 28  1  1  0  0  0
 19 16  1  0  0  0  0
 19 18  1  0  0  0  0
 20 22  1  0  0  0  0
 21 25  1  1  0  0  0
 22 21  1  0  0  0  0
 22 24  1  1  0  0  0
 23 24  1  0  0  0  0
 25 26  1  0  0  0  0
 26 27  1  0  0  0  0
 28 30  1  0  0  0  0
 29 30  2  0  0  0  0
 31 32  1  0  0  0  0
 32 33  1  0  0  0  0
 33 35  1  0  0  0  0
 35 38  2  0  0  0  0
 35 37  1  0  0  0  0
 36 34  1  0  0  0  0
 37 36  2  0  0  0  0
 38 39  1  0  0  0  0
 39 34  2  0  0  0  0
M  END
>  <MODEL>
6

>  <REMARK>
 VINA RESULT:      -5.3      1.613      2.430
  Name = 
  10 active torsions:
  status: ('A' for Active; 'I' for Inactive)
    1  A    between atoms: C_1  and  C_22
    2  A    between atoms: C_4  and  C_23
    3  A    between atoms: O_5  and  C_22
    4  A    between atoms: O_5  and  C_31
    5  A    between atoms: C_8  and  C_9
    6  A    between atoms: C_9  and  C_33
    7  A    between atoms: C_16  and  C_21
    8  A    between atoms: C_16  and  C_26
    9  A    between atoms: C_20  and  C_31
   10  A    between atoms: O_34  and  C_35
                            x       y       z     vdW  Elec       q    Type
                         _______ _______ _______ _____ _____    ______ ____

>  <TORSDO>
F 10

$$$$
=
 OpenBabel10232411083D

 39 44  0  0  1  0  0  0  0  0999 V2000
  185.1470  178.0510  138.0350 C   0  0  0  0  0  0  0  0  0  0  0  0
  184.8690  179.2880  138.8430 C   0  0  0  0  0  3  0  0  0  0  0  0
  182.9820  175.1520  138.1470 C   0  0  1  0  0  3  0  0  0  0  0  0
  181.1320  176.2020  139.1920 C   0  0  1  0  0  3  0  0  0  0  0  0
  182.4840  176.2630  138.8790 N   0  0  0  0  0  0  0  0  0  0  0  0
  180.5490  177.2940  139.6370 N   0  0  0  0  0  2  0  0  0  0  0  0
  180.1050  173.9870  139.4200 C   0  0  0  0  0  1  0  0  0  0  0  0
  180.5020  175.0800  138.4470 C   0  0  2  0  0  3  0  0  0  0  0  0
  181.3920  178.4800  139.8630 C   0  0  0  0  0  2  0  0  0  0  0  0
  181.6760  174.5780  137.5360 C   0  0  0  0  0  2  0  0  0  0  0  0
  184.1330  175.7730  137.2660 C   0  0  2  0  0  3  0  0  0  0  0  0
  184.1290  177.2320  137.7120 C   0  0  0  0  0  0  0  0  0  0  0  0
  182.5770  178.5630  139.2020 C   0  0  0  0  0  0  0  0  0  0  0  0
  182.8040  177.4810  138.2280 C   0  0  0  0  0  0  0  0  0  0  0  0
  183.6620  179.5370  139.4010 C   0  0  0  0  0  3  0  0  0  0  0  0
  183.8670  175.5850  135.7460 C   0  0  1  0  0  3  0  0  0  0  0  0
  186.5480  175.6240  134.4070 N   0  0  0  0  0  2  0  0  0  0  0  0
  185.8770  176.8470  134.8120 C   0  0  0  0  0  2  0  0  0  0  0  0
  184.3660  176.6580  134.7630 C   0  0  2  0  0  3  0  0  0  0  0  0
  184.1420  174.2820  135.2480 O   0  0  0  0  0  0  0  0  0  0  0  0
  186.6000  174.7690  135.5820 C   0  0  1  0  0  3  0  0  0  0  0  0
  185.4250  173.7720  135.6030 C   0  0  1  0  0  3  0  0  0  0  0  0
  184.5280  172.0000  136.5840 C   0  0  0  0  0  1  0  0  0  0  0  0
  185.3670  173.0880  136.8220 O   0  0  0  0  0  0  0  0  0  0  0  0
  187.9520  174.0580  135.6770 C   0  0  0  0  0  2  0  0  0  0  0  0
  188.6420  174.2650  137.0220 C   0  0  0  0  0  2  0  0  0  0  0  0
  189.4500  173.1690  137.3210 O   0  0  0  0  0  1  0  0  0  0  0  0
  183.6190  177.9770  134.9090 C   0  0  0  0  0  2  0  0  0  0  0  0
  181.2740  178.6360  135.0810 C   0  0  0  0  0  2  0  0  0  0  0  0
  182.1780  177.8110  134.5660 C   0  0  0  0  0  3  0  0  0  0  0  0
  186.5540  177.7020  137.6890 C   0  0  0  0  0  2  0  0  0  0  0  0
  187.4240  178.2780  138.6140 O   0  0  0  0  0  0  0  0  0  0  0  0
  188.4570  177.3510  138.7510 C   0  0  0  0  0  2  0  0  0  0  0  0
  190.3010  177.7660  142.5960 C   0  0  0  0  0  3  0  0  0  0  0  0
  189.1020  177.5150  140.0820 C   0  0  0  0  0  0  0  0  0  0  0  0
  188.9530  178.0980  142.4280 C   0  0  0  0  0  3  0  0  0  0  0  0
  188.3530  177.9700  141.1740 C   0  0  0  0  0  3  0  0  0  0  0  0
  190.4480  177.1730  140.2530 C   0  0  0  0  0  3  0  0  0  0  0  0
  191.0480  177.3010  141.5090 C   0  0  0  0  0  3  0  0  0  0  0  0
  1  2  1  0  0  0  0
  2 15  2  0  0  0  0
  3 10  1  6  0  0  0
  3  5  1  0  0  0  0
  4  6  1  6  0  0  0
  5  4  1  0  0  0  0
  6  9  1  0  0  0  0
  8  4  1  0  0  0  0
  8  7  1  1  0  0  0
 10  8  1  0  0  0  0
 11 12  1  6  0  0  0
 11  3  1  0  0  0  0
 12  1  2  0  0  0  0
 12 14  1  0  0  0  0
 13 15  1  0  0  0  0
 13  9  1  0  0  0  0
 14  5  1  0  0  0  0
 14 13  2  0  0  0  0
 16 20  1  6  0  0  0
 16 11  1  0  0  0  0
 17 18  1  0  0  0  0
 17 21  1  0  0  0  0
 19 18  1  0  0  0  0
 19 28  1  1  0  0  0
 19 16  1  0  0  0  0
 20 22  1  0  0  0  0
 21 22  1  0  0  0  0
 21 25  1  6  0  0  0
 22 24  1  1  0  0  0
 23 24  1  0  0  0  0
 25 26  1  0  0  0  0
 26 27  1  0  0  0  0
 30 28  1  0  0  0  0
 30 29  2  0  0  0  0
 31  1  1  0  0  0  0
 31 32  1  0  0  0  0
 32 33  1  0  0  0  0
 33 35  1  0  0  0  0
 35 38  2  0  0  0  0
 35 37  1  0  0  0  0
 36 34  1  0  0  0  0
 37 36  2  0  0  0  0
 38 39  1  0  0  0  0
 39 34  2  0  0  0  0
M  END
>  <MODEL>
7

>  <REMARK>
 VINA RESULT:      -5.1      2.453      4.320
  Name = 
  10 active torsions:
  status: ('A' for Active; 'I' for Inactive)
    1  A    between atoms: C_1  and  C_22
    2  A    between atoms: C_4  and  C_23
    3  A    between atoms: O_5  and  C_22
    4  A    between atoms: O_5  and  C_31
    5  A    between atoms: C_8  and  C_9
    6  A    between atoms: C_9  and  C_33
    7  A    between atoms: C_16  and  C_21
    8  A    between atoms: C_16  and  C_26
    9  A    between atoms: C_20  and  C_31
   10  A    between atoms: O_34  and  C_35
                            x       y       z     vdW  Elec       q    Type
                         _______ _______ _______ _____ _____    ______ ____

>  <TORSDO>
F 10

$$$$
=
 OpenBabel10232411083D

 39 44  0  0  1  0  0  0  0  0999 V2000
  185.2660  177.8730  138.1830 C   0  0  0  0  0  0  0  0  0  0  0  0
  184.8050  179.1610  138.8040 C   0  0  0  0  0  3  0  0  0  0  0  0
  183.1180  174.9680  137.9490 C   0  0  1  0  0  3  0  0  0  0  0  0
  181.0740  176.0730  138.4140 C   0  0  1  0  0  3  0  0  0  0  0  0
  182.4610  176.1250  138.4500 N   0  0  0  0  0  0  0  0  0  0  0  0
  180.4060  177.1890  138.6190 N   0  0  0  0  0  2  0  0  0  0  0  0
  180.0020  173.8700  138.5310 C   0  0  0  0  0  1  0  0  0  0  0  0
  180.6420  174.8950  137.6160 C   0  0  2  0  0  3  0  0  0  0  0  0
  181.1750  178.3950  138.9650 C   0  0  0  0  0  2  0  0  0  0  0  0
  182.0040  174.3410  137.0690 C   0  0  0  0  0  2  0  0  0  0  0  0
  184.4600  175.5370  137.3460 C   0  0  2  0  0  3  0  0  0  0  0  0
  184.3570  177.0240  137.6720 C   0  0  0  0  0  0  0  0  0  0  0  0
  182.4900  178.4420  138.6220 C   0  0  0  0  0  0  0  0  0  0  0  0
  182.9460  177.2960  137.8170 C   0  0  0  0  0  0  0  0  0  0  0  0
  183.4980  179.4380  139.0200 C   0  0  0  0  0  3  0  0  0  0  0  0
  184.5860  175.2380  135.8250 C   0  0  1  0  0  3  0  0  0  0  0  0
  187.4270  174.4060  135.3600 N   0  0  0  0  0  2  0  0  0  0  0  0
  187.0510  175.8030  135.4940 C   0  0  0  0  0  2  0  0  0  0  0  0
  185.6260  176.0130  134.9970 C   0  0  2  0  0  3  0  0  0  0  0  0
  184.6030  173.8580  135.4870 O   0  0  0  0  0  0  0  0  0  0  0  0
  186.9010  173.7190  136.5290 C   0  0  1  0  0  3  0  0  0  0  0  0
  185.5320  173.0760  136.2330 C   0  0  1  0  0  3  0  0  0  0  0  0
  184.0500  171.6060  136.9740 C   0  0  0  0  0  1  0  0  0  0  0  0
  184.9430  172.5880  137.4040 O   0  0  0  0  0  0  0  0  0  0  0  0
  187.9100  172.6960  137.0570 C   0  0  0  0  0  2  0  0  0  0  0  0
  189.3210  172.9210  136.5270 C   0  0  0  0  0  2  0  0  0  0  0  0
  190.0680  173.6580  137.4450 O   0  0  0  0  0  1  0  0  0  0  0  0
  185.2800  177.4900  134.8580 C   0  0  0  0  0  2  0  0  0  0  0  0
  187.0680  179.1290  135.1390 C   0  0  0  0  0  2  0  0  0  0  0  0
  186.4480  178.2620  134.3470 C   0  0  0  0  0  3  0  0  0  0  0  0
  186.7130  177.5130  138.2300 C   0  0  0  0  0  2  0  0  0  0  0  0
  187.4060  178.4450  139.0020 O   0  0  0  0  0  0  0  0  0  0  0  0
  188.7020  177.9380  139.0860 C   0  0  0  0  0  2  0  0  0  0  0  0
  189.6420  177.0160  143.1630 C   0  0  0  0  0  3  0  0  0  0  0  0
  189.0170  177.6010  140.5010 C   0  0  0  0  0  0  0  0  0  0  0  0
  190.4230  176.4880  142.1300 C   0  0  0  0  0  3  0  0  0  0  0  0
  190.1120  176.7830  140.8000 C   0  0  0  0  0  3  0  0  0  0  0  0
  188.2430  178.1360  141.5360 C   0  0  0  0  0  3  0  0  0  0  0  0
  188.5540  177.8420  142.8670 C   0  0  0  0  0  3  0  0  0  0  0  0
  1 31  1  0  0  0  0
  1  2  1  0  0  0  0
  2 15  2  0  0  0  0
  3 10  1  6  0  0  0
  3  5  1  0  0  0  0
  4  5  1  0  0  0  0
  4  6  1  6  0  0  0
  6  9  1  0  0  0  0
  8  4  1  0  0  0  0
  8  7  1  1  0  0  0
 10  8  1  0  0  0  0
 11 12  1  6  0  0  0
 11  3  1  0  0  0  0
 12 14  1  0  0  0  0
 12  1  2  0  0  0  0
 13  9  1  0  0  0  0
 13 15  1  0  0  0  0
 14  5  1  0  0  0  0
 14 13  2  0  0  0  0
 16 20  1  1  0  0  0
 16 11  1  0  0  0  0
 17 18  1  0  0  0  0
 17 21  1  0  0  0  0
 19 28  1  1  0  0  0
 19 18  1  0  0  0  0
 19 16  1  0  0  0  0
 20 22  1  0  0  0  0
 21 25  1  6  0  0  0
 22 21  1  0  0  0  0
 22 24  1  1  0  0  0
 23 24  1  0  0  0  0
 26 25  1  0  0  0  0
 26 27  1  0  0  0  0
 30 28  1  0  0  0  0
 30 29  2  0  0  0  0
 31 32  1  0  0  0  0
 32 33  1  0  0  0  0
 33 35  1  0  0  0  0
 35 37  2  0  0  0  0
 35 38  1  0  0  0  0
 36 34  2  0  0  0  0
 37 36  1  0  0  0  0
 38 39  2  0  0  0  0
 39 34  1  0  0  0  0
M  END
>  <MODEL>
8

>  <REMARK>
 VINA RESULT:      -4.9      2.536      4.312
  Name = 
  10 active torsions:
  status: ('A' for Active; 'I' for Inactive)
    1  A    between atoms: C_1  and  C_22
    2  A    between atoms: C_4  and  C_23
    3  A    between atoms: O_5  and  C_22
    4  A    between atoms: O_5  and  C_31
    5  A    between atoms: C_8  and  C_9
    6  A    between atoms: C_9  and  C_33
    7  A    between atoms: C_16  and  C_21
    8  A    between atoms: C_16  and  C_26
    9  A    between atoms: C_20  and  C_31
   10  A    between atoms: O_34  and  C_35
                            x       y       z     vdW  Elec       q    Type
                         _______ _______ _______ _____ _____    ______ ____

>  <TORSDO>
F 10

$$$$
=
 OpenBabel10232411083D

 39 44  0  0  1  0  0  0  0  0999 V2000
  187.0880  174.1150  136.8290 C   0  0  0  0  0  0  0  0  0  0  0  0
  187.8230  172.8790  136.3920 C   0  0  0  0  0  3  0  0  0  0  0  0
  188.6690  176.6980  138.8110 C   0  0  1  0  0  3  0  0  0  0  0  0
  190.9090  176.0010  138.4760 C   0  0  1  0  0  3  0  0  0  0  0  0
  189.5610  175.6750  138.3920 N   0  0  0  0  0  0  0  0  0  0  0  0
  191.7760  175.2140  137.8750 N   0  0  0  0  0  2  0  0  0  0  0  0
  191.5900  177.6490  140.1600 C   0  0  0  0  0  1  0  0  0  0  0  0
  191.0510  177.4540  138.7560 C   0  0  2  0  0  3  0  0  0  0  0  0
  191.2640  173.9910  137.2350 C   0  0  0  0  0  2  0  0  0  0  0  0
  189.5670  177.9570  138.6840 C   0  0  0  0  0  2  0  0  0  0  0  0
  187.3930  176.4680  137.9130 C   0  0  2  0  0  3  0  0  0  0  0  0
  187.7830  175.2320  137.1080 C   0  0  0  0  0  0  0  0  0  0  0  0
  189.9500  173.9460  136.8880 C   0  0  0  0  0  0  0  0  0  0  0  0
  189.2270  175.2120  137.0950 C   0  0  0  0  0  0  0  0  0  0  0  0
  189.1730  172.7870  136.4200 C   0  0  0  0  0  3  0  0  0  0  0  0
  187.0700  177.7090  137.0340 C   0  0  1  0  0  3  0  0  0  0  0  0
  184.1180  177.6380  136.5240 N   0  0  0  0  0  2  0  0  0  0  0  0
  185.0440  176.8090  135.7730 C   0  0  0  0  0  2  0  0  0  0  0  0
  186.3980  177.4990  135.6660 C   0  0  2  0  0  3  0  0  0  0  0  0
  186.4650  178.7920  137.7280 O   0  0  0  0  0  0  0  0  0  0  0  0
  184.3770  177.3820  137.9320 C   0  0  1  0  0  3  0  0  0  0  0  0
  185.3390  178.4300  138.5240 C   0  0  1  0  0  3  0  0  0  0  0  0
  185.3550  179.1450  140.6210 C   0  0  0  0  0  1  0  0  0  0  0  0
  185.7390  178.0720  139.8160 O   0  0  0  0  0  0  0  0  0  0  0  0
  183.0680  177.3010  138.7200 C   0  0  0  0  0  2  0  0  0  0  0  0
  181.8640  177.8010  137.9300 C   0  0  0  0  0  2  0  0  0  0  0  0
  180.9850  176.7490  137.6750 O   0  0  0  0  0  1  0  0  0  0  0  0
  187.3150  176.8090  134.6640 C   0  0  0  0  0  2  0  0  0  0  0  0
  189.7170  177.1310  134.3670 C   0  0  0  0  0  2  0  0  0  0  0  0
  188.4990  177.6590  134.3560 C   0  0  0  0  0  3  0  0  0  0  0  0
  185.6130  174.0540  137.0380 C   0  0  0  0  0  2  0  0  0  0  0  0
  185.0490  173.1310  136.1570 O   0  0  0  0  0  0  0  0  0  0  0  0
  183.7990  172.8420  136.7040 C   0  0  0  0  0  2  0  0  0  0  0  0
  182.3850  169.1270  135.1030 C   0  0  0  0  0  3  0  0  0  0  0  0
  183.3060  171.5440  136.1670 C   0  0  0  0  0  0  0  0  0  0  0  0
  181.4740  170.1270  135.4590 C   0  0  0  0  0  3  0  0  0  0  0  0
  181.9340  171.3350  135.9880 C   0  0  0  0  0  3  0  0  0  0  0  0
  184.2170  170.5480  135.8020 C   0  0  0  0  0  3  0  0  0  0  0  0
  183.7570  169.3380  135.2720 C   0  0  0  0  0  3  0  0  0  0  0  0
  1 31  1  0  0  0  0
  1 12  1  0  0  0  0
  2 15  1  0  0  0  0
  2  1  2  0  0  0  0
  3 10  1  6  0  0  0
  4  6  1  6  0  0  0
  4  8  1  0  0  0  0
  5  4  1  0  0  0  0
  5  3  1  0  0  0  0
  8  7  1  1  0  0  0
  9  6  1  0  0  0  0
 10  8  1  0  0  0  0
 11 12  1  6  0  0  0
 11  3  1  0  0  0  0
 13 14  1  0  0  0  0
 13  9  1  0  0  0  0
 14 12  2  0  0  0  0
 14  5  1  0  0  0  0
 15 13  2  0  0  0  0
 16 20  1  1  0  0  0
 16 11  1  0  0  0  0
 17 21  1  0  0  0  0
 18 17  1  0  0  0  0
 19 28  1  6  0  0  0
 19 18  1  0  0  0  0
 19 16  1  0  0  0  0
 20 22  1  0  0  0  0
 21 22  1  0  0  0  0
 21 25  1  1  0  0  0
 22 24  1  1  0  0  0
 24 23  1  0  0  0  0
 26 25  1  0  0  0  0
 27 26  1  0  0  0  0
 30 29  2  0  0  0  0
 30 28  1  0  0  0  0
 32 33  1  0  0  0  0
 32 31  1  0  0  0  0
 34 39  2  0  0  0  0
 34 36  1  0  0  0  0
 35 33  1  0  0  0  0
 36 37  2  0  0  0  0
 37 35  1  0  0  0  0
 38 35  2  0  0  0  0
 39 38  1  0  0  0  0
M  END
>  <MODEL>
9

>  <REMARK>
 VINA RESULT:      -4.4      2.665      7.995
  Name = 
  10 active torsions:
  status: ('A' for Active; 'I' for Inactive)
    1  A    between atoms: C_1  and  C_22
    2  A    between atoms: C_4  and  C_23
    3  A    between atoms: O_5  and  C_22
    4  A    between atoms: O_5  and  C_31
    5  A    between atoms: C_8  and  C_9
    6  A    between atoms: C_9  and  C_33
    7  A    between atoms: C_16  and  C_21
    8  A    between atoms: C_16  and  C_26
    9  A    between atoms: C_20  and  C_31
   10  A    between atoms: O_34  and  C_35
                            x       y       z     vdW  Elec       q    Type
                         _______ _______ _______ _____ _____    ______ ____

>  <TORSDO>
F 10

$$$$
