=
 OpenBabel10232408573D

 56 60  0  0  1  0  0  0  0  0999 V2000
  187.4110  178.4350  140.9500 C   0  0  2  0  0  3  0  0  0  0  0  0
  187.6850  177.4320  142.0680 C   0  0  0  0  0  2  0  0  0  0  0  0
  185.1920  178.9590  141.6770 C   0  0  2  0  0  3  0  0  0  0  0  0
  185.9930  178.3760  140.5970 N   0  0  0  0  0  2  0  0  0  0  0  0
  184.7020  178.4120  143.9650 O   0  0  0  0  0  0  0  0  0  0  0  0
  185.5170  178.3190  143.0070 C   0  0  0  0  0  0  0  0  0  0  0  0
  186.7910  177.6740  143.2010 N   0  0  0  0  0  0  0  0  0  0  0  0
  183.3830  177.6520  140.6080 C   0  0  0  0  0  0  0  0  0  0  0  0
  182.6940  178.0480  137.9970 C   0  0  0  0  0  0  0  0  0  0  0  0
  183.7120  178.8040  141.3360 C   0  0  1  0  0  0  0  0  0  0  0  0
  183.0360  179.2630  138.7010 C   0  0  0  0  0  3  0  0  0  0  0  0
  183.0840  176.4710  140.0060 C   0  0  0  0  0  3  0  0  0  0  0  0
  182.7520  179.1870  142.2550 F   0  0  0  0  0  0  0  0  0  0  0  0
  183.3610  178.9780  139.9910 C   0  0  0  0  0  0  0  0  0  0  0  0
  182.7250  176.7220  138.6340 C   0  0  0  0  0  3  0  0  0  0  0  0
  181.5930  179.1060  136.1780 O   0  0  0  0  0  0  0  0  0  0  0  0
  182.2820  178.1290  136.5790 C   0  0  0  0  0  0  0  0  0  0  0  0
  182.6980  177.0860  135.5850 C   0  0  0  0  0  2  0  0  0  0  0  0
  184.7520  175.9160  134.9870 N   0  0  0  0  0  1  0  0  0  0  0  0
  184.1720  177.2260  135.2400 C   0  0  0  0  0  2  0  0  0  0  0  0
  189.9410  177.5600  137.5750 C   0  0  0  0  0  3  0  0  0  0  0  0
  188.6710  178.1000  137.3630 C   0  0  0  0  0  3  0  0  0  0  0  0
  187.8440  178.3860  138.4510 C   0  0  0  0  0  3  0  0  0  0  0  0
  188.2840  178.1460  139.7620 C   0  0  0  0  0  0  0  0  0  0  0  0
  190.3860  177.3060  138.8730 C   0  0  0  0  0  0  0  0  0  0  0  0
  189.5610  177.6010  139.9680 C   0  0  0  0  0  3  0  0  0  0  0  0
  191.7110  176.6640  139.0780 C   0  0  0  0  0  2  0  0  0  0  0  0
  192.0150  175.6550  137.9780 C   0  0  0  0  0  2  0  0  0  0  0  0
  193.3980  175.9210  137.4070 C   0  0  0  0  0  2  0  0  0  0  0  0
  193.5980  175.1700  136.1010 C   0  0  0  0  0  2  0  0  0  0  0  0
  194.5970  174.1220  136.2880 N   0  0  0  0  0  0  0  0  0  0  0  0
  193.1630  172.3540  136.7970 O   0  0  0  0  0  0  0  0  0  0  0  0
  194.2320  172.9690  137.0620 C   0  0  0  0  0  0  0  0  0  0  0  0
  197.8040  173.4020  134.3470 C   0  0  0  0  0  2  0  0  0  0  0  0
  196.4330  173.2860  134.9500 C   0  0  0  0  0  3  0  0  0  0  0  0
  196.7330  175.3910  136.0620 N   0  0  0  0  0  2  0  0  0  0  0  0
  195.9160  174.2580  135.7190 C   0  0  0  0  0  0  0  0  0  0  0  0
  198.7200  174.2430  135.2330 C   0  0  0  0  0  2  0  0  0  0  0  0
  198.0590  175.5940  135.4830 C   0  0  0  0  0  2  0  0  0  0  0  0
  195.5860  173.3440  138.9660 O   0  0  0  0  0  0  0  0  0  0  0  0
  195.0710  172.5020  138.1790 C   0  0  0  0  0  0  0  0  0  0  0  0
  195.2760  171.1230  138.3500 O   0  0  0  0  0  0  0  0  0  0  0  0
  196.2520  170.3530  137.6960 C   0  0  0  0  0  3  0  0  0  0  0  0
  197.4270  170.8220  137.3140 C   0  0  0  0  0  2  0  0  0  0  0  0
  187.1000  177.0120  144.4600 C   0  0  0  0  0  2  0  0  0  0  0  0
  187.6750  178.0030  145.4670 C   0  0  0  0  0  2  0  0  0  0  0  0
  187.3090  177.6410  146.8300 N   0  0  0  0  0  2  0  0  0  0  0  0
  188.5010  177.7350  147.6640 C   0  0  0  0  0  2  0  0  0  0  0  0
  189.5710  176.7740  147.1710 C   0  0  0  0  0  2  0  0  0  0  0  0
  190.9490  177.3740  147.3840 C   0  0  0  0  0  2  0  0  0  0  0  0
  191.8700  176.8790  146.3760 N   0  0  0  0  0  0  0  0  0  0  0  0
  192.3200  175.6770  146.8140 O   0  0  0  0  0  1  0  0  0  0  0  0
  191.0750  176.6240  145.1850 C   0  0  0  0  0  2  0  0  0  0  0  0
  191.5540  177.4720  144.0570 C   0  0  0  0  0  0  0  0  0  0  0  0
  191.6900  176.9760  142.9070 O   0  0  0  0  0  0  0  0  0  0  0  0
  191.9040  178.7960  144.2860 O   0  0  0  0  0  1  0  0  0  0  0  0
  1 24  1  6  0  0  0
  1  2  1  0  0  0  0
  2  7  1  0  0  0  0
  3  4  1  6  0  0  0
  3  6  1  0  0  0  0
  4  1  1  0  0  0  0
  6  7  1  0  0  0  0
  6  5  2  0  0  0  0
  7 45  1  0  0  0  0
  8 10  1  0  0  0  0
  9 15  1  0  0  0  0
  9 11  2  0  0  0  0
 10  3  1  0  0  0  0
 10 13  1  1  0  0  0
 11 14  1  0  0  0  0
 12  8  1  0  0  0  0
 14  8  2  0  0  0  0
 14 10  1  0  0  0  0
 15 12  2  0  0  0  0
 16 17  2  0  0  0  0
 17  9  1  0  0  0  0
 18 17  1  0  0  0  0
 19 20  1  0  0  0  0
 20 18  1  0  0  0  0
 21 25  1  0  0  0  0
 22 21  2  0  0  0  0
 22 23  1  0  0  0  0
 23 24  2  0  0  0  0
 24 26  1  0  0  0  0
 25 27  1  0  0  0  0
 25 26  2  0  0  0  0
 28 27  1  0  0  0  0
 29 28  1  0  0  0  0
 30 31  1  0  0  0  0
 30 29  1  0  0  0  0
 31 33  1  0  0  0  0
 32 33  2  0  0  0  0
 33 41  1  0  0  0  0
 34 35  1  0  0  0  0
 34 38  1  0  0  0  0
 35 37  2  0  0  0  0
 37 36  1  0  0  0  0
 37 31  1  0  0  0  0
 38 39  1  0  0  0  0
 39 36  1  0  0  0  0
 41 42  1  0  0  0  0
 41 40  2  0  0  0  0
 43 42  1  0  0  0  0
 44 43  2  0  0  0  0
 45 46  1  0  0  0  0
 46 47  1  0  0  0  0
 47 48  1  0  0  0  0
 49 50  1  0  0  0  0
 49 48  1  0  0  0  0
 51 52  1  0  0  0  0
 51 50  1  0  0  0  0
 53 51  1  0  0  0  0
 54 56  1  0  0  0  0
 54 53  1  0  0  0  0
 55 54  2  0  0  0  0
M  END
>  <MODEL>
1

>  <REMARK>
 VINA RESULT:      -6.7      0.000      0.000
  Name = 
  23 active torsions:
  status: ('A' for Active; 'I' for Inactive)
    1  A    between atoms: C_6  and  C_15
    2  A    between atoms: C_6  and  N_56
    3  A    between atoms: C_8  and  C_44
    4  A    between atoms: N_9  and  C_15
    5  A    between atoms: N_9  and  C_31
    6  A    between atoms: C_10  and  C_22
    7  A    between atoms: C_13  and  N_23
    8  A    between atoms: C_13  and  C_30
    9  A    between atoms: C_14  and  O_33
   10  A    between atoms: C_16  and  C_48
   11  A    between atoms: C_17  and  N_23
   12  A    between atoms: C_24  and  C_35
   13  A    between atoms: C_25  and  C_41
   14  A    between atoms: C_28  and  C_31
   15  A    between atoms: C_28  and  C_34
   16  A    between atoms: C_30  and  C_47
   17  A    between atoms: O_33  and  C_36
   18  A    between atoms: C_34  and  N_43
   19  A    between atoms: C_36  and  C_55
   20  A    between atoms: C_37  and  C_39
   21  A    between atoms: C_39  and  C_47
   22  A    between atoms: C_41  and  C_48
   23  A    between atoms: N_43  and  C_44
                            x       y       z     vdW  Elec       q    Type
                         _______ _______ _______ _____ _____    ______ ____

>  <TORSDO>
F 23

$$$$
=
 OpenBabel10232408573D

 56 60  0  0  1  0  0  0  0  0999 V2000
  189.0570  177.9190  139.5110 C   0  0  2  0  0  3  0  0  0  0  0  0
  190.2380  177.3210  138.7510 C   0  0  0  0  0  2  0  0  0  0  0  0
  189.9610  177.4740  141.6830 C   0  0  2  0  0  3  0  0  0  0  0  0
  188.8680  177.1710  140.7540 N   0  0  0  0  0  2  0  0  0  0  0  0
  192.3330  177.0970  141.7540 O   0  0  0  0  0  0  0  0  0  0  0  0
  191.3080  177.2490  141.0350 C   0  0  0  0  0  0  0  0  0  0  0  0
  191.4300  177.2890  139.6000 N   0  0  0  0  0  0  0  0  0  0  0  0
  188.4790  176.4230  143.3630 C   0  0  0  0  0  0  0  0  0  0  0  0
  187.7620  177.7340  145.6470 C   0  0  0  0  0  0  0  0  0  0  0  0
  189.7990  176.6150  142.9350 C   0  0  1  0  0  0  0  0  0  0  0  0
  189.1290  177.9730  145.2410 C   0  0  0  0  0  3  0  0  0  0  0  0
  187.1830  176.1620  143.6810 C   0  0  0  0  0  3  0  0  0  0  0  0
  190.6230  175.5200  143.1270 F   0  0  0  0  0  0  0  0  0  0  0  0
  189.4030  177.2820  144.1010 C   0  0  0  0  0  0  0  0  0  0  0  0
  186.8460  176.8680  144.8890 C   0  0  0  0  0  3  0  0  0  0  0  0
  187.8510  178.1810  147.9780 O   0  0  0  0  0  0  0  0  0  0  0  0
  187.2570  178.3710  146.8820 C   0  0  0  0  0  0  0  0  0  0  0  0
  186.0630  179.2780  146.8590 C   0  0  0  0  0  2  0  0  0  0  0  0
  183.9120  179.0040  145.7440 N   0  0  0  0  0  1  0  0  0  0  0  0
  184.7750  178.4730  146.7880 C   0  0  0  0  0  2  0  0  0  0  0  0
  185.5290  177.7910  137.0440 C   0  0  0  0  0  3  0  0  0  0  0  0
  185.4420  178.2870  138.3460 C   0  0  0  0  0  3  0  0  0  0  0  0
  186.5800  178.3310  139.1540 C   0  0  0  0  0  3  0  0  0  0  0  0
  187.8190  177.8920  138.6610 C   0  0  0  0  0  0  0  0  0  0  0  0
  186.7530  177.3410  136.5470 C   0  0  0  0  0  0  0  0  0  0  0  0
  187.8990  177.3930  137.3520 C   0  0  0  0  0  3  0  0  0  0  0  0
  186.8140  176.7500  135.1850 C   0  0  0  0  0  2  0  0  0  0  0  0
  187.1390  175.2620  135.2380 C   0  0  0  0  0  2  0  0  0  0  0  0
  185.8760  174.4520  135.0010 C   0  0  0  0  0  2  0  0  0  0  0  0
  185.1700  174.1510  136.3140 C   0  0  0  0  0  2  0  0  0  0  0  0
  183.7600  173.8740  136.0580 N   0  0  0  0  0  0  0  0  0  0  0  0
  183.1220  175.9760  135.2760 O   0  0  0  0  0  0  0  0  0  0  0  0
  182.8500  174.9820  136.0040 C   0  0  0  0  0  0  0  0  0  0  0  0
  183.5120  170.0700  136.2680 C   0  0  0  0  0  2  0  0  0  0  0  0
  183.9660  171.4920  136.4390 C   0  0  0  0  0  2  0  0  0  0  0  0
  182.1920  172.2400  135.0080 N   0  0  0  0  0  0  0  0  0  0  0  0
  183.3020  172.5160  135.8800 C   0  0  0  0  0  0  0  0  0  0  0  0
  182.8060  169.8800  134.9280 C   0  0  0  0  0  2  0  0  0  0  0  0
  181.6670  170.8900  134.8240 C   0  0  0  0  0  2  0  0  0  0  0  0
  180.4970  175.0900  136.2240 O   0  0  0  0  0  0  0  0  0  0  0  0
  181.6130  174.9950  136.8040 C   0  0  0  0  0  0  0  0  0  0  0  0
  181.7020  174.8930  138.2020 O   0  0  0  0  0  0  0  0  0  0  0  0
  182.5190  175.6820  139.0310 C   0  0  0  0  0  3  0  0  0  0  0  0
  182.1190  176.8020  139.6070 C   0  0  0  0  0  2  0  0  0  0  0  0
  192.7100  177.0280  138.9590 C   0  0  0  0  0  2  0  0  0  0  0  0
  192.5200  176.2340  137.6710 C   0  0  0  0  0  2  0  0  0  0  0  0
  192.7120  174.8070  137.8980 N   0  0  0  0  0  2  0  0  0  0  0  0
  193.3550  174.2380  136.7200 C   0  0  0  0  0  2  0  0  0  0  0  0
  194.8530  174.4950  136.7580 C   0  0  0  0  0  2  0  0  0  0  0  0
  195.3690  174.3590  138.1800 C   0  0  0  0  0  2  0  0  0  0  0  0
  196.7350  174.8430  138.2640 N   0  0  0  0  0  0  0  0  0  0  0  0
  197.0260  174.9690  139.5820 O   0  0  0  0  0  1  0  0  0  0  0  0
  197.5790  173.7770  137.7460 C   0  0  0  0  0  2  0  0  0  0  0  0
  198.5580  174.3280  136.7670 C   0  0  0  0  0  0  0  0  0  0  0  0
  198.4280  175.5050  136.3360 O   0  0  0  0  0  1  0  0  0  0  0  0
  199.5850  173.5250  136.2880 O   0  0  0  0  0  0  0  0  0  0  0  0
  1 24  1  6  0  0  0
  1  4  1  0  0  0  0
  2  1  1  0  0  0  0
  2  7  1  0  0  0  0
  3  4  1  6  0  0  0
  3 10  1  0  0  0  0
  6  3  1  0  0  0  0
  6  5  2  0  0  0  0
  7  6  1  0  0  0  0
  8 12  2  0  0  0  0
  8 14  1  0  0  0  0
  9 17  1  0  0  0  0
 10 13  1  1  0  0  0
 10  8  1  0  0  0  0
 10 14  1  0  0  0  0
 11  9  1  0  0  0  0
 12 15  1  0  0  0  0
 14 11  2  0  0  0  0
 15  9  2  0  0  0  0
 17 16  2  0  0  0  0
 18 17  1  0  0  0  0
 19 20  1  0  0  0  0
 20 18  1  0  0  0  0
 21 22  1  0  0  0  0
 22 23  2  0  0  0  0
 24 23  1  0  0  0  0
 25 21  2  0  0  0  0
 25 26  1  0  0  0  0
 26 24  2  0  0  0  0
 27 28  1  0  0  0  0
 27 25  1  0  0  0  0
 29 28  1  0  0  0  0
 29 30  1  0  0  0  0
 31 30  1  0  0  0  0
 32 33  2  0  0  0  0
 33 31  1  0  0  0  0
 33 41  1  0  0  0  0
 34 35  1  0  0  0  0
 36 37  2  0  0  0  0
 37 31  1  0  0  0  0
 37 35  1  0  0  0  0
 38 34  1  0  0  0  0
 39 38  1  0  0  0  0
 39 36  1  0  0  0  0
 40 41  2  0  0  0  0
 41 42  1  0  0  0  0
 42 43  1  0  0  0  0
 43 44  2  0  0  0  0
 45  7  1  0  0  0  0
 46 47  1  0  0  0  0
 46 45  1  0  0  0  0
 48 49  1  0  0  0  0
 48 47  1  0  0  0  0
 49 50  1  0  0  0  0
 50 51  1  0  0  0  0
 51 52  1  0  0  0  0
 53 51  1  0  0  0  0
 54 53  1  0  0  0  0
 55 54  1  0  0  0  0
 56 54  2  0  0  0  0
M  END
>  <MODEL>
2

>  <REMARK>
 VINA RESULT:      -6.4      3.362     10.147
  Name = 
  23 active torsions:
  status: ('A' for Active; 'I' for Inactive)
    1  A    between atoms: C_6  and  C_15
    2  A    between atoms: C_6  and  N_56
    3  A    between atoms: C_8  and  C_44
    4  A    between atoms: N_9  and  C_15
    5  A    between atoms: N_9  and  C_31
    6  A    between atoms: C_10  and  C_22
    7  A    between atoms: C_13  and  N_23
    8  A    between atoms: C_13  and  C_30
    9  A    between atoms: C_14  and  O_33
   10  A    between atoms: C_16  and  C_48
   11  A    between atoms: C_17  and  N_23
   12  A    between atoms: C_24  and  C_35
   13  A    between atoms: C_25  and  C_41
   14  A    between atoms: C_28  and  C_31
   15  A    between atoms: C_28  and  C_34
   16  A    between atoms: C_30  and  C_47
   17  A    between atoms: O_33  and  C_36
   18  A    between atoms: C_34  and  N_43
   19  A    between atoms: C_36  and  C_55
   20  A    between atoms: C_37  and  C_39
   21  A    between atoms: C_39  and  C_47
   22  A    between atoms: C_41  and  C_48
   23  A    between atoms: N_43  and  C_44
                            x       y       z     vdW  Elec       q    Type
                         _______ _______ _______ _____ _____    ______ ____

>  <TORSDO>
F 23

$$$$
=
 OpenBabel10232408573D

 56 60  0  0  1  0  0  0  0  0999 V2000
  186.6350  178.7240  141.2500 C   0  0  2  0  0  3  0  0  0  0  0  0
  185.9900  178.1740  142.5200 C   0  0  0  0  0  2  0  0  0  0  0  0
  184.5620  179.1370  140.1260 C   0  0  2  0  0  3  0  0  0  0  0  0
  185.8050  178.3590  140.1020 N   0  0  0  0  0  2  0  0  0  0  0  0
  182.6300  179.2770  141.5470 O   0  0  0  0  0  0  0  0  0  0  0  0
  183.8570  179.0010  141.4570 C   0  0  0  0  0  0  0  0  0  0  0  0
  184.6050  178.6340  142.6310 N   0  0  0  0  0  0  0  0  0  0  0  0
  183.2450  177.3430  139.0440 C   0  0  0  0  0  0  0  0  0  0  0  0
  184.3760  175.6400  137.2360 C   0  0  0  0  0  0  0  0  0  0  0  0
  183.6680  178.6770  138.9770 C   0  0  1  0  0  0  0  0  0  0  0  0
  184.8530  177.0010  137.1330 C   0  0  0  0  0  3  0  0  0  0  0  0
  182.7600  176.0820  139.2020 C   0  0  0  0  0  3  0  0  0  0  0  0
  182.7280  179.5440  138.4500 F   0  0  0  0  0  0  0  0  0  0  0  0
  184.2380  177.7800  138.0640 C   0  0  0  0  0  0  0  0  0  0  0  0
  183.3780  175.2180  138.2310 C   0  0  0  0  0  3  0  0  0  0  0  0
  185.4070  174.9800  135.2000 O   0  0  0  0  0  0  0  0  0  0  0  0
  184.8970  174.6230  136.2970 C   0  0  0  0  0  0  0  0  0  0  0  0
  184.8670  173.1630  136.6350 C   0  0  0  0  0  2  0  0  0  0  0  0
  187.2440  173.5380  137.0280 N   0  0  0  0  0  1  0  0  0  0  0  0
  186.0830  172.7750  137.4610 C   0  0  0  0  0  2  0  0  0  0  0  0
  190.6520  177.2450  140.7710 C   0  0  0  0  0  3  0  0  0  0  0  0
  190.1830  177.5660  142.0460 C   0  0  0  0  0  3  0  0  0  0  0  0
  188.8830  178.0480  142.2110 C   0  0  0  0  0  3  0  0  0  0  0  0
  188.0340  178.1990  141.1030 C   0  0  0  0  0  0  0  0  0  0  0  0
  189.8210  177.4020  139.6600 C   0  0  0  0  0  0  0  0  0  0  0  0
  188.5130  177.8750  139.8240 C   0  0  0  0  0  3  0  0  0  0  0  0
  190.3590  177.1230  138.3030 C   0  0  0  0  0  2  0  0  0  0  0  0
  189.7560  175.8520  137.7170 C   0  0  0  0  0  2  0  0  0  0  0  0
  190.7120  175.2540  136.6990 C   0  0  0  0  0  2  0  0  0  0  0  0
  191.7900  174.4310  137.3850 C   0  0  0  0  0  2  0  0  0  0  0  0
  192.7580  173.9700  136.3950 N   0  0  0  0  0  0  0  0  0  0  0  0
  191.3360  172.6580  135.0930 O   0  0  0  0  0  0  0  0  0  0  0  0
  192.4580  172.7760  135.6580 C   0  0  0  0  0  0  0  0  0  0  0  0
  195.3480  176.3800  134.9590 C   0  0  0  0  0  2  0  0  0  0  0  0
  194.0800  175.6120  135.2040 C   0  0  0  0  0  3  0  0  0  0  0  0
  195.1610  174.3640  136.9440 N   0  0  0  0  0  2  0  0  0  0  0  0
  193.9880  174.6960  136.1810 C   0  0  0  0  0  0  0  0  0  0  0  0
  196.5700  175.5520  135.3460 C   0  0  0  0  0  2  0  0  0  0  0  0
  196.4170  175.0930  136.7920 C   0  0  0  0  0  2  0  0  0  0  0  0
  193.2150  170.6020  136.2070 O   0  0  0  0  0  0  0  0  0  0  0  0
  193.4260  171.6700  135.5680 C   0  0  0  0  0  0  0  0  0  0  0  0
  194.5680  171.8240  134.7650 O   0  0  0  0  0  0  0  0  0  0  0  0
  195.8060  171.1900  134.9690 C   0  0  0  0  0  3  0  0  0  0  0  0
  196.9730  171.8020  134.8690 C   0  0  0  0  0  2  0  0  0  0  0  0
  183.9330  178.4540  143.9100 C   0  0  0  0  0  2  0  0  0  0  0  0
  184.7560  179.0530  145.0440 C   0  0  0  0  0  2  0  0  0  0  0  0
  184.9170  178.1040  146.1380 N   0  0  0  0  0  2  0  0  0  0  0  0
  186.1290  178.4490  146.8700 C   0  0  0  0  0  2  0  0  0  0  0  0
  187.3360  178.4120  145.9460 C   0  0  0  0  0  2  0  0  0  0  0  0
  187.9150  177.0090  145.9010 C   0  0  0  0  0  2  0  0  0  0  0  0
  189.3630  177.0680  145.8230 N   0  0  0  0  0  0  0  0  0  0  0  0
  189.6880  178.3530  145.5360 O   0  0  0  0  0  1  0  0  0  0  0  0
  189.8560  176.7990  147.1650 C   0  0  0  0  0  2  0  0  0  0  0  0
  191.3340  176.6100  147.1400 C   0  0  0  0  0  0  0  0  0  0  0  0
  192.0570  177.1640  148.0120 O   0  0  0  0  0  1  0  0  0  0  0  0
  191.9200  175.8680  146.1240 O   0  0  0  0  0  0  0  0  0  0  0  0
  1 24  1  6  0  0  0
  1  2  1  0  0  0  0
  2  7  1  0  0  0  0
  3  4  1  1  0  0  0
  3  6  1  0  0  0  0
  4  1  1  0  0  0  0
  6  5  2  0  0  0  0
  6  7  1  0  0  0  0
  7 45  1  0  0  0  0
  8 12  1  0  0  0  0
  9 15  1  0  0  0  0
 10 13  1  6  0  0  0
 10  8  1  0  0  0  0
 10  3  1  0  0  0  0
 11  9  2  0  0  0  0
 11 14  1  0  0  0  0
 14 10  1  0  0  0  0
 14  8  2  0  0  0  0
 15 12  2  0  0  0  0
 16 17  2  0  0  0  0
 17 18  1  0  0  0  0
 17  9  1  0  0  0  0
 18 20  1  0  0  0  0
 19 20  1  0  0  0  0
 21 22  1  0  0  0  0
 22 23  2  0  0  0  0
 24 23  1  0  0  0  0
 25 26  1  0  0  0  0
 25 21  2  0  0  0  0
 26 24  2  0  0  0  0
 27 25  1  0  0  0  0
 28 27  1  0  0  0  0
 29 30  1  0  0  0  0
 29 28  1  0  0  0  0
 31 30  1  0  0  0  0
 32 33  2  0  0  0  0
 33 31  1  0  0  0  0
 34 35  1  0  0  0  0
 34 38  1  0  0  0  0
 35 37  2  0  0  0  0
 37 31  1  0  0  0  0
 37 36  1  0  0  0  0
 38 39  1  0  0  0  0
 39 36  1  0  0  0  0
 41 33  1  0  0  0  0
 41 40  2  0  0  0  0
 42 43  1  0  0  0  0
 42 41  1  0  0  0  0
 44 43  2  0  0  0  0
 45 46  1  0  0  0  0
 46 47  1  0  0  0  0
 47 48  1  0  0  0  0
 49 48  1  0  0  0  0
 50 49  1  0  0  0  0
 51 50  1  0  0  0  0
 51 53  1  0  0  0  0
 52 51  1  0  0  0  0
 54 53  1  0  0  0  0
 54 55  1  0  0  0  0
 56 54  2  0  0  0  0
M  END
>  <MODEL>
3

>  <REMARK>
 VINA RESULT:      -6.3      2.163      3.075
  Name = 
  23 active torsions:
  status: ('A' for Active; 'I' for Inactive)
    1  A    between atoms: C_6  and  C_15
    2  A    between atoms: C_6  and  N_56
    3  A    between atoms: C_8  and  C_44
    4  A    between atoms: N_9  and  C_15
    5  A    between atoms: N_9  and  C_31
    6  A    between atoms: C_10  and  C_22
    7  A    between atoms: C_13  and  N_23
    8  A    between atoms: C_13  and  C_30
    9  A    between atoms: C_14  and  O_33
   10  A    between atoms: C_16  and  C_48
   11  A    between atoms: C_17  and  N_23
   12  A    between atoms: C_24  and  C_35
   13  A    between atoms: C_25  and  C_41
   14  A    between atoms: C_28  and  C_31
   15  A    between atoms: C_28  and  C_34
   16  A    between atoms: C_30  and  C_47
   17  A    between atoms: O_33  and  C_36
   18  A    between atoms: C_34  and  N_43
   19  A    between atoms: C_36  and  C_55
   20  A    between atoms: C_37  and  C_39
   21  A    between atoms: C_39  and  C_47
   22  A    between atoms: C_41  and  C_48
   23  A    between atoms: N_43  and  C_44
                            x       y       z     vdW  Elec       q    Type
                         _______ _______ _______ _____ _____    ______ ____

>  <TORSDO>
F 23

$$$$
=
 OpenBabel10232408573D

 56 60  0  0  1  0  0  0  0  0999 V2000
  189.3480  178.0520  139.4400 C   0  0  2  0  0  3  0  0  0  0  0  0
  190.7130  177.5120  139.0190 C   0  0  0  0  0  2  0  0  0  0  0  0
  189.5840  177.4450  141.7430 C   0  0  2  0  0  3  0  0  0  0  0  0
  188.8180  177.2130  140.5150 N   0  0  0  0  0  2  0  0  0  0  0  0
  191.8380  177.0620  142.4820 O   0  0  0  0  0  0  0  0  0  0  0  0
  191.0670  177.2680  141.5060 C   0  0  0  0  0  0  0  0  0  0  0  0
  191.6030  177.4150  140.1770 N   0  0  0  0  0  0  0  0  0  0  0  0
  187.7690  176.7260  143.2630 C   0  0  0  0  0  0  0  0  0  0  0  0
  187.5110  177.7760  145.7690 C   0  0  0  0  0  0  0  0  0  0  0  0
  189.0810  176.4960  142.8280 C   0  0  1  0  0  0  0  0  0  0  0  0
  188.8830  177.5680  145.3620 C   0  0  0  0  0  3  0  0  0  0  0  0
  186.4580  176.9040  143.5770 C   0  0  0  0  0  3  0  0  0  0  0  0
  189.4400  175.1600  142.7910 F   0  0  0  0  0  0  0  0  0  0  0  0
  188.9200  177.0400  144.1080 C   0  0  0  0  0  0  0  0  0  0  0  0
  186.3650  177.4550  144.9040 C   0  0  0  0  0  3  0  0  0  0  0  0
  186.5000  179.3390  147.2450 O   0  0  0  0  0  0  0  0  0  0  0  0
  187.2350  178.3220  147.1160 C   0  0  0  0  0  0  0  0  0  0  0  0
  187.7840  177.6690  148.3490 C   0  0  0  0  0  2  0  0  0  0  0  0
  190.2190  177.7340  148.2460 N   0  0  0  0  0  1  0  0  0  0  0  0
  189.0460  178.3770  148.8180 C   0  0  0  0  0  2  0  0  0  0  0  0
  186.6260  178.1320  136.1030 C   0  0  0  0  0  3  0  0  0  0  0  0
  187.5950  179.1300  136.2260 C   0  0  0  0  0  3  0  0  0  0  0  0
  188.4810  179.1130  137.3060 C   0  0  0  0  0  3  0  0  0  0  0  0
  188.4140  178.0890  138.2640 C   0  0  0  0  0  0  0  0  0  0  0  0
  186.5430  177.1160  137.0550 C   0  0  0  0  0  0  0  0  0  0  0  0
  187.4370  177.0900  138.1340 C   0  0  0  0  0  3  0  0  0  0  0  0
  185.4610  176.1020  136.9480 C   0  0  0  0  0  2  0  0  0  0  0  0
  184.3580  176.3560  137.9670 C   0  0  0  0  0  2  0  0  0  0  0  0
  183.6840  177.6860  137.6730 C   0  0  0  0  0  2  0  0  0  0  0  0
  183.8910  178.6640  138.8170 C   0  0  0  0  0  2  0  0  0  0  0  0
  182.5970  179.1590  139.2770 N   0  0  0  0  0  0  0  0  0  0  0  0
  182.8980  178.8610  141.5700 O   0  0  0  0  0  0  0  0  0  0  0  0
  182.1350  178.7480  140.5720 C   0  0  0  0  0  0  0  0  0  0  0  0
  180.2500  180.4050  136.5360 C   0  0  0  0  0  2  0  0  0  0  0  0
  181.0810  179.5240  137.4250 C   0  0  0  0  0  3  0  0  0  0  0  0
  181.8760  181.4530  138.6100 N   0  0  0  0  0  2  0  0  0  0  0  0
  181.8060  180.0270  138.4370 C   0  0  0  0  0  0  0  0  0  0  0  0
  180.8690  181.7950  136.4140 C   0  0  0  0  0  2  0  0  0  0  0  0
  181.0670  182.3710  137.8120 C   0  0  0  0  0  2  0  0  0  0  0  0
  179.9820  178.7190  141.5530 O   0  0  0  0  0  0  0  0  0  0  0  0
  180.7930  178.1700  140.7560 C   0  0  0  0  0  0  0  0  0  0  0  0
  180.4380  177.0200  140.0320 O   0  0  0  0  0  0  0  0  0  0  0  0
  181.3020  175.9630  139.7000 C   0  0  0  0  0  3  0  0  0  0  0  0
  180.9640  174.9530  138.9170 C   0  0  0  0  0  2  0  0  0  0  0  0
  193.0200  177.2010  139.9240 C   0  0  0  0  0  2  0  0  0  0  0  0
  193.2240  176.2040  138.7880 C   0  0  0  0  0  2  0  0  0  0  0  0
  193.8510  176.8390  137.6360 N   0  0  0  0  0  2  0  0  0  0  0  0
  193.2260  176.3140  136.4280 C   0  0  0  0  0  2  0  0  0  0  0  0
  194.1240  175.2770  135.7740 C   0  0  0  0  0  2  0  0  0  0  0  0
  193.2830  174.1670  135.1680 C   0  0  0  0  0  2  0  0  0  0  0  0
  193.1800  173.0550  136.0960 N   0  0  0  0  0  0  0  0  0  0  0  0
  192.0070  173.2060  136.7600 O   0  0  0  0  0  1  0  0  0  0  0  0
  193.0540  171.8550  135.2840 C   0  0  0  0  0  2  0  0  0  0  0  0
  194.0340  170.8260  135.7350 C   0  0  0  0  0  0  0  0  0  0  0  0
  194.0110  170.4080  136.9240 O   0  0  0  0  0  1  0  0  0  0  0  0
  195.0090  170.3680  134.8590 O   0  0  0  0  0  0  0  0  0  0  0  0
  1 24  1  6  0  0  0
  1  4  1  0  0  0  0
  2  1  1  0  0  0  0
  2  7  1  0  0  0  0
  3  4  1  6  0  0  0
  3 10  1  0  0  0  0
  6  3  1  0  0  0  0
  6  5  2  0  0  0  0
  7  6  1  0  0  0  0
  8 12  2  0  0  0  0
  8 14  1  0  0  0  0
  9 17  1  0  0  0  0
 10 13  1  6  0  0  0
 10  8  1  0  0  0  0
 10 14  1  0  0  0  0
 11  9  1  0  0  0  0
 12 15  1  0  0  0  0
 14 11  2  0  0  0  0
 15  9  2  0  0  0  0
 17 16  2  0  0  0  0
 17 18  1  0  0  0  0
 18 20  1  0  0  0  0
 19 20  1  0  0  0  0
 21 22  2  0  0  0  0
 21 25  1  0  0  0  0
 22 23  1  0  0  0  0
 23 24  2  0  0  0  0
 25 26  2  0  0  0  0
 26 24  1  0  0  0  0
 27 25  1  0  0  0  0
 27 28  1  0  0  0  0
 29 28  1  0  0  0  0
 29 30  1  0  0  0  0
 30 31  1  0  0  0  0
 31 33  1  0  0  0  0
 33 41  1  0  0  0  0
 33 32  2  0  0  0  0
 34 35  1  0  0  0  0
 35 37  2  0  0  0  0
 37 36  1  0  0  0  0
 37 31  1  0  0  0  0
 38 34  1  0  0  0  0
 38 39  1  0  0  0  0
 39 36  1  0  0  0  0
 41 40  2  0  0  0  0
 42 41  1  0  0  0  0
 43 42  1  0  0  0  0
 44 43  2  0  0  0  0
 45  7  1  0  0  0  0
 46 45  1  0  0  0  0
 47 46  1  0  0  0  0
 48 47  1  0  0  0  0
 49 48  1  0  0  0  0
 50 49  1  0  0  0  0
 50 51  1  0  0  0  0
 51 52  1  0  0  0  0
 53 54  1  0  0  0  0
 53 51  1  0  0  0  0
 54 55  1  0  0  0  0
 56 54  2  0  0  0  0
M  END
>  <MODEL>
4

>  <REMARK>
 VINA RESULT:      -6.2      2.762     11.212
  Name = 
  23 active torsions:
  status: ('A' for Active; 'I' for Inactive)
    1  A    between atoms: C_6  and  C_15
    2  A    between atoms: C_6  and  N_56
    3  A    between atoms: C_8  and  C_44
    4  A    between atoms: N_9  and  C_15
    5  A    between atoms: N_9  and  C_31
    6  A    between atoms: C_10  and  C_22
    7  A    between atoms: C_13  and  N_23
    8  A    between atoms: C_13  and  C_30
    9  A    between atoms: C_14  and  O_33
   10  A    between atoms: C_16  and  C_48
   11  A    between atoms: C_17  and  N_23
   12  A    between atoms: C_24  and  C_35
   13  A    between atoms: C_25  and  C_41
   14  A    between atoms: C_28  and  C_31
   15  A    between atoms: C_28  and  C_34
   16  A    between atoms: C_30  and  C_47
   17  A    between atoms: O_33  and  C_36
   18  A    between atoms: C_34  and  N_43
   19  A    between atoms: C_36  and  C_55
   20  A    between atoms: C_37  and  C_39
   21  A    between atoms: C_39  and  C_47
   22  A    between atoms: C_41  and  C_48
   23  A    between atoms: N_43  and  C_44
                            x       y       z     vdW  Elec       q    Type
                         _______ _______ _______ _____ _____    ______ ____

>  <TORSDO>
F 23

$$$$
=
 OpenBabel10232408573D

 56 60  0  0  1  0  0  0  0  0999 V2000
  187.7830  178.4090  140.3280 C   0  0  2  0  0  3  0  0  0  0  0  0
  187.6530  177.4620  139.1380 C   0  0  0  0  0  2  0  0  0  0  0  0
  190.1510  178.1410  140.5520 C   0  0  2  0  0  3  0  0  0  0  0  0
  188.8540  177.9290  141.2010 N   0  0  0  0  0  2  0  0  0  0  0  0
  191.2790  177.2900  138.6090 O   0  0  0  0  0  0  0  0  0  0  0  0
  190.1750  177.5360  139.1670 C   0  0  0  0  0  0  0  0  0  0  0  0
  188.9410  177.3170  138.4570 N   0  0  0  0  0  0  0  0  0  0  0  0
  190.8390  176.5160  142.2880 C   0  0  0  0  0  0  0  0  0  0  0  0
  190.7280  177.1380  144.9430 C   0  0  0  0  0  0  0  0  0  0  0  0
  191.2480  177.5490  141.4330 C   0  0  1  0  0  0  0  0  0  0  0  0
  191.1450  178.2390  144.1020 C   0  0  0  0  0  3  0  0  0  0  0  0
  190.4320  175.4430  143.0160 C   0  0  0  0  0  3  0  0  0  0  0  0
  192.5250  177.3910  140.9250 F   0  0  0  0  0  0  0  0  0  0  0  0
  191.1770  177.8430  142.8010 C   0  0  0  0  0  0  0  0  0  0  0  0
  190.3900  175.8100  144.4080 C   0  0  0  0  0  3  0  0  0  0  0  0
  191.5700  176.9120  147.1520 O   0  0  0  0  0  0  0  0  0  0  0  0
  190.6480  177.3410  146.4050 C   0  0  0  0  0  0  0  0  0  0  0  0
  189.5030  178.0820  147.0280 C   0  0  0  0  0  2  0  0  0  0  0  0
  188.0380  177.5910  148.9140 N   0  0  0  0  0  1  0  0  0  0  0  0
  188.4880  177.1140  147.6150 C   0  0  0  0  0  2  0  0  0  0  0  0
  184.0110  178.6640  142.3920 C   0  0  0  0  0  3  0  0  0  0  0  0
  185.1860  178.4850  143.1240 C   0  0  0  0  0  3  0  0  0  0  0  0
  186.4130  178.4010  142.4640 C   0  0  0  0  0  3  0  0  0  0  0  0
  186.4780  178.5070  141.0650 C   0  0  0  0  0  0  0  0  0  0  0  0
  184.0600  178.7590  141.0000 C   0  0  0  0  0  0  0  0  0  0  0  0
  185.2920  178.6850  140.3360 C   0  0  0  0  0  3  0  0  0  0  0  0
  182.7930  178.8770  140.2320 C   0  0  0  0  0  2  0  0  0  0  0  0
  183.0560  179.2860  138.7880 C   0  0  0  0  0  2  0  0  0  0  0  0
  182.0380  178.6250  137.8750 C   0  0  0  0  0  2  0  0  0  0  0  0
  181.9160  177.1410  138.1820 C   0  0  0  0  0  2  0  0  0  0  0  0
  182.1070  176.3710  136.9560 N   0  0  0  0  0  0  0  0  0  0  0  0
  180.0240  176.7450  135.9760 O   0  0  0  0  0  0  0  0  0  0  0  0
  180.9410  175.9220  136.2500 C   0  0  0  0  0  0  0  0  0  0  0  0
  185.2890  176.3160  134.8480 C   0  0  0  0  0  2  0  0  0  0  0  0
  183.9100  176.6210  135.3610 C   0  0  0  0  0  3  0  0  0  0  0  0
  184.2240  175.0660  137.1600 N   0  0  0  0  0  2  0  0  0  0  0  0
  183.4360  176.0620  136.4860 C   0  0  0  0  0  0  0  0  0  0  0  0
  185.7130  174.9010  135.2350 C   0  0  0  0  0  2  0  0  0  0  0  0
  185.5870  174.7450  136.7470 C   0  0  0  0  0  2  0  0  0  0  0  0
  181.0820  174.1510  134.6870 O   0  0  0  0  0  0  0  0  0  0  0  0
  180.7810  174.5120  135.8580 C   0  0  0  0  0  0  0  0  0  0  0  0
  180.3000  173.5900  136.8030 O   0  0  0  0  0  0  0  0  0  0  0  0
  180.9020  172.3640  137.1320 C   0  0  0  0  0  3  0  0  0  0  0  0
  182.2010  172.1330  137.0410 C   0  0  0  0  0  2  0  0  0  0  0  0
  188.9440  176.6930  137.1430 C   0  0  0  0  0  2  0  0  0  0  0  0
  189.1250  175.1830  137.2600 C   0  0  0  0  0  2  0  0  0  0  0  0
  190.0780  174.6880  136.2760 N   0  0  0  0  0  2  0  0  0  0  0  0
  191.0850  173.8960  136.9710 C   0  0  0  0  0  2  0  0  0  0  0  0
  192.3910  174.6670  137.0690 C   0  0  0  0  0  2  0  0  0  0  0  0
  193.5600  173.7030  137.1650 C   0  0  0  0  0  2  0  0  0  0  0  0
  194.7840  174.4280  137.4570 N   0  0  0  0  0  0  0  0  0  0  0  0
  194.4160  175.6700  137.8570 O   0  0  0  0  0  1  0  0  0  0  0  0
  195.3820  173.7730  138.6100 C   0  0  0  0  0  2  0  0  0  0  0  0
  196.3870  174.6720  139.2450 C   0  0  0  0  0  0  0  0  0  0  0  0
  196.1010  175.2900  140.3060 O   0  0  0  0  0  1  0  0  0  0  0  0
  197.6200  174.8700  138.6380 O   0  0  0  0  0  0  0  0  0  0  0  0
  1 24  1  1  0  0  0
  1  4  1  0  0  0  0
  2  1  1  0  0  0  0
  3  6  1  6  0  0  0
  3  4  1  0  0  0  0
  3 10  1  0  0  0  0
  5  6  2  0  0  0  0
  7  2  1  0  0  0  0
  7  6  1  0  0  0  0
  8 14  2  0  0  0  0
  8 12  1  0  0  0  0
  9 17  1  0  0  0  0
 10 13  1  6  0  0  0
 10  8  1  0  0  0  0
 10 14  1  0  0  0  0
 11  9  2  0  0  0  0
 12 15  2  0  0  0  0
 14 11  1  0  0  0  0
 15  9  1  0  0  0  0
 17 18  1  0  0  0  0
 17 16  2  0  0  0  0
 18 20  1  0  0  0  0
 20 19  1  0  0  0  0
 21 22  1  0  0  0  0
 23 22  2  0  0  0  0
 24 23  1  0  0  0  0
 25 21  2  0  0  0  0
 26 25  1  0  0  0  0
 26 24  2  0  0  0  0
 27 25  1  0  0  0  0
 28 27  1  0  0  0  0
 29 30  1  0  0  0  0
 29 28  1  0  0  0  0
 31 30  1  0  0  0  0
 32 33  2  0  0  0  0
 33 31  1  0  0  0  0
 34 38  1  0  0  0  0
 34 35  1  0  0  0  0
 35 37  2  0  0  0  0
 37 31  1  0  0  0  0
 37 36  1  0  0  0  0
 38 39  1  0  0  0  0
 39 36  1  0  0  0  0
 40 41  2  0  0  0  0
 41 33  1  0  0  0  0
 41 42  1  0  0  0  0
 42 43  1  0  0  0  0
 44 43  2  0  0  0  0
 45 46  1  0  0  0  0
 45  7  1  0  0  0  0
 47 48  1  0  0  0  0
 47 46  1  0  0  0  0
 48 49  1  0  0  0  0
 49 50  1  0  0  0  0
 50 51  1  0  0  0  0
 51 52  1  0  0  0  0
 51 53  1  0  0  0  0
 53 54  1  0  0  0  0
 54 55  1  0  0  0  0
 56 54  2  0  0  0  0
M  END
>  <MODEL>
5

>  <REMARK>
 VINA RESULT:      -6.2      2.883     10.488
  Name = 
  23 active torsions:
  status: ('A' for Active; 'I' for Inactive)
    1  A    between atoms: C_6  and  C_15
    2  A    between atoms: C_6  and  N_56
    3  A    between atoms: C_8  and  C_44
    4  A    between atoms: N_9  and  C_15
    5  A    between atoms: N_9  and  C_31
    6  A    between atoms: C_10  and  C_22
    7  A    between atoms: C_13  and  N_23
    8  A    between atoms: C_13  and  C_30
    9  A    between atoms: C_14  and  O_33
   10  A    between atoms: C_16  and  C_48
   11  A    between atoms: C_17  and  N_23
   12  A    between atoms: C_24  and  C_35
   13  A    between atoms: C_25  and  C_41
   14  A    between atoms: C_28  and  C_31
   15  A    between atoms: C_28  and  C_34
   16  A    between atoms: C_30  and  C_47
   17  A    between atoms: O_33  and  C_36
   18  A    between atoms: C_34  and  N_43
   19  A    between atoms: C_36  and  C_55
   20  A    between atoms: C_37  and  C_39
   21  A    between atoms: C_39  and  C_47
   22  A    between atoms: C_41  and  C_48
   23  A    between atoms: N_43  and  C_44
                            x       y       z     vdW  Elec       q    Type
                         _______ _______ _______ _____ _____    ______ ____

>  <TORSDO>
F 23

$$$$
=
 OpenBabel10232408573D

 56 60  0  0  1  0  0  0  0  0999 V2000
  186.7610  178.7510  141.5760 C   0  0  2  0  0  3  0  0  0  0  0  0
  186.0660  178.1860  142.8130 C   0  0  0  0  0  2  0  0  0  0  0  0
  184.7330  179.2710  140.4160 C   0  0  2  0  0  3  0  0  0  0  0  0
  185.9480  178.4510  140.3980 N   0  0  0  0  0  2  0  0  0  0  0  0
  182.7720  179.4370  141.7940 O   0  0  0  0  0  0  0  0  0  0  0  0
  183.9900  179.1200  141.7250 C   0  0  0  0  0  0  0  0  0  0  0  0
  184.6960  178.6910  142.9050 N   0  0  0  0  0  0  0  0  0  0  0  0
  183.2890  177.5980  139.3030 C   0  0  0  0  0  0  0  0  0  0  0  0
  184.3210  175.7430  137.5890 C   0  0  0  0  0  0  0  0  0  0  0  0
  183.8530  178.8790  139.2320 C   0  0  1  0  0  0  0  0  0  0  0  0
  184.9430  177.0440  137.4850 C   0  0  0  0  0  3  0  0  0  0  0  0
  182.6670  176.4000  139.4610 C   0  0  0  0  0  3  0  0  0  0  0  0
  183.0360  179.8260  138.6410 F   0  0  0  0  0  0  0  0  0  0  0  0
  184.3690  177.9060  138.3670 C   0  0  0  0  0  0  0  0  0  0  0  0
  183.2360  175.4520  138.5390 C   0  0  0  0  0  3  0  0  0  0  0  0
  183.9710  174.1260  135.8840 O   0  0  0  0  0  0  0  0  0  0  0  0
  184.7770  174.6540  136.6980 C   0  0  0  0  0  0  0  0  0  0  0  0
  186.1990  174.1790  136.7110 C   0  0  0  0  0  2  0  0  0  0  0  0
  187.6710  172.4150  137.5270 N   0  0  0  0  0  1  0  0  0  0  0  0
  186.2870  172.7540  137.2320 C   0  0  0  0  0  2  0  0  0  0  0  0
  190.7300  177.1350  141.1440 C   0  0  0  0  0  3  0  0  0  0  0  0
  190.3230  177.6410  142.3800 C   0  0  0  0  0  3  0  0  0  0  0  0
  189.0380  178.1680  142.5290 C   0  0  0  0  0  3  0  0  0  0  0  0
  188.1450  178.1820  141.4470 C   0  0  0  0  0  0  0  0  0  0  0  0
  189.8550  177.1540  140.0570 C   0  0  0  0  0  0  0  0  0  0  0  0
  188.5620  177.6730  140.2070 C   0  0  0  0  0  3  0  0  0  0  0  0
  190.3280  176.6780  138.7310 C   0  0  0  0  0  2  0  0  0  0  0  0
  191.8060  176.9830  138.5260 C   0  0  0  0  0  2  0  0  0  0  0  0
  192.3560  176.1250  137.4000 C   0  0  0  0  0  2  0  0  0  0  0  0
  192.4220  174.6630  137.8130 C   0  0  0  0  0  2  0  0  0  0  0  0
  192.5970  173.8280  136.6290 N   0  0  0  0  0  0  0  0  0  0  0  0
  194.4850  172.6400  137.3100 O   0  0  0  0  0  0  0  0  0  0  0  0
  193.8930  173.2610  136.3850 C   0  0  0  0  0  0  0  0  0  0  0  0
  189.5890  174.4050  134.3510 C   0  0  0  0  0  2  0  0  0  0  0  0
  190.7440  174.6190  135.2880 C   0  0  0  0  0  3  0  0  0  0  0  0
  191.1190  172.2510  135.3810 N   0  0  0  0  0  2  0  0  0  0  0  0
  191.4940  173.5960  135.7280 C   0  0  0  0  0  0  0  0  0  0  0  0
  188.9550  173.0340  134.5710 C   0  0  0  0  0  2  0  0  0  0  0  0
  190.0360  171.9650  134.4440 C   0  0  0  0  0  2  0  0  0  0  0  0
  194.7380  172.3980  134.3500 O   0  0  0  0  0  0  0  0  0  0  0  0
  194.5590  173.4120  135.0800 C   0  0  0  0  0  0  0  0  0  0  0  0
  194.9770  174.6890  134.6690 O   0  0  0  0  0  0  0  0  0  0  0  0
  196.1000  175.3790  135.1560 C   0  0  0  0  0  3  0  0  0  0  0  0
  197.1730  174.7850  135.6490 C   0  0  0  0  0  2  0  0  0  0  0  0
  183.9850  178.4950  144.1600 C   0  0  0  0  0  2  0  0  0  0  0  0
  184.9630  178.2220  145.2990 C   0  0  0  0  0  2  0  0  0  0  0  0
  185.3350  179.4550  145.9810 N   0  0  0  0  0  2  0  0  0  0  0  0
  186.1160  179.1070  147.1620 C   0  0  0  0  0  2  0  0  0  0  0  0
  186.8000  177.7640  146.9680 C   0  0  0  0  0  2  0  0  0  0  0  0
  188.2670  177.8660  147.3470 C   0  0  0  0  0  2  0  0  0  0  0  0
  189.0570  176.9580  146.5340 N   0  0  0  0  0  0  0  0  0  0  0  0
  188.3840  176.7890  145.3690 O   0  0  0  0  0  1  0  0  0  0  0  0
  190.2870  177.6640  146.2120 C   0  0  0  0  0  2  0  0  0  0  0  0
  191.4380  176.7170  146.2200 C   0  0  0  0  0  0  0  0  0  0  0  0
  192.0050  176.4200  147.3060 O   0  0  0  0  0  1  0  0  0  0  0  0
  191.9220  176.2050  145.0240 O   0  0  0  0  0  0  0  0  0  0  0  0
  1 24  1  6  0  0  0
  1  2  1  0  0  0  0
  2  7  1  0  0  0  0
  3  4  1  1  0  0  0
  3  6  1  0  0  0  0
  4  1  1  0  0  0  0
  6  5  2  0  0  0  0
  6  7  1  0  0  0  0
  7 45  1  0  0  0  0
  8 12  1  0  0  0  0
  9 15  1  0  0  0  0
 10 13  1  6  0  0  0
 10  8  1  0  0  0  0
 10  3  1  0  0  0  0
 11  9  2  0  0  0  0
 11 14  1  0  0  0  0
 14 10  1  0  0  0  0
 14  8  2  0  0  0  0
 15 12  2  0  0  0  0
 16 17  2  0  0  0  0
 17 18  1  0  0  0  0
 17  9  1  0  0  0  0
 18 20  1  0  0  0  0
 20 19  1  0  0  0  0
 21 22  1  0  0  0  0
 22 23  2  0  0  0  0
 24 23  1  0  0  0  0
 25 26  1  0  0  0  0
 25 21  2  0  0  0  0
 26 24  2  0  0  0  0
 27 25  1  0  0  0  0
 28 27  1  0  0  0  0
 29 30  1  0  0  0  0
 29 28  1  0  0  0  0
 31 30  1  0  0  0  0
 33 31  1  0  0  0  0
 33 32  2  0  0  0  0
 34 38  1  0  0  0  0
 34 35  1  0  0  0  0
 35 37  2  0  0  0  0
 36 37  1  0  0  0  0
 37 31  1  0  0  0  0
 39 38  1  0  0  0  0
 39 36  1  0  0  0  0
 40 41  2  0  0  0  0
 41 33  1  0  0  0  0
 42 41  1  0  0  0  0
 42 43  1  0  0  0  0
 43 44  2  0  0  0  0
 45 46  1  0  0  0  0
 46 47  1  0  0  0  0
 47 48  1  0  0  0  0
 49 48  1  0  0  0  0
 49 50  1  0  0  0  0
 51 50  1  0  0  0  0
 52 51  1  0  0  0  0
 53 54  1  0  0  0  0
 53 51  1  0  0  0  0
 54 55  1  0  0  0  0
 56 54  2  0  0  0  0
M  END
>  <MODEL>
6

>  <REMARK>
 VINA RESULT:      -6.2      2.573      3.882
  Name = 
  23 active torsions:
  status: ('A' for Active; 'I' for Inactive)
    1  A    between atoms: C_6  and  C_15
    2  A    between atoms: C_6  and  N_56
    3  A    between atoms: C_8  and  C_44
    4  A    between atoms: N_9  and  C_15
    5  A    between atoms: N_9  and  C_31
    6  A    between atoms: C_10  and  C_22
    7  A    between atoms: C_13  and  N_23
    8  A    between atoms: C_13  and  C_30
    9  A    between atoms: C_14  and  O_33
   10  A    between atoms: C_16  and  C_48
   11  A    between atoms: C_17  and  N_23
   12  A    between atoms: C_24  and  C_35
   13  A    between atoms: C_25  and  C_41
   14  A    between atoms: C_28  and  C_31
   15  A    between atoms: C_28  and  C_34
   16  A    between atoms: C_30  and  C_47
   17  A    between atoms: O_33  and  C_36
   18  A    between atoms: C_34  and  N_43
   19  A    between atoms: C_36  and  C_55
   20  A    between atoms: C_37  and  C_39
   21  A    between atoms: C_39  and  C_47
   22  A    between atoms: C_41  and  C_48
   23  A    between atoms: N_43  and  C_44
                            x       y       z     vdW  Elec       q    Type
                         _______ _______ _______ _____ _____    ______ ____

>  <TORSDO>
F 23

$$$$
=
 OpenBabel10232408573D

 56 60  0  0  1  0  0  0  0  0999 V2000
  189.2920  177.9730  139.2560 C   0  0  2  0  0  3  0  0  0  0  0  0
  190.6180  177.3450  138.8330 C   0  0  0  0  0  2  0  0  0  0  0  0
  189.5780  177.5160  141.5880 C   0  0  2  0  0  3  0  0  0  0  0  0
  188.7630  177.2350  140.4020 N   0  0  0  0  0  2  0  0  0  0  0  0
  191.8370  177.0830  142.2830 O   0  0  0  0  0  0  0  0  0  0  0  0
  191.0430  177.2570  141.3180 C   0  0  0  0  0  0  0  0  0  0  0  0
  191.5410  177.2880  139.9670 N   0  0  0  0  0  0  0  0  0  0  0  0
  187.7380  176.8910  143.1190 C   0  0  0  0  0  0  0  0  0  0  0  0
  187.3570  178.1870  145.4900 C   0  0  0  0  0  0  0  0  0  0  0  0
  189.0710  176.6670  142.7500 C   0  0  1  0  0  0  0  0  0  0  0  0
  188.7480  177.9900  145.1490 C   0  0  0  0  0  3  0  0  0  0  0  0
  186.4110  177.0500  143.3710 C   0  0  0  0  0  3  0  0  0  0  0  0
  189.4780  175.3490  142.8660 F   0  0  0  0  0  0  0  0  0  0  0  0
  188.8470  177.3360  143.9600 C   0  0  0  0  0  0  0  0  0  0  0  0
  186.2530  177.7340  144.6290 C   0  0  0  0  0  3  0  0  0  0  0  0
  185.9060  179.4470  146.8860 O   0  0  0  0  0  0  0  0  0  0  0  0
  187.0160  178.8600  146.7620 C   0  0  0  0  0  0  0  0  0  0  0  0
  187.9500  178.8310  147.9340 C   0  0  0  0  0  2  0  0  0  0  0  0
  188.7220  176.5200  147.9860 N   0  0  0  0  0  1  0  0  0  0  0  0
  187.8730  177.4940  148.6530 C   0  0  0  0  0  2  0  0  0  0  0  0
  186.4680  177.9450  136.0040 C   0  0  0  0  0  3  0  0  0  0  0  0
  187.4620  178.9240  136.0440 C   0  0  0  0  0  3  0  0  0  0  0  0
  188.3810  178.9410  137.0950 C   0  0  0  0  0  3  0  0  0  0  0  0
  188.3230  177.9720  138.1090 C   0  0  0  0  0  0  0  0  0  0  0  0
  186.3920  176.9820  137.0110 C   0  0  0  0  0  0  0  0  0  0  0  0
  187.3190  176.9920  138.0620 C   0  0  0  0  0  3  0  0  0  0  0  0
  185.2840  175.9910  136.9910 C   0  0  0  0  0  2  0  0  0  0  0  0
  184.1140  176.4470  137.8540 C   0  0  0  0  0  2  0  0  0  0  0  0
  183.9300  177.9490  137.7160 C   0  0  0  0  0  2  0  0  0  0  0  0
  183.9690  178.6280  139.0750 C   0  0  0  0  0  2  0  0  0  0  0  0
  182.6080  178.9330  139.5080 N   0  0  0  0  0  0  0  0  0  0  0  0
  182.8560  178.5010  141.7860 O   0  0  0  0  0  0  0  0  0  0  0  0
  182.1500  178.3740  140.7480 C   0  0  0  0  0  0  0  0  0  0  0  0
  180.4550  180.1920  136.6180 C   0  0  0  0  0  2  0  0  0  0  0  0
  181.3450  179.3480  137.4850 C   0  0  0  0  0  3  0  0  0  0  0  0
  181.4140  181.0920  139.1300 N   0  0  0  0  0  2  0  0  0  0  0  0
  181.7510  179.7630  138.6950 C   0  0  0  0  0  0  0  0  0  0  0  0
  180.6950  181.6780  136.8740 C   0  0  0  0  0  2  0  0  0  0  0  0
  180.5210  181.9560  138.3640 C   0  0  0  0  0  2  0  0  0  0  0  0
  180.6060  176.7680  139.9510 O   0  0  0  0  0  0  0  0  0  0  0  0
  180.8800  177.6320  140.8290 C   0  0  0  0  0  0  0  0  0  0  0  0
  179.9990  177.8990  141.8900 O   0  0  0  0  0  0  0  0  0  0  0  0
  180.0980  178.9770  142.7860 C   0  0  0  0  0  3  0  0  0  0  0  0
  180.2580  178.8380  144.0910 C   0  0  0  0  0  2  0  0  0  0  0  0
  192.9390  176.9940  139.6870 C   0  0  0  0  0  2  0  0  0  0  0  0
  193.0650  176.0190  138.5210 C   0  0  0  0  0  2  0  0  0  0  0  0
  194.0170  176.5030  137.5300 N   0  0  0  0  0  2  0  0  0  0  0  0
  194.3040  175.4170  136.6010 C   0  0  0  0  0  2  0  0  0  0  0  0
  195.4380  175.8050  135.6660 C   0  0  0  0  0  2  0  0  0  0  0  0
  196.3700  174.6250  135.4590 C   0  0  0  0  0  2  0  0  0  0  0  0
  196.5980  173.9410  136.7200 N   0  0  0  0  0  0  0  0  0  0  0  0
  197.1200  172.7270  136.4190 O   0  0  0  0  0  1  0  0  0  0  0  0
  197.6390  174.6890  137.4080 C   0  0  0  0  0  2  0  0  0  0  0  0
  197.3970  174.6690  138.8780 C   0  0  0  0  0  0  0  0  0  0  0  0
  198.2060  175.2380  139.6600 O   0  0  0  0  0  1  0  0  0  0  0  0
  196.3100  173.9750  139.3920 O   0  0  0  0  0  0  0  0  0  0  0  0
  1 24  1  6  0  0  0
  1  4  1  0  0  0  0
  2  1  1  0  0  0  0
  2  7  1  0  0  0  0
  3  4  1  6  0  0  0
  3 10  1  0  0  0  0
  6  3  1  0  0  0  0
  6  5  2  0  0  0  0
  7  6  1  0  0  0  0
  8 12  2  0  0  0  0
  8 14  1  0  0  0  0
  9 17  1  0  0  0  0
 10 13  1  1  0  0  0
 10  8  1  0  0  0  0
 10 14  1  0  0  0  0
 11  9  1  0  0  0  0
 12 15  1  0  0  0  0
 14 11  2  0  0  0  0
 15  9  2  0  0  0  0
 17 16  2  0  0  0  0
 17 18  1  0  0  0  0
 18 20  1  0  0  0  0
 19 20  1  0  0  0  0
 21 22  2  0  0  0  0
 21 25  1  0  0  0  0
 22 23  1  0  0  0  0
 23 24  2  0  0  0  0
 25 26  2  0  0  0  0
 26 24  1  0  0  0  0
 27 25  1  0  0  0  0
 27 28  1  0  0  0  0
 29 28  1  0  0  0  0
 29 30  1  0  0  0  0
 30 31  1  0  0  0  0
 31 33  1  0  0  0  0
 33 41  1  0  0  0  0
 33 32  2  0  0  0  0
 34 38  1  0  0  0  0
 34 35  1  0  0  0  0
 35 37  2  0  0  0  0
 37 36  1  0  0  0  0
 37 31  1  0  0  0  0
 38 39  1  0  0  0  0
 39 36  1  0  0  0  0
 40 41  2  0  0  0  0
 41 42  1  0  0  0  0
 42 43  1  0  0  0  0
 43 44  2  0  0  0  0
 45  7  1  0  0  0  0
 46 45  1  0  0  0  0
 47 46  1  0  0  0  0
 48 47  1  0  0  0  0
 49 48  1  0  0  0  0
 50 49  1  0  0  0  0
 50 51  1  0  0  0  0
 51 53  1  0  0  0  0
 52 51  1  0  0  0  0
 53 54  1  0  0  0  0
 54 56  2  0  0  0  0
 54 55  1  0  0  0  0
M  END
>  <MODEL>
7

>  <REMARK>
 VINA RESULT:      -6.1      2.712     11.221
  Name = 
  23 active torsions:
  status: ('A' for Active; 'I' for Inactive)
    1  A    between atoms: C_6  and  C_15
    2  A    between atoms: C_6  and  N_56
    3  A    between atoms: C_8  and  C_44
    4  A    between atoms: N_9  and  C_15
    5  A    between atoms: N_9  and  C_31
    6  A    between atoms: C_10  and  C_22
    7  A    between atoms: C_13  and  N_23
    8  A    between atoms: C_13  and  C_30
    9  A    between atoms: C_14  and  O_33
   10  A    between atoms: C_16  and  C_48
   11  A    between atoms: C_17  and  N_23
   12  A    between atoms: C_24  and  C_35
   13  A    between atoms: C_25  and  C_41
   14  A    between atoms: C_28  and  C_31
   15  A    between atoms: C_28  and  C_34
   16  A    between atoms: C_30  and  C_47
   17  A    between atoms: O_33  and  C_36
   18  A    between atoms: C_34  and  N_43
   19  A    between atoms: C_36  and  C_55
   20  A    between atoms: C_37  and  C_39
   21  A    between atoms: C_39  and  C_47
   22  A    between atoms: C_41  and  C_48
   23  A    between atoms: N_43  and  C_44
                            x       y       z     vdW  Elec       q    Type
                         _______ _______ _______ _____ _____    ______ ____

>  <TORSDO>
F 23

$$$$
=
 OpenBabel10232408573D

 56 60  0  0  1  0  0  0  0  0999 V2000
  186.5230  178.7600  140.1270 C   0  0  2  0  0  3  0  0  0  0  0  0
  186.1750  178.4280  138.6790 C   0  0  0  0  0  2  0  0  0  0  0  0
  188.8000  178.0400  139.9660 C   0  0  2  0  0  3  0  0  0  0  0  0
  187.5070  177.7920  140.6120 N   0  0  0  0  0  2  0  0  0  0  0  0
  189.6800  177.9030  137.7350 O   0  0  0  0  0  0  0  0  0  0  0  0
  188.6630  178.0710  138.4610 C   0  0  0  0  0  0  0  0  0  0  0  0
  187.3880  178.3720  137.8620 N   0  0  0  0  0  0  0  0  0  0  0  0
  191.1410  177.2810  140.2200 C   0  0  0  0  0  0  0  0  0  0  0  0
  192.4170  175.9140  138.2320 C   0  0  0  0  0  0  0  0  0  0  0  0
  189.7890  176.9660  140.4100 C   0  0  1  0  0  0  0  0  0  0  0  0
  191.0230  175.5620  138.3810 C   0  0  0  0  0  3  0  0  0  0  0  0
  192.4420  177.6680  140.1290 C   0  0  0  0  0  3  0  0  0  0  0  0
  189.5340  176.2280  141.5520 F   0  0  0  0  0  0  0  0  0  0  0  0
  190.4670  176.2830  139.3920 C   0  0  0  0  0  0  0  0  0  0  0  0
  193.0780  176.9240  139.0730 C   0  0  0  0  0  3  0  0  0  0  0  0
  193.3510  175.7400  136.0550 O   0  0  0  0  0  0  0  0  0  0  0  0
  193.2260  175.2290  137.2010 C   0  0  0  0  0  0  0  0  0  0  0  0
  193.9410  173.9440  137.4980 C   0  0  0  0  0  2  0  0  0  0  0  0
  195.9770  173.0290  138.4780 N   0  0  0  0  0  1  0  0  0  0  0  0
  195.3970  174.2050  137.8470 C   0  0  0  0  0  2  0  0  0  0  0  0
  183.0040  178.7700  142.6130 C   0  0  0  0  0  3  0  0  0  0  0  0
  182.8680  178.8410  141.2250 C   0  0  0  0  0  3  0  0  0  0  0  0
  184.0030  178.8390  140.4120 C   0  0  0  0  0  3  0  0  0  0  0  0
  185.2850  178.7530  140.9780 C   0  0  0  0  0  0  0  0  0  0  0  0
  184.2740  178.6960  143.1890 C   0  0  0  0  0  0  0  0  0  0  0  0
  185.4140  178.6840  142.3740 C   0  0  0  0  0  3  0  0  0  0  0  0
  184.4040  178.6930  144.6690 C   0  0  0  0  0  2  0  0  0  0  0  0
  185.7340  179.2900  145.1110 C   0  0  0  0  0  2  0  0  0  0  0  0
  186.3820  178.3890  146.1480 C   0  0  0  0  0  2  0  0  0  0  0  0
  187.0990  177.2250  145.4820 C   0  0  0  0  0  2  0  0  0  0  0  0
  188.4910  177.1940  145.9200 N   0  0  0  0  0  0  0  0  0  0  0  0
  188.2290  175.9000  147.8420 O   0  0  0  0  0  0  0  0  0  0  0  0
  188.7620  176.9070  147.3000 C   0  0  0  0  0  0  0  0  0  0  0  0
  191.5840  176.7650  143.7230 C   0  0  0  0  0  2  0  0  0  0  0  0
  190.4630  176.5130  144.6910 C   0  0  0  0  0  2  0  0  0  0  0  0
  189.7240  178.7820  144.4420 N   0  0  0  0  0  0  0  0  0  0  0  0
  189.5580  177.4600  144.9850 C   0  0  0  0  0  0  0  0  0  0  0  0
  191.9950  178.2350  143.7350 C   0  0  0  0  0  2  0  0  0  0  0  0
  190.7630  179.0940  143.4640 C   0  0  0  0  0  2  0  0  0  0  0  0
  189.1370  178.7850  148.6890 O   0  0  0  0  0  0  0  0  0  0  0  0
  189.6310  177.7810  148.1060 C   0  0  0  0  0  0  0  0  0  0  0  0
  190.9980  177.4740  148.2140 O   0  0  0  0  0  0  0  0  0  0  0  0
  191.6450  176.3900  147.5960 C   0  0  0  0  0  3  0  0  0  0  0  0
  192.7280  175.8070  148.0790 C   0  0  0  0  0  2  0  0  0  0  0  0
  187.2300  178.3580  136.4150 C   0  0  0  0  0  2  0  0  0  0  0  0
  187.1440  176.9280  135.8920 C   0  0  0  0  0  2  0  0  0  0  0  0
  186.4890  176.8810  134.5910 N   0  0  0  0  0  2  0  0  0  0  0  0
  185.1600  177.4640  134.7250 C   0  0  0  0  0  2  0  0  0  0  0  0
  184.1260  176.3760  134.9640 C   0  0  0  0  0  2  0  0  0  0  0  0
  183.1150  176.8360  135.9990 C   0  0  0  0  0  2  0  0  0  0  0  0
  182.8990  175.7920  136.9850 N   0  0  0  0  0  0  0  0  0  0  0  0
  183.5960  176.1470  138.0920 O   0  0  0  0  0  1  0  0  0  0  0  0
  181.4890  175.8490  137.3380 C   0  0  0  0  0  2  0  0  0  0  0  0
  181.0130  174.5030  137.7660 C   0  0  0  0  0  0  0  0  0  0  0  0
  180.5370  174.3380  138.9210 O   0  0  0  0  0  1  0  0  0  0  0  0
  181.1450  173.4170  136.9110 O   0  0  0  0  0  0  0  0  0  0  0  0
  1  4  1  0  0  0  0
  1 24  1  1  0  0  0
  2  1  1  0  0  0  0
  3  6  1  6  0  0  0
  3 10  1  0  0  0  0
  3  4  1  0  0  0  0
  5  6  2  0  0  0  0
  7  6  1  0  0  0  0
  7  2  1  0  0  0  0
  8 10  1  0  0  0  0
  9 11  2  0  0  0  0
  9 15  1  0  0  0  0
 10 13  1  1  0  0  0
 11 14  1  0  0  0  0
 12  8  1  0  0  0  0
 14  8  2  0  0  0  0
 14 10  1  0  0  0  0
 15 12  2  0  0  0  0
 16 17  2  0  0  0  0
 17 18  1  0  0  0  0
 17  9  1  0  0  0  0
 18 20  1  0  0  0  0
 20 19  1  0  0  0  0
 21 25  1  0  0  0  0
 22 21  2  0  0  0  0
 23 24  2  0  0  0  0
 23 22  1  0  0  0  0
 24 26  1  0  0  0  0
 25 27  1  0  0  0  0
 26 25  2  0  0  0  0
 27 28  1  0  0  0  0
 28 29  1  0  0  0  0
 30 31  1  0  0  0  0
 30 29  1  0  0  0  0
 31 33  1  0  0  0  0
 33 32  2  0  0  0  0
 33 41  1  0  0  0  0
 34 38  1  0  0  0  0
 34 35  1  0  0  0  0
 35 37  1  0  0  0  0
 36 37  2  0  0  0  0
 37 31  1  0  0  0  0
 39 38  1  0  0  0  0
 39 36  1  0  0  0  0
 41 42  1  0  0  0  0
 41 40  2  0  0  0  0
 43 44  2  0  0  0  0
 43 42  1  0  0  0  0
 45  7  1  0  0  0  0
 46 45  1  0  0  0  0
 47 48  1  0  0  0  0
 47 46  1  0  0  0  0
 48 49  1  0  0  0  0
 49 50  1  0  0  0  0
 50 51  1  0  0  0  0
 51 53  1  0  0  0  0
 51 52  1  0  0  0  0
 53 54  1  0  0  0  0
 54 55  1  0  0  0  0
 56 54  2  0  0  0  0
M  END
>  <MODEL>
8

>  <REMARK>
 VINA RESULT:      -6.1      2.752     10.389
  Name = 
  23 active torsions:
  status: ('A' for Active; 'I' for Inactive)
    1  A    between atoms: C_6  and  C_15
    2  A    between atoms: C_6  and  N_56
    3  A    between atoms: C_8  and  C_44
    4  A    between atoms: N_9  and  C_15
    5  A    between atoms: N_9  and  C_31
    6  A    between atoms: C_10  and  C_22
    7  A    between atoms: C_13  and  N_23
    8  A    between atoms: C_13  and  C_30
    9  A    between atoms: C_14  and  O_33
   10  A    between atoms: C_16  and  C_48
   11  A    between atoms: C_17  and  N_23
   12  A    between atoms: C_24  and  C_35
   13  A    between atoms: C_25  and  C_41
   14  A    between atoms: C_28  and  C_31
   15  A    between atoms: C_28  and  C_34
   16  A    between atoms: C_30  and  C_47
   17  A    between atoms: O_33  and  C_36
   18  A    between atoms: C_34  and  N_43
   19  A    between atoms: C_36  and  C_55
   20  A    between atoms: C_37  and  C_39
   21  A    between atoms: C_39  and  C_47
   22  A    between atoms: C_41  and  C_48
   23  A    between atoms: N_43  and  C_44
                            x       y       z     vdW  Elec       q    Type
                         _______ _______ _______ _____ _____    ______ ____

>  <TORSDO>
F 23

$$$$
=
 OpenBabel10232408573D

 56 60  0  0  1  0  0  0  0  0999 V2000
  186.3690  178.6270  141.7060 C   0  0  2  0  0  3  0  0  0  0  0  0
  185.6260  178.2030  142.9710 C   0  0  0  0  0  2  0  0  0  0  0  0
  184.3920  179.1680  140.4720 C   0  0  2  0  0  3  0  0  0  0  0  0
  185.5560  178.2810  140.5410 N   0  0  0  0  0  2  0  0  0  0  0  0
  182.4250  179.5570  141.7970 O   0  0  0  0  0  0  0  0  0  0  0  0
  183.6230  179.1660  141.7740 C   0  0  0  0  0  0  0  0  0  0  0  0
  184.2860  178.7930  142.9980 N   0  0  0  0  0  0  0  0  0  0  0  0
  182.9900  177.4340  139.3990 C   0  0  0  0  0  0  0  0  0  0  0  0
  184.0590  175.6020  137.6810 C   0  0  0  0  0  0  0  0  0  0  0  0
  183.5060  178.7340  139.3070 C   0  0  1  0  0  0  0  0  0  0  0  0
  184.6320  176.9240  137.5550 C   0  0  0  0  0  3  0  0  0  0  0  0
  182.4150  176.2150  139.5770 C   0  0  0  0  0  3  0  0  0  0  0  0
  182.6440  179.6460  138.7230 F   0  0  0  0  0  0  0  0  0  0  0  0
  184.0410  177.7720  138.4410 C   0  0  0  0  0  0  0  0  0  0  0  0
  183.0030  175.2800  138.6540 C   0  0  0  0  0  3  0  0  0  0  0  0
  183.8600  173.4690  136.6580 O   0  0  0  0  0  0  0  0  0  0  0  0
  184.5390  174.5230  136.7920 C   0  0  0  0  0  0  0  0  0  0  0  0
  185.8090  174.6650  136.0070 C   0  0  0  0  0  2  0  0  0  0  0  0
  187.0910  173.0780  134.6730 N   0  0  0  0  0  1  0  0  0  0  0  0
  185.8030  173.7430  134.7990 C   0  0  0  0  0  2  0  0  0  0  0  0
  190.2550  176.7800  141.4890 C   0  0  0  0  0  3  0  0  0  0  0  0
  189.5920  176.8490  142.7160 C   0  0  0  0  0  3  0  0  0  0  0  0
  188.3330  177.4470  142.7960 C   0  0  0  0  0  3  0  0  0  0  0  0
  187.7190  177.9690  141.6470 C   0  0  0  0  0  0  0  0  0  0  0  0
  189.6590  177.3050  140.3410 C   0  0  0  0  0  0  0  0  0  0  0  0
  188.3910  177.8970  140.4170 C   0  0  0  0  0  3  0  0  0  0  0  0
  190.4080  177.2870  139.0580 C   0  0  0  0  0  2  0  0  0  0  0  0
  191.8870  177.0000  139.2810 C   0  0  0  0  0  2  0  0  0  0  0  0
  192.5200  176.5290  137.9830 C   0  0  0  0  0  2  0  0  0  0  0  0
  193.8830  175.9070  138.2390 C   0  0  0  0  0  2  0  0  0  0  0  0
  194.3500  175.2380  137.0280 N   0  0  0  0  0  0  0  0  0  0  0  0
  192.9780  176.3120  135.4780 O   0  0  0  0  0  0  0  0  0  0  0  0
  193.4860  175.2300  135.8820 C   0  0  0  0  0  0  0  0  0  0  0  0
  197.1560  172.7090  137.5830 C   0  0  0  0  0  2  0  0  0  0  0  0
  195.8230  173.4020  137.5950 C   0  0  0  0  0  2  0  0  0  0  0  0
  196.7720  175.2710  136.4290 N   0  0  0  0  0  0  0  0  0  0  0  0
  195.6400  174.5920  137.0000 C   0  0  0  0  0  0  0  0  0  0  0  0
  198.2960  173.7230  137.5390 C   0  0  0  0  0  2  0  0  0  0  0  0
  198.0890  174.6460  136.3420 C   0  0  0  0  0  2  0  0  0  0  0  0
  193.9770  173.4970  134.3480 O   0  0  0  0  0  0  0  0  0  0  0  0
  193.1590  173.9770  135.1800 C   0  0  0  0  0  0  0  0  0  0  0  0
  191.9400  173.3360  135.4570 O   0  0  0  0  0  0  0  0  0  0  0  0
  191.1990  173.4620  136.6450 C   0  0  0  0  0  3  0  0  0  0  0  0
  189.9080  173.7410  136.6820 C   0  0  0  0  0  2  0  0  0  0  0  0
  183.5490  178.7400  144.2510 C   0  0  0  0  0  2  0  0  0  0  0  0
  184.4680  178.3530  145.4050 C   0  0  0  0  0  2  0  0  0  0  0  0
  185.1030  179.5270  145.9900 N   0  0  0  0  0  2  0  0  0  0  0  0
  185.9700  179.0860  147.0760 C   0  0  0  0  0  2  0  0  0  0  0  0
  186.6880  177.8020  146.6940 C   0  0  0  0  0  2  0  0  0  0  0  0
  188.1430  178.0950  146.3710 C   0  0  0  0  0  2  0  0  0  0  0  0
  188.9870  177.7270  147.4940 N   0  0  0  0  0  0  0  0  0  0  0  0
  188.1610  177.3110  148.4850 O   0  0  0  0  0  1  0  0  0  0  0  0
  189.7520  176.5660  147.0670 C   0  0  0  0  0  2  0  0  0  0  0  0
  191.1830  176.9350  146.8810 C   0  0  0  0  0  0  0  0  0  0  0  0
  191.6070  177.2710  145.7420 O   0  0  0  0  0  0  0  0  0  0  0  0
  192.0640  176.8560  147.9510 O   0  0  0  0  0  1  0  0  0  0  0  0
  1 24  1  6  0  0  0
  1  2  1  0  0  0  0
  2  7  1  0  0  0  0
  3  4  1  1  0  0  0
  3  6  1  0  0  0  0
  4  1  1  0  0  0  0
  6  5  2  0  0  0  0
  6  7  1  0  0  0  0
  7 45  1  0  0  0  0
  8 12  1  0  0  0  0
  9 15  1  0  0  0  0
 10 13  1  6  0  0  0
 10  8  1  0  0  0  0
 10  3  1  0  0  0  0
 11  9  2  0  0  0  0
 11 14  1  0  0  0  0
 14 10  1  0  0  0  0
 14  8  2  0  0  0  0
 15 12  2  0  0  0  0
 16 17  2  0  0  0  0
 17  9  1  0  0  0  0
 18 17  1  0  0  0  0
 19 20  1  0  0  0  0
 20 18  1  0  0  0  0
 21 22  1  0  0  0  0
 22 23  2  0  0  0  0
 24 23  1  0  0  0  0
 25 26  1  0  0  0  0
 25 21  2  0  0  0  0
 26 24  2  0  0  0  0
 27 28  1  0  0  0  0
 27 25  1  0  0  0  0
 29 30  1  0  0  0  0
 29 28  1  0  0  0  0
 31 30  1  0  0  0  0
 32 33  2  0  0  0  0
 33 31  1  0  0  0  0
 34 35  1  0  0  0  0
 36 37  2  0  0  0  0
 37 31  1  0  0  0  0
 37 35  1  0  0  0  0
 38 34  1  0  0  0  0
 39 36  1  0  0  0  0
 39 38  1  0  0  0  0
 40 41  2  0  0  0  0
 41 42  1  0  0  0  0
 41 33  1  0  0  0  0
 42 43  1  0  0  0  0
 43 44  2  0  0  0  0
 45 46  1  0  0  0  0
 46 47  1  0  0  0  0
 47 48  1  0  0  0  0
 49 48  1  0  0  0  0
 50 49  1  0  0  0  0
 50 51  1  0  0  0  0
 51 52  1  0  0  0  0
 53 51  1  0  0  0  0
 54 53  1  0  0  0  0
 54 56  1  0  0  0  0
 55 54  2  0  0  0  0
M  END
>  <MODEL>
9

>  <REMARK>
 VINA RESULT:      -5.9      2.233      3.324
  Name = 
  23 active torsions:
  status: ('A' for Active; 'I' for Inactive)
    1  A    between atoms: C_6  and  C_15
    2  A    between atoms: C_6  and  N_56
    3  A    between atoms: C_8  and  C_44
    4  A    between atoms: N_9  and  C_15
    5  A    between atoms: N_9  and  C_31
    6  A    between atoms: C_10  and  C_22
    7  A    between atoms: C_13  and  N_23
    8  A    between atoms: C_13  and  C_30
    9  A    between atoms: C_14  and  O_33
   10  A    between atoms: C_16  and  C_48
   11  A    between atoms: C_17  and  N_23
   12  A    between atoms: C_24  and  C_35
   13  A    between atoms: C_25  and  C_41
   14  A    between atoms: C_28  and  C_31
   15  A    between atoms: C_28  and  C_34
   16  A    between atoms: C_30  and  C_47
   17  A    between atoms: O_33  and  C_36
   18  A    between atoms: C_34  and  N_43
   19  A    between atoms: C_36  and  C_55
   20  A    between atoms: C_37  and  C_39
   21  A    between atoms: C_39  and  C_47
   22  A    between atoms: C_41  and  C_48
   23  A    between atoms: N_43  and  C_44
                            x       y       z     vdW  Elec       q    Type
                         _______ _______ _______ _____ _____    ______ ____

>  <TORSDO>
F 23

$$$$
