=
 OpenBabel10232409413D

 35 39  0  0  1  0  0  0  0  0999 V2000
  186.6770  178.2820  144.6600 C   0  0  0  0  0  0  0  0  0  0  0  0
  186.9160  178.1760  143.3610 C   0  0  0  0  0  0  0  0  0  0  0  0
  182.0730  178.6220  142.4100 C   0  0  0  0  0  0  0  0  0  0  0  0
  188.8290  177.7490  144.5470 C   0  0  1  0  0  3  0  0  0  0  0  0
  186.2390  179.8530  141.8460 O   0  0  0  0  0  1  0  0  0  0  0  0
  188.3650  177.9290  143.1370 C   0  0  1  0  0  3  0  0  0  0  0  0
  185.9180  178.5770  142.3090 C   0  0  2  0  0  3  0  0  0  0  0  0
  184.2240  178.6580  144.2130 C   0  0  0  0  0  0  0  0  0  0  0  0
  190.4670  176.1660  143.9460 C   0  0  0  0  0  0  0  0  0  0  0  0
  191.6380  175.4080  144.2260 N   0  0  0  0  0  1  0  0  0  0  0  0
  187.8670  177.9540  145.4370 C   0  0  0  0  0  2  0  0  0  0  0  0
  185.1500  178.7280  146.4140 O   0  0  0  0  0  0  0  0  0  0  0  0
  182.9100  178.7510  144.6760 C   0  0  0  0  0  3  0  0  0  0  0  0
  183.3910  178.5280  141.9130 C   0  0  0  0  0  0  0  0  0  0  0  0
  189.6990  175.8960  142.7020 C   0  0  0  0  0  3  0  0  0  0  0  0
  190.0170  177.0080  144.8330 N   0  0  0  0  0  0  0  0  0  0  0  0
  184.4820  178.5670  142.8200 C   0  0  0  0  0  0  0  0  0  0  0  0
  185.3410  178.5810  145.1770 C   0  0  0  0  0  0  0  0  0  0  0  0
  181.8450  178.7440  143.7810 C   0  0  0  0  0  3  0  0  0  0  0  0
  188.6730  176.6850  142.3470 C   0  0  0  0  0  3  0  0  0  0  0  0
  180.8890  178.6320  141.4970 C   0  0  0  0  0  2  0  0  0  0  0  0
  180.1580  179.8770  141.6500 N   0  0  0  0  0  1  0  0  0  0  0  0
  183.0580  179.4960  139.7470 O   0  0  0  0  0  1  0  0  0  0  0  0
  183.5930  178.3970  140.4250 C   0  0  2  0  0  3  0  0  0  0  0  0
  183.4200  176.5420  138.7140 C   0  0  0  0  0  0  0  0  0  0  0  0
  183.0060  177.1600  139.9320 N   0  0  0  0  0  2  0  0  0  0  0  0
  184.3450  177.0490  138.0220 O   0  0  0  0  0  0  0  0  0  0  0  0
  181.5470  175.6100  137.3660 C   0  0  0  0  0  2  0  0  0  0  0  0
  181.0210  174.3710  136.6280 C   0  0  0  0  0  2  0  0  0  0  0  0
  183.7370  174.3420  137.5880 C   0  0  0  0  0  2  0  0  0  0  0  0
  181.6000  173.1390  137.1670 N   0  0  0  0  0  0  0  0  0  0  0  0
  183.0390  173.1630  136.8920 C   0  0  0  0  0  2  0  0  0  0  0  0
  182.7430  175.2910  138.2650 C   0  0  0  0  0  3  0  0  0  0  0  0
  181.0810  172.1130  136.4500 O   0  0  0  0  0  0  0  0  0  0  0  0
  180.0370  171.6180  137.2380 C   0  0  0  0  0  1  0  0  0  0  0  0
  1 18  1  0  0  0  0
  1 11  1  0  0  0  0
  2  1  2  0  0  0  0
  3 19  1  0  0  0  0
  4 16  1  0  0  0  0
  4 11  1  1  0  0  0
  6 20  1  6  0  0  0
  6  2  1  0  0  0  0
  6  4  1  0  0  0  0
  7  5  1  1  0  0  0
  7 17  1  0  0  0  0
  7  2  1  0  0  0  0
  8 13  1  0  0  0  0
  8 18  1  0  0  0  0
  9 10  1  0  0  0  0
  9 16  2  0  0  0  0
 14  3  2  0  0  0  0
 14 17  1  0  0  0  0
 15  9  1  0  0  0  0
 17  8  2  0  0  0  0
 18 12  2  0  0  0  0
 19 13  2  0  0  0  0
 20 15  2  0  0  0  0
 21 22  1  0  0  0  0
 21  3  1  0  0  0  0
 24 23  1  6  0  0  0
 24 14  1  0  0  0  0
 25 26  1  0  0  0  0
 26 24  1  0  0  0  0
 27 25  2  0  0  0  0
 28 33  1  0  0  0  0
 29 31  1  0  0  0  0
 29 28  1  0  0  0  0
 30 33  1  0  0  0  0
 32 31  1  0  0  0  0
 32 30  1  0  0  0  0
 33 25  1  0  0  0  0
 34 31  1  0  0  0  0
 34 35  1  0  0  0  0
M  END
>  <MODEL>
1

>  <REMARK>
 VINA RESULT:      -8.9      0.000      0.000
  Name = 
  5 active torsions:
  status: ('A' for Active; 'I' for Inactive)
    1  A    between atoms: C_2  and  C_27
    2  A    between atoms: C_4  and  C_5
    3  A    between atoms: C_10  and  N_11
    4  A    between atoms: C_10  and  C_26
    5  A    between atoms: O_16  and  N_24
                            x       y       z     vdW  Elec       q    Type
                         _______ _______ _______ _____ _____    ______ ____

>  <TORSDO>
F 5

$$$$
=
 OpenBabel10232409413D

 35 39  0  0  1  0  0  0  0  0999 V2000
  182.6830  178.3260  141.2990 C   0  0  0  0  0  0  0  0  0  0  0  0
  183.9480  178.7040  141.1930 C   0  0  0  0  0  0  0  0  0  0  0  0
  184.1320  176.8790  136.5890 C   0  0  0  0  0  0  0  0  0  0  0  0
  183.2190  179.0040  143.3430 C   0  0  1  0  0  3  0  0  0  0  0  0
  184.6580  180.1420  139.4620 O   0  0  0  0  0  1  0  0  0  0  0  0
  184.4050  179.2930  142.4800 C   0  0  1  0  0  3  0  0  0  0  0  0
  184.6630  178.8090  139.8730 C   0  0  2  0  0  3  0  0  0  0  0  0
  182.6890  177.5140  138.9110 C   0  0  0  0  0  0  0  0  0  0  0  0
  184.5340  178.6910  145.2730 C   0  0  0  0  0  0  0  0  0  0  0  0
  184.6820  178.5850  146.6840 N   0  0  0  0  0  1  0  0  0  0  0  0
  182.2160  178.4500  142.6750 C   0  0  0  0  0  2  0  0  0  0  0  0
  180.7310  177.4540  140.2790 O   0  0  0  0  0  0  0  0  0  0  0  0
  182.0830  176.8040  137.8730 C   0  0  0  0  0  3  0  0  0  0  0  0
  184.7700  177.5990  137.6210 C   0  0  0  0  0  0  0  0  0  0  0  0
  185.6980  178.4120  144.3910 C   0  0  0  0  0  3  0  0  0  0  0  0
  183.3560  178.9190  144.7630 N   0  0  0  0  0  0  0  0  0  0  0  0
  184.0380  177.9400  138.7890 C   0  0  0  0  0  0  0  0  0  0  0  0
  181.9500  177.7590  140.1670 C   0  0  0  0  0  0  0  0  0  0  0  0
  182.7960  176.4980  136.7190 C   0  0  0  0  0  3  0  0  0  0  0  0
  185.6240  178.6360  143.0700 C   0  0  0  0  0  3  0  0  0  0  0  0
  184.8430  176.5310  135.3200 C   0  0  0  0  0  2  0  0  0  0  0  0
  184.4930  175.1820  134.9130 N   0  0  0  0  0  1  0  0  0  0  0  0
  186.7070  177.5420  136.2130 O   0  0  0  0  0  1  0  0  0  0  0  0
  186.2160  177.9890  137.4430 C   0  0  2  0  0  3  0  0  0  0  0  0
  188.2520  178.0810  138.9390 C   0  0  0  0  0  0  0  0  0  0  0  0
  187.0270  177.4710  138.5340 N   0  0  0  0  0  2  0  0  0  0  0  0
  188.6690  179.1240  138.3640 O   0  0  0  0  0  0  0  0  0  0  0  0
  190.5410  177.5300  139.7510 C   0  0  0  0  0  2  0  0  0  0  0  0
  191.3950  177.2090  140.9860 C   0  0  0  0  0  2  0  0  0  0  0  0
  188.6900  178.1110  141.3920 C   0  0  0  0  0  2  0  0  0  0  0  0
  190.5860  176.6490  142.0690 N   0  0  0  0  0  0  0  0  0  0  0  0
  189.6520  177.6870  142.5130 C   0  0  0  0  0  2  0  0  0  0  0  0
  189.0400  177.4670  140.0470 C   0  0  0  0  0  3  0  0  0  0  0  0
  191.4250  176.4080  143.1040 O   0  0  0  0  0  0  0  0  0  0  0  0
  191.6470  177.6600  143.6840 C   0  0  0  0  0  1  0  0  0  0  0  0
  1 11  1  0  0  0  0
  2  1  2  0  0  0  0
  2  6  1  0  0  0  0
  3 19  2  0  0  0  0
  3 14  1  0  0  0  0
  4 11  1  6  0  0  0
  4 16  1  0  0  0  0
  6 20  1  1  0  0  0
  6  4  1  0  0  0  0
  7  5  1  6  0  0  0
  7  2  1  0  0  0  0
  8 18  1  0  0  0  0
  9 10  1  0  0  0  0
 13  8  2  0  0  0  0
 14 17  2  0  0  0  0
 15  9  1  0  0  0  0
 16  9  2  0  0  0  0
 17  8  1  0  0  0  0
 17  7  1  0  0  0  0
 18 12  2  0  0  0  0
 18  1  1  0  0  0  0
 19 13  1  0  0  0  0
 20 15  2  0  0  0  0
 21  3  1  0  0  0  0
 22 21  1  0  0  0  0
 24 23  1  6  0  0  0
 24 14  1  0  0  0  0
 24 26  1  0  0  0  0
 25 33  1  0  0  0  0
 26 25  1  0  0  0  0
 27 25  2  0  0  0  0
 28 33  1  0  0  0  0
 28 29  1  0  0  0  0
 29 31  1  0  0  0  0
 30 32  1  0  0  0  0
 31 32  1  0  0  0  0
 31 34  1  0  0  0  0
 33 30  1  0  0  0  0
 34 35  1  0  0  0  0
M  END
>  <MODEL>
2

>  <REMARK>
 VINA RESULT:      -8.7      2.858      7.242
  Name = 
  5 active torsions:
  status: ('A' for Active; 'I' for Inactive)
    1  A    between atoms: C_2  and  C_27
    2  A    between atoms: C_4  and  C_5
    3  A    between atoms: C_10  and  N_11
    4  A    between atoms: C_10  and  C_26
    5  A    between atoms: O_16  and  N_24
                            x       y       z     vdW  Elec       q    Type
                         _______ _______ _______ _____ _____    ______ ____

>  <TORSDO>
F 5

$$$$
=
 OpenBabel10232409413D

 35 39  0  0  1  0  0  0  0  0999 V2000
  185.6790  178.3710  139.4970 C   0  0  0  0  0  0  0  0  0  0  0  0
  186.7500  178.3240  140.2740 C   0  0  0  0  0  0  0  0  0  0  0  0
  189.2260  175.8700  136.7530 C   0  0  0  0  0  0  0  0  0  0  0  0
  184.9660  179.1480  141.4500 C   0  0  1  0  0  3  0  0  0  0  0  0
  188.8210  179.2040  139.5630 O   0  0  0  0  0  1  0  0  0  0  0  0
  186.4370  178.9300  141.5960 C   0  0  1  0  0  3  0  0  0  0  0  0
  188.1260  178.0090  139.7530 C   0  0  2  0  0  3  0  0  0  0  0  0
  186.9450  177.2520  137.6250 C   0  0  0  0  0  0  0  0  0  0  0  0
  184.5440  178.7380  143.7310 C   0  0  0  0  0  0  0  0  0  0  0  0
  183.7100  178.8020  144.8820 N   0  0  0  0  0  1  0  0  0  0  0  0
  184.5140  178.8340  140.2430 C   0  0  0  0  0  2  0  0  0  0  0  0
  184.6880  177.9960  137.3790 O   0  0  0  0  0  0  0  0  0  0  0  0
  186.9550  176.6150  136.3820 C   0  0  0  0  0  3  0  0  0  0  0  0
  189.2460  176.5050  138.0130 C   0  0  0  0  0  0  0  0  0  0  0  0
  185.8270  177.9900  143.7960 C   0  0  0  0  0  3  0  0  0  0  0  0
  184.1250  179.2360  142.6020 N   0  0  0  0  0  0  0  0  0  0  0  0
  188.1000  177.2230  138.4490 C   0  0  0  0  0  0  0  0  0  0  0  0
  185.7070  177.8940  138.1140 C   0  0  0  0  0  0  0  0  0  0  0  0
  188.0890  175.9390  135.9470 C   0  0  0  0  0  3  0  0  0  0  0  0
  186.6940  178.0270  142.7730 C   0  0  0  0  0  3  0  0  0  0  0  0
  190.4190  175.1380  136.2250 C   0  0  0  0  0  2  0  0  0  0  0  0
  191.0210  175.8940  135.1410 N   0  0  0  0  0  1  0  0  0  0  0  0
  191.2300  175.2640  138.5220 O   0  0  0  0  0  1  0  0  0  0  0  0
  190.4930  176.4040  138.8530 C   0  0  2  0  0  3  0  0  0  0  0  0
  190.9780  177.0310  141.2550 C   0  0  0  0  0  0  0  0  0  0  0  0
  190.1600  176.4010  140.2700 N   0  0  0  0  0  2  0  0  0  0  0  0
  192.0290  177.6430  140.9180 O   0  0  0  0  0  0  0  0  0  0  0  0
  191.6680  176.2670  143.5220 C   0  0  0  0  0  2  0  0  0  0  0  0
  191.4530  176.4490  145.0310 C   0  0  0  0  0  2  0  0  0  0  0  0
  190.2250  178.3380  143.2380 C   0  0  0  0  0  2  0  0  0  0  0  0
  190.1230  176.9860  145.3240 N   0  0  0  0  0  0  0  0  0  0  0  0
  190.0550  178.3390  144.7650 C   0  0  0  0  0  2  0  0  0  0  0  0
  190.5810  176.9530  142.6910 C   0  0  0  0  0  3  0  0  0  0  0  0
  190.0380  177.1130  146.6700 O   0  0  0  0  0  0  0  0  0  0  0  0
  191.2720  176.6690  147.1510 C   0  0  0  0  0  1  0  0  0  0  0  0
  1 11  1  0  0  0  0
  1  2  2  0  0  0  0
  2  6  1  0  0  0  0
  3 14  1  0  0  0  0
  4 11  1  6  0  0  0
  4  6  1  0  0  0  0
  4 16  1  0  0  0  0
  6 20  1  1  0  0  0
  7  5  1  6  0  0  0
  7  2  1  0  0  0  0
  8 18  1  0  0  0  0
  8 17  1  0  0  0  0
  9 15  1  0  0  0  0
  9 10  1  0  0  0  0
 12 18  2  0  0  0  0
 13  8  2  0  0  0  0
 14 17  2  0  0  0  0
 14 24  1  0  0  0  0
 16  9  2  0  0  0  0
 17  7  1  0  0  0  0
 18  1  1  0  0  0  0
 19 13  1  0  0  0  0
 19  3  2  0  0  0  0
 20 15  2  0  0  0  0
 21  3  1  0  0  0  0
 22 21  1  0  0  0  0
 24 23  1  6  0  0  0
 24 26  1  0  0  0  0
 25 33  1  0  0  0  0
 26 25  1  0  0  0  0
 27 25  2  0  0  0  0
 28 29  1  0  0  0  0
 29 31  1  0  0  0  0
 30 32  1  0  0  0  0
 31 34  1  0  0  0  0
 32 31  1  0  0  0  0
 33 30  1  0  0  0  0
 33 28  1  0  0  0  0
 34 35  1  0  0  0  0
M  END
>  <MODEL>
3

>  <REMARK>
 VINA RESULT:      -8.6      3.819      8.887
  Name = 
  5 active torsions:
  status: ('A' for Active; 'I' for Inactive)
    1  A    between atoms: C_2  and  C_27
    2  A    between atoms: C_4  and  C_5
    3  A    between atoms: C_10  and  N_11
    4  A    between atoms: C_10  and  C_26
    5  A    between atoms: O_16  and  N_24
                            x       y       z     vdW  Elec       q    Type
                         _______ _______ _______ _____ _____    ______ ____

>  <TORSDO>
F 5

$$$$
=
 OpenBabel10232409413D

 35 39  0  0  1  0  0  0  0  0999 V2000
  189.6200  177.0240  141.1520 C   0  0  0  0  0  0  0  0  0  0  0  0
  188.7240  177.7250  140.4740 C   0  0  0  0  0  0  0  0  0  0  0  0
  185.8610  178.0110  144.5080 C   0  0  0  0  0  0  0  0  0  0  0  0
  190.3410  176.9400  139.0540 C   0  0  1  0  0  3  0  0  0  0  0  0
  188.0410  179.8660  141.1930 O   0  0  0  0  0  1  0  0  0  0  0  0
  189.1510  177.8450  139.0540 C   0  0  1  0  0  3  0  0  0  0  0  0
  187.6410  178.5300  141.1390 C   0  0  2  0  0  3  0  0  0  0  0  0
  188.2640  177.2680  143.2640 C   0  0  0  0  0  0  0  0  0  0  0  0
  189.9670  176.2310  136.8390 C   0  0  0  0  0  0  0  0  0  0  0  0
  190.3970  175.6110  135.6330 N   0  0  0  0  0  1  0  0  0  0  0  0
  190.6260  176.4610  140.2580 C   0  0  0  0  0  2  0  0  0  0  0  0
  190.3820  176.1630  143.2230 O   0  0  0  0  0  0  0  0  0  0  0  0
  188.0100  176.9030  144.5880 C   0  0  0  0  0  3  0  0  0  0  0  0
  186.0910  178.3960  143.1700 C   0  0  0  0  0  0  0  0  0  0  0  0
  188.5450  176.6390  136.9870 C   0  0  0  0  0  3  0  0  0  0  0  0
  190.7930  176.3320  137.8430 N   0  0  0  0  0  0  0  0  0  0  0  0
  187.3150  178.0390  142.5440 C   0  0  0  0  0  0  0  0  0  0  0  0
  189.4900  176.7900  142.5900 C   0  0  0  0  0  0  0  0  0  0  0  0
  186.8230  177.2810  145.2070 C   0  0  0  0  0  3  0  0  0  0  0  0
  188.1440  177.3460  138.0540 C   0  0  0  0  0  3  0  0  0  0  0  0
  184.6100  178.3970  145.2310 C   0  0  0  0  0  2  0  0  0  0  0  0
  184.9230  178.7530  146.6030 N   0  0  0  0  0  1  0  0  0  0  0  0
  184.1000  179.7140  143.3540 O   0  0  0  0  0  1  0  0  0  0  0  0
  185.0260  179.1830  142.4510 C   0  0  2  0  0  3  0  0  0  0  0  0
  184.2000  178.7540  140.1000 C   0  0  0  0  0  0  0  0  0  0  0  0
  184.3530  178.3550  141.4610 N   0  0  0  0  0  2  0  0  0  0  0  0
  184.6720  179.8520  139.6970 O   0  0  0  0  0  0  0  0  0  0  0  0
  184.3880  177.3850  138.0280 C   0  0  0  0  0  2  0  0  0  0  0  0
  183.7830  176.2240  137.2260 C   0  0  0  0  0  2  0  0  0  0  0  0
  182.8220  176.6860  139.9020 C   0  0  0  0  0  2  0  0  0  0  0  0
  182.3670  176.0320  137.5450 N   0  0  0  0  0  0  0  0  0  0  0  0
  182.2780  175.6130  138.9470 C   0  0  0  0  0  2  0  0  0  0  0  0
  183.4690  177.8580  139.1570 C   0  0  0  0  0  3  0  0  0  0  0  0
  181.9330  174.9900  136.7960 O   0  0  0  0  0  0  0  0  0  0  0  0
  182.9490  174.0340  136.8900 C   0  0  0  0  0  1  0  0  0  0  0  0
  1 18  1  0  0  0  0
  2  7  1  0  0  0  0
  2  1  2  0  0  0  0
  3 19  1  0  0  0  0
  3 21  1  0  0  0  0
  4 11  1  1  0  0  0
  6 20  1  6  0  0  0
  6  4  1  0  0  0  0
  6  2  1  0  0  0  0
  7  5  1  1  0  0  0
  7 17  1  0  0  0  0
  8 13  1  0  0  0  0
  9 15  1  0  0  0  0
  9 16  2  0  0  0  0
 10  9  1  0  0  0  0
 11  1  1  0  0  0  0
 13 19  2  0  0  0  0
 14  3  2  0  0  0  0
 15 20  2  0  0  0  0
 16  4  1  0  0  0  0
 17 14  1  0  0  0  0
 17  8  2  0  0  0  0
 18 12  2  0  0  0  0
 18  8  1  0  0  0  0
 21 22  1  0  0  0  0
 24 14  1  0  0  0  0
 24 23  1  1  0  0  0
 25 26  1  0  0  0  0
 26 24  1  0  0  0  0
 27 25  2  0  0  0  0
 28 33  1  0  0  0  0
 29 31  1  0  0  0  0
 29 28  1  0  0  0  0
 31 32  1  0  0  0  0
 32 30  1  0  0  0  0
 33 30  1  0  0  0  0
 33 25  1  0  0  0  0
 34 35  1  0  0  0  0
 34 31  1  0  0  0  0
M  END
>  <MODEL>
4

>  <REMARK>
 VINA RESULT:      -8.6      3.210      4.634
  Name = 
  5 active torsions:
  status: ('A' for Active; 'I' for Inactive)
    1  A    between atoms: C_2  and  C_27
    2  A    between atoms: C_4  and  C_5
    3  A    between atoms: C_10  and  N_11
    4  A    between atoms: C_10  and  C_26
    5  A    between atoms: O_16  and  N_24
                            x       y       z     vdW  Elec       q    Type
                         _______ _______ _______ _____ _____    ______ ____

>  <TORSDO>
F 5

$$$$
=
 OpenBabel10232409413D

 35 39  0  0  1  0  0  0  0  0999 V2000
  186.6730  178.2580  144.7660 C   0  0  0  0  0  0  0  0  0  0  0  0
  186.8960  178.2400  143.4600 C   0  0  0  0  0  0  0  0  0  0  0  0
  182.0470  178.7880  142.5990 C   0  0  0  0  0  0  0  0  0  0  0  0
  188.8180  177.7180  144.5910 C   0  0  1  0  0  3  0  0  0  0  0  0
  186.2160  180.0230  142.0730 O   0  0  0  0  0  1  0  0  0  0  0  0
  188.3410  177.9980  143.2020 C   0  0  1  0  0  3  0  0  0  0  0  0
  185.8890  178.7200  142.4510 C   0  0  2  0  0  3  0  0  0  0  0  0
  184.2180  178.6820  144.3750 C   0  0  0  0  0  0  0  0  0  0  0  0
  190.4360  176.1670  143.8630 C   0  0  0  0  0  0  0  0  0  0  0  0
  191.6040  175.3830  144.0760 N   0  0  0  0  0  1  0  0  0  0  0  0
  187.8690  177.8680  145.5040 C   0  0  0  0  0  2  0  0  0  0  0  0
  185.1690  178.5940  146.5650 O   0  0  0  0  0  0  0  0  0  0  0  0
  182.9100  178.7530  144.8590 C   0  0  0  0  0  3  0  0  0  0  0  0
  183.3570  178.7180  142.0810 C   0  0  0  0  0  0  0  0  0  0  0  0
  189.6520  175.9900  142.6130 C   0  0  0  0  0  3  0  0  0  0  0  0
  190.0030  176.9500  144.8120 N   0  0  0  0  0  0  0  0  0  0  0  0
  184.4600  178.6850  142.9770 C   0  0  0  0  0  0  0  0  0  0  0  0
  185.3450  178.5310  145.3180 C   0  0  0  0  0  0  0  0  0  0  0  0
  181.8350  178.8160  143.9790 C   0  0  0  0  0  3  0  0  0  0  0  0
  188.6280  176.8090  142.3250 C   0  0  0  0  0  3  0  0  0  0  0  0
  180.8530  178.8690  141.7030 C   0  0  0  0  0  2  0  0  0  0  0  0
  180.2700  180.1970  141.7770 N   0  0  0  0  0  1  0  0  0  0  0  0
  182.4610  178.0620  139.9590 O   0  0  0  0  0  1  0  0  0  0  0  0
  183.5420  178.6880  140.5860 C   0  0  2  0  0  3  0  0  0  0  0  0
  185.5790  178.4140  139.1120 C   0  0  0  0  0  0  0  0  0  0  0  0
  184.7880  178.0230  140.2340 N   0  0  0  0  0  2  0  0  0  0  0  0
  185.2260  179.3830  138.3860 O   0  0  0  0  0  0  0  0  0  0  0  0
  186.9100  177.3270  137.3100 C   0  0  0  0  0  2  0  0  0  0  0  0
  188.3060  176.8410  136.8950 C   0  0  0  0  0  2  0  0  0  0  0  0
  188.0640  178.4150  139.2950 C   0  0  0  0  0  2  0  0  0  0  0  0
  189.1400  176.5420  138.0600 N   0  0  0  0  0  0  0  0  0  0  0  0
  189.3730  177.7990  138.7770 C   0  0  0  0  0  2  0  0  0  0  0  0
  186.8270  177.6570  138.8030 C   0  0  0  0  0  3  0  0  0  0  0  0
  190.3420  176.1310  137.5890 O   0  0  0  0  0  0  0  0  0  0  0  0
  191.2270  176.3180  138.6540 C   0  0  0  0  0  1  0  0  0  0  0  0
  1 18  1  0  0  0  0
  1 11  1  0  0  0  0
  2  1  2  0  0  0  0
  3 19  1  0  0  0  0
  4 16  1  0  0  0  0
  4 11  1  1  0  0  0
  6 20  1  6  0  0  0
  6  2  1  0  0  0  0
  6  4  1  0  0  0  0
  7  5  1  1  0  0  0
  7 17  1  0  0  0  0
  7  2  1  0  0  0  0
  8 13  1  0  0  0  0
  8 18  1  0  0  0  0
  9 10  1  0  0  0  0
  9 16  2  0  0  0  0
 14  3  2  0  0  0  0
 14 17  1  0  0  0  0
 15  9  1  0  0  0  0
 17  8  2  0  0  0  0
 18 12  2  0  0  0  0
 19 13  2  0  0  0  0
 20 15  2  0  0  0  0
 21 22  1  0  0  0  0
 21  3  1  0  0  0  0
 24 23  1  6  0  0  0
 24 14  1  0  0  0  0
 25 26  1  0  0  0  0
 26 24  1  0  0  0  0
 27 25  2  0  0  0  0
 28 33  1  0  0  0  0
 29 28  1  0  0  0  0
 29 31  1  0  0  0  0
 31 32  1  0  0  0  0
 32 30  1  0  0  0  0
 33 25  1  0  0  0  0
 33 30  1  0  0  0  0
 34 31  1  0  0  0  0
 34 35  1  0  0  0  0
M  END
>  <MODEL>
5

>  <REMARK>
 VINA RESULT:      -8.3      3.032      4.003
  Name = 
  5 active torsions:
  status: ('A' for Active; 'I' for Inactive)
    1  A    between atoms: C_2  and  C_27
    2  A    between atoms: C_4  and  C_5
    3  A    between atoms: C_10  and  N_11
    4  A    between atoms: C_10  and  C_26
    5  A    between atoms: O_16  and  N_24
                            x       y       z     vdW  Elec       q    Type
                         _______ _______ _______ _____ _____    ______ ____

>  <TORSDO>
F 5

$$$$
=
 OpenBabel10232409413D

 35 39  0  0  1  0  0  0  0  0999 V2000
  185.2830  178.0830  144.4370 C   0  0  0  0  0  0  0  0  0  0  0  0
  186.1750  177.7470  143.5170 C   0  0  0  0  0  0  0  0  0  0  0  0
  189.7340  177.6630  146.9630 C   0  0  0  0  0  0  0  0  0  0  0  0
  184.1800  178.2680  142.5210 C   0  0  1  0  0  3  0  0  0  0  0  0
  187.4680  175.7840  143.7210 O   0  0  0  0  0  1  0  0  0  0  0  0
  185.5270  177.7190  142.1790 C   0  0  1  0  0  3  0  0  0  0  0  0
  187.5230  177.1720  143.8550 C   0  0  2  0  0  3  0  0  0  0  0  0
  187.0330  177.9110  146.2460 C   0  0  0  0  0  0  0  0  0  0  0  0
  183.9490  179.3560  140.4430 C   0  0  0  0  0  0  0  0  0  0  0  0
  183.1640  180.0040  139.4490 N   0  0  0  0  0  1  0  0  0  0  0  0
  184.0220  178.4790  143.8200 C   0  0  0  0  0  2  0  0  0  0  0  0
  184.7450  178.4110  146.7210 O   0  0  0  0  0  0  0  0  0  0  0  0
  187.4400  178.1400  147.5620 C   0  0  0  0  0  3  0  0  0  0  0  0
  189.3520  177.4240  145.6260 C   0  0  0  0  0  0  0  0  0  0  0  0
  185.4290  179.3220  140.3030 C   0  0  0  0  0  3  0  0  0  0  0  0
  183.3760  178.9000  141.5220 N   0  0  0  0  0  0  0  0  0  0  0  0
  187.9830  177.5280  145.2630 C   0  0  0  0  0  0  0  0  0  0  0  0
  185.6240  178.1380  145.8590 C   0  0  0  0  0  0  0  0  0  0  0  0
  188.7770  178.0070  147.9190 C   0  0  0  0  0  3  0  0  0  0  0  0
  186.1810  178.6030  141.1500 C   0  0  0  0  0  3  0  0  0  0  0  0
  191.1540  177.5240  147.4100 C   0  0  0  0  0  2  0  0  0  0  0  0
  191.4920  176.1180  147.5510 N   0  0  0  0  0  1  0  0  0  0  0  0
  191.4940  177.9460  144.6890 O   0  0  0  0  0  1  0  0  0  0  0  0
  190.4180  177.0560  144.6260 C   0  0  2  0  0  3  0  0  0  0  0  0
  190.6890  176.9190  142.1150 C   0  0  0  0  0  0  0  0  0  0  0  0
  189.8690  177.0180  143.2790 N   0  0  0  0  0  2  0  0  0  0  0  0
  191.9430  176.8380  142.2210 O   0  0  0  0  0  0  0  0  0  0  0  0
  189.3700  178.2630  140.4850 C   0  0  0  0  0  2  0  0  0  0  0  0
  188.9800  178.4220  139.0090 C   0  0  0  0  0  2  0  0  0  0  0  0
  191.0530  176.5390  139.6790 C   0  0  0  0  0  2  0  0  0  0  0  0
  189.0870  177.1550  138.2850 N   0  0  0  0  0  0  0  0  0  0  0  0
  190.5010  176.7700  138.2640 C   0  0  0  0  0  2  0  0  0  0  0  0
  190.0460  176.9180  140.7690 C   0  0  0  0  0  3  0  0  0  0  0  0
  188.7300  177.4030  137.0020 O   0  0  0  0  0  0  0  0  0  0  0  0
  188.9580  178.7710  136.8250 C   0  0  0  0  0  1  0  0  0  0  0  0
  1 18  1  0  0  0  0
  2  7  1  0  0  0  0
  2  1  2  0  0  0  0
  3 21  1  0  0  0  0
  3 19  1  0  0  0  0
  4 11  1  1  0  0  0
  6 20  1  6  0  0  0
  6  4  1  0  0  0  0
  6  2  1  0  0  0  0
  7  5  1  1  0  0  0
  7 17  1  0  0  0  0
  8 13  1  0  0  0  0
  9 16  2  0  0  0  0
 10  9  1  0  0  0  0
 11  1  1  0  0  0  0
 13 19  2  0  0  0  0
 14  3  2  0  0  0  0
 15  9  1  0  0  0  0
 15 20  2  0  0  0  0
 16  4  1  0  0  0  0
 17 14  1  0  0  0  0
 17  8  2  0  0  0  0
 18  8  1  0  0  0  0
 18 12  2  0  0  0  0
 21 22  1  0  0  0  0
 24 23  1  6  0  0  0
 24 14  1  0  0  0  0
 25 27  2  0  0  0  0
 25 26  1  0  0  0  0
 26 24  1  0  0  0  0
 28 33  1  0  0  0  0
 29 28  1  0  0  0  0
 30 33  1  0  0  0  0
 31 29  1  0  0  0  0
 32 31  1  0  0  0  0
 32 30  1  0  0  0  0
 33 25  1  0  0  0  0
 34 31  1  0  0  0  0
 35 34  1  0  0  0  0
M  END
>  <MODEL>
6

>  <REMARK>
 VINA RESULT:      -8.2      4.056      7.484
  Name = 
  5 active torsions:
  status: ('A' for Active; 'I' for Inactive)
    1  A    between atoms: C_2  and  C_27
    2  A    between atoms: C_4  and  C_5
    3  A    between atoms: C_10  and  N_11
    4  A    between atoms: C_10  and  C_26
    5  A    between atoms: O_16  and  N_24
                            x       y       z     vdW  Elec       q    Type
                         _______ _______ _______ _____ _____    ______ ____

>  <TORSDO>
F 5

$$$$
=
 OpenBabel10232409413D

 35 39  0  0  1  0  0  0  0  0999 V2000
  187.0880  178.3080  144.8500 C   0  0  0  0  0  0  0  0  0  0  0  0
  187.1820  178.1180  143.5420 C   0  0  0  0  0  0  0  0  0  0  0  0
  182.2730  178.6210  143.0910 C   0  0  0  0  0  0  0  0  0  0  0  0
  189.2050  177.7180  144.5390 C   0  0  1  0  0  3  0  0  0  0  0  0
  186.3720  179.7160  142.0070 O   0  0  0  0  0  1  0  0  0  0  0  0
  188.5940  177.8230  143.1790 C   0  0  1  0  0  3  0  0  0  0  0  0
  186.0820  178.4780  142.5810 C   0  0  2  0  0  3  0  0  0  0  0  0
  184.6070  178.7140  144.6470 C   0  0  0  0  0  0  0  0  0  0  0  0
  190.7410  176.0630  143.8660 C   0  0  0  0  0  0  0  0  0  0  0  0
  191.9220  175.2960  144.0640 N   0  0  0  0  0  1  0  0  0  0  0  0
  188.3490  177.9980  145.5130 C   0  0  0  0  0  2  0  0  0  0  0  0
  185.7680  178.8940  146.7270 O   0  0  0  0  0  0  0  0  0  0  0  0
  183.3530  178.8660  145.2420 C   0  0  0  0  0  3  0  0  0  0  0  0
  183.5260  178.4660  142.4620 C   0  0  0  0  0  0  0  0  0  0  0  0
  189.8370  175.7370  142.7310 C   0  0  0  0  0  3  0  0  0  0  0  0
  190.4040  176.9680  144.7420 N   0  0  0  0  0  0  0  0  0  0  0  0
  184.7110  178.5330  143.2430 C   0  0  0  0  0  0  0  0  0  0  0  0
  185.8210  178.6690  145.4880 C   0  0  0  0  0  0  0  0  0  0  0  0
  182.1970  178.8290  144.4690 C   0  0  0  0  0  3  0  0  0  0  0  0
  188.7920  176.5270  142.4400 C   0  0  0  0  0  3  0  0  0  0  0  0
  180.9970  178.6030  142.3120 C   0  0  0  0  0  2  0  0  0  0  0  0
  180.2920  179.8610  142.4910 N   0  0  0  0  0  1  0  0  0  0  0  0
  184.8540  177.9120  140.5470 O   0  0  0  0  0  1  0  0  0  0  0  0
  183.5630  178.2400  140.9720 C   0  0  2  0  0  3  0  0  0  0  0  0
  182.1570  179.3280  139.1730 C   0  0  0  0  0  0  0  0  0  0  0  0
  183.0770  179.4130  140.2610 N   0  0  0  0  0  2  0  0  0  0  0  0
  181.7120  178.2090  138.7980 O   0  0  0  0  0  0  0  0  0  0  0  0
  181.3350  180.2890  137.0290 C   0  0  0  0  0  2  0  0  0  0  0  0
  180.5960  181.4670  136.3790 C   0  0  0  0  0  2  0  0  0  0  0  0
  180.6170  181.2850  139.2530 C   0  0  0  0  0  2  0  0  0  0  0  0
  180.6940  182.6790  137.1930 N   0  0  0  0  0  0  0  0  0  0  0  0
  179.9830  182.4320  138.4500 C   0  0  0  0  0  2  0  0  0  0  0  0
  181.7330  180.5780  138.4780 C   0  0  0  0  0  3  0  0  0  0  0  0
  180.0110  183.6500  136.5400 O   0  0  0  0  0  0  0  0  0  0  0  0
  180.8530  184.0400  135.4960 C   0  0  0  0  0  1  0  0  0  0  0  0
  1 18  1  0  0  0  0
  1 11  1  0  0  0  0
  2  1  2  0  0  0  0
  3 19  1  0  0  0  0
  4 16  1  0  0  0  0
  4 11  1  1  0  0  0
  6 20  1  1  0  0  0
  6  2  1  0  0  0  0
  6  4  1  0  0  0  0
  7  5  1  1  0  0  0
  7 17  1  0  0  0  0
  7  2  1  0  0  0  0
  8 13  1  0  0  0  0
  8 18  1  0  0  0  0
  9 10  1  0  0  0  0
  9 16  2  0  0  0  0
 14  3  2  0  0  0  0
 14 17  1  0  0  0  0
 15  9  1  0  0  0  0
 17  8  2  0  0  0  0
 18 12  2  0  0  0  0
 19 13  2  0  0  0  0
 20 15  2  0  0  0  0
 21 22  1  0  0  0  0
 21  3  1  0  0  0  0
 24 23  1  6  0  0  0
 24 14  1  0  0  0  0
 25 26  1  0  0  0  0
 26 24  1  0  0  0  0
 27 25  2  0  0  0  0
 28 33  1  0  0  0  0
 29 28  1  0  0  0  0
 29 31  1  0  0  0  0
 31 32  1  0  0  0  0
 32 30  1  0  0  0  0
 33 25  1  0  0  0  0
 33 30  1  0  0  0  0
 34 31  1  0  0  0  0
 35 34  1  0  0  0  0
M  END
>  <MODEL>
7

>  <REMARK>
 VINA RESULT:      -8.0      3.067      4.410
  Name = 
  5 active torsions:
  status: ('A' for Active; 'I' for Inactive)
    1  A    between atoms: C_2  and  C_27
    2  A    between atoms: C_4  and  C_5
    3  A    between atoms: C_10  and  N_11
    4  A    between atoms: C_10  and  C_26
    5  A    between atoms: O_16  and  N_24
                            x       y       z     vdW  Elec       q    Type
                         _______ _______ _______ _____ _____    ______ ____

>  <TORSDO>
F 5

$$$$
=
 OpenBabel10232409413D

 35 39  0  0  1  0  0  0  0  0999 V2000
  184.6090  176.8080  137.3040 C   0  0  0  0  0  0  0  0  0  0  0  0
  185.1530  177.7610  138.0460 C   0  0  0  0  0  0  0  0  0  0  0  0
  189.5770  175.5610  137.6700 C   0  0  0  0  0  0  0  0  0  0  0  0
  182.8750  177.9930  138.0210 C   0  0  1  0  0  3  0  0  0  0  0  0
  186.9640  179.0510  137.2550 O   0  0  0  0  0  1  0  0  0  0  0  0
  184.0980  178.7040  138.5030 C   0  0  1  0  0  3  0  0  0  0  0  0
  186.6370  178.0000  138.1130 C   0  0  2  0  0  3  0  0  0  0  0  0
  186.8660  175.7340  136.9670 C   0  0  0  0  0  0  0  0  0  0  0  0
  181.5700  178.7260  139.8410 C   0  0  0  0  0  0  0  0  0  0  0  0
  180.3150  178.9470  140.4740 N   0  0  0  0  0  1  0  0  0  0  0  0
  183.1540  176.9000  137.3240 C   0  0  0  0  0  2  0  0  0  0  0  0
  184.8830  174.9010  135.9270 O   0  0  0  0  0  0  0  0  0  0  0  0
  187.6410  174.6530  136.5400 C   0  0  0  0  0  3  0  0  0  0  0  0
  188.8200  176.6660  138.1140 C   0  0  0  0  0  0  0  0  0  0  0  0
  182.8260  178.9460  140.6060 C   0  0  0  0  0  3  0  0  0  0  0  0
  181.6070  178.2270  138.6370 N   0  0  0  0  0  0  0  0  0  0  0  0
  187.4530  176.7680  137.7430 C   0  0  0  0  0  0  0  0  0  0  0  0
  185.4190  175.7670  136.6710 C   0  0  0  0  0  0  0  0  0  0  0  0
  188.9860  174.5730  136.8810 C   0  0  0  0  0  3  0  0  0  0  0  0
  184.0190  178.8780  139.9960 C   0  0  0  0  0  3  0  0  0  0  0  0
  191.0310  175.4250  137.9940 C   0  0  0  0  0  2  0  0  0  0  0  0
  191.4980  174.1020  137.6200 N   0  0  0  0  0  1  0  0  0  0  0  0
  190.7970  177.9570  138.5170 O   0  0  0  0  0  1  0  0  0  0  0  0
  189.4970  177.7090  138.9660 C   0  0  2  0  0  3  0  0  0  0  0  0
  188.6540  177.8900  141.3440 C   0  0  0  0  0  0  0  0  0  0  0  0
  189.5100  177.3030  140.3640 N   0  0  0  0  0  2  0  0  0  0  0  0
  187.8260  178.7840  141.0180 O   0  0  0  0  0  0  0  0  0  0  0  0
  189.9190  178.1290  143.4750 C   0  0  0  0  0  2  0  0  0  0  0  0
  189.8660  177.9450  144.9980 C   0  0  0  0  0  2  0  0  0  0  0  0
  187.4270  177.6390  143.4980 C   0  0  0  0  0  2  0  0  0  0  0  0
  188.8870  176.9270  145.3830 N   0  0  0  0  0  0  0  0  0  0  0  0
  187.5580  177.4240  145.0140 C   0  0  0  0  0  2  0  0  0  0  0  0
  188.7550  177.4370  142.7620 C   0  0  0  0  0  3  0  0  0  0  0  0
  188.9130  176.8460  146.7350 O   0  0  0  0  0  0  0  0  0  0  0  0
  190.2700  176.8880  147.0690 C   0  0  0  0  0  1  0  0  0  0  0  0
  1 11  1  0  0  0  0
  1  2  2  0  0  0  0
  2  7  1  0  0  0  0
  2  6  1  0  0  0  0
  3 21  1  0  0  0  0
  3 14  1  0  0  0  0
  4 11  1  1  0  0  0
  4  6  1  0  0  0  0
  4 16  1  0  0  0  0
  6 20  1  1  0  0  0
  7  5  1  6  0  0  0
  8 17  1  0  0  0  0
  9 10  1  0  0  0  0
  9 15  1  0  0  0  0
 12 18  2  0  0  0  0
 13 19  1  0  0  0  0
 13  8  2  0  0  0  0
 14 24  1  0  0  0  0
 16  9  2  0  0  0  0
 17  7  1  0  0  0  0
 17 14  2  0  0  0  0
 18  8  1  0  0  0  0
 18  1  1  0  0  0  0
 19  3  2  0  0  0  0
 20 15  2  0  0  0  0
 22 21  1  0  0  0  0
 24 23  1  6  0  0  0
 24 26  1  0  0  0  0
 25 33  1  0  0  0  0
 26 25  1  0  0  0  0
 27 25  2  0  0  0  0
 28 29  1  0  0  0  0
 29 31  1  0  0  0  0
 30 32  1  0  0  0  0
 31 34  1  0  0  0  0
 32 31  1  0  0  0  0
 33 28  1  0  0  0  0
 33 30  1  0  0  0  0
 34 35  1  0  0  0  0
M  END
>  <MODEL>
8

>  <REMARK>
 VINA RESULT:      -8.0      3.223      9.304
  Name = 
  5 active torsions:
  status: ('A' for Active; 'I' for Inactive)
    1  A    between atoms: C_2  and  C_27
    2  A    between atoms: C_4  and  C_5
    3  A    between atoms: C_10  and  N_11
    4  A    between atoms: C_10  and  C_26
    5  A    between atoms: O_16  and  N_24
                            x       y       z     vdW  Elec       q    Type
                         _______ _______ _______ _____ _____    ______ ____

>  <TORSDO>
F 5

$$$$
=
 OpenBabel10232409413D

 35 39  0  0  1  0  0  0  0  0999 V2000
  187.7290  174.2300  135.7910 C   0  0  0  0  0  0  0  0  0  0  0  0
  186.9340  174.9740  136.5460 C   0  0  0  0  0  0  0  0  0  0  0  0
  190.8560  176.6380  139.0760 C   0  0  0  0  0  0  0  0  0  0  0  0
  185.6820  173.5970  135.2110 C   0  0  1  0  0  3  0  0  0  0  0  0
  187.2310  177.3080  136.7120 O   0  0  0  0  0  1  0  0  0  0  0  0
  185.5150  174.7280  136.1740 C   0  0  1  0  0  3  0  0  0  0  0  0
  187.4380  176.1090  137.3940 C   0  0  2  0  0  3  0  0  0  0  0  0
  189.7630  175.1590  136.9560 C   0  0  0  0  0  0  0  0  0  0  0  0
  183.6470  172.5880  135.8380 C   0  0  0  0  0  0  0  0  0  0  0  0
  182.5810  171.6740  135.6130 N   0  0  0  0  0  1  0  0  0  0  0  0
  186.9530  173.3010  134.9770 C   0  0  0  0  0  2  0  0  0  0  0  0
  189.9210  173.6230  135.1330 O   0  0  0  0  0  0  0  0  0  0  0  0
  191.1340  175.1140  137.2180 C   0  0  0  0  0  3  0  0  0  0  0  0
  189.4680  176.7050  138.8340 C   0  0  0  0  0  0  0  0  0  0  0  0
  183.7230  173.3230  137.1290 C   0  0  0  0  0  3  0  0  0  0  0  0
  184.6070  172.6880  134.9620 N   0  0  0  0  0  0  0  0  0  0  0  0
  188.9140  175.9740  137.7490 C   0  0  0  0  0  0  0  0  0  0  0  0
  189.1860  174.3040  135.8980 C   0  0  0  0  0  0  0  0  0  0  0  0
  191.6760  175.8550  138.2620 C   0  0  0  0  0  3  0  0  0  0  0  0
  184.6370  174.2880  137.3140 C   0  0  0  0  0  3  0  0  0  0  0  0
  191.4990  177.4210  140.1760 C   0  0  0  0  0  2  0  0  0  0  0  0
  192.9440  177.3610  140.0440 N   0  0  0  0  0  1  0  0  0  0  0  0
  188.8470  178.9190  139.5030 O   0  0  0  0  0  1  0  0  0  0  0  0
  188.6170  177.5610  139.7370 C   0  0  2  0  0  3  0  0  0  0  0  0
  187.9850  177.6410  142.1850 C   0  0  0  0  0  0  0  0  0  0  0  0
  188.8630  177.2370  141.1350 N   0  0  0  0  0  2  0  0  0  0  0  0
  186.9340  178.2880  141.9260 O   0  0  0  0  0  0  0  0  0  0  0  0
  189.6620  177.9270  144.0030 C   0  0  0  0  0  2  0  0  0  0  0  0
  189.8970  177.8700  145.5190 C   0  0  0  0  0  2  0  0  0  0  0  0
  187.1930  177.6810  144.5470 C   0  0  0  0  0  2  0  0  0  0  0  0
  188.9360  176.9840  146.1790 N   0  0  0  0  0  0  0  0  0  0  0  0
  187.6040  177.5750  146.0230 C   0  0  0  0  0  2  0  0  0  0  0  0
  188.3290  177.2950  143.5950 C   0  0  0  0  0  3  0  0  0  0  0  0
  189.2240  177.0080  147.5030 O   0  0  0  0  0  0  0  0  0  0  0  0
  188.4440  178.0460  148.0200 C   0  0  0  0  0  1  0  0  0  0  0  0
  1 18  1  0  0  0  0
  1  2  2  0  0  0  0
  2  7  1  0  0  0  0
  3 21  1  0  0  0  0
  4 11  1  1  0  0  0
  4  6  1  0  0  0  0
  6  2  1  0  0  0  0
  6 20  1  1  0  0  0
  7  5  1  6  0  0  0
  7 17  1  0  0  0  0
  8 13  2  0  0  0  0
  8 17  1  0  0  0  0
  9 15  1  0  0  0  0
 10  9  1  0  0  0  0
 11  1  1  0  0  0  0
 12 18  2  0  0  0  0
 13 19  1  0  0  0  0
 14  3  1  0  0  0  0
 14 24  1  0  0  0  0
 15 20  2  0  0  0  0
 16  4  1  0  0  0  0
 16  9  2  0  0  0  0
 17 14  2  0  0  0  0
 18  8  1  0  0  0  0
 19  3  2  0  0  0  0
 22 21  1  0  0  0  0
 24 23  1  1  0  0  0
 24 26  1  0  0  0  0
 25 33  1  0  0  0  0
 26 25  1  0  0  0  0
 27 25  2  0  0  0  0
 28 29  1  0  0  0  0
 29 31  1  0  0  0  0
 30 32  1  0  0  0  0
 31 34  1  0  0  0  0
 32 31  1  0  0  0  0
 33 28  1  0  0  0  0
 33 30  1  0  0  0  0
 34 35  1  0  0  0  0
M  END
>  <MODEL>
9

>  <REMARK>
 VINA RESULT:      -7.9      3.900     10.038
  Name = 
  5 active torsions:
  status: ('A' for Active; 'I' for Inactive)
    1  A    between atoms: C_2  and  C_27
    2  A    between atoms: C_4  and  C_5
    3  A    between atoms: C_10  and  N_11
    4  A    between atoms: C_10  and  C_26
    5  A    between atoms: O_16  and  N_24
                            x       y       z     vdW  Elec       q    Type
                         _______ _______ _______ _____ _____    ______ ____

>  <TORSDO>
F 5

$$$$
