=
 OpenBabel10232407583D

 44 48  0  0  1  0  0  0  0  0999 V2000
  184.7520  179.4660  140.4990 C   0  0  0  0  0  2  0  0  0  0  0  0
  186.0220  177.5330  135.4350 C   0  0  0  0  0  3  0  0  0  0  0  0
  185.8250  179.2430  141.5700 C   0  0  2  0  0  3  0  0  0  0  0  0
  188.2380  178.7010  141.1390 C   0  0  0  0  0  2  0  0  0  0  0  0
  189.2300  177.6710  140.5960 C   0  0  1  0  0  3  0  0  0  0  0  0
  186.3690  177.6140  136.7880 C   0  0  0  0  0  0  0  0  0  0  0  0
  186.8160  178.1440  141.1630 C   0  0  1  0  0  3  0  0  0  0  0  0
  186.6870  177.1860  142.2070 O   0  0  0  0  0  0  0  0  0  0  0  0
  188.6630  177.0560  136.2380 C   0  0  0  0  0  3  0  0  0  0  0  0
  187.9800  177.4810  138.5490 O   0  0  0  0  0  0  0  0  0  0  0  0
  185.7550  177.5420  143.1490 N   0  0  0  0  0  0  0  0  0  0  0  0
  186.9920  177.1900  134.4880 C   0  0  0  0  0  3  0  0  0  0  0  0
  184.2700  179.3530  143.6180 N   0  0  0  0  0  2  0  0  0  0  0  0
  185.2500  178.6810  142.8260 C   0  0  0  0  0  0  0  0  0  0  0  0
  187.6890  177.3880  137.1880 C   0  0  0  0  0  0  0  0  0  0  0  0
  185.4460  178.0770  137.7740 N   0  0  0  0  0  2  0  0  0  0  0  0
  188.3110  176.9540  134.8880 C   0  0  0  0  0  3  0  0  0  0  0  0
  184.0670  177.7520  137.9720 C   0  0  0  0  0  0  0  0  0  0  0  0
  183.2480  178.4210  139.0210 C   0  0  1  0  0  3  0  0  0  0  0  0
  182.0280  177.5530  138.9840 C   0  0  0  0  0  3  0  0  0  0  0  0
  182.1380  176.5870  138.1300 N   0  0  0  0  0  0  0  0  0  0  0  0
  183.4100  176.6920  137.5150 C   0  0  0  0  0  0  0  0  0  0  0  0
  183.9080  178.2880  140.3120 N   0  0  0  0  0  2  0  0  0  0  0  0
  189.2780  177.7000  139.0710 C   0  0  0  0  0  2  0  0  0  0  0  0
  183.9300  175.6590  136.6600 C   0  0  0  0  0  0  0  0  0  0  0  0
  184.3430  174.8260  135.9720 N   0  0  0  0  0  0  0  0  0  0  0  0
  183.4760  178.6560  144.6180 C   0  0  0  0  0  2  0  0  0  0  0  0
  183.8770  179.0630  145.9580 N   0  0  0  0  0  2  0  0  0  0  0  0
  185.2560  179.3350  145.9370 N   0  0  0  0  0  2  0  0  0  0  0  0
  185.9450  178.4290  146.8550 C   0  0  2  0  0  3  0  0  0  0  0  0
  186.8930  179.1580  147.8210 C   0  0  0  0  0  2  0  0  0  0  0  0
  187.8780  178.1710  148.4360 C   0  0  0  0  0  2  0  0  0  0  0  0
  188.4600  178.3490  145.1240 F   0  0  0  0  0  0  0  0  0  0  0  0
  188.1060  177.3430  146.0050 C   0  0  2  0  0  3  0  0  0  0  0  0
  186.5810  177.2410  146.1110 C   0  0  0  0  0  2  0  0  0  0  0  0
  188.7910  177.5680  147.3630 C   0  0  0  0  0  2  0  0  0  0  0  0
  190.6150  177.9740  141.1440 C   0  0  0  0  0  2  0  0  0  0  0  0
  190.2210  175.8040  142.2830 C   0  0  0  0  0  3  0  0  0  0  0  0
  190.4360  174.9840  143.2140 O   0  0  0  0  0  0  0  0  0  0  0  0
  190.9980  176.9990  142.1550 N   0  0  0  0  0  0  0  0  0  0  0  0
  191.9930  177.3860  143.1530 C   0  0  0  0  0  2  0  0  0  0  0  0
  191.6880  179.5320  144.3500 C   0  0  0  0  0  1  0  0  0  0  0  0
  191.3470  178.0570  144.3580 C   0  0  2  0  0  3  0  0  0  0  0  0
  191.8310  177.4600  145.5900 N   0  0  0  0  0  1  0  0  0  0  0  0
  2  6  1  0  0  0  0
  3  1  1  6  0  0  0
  3 14  1  0  0  0  0
  5  4  1  0  0  0  0
  5 37  1  1  0  0  0
  6 15  2  0  0  0  0
  6 16  1  0  0  0  0
  7  4  1  1  0  0  0
  7  3  1  0  0  0  0
  7  8  1  0  0  0  0
  8 11  1  0  0  0  0
  9 15  1  0  0  0  0
 10 24  1  0  0  0  0
 12 17  1  0  0  0  0
 12  2  2  0  0  0  0
 13 27  1  0  0  0  0
 14 11  2  0  0  0  0
 14 13  1  0  0  0  0
 15 10  1  0  0  0  0
 16 18  1  0  0  0  0
 17  9  2  0  0  0  0
 18 19  1  0  0  0  0
 19 20  1  1  0  0  0
 19 23  1  0  0  0  0
 21 20  2  0  0  0  0
 22 18  2  0  0  0  0
 22 21  1  0  0  0  0
 23  1  1  0  0  0  0
 24  5  1  0  0  0  0
 25 22  1  0  0  0  0
 26 25  3  0  0  0  0
 27 28  1  0  0  0  0
 29 28  1  0  0  0  0
 30 29  1  6  0  0  0
 30 31  1  0  0  0  0
 31 32  1  0  0  0  0
 34 33  1  6  0  0  0
 34 35  1  0  0  0  0
 34 36  1  0  0  0  0
 35 30  1  0  0  0  0
 36 32  1  0  0  0  0
 37 40  1  0  0  0  0
 38 39  2  0  0  0  0
 40 38  1  0  0  0  0
 40 41  1  0  0  0  0
 41 43  1  0  0  0  0
 43 42  1  1  0  0  0
 43 44  1  0  0  0  0
M  END
>  <MODEL>
1

>  <REMARK>
 VINA RESULT:      -8.2      0.000      0.000
  Name = 
  9 active torsions:
  status: ('A' for Active; 'I' for Inactive)
    1  A    between atoms: C_2  and  N_44
    2  A    between atoms: C_8  and  C_38
    3  A    between atoms: C_13  and  C_41
    4  A    between atoms: C_15  and  C_23
    5  A    between atoms: N_18  and  C_34
    6  A    between atoms: N_18  and  N_44
    7  A    between atoms: C_23  and  N_25
    8  A    between atoms: N_25  and  C_38
    9  A    between atoms: N_26  and  C_34
                            x       y       z     vdW  Elec       q    Type
                         _______ _______ _______ _____ _____    ______ ____

>  <TORSDO>
F 9

$$$$
=
 OpenBabel10232407583D

 44 48  0  0  1  0  0  0  0  0999 V2000
  183.6650  179.3490  140.8400 C   0  0  0  0  0  2  0  0  0  0  0  0
  183.3330  177.0540  135.7770 C   0  0  0  0  0  3  0  0  0  0  0  0
  185.0580  179.3200  141.4780 C   0  0  2  0  0  3  0  0  0  0  0  0
  187.2220  178.9460  140.2620 C   0  0  0  0  0  2  0  0  0  0  0  0
  188.0770  177.9570  139.4690 C   0  0  1  0  0  3  0  0  0  0  0  0
  184.1110  177.2940  136.9150 C   0  0  0  0  0  0  0  0  0  0  0  0
  185.9660  178.2760  140.8160 C   0  0  1  0  0  3  0  0  0  0  0  0
  186.3120  177.4140  141.8950 O   0  0  0  0  0  0  0  0  0  0  0  0
  186.1260  176.8820  135.6310 C   0  0  0  0  0  3  0  0  0  0  0  0
  186.2320  177.4670  138.0050 O   0  0  0  0  0  0  0  0  0  0  0  0
  185.7250  177.7790  143.0800 N   0  0  0  0  0  0  0  0  0  0  0  0
  183.9530  176.7060  134.5730 C   0  0  0  0  0  3  0  0  0  0  0  0
  184.2960  179.4940  143.9300 N   0  0  0  0  0  2  0  0  0  0  0  0
  185.0150  178.8340  142.8870 C   0  0  0  0  0  0  0  0  0  0  0  0
  185.5050  177.2200  136.8410 C   0  0  0  0  0  0  0  0  0  0  0  0
  183.5360  177.7690  138.1320 N   0  0  0  0  0  2  0  0  0  0  0  0
  185.3470  176.6220  134.4990 C   0  0  0  0  0  3  0  0  0  0  0  0
  182.3540  177.3480  138.8200 C   0  0  0  0  0  0  0  0  0  0  0  0
  181.8740  178.0420  140.0470 C   0  0  1  0  0  3  0  0  0  0  0  0
  180.8210  177.0750  140.4930 C   0  0  0  0  0  3  0  0  0  0  0  0
  180.7400  176.0440  139.7150 N   0  0  0  0  0  0  0  0  0  0  0  0
  181.7040  176.1980  138.6880 C   0  0  0  0  0  0  0  0  0  0  0  0
  182.9470  178.0900  141.0310 N   0  0  0  0  0  2  0  0  0  0  0  0
  187.5970  177.8440  138.0250 C   0  0  0  0  0  2  0  0  0  0  0  0
  182.0130  175.1350  137.7680 C   0  0  0  0  0  0  0  0  0  0  0  0
  182.2640  174.2790  137.0320 N   0  0  0  0  0  0  0  0  0  0  0  0
  183.9770  178.8300  145.1850 C   0  0  0  0  0  2  0  0  0  0  0  0
  184.9300  179.2130  146.2180 N   0  0  0  0  0  2  0  0  0  0  0  0
  185.6770  178.0740  146.5650 N   0  0  0  0  0  2  0  0  0  0  0  0
  187.1040  178.3900  146.5010 C   0  0  2  0  0  3  0  0  0  0  0  0
  187.8860  177.4520  145.5680 C   0  0  0  0  0  2  0  0  0  0  0  0
  189.3780  177.5390  145.8630 C   0  0  0  0  0  2  0  0  0  0  0  0
  187.8210  176.2460  148.5550 F   0  0  0  0  0  0  0  0  0  0  0  0
  188.5980  177.3660  148.3150 C   0  0  2  0  0  3  0  0  0  0  0  0
  187.7150  178.5480  147.9050 C   0  0  0  0  0  2  0  0  0  0  0  0
  189.6860  177.0390  147.2790 C   0  0  0  0  0  2  0  0  0  0  0  0
  189.5230  178.4270  139.4780 C   0  0  0  0  0  2  0  0  0  0  0  0
  190.2550  176.2510  138.5350 C   0  0  0  0  0  3  0  0  0  0  0  0
  190.9420  175.1970  138.5790 O   0  0  0  0  0  0  0  0  0  0  0  0
  190.4370  177.2950  139.4970 N   0  0  0  0  0  0  0  0  0  0  0  0
  191.3370  177.1460  140.6380 C   0  0  0  0  0  2  0  0  0  0  0  0
  191.4380  177.9190  142.9890 C   0  0  0  0  0  1  0  0  0  0  0  0
  190.5820  177.2100  141.9600 C   0  0  2  0  0  3  0  0  0  0  0  0
  190.2750  175.8720  142.4330 N   0  0  0  0  0  1  0  0  0  0  0  0
  1 23  1  0  0  0  0
  2  6  1  0  0  0  0
  3  1  1  6  0  0  0
  3 14  1  0  0  0  0
  5 37  1  6  0  0  0
  5  4  1  0  0  0  0
  6 16  1  0  0  0  0
  7  4  1  1  0  0  0
  7  3  1  0  0  0  0
  7  8  1  0  0  0  0
  8 11  1  0  0  0  0
  9 15  1  0  0  0  0
 10 24  1  0  0  0  0
 12  2  2  0  0  0  0
 13 27  1  0  0  0  0
 14 11  2  0  0  0  0
 14 13  1  0  0  0  0
 15  6  2  0  0  0  0
 15 10  1  0  0  0  0
 16 18  1  0  0  0  0
 17 12  1  0  0  0  0
 17  9  2  0  0  0  0
 18 19  1  0  0  0  0
 19 20  1  1  0  0  0
 19 23  1  0  0  0  0
 21 20  2  0  0  0  0
 22 18  2  0  0  0  0
 22 21  1  0  0  0  0
 24  5  1  0  0  0  0
 25 22  1  0  0  0  0
 26 25  3  0  0  0  0
 27 28  1  0  0  0  0
 28 29  1  0  0  0  0
 30 29  1  1  0  0  0
 30 35  1  0  0  0  0
 31 32  1  0  0  0  0
 31 30  1  0  0  0  0
 32 36  1  0  0  0  0
 34 33  1  6  0  0  0
 35 34  1  0  0  0  0
 36 34  1  0  0  0  0
 37 40  1  0  0  0  0
 38 39  2  0  0  0  0
 38 40  1  0  0  0  0
 40 41  1  0  0  0  0
 41 43  1  0  0  0  0
 43 44  1  0  0  0  0
 43 42  1  1  0  0  0
M  END
>  <MODEL>
2

>  <REMARK>
 VINA RESULT:      -7.6      1.660      2.280
  Name = 
  9 active torsions:
  status: ('A' for Active; 'I' for Inactive)
    1  A    between atoms: C_2  and  N_44
    2  A    between atoms: C_8  and  C_38
    3  A    between atoms: C_13  and  C_41
    4  A    between atoms: C_15  and  C_23
    5  A    between atoms: N_18  and  C_34
    6  A    between atoms: N_18  and  N_44
    7  A    between atoms: C_23  and  N_25
    8  A    between atoms: N_25  and  C_38
    9  A    between atoms: N_26  and  C_34
                            x       y       z     vdW  Elec       q    Type
                         _______ _______ _______ _____ _____    ______ ____

>  <TORSDO>
F 9

$$$$
=
 OpenBabel10232407583D

 44 48  0  0  1  0  0  0  0  0999 V2000
  188.2020  179.1860  140.7860 C   0  0  0  0  0  2  0  0  0  0  0  0
  183.3950  178.5930  138.0400 C   0  0  0  0  0  3  0  0  0  0  0  0
  189.3660  178.3470  140.2500 C   0  0  2  0  0  3  0  0  0  0  0  0
  189.4850  177.2830  137.9800 C   0  0  0  0  0  2  0  0  0  0  0  0
  188.9030  176.2230  137.0430 C   0  0  1  0  0  3  0  0  0  0  0  0
  184.7120  178.1570  138.2210 C   0  0  0  0  0  0  0  0  0  0  0  0
  188.8760  177.1840  139.3780 C   0  0  1  0  0  3  0  0  0  0  0  0
  189.3820  176.0370  140.0480 O   0  0  0  0  0  0  0  0  0  0  0  0
  184.6850  177.1480  136.0170 C   0  0  0  0  0  3  0  0  0  0  0  0
  186.6730  177.0340  137.4410 O   0  0  0  0  0  0  0  0  0  0  0  0
  190.0720  176.3470  141.1940 N   0  0  0  0  0  0  0  0  0  0  0  0
  182.7170  178.2860  136.8560 C   0  0  0  0  0  3  0  0  0  0  0  0
  190.7470  178.2810  142.4220 N   0  0  0  0  0  2  0  0  0  0  0  0
  190.0810  177.6250  141.3420 C   0  0  0  0  0  0  0  0  0  0  0  0
  185.3610  177.4460  137.2080 C   0  0  0  0  0  0  0  0  0  0  0  0
  185.4830  178.5470  139.3570 N   0  0  0  0  0  2  0  0  0  0  0  0
  183.3620  177.5660  135.8450 C   0  0  0  0  0  3  0  0  0  0  0  0
  185.1280  178.5940  140.7420 C   0  0  0  0  0  0  0  0  0  0  0  0
  186.0650  179.1220  141.7720 C   0  0  1  0  0  3  0  0  0  0  0  0
  185.3420  178.7020  143.0150 C   0  0  0  0  0  3  0  0  0  0  0  0
  184.2540  178.0510  142.7540 N   0  0  0  0  0  0  0  0  0  0  0  0
  184.1280  177.9620  141.3450 C   0  0  0  0  0  0  0  0  0  0  0  0
  187.3370  178.4190  141.6810 N   0  0  0  0  0  2  0  0  0  0  0  0
  187.5930  176.6970  136.4190 C   0  0  0  0  0  2  0  0  0  0  0  0
  183.1330  177.1320  140.7200 C   0  0  0  0  0  0  0  0  0  0  0  0
  182.3330  176.4670  140.2140 N   0  0  0  0  0  0  0  0  0  0  0  0
  191.1210  177.5770  143.6390 C   0  0  0  0  0  2  0  0  0  0  0  0
  190.4370  178.1530  144.7890 N   0  0  0  0  0  2  0  0  0  0  0  0
  190.4070  177.1860  145.8080 N   0  0  0  0  0  2  0  0  0  0  0  0
  189.0180  176.9140  146.1800 C   0  0  2  0  0  3  0  0  0  0  0  0
  188.0190  177.8760  145.5160 C   0  0  0  0  0  2  0  0  0  0  0  0
  186.6840  177.8350  146.2480 C   0  0  0  0  0  2  0  0  0  0  0  0
  189.0160  179.0770  148.3340 F   0  0  0  0  0  0  0  0  0  0  0  0
  188.1710  177.9830  148.3490 C   0  0  2  0  0  3  0  0  0  0  0  0
  188.8540  176.7740  147.7030 C   0  0  0  0  0  2  0  0  0  0  0  0
  186.8310  178.3440  147.6860 C   0  0  0  0  0  2  0  0  0  0  0  0
  189.9030  175.9290  135.9380 C   0  0  0  0  0  2  0  0  0  0  0  0
  190.0050  173.5580  135.2130 C   0  0  0  0  0  3  0  0  0  0  0  0
  190.3690  172.3630  135.3720 O   0  0  0  0  0  0  0  0  0  0  0  0
  190.4640  174.5940  136.0870 N   0  0  0  0  0  0  0  0  0  0  0  0
  191.2770  174.3070  137.2670 C   0  0  0  0  0  2  0  0  0  0  0  0
  193.7090  173.8560  137.3880 C   0  0  0  0  0  1  0  0  0  0  0  0
  192.6640  174.9270  137.1570 C   0  0  2  0  0  3  0  0  0  0  0  0
  192.8290  175.9780  138.1450 N   0  0  0  0  0  1  0  0  0  0  0  0
  1 23  1  0  0  0  0
  2  6  1  0  0  0  0
  3  1  1  1  0  0  0
  3 14  1  0  0  0  0
  5 37  1  6  0  0  0
  5  4  1  0  0  0  0
  6 16  1  0  0  0  0
  7  4  1  6  0  0  0
  7  8  1  0  0  0  0
  7  3  1  0  0  0  0
  8 11  1  0  0  0  0
  9 15  1  0  0  0  0
 11 14  2  0  0  0  0
 12  2  2  0  0  0  0
 13 27  1  0  0  0  0
 14 13  1  0  0  0  0
 15 10  1  0  0  0  0
 15  6  2  0  0  0  0
 16 18  1  0  0  0  0
 17  9  2  0  0  0  0
 17 12  1  0  0  0  0
 18 22  2  0  0  0  0
 18 19  1  0  0  0  0
 19 20  1  1  0  0  0
 21 20  2  0  0  0  0
 22 21  1  0  0  0  0
 23 19  1  0  0  0  0
 24  5  1  0  0  0  0
 24 10  1  0  0  0  0
 25 22  1  0  0  0  0
 26 25  3  0  0  0  0
 27 28  1  0  0  0  0
 28 29  1  0  0  0  0
 30 29  1  1  0  0  0
 30 35  1  0  0  0  0
 31 30  1  0  0  0  0
 31 32  1  0  0  0  0
 32 36  1  0  0  0  0
 34 33  1  6  0  0  0
 35 34  1  0  0  0  0
 36 34  1  0  0  0  0
 37 40  1  0  0  0  0
 38 39  2  0  0  0  0
 38 40  1  0  0  0  0
 40 41  1  0  0  0  0
 43 41  1  0  0  0  0
 43 42  1  1  0  0  0
 43 44  1  0  0  0  0
M  END
>  <MODEL>
3

>  <REMARK>
 VINA RESULT:      -7.6      2.464      4.955
  Name = 
  9 active torsions:
  status: ('A' for Active; 'I' for Inactive)
    1  A    between atoms: C_2  and  N_44
    2  A    between atoms: C_8  and  C_38
    3  A    between atoms: C_13  and  C_41
    4  A    between atoms: C_15  and  C_23
    5  A    between atoms: N_18  and  C_34
    6  A    between atoms: N_18  and  N_44
    7  A    between atoms: C_23  and  N_25
    8  A    between atoms: N_25  and  C_38
    9  A    between atoms: N_26  and  C_34
                            x       y       z     vdW  Elec       q    Type
                         _______ _______ _______ _____ _____    ______ ____

>  <TORSDO>
F 9

$$$$
=
 OpenBabel10232407583D

 44 48  0  0  1  0  0  0  0  0999 V2000
  184.1080  179.1970  140.7850 C   0  0  0  0  0  2  0  0  0  0  0  0
  184.2760  176.7660  135.7780 C   0  0  0  0  0  3  0  0  0  0  0  0
  185.4330  179.1950  141.5550 C   0  0  2  0  0  3  0  0  0  0  0  0
  187.7050  178.8030  140.5640 C   0  0  0  0  0  2  0  0  0  0  0  0
  188.6370  177.7980  139.8840 C   0  0  1  0  0  3  0  0  0  0  0  0
  184.9390  177.0410  136.9790 C   0  0  0  0  0  0  0  0  0  0  0  0
  186.4050  178.1390  141.0130 C   0  0  1  0  0  3  0  0  0  0  0  0
  186.6480  177.3090  142.1420 O   0  0  0  0  0  0  0  0  0  0  0  0
  187.0700  176.6090  135.9060 C   0  0  0  0  0  3  0  0  0  0  0  0
  186.9440  177.2570  138.2630 O   0  0  0  0  0  0  0  0  0  0  0  0
  185.9470  177.7000  143.2550 N   0  0  0  0  0  0  0  0  0  0  0  0
  185.0100  176.3900  134.6490 C   0  0  0  0  0  3  0  0  0  0  0  0
  184.4370  179.4280  143.9170 N   0  0  0  0  0  2  0  0  0  0  0  0
  185.2550  178.7460  142.9660 C   0  0  0  0  0  0  0  0  0  0  0  0
  186.3340  176.9740  137.0410 C   0  0  0  0  0  0  0  0  0  0  0  0
  184.2470  177.5440  138.1220 N   0  0  0  0  0  2  0  0  0  0  0  0
  186.4050  176.3130  134.7120 C   0  0  0  0  0  3  0  0  0  0  0  0
  183.0060  177.1340  138.7030 C   0  0  0  0  0  0  0  0  0  0  0  0
  182.4070  177.8580  139.8590 C   0  0  1  0  0  3  0  0  0  0  0  0
  181.3200  176.8960  140.2270 C   0  0  0  0  0  3  0  0  0  0  0  0
  181.3180  175.8440  139.4730 N   0  0  0  0  0  0  0  0  0  0  0  0
  182.3770  175.9770  138.5400 C   0  0  0  0  0  0  0  0  0  0  0  0
  183.3790  177.9390  140.9400 N   0  0  0  0  0  2  0  0  0  0  0  0
  188.2990  177.6440  138.4040 C   0  0  0  0  0  2  0  0  0  0  0  0
  182.7770  174.8920  137.6840 C   0  0  0  0  0  0  0  0  0  0  0  0
  183.0960  174.0170  136.9980 N   0  0  0  0  0  0  0  0  0  0  0  0
  184.0000  178.7960  145.1520 C   0  0  0  0  0  2  0  0  0  0  0  0
  184.8550  179.2040  146.2600 N   0  0  0  0  0  2  0  0  0  0  0  0
  185.6330  178.0970  146.6400 N   0  0  0  0  0  2  0  0  0  0  0  0
  187.0510  178.4480  146.5570 C   0  0  2  0  0  3  0  0  0  0  0  0
  187.8850  177.4040  145.7970 C   0  0  0  0  0  2  0  0  0  0  0  0
  189.3660  177.5870  146.1070 C   0  0  0  0  0  2  0  0  0  0  0  0
  187.7810  176.6750  148.9340 F   0  0  0  0  0  0  0  0  0  0  0  0
  188.5290  177.7690  148.5390 C   0  0  2  0  0  3  0  0  0  0  0  0
  187.6210  178.8430  147.9320 C   0  0  0  0  0  2  0  0  0  0  0  0
  189.6520  177.3230  147.5890 C   0  0  0  0  0  2  0  0  0  0  0  0
  190.0730  178.2780  140.0190 C   0  0  0  0  0  2  0  0  0  0  0  0
  190.4930  176.9100  142.0470 C   0  0  0  0  0  3  0  0  0  0  0  0
  191.2190  176.1560  142.7470 O   0  0  0  0  0  0  0  0  0  0  0  0
  190.8840  177.2980  140.7260 N   0  0  0  0  0  0  0  0  0  0  0  0
  192.1860  176.9390  140.1690 C   0  0  0  0  0  2  0  0  0  0  0  0
  191.3900  175.5490  138.2810 C   0  0  0  0  0  1  0  0  0  0  0  0
  192.1320  176.8160  138.6510 C   0  0  2  0  0  3  0  0  0  0  0  0
  193.4740  176.7630  138.1000 N   0  0  0  0  0  1  0  0  0  0  0  0
  1 23  1  0  0  0  0
  2  6  1  0  0  0  0
  3  1  1  6  0  0  0
  3 14  1  0  0  0  0
  5 37  1  6  0  0  0
  5  4  1  0  0  0  0
  6 15  2  0  0  0  0
  6 16  1  0  0  0  0
  7  4  1  1  0  0  0
  7  3  1  0  0  0  0
  7  8  1  0  0  0  0
  8 11  1  0  0  0  0
  9 15  1  0  0  0  0
 10 24  1  0  0  0  0
 12 17  1  0  0  0  0
 12  2  2  0  0  0  0
 13 27  1  0  0  0  0
 14 11  2  0  0  0  0
 14 13  1  0  0  0  0
 15 10  1  0  0  0  0
 16 18  1  0  0  0  0
 17  9  2  0  0  0  0
 18 19  1  0  0  0  0
 19 20  1  1  0  0  0
 19 23  1  0  0  0  0
 21 20  2  0  0  0  0
 22 18  2  0  0  0  0
 22 21  1  0  0  0  0
 24  5  1  0  0  0  0
 25 22  1  0  0  0  0
 26 25  3  0  0  0  0
 27 28  1  0  0  0  0
 28 29  1  0  0  0  0
 30 29  1  1  0  0  0
 30 35  1  0  0  0  0
 31 32  1  0  0  0  0
 31 30  1  0  0  0  0
 32 36  1  0  0  0  0
 34 33  1  6  0  0  0
 35 34  1  0  0  0  0
 36 34  1  0  0  0  0
 37 40  1  0  0  0  0
 38 39  2  0  0  0  0
 40 38  1  0  0  0  0
 41 40  1  0  0  0  0
 43 42  1  1  0  0  0
 43 41  1  0  0  0  0
 44 43  1  0  0  0  0
M  END
>  <MODEL>
4

>  <REMARK>
 VINA RESULT:      -7.5      1.614      2.443
  Name = 
  9 active torsions:
  status: ('A' for Active; 'I' for Inactive)
    1  A    between atoms: C_2  and  N_44
    2  A    between atoms: C_8  and  C_38
    3  A    between atoms: C_13  and  C_41
    4  A    between atoms: C_15  and  C_23
    5  A    between atoms: N_18  and  C_34
    6  A    between atoms: N_18  and  N_44
    7  A    between atoms: C_23  and  N_25
    8  A    between atoms: N_25  and  C_38
    9  A    between atoms: N_26  and  C_34
                            x       y       z     vdW  Elec       q    Type
                         _______ _______ _______ _____ _____    ______ ____

>  <TORSDO>
F 9

$$$$
=
 OpenBabel10232407583D

 44 48  0  0  1  0  0  0  0  0999 V2000
  185.4630  179.1640  139.9080 C   0  0  0  0  0  2  0  0  0  0  0  0
  189.0740  176.6980  136.4610 C   0  0  0  0  0  3  0  0  0  0  0  0
  185.8890  179.2040  141.3790 C   0  0  2  0  0  3  0  0  0  0  0  0
  188.2230  178.8630  142.2400 C   0  0  0  0  0  2  0  0  0  0  0  0
  189.3790  177.8780  142.4160 C   0  0  1  0  0  3  0  0  0  0  0  0
  188.7200  177.0000  137.7800 C   0  0  0  0  0  0  0  0  0  0  0  0
  186.9810  178.1690  141.6830 C   0  0  1  0  0  3  0  0  0  0  0  0
  186.3870  177.3550  142.6880 O   0  0  0  0  0  0  0  0  0  0  0  0
  191.0080  176.6150  138.4860 C   0  0  0  0  0  3  0  0  0  0  0  0
  189.2810  177.2790  140.0880 O   0  0  0  0  0  0  0  0  0  0  0  0
  185.1070  177.7370  143.0000 N   0  0  0  0  0  0  0  0  0  0  0  0
  190.3890  176.3320  136.1600 C   0  0  0  0  0  3  0  0  0  0  0  0
  183.5350  179.4300  142.3950 N   0  0  0  0  0  2  0  0  0  0  0  0
  184.7930  178.7620  142.2880 C   0  0  0  0  0  0  0  0  0  0  0  0
  189.6870  176.9710  138.7900 C   0  0  0  0  0  0  0  0  0  0  0  0
  187.4240  177.4950  138.1170 N   0  0  0  0  0  2  0  0  0  0  0  0
  191.3550  176.2930  137.1700 C   0  0  0  0  0  3  0  0  0  0  0  0
  186.1300  177.0570  137.6910 C   0  0  0  0  0  0  0  0  0  0  0  0
  184.8890  177.7740  138.0970 C   0  0  1  0  0  3  0  0  0  0  0  0
  183.8620  176.7870  137.6360 C   0  0  0  0  0  3  0  0  0  0  0  0
  184.3950  175.7290  137.1150 N   0  0  0  0  0  0  0  0  0  0  0  0
  185.8030  175.8820  137.1670 C   0  0  0  0  0  0  0  0  0  0  0  0
  184.8450  177.8900  139.5480 N   0  0  0  0  0  2  0  0  0  0  0  0
  190.1580  177.7030  141.1160 C   0  0  0  0  0  2  0  0  0  0  0  0
  186.6990  174.8020  136.8490 C   0  0  0  0  0  0  0  0  0  0  0  0
  187.4220  173.9350  136.5960 N   0  0  0  0  0  0  0  0  0  0  0  0
  182.3740  178.7970  143.0020 C   0  0  0  0  0  2  0  0  0  0  0  0
  181.2090  178.9410  142.1400 N   0  0  0  0  0  2  0  0  0  0  0  0
  181.5370  178.4240  140.8740 N   0  0  0  0  0  2  0  0  0  0  0  0
  180.6460  179.0010  139.8670 C   0  0  2  0  0  3  0  0  0  0  0  0
  180.8100  178.3570  138.4810 C   0  0  0  0  0  2  0  0  0  0  0  0
  180.2010  179.2540  137.4100 C   0  0  0  0  0  2  0  0  0  0  0  0
  182.8200  180.8560  138.7910 F   0  0  0  0  0  0  0  0  0  0  0  0
  181.4670  181.1130  138.6700 C   0  0  2  0  0  3  0  0  0  0  0  0
  180.7060  180.5390  139.8690 C   0  0  0  0  0  2  0  0  0  0  0  0
  180.9500  180.5870  137.3200 C   0  0  0  0  0  2  0  0  0  0  0  0
  190.3180  178.3960  143.4930 C   0  0  0  0  0  2  0  0  0  0  0  0
  191.6030  177.0400  145.1260 C   0  0  0  0  0  3  0  0  0  0  0  0
  191.6750  176.1750  146.0390 O   0  0  0  0  0  0  0  0  0  0  0  0
  190.3380  177.5000  144.6400 N   0  0  0  0  0  0  0  0  0  0  0  0
  189.0770  176.9130  145.0880 C   0  0  0  0  0  2  0  0  0  0  0  0
  188.6410  176.9650  147.5250 C   0  0  0  0  0  1  0  0  0  0  0  0
  188.4570  177.7170  146.2240 C   0  0  2  0  0  3  0  0  0  0  0  0
  187.0400  177.9210  145.9850 N   0  0  0  0  0  1  0  0  0  0  0  0
  2  6  1  0  0  0  0
  3  1  1  6  0  0  0
  3  7  1  0  0  0  0
  3 14  1  0  0  0  0
  4  5  1  0  0  0  0
  5 37  1  1  0  0  0
  6 16  1  0  0  0  0
  6 15  2  0  0  0  0
  7  4  1  1  0  0  0
  7  8  1  0  0  0  0
  8 11  1  0  0  0  0
  9 15  1  0  0  0  0
 10 24  1  0  0  0  0
 12  2  2  0  0  0  0
 12 17  1  0  0  0  0
 13 27  1  0  0  0  0
 14 13  1  0  0  0  0
 14 11  2  0  0  0  0
 15 10  1  0  0  0  0
 17  9  2  0  0  0  0
 18 19  1  0  0  0  0
 18 16  1  0  0  0  0
 19 20  1  1  0  0  0
 19 23  1  0  0  0  0
 21 22  1  0  0  0  0
 21 20  2  0  0  0  0
 22 18  2  0  0  0  0
 23  1  1  0  0  0  0
 24  5  1  0  0  0  0
 25 22  1  0  0  0  0
 26 25  3  0  0  0  0
 28 27  1  0  0  0  0
 29 28  1  0  0  0  0
 30 35  1  0  0  0  0
 30 29  1  1  0  0  0
 31 30  1  0  0  0  0
 32 31  1  0  0  0  0
 34 33  1  1  0  0  0
 34 35  1  0  0  0  0
 36 32  1  0  0  0  0
 36 34  1  0  0  0  0
 37 40  1  0  0  0  0
 38 39  2  0  0  0  0
 40 41  1  0  0  0  0
 40 38  1  0  0  0  0
 41 43  1  0  0  0  0
 43 42  1  1  0  0  0
 44 43  1  0  0  0  0
M  END
>  <MODEL>
5

>  <REMARK>
 VINA RESULT:      -7.2      2.337      5.093
  Name = 
  9 active torsions:
  status: ('A' for Active; 'I' for Inactive)
    1  A    between atoms: C_2  and  N_44
    2  A    between atoms: C_8  and  C_38
    3  A    between atoms: C_13  and  C_41
    4  A    between atoms: C_15  and  C_23
    5  A    between atoms: N_18  and  C_34
    6  A    between atoms: N_18  and  N_44
    7  A    between atoms: C_23  and  N_25
    8  A    between atoms: N_25  and  C_38
    9  A    between atoms: N_26  and  C_34
                            x       y       z     vdW  Elec       q    Type
                         _______ _______ _______ _____ _____    ______ ____

>  <TORSDO>
F 9

$$$$
=
 OpenBabel10232407583D

 44 48  0  0  1  0  0  0  0  0999 V2000
  187.2060  178.5520  137.7320 C   0  0  0  0  0  2  0  0  0  0  0  0
  185.5270  179.4320  142.9680 C   0  0  0  0  0  3  0  0  0  0  0  0
  186.2020  177.8140  136.8410 C   0  0  2  0  0  3  0  0  0  0  0  0
  183.7480  177.5510  137.3010 C   0  0  0  0  0  2  0  0  0  0  0  0
  182.6870  176.9300  138.2110 C   0  0  1  0  0  3  0  0  0  0  0  0
  185.2770  178.8180  141.7360 C   0  0  0  0  0  0  0  0  0  0  0  0
  185.1490  177.0650  137.6690 C   0  0  1  0  0  3  0  0  0  0  0  0
  185.3160  175.7120  137.2630 O   0  0  0  0  0  0  0  0  0  0  0  0
  182.9320  178.6010  142.3150 C   0  0  0  0  0  3  0  0  0  0  0  0
  183.7860  177.8050  140.1640 O   0  0  0  0  0  0  0  0  0  0  0  0
  186.3220  175.5490  136.3440 N   0  0  0  0  0  0  0  0  0  0  0  0
  184.4830  179.6080  143.8810 C   0  0  0  0  0  3  0  0  0  0  0  0
  187.8960  176.8840  135.1420 N   0  0  0  0  0  2  0  0  0  0  0  0
  186.8420  176.6980  136.0880 C   0  0  0  0  0  0  0  0  0  0  0  0
  183.9800  178.4130  141.4040 C   0  0  0  0  0  0  0  0  0  0  0  0
  186.2800  178.7240  140.7250 N   0  0  0  0  0  2  0  0  0  0  0  0
  183.1870  179.1950  143.5550 C   0  0  0  0  0  3  0  0  0  0  0  0
  187.6570  178.3510  140.8230 C   0  0  0  0  0  0  0  0  0  0  0  0
  188.5680  178.4030  139.6460 C   0  0  1  0  0  3  0  0  0  0  0  0
  189.7530  177.6790  140.2070 C   0  0  0  0  0  3  0  0  0  0  0  0
  189.5520  177.2750  141.4210 N   0  0  0  0  0  0  0  0  0  0  0  0
  188.2450  177.6700  141.8000 C   0  0  0  0  0  0  0  0  0  0  0  0
  187.9940  177.6340  138.5510 N   0  0  0  0  0  2  0  0  0  0  0  0
  182.5350  177.7250  139.5050 C   0  0  0  0  0  2  0  0  0  0  0  0
  187.6330  177.2070  143.0170 C   0  0  0  0  0  0  0  0  0  0  0  0
  187.1440  176.8300  143.9950 N   0  0  0  0  0  0  0  0  0  0  0  0
  188.7330  175.7810  134.6930 C   0  0  0  0  0  2  0  0  0  0  0  0
  189.9950  175.7730  135.4210 N   0  0  0  0  0  2  0  0  0  0  0  0
  189.8890  174.8390  136.4670 N   0  0  0  0  0  2  0  0  0  0  0  0
  190.9780  175.0500  137.4200 C   0  0  2  0  0  3  0  0  0  0  0  0
  191.5430  176.4790  137.3810 C   0  0  0  0  0  2  0  0  0  0  0  0
  192.9110  176.5220  138.0510 C   0  0  0  0  0  2  0  0  0  0  0  0
  193.1240  174.6010  135.2940 F   0  0  0  0  0  0  0  0  0  0  0  0
  193.3340  174.4020  136.6470 C   0  0  2  0  0  3  0  0  0  0  0  0
  192.0410  173.9400  137.3240 C   0  0  0  0  0  2  0  0  0  0  0  0
  193.9260  175.6720  137.2790 C   0  0  0  0  0  2  0  0  0  0  0  0
  181.3540  176.9080  137.4810 C   0  0  0  0  0  2  0  0  0  0  0  0
  180.6990  174.6850  138.3680 C   0  0  0  0  0  3  0  0  0  0  0  0
  180.4320  173.4640  138.2160 O   0  0  0  0  0  0  0  0  0  0  0  0
  180.9150  175.5410  137.2420 N   0  0  0  0  0  0  0  0  0  0  0  0
  180.9540  175.0270  135.8750 C   0  0  0  0  0  2  0  0  0  0  0  0
  182.9180  175.3670  134.4050 C   0  0  0  0  0  1  0  0  0  0  0  0
  182.3390  174.5080  135.5100 C   0  0  2  0  0  3  0  0  0  0  0  0
  182.2610  173.1320  135.0540 N   0  0  0  0  0  1  0  0  0  0  0  0
  1 23  1  0  0  0  0
  2 12  1  0  0  0  0
  3  7  1  0  0  0  0
  3  1  1  1  0  0  0
  4  5  1  0  0  0  0
  5 37  1  6  0  0  0
  5 24  1  0  0  0  0
  6  2  2  0  0  0  0
  7  4  1  6  0  0  0
  8  7  1  0  0  0  0
  9 17  1  0  0  0  0
 10 15  1  0  0  0  0
 11  8  1  0  0  0  0
 13 14  1  0  0  0  0
 14 11  2  0  0  0  0
 14  3  1  0  0  0  0
 15  6  1  0  0  0  0
 15  9  2  0  0  0  0
 16 18  1  0  0  0  0
 16  6  1  0  0  0  0
 17 12  2  0  0  0  0
 18 22  2  0  0  0  0
 19 20  1  1  0  0  0
 19 18  1  0  0  0  0
 20 21  2  0  0  0  0
 21 22  1  0  0  0  0
 22 25  1  0  0  0  0
 23 19  1  0  0  0  0
 24 10  1  0  0  0  0
 25 26  3  0  0  0  0
 27 13  1  0  0  0  0
 27 28  1  0  0  0  0
 28 29  1  0  0  0  0
 30 29  1  6  0  0  0
 31 30  1  0  0  0  0
 31 32  1  0  0  0  0
 34 33  1  6  0  0  0
 34 36  1  0  0  0  0
 34 35  1  0  0  0  0
 35 30  1  0  0  0  0
 36 32  1  0  0  0  0
 39 38  2  0  0  0  0
 40 37  1  0  0  0  0
 40 38  1  0  0  0  0
 41 40  1  0  0  0  0
 43 42  1  6  0  0  0
 43 41  1  0  0  0  0
 44 43  1  0  0  0  0
M  END
>  <MODEL>
6

>  <REMARK>
 VINA RESULT:      -7.2      3.438      9.257
  Name = 
  9 active torsions:
  status: ('A' for Active; 'I' for Inactive)
    1  A    between atoms: C_2  and  N_44
    2  A    between atoms: C_8  and  C_38
    3  A    between atoms: C_13  and  C_41
    4  A    between atoms: C_15  and  C_23
    5  A    between atoms: N_18  and  C_34
    6  A    between atoms: N_18  and  N_44
    7  A    between atoms: C_23  and  N_25
    8  A    between atoms: N_25  and  C_38
    9  A    between atoms: N_26  and  C_34
                            x       y       z     vdW  Elec       q    Type
                         _______ _______ _______ _____ _____    ______ ____

>  <TORSDO>
F 9

$$$$
=
 OpenBabel10232407583D

 44 48  0  0  1  0  0  0  0  0999 V2000
  187.1350  179.0860  140.3710 C   0  0  0  0  0  2  0  0  0  0  0  0
  191.1050  176.9090  137.1300 C   0  0  0  0  0  3  0  0  0  0  0  0
  187.3670  178.9300  141.8780 C   0  0  2  0  0  3  0  0  0  0  0  0
  189.5580  178.3940  142.9790 C   0  0  0  0  0  2  0  0  0  0  0  0
  190.6570  177.3480  143.1760 C   0  0  1  0  0  3  0  0  0  0  0  0
  190.5890  177.0640  138.4210 C   0  0  0  0  0  0  0  0  0  0  0  0
  188.3830  177.8230  142.1870 C   0  0  1  0  0  3  0  0  0  0  0  0
  187.6430  176.9180  142.9980 O   0  0  0  0  0  0  0  0  0  0  0  0
  192.7540  176.5040  139.3570 C   0  0  0  0  0  3  0  0  0  0  0  0
  190.8490  177.0390  140.7980 O   0  0  0  0  0  0  0  0  0  0  0  0
  186.3430  177.3120  143.1910 N   0  0  0  0  0  0  0  0  0  0  0  0
  192.4390  176.5290  136.9550 C   0  0  0  0  0  3  0  0  0  0  0  0
  184.9060  179.1280  142.6070 N   0  0  0  0  0  2  0  0  0  0  0  0
  186.1500  178.4260  142.5780 C   0  0  0  0  0  0  0  0  0  0  0  0
  191.4140  176.8730  139.5330 C   0  0  0  0  0  0  0  0  0  0  0  0
  189.2730  177.5660  138.6500 N   0  0  0  0  0  2  0  0  0  0  0  0
  193.2630  176.3280  138.0670 C   0  0  0  0  0  3  0  0  0  0  0  0
  188.0350  177.2360  138.0120 C   0  0  0  0  0  0  0  0  0  0  0  0
  186.7700  177.9490  138.3430 C   0  0  1  0  0  3  0  0  0  0  0  0
  185.7880  177.0670  137.6360 C   0  0  0  0  0  3  0  0  0  0  0  0
  186.3590  176.0590  137.0580 N   0  0  0  0  0  0  0  0  0  0  0  0
  187.7510  176.1470  137.3080 C   0  0  0  0  0  0  0  0  0  0  0  0
  186.5390  177.8900  139.7790 N   0  0  0  0  0  2  0  0  0  0  0  0
  191.5950  177.2990  141.9730 C   0  0  0  0  0  2  0  0  0  0  0  0
  188.6530  175.0770  136.9740 C   0  0  0  0  0  0  0  0  0  0  0  0
  189.3820  174.2190  136.7090 N   0  0  0  0  0  0  0  0  0  0  0  0
  183.6600  178.4740  142.9790 C   0  0  0  0  0  2  0  0  0  0  0  0
  182.5220  179.2130  142.4490 N   0  0  0  0  0  2  0  0  0  0  0  0
  181.8040  178.3560  141.5970 N   0  0  0  0  0  2  0  0  0  0  0  0
  182.4500  178.3200  140.2850 C   0  0  2  0  0  3  0  0  0  0  0  0
  181.6000  178.9660  139.1790 C   0  0  0  0  0  2  0  0  0  0  0  0
  182.1010  178.5290  137.8080 C   0  0  0  0  0  2  0  0  0  0  0  0
  180.9040  175.8300  139.4280 F   0  0  0  0  0  0  0  0  0  0  0  0
  182.1290  176.1910  138.8950 C   0  0  2  0  0  3  0  0  0  0  0  0
  182.9750  176.9130  139.9480 C   0  0  0  0  0  2  0  0  0  0  0  0
  181.9230  177.0180  137.6160 C   0  0  0  0  0  2  0  0  0  0  0  0
  191.4590  177.6940  144.4190 C   0  0  0  0  0  2  0  0  0  0  0  0
  191.9810  176.1980  146.3300 C   0  0  0  0  0  3  0  0  0  0  0  0
  191.6360  175.4180  147.2550 O   0  0  0  0  0  0  0  0  0  0  0  0
  191.0080  176.9140  145.5630 N   0  0  0  0  0  0  0  0  0  0  0  0
  189.5740  176.6910  145.7310 C   0  0  0  0  0  2  0  0  0  0  0  0
  188.6920  177.1360  148.0020 C   0  0  0  0  0  1  0  0  0  0  0  0
  188.9450  177.7420  146.6380 C   0  0  2  0  0  3  0  0  0  0  0  0
  187.6880  178.2070  146.0800 N   0  0  0  0  0  1  0  0  0  0  0  0
  2  6  1  0  0  0  0
  3  1  1  6  0  0  0
  3  7  1  0  0  0  0
  3 14  1  0  0  0  0
  4  5  1  0  0  0  0
  5 37  1  1  0  0  0
  6 16  1  0  0  0  0
  6 15  2  0  0  0  0
  7  4  1  1  0  0  0
  7  8  1  0  0  0  0
  8 11  1  0  0  0  0
  9 15  1  0  0  0  0
 10 24  1  0  0  0  0
 12  2  2  0  0  0  0
 12 17  1  0  0  0  0
 13 27  1  0  0  0  0
 14 13  1  0  0  0  0
 14 11  2  0  0  0  0
 15 10  1  0  0  0  0
 17  9  2  0  0  0  0
 18 19  1  0  0  0  0
 18 16  1  0  0  0  0
 19 20  1  6  0  0  0
 19 23  1  0  0  0  0
 21 22  1  0  0  0  0
 21 20  2  0  0  0  0
 22 18  2  0  0  0  0
 23  1  1  0  0  0  0
 24  5  1  0  0  0  0
 25 22  1  0  0  0  0
 26 25  3  0  0  0  0
 28 27  1  0  0  0  0
 29 28  1  0  0  0  0
 30 29  1  1  0  0  0
 31 30  1  0  0  0  0
 32 31  1  0  0  0  0
 34 33  1  1  0  0  0
 34 35  1  0  0  0  0
 35 30  1  0  0  0  0
 36 32  1  0  0  0  0
 36 34  1  0  0  0  0
 37 40  1  0  0  0  0
 38 39  2  0  0  0  0
 40 41  1  0  0  0  0
 40 38  1  0  0  0  0
 41 43  1  0  0  0  0
 43 42  1  1  0  0  0
 44 43  1  0  0  0  0
M  END
>  <MODEL>
7

>  <REMARK>
 VINA RESULT:      -6.8      2.647      5.314
  Name = 
  9 active torsions:
  status: ('A' for Active; 'I' for Inactive)
    1  A    between atoms: C_2  and  N_44
    2  A    between atoms: C_8  and  C_38
    3  A    between atoms: C_13  and  C_41
    4  A    between atoms: C_15  and  C_23
    5  A    between atoms: N_18  and  C_34
    6  A    between atoms: N_18  and  N_44
    7  A    between atoms: C_23  and  N_25
    8  A    between atoms: N_25  and  C_38
    9  A    between atoms: N_26  and  C_34
                            x       y       z     vdW  Elec       q    Type
                         _______ _______ _______ _____ _____    ______ ____

>  <TORSDO>
F 9

$$$$
=
 OpenBabel10232407583D

 44 48  0  0  1  0  0  0  0  0999 V2000
  186.4940  175.9940  137.4130 C   0  0  0  0  0  2  0  0  0  0  0  0
  181.9830  177.6850  140.2050 C   0  0  0  0  0  3  0  0  0  0  0  0
  187.8270  176.5410  137.9360 C   0  0  2  0  0  3  0  0  0  0  0  0
  188.2120  177.5480  140.2030 C   0  0  0  0  0  2  0  0  0  0  0  0
  187.9000  178.7130  141.1430 C   0  0  1  0  0  3  0  0  0  0  0  0
  183.3630  177.8040  140.0100 C   0  0  0  0  0  0  0  0  0  0  0  0
  187.6280  177.7850  138.8110 C   0  0  1  0  0  3  0  0  0  0  0  0
  188.3800  178.7840  138.1330 O   0  0  0  0  0  0  0  0  0  0  0  0
  183.5940  178.7910  142.2130 C   0  0  0  0  0  3  0  0  0  0  0  0
  185.5390  178.4420  140.7690 O   0  0  0  0  0  0  0  0  0  0  0  0
  188.9670  178.3230  136.9820 N   0  0  0  0  0  0  0  0  0  0  0  0
  181.4070  178.1410  141.3950 C   0  0  0  0  0  3  0  0  0  0  0  0
  189.1630  176.2860  135.7510 N   0  0  0  0  0  2  0  0  0  0  0  0
  188.6780  177.0780  136.8360 C   0  0  0  0  0  0  0  0  0  0  0  0
  184.1700  178.3450  141.0160 C   0  0  0  0  0  0  0  0  0  0  0  0
  184.0120  177.2460  138.8680 N   0  0  0  0  0  2  0  0  0  0  0  0
  182.2110  178.6910  142.3990 C   0  0  0  0  0  3  0  0  0  0  0  0
  183.6420  177.2830  137.4870 C   0  0  0  0  0  0  0  0  0  0  0  0
  184.4200  176.5520  136.4480 C   0  0  1  0  0  3  0  0  0  0  0  0
  183.8020  177.1290  135.2120 C   0  0  0  0  0  3  0  0  0  0  0  0
  182.8970  178.0150  135.4830 N   0  0  0  0  0  0  0  0  0  0  0  0
  182.8100  178.1300  136.8920 C   0  0  0  0  0  0  0  0  0  0  0  0
  185.8210  176.9410  136.5260 N   0  0  0  0  0  2  0  0  0  0  0  0
  186.5230  178.5560  141.7810 C   0  0  0  0  0  2  0  0  0  0  0  0
  182.0400  179.1680  137.5250 C   0  0  0  0  0  0  0  0  0  0  0  0
  181.4240  180.0060  138.0300 N   0  0  0  0  0  0  0  0  0  0  0  0
  189.6780  176.8840  134.5290 C   0  0  0  0  0  2  0  0  0  0  0  0
  191.0810  176.5360  134.3460 N   0  0  0  0  0  2  0  0  0  0  0  0
  191.2140  175.1490  134.5360 N   0  0  0  0  0  2  0  0  0  0  0  0
  192.5080  174.8650  135.1560 C   0  0  2  0  0  3  0  0  0  0  0  0
  192.4260  173.7890  136.2510 C   0  0  0  0  0  2  0  0  0  0  0  0
  193.6660  173.8420  137.1350 C   0  0  0  0  0  2  0  0  0  0  0  0
  191.9450  176.7100  137.5230 F   0  0  0  0  0  0  0  0  0  0  0  0
  193.2190  176.3810  137.0960 C   0  0  2  0  0  3  0  0  0  0  0  0
  193.2310  176.1550  135.5810 C   0  0  0  0  0  2  0  0  0  0  0  0
  193.7440  175.1740  137.8900 C   0  0  0  0  0  2  0  0  0  0  0  0
  188.9530  178.7670  142.2380 C   0  0  0  0  0  2  0  0  0  0  0  0
  190.1750  176.6070  142.2190 C   0  0  0  0  0  3  0  0  0  0  0  0
  190.3300  175.4160  142.5980 O   0  0  0  0  0  0  0  0  0  0  0  0
  189.1770  177.4470  142.8090 N   0  0  0  0  0  0  0  0  0  0  0  0
  188.2190  176.9400  143.7880 C   0  0  0  0  0  2  0  0  0  0  0  0
  189.0810  177.2920  146.0820 C   0  0  0  0  0  1  0  0  0  0  0  0
  188.1480  177.8340  145.0200 C   0  0  2  0  0  3  0  0  0  0  0  0
  186.7950  177.8690  145.5440 N   0  0  0  0  0  1  0  0  0  0  0  0
  2 12  1  0  0  0  0
  3  1  1  6  0  0  0
  3  7  1  0  0  0  0
  4  5  1  0  0  0  0
  5 24  1  0  0  0  0
  5 37  1  1  0  0  0
  6  2  2  0  0  0  0
  6 15  1  0  0  0  0
  7  4  1  1  0  0  0
  8  7  1  0  0  0  0
  9 17  1  0  0  0  0
 10 15  1  0  0  0  0
 10 24  1  0  0  0  0
 11  8  1  0  0  0  0
 12 17  2  0  0  0  0
 13 14  1  0  0  0  0
 14 11  2  0  0  0  0
 14  3  1  0  0  0  0
 15  9  2  0  0  0  0
 16  6  1  0  0  0  0
 18 16  1  0  0  0  0
 19 20  1  6  0  0  0
 19 23  1  0  0  0  0
 19 18  1  0  0  0  0
 20 21  2  0  0  0  0
 21 22  1  0  0  0  0
 22 18  2  0  0  0  0
 22 25  1  0  0  0  0
 23  1  1  0  0  0  0
 25 26  3  0  0  0  0
 27 13  1  0  0  0  0
 28 27  1  0  0  0  0
 28 29  1  0  0  0  0
 30 29  1  1  0  0  0
 30 35  1  0  0  0  0
 30 31  1  0  0  0  0
 31 32  1  0  0  0  0
 32 36  1  0  0  0  0
 34 33  1  1  0  0  0
 34 36  1  0  0  0  0
 35 34  1  0  0  0  0
 37 40  1  0  0  0  0
 38 39  2  0  0  0  0
 38 40  1  0  0  0  0
 40 41  1  0  0  0  0
 41 43  1  0  0  0  0
 43 44  1  0  0  0  0
 43 42  1  1  0  0  0
M  END
>  <MODEL>
8

>  <REMARK>
 VINA RESULT:      -6.5      3.212      7.340
  Name = 
  9 active torsions:
  status: ('A' for Active; 'I' for Inactive)
    1  A    between atoms: C_2  and  N_44
    2  A    between atoms: C_8  and  C_38
    3  A    between atoms: C_13  and  C_41
    4  A    between atoms: C_15  and  C_23
    5  A    between atoms: N_18  and  C_34
    6  A    between atoms: N_18  and  N_44
    7  A    between atoms: C_23  and  N_25
    8  A    between atoms: N_25  and  C_38
    9  A    between atoms: N_26  and  C_34
                            x       y       z     vdW  Elec       q    Type
                         _______ _______ _______ _____ _____    ______ ____

>  <TORSDO>
F 9

$$$$
=
 OpenBabel10232407583D

 44 48  0  0  1  0  0  0  0  0999 V2000
  188.6030  178.3860  138.2680 C   0  0  0  0  0  2  0  0  0  0  0  0
  185.9120  179.2580  143.0640 C   0  0  0  0  0  3  0  0  0  0  0  0
  187.7660  177.7380  137.1600 C   0  0  2  0  0  3  0  0  0  0  0  0
  185.2590  177.6330  137.0850 C   0  0  0  0  0  2  0  0  0  0  0  0
  183.9930  177.0650  137.7290 C   0  0  1  0  0  3  0  0  0  0  0  0
  185.8900  178.6900  141.7850 C   0  0  0  0  0  0  0  0  0  0  0  0
  186.5180  177.0440  137.7210 C   0  0  1  0  0  3  0  0  0  0  0  0
  186.6830  175.6920  137.3090 O   0  0  0  0  0  0  0  0  0  0  0  0
  183.4670  178.6210  141.8520 C   0  0  0  0  0  3  0  0  0  0  0  0
  184.7060  177.8180  139.9000 O   0  0  0  0  0  0  0  0  0  0  0  0
  187.8490  175.4820  136.6170 N   0  0  0  0  0  0  0  0  0  0  0  0
  184.7110  179.4840  143.7440 C   0  0  0  0  0  3  0  0  0  0  0  0
  189.7210  176.7330  135.8210 N   0  0  0  0  0  2  0  0  0  0  0  0
  188.4810  176.5980  136.5170 C   0  0  0  0  0  0  0  0  0  0  0  0
  184.6710  178.3830  141.1750 C   0  0  0  0  0  0  0  0  0  0  0  0
  187.0770  178.5520  141.0040 N   0  0  0  0  0  2  0  0  0  0  0  0
  183.4910  179.1680  143.1390 C   0  0  0  0  0  3  0  0  0  0  0  0
  188.3770  178.0830  141.3760 C   0  0  0  0  0  0  0  0  0  0  0  0
  189.5170  178.1000  140.4190 C   0  0  1  0  0  3  0  0  0  0  0  0
  190.5090  177.2850  141.1890 C   0  0  0  0  0  3  0  0  0  0  0  0
  190.0320  176.8670  142.3170 N   0  0  0  0  0  0  0  0  0  0  0  0
  188.7010  177.3410  142.4280 C   0  0  0  0  0  0  0  0  0  0  0  0
  189.1420  177.3970  139.2000 N   0  0  0  0  0  2  0  0  0  0  0  0
  183.6210  177.8380  138.9910 C   0  0  0  0  0  2  0  0  0  0  0  0
  187.8180  176.8940  143.4720 C   0  0  0  0  0  0  0  0  0  0  0  0
  187.1080  176.5380  144.3130 N   0  0  0  0  0  0  0  0  0  0  0  0
  190.5640  175.5870  135.5170 C   0  0  0  0  0  2  0  0  0  0  0  0
  191.7370  175.5770  136.3820 N   0  0  0  0  0  2  0  0  0  0  0  0
  192.8730  175.7760  135.5780 N   0  0  0  0  0  2  0  0  0  0  0  0
  193.8010  174.6600  135.7610 C   0  0  2  0  0  3  0  0  0  0  0  0
  193.1390  173.4270  136.3970 C   0  0  0  0  0  2  0  0  0  0  0  0
  194.2030  172.4860  136.9510 C   0  0  0  0  0  2  0  0  0  0  0  0
  194.3070  175.3690  138.6880 F   0  0  0  0  0  0  0  0  0  0  0  0
  195.2030  174.6620  137.9070 C   0  0  2  0  0  3  0  0  0  0  0  0
  195.1040  175.1100  136.4450 C   0  0  0  0  0  2  0  0  0  0  0  0
  194.9830  173.1520  138.0900 C   0  0  0  0  0  2  0  0  0  0  0  0
  182.8460  177.1510  136.7360 C   0  0  0  0  0  2  0  0  0  0  0  0
  180.9070  175.8160  135.9500 C   0  0  0  0  0  3  0  0  0  0  0  0
  180.2390  174.7500  135.9030 O   0  0  0  0  0  0  0  0  0  0  0  0
  182.1840  175.8620  136.5940 N   0  0  0  0  0  0  0  0  0  0  0  0
  182.7230  174.7180  137.3260 C   0  0  0  0  0  2  0  0  0  0  0  0
  184.3870  172.8900  137.1880 C   0  0  0  0  0  1  0  0  0  0  0  0
  183.4080  173.7270  136.3940 C   0  0  2  0  0  3  0  0  0  0  0  0
  184.1210  174.4310  135.3430 N   0  0  0  0  0  1  0  0  0  0  0  0
  1 23  1  0  0  0  0
  2 12  1  0  0  0  0
  3  7  1  0  0  0  0
  3  1  1  1  0  0  0
  4  5  1  0  0  0  0
  5 37  1  6  0  0  0
  5 24  1  0  0  0  0
  6  2  2  0  0  0  0
  7  4  1  6  0  0  0
  8  7  1  0  0  0  0
  9 17  1  0  0  0  0
 10 15  1  0  0  0  0
 11  8  1  0  0  0  0
 13 14  1  0  0  0  0
 14 11  2  0  0  0  0
 14  3  1  0  0  0  0
 15  6  1  0  0  0  0
 15  9  2  0  0  0  0
 16 18  1  0  0  0  0
 16  6  1  0  0  0  0
 17 12  2  0  0  0  0
 18 22  2  0  0  0  0
 19 20  1  1  0  0  0
 19 18  1  0  0  0  0
 20 21  2  0  0  0  0
 21 22  1  0  0  0  0
 22 25  1  0  0  0  0
 23 19  1  0  0  0  0
 24 10  1  0  0  0  0
 25 26  3  0  0  0  0
 27 13  1  0  0  0  0
 27 28  1  0  0  0  0
 29 28  1  0  0  0  0
 30 29  1  1  0  0  0
 30 31  1  0  0  0  0
 30 35  1  0  0  0  0
 31 32  1  0  0  0  0
 32 36  1  0  0  0  0
 34 36  1  0  0  0  0
 34 33  1  1  0  0  0
 35 34  1  0  0  0  0
 38 40  1  0  0  0  0
 39 38  2  0  0  0  0
 40 37  1  0  0  0  0
 40 41  1  0  0  0  0
 43 42  1  1  0  0  0
 43 41  1  0  0  0  0
 44 43  1  0  0  0  0
M  END
>  <MODEL>
9

>  <REMARK>
 VINA RESULT:      -6.4      3.807      9.430
  Name = 
  9 active torsions:
  status: ('A' for Active; 'I' for Inactive)
    1  A    between atoms: C_2  and  N_44
    2  A    between atoms: C_8  and  C_38
    3  A    between atoms: C_13  and  C_41
    4  A    between atoms: C_15  and  C_23
    5  A    between atoms: N_18  and  C_34
    6  A    between atoms: N_18  and  N_44
    7  A    between atoms: C_23  and  N_25
    8  A    between atoms: N_25  and  C_38
    9  A    between atoms: N_26  and  C_34
                            x       y       z     vdW  Elec       q    Type
                         _______ _______ _______ _____ _____    ______ ____

>  <TORSDO>
F 9

$$$$
