=
 OpenBabel10232412413D

 37 39  0  0  1  0  0  0  0  0999 V2000
  189.9800  175.6910  142.9060 C   0  0  0  0  0  1  0  0  0  0  0  0
  190.0350  177.2220  142.7930 C   0  0  1  0  0  0  0  0  0  0  0  0
  188.6070  177.8240  142.7840 C   0  0  1  0  0  3  0  0  0  0  0  0
  188.1630  178.6230  141.2010 S   0  0  0  0  0  1  0  0  0  0  0  0
  187.5340  176.8000  143.1450 C   0  0  0  0  0  2  0  0  0  0  0  0
  186.8950  177.1570  144.4750 C   0  0  0  0  0  2  0  0  0  0  0  0
  180.0280  178.2740  143.1890 N   0  0  0  0  0  0  0  0  0  0  0  0
  181.9860  178.6230  142.2390 C   0  0  0  0  0  0  0  0  0  0  0  0
  185.6880  177.9980  144.2520 C   0  0  0  0  0  0  0  0  0  0  0  0
  183.1630  178.6490  141.6390 C   0  0  0  0  0  2  0  0  0  0  0  0
  180.1370  177.6760  140.7360 C   0  0  0  0  0  1  0  0  0  0  0  0
  185.2710  178.2330  142.9940 C   0  0  0  0  0  3  0  0  0  0  0  0
  183.2250  179.2560  143.9290 C   0  0  2  0  0  3  0  0  0  0  0  0
  184.1150  179.1600  142.7130 C   0  0  2  0  0  3  0  0  0  0  0  0
  180.7010  178.2060  142.0070 C   0  0  0  0  0  0  0  0  0  0  0  0
  183.7460  179.1080  145.2890 C   0  0  0  0  0  3  0  0  0  0  0  0
  180.8700  178.7120  144.0960 O   0  0  0  0  0  0  0  0  0  0  0  0
  182.0240  178.9330  143.5230 C   0  0  0  0  0  0  0  0  0  0  0  0
  184.9440  178.5270  145.4270 C   0  0  0  0  0  3  0  0  0  0  0  0
  190.7690  177.7710  144.0290 C   0  0  0  0  0  2  0  0  0  0  0  0
  191.7540  176.5820  145.9850 C   0  0  0  0  0  1  0  0  0  0  0  0
  190.4600  177.0130  145.3160 C   0  0  1  0  0  3  0  0  0  0  0  0
  189.6750  177.9200  146.2500 C   0  0  0  0  0  2  0  0  0  0  0  0
  188.5750  177.8980  148.3750 O   0  0  0  0  0  1  0  0  0  0  0  0
  189.6470  177.3590  147.6630 C   0  0  0  0  0  2  0  0  0  0  0  0
  190.7750  177.6660  141.6010 N   0  0  0  0  0  2  0  0  0  0  0  0
  192.1240  177.2740  141.6720 N   0  0  0  0  0  2  0  0  0  0  0  0
  192.6410  177.2970  140.3130 C   0  0  0  0  0  2  0  0  0  0  0  0
  191.8260  176.1920  138.2360 C   0  0  0  0  0  3  0  0  0  0  0  0
  191.5700  176.8770  139.3560 C   0  0  0  0  0  3  0  0  0  0  0  0
  193.2110  175.7850  137.8150 C   0  0  2  0  0  3  0  0  0  0  0  0
  194.8430  176.7260  136.3280 O   0  0  0  0  0  1  0  0  0  0  0  0
  193.5300  176.2580  136.4000 C   0  0  0  0  0  2  0  0  0  0  0  0
  193.3860  174.3720  137.9320 O   0  0  0  0  0  0  0  0  0  0  0  0
  195.4490  174.1670  138.9680 O   0  0  0  0  0  0  0  0  0  0  0  0
  194.9500  172.6020  137.3320 N   0  0  0  0  0  1  0  0  0  0  0  0
  194.6230  173.7410  138.1170 C   0  0  0  0  0  0  0  0  0  0  0  0
  2  1  1  1  0  0  0
  2 20  1  0  0  0  0
  3  4  1  6  0  0  0
  3  2  1  0  0  0  0
  3  5  1  0  0  0  0
  5  6  1  0  0  0  0
  7 17  1  0  0  0  0
  8 18  2  0  0  0  0
  9  6  1  0  0  0  0
  9 19  1  0  0  0  0
 10  8  1  0  0  0  0
 11 15  1  0  0  0  0
 12  9  2  0  0  0  0
 13 16  1  1  0  0  0
 14 10  1  6  0  0  0
 14 12  1  0  0  0  0
 14 13  1  0  0  0  0
 15  8  1  0  0  0  0
 15  7  2  0  0  0  0
 16 19  2  0  0  0  0
 18 13  1  0  0  0  0
 18 17  1  0  0  0  0
 20 22  1  0  0  0  0
 22 21  1  1  0  0  0
 22 23  1  0  0  0  0
 23 25  1  0  0  0  0
 25 24  1  0  0  0  0
 26 27  1  0  0  0  0
 26  2  1  0  0  0  0
 28 27  1  0  0  0  0
 29 30  2  0  0  0  0
 30 28  1  0  0  0  0
 31 33  1  6  0  0  0
 31 34  1  0  0  0  0
 31 29  1  0  0  0  0
 32 33  1  0  0  0  0
 34 37  1  0  0  0  0
 36 37  1  0  0  0  0
 37 35  2  0  0  0  0
M  END
>  <MODEL>
1

>  <REMARK>
 VINA RESULT:      -7.6      0.000      0.000
  Name = 
  16 active torsions:
  status: ('A' for Active; 'I' for Inactive)
    1  A    between atoms: C_2  and  N_6
    2  A    between atoms: C_2  and  C_20
    3  A    between atoms: C_3  and  C_4
    4  A    between atoms: C_4  and  O_10
    5  A    between atoms: C_4  and  C_27
    6  A    between atoms: N_6  and  N_14
    7  A    between atoms: C_8  and  C_15
    8  A    between atoms: C_8  and  C_17
    9  A    between atoms: O_10  and  C_33
   10  A    between atoms: C_11  and  C_29
   11  A    between atoms: C_11  and  C_36
   12  A    between atoms: C_13  and  C_15
   13  A    between atoms: C_13  and  C_16
   14  A    between atoms: N_14  and  C_17
   15  A    between atoms: C_17  and  C_19
   16  A    between atoms: C_19  and  C_29
                            x       y       z     vdW  Elec       q    Type
                         _______ _______ _______ _____ _____    ______ ____

>  <TORSDO>
F 16

$$$$
=
 OpenBabel10232412413D

 37 39  0  0  1  0  0  0  0  0999 V2000
  188.7190  175.7980  143.3090 C   0  0  0  0  0  1  0  0  0  0  0  0
  188.4930  177.2330  143.8100 C   0  0  1  0  0  0  0  0  0  0  0  0
  187.0730  177.3890  144.4080 C   0  0  1  0  0  3  0  0  0  0  0  0
  187.0730  177.8090  146.1870 S   0  0  0  0  0  1  0  0  0  0  0  0
  186.2250  178.4090  143.6530 C   0  0  0  0  0  2  0  0  0  0  0  0
  184.8590  178.5410  144.3010 C   0  0  0  0  0  2  0  0  0  0  0  0
  179.9820  176.0310  139.8320 N   0  0  0  0  0  0  0  0  0  0  0  0
  181.9180  177.0830  139.7770 C   0  0  0  0  0  0  0  0  0  0  0  0
  183.8070  178.6570  143.2550 C   0  0  0  0  0  0  0  0  0  0  0  0
  183.1540  177.5510  139.7940 C   0  0  0  0  0  2  0  0  0  0  0  0
  181.6350  175.1200  138.1520 C   0  0  0  0  0  1  0  0  0  0  0  0
  184.1290  178.4330  141.9680 C   0  0  0  0  0  3  0  0  0  0  0  0
  181.7220  178.5220  141.4150 C   0  0  2  0  0  3  0  0  0  0  0  0
  183.1230  178.6370  140.8630 C   0  0  2  0  0  3  0  0  0  0  0  0
  181.1880  176.0740  139.2020 C   0  0  0  0  0  0  0  0  0  0  0  0
  181.3960  178.8870  142.7940 C   0  0  0  0  0  3  0  0  0  0  0  0
  179.9830  176.9720  140.7490 O   0  0  0  0  0  0  0  0  0  0  0  0
  181.1270  177.6020  140.6990 C   0  0  0  0  0  0  0  0  0  0  0  0
  182.4110  178.9760  143.6620 C   0  0  0  0  0  3  0  0  0  0  0  0
  189.5100  177.5190  144.9290 C   0  0  0  0  0  2  0  0  0  0  0  0
  191.6630  178.5910  144.2760 C   0  0  0  0  0  1  0  0  0  0  0  0
  190.9590  177.2680  144.5230 C   0  0  1  0  0  3  0  0  0  0  0  0
  191.6620  176.5120  145.6390 C   0  0  0  0  0  2  0  0  0  0  0  0
  192.0310  176.8890  147.9730 O   0  0  0  0  0  1  0  0  0  0  0  0
  191.0430  176.8280  146.9900 C   0  0  0  0  0  2  0  0  0  0  0  0
  188.7050  178.2320  142.7500 N   0  0  0  0  0  2  0  0  0  0  0  0
  189.0190  177.6110  141.5280 N   0  0  0  0  0  2  0  0  0  0  0  0
  188.7320  178.5750  140.4790 C   0  0  0  0  0  2  0  0  0  0  0  0
  187.3450  177.7700  138.5750 C   0  0  0  0  0  3  0  0  0  0  0  0
  187.4290  178.2400  139.8240 C   0  0  0  0  0  3  0  0  0  0  0  0
  188.5430  177.5460  137.6940 C   0  0  2  0  0  3  0  0  0  0  0  0
  187.5450  179.4650  136.6540 O   0  0  0  0  0  1  0  0  0  0  0  0
  188.5960  178.5520  136.5480 C   0  0  0  0  0  2  0  0  0  0  0  0
  188.5670  176.2060  137.1970 O   0  0  0  0  0  0  0  0  0  0  0  0
  189.6720  174.2040  136.8220 O   0  0  0  0  0  0  0  0  0  0  0  0
  190.5310  175.5650  138.4900 N   0  0  0  0  0  1  0  0  0  0  0  0
  189.5840  175.2810  137.4690 C   0  0  0  0  0  0  0  0  0  0  0  0
  2  1  1  6  0  0  0
  2  3  1  0  0  0  0
  2 20  1  0  0  0  0
  3  4  1  1  0  0  0
  5  6  1  0  0  0  0
  5  3  1  0  0  0  0
  7 17  1  0  0  0  0
  8 10  1  0  0  0  0
  8 18  2  0  0  0  0
  9 19  1  0  0  0  0
  9  6  1  0  0  0  0
 11 15  1  0  0  0  0
 12  9  2  0  0  0  0
 13 16  1  1  0  0  0
 14 10  1  6  0  0  0
 14 13  1  0  0  0  0
 14 12  1  0  0  0  0
 15  8  1  0  0  0  0
 15  7  2  0  0  0  0
 16 19  2  0  0  0  0
 18 17  1  0  0  0  0
 18 13  1  0  0  0  0
 22 21  1  1  0  0  0
 22 20  1  0  0  0  0
 22 23  1  0  0  0  0
 23 25  1  0  0  0  0
 25 24  1  0  0  0  0
 26  2  1  0  0  0  0
 27 26  1  0  0  0  0
 28 27  1  0  0  0  0
 29 30  2  0  0  0  0
 30 28  1  0  0  0  0
 31 33  1  6  0  0  0
 31 29  1  0  0  0  0
 33 32  1  0  0  0  0
 34 37  1  0  0  0  0
 34 31  1  0  0  0  0
 35 37  2  0  0  0  0
 37 36  1  0  0  0  0
M  END
>  <MODEL>
2

>  <REMARK>
 VINA RESULT:      -7.4      2.935      3.745
  Name = 
  16 active torsions:
  status: ('A' for Active; 'I' for Inactive)
    1  A    between atoms: C_2  and  N_6
    2  A    between atoms: C_2  and  C_20
    3  A    between atoms: C_3  and  C_4
    4  A    between atoms: C_4  and  O_10
    5  A    between atoms: C_4  and  C_27
    6  A    between atoms: N_6  and  N_14
    7  A    between atoms: C_8  and  C_15
    8  A    between atoms: C_8  and  C_17
    9  A    between atoms: O_10  and  C_33
   10  A    between atoms: C_11  and  C_29
   11  A    between atoms: C_11  and  C_36
   12  A    between atoms: C_13  and  C_15
   13  A    between atoms: C_13  and  C_16
   14  A    between atoms: N_14  and  C_17
   15  A    between atoms: C_17  and  C_19
   16  A    between atoms: C_19  and  C_29
                            x       y       z     vdW  Elec       q    Type
                         _______ _______ _______ _____ _____    ______ ____

>  <TORSDO>
F 16

$$$$
=
 OpenBabel10232412413D

 37 39  0  0  1  0  0  0  0  0999 V2000
  188.3850  175.9730  143.4180 C   0  0  0  0  0  1  0  0  0  0  0  0
  188.1390  177.4290  143.8400 C   0  0  1  0  0  0  0  0  0  0  0  0
  186.8440  177.5460  144.6810 C   0  0  1  0  0  3  0  0  0  0  0  0
  187.1500  177.6620  146.4800 S   0  0  0  0  0  1  0  0  0  0  0  0
  185.9630  178.7150  144.2470 C   0  0  0  0  0  2  0  0  0  0  0  0
  184.5320  178.4930  144.7040 C   0  0  0  0  0  2  0  0  0  0  0  0
  180.0320  176.1900  139.7530 N   0  0  0  0  0  0  0  0  0  0  0  0
  182.0100  177.1530  139.8990 C   0  0  0  0  0  0  0  0  0  0  0  0
  183.6000  178.6530  143.5550 C   0  0  0  0  0  0  0  0  0  0  0  0
  183.2570  177.5650  140.0440 C   0  0  0  0  0  2  0  0  0  0  0  0
  181.8060  175.1980  138.2520 C   0  0  0  0  0  1  0  0  0  0  0  0
  184.0420  178.4100  142.3070 C   0  0  0  0  0  3  0  0  0  0  0  0
  181.7110  178.6060  141.5100 C   0  0  2  0  0  3  0  0  0  0  0  0
  183.1660  178.6550  141.1050 C   0  0  2  0  0  3  0  0  0  0  0  0
  181.2980  176.1760  139.2520 C   0  0  0  0  0  0  0  0  0  0  0  0
  181.2620  178.9910  142.8480 C   0  0  0  0  0  3  0  0  0  0  0  0
  179.9820  177.1340  140.6660 O   0  0  0  0  0  0  0  0  0  0  0  0
  181.1530  177.7110  140.7350 C   0  0  0  0  0  0  0  0  0  0  0  0
  182.1860  179.0360  143.8160 C   0  0  0  0  0  3  0  0  0  0  0  0
  189.3160  177.8830  144.7210 C   0  0  0  0  0  2  0  0  0  0  0  0
  191.3990  178.8930  143.7970 C   0  0  0  0  0  1  0  0  0  0  0  0
  190.6860  177.5900  144.1170 C   0  0  1  0  0  3  0  0  0  0  0  0
  191.5060  176.7860  145.1130 C   0  0  0  0  0  2  0  0  0  0  0  0
  191.9050  176.8270  147.4730 O   0  0  0  0  0  1  0  0  0  0  0  0
  190.9000  176.8580  146.5060 C   0  0  0  0  0  2  0  0  0  0  0  0
  188.0720  178.3400  142.6850 N   0  0  0  0  0  2  0  0  0  0  0  0
  187.8500  177.6260  141.4940 N   0  0  0  0  0  2  0  0  0  0  0  0
  188.6490  178.2670  140.4630 C   0  0  0  0  0  2  0  0  0  0  0  0
  190.3720  176.8110  139.4100 C   0  0  0  0  0  3  0  0  0  0  0  0
  190.0020  177.6310  140.3990 C   0  0  0  0  0  3  0  0  0  0  0  0
  189.4680  176.4300  138.2710 C   0  0  2  0  0  3  0  0  0  0  0  0
  191.1190  175.5750  136.7540 O   0  0  0  0  0  1  0  0  0  0  0  0
  190.0000  175.2200  137.5090 C   0  0  0  0  0  2  0  0  0  0  0  0
  189.2620  177.5370  137.3900 O   0  0  0  0  0  0  0  0  0  0  0  0
  187.0210  177.2960  136.8510 O   0  0  0  0  0  0  0  0  0  0  0  0
  187.8380  179.4630  136.9430 N   0  0  0  0  0  1  0  0  0  0  0  0
  188.0050  178.0560  137.0540 C   0  0  0  0  0  0  0  0  0  0  0  0
  2  1  1  6  0  0  0
  2  3  1  0  0  0  0
  2 20  1  0  0  0  0
  3  4  1  1  0  0  0
  5  3  1  0  0  0  0
  5  6  1  0  0  0  0
  7 17  1  0  0  0  0
  8 10  1  0  0  0  0
  8 18  2  0  0  0  0
  9 19  1  0  0  0  0
  9  6  1  0  0  0  0
 11 15  1  0  0  0  0
 12  9  2  0  0  0  0
 13 16  1  1  0  0  0
 14 10  1  6  0  0  0
 14 13  1  0  0  0  0
 14 12  1  0  0  0  0
 15  7  2  0  0  0  0
 15  8  1  0  0  0  0
 16 19  2  0  0  0  0
 17 18  1  0  0  0  0
 18 13  1  0  0  0  0
 22 21  1  1  0  0  0
 22 20  1  0  0  0  0
 22 23  1  0  0  0  0
 23 25  1  0  0  0  0
 25 24  1  0  0  0  0
 26  2  1  0  0  0  0
 27 26  1  0  0  0  0
 28 27  1  0  0  0  0
 29 30  2  0  0  0  0
 30 28  1  0  0  0  0
 31 33  1  6  0  0  0
 31 29  1  0  0  0  0
 32 33  1  0  0  0  0
 34 31  1  0  0  0  0
 35 37  2  0  0  0  0
 36 37  1  0  0  0  0
 37 34  1  0  0  0  0
M  END
>  <MODEL>
3

>  <REMARK>
 VINA RESULT:      -7.4      2.983      3.989
  Name = 
  16 active torsions:
  status: ('A' for Active; 'I' for Inactive)
    1  A    between atoms: C_2  and  N_6
    2  A    between atoms: C_2  and  C_20
    3  A    between atoms: C_3  and  C_4
    4  A    between atoms: C_4  and  O_10
    5  A    between atoms: C_4  and  C_27
    6  A    between atoms: N_6  and  N_14
    7  A    between atoms: C_8  and  C_15
    8  A    between atoms: C_8  and  C_17
    9  A    between atoms: O_10  and  C_33
   10  A    between atoms: C_11  and  C_29
   11  A    between atoms: C_11  and  C_36
   12  A    between atoms: C_13  and  C_15
   13  A    between atoms: C_13  and  C_16
   14  A    between atoms: N_14  and  C_17
   15  A    between atoms: C_17  and  C_19
   16  A    between atoms: C_19  and  C_29
                            x       y       z     vdW  Elec       q    Type
                         _______ _______ _______ _____ _____    ______ ____

>  <TORSDO>
F 16

$$$$
=
 OpenBabel10232412413D

 37 39  0  0  1  0  0  0  0  0999 V2000
  189.7010  177.4020  136.8800 C   0  0  0  0  0  1  0  0  0  0  0  0
  189.3160  176.2480  137.8170 C   0  0  1  0  0  0  0  0  0  0  0  0
  189.1900  176.7450  139.2790 C   0  0  1  0  0  3  0  0  0  0  0  0
  190.7840  177.2500  140.0180 S   0  0  0  0  0  1  0  0  0  0  0  0
  188.1860  177.8840  139.4290 C   0  0  0  0  0  2  0  0  0  0  0  0
  188.4970  178.7010  140.6690 C   0  0  0  0  0  2  0  0  0  0  0  0
  185.6880  179.2700  147.1380 N   0  0  0  0  0  0  0  0  0  0  0  0
  186.9050  177.8590  145.9610 C   0  0  0  0  0  0  0  0  0  0  0  0
  187.5900  178.3070  141.7810 C   0  0  0  0  0  0  0  0  0  0  0  0
  187.7740  177.1360  145.2760 C   0  0  0  0  0  2  0  0  0  0  0  0
  187.6880  178.3240  148.3580 C   0  0  0  0  0  1  0  0  0  0  0  0
  188.0680  177.5540  142.7880 C   0  0  0  0  0  3  0  0  0  0  0  0
  185.9440  177.9310  143.9950 C   0  0  2  0  0  3  0  0  0  0  0  0
  187.1630  177.0460  143.8830 C   0  0  2  0  0  3  0  0  0  0  0  0
  186.7740  178.4520  147.1910 C   0  0  0  0  0  0  0  0  0  0  0  0
  185.3900  178.6420  142.8430 C   0  0  0  0  0  3  0  0  0  0  0  0
  185.1840  179.1780  145.9280 O   0  0  0  0  0  0  0  0  0  0  0  0
  185.9010  178.3270  145.2410 C   0  0  0  0  0  0  0  0  0  0  0  0
  186.1820  178.7920  141.7750 C   0  0  0  0  0  3  0  0  0  0  0  0
  187.9420  175.7100  137.3830 C   0  0  0  0  0  2  0  0  0  0  0  0
  187.8500  174.5220  135.1930 C   0  0  0  0  0  1  0  0  0  0  0  0
  187.6670  175.8600  135.8890 C   0  0  1  0  0  3  0  0  0  0  0  0
  186.2410  176.3510  135.6950 C   0  0  0  0  0  2  0  0  0  0  0  0
  184.1430  176.4340  136.8440 O   0  0  0  0  0  1  0  0  0  0  0  0
  185.5250  176.4960  137.0280 C   0  0  0  0  0  2  0  0  0  0  0  0
  190.2730  175.1310  137.7480 N   0  0  0  0  0  2  0  0  0  0  0  0
  191.3960  175.4780  136.9740 N   0  0  0  0  0  2  0  0  0  0  0  0
  192.4780  174.6000  137.3850 C   0  0  0  0  0  2  0  0  0  0  0  0
  194.3140  174.0600  135.7910 C   0  0  0  0  0  3  0  0  0  0  0  0
  193.0470  173.9010  136.1900 C   0  0  0  0  0  3  0  0  0  0  0  0
  195.2920  174.9660  136.4870 C   0  0  2  0  0  3  0  0  0  0  0  0
  197.2310  176.3390  136.1570 O   0  0  0  0  0  1  0  0  0  0  0  0
  196.1770  175.7090  135.4930 C   0  0  0  0  0  2  0  0  0  0  0  0
  196.0820  174.2350  137.4280 O   0  0  0  0  0  0  0  0  0  0  0  0
  195.2420  172.9280  139.1470 O   0  0  0  0  0  0  0  0  0  0  0  0
  195.9160  175.0740  139.7100 N   0  0  0  0  0  1  0  0  0  0  0  0
  195.7260  174.0270  138.7670 C   0  0  0  0  0  0  0  0  0  0  0  0
  2  1  1  6  0  0  0
  2  3  1  0  0  0  0
  3  5  1  0  0  0  0
  3  4  1  6  0  0  0
  5  6  1  0  0  0  0
  6  9  1  0  0  0  0
  7 15  2  0  0  0  0
  8 15  1  0  0  0  0
  9 12  2  0  0  0  0
 10  8  1  0  0  0  0
 13 16  1  6  0  0  0
 13 18  1  0  0  0  0
 14 12  1  6  0  0  0
 14 13  1  0  0  0  0
 14 10  1  0  0  0  0
 15 11  1  0  0  0  0
 17  7  1  0  0  0  0
 18 17  1  0  0  0  0
 18  8  2  0  0  0  0
 19  9  1  0  0  0  0
 19 16  2  0  0  0  0
 20  2  1  0  0  0  0
 22 21  1  6  0  0  0
 22 20  1  0  0  0  0
 23 22  1  0  0  0  0
 23 25  1  0  0  0  0
 24 25  1  0  0  0  0
 26  2  1  0  0  0  0
 27 28  1  0  0  0  0
 27 26  1  0  0  0  0
 29 30  2  0  0  0  0
 29 31  1  0  0  0  0
 30 28  1  0  0  0  0
 31 33  1  6  0  0  0
 31 34  1  0  0  0  0
 33 32  1  0  0  0  0
 34 37  1  0  0  0  0
 37 35  2  0  0  0  0
 37 36  1  0  0  0  0
M  END
>  <MODEL>
4

>  <REMARK>
 VINA RESULT:      -7.3      3.431      6.110
  Name = 
  16 active torsions:
  status: ('A' for Active; 'I' for Inactive)
    1  A    between atoms: C_2  and  N_6
    2  A    between atoms: C_2  and  C_20
    3  A    between atoms: C_3  and  C_4
    4  A    between atoms: C_4  and  O_10
    5  A    between atoms: C_4  and  C_27
    6  A    between atoms: N_6  and  N_14
    7  A    between atoms: C_8  and  C_15
    8  A    between atoms: C_8  and  C_17
    9  A    between atoms: O_10  and  C_33
   10  A    between atoms: C_11  and  C_29
   11  A    between atoms: C_11  and  C_36
   12  A    between atoms: C_13  and  C_15
   13  A    between atoms: C_13  and  C_16
   14  A    between atoms: N_14  and  C_17
   15  A    between atoms: C_17  and  C_19
   16  A    between atoms: C_19  and  C_29
                            x       y       z     vdW  Elec       q    Type
                         _______ _______ _______ _____ _____    ______ ____

>  <TORSDO>
F 16

$$$$
=
 OpenBabel10232412413D

 37 39  0  0  1  0  0  0  0  0999 V2000
  183.1390  180.2890  138.8240 C   0  0  0  0  0  1  0  0  0  0  0  0
  183.1280  178.9320  139.5450 C   0  0  1  0  0  0  0  0  0  0  0  0
  182.9330  179.1220  141.0700 C   0  0  1  0  0  3  0  0  0  0  0  0
  181.2400  178.7390  141.6430 S   0  0  0  0  0  1  0  0  0  0  0  0
  183.9340  178.3180  141.8960 C   0  0  0  0  0  2  0  0  0  0  0  0
  184.3820  179.1190  143.1050 C   0  0  0  0  0  2  0  0  0  0  0  0
  191.0100  177.8570  145.2360 N   0  0  0  0  0  0  0  0  0  0  0  0
  189.4320  176.9070  144.0260 C   0  0  0  0  0  0  0  0  0  0  0  0
  185.4380  178.3770  143.8450 C   0  0  0  0  0  0  0  0  0  0  0  0
  188.5240  176.4660  143.1720 C   0  0  0  0  0  2  0  0  0  0  0  0
  191.7970  176.8990  143.0340 C   0  0  0  0  0  1  0  0  0  0  0  0
  186.1930  177.4750  143.1910 C   0  0  0  0  0  3  0  0  0  0  0  0
  187.6280  177.3130  145.1970 C   0  0  2  0  0  3  0  0  0  0  0  0
  187.2060  176.6270  143.9190 C   0  0  2  0  0  3  0  0  0  0  0  0
  190.7750  177.1830  144.0770 C   0  0  0  0  0  0  0  0  0  0  0  0
  186.7300  178.1990  145.9380 C   0  0  0  0  0  3  0  0  0  0  0  0
  189.8590  177.9860  145.8570 O   0  0  0  0  0  0  0  0  0  0  0  0
  188.9320  177.4060  145.1420 C   0  0  0  0  0  0  0  0  0  0  0  0
  185.6660  178.6810  145.2840 C   0  0  0  0  0  3  0  0  0  0  0  0
  181.9360  178.1140  139.0170 C   0  0  0  0  0  2  0  0  0  0  0  0
  181.7860  175.6630  139.4440 C   0  0  0  0  0  1  0  0  0  0  0  0
  182.3200  176.7300  138.5020 C   0  0  1  0  0  3  0  0  0  0  0  0
  181.7300  176.5350  137.1150 C   0  0  0  0  0  2  0  0  0  0  0  0
  183.3250  177.4000  135.5540 O   0  0  0  0  0  1  0  0  0  0  0  0
  182.8150  176.2200  136.0980 C   0  0  0  0  0  2  0  0  0  0  0  0
  184.3500  178.1540  139.2870 N   0  0  0  0  0  2  0  0  0  0  0  0
  185.2560  178.8870  138.4990 N   0  0  0  0  0  2  0  0  0  0  0  0
  186.0070  177.9210  137.7130 C   0  0  0  0  0  2  0  0  0  0  0  0
  188.3610  178.4650  137.1100 C   0  0  0  0  0  3  0  0  0  0  0  0
  187.0490  178.6270  136.9030 C   0  0  0  0  0  3  0  0  0  0  0  0
  188.9250  177.5760  138.1830 C   0  0  2  0  0  3  0  0  0  0  0  0
  188.2250  178.4280  140.3140 O   0  0  0  0  0  1  0  0  0  0  0  0
  189.3040  178.3680  139.4300 C   0  0  0  0  0  2  0  0  0  0  0  0
  190.0420  176.8310  137.6930 O   0  0  0  0  0  0  0  0  0  0  0  0
  191.0850  174.8250  138.2010 O   0  0  0  0  0  0  0  0  0  0  0  0
  189.0720  174.6870  137.0610 N   0  0  0  0  0  1  0  0  0  0  0  0
  190.1140  175.4320  137.6770 C   0  0  0  0  0  0  0  0  0  0  0  0
  2  1  1  6  0  0  0
  2  3  1  0  0  0  0
  3  4  1  1  0  0  0
  3  5  1  0  0  0  0
  5  6  1  0  0  0  0
  6  9  1  0  0  0  0
  7 17  1  0  0  0  0
  8 15  1  0  0  0  0
  8 18  2  0  0  0  0
  9 19  1  0  0  0  0
 10  8  1  0  0  0  0
 11 15  1  0  0  0  0
 12  9  2  0  0  0  0
 12 14  1  0  0  0  0
 13 16  1  6  0  0  0
 14 10  1  6  0  0  0
 14 13  1  0  0  0  0
 15  7  2  0  0  0  0
 18 13  1  0  0  0  0
 18 17  1  0  0  0  0
 19 16  2  0  0  0  0
 20  2  1  0  0  0  0
 22 20  1  0  0  0  0
 22 21  1  1  0  0  0
 23 22  1  0  0  0  0
 24 25  1  0  0  0  0
 25 23  1  0  0  0  0
 26  2  1  0  0  0  0
 27 26  1  0  0  0  0
 28 27  1  0  0  0  0
 30 29  2  0  0  0  0
 30 28  1  0  0  0  0
 31 29  1  6  0  0  0
 31 33  1  0  0  0  0
 33 32  1  0  0  0  0
 34 31  1  0  0  0  0
 36 37  1  0  0  0  0
 37 34  1  0  0  0  0
 37 35  2  0  0  0  0
M  END
>  <MODEL>
5

>  <REMARK>
 VINA RESULT:      -7.3      3.773      7.755
  Name = 
  16 active torsions:
  status: ('A' for Active; 'I' for Inactive)
    1  A    between atoms: C_2  and  N_6
    2  A    between atoms: C_2  and  C_20
    3  A    between atoms: C_3  and  C_4
    4  A    between atoms: C_4  and  O_10
    5  A    between atoms: C_4  and  C_27
    6  A    between atoms: N_6  and  N_14
    7  A    between atoms: C_8  and  C_15
    8  A    between atoms: C_8  and  C_17
    9  A    between atoms: O_10  and  C_33
   10  A    between atoms: C_11  and  C_29
   11  A    between atoms: C_11  and  C_36
   12  A    between atoms: C_13  and  C_15
   13  A    between atoms: C_13  and  C_16
   14  A    between atoms: N_14  and  C_17
   15  A    between atoms: C_17  and  C_19
   16  A    between atoms: C_19  and  C_29
                            x       y       z     vdW  Elec       q    Type
                         _______ _______ _______ _____ _____    ______ ____

>  <TORSDO>
F 16

$$$$
=
 OpenBabel10232412413D

 37 39  0  0  1  0  0  0  0  0999 V2000
  188.2260  175.9350  143.3350 C   0  0  0  0  0  1  0  0  0  0  0  0
  187.9900  177.4210  143.6460 C   0  0  1  0  0  0  0  0  0  0  0  0
  186.6240  177.6260  144.3490 C   0  0  1  0  0  3  0  0  0  0  0  0
  186.7650  177.8840  146.1540 S   0  0  0  0  0  1  0  0  0  0  0  0
  185.8140  178.7670  143.7410 C   0  0  0  0  0  2  0  0  0  0  0  0
  184.3620  178.3540  143.5810 C   0  0  0  0  0  2  0  0  0  0  0  0
  182.7600  176.6680  136.8990 N   0  0  0  0  0  0  0  0  0  0  0  0
  184.2090  177.9020  138.0120 C   0  0  0  0  0  0  0  0  0  0  0  0
  183.9010  178.6410  142.1960 C   0  0  0  0  0  0  0  0  0  0  0  0
  185.1570  178.4810  138.7280 C   0  0  0  0  0  2  0  0  0  0  0  0
  185.1550  176.4520  136.1200 C   0  0  0  0  0  1  0  0  0  0  0  0
  184.8110  178.8230  141.2210 C   0  0  0  0  0  3  0  0  0  0  0  0
  182.9660  178.7940  139.5780 C   0  0  2  0  0  3  0  0  0  0  0  0
  184.3950  179.2140  139.8250 C   0  0  2  0  0  3  0  0  0  0  0  0
  184.0740  177.0190  136.9710 C   0  0  0  0  0  0  0  0  0  0  0  0
  181.9780  178.7210  140.6540 C   0  0  0  0  0  3  0  0  0  0  0  0
  182.1290  177.3090  137.8560 O   0  0  0  0  0  0  0  0  0  0  0  0
  182.9910  178.0510  138.5010 C   0  0  0  0  0  0  0  0  0  0  0  0
  182.4410  178.6760  141.9090 C   0  0  0  0  0  3  0  0  0  0  0  0
  189.0910  177.8940  144.6100 C   0  0  0  0  0  2  0  0  0  0  0  0
  191.2500  178.9800  143.9990 C   0  0  0  0  0  1  0  0  0  0  0  0
  190.5070  177.6580  144.0910 C   0  0  1  0  0  3  0  0  0  0  0  0
  191.2340  176.7230  145.0430 C   0  0  0  0  0  2  0  0  0  0  0  0
  190.5160  176.2780  147.2820 O   0  0  0  0  0  1  0  0  0  0  0  0
  191.1490  177.2240  146.4750 C   0  0  0  0  0  2  0  0  0  0  0  0
  188.0640  178.2610  142.4400 N   0  0  0  0  0  2  0  0  0  0  0  0
  188.1100  177.4700  141.2780 N   0  0  0  0  0  2  0  0  0  0  0  0
  189.0520  178.1060  140.3720 C   0  0  0  0  0  2  0  0  0  0  0  0
  190.8690  176.6830  139.4350 C   0  0  0  0  0  3  0  0  0  0  0  0
  190.3750  177.4100  140.4440 C   0  0  0  0  0  3  0  0  0  0  0  0
  190.1430  176.4760  138.1340 C   0  0  2  0  0  3  0  0  0  0  0  0
  189.8440  174.1660  137.5590 O   0  0  0  0  0  1  0  0  0  0  0  0
  190.6810  175.2680  137.3750 C   0  0  0  0  0  2  0  0  0  0  0  0
  190.2010  177.6530  137.3250 O   0  0  0  0  0  0  0  0  0  0  0  0
  188.5640  179.2890  137.1930 O   0  0  0  0  0  0  0  0  0  0  0  0
  188.5450  177.6670  135.5370 N   0  0  0  0  0  1  0  0  0  0  0  0
  189.0880  178.2480  136.7150 C   0  0  0  0  0  0  0  0  0  0  0  0
  2  1  1  6  0  0  0
  2  3  1  0  0  0  0
  2 20  1  0  0  0  0
  3  4  1  1  0  0  0
  5  3  1  0  0  0  0
  6  5  1  0  0  0  0
  7 15  2  0  0  0  0
  7 17  1  0  0  0  0
  8 18  2  0  0  0  0
  8 10  1  0  0  0  0
  9  6  1  0  0  0  0
 11 15  1  0  0  0  0
 12  9  2  0  0  0  0
 13 14  1  0  0  0  0
 13 16  1  1  0  0  0
 14 10  1  6  0  0  0
 14 12  1  0  0  0  0
 15  8  1  0  0  0  0
 16 19  2  0  0  0  0
 17 18  1  0  0  0  0
 18 13  1  0  0  0  0
 19  9  1  0  0  0  0
 22 21  1  1  0  0  0
 22 20  1  0  0  0  0
 22 23  1  0  0  0  0
 23 25  1  0  0  0  0
 25 24  1  0  0  0  0
 26  2  1  0  0  0  0
 27 26  1  0  0  0  0
 28 30  1  0  0  0  0
 28 27  1  0  0  0  0
 29 30  2  0  0  0  0
 31 33  1  6  0  0  0
 31 29  1  0  0  0  0
 33 32  1  0  0  0  0
 34 31  1  0  0  0  0
 36 37  1  0  0  0  0
 37 35  2  0  0  0  0
 37 34  1  0  0  0  0
M  END
>  <MODEL>
6

>  <REMARK>
 VINA RESULT:      -7.2      3.381      4.443
  Name = 
  16 active torsions:
  status: ('A' for Active; 'I' for Inactive)
    1  A    between atoms: C_2  and  N_6
    2  A    between atoms: C_2  and  C_20
    3  A    between atoms: C_3  and  C_4
    4  A    between atoms: C_4  and  O_10
    5  A    between atoms: C_4  and  C_27
    6  A    between atoms: N_6  and  N_14
    7  A    between atoms: C_8  and  C_15
    8  A    between atoms: C_8  and  C_17
    9  A    between atoms: O_10  and  C_33
   10  A    between atoms: C_11  and  C_29
   11  A    between atoms: C_11  and  C_36
   12  A    between atoms: C_13  and  C_15
   13  A    between atoms: C_13  and  C_16
   14  A    between atoms: N_14  and  C_17
   15  A    between atoms: C_17  and  C_19
   16  A    between atoms: C_19  and  C_29
                            x       y       z     vdW  Elec       q    Type
                         _______ _______ _______ _____ _____    ______ ____

>  <TORSDO>
F 16

$$$$
=
 OpenBabel10232412413D

 37 39  0  0  1  0  0  0  0  0999 V2000
  188.4440  175.3490  137.3070 C   0  0  0  0  0  1  0  0  0  0  0  0
  189.0070  176.7410  137.6320 C   0  0  1  0  0  0  0  0  0  0  0  0
  189.0240  176.9830  139.1630 C   0  0  1  0  0  3  0  0  0  0  0  0
  190.6870  177.3590  139.8230 S   0  0  0  0  0  1  0  0  0  0  0  0
  188.0540  178.0780  139.5960 C   0  0  0  0  0  2  0  0  0  0  0  0
  188.5300  178.7220  140.8860 C   0  0  0  0  0  2  0  0  0  0  0  0
  185.7770  179.1470  147.3900 N   0  0  0  0  0  0  0  0  0  0  0  0
  187.1460  177.8640  146.2330 C   0  0  0  0  0  0  0  0  0  0  0  0
  187.6990  178.2530  142.0270 C   0  0  0  0  0  0  0  0  0  0  0  0
  188.0890  177.2350  145.5540 C   0  0  0  0  0  2  0  0  0  0  0  0
  187.9020  178.5060  148.5980 C   0  0  0  0  0  1  0  0  0  0  0  0
  188.2860  177.6020  143.0480 C   0  0  0  0  0  3  0  0  0  0  0  0
  186.1520  177.7460  144.2860 C   0  0  2  0  0  3  0  0  0  0  0  0
  187.4730  177.0200  144.1770 C   0  0  2  0  0  3  0  0  0  0  0  0
  186.9610  178.4770  147.4460 C   0  0  0  0  0  0  0  0  0  0  0  0
  185.4920  178.3400  143.1240 C   0  0  0  0  0  3  0  0  0  0  0  0
  185.2700  178.9500  146.1940 O   0  0  0  0  0  0  0  0  0  0  0  0
  186.0790  178.1750  145.5200 C   0  0  0  0  0  0  0  0  0  0  0  0
  186.2410  178.5540  142.0350 C   0  0  0  0  0  3  0  0  0  0  0  0
  190.4590  176.8040  137.1290 C   0  0  0  0  0  2  0  0  0  0  0  0
  191.3160  175.7840  135.0220 C   0  0  0  0  0  1  0  0  0  0  0  0
  190.9390  175.5150  136.4690 C   0  0  1  0  0  3  0  0  0  0  0  0
  192.1470  174.9890  137.2270 C   0  0  0  0  0  2  0  0  0  0  0  0
  193.7850  176.6650  137.7150 O   0  0  0  0  0  1  0  0  0  0  0  0
  193.4200  175.6920  136.7830 C   0  0  0  0  0  2  0  0  0  0  0  0
  188.2560  177.8160  136.9630 N   0  0  0  0  0  2  0  0  0  0  0  0
  187.2980  177.2860  136.0800 N   0  0  0  0  0  2  0  0  0  0  0  0
  186.0510  177.9850  136.3430 C   0  0  0  0  0  2  0  0  0  0  0  0
  183.8000  176.9240  136.4130 C   0  0  0  0  0  3  0  0  0  0  0  0
  184.9090  177.2340  135.7340 C   0  0  0  0  0  3  0  0  0  0  0  0
  183.5900  177.2800  137.8590 C   0  0  2  0  0  3  0  0  0  0  0  0
  182.6200  176.5480  139.9290 O   0  0  0  0  0  1  0  0  0  0  0  0
  182.6810  176.2760  138.5610 C   0  0  0  0  0  2  0  0  0  0  0  0
  183.0770  178.6080  137.9870 O   0  0  0  0  0  0  0  0  0  0  0  0
  184.8660  179.4790  139.1750 O   0  0  0  0  0  0  0  0  0  0  0  0
  183.0350  180.8710  138.8920 N   0  0  0  0  0  1  0  0  0  0  0  0
  183.7090  179.6340  138.7010 C   0  0  0  0  0  0  0  0  0  0  0  0
  2  1  1  6  0  0  0
  2  3  1  0  0  0  0
  3  5  1  0  0  0  0
  3  4  1  6  0  0  0
  5  6  1  0  0  0  0
  6  9  1  0  0  0  0
  7 15  2  0  0  0  0
  8 15  1  0  0  0  0
  9 19  1  0  0  0  0
  9 12  2  0  0  0  0
 10  8  1  0  0  0  0
 13 16  1  6  0  0  0
 13 18  1  0  0  0  0
 14 12  1  6  0  0  0
 14 13  1  0  0  0  0
 14 10  1  0  0  0  0
 15 11  1  0  0  0  0
 17  7  1  0  0  0  0
 18 17  1  0  0  0  0
 18  8  2  0  0  0  0
 19 16  2  0  0  0  0
 20  2  1  0  0  0  0
 22 21  1  6  0  0  0
 22 20  1  0  0  0  0
 22 23  1  0  0  0  0
 25 23  1  0  0  0  0
 25 24  1  0  0  0  0
 26  2  1  0  0  0  0
 27 28  1  0  0  0  0
 27 26  1  0  0  0  0
 30 28  1  0  0  0  0
 30 29  2  0  0  0  0
 31 29  1  6  0  0  0
 31 34  1  0  0  0  0
 31 33  1  0  0  0  0
 33 32  1  0  0  0  0
 34 37  1  0  0  0  0
 37 36  1  0  0  0  0
 37 35  2  0  0  0  0
M  END
>  <MODEL>
7

>  <REMARK>
 VINA RESULT:      -6.9      3.774      8.159
  Name = 
  16 active torsions:
  status: ('A' for Active; 'I' for Inactive)
    1  A    between atoms: C_2  and  N_6
    2  A    between atoms: C_2  and  C_20
    3  A    between atoms: C_3  and  C_4
    4  A    between atoms: C_4  and  O_10
    5  A    between atoms: C_4  and  C_27
    6  A    between atoms: N_6  and  N_14
    7  A    between atoms: C_8  and  C_15
    8  A    between atoms: C_8  and  C_17
    9  A    between atoms: O_10  and  C_33
   10  A    between atoms: C_11  and  C_29
   11  A    between atoms: C_11  and  C_36
   12  A    between atoms: C_13  and  C_15
   13  A    between atoms: C_13  and  C_16
   14  A    between atoms: N_14  and  C_17
   15  A    between atoms: C_17  and  C_19
   16  A    between atoms: C_19  and  C_29
                            x       y       z     vdW  Elec       q    Type
                         _______ _______ _______ _____ _____    ______ ____

>  <TORSDO>
F 16

$$$$
=
 OpenBabel10232412413D

 37 39  0  0  1  0  0  0  0  0999 V2000
  189.4750  177.1220  135.9130 C   0  0  0  0  0  1  0  0  0  0  0  0
  189.6290  176.5410  137.3270 C   0  0  1  0  0  0  0  0  0  0  0  0
  189.5810  177.6650  138.3920 C   0  0  1  0  0  3  0  0  0  0  0  0
  188.9820  179.2640  137.7380 S   0  0  0  0  0  1  0  0  0  0  0  0
  188.7520  177.2810  139.6150 C   0  0  0  0  0  2  0  0  0  0  0  0
  188.5730  178.4820  140.5260 C   0  0  0  0  0  2  0  0  0  0  0  0
  185.7970  179.3030  146.9820 N   0  0  0  0  0  0  0  0  0  0  0  0
  186.9970  177.8410  145.8510 C   0  0  0  0  0  0  0  0  0  0  0  0
  187.6670  178.1360  141.6540 C   0  0  0  0  0  0  0  0  0  0  0  0
  187.8560  177.0860  145.1880 C   0  0  0  0  0  2  0  0  0  0  0  0
  187.7950  178.3830  148.2270 C   0  0  0  0  0  1  0  0  0  0  0  0
  188.1430  177.4140  142.6860 C   0  0  0  0  0  3  0  0  0  0  0  0
  186.0280  177.8530  143.8870 C   0  0  2  0  0  3  0  0  0  0  0  0
  187.2390  176.9530  143.8010 C   0  0  2  0  0  3  0  0  0  0  0  0
  186.8770  178.4780  147.0590 C   0  0  0  0  0  0  0  0  0  0  0  0
  185.4750  178.5280  142.7130 C   0  0  0  0  0  3  0  0  0  0  0  0
  185.2880  179.1730  145.7780 O   0  0  0  0  0  0  0  0  0  0  0  0
  185.9940  178.2930  145.1190 C   0  0  0  0  0  0  0  0  0  0  0  0
  186.2640  178.6320  141.6370 C   0  0  0  0  0  3  0  0  0  0  0  0
  188.4460  175.5920  137.5900 C   0  0  0  0  0  2  0  0  0  0  0  0
  187.7060  174.1140  135.7240 C   0  0  0  0  0  1  0  0  0  0  0  0
  187.4920  175.4540  136.4070 C   0  0  1  0  0  3  0  0  0  0  0  0
  186.0620  175.5540  136.9090 C   0  0  0  0  0  2  0  0  0  0  0  0
  185.8100  177.8690  137.4640 O   0  0  0  0  0  1  0  0  0  0  0  0
  185.4420  176.8920  136.5380 C   0  0  0  0  0  2  0  0  0  0  0  0
  190.8670  175.7600  137.4760 N   0  0  0  0  0  2  0  0  0  0  0  0
  191.8960  176.5480  138.0220 N   0  0  0  0  0  2  0  0  0  0  0  0
  193.1510  175.8980  137.6820 C   0  0  0  0  0  2  0  0  0  0  0  0
  194.0430  175.2560  135.4480 C   0  0  0  0  0  3  0  0  0  0  0  0
  193.0420  175.2570  136.3340 C   0  0  0  0  0  3  0  0  0  0  0  0
  195.3730  175.9110  135.7030 C   0  0  2  0  0  3  0  0  0  0  0  0
  195.3720  178.3000  135.4750 O   0  0  0  0  0  1  0  0  0  0  0  0
  195.5970  177.1080  134.7840 C   0  0  0  0  0  2  0  0  0  0  0  0
  196.4380  174.9660  135.5790 O   0  0  0  0  0  0  0  0  0  0  0  0
  198.7390  175.1220  135.3460 O   0  0  0  0  0  0  0  0  0  0  0  0
  197.8930  175.3950  137.4870 N   0  0  0  0  0  1  0  0  0  0  0  0
  197.7270  175.1570  136.0950 C   0  0  0  0  0  0  0  0  0  0  0  0
  2  1  1  6  0  0  0
  2 26  1  0  0  0  0
  2 20  1  0  0  0  0
  2  3  1  0  0  0  0
  3  4  1  6  0  0  0
  3  5  1  0  0  0  0
  5  6  1  0  0  0  0
  6  9  1  0  0  0  0
  7 15  2  0  0  0  0
  8 15  1  0  0  0  0
  9 12  2  0  0  0  0
 10  8  1  0  0  0  0
 13 16  1  6  0  0  0
 13 18  1  0  0  0  0
 14 12  1  6  0  0  0
 14 13  1  0  0  0  0
 14 10  1  0  0  0  0
 15 11  1  0  0  0  0
 17  7  1  0  0  0  0
 18 17  1  0  0  0  0
 18  8  2  0  0  0  0
 19  9  1  0  0  0  0
 19 16  2  0  0  0  0
 22 21  1  1  0  0  0
 22 23  1  0  0  0  0
 22 20  1  0  0  0  0
 25 23  1  0  0  0  0
 25 24  1  0  0  0  0
 26 27  1  0  0  0  0
 28 27  1  0  0  0  0
 29 31  1  0  0  0  0
 29 30  2  0  0  0  0
 30 28  1  0  0  0  0
 31 33  1  6  0  0  0
 33 32  1  0  0  0  0
 34 31  1  0  0  0  0
 34 37  1  0  0  0  0
 35 37  2  0  0  0  0
 37 36  1  0  0  0  0
M  END
>  <MODEL>
8

>  <REMARK>
 VINA RESULT:      -6.9      3.495      6.093
  Name = 
  16 active torsions:
  status: ('A' for Active; 'I' for Inactive)
    1  A    between atoms: C_2  and  N_6
    2  A    between atoms: C_2  and  C_20
    3  A    between atoms: C_3  and  C_4
    4  A    between atoms: C_4  and  O_10
    5  A    between atoms: C_4  and  C_27
    6  A    between atoms: N_6  and  N_14
    7  A    between atoms: C_8  and  C_15
    8  A    between atoms: C_8  and  C_17
    9  A    between atoms: O_10  and  C_33
   10  A    between atoms: C_11  and  C_29
   11  A    between atoms: C_11  and  C_36
   12  A    between atoms: C_13  and  C_15
   13  A    between atoms: C_13  and  C_16
   14  A    between atoms: N_14  and  C_17
   15  A    between atoms: C_17  and  C_19
   16  A    between atoms: C_19  and  C_29
                            x       y       z     vdW  Elec       q    Type
                         _______ _______ _______ _____ _____    ______ ____

>  <TORSDO>
F 16

$$$$
=
 OpenBabel10232412413D

 37 39  0  0  1  0  0  0  0  0999 V2000
  189.7260  177.9330  136.8130 C   0  0  0  0  0  1  0  0  0  0  0  0
  189.3730  177.5180  138.2500 C   0  0  1  0  0  0  0  0  0  0  0  0
  187.9910  178.0830  138.6610 C   0  0  1  0  0  3  0  0  0  0  0  0
  186.6480  177.6420  137.5020 S   0  0  0  0  0  1  0  0  0  0  0  0
  187.5860  177.6760  140.0750 C   0  0  0  0  0  2  0  0  0  0  0  0
  187.1980  178.9010  140.8850 C   0  0  0  0  0  2  0  0  0  0  0  0
  185.9830  179.2710  147.8450 N   0  0  0  0  0  0  0  0  0  0  0  0
  186.8400  177.8770  146.3680 C   0  0  0  0  0  0  0  0  0  0  0  0
  186.5570  178.4860  142.1620 C   0  0  0  0  0  0  0  0  0  0  0  0
  187.4980  177.1590  145.4760 C   0  0  0  0  0  2  0  0  0  0  0  0
  188.1720  178.2140  148.5330 C   0  0  0  0  0  1  0  0  0  0  0  0
  187.2250  177.6760  143.0040 C   0  0  0  0  0  3  0  0  0  0  0  0
  185.4540  178.0630  144.6830 C   0  0  2  0  0  3  0  0  0  0  0  0
  186.5790  177.1480  144.2600 C   0  0  2  0  0  3  0  0  0  0  0  0
  187.0190  178.4200  147.6150 C   0  0  0  0  0  0  0  0  0  0  0  0
  184.6770  178.8390  143.7170 C   0  0  0  0  0  3  0  0  0  0  0  0
  185.2100  179.2470  146.7830 O   0  0  0  0  0  0  0  0  0  0  0  0
  185.7150  178.4060  145.9190 C   0  0  0  0  0  0  0  0  0  0  0  0
  185.2060  179.0110  142.5000 C   0  0  0  0  0  3  0  0  0  0  0  0
  189.2890  175.9830  138.3020 C   0  0  0  0  0  2  0  0  0  0  0  0
  191.0030  174.4200  137.3890 C   0  0  0  0  0  1  0  0  0  0  0  0
  189.8090  175.2940  137.0440 C   0  0  1  0  0  3  0  0  0  0  0  0
  188.7000  174.4400  136.4510 C   0  0  0  0  0  2  0  0  0  0  0  0
  189.3820  175.6760  134.5180 O   0  0  0  0  0  1  0  0  0  0  0  0
  188.3530  174.8930  135.0420 C   0  0  0  0  0  2  0  0  0  0  0  0
  190.3970  177.9400  139.2190 N   0  0  0  0  0  2  0  0  0  0  0  0
  190.5590  176.9790  140.2320 N   0  0  0  0  0  2  0  0  0  0  0  0
  191.4500  177.5570  141.2240 C   0  0  0  0  0  2  0  0  0  0  0  0
  190.7340  178.1210  143.5420 C   0  0  0  0  0  3  0  0  0  0  0  0
  190.6570  178.3390  142.2250 C   0  0  0  0  0  3  0  0  0  0  0  0
  191.6080  177.0610  144.1540 C   0  0  2  0  0  3  0  0  0  0  0  0
  191.9800  174.7060  143.8860 O   0  0  0  0  0  1  0  0  0  0  0  0
  190.9850  175.6740  144.0260 C   0  0  0  0  0  2  0  0  0  0  0  0
  191.8980  177.3660  145.5200 O   0  0  0  0  0  0  0  0  0  0  0  0
  190.5600  176.6690  147.2800 O   0  0  0  0  0  0  0  0  0  0  0  0
  192.5130  175.4710  146.9240 N   0  0  0  0  0  1  0  0  0  0  0  0
  191.6090  176.5180  146.5980 C   0  0  0  0  0  0  0  0  0  0  0  0
  2  1  1  6  0  0  0
  2 20  1  0  0  0  0
  2  3  1  0  0  0  0
  2 26  1  0  0  0  0
  3  4  1  6  0  0  0
  3  5  1  0  0  0  0
  5  6  1  0  0  0  0
  6  9  1  0  0  0  0
  8 15  1  0  0  0  0
  9 19  1  0  0  0  0
  9 12  2  0  0  0  0
 10  8  1  0  0  0  0
 13 16  1  6  0  0  0
 13 18  1  0  0  0  0
 14 12  1  6  0  0  0
 14 13  1  0  0  0  0
 14 10  1  0  0  0  0
 15  7  2  0  0  0  0
 15 11  1  0  0  0  0
 17  7  1  0  0  0  0
 18  8  2  0  0  0  0
 18 17  1  0  0  0  0
 19 16  2  0  0  0  0
 22 21  1  1  0  0  0
 22 20  1  0  0  0  0
 23 22  1  0  0  0  0
 24 25  1  0  0  0  0
 25 23  1  0  0  0  0
 26 27  1  0  0  0  0
 27 28  1  0  0  0  0
 28 30  1  0  0  0  0
 30 29  2  0  0  0  0
 31 29  1  1  0  0  0
 31 34  1  0  0  0  0
 32 33  1  0  0  0  0
 33 31  1  0  0  0  0
 34 37  1  0  0  0  0
 37 36  1  0  0  0  0
 37 35  2  0  0  0  0
M  END
>  <MODEL>
9

>  <REMARK>
 VINA RESULT:      -6.8      3.308      6.984
  Name = 
  16 active torsions:
  status: ('A' for Active; 'I' for Inactive)
    1  A    between atoms: C_2  and  N_6
    2  A    between atoms: C_2  and  C_20
    3  A    between atoms: C_3  and  C_4
    4  A    between atoms: C_4  and  O_10
    5  A    between atoms: C_4  and  C_27
    6  A    between atoms: N_6  and  N_14
    7  A    between atoms: C_8  and  C_15
    8  A    between atoms: C_8  and  C_17
    9  A    between atoms: O_10  and  C_33
   10  A    between atoms: C_11  and  C_29
   11  A    between atoms: C_11  and  C_36
   12  A    between atoms: C_13  and  C_15
   13  A    between atoms: C_13  and  C_16
   14  A    between atoms: N_14  and  C_17
   15  A    between atoms: C_17  and  C_19
   16  A    between atoms: C_19  and  C_29
                            x       y       z     vdW  Elec       q    Type
                         _______ _______ _______ _____ _____    ______ ____

>  <TORSDO>
F 16

$$$$
