=
 OpenBabel10232409553D

 34 36  0  0  0  0  0  0  0  0999 V2000
  188.9510  179.0060  142.0550 O   0  0  0  0  0  0  0  0  0  0  0  0
  188.6930  177.1110  147.9690 C   0  0  0  0  0  3  0  0  0  0  0  0
  187.7240  177.4980  145.7470 C   0  0  0  0  0  0  0  0  0  0  0  0
  189.9920  177.2460  147.4520 C   0  0  0  0  0  3  0  0  0  0  0  0
  189.0400  177.5980  145.2550 C   0  0  0  0  0  0  0  0  0  0  0  0
  191.2700  177.6760  145.4130 N   0  0  0  0  0  0  0  0  0  0  0  0
  190.1230  177.4920  146.0890 C   0  0  0  0  0  0  0  0  0  0  0  0
  189.4940  177.8500  144.0070 N   0  0  0  0  0  0  0  0  0  0  0  0
  187.8790  176.9000  142.2910 C   0  0  0  0  0  1  0  0  0  0  0  0
  190.8450  177.8930  144.1440 C   0  0  0  0  0  0  0  0  0  0  0  0
  188.7670  177.9930  142.7790 C   0  0  0  0  0  0  0  0  0  0  0  0
  187.5710  177.2400  147.1270 C   0  0  0  0  0  3  0  0  0  0  0  0
  186.5470  177.6690  144.8800 C   0  0  0  0  0  3  0  0  0  0  0  0
  185.6070  178.5860  145.1020 C   0  0  0  0  0  3  0  0  0  0  0  0
  182.0150  178.9390  144.0570 C   0  0  0  0  0  3  0  0  0  0  0  0
  184.4240  178.7300  144.2440 C   0  0  0  0  0  0  0  0  0  0  0  0
  183.3790  178.8540  142.0500 C   0  0  0  0  0  0  0  0  0  0  0  0
  183.1640  178.8230  144.8430 C   0  0  0  0  0  3  0  0  0  0  0  0
  184.5260  178.7450  142.8440 C   0  0  0  0  0  3  0  0  0  0  0  0
  182.1210  178.9510  142.6640 C   0  0  0  0  0  3  0  0  0  0  0  0
  183.5100  178.8620  140.6600 O   0  0  0  0  0  0  0  0  0  0  0  0
  184.5920  179.4510  140.0410 N   0  0  0  0  0  2  0  0  0  0  0  0
  184.8550  178.6820  138.8390 C   0  0  0  0  0  1  0  0  0  0  0  0
  191.7860  178.1530  143.0150 C   0  0  0  0  0  2  0  0  0  0  0  0
  191.7910  177.0190  142.1090 N   0  0  0  0  0  2  0  0  0  0  0  0
  191.9390  177.5580  140.7690 C   0  0  0  0  0  2  0  0  0  0  0  0
  190.8120  177.0940  139.9170 C   0  0  0  0  0  0  0  0  0  0  0  0
  190.5540  175.8620  139.8490 O   0  0  0  0  0  0  0  0  0  0  0  0
  190.0690  178.0320  139.1850 O   0  0  0  0  0  0  0  0  0  0  0  0
  188.1260  177.0060  138.1360 C   0  0  0  0  0  1  0  0  0  0  0  0
  189.4330  177.7590  137.9300 C   0  0  0  0  0  0  0  0  0  0  0  0
  190.3520  176.9390  137.0410 C   0  0  0  0  0  1  0  0  0  0  0  0
  187.7730  179.2720  137.0700 O   0  0  0  0  0  1  0  0  0  0  0  0
  189.1490  179.0750  137.2190 C   0  0  0  0  0  2  0  0  0  0  0  0
  1 11  2  0  0  0  0
  3 12  1  0  0  0  0
  4  2  1  0  0  0  0
  5  3  2  0  0  0  0
  5  7  1  0  0  0  0
  6  7  1  0  0  0  0
  7  4  2  0  0  0  0
  8 10  1  0  0  0  0
  8  5  1  0  0  0  0
  9 11  1  0  0  0  0
 10  6  2  0  0  0  0
 11  8  1  0  0  0  0
 12  2  2  0  0  0  0
 13 14  2  0  0  0  0
 13  3  1  0  0  0  0
 15 18  1  0  0  0  0
 16 18  2  0  0  0  0
 16 14  1  0  0  0  0
 17 20  1  0  0  0  0
 17 19  2  0  0  0  0
 19 16  1  0  0  0  0
 20 15  2  0  0  0  0
 21 17  1  0  0  0  0
 22 21  1  0  0  0  0
 23 22  1  0  0  0  0
 24 10  1  0  0  0  0
 25 24  1  0  0  0  0
 26 25  1  0  0  0  0
 27 26  1  0  0  0  0
 28 27  2  0  0  0  0
 29 27  1  0  0  0  0
 31 30  1  0  0  0  0
 31 29  1  0  0  0  0
 32 31  1  0  0  0  0
 33 34  1  0  0  0  0
 34 31  1  0  0  0  0
M  END
>  <MODEL>
1

>  <REMARK>
 VINA RESULT:      -8.7      0.000      0.000
  Name = 
  11 active torsions:
  status: ('A' for Active; 'I' for Inactive)
    1  A    between atoms: O_1  and  C_9
    2  A    between atoms: O_1  and  N_22
    3  A    between atoms: C_4  and  C_6
    4  A    between atoms: C_4  and  O_24
    5  A    between atoms: C_6  and  N_18
    6  A    between atoms: C_7  and  C_28
    7  A    between atoms: C_8  and  C_29
    8  A    between atoms: C_11  and  N_18
    9  A    between atoms: C_11  and  C_30
   10  A    between atoms: C_14  and  C_17
   11  A    between atoms: O_24  and  C_28
                            x       y       z     vdW  Elec       q    Type
                         _______ _______ _______ _____ _____    ______ ____

>  <TORSDO>
F 11

$$$$
=
 OpenBabel10232409553D

 34 36  0  0  0  0  0  0  0  0999 V2000
  188.9020  178.8420  142.1020 O   0  0  0  0  0  0  0  0  0  0  0  0
  188.7250  177.2270  148.1010 C   0  0  0  0  0  3  0  0  0  0  0  0
  187.7280  177.5020  145.8740 C   0  0  0  0  0  0  0  0  0  0  0  0
  190.0170  177.3450  147.5630 C   0  0  0  0  0  3  0  0  0  0  0  0
  189.0380  177.5870  145.3630 C   0  0  0  0  0  0  0  0  0  0  0  0
  191.2680  177.6870  145.4910 N   0  0  0  0  0  0  0  0  0  0  0  0
  190.1310  177.5280  146.1890 C   0  0  0  0  0  0  0  0  0  0  0  0
  189.4760  177.7840  144.0990 N   0  0  0  0  0  0  0  0  0  0  0  0
  187.8480  176.7430  142.4490 C   0  0  0  0  0  1  0  0  0  0  0  0
  190.8280  177.8420  144.2180 C   0  0  0  0  0  0  0  0  0  0  0  0
  188.7330  177.8630  142.8750 C   0  0  0  0  0  0  0  0  0  0  0  0
  187.5920  177.3080  147.2660 C   0  0  0  0  0  3  0  0  0  0  0  0
  186.5400  177.6240  145.0130 C   0  0  0  0  0  3  0  0  0  0  0  0
  185.7420  178.6900  145.0220 C   0  0  0  0  0  3  0  0  0  0  0  0
  182.1290  178.9310  144.0180 C   0  0  0  0  0  3  0  0  0  0  0  0
  184.5450  178.7890  144.1780 C   0  0  0  0  0  0  0  0  0  0  0  0
  183.4700  178.8510  141.9950 C   0  0  0  0  0  0  0  0  0  0  0  0
  183.2900  178.8580  144.7910 C   0  0  0  0  0  3  0  0  0  0  0  0
  184.6290  178.7850  142.7760 C   0  0  0  0  0  3  0  0  0  0  0  0
  182.2180  178.9240  142.6230 C   0  0  0  0  0  3  0  0  0  0  0  0
  183.5840  178.8410  140.6030 O   0  0  0  0  0  0  0  0  0  0  0  0
  184.5980  179.5140  139.9580 N   0  0  0  0  0  2  0  0  0  0  0  0
  185.1460  178.6000  138.9720 C   0  0  0  0  0  1  0  0  0  0  0  0
  191.7540  178.0550  143.0680 C   0  0  0  0  0  2  0  0  0  0  0  0
  191.6130  176.9670  142.1160 N   0  0  0  0  0  2  0  0  0  0  0  0
  192.0350  177.4850  140.8280 C   0  0  0  0  0  2  0  0  0  0  0  0
  191.0360  177.1150  139.7900 C   0  0  0  0  0  0  0  0  0  0  0  0
  190.0760  177.8950  139.5480 O   0  0  0  0  0  0  0  0  0  0  0  0
  191.1650  175.8930  139.1140 O   0  0  0  0  0  0  0  0  0  0  0  0
  192.9170  176.4290  137.5100 C   0  0  0  0  0  1  0  0  0  0  0  0
  191.5680  175.7640  137.7440 C   0  0  0  0  0  0  0  0  0  0  0  0
  190.5310  176.3920  136.8280 C   0  0  0  0  0  1  0  0  0  0  0  0
  190.4060  173.6850  137.4100 O   0  0  0  0  0  1  0  0  0  0  0  0
  191.6680  174.2860  137.3920 C   0  0  0  0  0  2  0  0  0  0  0  0
  1 11  2  0  0  0  0
  3 12  1  0  0  0  0
  4  2  1  0  0  0  0
  5  3  2  0  0  0  0
  5  7  1  0  0  0  0
  6  7  1  0  0  0  0
  7  4  2  0  0  0  0
  8 10  1  0  0  0  0
  8  5  1  0  0  0  0
  9 11  1  0  0  0  0
 10  6  2  0  0  0  0
 11  8  1  0  0  0  0
 12  2  2  0  0  0  0
 13 14  2  0  0  0  0
 13  3  1  0  0  0  0
 15 18  1  0  0  0  0
 16 18  2  0  0  0  0
 16 14  1  0  0  0  0
 17 20  1  0  0  0  0
 17 19  2  0  0  0  0
 19 16  1  0  0  0  0
 20 15  2  0  0  0  0
 21 17  1  0  0  0  0
 22 21  1  0  0  0  0
 23 22  1  0  0  0  0
 24 10  1  0  0  0  0
 25 24  1  0  0  0  0
 26 25  1  0  0  0  0
 27 26  1  0  0  0  0
 28 27  2  0  0  0  0
 29 27  1  0  0  0  0
 30 31  1  0  0  0  0
 31 29  1  0  0  0  0
 32 31  1  0  0  0  0
 34 33  1  0  0  0  0
 34 31  1  0  0  0  0
M  END
>  <MODEL>
2

>  <REMARK>
 VINA RESULT:      -8.5      1.042      1.808
  Name = 
  11 active torsions:
  status: ('A' for Active; 'I' for Inactive)
    1  A    between atoms: O_1  and  C_9
    2  A    between atoms: O_1  and  N_22
    3  A    between atoms: C_4  and  C_6
    4  A    between atoms: C_4  and  O_24
    5  A    between atoms: C_6  and  N_18
    6  A    between atoms: C_7  and  C_28
    7  A    between atoms: C_8  and  C_29
    8  A    between atoms: C_11  and  N_18
    9  A    between atoms: C_11  and  C_30
   10  A    between atoms: C_14  and  C_17
   11  A    between atoms: O_24  and  C_28
                            x       y       z     vdW  Elec       q    Type
                         _______ _______ _______ _____ _____    ______ ____

>  <TORSDO>
F 11

$$$$
=
 OpenBabel10232409553D

 34 36  0  0  0  0  0  0  0  0999 V2000
  189.5580  176.9050  141.0100 O   0  0  0  0  0  0  0  0  0  0  0  0
  183.6450  178.7490  141.5240 C   0  0  0  0  0  3  0  0  0  0  0  0
  185.8610  178.2130  142.4340 C   0  0  0  0  0  0  0  0  0  0  0  0
  184.1690  178.8150  140.2230 C   0  0  0  0  0  3  0  0  0  0  0  0
  186.3600  178.3160  141.1210 C   0  0  0  0  0  0  0  0  0  0  0  0
  186.2150  178.5830  138.9050 N   0  0  0  0  0  0  0  0  0  0  0  0
  185.5320  178.5890  140.0630 C   0  0  0  0  0  0  0  0  0  0  0  0
  187.6100  178.1340  140.6410 N   0  0  0  0  0  0  0  0  0  0  0  0
  189.3180  178.8210  142.3920 C   0  0  0  0  0  1  0  0  0  0  0  0
  187.4810  178.3000  139.2990 C   0  0  0  0  0  0  0  0  0  0  0  0
  188.8340  177.8790  141.3440 C   0  0  0  0  0  0  0  0  0  0  0  0
  184.4800  178.4470  142.6180 C   0  0  0  0  0  3  0  0  0  0  0  0
  186.7210  177.8610  143.5760 C   0  0  0  0  0  3  0  0  0  0  0  0
  186.4950  178.2910  144.8160 C   0  0  0  0  0  3  0  0  0  0  0  0
  187.7140  177.8290  148.3400 C   0  0  0  0  0  3  0  0  0  0  0  0
  187.3750  177.9550  145.9420 C   0  0  0  0  0  0  0  0  0  0  0  0
  189.5170  177.2180  146.8320 C   0  0  0  0  0  0  0  0  0  0  0  0
  186.8960  178.1180  147.2450 C   0  0  0  0  0  3  0  0  0  0  0  0
  188.6900  177.5030  145.7410 C   0  0  0  0  0  3  0  0  0  0  0  0
  189.0230  177.3830  148.1350 C   0  0  0  0  0  3  0  0  0  0  0  0
  190.8220  176.7760  146.6030 O   0  0  0  0  0  0  0  0  0  0  0  0
  191.7790  176.8090  147.5940 N   0  0  0  0  0  2  0  0  0  0  0  0
  192.4940  175.5480  147.5280 C   0  0  0  0  0  1  0  0  0  0  0  0
  188.6150  178.1860  138.3350 C   0  0  0  0  0  2  0  0  0  0  0  0
  188.6420  176.8500  137.7650 N   0  0  0  0  0  2  0  0  0  0  0  0
  189.7590  176.8160  136.8390 C   0  0  0  0  0  2  0  0  0  0  0  0
  190.6010  175.6220  137.1180 C   0  0  0  0  0  0  0  0  0  0  0  0
  190.2740  174.8370  138.0490 O   0  0  0  0  0  0  0  0  0  0  0  0
  191.7570  175.4000  136.3570 O   0  0  0  0  0  0  0  0  0  0  0  0
  193.6660  174.2570  137.3470 C   0  0  0  0  0  1  0  0  0  0  0  0
  193.0940  175.5750  136.8440 C   0  0  0  0  0  0  0  0  0  0  0  0
  193.1150  176.5950  137.9700 C   0  0  0  0  0  1  0  0  0  0  0  0
  194.8060  177.1270  136.1780 O   0  0  0  0  0  1  0  0  0  0  0  0
  193.9700  176.1060  135.7170 C   0  0  0  0  0  2  0  0  0  0  0  0
  1 11  2  0  0  0  0
  2 12  1  0  0  0  0
  3 12  2  0  0  0  0
  3 13  1  0  0  0  0
  4  2  2  0  0  0  0
  5  3  1  0  0  0  0
  6 10  2  0  0  0  0
  6  7  1  0  0  0  0
  7  4  1  0  0  0  0
  7  5  2  0  0  0  0
  8  5  1  0  0  0  0
  8 11  1  0  0  0  0
 10  8  1  0  0  0  0
 11  9  1  0  0  0  0
 13 14  2  0  0  0  0
 14 16  1  0  0  0  0
 16 18  1  0  0  0  0
 17 20  2  0  0  0  0
 18 15  2  0  0  0  0
 19 16  2  0  0  0  0
 19 17  1  0  0  0  0
 20 15  1  0  0  0  0
 21 17  1  0  0  0  0
 21 22  1  0  0  0  0
 23 22  1  0  0  0  0
 24 10  1  0  0  0  0
 25 24  1  0  0  0  0
 26 27  1  0  0  0  0
 26 25  1  0  0  0  0
 27 28  2  0  0  0  0
 29 31  1  0  0  0  0
 29 27  1  0  0  0  0
 31 30  1  0  0  0  0
 31 32  1  0  0  0  0
 34 33  1  0  0  0  0
 34 31  1  0  0  0  0
M  END
>  <MODEL>
3

>  <REMARK>
 VINA RESULT:      -8.0      2.563      6.184
  Name = 
  11 active torsions:
  status: ('A' for Active; 'I' for Inactive)
    1  A    between atoms: O_1  and  C_9
    2  A    between atoms: O_1  and  N_22
    3  A    between atoms: C_4  and  C_6
    4  A    between atoms: C_4  and  O_24
    5  A    between atoms: C_6  and  N_18
    6  A    between atoms: C_7  and  C_28
    7  A    between atoms: C_8  and  C_29
    8  A    between atoms: C_11  and  N_18
    9  A    between atoms: C_11  and  C_30
   10  A    between atoms: C_14  and  C_17
   11  A    between atoms: O_24  and  C_28
                            x       y       z     vdW  Elec       q    Type
                         _______ _______ _______ _____ _____    ______ ____

>  <TORSDO>
F 11

$$$$
=
 OpenBabel10232409553D

 34 36  0  0  0  0  0  0  0  0999 V2000
  190.1800  176.6630  141.3880 O   0  0  0  0  0  0  0  0  0  0  0  0
  184.3410  178.7930  141.3470 C   0  0  0  0  0  3  0  0  0  0  0  0
  186.4430  178.1800  142.4570 C   0  0  0  0  0  0  0  0  0  0  0  0
  184.9760  178.7990  140.0950 C   0  0  0  0  0  3  0  0  0  0  0  0
  187.0570  178.2240  141.1900 C   0  0  0  0  0  0  0  0  0  0  0  0
  187.1130  178.4360  138.9640 N   0  0  0  0  0  0  0  0  0  0  0  0
  186.3360  178.5060  140.0580 C   0  0  0  0  0  0  0  0  0  0  0  0
  188.3330  177.9710  140.8230 N   0  0  0  0  0  0  0  0  0  0  0  0
  189.9170  178.6250  142.6990 C   0  0  0  0  0  1  0  0  0  0  0  0
  188.3270  178.1050  139.4710 C   0  0  0  0  0  0  0  0  0  0  0  0
  189.4780  177.6790  141.6350 C   0  0  0  0  0  0  0  0  0  0  0  0
  185.0650  178.4830  142.5150 C   0  0  0  0  0  3  0  0  0  0  0  0
  187.1850  177.8200  143.6760 C   0  0  0  0  0  3  0  0  0  0  0  0
  186.8000  178.1880  144.8970 C   0  0  0  0  0  3  0  0  0  0  0  0
  187.7500  177.9000  148.5210 C   0  0  0  0  0  3  0  0  0  0  0  0
  187.5630  177.8450  146.1040 C   0  0  0  0  0  0  0  0  0  0  0  0
  189.5320  176.9190  147.1950 C   0  0  0  0  0  0  0  0  0  0  0  0
  187.0410  178.1920  147.3530 C   0  0  0  0  0  3  0  0  0  0  0  0
  188.8130  177.2080  146.0300 C   0  0  0  0  0  3  0  0  0  0  0  0
  188.9940  177.2690  148.4420 C   0  0  0  0  0  3  0  0  0  0  0  0
  190.7740  176.2890  147.0910 O   0  0  0  0  0  0  0  0  0  0  0  0
  191.9110  176.8440  147.6360 N   0  0  0  0  0  2  0  0  0  0  0  0
  192.7150  175.7450  148.1370 C   0  0  0  0  0  1  0  0  0  0  0  0
  189.5310  177.9120  138.6120 C   0  0  0  0  0  2  0  0  0  0  0  0
  189.1190  177.6130  137.2510 N   0  0  0  0  0  2  0  0  0  0  0  0
  189.9450  176.5070  136.8010 C   0  0  0  0  0  2  0  0  0  0  0  0
  189.3860  175.2270  137.3110 C   0  0  0  0  0  0  0  0  0  0  0  0
  190.1620  174.2630  137.5480 O   0  0  0  0  0  0  0  0  0  0  0  0
  188.0010  175.1060  137.4980 O   0  0  0  0  0  0  0  0  0  0  0  0
  187.6970  174.4160  135.1830 C   0  0  0  0  0  1  0  0  0  0  0  0
  187.1170  174.4360  136.5900 C   0  0  0  0  0  0  0  0  0  0  0  0
  185.7630  175.1250  136.5670 C   0  0  0  0  0  1  0  0  0  0  0  0
  185.8400  172.9360  137.9700 O   0  0  0  0  0  1  0  0  0  0  0  0
  186.9040  173.0050  137.0670 C   0  0  0  0  0  2  0  0  0  0  0  0
  1 11  2  0  0  0  0
  2 12  1  0  0  0  0
  3 12  2  0  0  0  0
  3 13  1  0  0  0  0
  4  2  2  0  0  0  0
  5  3  1  0  0  0  0
  6 10  2  0  0  0  0
  6  7  1  0  0  0  0
  7  4  1  0  0  0  0
  7  5  2  0  0  0  0
  8  5  1  0  0  0  0
  8 11  1  0  0  0  0
 10  8  1  0  0  0  0
 11  9  1  0  0  0  0
 13 14  2  0  0  0  0
 14 16  1  0  0  0  0
 16 18  1  0  0  0  0
 17 20  2  0  0  0  0
 18 15  2  0  0  0  0
 19 16  2  0  0  0  0
 19 17  1  0  0  0  0
 20 15  1  0  0  0  0
 21 17  1  0  0  0  0
 21 22  1  0  0  0  0
 22 23  1  0  0  0  0
 24 10  1  0  0  0  0
 25 24  1  0  0  0  0
 26 25  1  0  0  0  0
 26 27  1  0  0  0  0
 27 29  1  0  0  0  0
 27 28  2  0  0  0  0
 30 31  1  0  0  0  0
 31 34  1  0  0  0  0
 31 29  1  0  0  0  0
 32 31  1  0  0  0  0
 34 33  1  0  0  0  0
M  END
>  <MODEL>
4

>  <REMARK>
 VINA RESULT:      -8.0      2.714      6.151
  Name = 
  11 active torsions:
  status: ('A' for Active; 'I' for Inactive)
    1  A    between atoms: O_1  and  C_9
    2  A    between atoms: O_1  and  N_22
    3  A    between atoms: C_4  and  C_6
    4  A    between atoms: C_4  and  O_24
    5  A    between atoms: C_6  and  N_18
    6  A    between atoms: C_7  and  C_28
    7  A    between atoms: C_8  and  C_29
    8  A    between atoms: C_11  and  N_18
    9  A    between atoms: C_11  and  C_30
   10  A    between atoms: C_14  and  C_17
   11  A    between atoms: O_24  and  C_28
                            x       y       z     vdW  Elec       q    Type
                         _______ _______ _______ _____ _____    ______ ____

>  <TORSDO>
F 11

$$$$
=
 OpenBabel10232409553D

 34 36  0  0  0  0  0  0  0  0999 V2000
  189.5490  176.9200  141.1550 O   0  0  0  0  0  0  0  0  0  0  0  0
  183.6300  178.7380  141.6950 C   0  0  0  0  0  3  0  0  0  0  0  0
  185.8470  178.1920  142.5980 C   0  0  0  0  0  0  0  0  0  0  0  0
  184.1550  178.8290  140.3950 C   0  0  0  0  0  3  0  0  0  0  0  0
  186.3470  178.3200  141.2870 C   0  0  0  0  0  0  0  0  0  0  0  0
  186.2040  178.6260  139.0760 N   0  0  0  0  0  0  0  0  0  0  0  0
  185.5190  178.6100  140.2330 C   0  0  0  0  0  0  0  0  0  0  0  0
  187.5980  178.1500  140.8050 N   0  0  0  0  0  0  0  0  0  0  0  0
  189.3020  178.8100  142.5710 C   0  0  0  0  0  1  0  0  0  0  0  0
  187.4700  178.3390  139.4660 C   0  0  0  0  0  0  0  0  0  0  0  0
  188.8220  177.8860  141.5060 C   0  0  0  0  0  0  0  0  0  0  0  0
  184.4650  178.4200  142.7840 C   0  0  0  0  0  3  0  0  0  0  0  0
  186.7070  177.8230  143.7340 C   0  0  0  0  0  3  0  0  0  0  0  0
  186.5120  178.2770  144.9710 C   0  0  0  0  0  3  0  0  0  0  0  0
  187.7760  177.8610  148.4850 C   0  0  0  0  0  3  0  0  0  0  0  0
  187.3930  177.9220  146.0910 C   0  0  0  0  0  0  0  0  0  0  0  0
  189.4990  177.0720  146.9660 C   0  0  0  0  0  0  0  0  0  0  0  0
  186.9560  178.1660  147.3960 C   0  0  0  0  0  3  0  0  0  0  0  0
  188.6690  177.3740  145.8810 C   0  0  0  0  0  3  0  0  0  0  0  0
  189.0460  177.3180  148.2710 C   0  0  0  0  0  3  0  0  0  0  0  0
  190.7640  176.5320  146.7270 O   0  0  0  0  0  0  0  0  0  0  0  0
  191.8530  176.8820  147.4950 N   0  0  0  0  0  2  0  0  0  0  0  0
  192.5310  175.6480  147.8480 C   0  0  0  0  0  1  0  0  0  0  0  0
  188.6050  178.2450  138.5020 C   0  0  0  0  0  2  0  0  0  0  0  0
  188.5730  176.9570  137.8300 N   0  0  0  0  0  2  0  0  0  0  0  0
  188.2350  177.2200  136.4430 C   0  0  0  0  0  2  0  0  0  0  0  0
  189.4540  177.0880  135.6000 C   0  0  0  0  0  0  0  0  0  0  0  0
  189.3880  177.3600  134.3710 O   0  0  0  0  0  0  0  0  0  0  0  0
  190.6490  176.6400  136.1810 O   0  0  0  0  0  0  0  0  0  0  0  0
  192.3030  175.4990  134.8060 C   0  0  0  0  0  1  0  0  0  0  0  0
  191.2570  175.3720  135.9050 C   0  0  0  0  0  0  0  0  0  0  0  0
  190.2030  174.3620  135.4830 C   0  0  0  0  0  1  0  0  0  0  0  0
  190.9600  174.4690  138.1140 O   0  0  0  0  0  1  0  0  0  0  0  0
  191.9210  174.8510  137.1730 C   0  0  0  0  0  2  0  0  0  0  0  0
  1 11  2  0  0  0  0
  2 12  1  0  0  0  0
  3 12  2  0  0  0  0
  3 13  1  0  0  0  0
  4  2  2  0  0  0  0
  5  3  1  0  0  0  0
  6 10  2  0  0  0  0
  6  7  1  0  0  0  0
  7  4  1  0  0  0  0
  7  5  2  0  0  0  0
  8  5  1  0  0  0  0
  8 11  1  0  0  0  0
 10  8  1  0  0  0  0
 11  9  1  0  0  0  0
 13 14  2  0  0  0  0
 14 16  1  0  0  0  0
 16 18  1  0  0  0  0
 17 20  2  0  0  0  0
 18 15  2  0  0  0  0
 19 16  2  0  0  0  0
 19 17  1  0  0  0  0
 20 15  1  0  0  0  0
 21 17  1  0  0  0  0
 21 22  1  0  0  0  0
 22 23  1  0  0  0  0
 24 10  1  0  0  0  0
 25 24  1  0  0  0  0
 26 25  1  0  0  0  0
 27 29  1  0  0  0  0
 27 26  1  0  0  0  0
 28 27  2  0  0  0  0
 30 31  1  0  0  0  0
 31 29  1  0  0  0  0
 31 34  1  0  0  0  0
 32 31  1  0  0  0  0
 34 33  1  0  0  0  0
M  END
>  <MODEL>
5

>  <REMARK>
 VINA RESULT:      -7.7      2.343      6.183
  Name = 
  11 active torsions:
  status: ('A' for Active; 'I' for Inactive)
    1  A    between atoms: O_1  and  C_9
    2  A    between atoms: O_1  and  N_22
    3  A    between atoms: C_4  and  C_6
    4  A    between atoms: C_4  and  O_24
    5  A    between atoms: C_6  and  N_18
    6  A    between atoms: C_7  and  C_28
    7  A    between atoms: C_8  and  C_29
    8  A    between atoms: C_11  and  N_18
    9  A    between atoms: C_11  and  C_30
   10  A    between atoms: C_14  and  C_17
   11  A    between atoms: O_24  and  C_28
                            x       y       z     vdW  Elec       q    Type
                         _______ _______ _______ _____ _____    ______ ____

>  <TORSDO>
F 11

$$$$
=
 OpenBabel10232409553D

 34 36  0  0  0  0  0  0  0  0999 V2000
  185.5890  179.8280  141.9310 O   0  0  0  0  0  0  0  0  0  0  0  0
  190.6230  177.0270  139.5980 C   0  0  0  0  0  3  0  0  0  0  0  0
  189.1440  177.7000  141.4380 C   0  0  0  0  0  0  0  0  0  0  0  0
  189.6210  177.3120  138.6560 C   0  0  0  0  0  3  0  0  0  0  0  0
  188.1500  177.9470  140.4700 C   0  0  0  0  0  0  0  0  0  0  0  0
  187.3290  178.1240  138.3970 N   0  0  0  0  0  0  0  0  0  0  0  0
  188.3980  177.7730  139.1330 C   0  0  0  0  0  0  0  0  0  0  0  0
  186.8900  178.4150  140.6070 N   0  0  0  0  0  0  0  0  0  0  0  0
  185.9210  177.6550  142.8290 C   0  0  0  0  0  1  0  0  0  0  0  0
  186.4280  178.5120  139.3330 C   0  0  0  0  0  0  0  0  0  0  0  0
  186.1440  178.7060  141.7970 C   0  0  0  0  0  0  0  0  0  0  0  0
  190.3890  177.2230  140.9740 C   0  0  0  0  0  3  0  0  0  0  0  0
  188.9180  177.9380  142.8730 C   0  0  0  0  0  3  0  0  0  0  0  0
  189.2840  177.0750  143.8190 C   0  0  0  0  0  3  0  0  0  0  0  0
  189.8550  177.2980  147.5260 C   0  0  0  0  0  3  0  0  0  0  0  0
  189.0300  177.3110  145.2460 C   0  0  0  0  0  0  0  0  0  0  0  0
  187.5450  177.8990  147.0820 C   0  0  0  0  0  0  0  0  0  0  0  0
  190.0680  177.1030  146.1590 C   0  0  0  0  0  3  0  0  0  0  0  0
  187.7670  177.7090  145.7140 C   0  0  0  0  0  3  0  0  0  0  0  0
  188.5960  177.6910  147.9880 C   0  0  0  0  0  3  0  0  0  0  0  0
  186.2780  178.2910  147.5200 O   0  0  0  0  0  0  0  0  0  0  0  0
  185.6120  179.3500  146.9430 N   0  0  0  0  0  2  0  0  0  0  0  0
  184.5340  178.7860  146.1520 C   0  0  0  0  0  1  0  0  0  0  0  0
  185.0610  178.9950  138.9790 C   0  0  0  0  0  2  0  0  0  0  0  0
  184.3080  177.9220  138.3540 N   0  0  0  0  0  2  0  0  0  0  0  0
  183.3520  177.4560  139.3430 C   0  0  0  0  0  2  0  0  0  0  0  0
  182.0580  178.1650  139.1580 C   0  0  0  0  0  0  0  0  0  0  0  0
  181.3300  177.8770  138.1700 O   0  0  0  0  0  0  0  0  0  0  0  0
  181.6800  179.1590  140.0720 O   0  0  0  0  0  0  0  0  0  0  0  0
  180.2300  177.6090  141.2670 C   0  0  0  0  0  1  0  0  0  0  0  0
  181.0310  178.9020  141.3240 C   0  0  0  0  0  0  0  0  0  0  0  0
  180.1060  180.0530  141.6840 C   0  0  0  0  0  1  0  0  0  0  0  0
  181.4900  178.7890  143.6820 O   0  0  0  0  0  1  0  0  0  0  0  0
  182.0860  178.7930  142.4180 C   0  0  0  0  0  2  0  0  0  0  0  0
  2 12  1  0  0  0  0
  3 13  1  0  0  0  0
  4  7  1  0  0  0  0
  4  2  2  0  0  0  0
  5  8  1  0  0  0  0
  5  3  1  0  0  0  0
  6  7  1  0  0  0  0
  6 10  2  0  0  0  0
  7  5  2  0  0  0  0
  8 11  1  0  0  0  0
 10  8  1  0  0  0  0
 11  1  2  0  0  0  0
 11  9  1  0  0  0  0
 12  3  2  0  0  0  0
 13 14  2  0  0  0  0
 14 16  1  0  0  0  0
 15 20  1  0  0  0  0
 16 19  2  0  0  0  0
 16 18  1  0  0  0  0
 17 21  1  0  0  0  0
 17 20  2  0  0  0  0
 18 15  2  0  0  0  0
 19 17  1  0  0  0  0
 22 21  1  0  0  0  0
 23 22  1  0  0  0  0
 24 10  1  0  0  0  0
 25 24  1  0  0  0  0
 25 26  1  0  0  0  0
 27 26  1  0  0  0  0
 27 29  1  0  0  0  0
 28 27  2  0  0  0  0
 29 31  1  0  0  0  0
 30 31  1  0  0  0  0
 31 32  1  0  0  0  0
 31 34  1  0  0  0  0
 34 33  1  0  0  0  0
M  END
>  <MODEL>
6

>  <REMARK>
 VINA RESULT:      -7.7      2.747      7.319
  Name = 
  11 active torsions:
  status: ('A' for Active; 'I' for Inactive)
    1  A    between atoms: O_1  and  C_9
    2  A    between atoms: O_1  and  N_22
    3  A    between atoms: C_4  and  C_6
    4  A    between atoms: C_4  and  O_24
    5  A    between atoms: C_6  and  N_18
    6  A    between atoms: C_7  and  C_28
    7  A    between atoms: C_8  and  C_29
    8  A    between atoms: C_11  and  N_18
    9  A    between atoms: C_11  and  C_30
   10  A    between atoms: C_14  and  C_17
   11  A    between atoms: O_24  and  C_28
                            x       y       z     vdW  Elec       q    Type
                         _______ _______ _______ _____ _____    ______ ____

>  <TORSDO>
F 11

$$$$
=
 OpenBabel10232409553D

 34 36  0  0  0  0  0  0  0  0999 V2000
  186.2520  179.4850  141.5180 O   0  0  0  0  0  0  0  0  0  0  0  0
  191.9680  177.0980  141.0050 C   0  0  0  0  0  3  0  0  0  0  0  0
  189.9730  177.7570  142.2760 C   0  0  0  0  0  0  0  0  0  0  0  0
  191.2540  177.1750  139.7980 C   0  0  0  0  0  3  0  0  0  0  0  0
  189.2780  177.7950  141.0510 C   0  0  0  0  0  0  0  0  0  0  0  0
  189.0680  177.6820  138.8270 N   0  0  0  0  0  0  0  0  0  0  0  0
  189.9100  177.5300  139.8630 C   0  0  0  0  0  0  0  0  0  0  0  0
  187.9950  178.1210  140.7800 N   0  0  0  0  0  0  0  0  0  0  0  0
  186.5050  177.4580  142.7280 C   0  0  0  0  0  1  0  0  0  0  0  0
  187.9080  178.0450  139.4260 C   0  0  0  0  0  0  0  0  0  0  0  0
  186.9190  178.4290  141.6770 C   0  0  0  0  0  0  0  0  0  0  0  0
  191.3360  177.3890  142.2300 C   0  0  0  0  0  3  0  0  0  0  0  0
  189.3290  178.0960  143.5540 C   0  0  0  0  0  3  0  0  0  0  0  0
  189.3930  177.3140  144.6310 C   0  0  0  0  0  3  0  0  0  0  0  0
  188.7820  177.7060  148.3170 C   0  0  0  0  0  3  0  0  0  0  0  0
  188.7240  177.6510  145.8940 C   0  0  0  0  0  0  0  0  0  0  0  0
  186.7950  178.4570  147.1400 C   0  0  0  0  0  0  0  0  0  0  0  0
  189.3970  177.4170  147.0970 C   0  0  0  0  0  3  0  0  0  0  0  0
  187.4200  178.1730  145.9220 C   0  0  0  0  0  3  0  0  0  0  0  0
  187.4830  178.2210  148.3400 C   0  0  0  0  0  3  0  0  0  0  0  0
  185.4970  178.9710  147.1380 O   0  0  0  0  0  0  0  0  0  0  0  0
  184.4890  178.3770  146.4100 N   0  0  0  0  0  2  0  0  0  0  0  0
  184.3020  179.1840  145.2180 C   0  0  0  0  0  1  0  0  0  0  0  0
  186.6610  178.3290  138.6560 C   0  0  0  0  0  2  0  0  0  0  0  0
  186.4560  177.2960  137.6560 N   0  0  0  0  0  2  0  0  0  0  0  0
  185.2320  177.6360  136.9540 C   0  0  0  0  0  2  0  0  0  0  0  0
  184.0910  176.8960  137.5550 C   0  0  0  0  0  0  0  0  0  0  0  0
  184.2270  175.6770  137.8450 O   0  0  0  0  0  0  0  0  0  0  0  0
  182.8740  177.5600  137.7670 O   0  0  0  0  0  0  0  0  0  0  0  0
  183.4200  177.9330  140.1110 C   0  0  0  0  0  1  0  0  0  0  0  0
  182.5800  178.3640  138.9160 C   0  0  0  0  0  0  0  0  0  0  0  0
  181.1060  178.2550  139.2730 C   0  0  0  0  0  1  0  0  0  0  0  0
  184.0510  180.2420  139.2220 O   0  0  0  0  0  1  0  0  0  0  0  0
  182.8750  179.8220  138.5930 C   0  0  0  0  0  2  0  0  0  0  0  0
  1 11  2  0  0  0  0
  2 12  1  0  0  0  0
  3 13  1  0  0  0  0
  4  7  1  0  0  0  0
  4  2  2  0  0  0  0
  5  3  1  0  0  0  0
  6 10  2  0  0  0  0
  6  7  1  0  0  0  0
  7  5  2  0  0  0  0
  8  5  1  0  0  0  0
  8 11  1  0  0  0  0
 10  8  1  0  0  0  0
 11  9  1  0  0  0  0
 12  3  2  0  0  0  0
 13 14  2  0  0  0  0
 14 16  1  0  0  0  0
 15 20  1  0  0  0  0
 16 19  2  0  0  0  0
 16 18  1  0  0  0  0
 17 20  2  0  0  0  0
 18 15  2  0  0  0  0
 19 17  1  0  0  0  0
 21 17  1  0  0  0  0
 22 21  1  0  0  0  0
 23 22  1  0  0  0  0
 24 10  1  0  0  0  0
 25 24  1  0  0  0  0
 26 27  1  0  0  0  0
 26 25  1  0  0  0  0
 27 29  1  0  0  0  0
 27 28  2  0  0  0  0
 29 31  1  0  0  0  0
 31 32  1  0  0  0  0
 31 30  1  0  0  0  0
 34 31  1  0  0  0  0
 34 33  1  0  0  0  0
M  END
>  <MODEL>
7

>  <REMARK>
 VINA RESULT:      -7.6      2.641      6.123
  Name = 
  11 active torsions:
  status: ('A' for Active; 'I' for Inactive)
    1  A    between atoms: O_1  and  C_9
    2  A    between atoms: O_1  and  N_22
    3  A    between atoms: C_4  and  C_6
    4  A    between atoms: C_4  and  O_24
    5  A    between atoms: C_6  and  N_18
    6  A    between atoms: C_7  and  C_28
    7  A    between atoms: C_8  and  C_29
    8  A    between atoms: C_11  and  N_18
    9  A    between atoms: C_11  and  C_30
   10  A    between atoms: C_14  and  C_17
   11  A    between atoms: O_24  and  C_28
                            x       y       z     vdW  Elec       q    Type
                         _______ _______ _______ _____ _____    ______ ____

>  <TORSDO>
F 11

$$$$
=
 OpenBabel10232409553D

 34 36  0  0  0  0  0  0  0  0999 V2000
  189.1670  179.1090  141.2540 O   0  0  0  0  0  0  0  0  0  0  0  0
  190.3010  176.8470  146.9310 C   0  0  0  0  0  3  0  0  0  0  0  0
  188.8180  177.6580  145.1500 C   0  0  0  0  0  0  0  0  0  0  0  0
  191.3530  176.6860  146.0140 C   0  0  0  0  0  3  0  0  0  0  0  0
  189.8850  177.4570  144.2520 C   0  0  0  0  0  0  0  0  0  0  0  0
  191.9820  176.9460  143.6660 N   0  0  0  0  0  0  0  0  0  0  0  0
  191.1050  177.0060  144.6840 C   0  0  0  0  0  0  0  0  0  0  0  0
  189.9690  177.6910  142.9230 N   0  0  0  0  0  0  0  0  0  0  0  0
  187.6980  177.3380  141.8380 C   0  0  0  0  0  1  0  0  0  0  0  0
  191.2510  177.3740  142.6070 C   0  0  0  0  0  0  0  0  0  0  0  0
  188.9560  178.1200  142.0030 C   0  0  0  0  0  0  0  0  0  0  0  0
  189.0480  177.3300  146.5040 C   0  0  0  0  0  3  0  0  0  0  0  0
  187.5190  178.1990  144.7180 C   0  0  0  0  0  3  0  0  0  0  0  0
  186.3530  177.6850  145.1050 C   0  0  0  0  0  3  0  0  0  0  0  0
  182.8920  179.1460  145.1970 C   0  0  0  0  0  3  0  0  0  0  0  0
  185.0630  178.2170  144.6460 C   0  0  0  0  0  0  0  0  0  0  0  0
  183.4830  178.7530  142.8750 C   0  0  0  0  0  0  0  0  0  0  0  0
  184.1370  178.6540  145.5980 C   0  0  0  0  0  3  0  0  0  0  0  0
  184.7300  178.2690  143.2830 C   0  0  0  0  0  3  0  0  0  0  0  0
  182.5640  179.1920  143.8400 C   0  0  0  0  0  3  0  0  0  0  0  0
  183.1760  178.7890  141.5130 O   0  0  0  0  0  0  0  0  0  0  0  0
  183.8910  178.0520  140.5940 N   0  0  0  0  0  2  0  0  0  0  0  0
  183.9400  178.8380  139.3750 C   0  0  0  0  0  1  0  0  0  0  0  0
  191.8180  177.4790  141.2310 C   0  0  0  0  0  2  0  0  0  0  0  0
  191.1190  176.5680  140.3410 N   0  0  0  0  0  2  0  0  0  0  0  0
  191.8060  176.6250  139.0640 C   0  0  0  0  0  2  0  0  0  0  0  0
  191.0060  175.9090  138.0350 C   0  0  0  0  0  0  0  0  0  0  0  0
  190.9000  174.6550  138.0960 O   0  0  0  0  0  0  0  0  0  0  0  0
  190.4020  176.6390  137.0010 O   0  0  0  0  0  0  0  0  0  0  0  0
  188.0900  176.2280  137.6470 C   0  0  0  0  0  1  0  0  0  0  0  0
  189.0940  177.2200  137.0760 C   0  0  0  0  0  0  0  0  0  0  0  0
  188.6340  177.6640  135.6980 C   0  0  0  0  0  1  0  0  0  0  0  0
  188.5330  179.5430  137.3470 O   0  0  0  0  0  1  0  0  0  0  0  0
  189.1470  178.4520  137.9690 C   0  0  0  0  0  2  0  0  0  0  0  0
  1 11  2  0  0  0  0
  3 12  2  0  0  0  0
  4  2  2  0  0  0  0
  5  7  2  0  0  0  0
  5  3  1  0  0  0  0
  6  7  1  0  0  0  0
  7  4  1  0  0  0  0
  8  5  1  0  0  0  0
  9 11  1  0  0  0  0
 10  8  1  0  0  0  0
 10  6  2  0  0  0  0
 11  8  1  0  0  0  0
 12  2  1  0  0  0  0
 13 14  2  0  0  0  0
 13  3  1  0  0  0  0
 15 18  1  0  0  0  0
 16 14  1  0  0  0  0
 16 18  2  0  0  0  0
 17 19  2  0  0  0  0
 17 20  1  0  0  0  0
 19 16  1  0  0  0  0
 20 15  2  0  0  0  0
 21 17  1  0  0  0  0
 22 21  1  0  0  0  0
 23 22  1  0  0  0  0
 24 10  1  0  0  0  0
 25 24  1  0  0  0  0
 26 25  1  0  0  0  0
 27 28  2  0  0  0  0
 27 26  1  0  0  0  0
 29 31  1  0  0  0  0
 29 27  1  0  0  0  0
 31 30  1  0  0  0  0
 31 34  1  0  0  0  0
 32 31  1  0  0  0  0
 33 34  1  0  0  0  0
M  END
>  <MODEL>
8

>  <REMARK>
 VINA RESULT:      -7.4      1.225      1.518
  Name = 
  11 active torsions:
  status: ('A' for Active; 'I' for Inactive)
    1  A    between atoms: O_1  and  C_9
    2  A    between atoms: O_1  and  N_22
    3  A    between atoms: C_4  and  C_6
    4  A    between atoms: C_4  and  O_24
    5  A    between atoms: C_6  and  N_18
    6  A    between atoms: C_7  and  C_28
    7  A    between atoms: C_8  and  C_29
    8  A    between atoms: C_11  and  N_18
    9  A    between atoms: C_11  and  C_30
   10  A    between atoms: C_14  and  C_17
   11  A    between atoms: O_24  and  C_28
                            x       y       z     vdW  Elec       q    Type
                         _______ _______ _______ _____ _____    ______ ____

>  <TORSDO>
F 11

$$$$
=
 OpenBabel10232409553D

 34 36  0  0  0  0  0  0  0  0999 V2000
  188.2120  177.2630  140.5560 O   0  0  0  0  0  0  0  0  0  0  0  0
  182.8540  178.7860  143.3140 C   0  0  0  0  0  3  0  0  0  0  0  0
  185.2740  178.3720  143.3030 C   0  0  0  0  0  0  0  0  0  0  0  0
  182.8390  178.8770  141.9130 C   0  0  0  0  0  3  0  0  0  0  0  0
  185.2300  178.5000  141.9010 C   0  0  0  0  0  0  0  0  0  0  0  0
  184.2390  178.7530  139.9120 N   0  0  0  0  0  0  0  0  0  0  0  0
  184.0490  178.7260  141.2420 C   0  0  0  0  0  0  0  0  0  0  0  0
  186.2100  178.3840  140.9780 N   0  0  0  0  0  0  0  0  0  0  0  0
  188.4190  179.1660  141.9610 C   0  0  0  0  0  1  0  0  0  0  0  0
  185.5720  178.5400  139.7890 C   0  0  0  0  0  0  0  0  0  0  0  0
  187.6210  178.1970  141.1580 C   0  0  0  0  0  0  0  0  0  0  0  0
  184.0580  178.5320  144.0020 C   0  0  0  0  0  3  0  0  0  0  0  0
  186.5210  178.0700  144.0250 C   0  0  0  0  0  3  0  0  0  0  0  0
  186.5950  178.0080  145.3530 C   0  0  0  0  0  3  0  0  0  0  0  0
  189.0260  177.4730  148.1680 C   0  0  0  0  0  3  0  0  0  0  0  0
  187.8510  177.7320  146.0630 C   0  0  0  0  0  0  0  0  0  0  0  0
  190.2430  177.2850  146.0760 C   0  0  0  0  0  0  0  0  0  0  0  0
  187.8450  177.7120  147.4610 C   0  0  0  0  0  3  0  0  0  0  0  0
  189.0560  177.5170  145.3740 C   0  0  0  0  0  3  0  0  0  0  0  0
  190.2230  177.2640  147.4780 C   0  0  0  0  0  3  0  0  0  0  0  0
  191.4270  177.0800  145.3650 O   0  0  0  0  0  0  0  0  0  0  0  0
  191.4920  176.1920  144.3130 N   0  0  0  0  0  2  0  0  0  0  0  0
  191.6060  176.9850  143.1030 C   0  0  0  0  0  1  0  0  0  0  0  0
  186.2570  178.4850  138.4640 C   0  0  0  0  0  2  0  0  0  0  0  0
  185.4250  177.7730  137.5100 N   0  0  0  0  0  2  0  0  0  0  0  0
  186.1590  176.5800  137.1280 C   0  0  0  0  0  2  0  0  0  0  0  0
  186.9240  176.8450  135.8800 C   0  0  0  0  0  0  0  0  0  0  0  0
  186.4340  177.6100  135.0050 O   0  0  0  0  0  0  0  0  0  0  0  0
  188.1650  176.2220  135.6860 O   0  0  0  0  0  0  0  0  0  0  0  0
  189.3590  178.1190  136.6370 C   0  0  0  0  0  1  0  0  0  0  0  0
  189.3830  176.6300  136.3200 C   0  0  0  0  0  0  0  0  0  0  0  0
  190.5720  176.3260  135.4240 C   0  0  0  0  0  1  0  0  0  0  0  0
  189.5080  174.4690  137.3670 O   0  0  0  0  0  1  0  0  0  0  0  0
  189.5610  175.8440  137.6120 C   0  0  0  0  0  2  0  0  0  0  0  0
  1 11  2  0  0  0  0
  2 12  1  0  0  0  0
  3 12  2  0  0  0  0
  3 13  1  0  0  0  0
  4  2  2  0  0  0  0
  5  3  1  0  0  0  0
  6  7  1  0  0  0  0
  7  5  2  0  0  0  0
  7  4  1  0  0  0  0
  8 11  1  0  0  0  0
  8  5  1  0  0  0  0
 10  6  2  0  0  0  0
 10  8  1  0  0  0  0
 11  9  1  0  0  0  0
 13 14  2  0  0  0  0
 14 16  1  0  0  0  0
 16 18  1  0  0  0  0
 17 20  2  0  0  0  0
 18 15  2  0  0  0  0
 19 16  2  0  0  0  0
 19 17  1  0  0  0  0
 20 15  1  0  0  0  0
 21 17  1  0  0  0  0
 22 21  1  0  0  0  0
 23 22  1  0  0  0  0
 24 10  1  0  0  0  0
 25 24  1  0  0  0  0
 26 25  1  0  0  0  0
 27 26  1  0  0  0  0
 28 27  2  0  0  0  0
 29 27  1  0  0  0  0
 29 31  1  0  0  0  0
 31 30  1  0  0  0  0
 31 34  1  0  0  0  0
 32 31  1  0  0  0  0
 33 34  1  0  0  0  0
M  END
>  <MODEL>
9

>  <REMARK>
 VINA RESULT:      -7.1      1.813      6.110
  Name = 
  11 active torsions:
  status: ('A' for Active; 'I' for Inactive)
    1  A    between atoms: O_1  and  C_9
    2  A    between atoms: O_1  and  N_22
    3  A    between atoms: C_4  and  C_6
    4  A    between atoms: C_4  and  O_24
    5  A    between atoms: C_6  and  N_18
    6  A    between atoms: C_7  and  C_28
    7  A    between atoms: C_8  and  C_29
    8  A    between atoms: C_11  and  N_18
    9  A    between atoms: C_11  and  C_30
   10  A    between atoms: C_14  and  C_17
   11  A    between atoms: O_24  and  C_28
                            x       y       z     vdW  Elec       q    Type
                         _______ _______ _______ _____ _____    ______ ____

>  <TORSDO>
F 11

$$$$
