=
 OpenBabel10232409423D

 35 39  0  0  1  0  0  0  0  0999 V2000
  187.7850  178.0350  137.8440 C   0  0  1  0  0  3  0  0  0  0  0  0
  188.3800  179.3610  137.3870 C   0  0  0  0  0  1  0  0  0  0  0  0
  189.2760  175.6050  142.3420 O   0  0  0  0  0  0  0  0  0  0  0  0
  187.0640  178.0670  141.1940 C   0  0  1  0  0  3  0  0  0  0  0  0
  190.0540  177.2090  140.8450 N   0  0  0  0  0  0  0  0  0  0  0  0
  189.1260  176.7530  141.8400 C   0  0  0  0  0  0  0  0  0  0  0  0
  187.7490  178.7330  140.1700 O   0  0  0  0  0  0  0  0  0  0  0  0
  189.6610  177.4420  139.4470 C   0  0  1  0  0  3  0  0  0  0  0  0
  187.2640  177.0590  143.5050 C   0  0  0  0  0  2  0  0  0  0  0  0
  188.0320  177.6730  142.3280 C   0  0  2  0  0  3  0  0  0  0  0  0
  189.0180  174.9540  135.1740 C   0  0  0  0  0  3  0  0  0  0  0  0
  185.2140  178.3280  142.8710 C   0  0  1  0  0  3  0  0  0  0  0  0
  189.3360  176.1090  137.2610 C   0  0  0  0  0  0  0  0  0  0  0  0
  188.2360  176.9270  136.9330 C   0  0  0  0  0  0  0  0  0  0  0  0
  191.0140  175.5420  138.8470 O   0  0  0  0  0  0  0  0  0  0  0  0
  185.9630  178.9860  141.7180 C   0  0  0  0  0  2  0  0  0  0  0  0
  190.0500  176.2960  138.5440 C   0  0  0  0  0  0  0  0  0  0  0  0
  186.1830  178.0110  144.0020 C   0  0  0  0  0  2  0  0  0  0  0  0
  189.7200  175.1090  136.3660 C   0  0  0  0  0  3  0  0  0  0  0  0
  187.9700  175.7740  134.9010 N   0  0  0  0  0  0  0  0  0  0  0  0
  187.5920  176.7300  135.7510 N   0  0  0  0  0  0  0  0  0  0  0  0
  188.1560  177.7200  139.2990 C   0  0  2  0  0  3  0  0  0  0  0  0
  183.3490  179.9490  143.7430 N   0  0  0  0  0  0  0  0  0  0  0  0
  184.1730  179.2340  143.3580 C   0  0  0  0  0  0  0  0  0  0  0  0
  191.4610  177.3340  141.1990 C   0  0  0  0  0  2  0  0  0  0  0  0
  191.6390  177.1720  142.6970 C   0  0  0  0  0  2  0  0  0  0  0  0
  192.0460  178.4390  143.2750 N   0  0  0  0  0  2  0  0  0  0  0  0
  190.9830  178.8440  144.1790 C   0  0  0  0  0  2  0  0  0  0  0  0
  192.4870  176.0900  147.7610 O   0  0  0  0  0  0  0  0  0  0  0  0
  190.1370  176.3290  147.5690 C   0  0  0  0  0  3  0  0  0  0  0  0
  191.7370  177.3390  145.9380 N   0  0  0  0  0  2  0  0  0  0  0  0
  189.3890  178.0510  145.9480 C   0  0  0  0  0  2  0  0  0  0  0  0
  190.6030  177.6870  145.0850 C   0  0  1  0  0  3  0  0  0  0  0  0
  191.5150  176.5630  147.1190 C   0  0  0  0  0  0  0  0  0  0  0  0
  189.1330  176.9950  146.9920 C   0  0  0  0  0  3  0  0  0  0  0  0
  1  2  1  6  0  0  0
  1 22  1  0  0  0  0
  4 16  1  1  0  0  0
  4 10  1  0  0  0  0
  5 25  1  0  0  0  0
  5  6  1  0  0  0  0
  6 10  1  0  0  0  0
  6  3  2  0  0  0  0
  7  4  1  0  0  0  0
  8 17  1  6  0  0  0
  8  5  1  0  0  0  0
  9 18  1  0  0  0  0
 10  9  1  1  0  0  0
 11 19  1  0  0  0  0
 12 24  1  1  0  0  0
 12 18  1  0  0  0  0
 13 17  1  0  0  0  0
 14 13  1  0  0  0  0
 14  1  1  0  0  0  0
 16 12  1  0  0  0  0
 17 15  2  0  0  0  0
 19 13  2  0  0  0  0
 20 11  2  0  0  0  0
 20 21  1  0  0  0  0
 21 14  2  0  0  0  0
 22  8  1  0  0  0  0
 22  7  1  1  0  0  0
 24 23  3  0  0  0  0
 25 26  1  0  0  0  0
 26 27  1  0  0  0  0
 27 28  1  0  0  0  0
 31 34  1  0  0  0  0
 32 35  1  0  0  0  0
 33 28  1  1  0  0  0
 33 31  1  0  0  0  0
 33 32  1  0  0  0  0
 34 30  1  0  0  0  0
 34 29  2  0  0  0  0
 35 30  2  0  0  0  0
M  END
>  <MODEL>
1

>  <REMARK>
 VINA RESULT:      -9.1      0.000      0.000
  Name = 
  6 active torsions:
  status: ('A' for Active; 'I' for Inactive)
    1  A    between atoms: C_8  and  N_31
    2  A    between atoms: C_8  and  C_33
    3  A    between atoms: N_9  and  C_33
    4  A    between atoms: C_17  and  C_32
    5  A    between atoms: C_18  and  C_23
    6  A    between atoms: C_18  and  N_31
                            x       y       z     vdW  Elec       q    Type
                         _______ _______ _______ _____ _____    ______ ____

>  <TORSDO>
F 6

$$$$
=
 OpenBabel10232409423D

 35 39  0  0  1  0  0  0  0  0999 V2000
  188.1320  177.8530  137.8710 C   0  0  1  0  0  3  0  0  0  0  0  0
  188.6570  179.2000  137.3940 C   0  0  0  0  0  1  0  0  0  0  0  0
  188.4890  176.2520  142.9380 O   0  0  0  0  0  0  0  0  0  0  0  0
  186.4260  178.1410  140.8280 C   0  0  1  0  0  3  0  0  0  0  0  0
  189.4650  177.7850  141.4840 N   0  0  0  0  0  0  0  0  0  0  0  0
  188.3470  177.2900  142.2350 C   0  0  0  0  0  0  0  0  0  0  0  0
  187.2960  178.7950  139.9470 O   0  0  0  0  0  0  0  0  0  0  0  0
  189.4910  177.7840  140.0130 C   0  0  1  0  0  3  0  0  0  0  0  0
  186.0430  177.4540  143.2320 C   0  0  0  0  0  2  0  0  0  0  0  0
  187.0450  178.0550  142.2380 C   0  0  2  0  0  3  0  0  0  0  0  0
  190.5190  174.7490  136.1930 C   0  0  0  0  0  3  0  0  0  0  0  0
  184.1350  178.2650  141.8480 C   0  0  1  0  0  3  0  0  0  0  0  0
  190.0290  176.1740  138.0700 C   0  0  0  0  0  0  0  0  0  0  0  0
  188.9830  176.7430  137.3160 C   0  0  0  0  0  0  0  0  0  0  0  0
  191.2020  176.0940  140.1360 O   0  0  0  0  0  0  0  0  0  0  0  0
  185.1060  178.9080  140.8640 C   0  0  0  0  0  2  0  0  0  0  0  0
  190.2860  176.6280  139.4550 C   0  0  0  0  0  0  0  0  0  0  0  0
  184.7450  178.2530  143.2420 C   0  0  0  0  0  2  0  0  0  0  0  0
  190.7970  175.1610  137.4940 C   0  0  0  0  0  3  0  0  0  0  0  0
  189.5060  175.3360  135.5060 N   0  0  0  0  0  0  0  0  0  0  0  0
  188.7630  176.3030  136.0490 N   0  0  0  0  0  0  0  0  0  0  0  0
  188.0810  177.7750  139.4020 C   0  0  2  0  0  3  0  0  0  0  0  0
  181.8950  179.6260  141.8810 N   0  0  0  0  0  0  0  0  0  0  0  0
  182.8840  179.0240  141.8670 C   0  0  0  0  0  0  0  0  0  0  0  0
  190.6680  178.1940  142.1980 C   0  0  0  0  0  2  0  0  0  0  0  0
  191.1040  177.1010  143.1540 C   0  0  0  0  0  2  0  0  0  0  0  0
  191.3720  177.6780  144.4580 N   0  0  0  0  0  2  0  0  0  0  0  0
  190.6770  176.8520  145.4300 C   0  0  0  0  0  2  0  0  0  0  0  0
  186.1340  177.7830  146.5120 O   0  0  0  0  0  0  0  0  0  0  0  0
  187.7130  178.2740  148.2090 C   0  0  0  0  0  3  0  0  0  0  0  0
  188.3720  177.4430  145.9480 N   0  0  0  0  0  2  0  0  0  0  0  0
  190.0080  177.4400  147.7770 C   0  0  0  0  0  2  0  0  0  0  0  0
  189.7680  177.7140  146.2870 C   0  0  1  0  0  3  0  0  0  0  0  0
  187.3410  177.8270  146.8610 C   0  0  0  0  0  0  0  0  0  0  0  0
  188.9730  178.1320  148.6260 C   0  0  0  0  0  3  0  0  0  0  0  0
  1  2  1  1  0  0  0
  1 22  1  0  0  0  0
  4 16  1  1  0  0  0
  4 10  1  0  0  0  0
  5 25  1  0  0  0  0
  5  6  1  0  0  0  0
  6 10  1  0  0  0  0
  6  3  2  0  0  0  0
  7  4  1  0  0  0  0
  8 17  1  1  0  0  0
  8  5  1  0  0  0  0
  9 18  1  0  0  0  0
 10  9  1  1  0  0  0
 11 19  1  0  0  0  0
 12 24  1  1  0  0  0
 12 18  1  0  0  0  0
 13 17  1  0  0  0  0
 14  1  1  0  0  0  0
 14 13  1  0  0  0  0
 16 12  1  0  0  0  0
 17 15  2  0  0  0  0
 19 13  2  0  0  0  0
 20 21  1  0  0  0  0
 20 11  2  0  0  0  0
 21 14  2  0  0  0  0
 22  7  1  1  0  0  0
 22  8  1  0  0  0  0
 24 23  3  0  0  0  0
 25 26  1  0  0  0  0
 26 27  1  0  0  0  0
 27 28  1  0  0  0  0
 29 34  2  0  0  0  0
 30 35  2  0  0  0  0
 31 33  1  0  0  0  0
 31 34  1  0  0  0  0
 32 35  1  0  0  0  0
 33 28  1  6  0  0  0
 33 32  1  0  0  0  0
 34 30  1  0  0  0  0
M  END
>  <MODEL>
2

>  <REMARK>
 VINA RESULT:      -8.0      1.652      2.039
  Name = 
  6 active torsions:
  status: ('A' for Active; 'I' for Inactive)
    1  A    between atoms: C_8  and  N_31
    2  A    between atoms: C_8  and  C_33
    3  A    between atoms: N_9  and  C_33
    4  A    between atoms: C_17  and  C_32
    5  A    between atoms: C_18  and  C_23
    6  A    between atoms: C_18  and  N_31
                            x       y       z     vdW  Elec       q    Type
                         _______ _______ _______ _____ _____    ______ ____

>  <TORSDO>
F 6

$$$$
=
 OpenBabel10232409423D

 35 39  0  0  1  0  0  0  0  0999 V2000
  188.9790  174.6710  136.2940 C   0  0  1  0  0  3  0  0  0  0  0  0
  188.1040  173.9390  137.3040 C   0  0  0  0  0  1  0  0  0  0  0  0
  193.4640  177.1950  137.6610 O   0  0  0  0  0  0  0  0  0  0  0  0
  192.3030  174.0060  136.7920 C   0  0  1  0  0  3  0  0  0  0  0  0
  191.5000  176.4080  138.6310 N   0  0  0  0  0  0  0  0  0  0  0  0
  192.7560  176.1980  137.9700 C   0  0  0  0  0  0  0  0  0  0  0  0
  191.0250  173.9100  137.3570 O   0  0  0  0  0  0  0  0  0  0  0  0
  190.2120  176.0950  137.9950 C   0  0  1  0  0  3  0  0  0  0  0  0
  194.6790  174.7880  137.1640 C   0  0  0  0  0  2  0  0  0  0  0  0
  193.2500  174.7910  137.7210 C   0  0  2  0  0  3  0  0  0  0  0  0
  186.8910  178.0950  134.8580 C   0  0  0  0  0  3  0  0  0  0  0  0
  194.2460  172.6400  135.9770 C   0  0  1  0  0  3  0  0  0  0  0  0
  188.5260  177.1700  136.3630 C   0  0  0  0  0  0  0  0  0  0  0  0
  188.2730  175.9030  135.7990 C   0  0  0  0  0  0  0  0  0  0  0  0
  189.7820  178.4630  137.9130 O   0  0  0  0  0  0  0  0  0  0  0  0
  192.8330  172.5950  136.5490 C   0  0  0  0  0  2  0  0  0  0  0  0
  189.5360  177.3230  137.4340 C   0  0  0  0  0  0  0  0  0  0  0  0
  195.1710  173.3630  136.9450 C   0  0  0  0  0  2  0  0  0  0  0  0
  187.8250  178.2740  135.8750 C   0  0  0  0  0  3  0  0  0  0  0  0
  186.6780  176.8520  134.3550 N   0  0  0  0  0  0  0  0  0  0  0  0
  187.3450  175.7900  134.8110 N   0  0  0  0  0  0  0  0  0  0  0  0
  190.3450  175.0370  136.8880 C   0  0  2  0  0  3  0  0  0  0  0  0
  195.1140  170.1970  135.5940 N   0  0  0  0  0  0  0  0  0  0  0  0
  194.7300  171.2750  135.7630 C   0  0  0  0  0  0  0  0  0  0  0  0
  191.4900  177.0650  139.9310 C   0  0  0  0  0  2  0  0  0  0  0  0
  190.3170  176.5720  140.7560 C   0  0  0  0  0  2  0  0  0  0  0  0
  190.1260  177.4480  141.8970 N   0  0  0  0  0  2  0  0  0  0  0  0
  191.1930  177.1470  142.8370 C   0  0  0  0  0  2  0  0  0  0  0  0
  192.0940  176.6530  147.4860 O   0  0  0  0  0  0  0  0  0  0  0  0
  189.8150  176.9560  146.9110 C   0  0  0  0  0  3  0  0  0  0  0  0
  191.6300  176.7750  145.2030 N   0  0  0  0  0  2  0  0  0  0  0  0
  189.4080  177.5830  144.5460 C   0  0  0  0  0  2  0  0  0  0  0  0
  190.6050  176.7040  144.1630 C   0  0  1  0  0  3  0  0  0  0  0  0
  191.2350  176.7870  146.5770 C   0  0  0  0  0  0  0  0  0  0  0  0
  188.9490  177.2900  145.9500 C   0  0  0  0  0  3  0  0  0  0  0  0
  1 22  1  0  0  0  0
  1  2  1  1  0  0  0
  3  6  2  0  0  0  0
  4 16  1  1  0  0  0
  4  7  1  0  0  0  0
  4 10  1  0  0  0  0
  5 25  1  0  0  0  0
  6  5  1  0  0  0  0
  8 17  1  6  0  0  0
  8  5  1  0  0  0  0
 10  9  1  6  0  0  0
 10  6  1  0  0  0  0
 11 19  1  0  0  0  0
 12 24  1  1  0  0  0
 12 16  1  0  0  0  0
 12 18  1  0  0  0  0
 13 17  1  0  0  0  0
 14  1  1  0  0  0  0
 14 13  1  0  0  0  0
 17 15  2  0  0  0  0
 18  9  1  0  0  0  0
 19 13  2  0  0  0  0
 20 21  1  0  0  0  0
 20 11  2  0  0  0  0
 21 14  2  0  0  0  0
 22  7  1  1  0  0  0
 22  8  1  0  0  0  0
 23 24  3  0  0  0  0
 25 26  1  0  0  0  0
 26 27  1  0  0  0  0
 27 28  1  0  0  0  0
 31 34  1  0  0  0  0
 32 35  1  0  0  0  0
 33 28  1  6  0  0  0
 33 32  1  0  0  0  0
 33 31  1  0  0  0  0
 34 30  1  0  0  0  0
 34 29  2  0  0  0  0
 35 30  2  0  0  0  0
M  END
>  <MODEL>
3

>  <REMARK>
 VINA RESULT:      -7.3      3.028      6.429
  Name = 
  6 active torsions:
  status: ('A' for Active; 'I' for Inactive)
    1  A    between atoms: C_8  and  N_31
    2  A    between atoms: C_8  and  C_33
    3  A    between atoms: N_9  and  C_33
    4  A    between atoms: C_17  and  C_32
    5  A    between atoms: C_18  and  C_23
    6  A    between atoms: C_18  and  N_31
                            x       y       z     vdW  Elec       q    Type
                         _______ _______ _______ _____ _____    ______ ____

>  <TORSDO>
F 6

$$$$
=
 OpenBabel10232409423D

 35 39  0  0  1  0  0  0  0  0999 V2000
  193.0850  175.2110  137.7980 C   0  0  1  0  0  3  0  0  0  0  0  0
  192.8760  173.7040  137.7300 C   0  0  0  0  0  1  0  0  0  0  0  0
  189.1510  178.7090  136.9910 O   0  0  0  0  0  0  0  0  0  0  0  0
  190.5670  176.7560  139.5320 C   0  0  1  0  0  3  0  0  0  0  0  0
  189.6730  176.4840  136.5460 N   0  0  0  0  0  0  0  0  0  0  0  0
  189.3710  177.5550  137.4520 C   0  0  0  0  0  0  0  0  0  0  0  0
  190.9560  175.5630  138.9110 O   0  0  0  0  0  0  0  0  0  0  0  0
  190.9890  175.8290  136.5080 C   0  0  1  0  0  3  0  0  0  0  0  0
  188.7520  178.5100  139.6960 C   0  0  0  0  0  2  0  0  0  0  0  0
  189.2450  177.2750  138.9320 C   0  0  2  0  0  3  0  0  0  0  0  0
  195.5240  176.4330  134.5260 C   0  0  0  0  0  3  0  0  0  0  0  0
  189.9430  177.7520  141.7510 C   0  0  1  0  0  3  0  0  0  0  0  0
  193.3220  176.1890  135.4650 C   0  0  0  0  0  0  0  0  0  0  0  0
  193.9180  175.6690  136.6310 C   0  0  0  0  0  0  0  0  0  0  0  0
  191.3250  176.8350  134.3460 O   0  0  0  0  0  0  0  0  0  0  0  0
  190.4140  176.4950  141.0290 C   0  0  0  0  0  2  0  0  0  0  0  0
  191.8520  176.3400  135.3800 C   0  0  0  0  0  0  0  0  0  0  0  0
  188.6050  178.2040  141.1820 C   0  0  0  0  0  2  0  0  0  0  0  0
  194.1450  176.5780  134.4060 C   0  0  0  0  0  3  0  0  0  0  0  0
  196.0480  175.9190  135.6680 N   0  0  0  0  0  0  0  0  0  0  0  0
  195.2710  175.5470  136.6870 N   0  0  0  0  0  0  0  0  0  0  0  0
  191.7510  175.9670  137.8350 C   0  0  2  0  0  3  0  0  0  0  0  0
  189.6820  177.2470  144.3100 N   0  0  0  0  0  0  0  0  0  0  0  0
  189.7970  177.4690  143.1800 C   0  0  0  0  0  0  0  0  0  0  0  0
  188.6830  176.1090  135.5440 C   0  0  0  0  0  2  0  0  0  0  0  0
  187.6070  175.2440  136.1720 C   0  0  0  0  0  2  0  0  0  0  0  0
  186.3150  175.6020  135.6180 N   0  0  0  0  0  2  0  0  0  0  0  0
  186.0530  176.9720  136.0250 C   0  0  0  0  0  2  0  0  0  0  0  0
  184.7520  179.8040  139.6250 O   0  0  0  0  0  0  0  0  0  0  0  0
  183.6030  177.7360  139.4810 C   0  0  0  0  0  3  0  0  0  0  0  0
  185.4660  178.3600  137.9370 N   0  0  0  0  0  2  0  0  0  0  0  0
  184.0210  176.4490  137.4030 C   0  0  0  0  0  2  0  0  0  0  0  0
  185.4550  176.9930  137.4190 C   0  0  1  0  0  3  0  0  0  0  0  0
  184.6210  178.6980  139.0410 C   0  0  0  0  0  0  0  0  0  0  0  0
  183.3490  176.6580  138.7350 C   0  0  0  0  0  3  0  0  0  0  0  0
  1  2  1  6  0  0  0
  1 22  1  0  0  0  0
  3  6  2  0  0  0  0
  4 16  1  1  0  0  0
  5  6  1  0  0  0  0
  6 10  1  0  0  0  0
  7  4  1  0  0  0  0
  8 17  1  6  0  0  0
  8  5  1  0  0  0  0
  8 22  1  0  0  0  0
  9 18  1  0  0  0  0
 10  4  1  0  0  0  0
 10  9  1  1  0  0  0
 11 20  1  0  0  0  0
 12 24  1  1  0  0  0
 13 14  2  0  0  0  0
 14 21  1  0  0  0  0
 14  1  1  0  0  0  0
 15 17  2  0  0  0  0
 16 12  1  0  0  0  0
 17 13  1  0  0  0  0
 18 12  1  0  0  0  0
 19 11  2  0  0  0  0
 19 13  1  0  0  0  0
 20 21  2  0  0  0  0
 22  7  1  1  0  0  0
 24 23  3  0  0  0  0
 25 26  1  0  0  0  0
 25  5  1  0  0  0  0
 27 28  1  0  0  0  0
 27 26  1  0  0  0  0
 31 34  1  0  0  0  0
 32 33  1  0  0  0  0
 32 35  1  0  0  0  0
 33 28  1  6  0  0  0
 33 31  1  0  0  0  0
 34 30  1  0  0  0  0
 34 29  2  0  0  0  0
 35 30  2  0  0  0  0
M  END
>  <MODEL>
4

>  <REMARK>
 VINA RESULT:      -7.0      3.410      7.094
  Name = 
  6 active torsions:
  status: ('A' for Active; 'I' for Inactive)
    1  A    between atoms: C_8  and  N_31
    2  A    between atoms: C_8  and  C_33
    3  A    between atoms: N_9  and  C_33
    4  A    between atoms: C_17  and  C_32
    5  A    between atoms: C_18  and  C_23
    6  A    between atoms: C_18  and  N_31
                            x       y       z     vdW  Elec       q    Type
                         _______ _______ _______ _____ _____    ______ ____

>  <TORSDO>
F 6

$$$$
=
 OpenBabel10232409423D

 35 39  0  0  1  0  0  0  0  0999 V2000
  188.8860  174.7640  136.2430 C   0  0  1  0  0  3  0  0  0  0  0  0
  187.9820  173.9790  137.1840 C   0  0  0  0  0  1  0  0  0  0  0  0
  193.3190  177.2180  137.8810 O   0  0  0  0  0  0  0  0  0  0  0  0
  192.1950  174.0780  136.8110 C   0  0  1  0  0  3  0  0  0  0  0  0
  191.3270  176.3790  138.7460 N   0  0  0  0  0  0  0  0  0  0  0  0
  192.6050  176.2050  138.1150 C   0  0  0  0  0  0  0  0  0  0  0  0
  190.9000  173.9500  137.3290 O   0  0  0  0  0  0  0  0  0  0  0  0
  190.0610  176.0980  138.0530 C   0  0  1  0  0  3  0  0  0  0  0  0
  194.5560  174.8410  137.2990 C   0  0  0  0  0  2  0  0  0  0  0  0
  193.1100  174.8140  137.8100 C   0  0  2  0  0  3  0  0  0  0  0  0
  186.8360  178.2560  134.9220 C   0  0  0  0  0  3  0  0  0  0  0  0
  194.1660  172.7580  135.9880 C   0  0  1  0  0  3  0  0  0  0  0  0
  188.4250  177.2550  136.4270 C   0  0  0  0  0  0  0  0  0  0  0  0
  188.1930  176.0200  135.7900 C   0  0  0  0  0  0  0  0  0  0  0  0
  189.6270  178.4670  138.0820 O   0  0  0  0  0  0  0  0  0  0  0  0
  192.7360  172.6810  136.5110 C   0  0  0  0  0  2  0  0  0  0  0  0
  189.4000  177.3540  137.5360 C   0  0  0  0  0  0  0  0  0  0  0  0
  195.0590  173.4300  137.0220 C   0  0  0  0  0  2  0  0  0  0  0  0
  187.7370  178.3830  135.9760 C   0  0  0  0  0  3  0  0  0  0  0  0
  186.6430  177.0410  134.3470 N   0  0  0  0  0  0  0  0  0  0  0  0
  187.2980  175.9580  134.7680 N   0  0  0  0  0  0  0  0  0  0  0  0
  190.2320  175.0990  136.8980 C   0  0  2  0  0  3  0  0  0  0  0  0
  195.0530  170.3390  135.5050 N   0  0  0  0  0  0  0  0  0  0  0  0
  194.6600  171.4070  135.7180 C   0  0  0  0  0  0  0  0  0  0  0  0
  191.2740  176.9670  140.0780 C   0  0  0  0  0  2  0  0  0  0  0  0
  190.0550  176.4610  140.8240 C   0  0  0  0  0  2  0  0  0  0  0  0
  189.6240  177.4610  141.7820 N   0  0  0  0  0  2  0  0  0  0  0  0
  188.6420  176.8210  142.6400 C   0  0  0  0  0  2  0  0  0  0  0  0
  185.8230  177.7370  146.3670 O   0  0  0  0  0  0  0  0  0  0  0  0
  188.1520  177.8560  146.7900 C   0  0  0  0  0  3  0  0  0  0  0  0
  187.2100  177.4080  144.5200 N   0  0  0  0  0  2  0  0  0  0  0  0
  189.5930  177.0160  144.9550 C   0  0  0  0  0  2  0  0  0  0  0  0
  188.5540  177.5560  143.9650 C   0  0  1  0  0  3  0  0  0  0  0  0
  186.9920  177.6690  145.9090 C   0  0  0  0  0  0  0  0  0  0  0  0
  189.3780  177.5900  146.3310 C   0  0  0  0  0  3  0  0  0  0  0  0
  1 22  1  0  0  0  0
  1  2  1  1  0  0  0
  3  6  2  0  0  0  0
  4 16  1  1  0  0  0
  4  7  1  0  0  0  0
  4 10  1  0  0  0  0
  5 25  1  0  0  0  0
  6  5  1  0  0  0  0
  8 17  1  6  0  0  0
  8  5  1  0  0  0  0
 10  9  1  6  0  0  0
 10  6  1  0  0  0  0
 11 19  1  0  0  0  0
 12 24  1  1  0  0  0
 12 16  1  0  0  0  0
 12 18  1  0  0  0  0
 13 17  1  0  0  0  0
 14  1  1  0  0  0  0
 14 13  1  0  0  0  0
 17 15  2  0  0  0  0
 18  9  1  0  0  0  0
 19 13  2  0  0  0  0
 20 21  1  0  0  0  0
 20 11  2  0  0  0  0
 21 14  2  0  0  0  0
 22  7  1  1  0  0  0
 22  8  1  0  0  0  0
 23 24  3  0  0  0  0
 25 26  1  0  0  0  0
 26 27  1  0  0  0  0
 27 28  1  0  0  0  0
 31 34  1  0  0  0  0
 32 35  1  0  0  0  0
 33 28  1  6  0  0  0
 33 31  1  0  0  0  0
 33 32  1  0  0  0  0
 34 29  2  0  0  0  0
 34 30  1  0  0  0  0
 35 30  2  0  0  0  0
M  END
>  <MODEL>
5

>  <REMARK>
 VINA RESULT:      -6.9      3.228      6.611
  Name = 
  6 active torsions:
  status: ('A' for Active; 'I' for Inactive)
    1  A    between atoms: C_8  and  N_31
    2  A    between atoms: C_8  and  C_33
    3  A    between atoms: N_9  and  C_33
    4  A    between atoms: C_17  and  C_32
    5  A    between atoms: C_18  and  C_23
    6  A    between atoms: C_18  and  N_31
                            x       y       z     vdW  Elec       q    Type
                         _______ _______ _______ _____ _____    ______ ____

>  <TORSDO>
F 6

$$$$
=
 OpenBabel10232409423D

 35 39  0  0  1  0  0  0  0  0999 V2000
  191.6540  177.8840  143.8740 C   0  0  1  0  0  3  0  0  0  0  0  0
  192.1030  179.3190  144.1130 C   0  0  0  0  0  1  0  0  0  0  0  0
  187.8500  176.5950  140.3770 O   0  0  0  0  0  0  0  0  0  0  0  0
  191.2950  177.2140  140.5340 C   0  0  1  0  0  3  0  0  0  0  0  0
  188.6120  178.4380  141.5790 N   0  0  0  0  0  0  0  0  0  0  0  0
  188.7760  177.4310  140.5700 C   0  0  0  0  0  0  0  0  0  0  0  0
  191.4460  178.2340  141.4810 O   0  0  0  0  0  0  0  0  0  0  0  0
  189.4340  178.4750  142.7980 C   0  0  1  0  0  3  0  0  0  0  0  0
  189.9130  176.3850  138.5840 C   0  0  0  0  0  2  0  0  0  0  0  0
  190.0140  177.4290  139.7030 C   0  0  2  0  0  3  0  0  0  0  0  0
  189.6500  176.4510  147.3490 C   0  0  0  0  0  3  0  0  0  0  0  0
  192.3940  176.1400  138.5470 C   0  0  1  0  0  3  0  0  0  0  0  0
  189.5060  177.3960  145.1400 C   0  0  0  0  0  0  0  0  0  0  0  0
  190.9140  177.3690  145.0780 C   0  0  0  0  0  0  0  0  0  0  0  0
  187.4560  177.8860  144.0390 O   0  0  0  0  0  0  0  0  0  0  0  0
  192.5270  177.2040  139.6310 C   0  0  0  0  0  2  0  0  0  0  0  0
  188.7160  177.8930  143.9920 C   0  0  0  0  0  0  0  0  0  0  0  0
  191.1570  176.4150  137.7040 C   0  0  0  0  0  2  0  0  0  0  0  0
  188.8750  176.9230  146.2930 C   0  0  0  0  0  3  0  0  0  0  0  0
  191.0040  176.4540  147.2430 N   0  0  0  0  0  0  0  0  0  0  0  0
  191.6160  176.9000  146.1440 N   0  0  0  0  0  0  0  0  0  0  0  0
  190.7840  177.7640  142.6170 C   0  0  2  0  0  3  0  0  0  0  0  0
  194.5240  176.1760  137.0210 N   0  0  0  0  0  0  0  0  0  0  0  0
  193.5830  176.1590  137.6950 C   0  0  0  0  0  0  0  0  0  0  0  0
  187.5130  179.3870  141.4540 C   0  0  0  0  0  2  0  0  0  0  0  0
  186.3680  178.7620  140.6810 C   0  0  0  0  0  2  0  0  0  0  0  0
  185.1610  179.5380  140.8930 N   0  0  0  0  0  2  0  0  0  0  0  0
  184.0470  178.6910  140.5020 C   0  0  0  0  0  2  0  0  0  0  0  0
  183.7270  179.1620  145.2300 O   0  0  0  0  0  0  0  0  0  0  0  0
  181.6790  178.7930  144.0960 C   0  0  0  0  0  3  0  0  0  0  0  0
  183.8880  178.8100  142.9290 N   0  0  0  0  0  2  0  0  0  0  0  0
  181.8140  178.9250  141.6230 C   0  0  0  0  0  2  0  0  0  0  0  0
  183.2220  178.3260  141.7220 C   0  0  1  0  0  3  0  0  0  0  0  0
  183.1390  178.9350  144.1410 C   0  0  0  0  0  0  0  0  0  0  0  0
  181.0580  178.7470  142.9140 C   0  0  0  0  0  3  0  0  0  0  0  0
  1  2  1  1  0  0  0
  1 14  1  0  0  0  0
  3  6  2  0  0  0  0
  4 16  1  6  0  0  0
  4  7  1  0  0  0  0
  5  8  1  0  0  0  0
  6  5  1  0  0  0  0
  8 17  1  1  0  0  0
 10  9  1  6  0  0  0
 10  4  1  0  0  0  0
 10  6  1  0  0  0  0
 12 24  1  6  0  0  0
 12 16  1  0  0  0  0
 13 19  1  0  0  0  0
 14 13  2  0  0  0  0
 14 21  1  0  0  0  0
 17 15  2  0  0  0  0
 17 13  1  0  0  0  0
 18 12  1  0  0  0  0
 18  9  1  0  0  0  0
 19 11  2  0  0  0  0
 20 11  1  0  0  0  0
 21 20  2  0  0  0  0
 22  7  1  6  0  0  0
 22  8  1  0  0  0  0
 22  1  1  0  0  0  0
 23 24  3  0  0  0  0
 25  5  1  0  0  0  0
 26 27  1  0  0  0  0
 26 25  1  0  0  0  0
 28 27  1  0  0  0  0
 30 34  1  0  0  0  0
 31 34  1  0  0  0  0
 32 33  1  0  0  0  0
 32 35  1  0  0  0  0
 33 28  1  6  0  0  0
 33 31  1  0  0  0  0
 34 29  2  0  0  0  0
 35 30  2  0  0  0  0
M  END
>  <MODEL>
6

>  <REMARK>
 VINA RESULT:      -6.9      2.681      7.986
  Name = 
  6 active torsions:
  status: ('A' for Active; 'I' for Inactive)
    1  A    between atoms: C_8  and  N_31
    2  A    between atoms: C_8  and  C_33
    3  A    between atoms: N_9  and  C_33
    4  A    between atoms: C_17  and  C_32
    5  A    between atoms: C_18  and  C_23
    6  A    between atoms: C_18  and  N_31
                            x       y       z     vdW  Elec       q    Type
                         _______ _______ _______ _____ _____    ______ ____

>  <TORSDO>
F 6

$$$$
=
 OpenBabel10232409423D

 35 39  0  0  1  0  0  0  0  0999 V2000
  183.0220  176.5740  137.7930 C   0  0  1  0  0  3  0  0  0  0  0  0
  182.6290  175.7640  139.0210 C   0  0  0  0  0  1  0  0  0  0  0  0
  187.7070  179.0710  137.3660 O   0  0  0  0  0  0  0  0  0  0  0  0
  186.2500  175.9290  136.8400 C   0  0  1  0  0  3  0  0  0  0  0  0
  186.3020  178.1920  139.0010 N   0  0  0  0  0  0  0  0  0  0  0  0
  187.1740  178.0450  137.8710 C   0  0  0  0  0  0  0  0  0  0  0  0
  185.3140  175.7760  137.8710 O   0  0  0  0  0  0  0  0  0  0  0  0
  184.8620  177.9020  138.9290 C   0  0  1  0  0  3  0  0  0  0  0  0
  188.5800  176.7210  136.2570 C   0  0  0  0  0  2  0  0  0  0  0  0
  187.5050  176.6650  137.3500 C   0  0  2  0  0  3  0  0  0  0  0  0
  180.5750  180.0530  137.5680 C   0  0  0  0  0  3  0  0  0  0  0  0
  187.6700  174.6490  135.2120 C   0  0  1  0  0  3  0  0  0  0  0  0
  182.6700  179.0560  138.2060 C   0  0  0  0  0  0  0  0  0  0  0  0
  182.1920  177.8260  137.7130 C   0  0  0  0  0  0  0  0  0  0  0  0
  184.4680  180.2630  139.1880 O   0  0  0  0  0  0  0  0  0  0  0  0
  186.6150  174.5450  136.3080 C   0  0  0  0  0  2  0  0  0  0  0  0
  184.0320  179.1540  138.7770 C   0  0  0  0  0  0  0  0  0  0  0  0
  188.9200  175.3210  135.7620 C   0  0  0  0  0  2  0  0  0  0  0  0
  181.8450  180.1790  138.1230 C   0  0  0  0  0  3  0  0  0  0  0  0
  180.1580  178.8430  137.1150 N   0  0  0  0  0  0  0  0  0  0  0  0
  180.9390  177.7640  137.1860 N   0  0  0  0  0  0  0  0  0  0  0  0
  184.5170  176.9210  137.7980 C   0  0  2  0  0  3  0  0  0  0  0  0
  188.2700  172.2490  134.3470 N   0  0  0  0  0  0  0  0  0  0  0  0
  188.0060  173.3090  134.7290 C   0  0  0  0  0  0  0  0  0  0  0  0
  186.8340  178.7620  140.2320 C   0  0  0  0  0  2  0  0  0  0  0  0
  188.1880  178.1550  140.5450 C   0  0  0  0  0  2  0  0  0  0  0  0
  188.4310  178.2280  141.9740 N   0  0  0  0  0  2  0  0  0  0  0  0
  187.2080  177.7950  142.6270 C   0  0  0  0  0  2  0  0  0  0  0  0
  184.3850  178.7990  146.3280 O   0  0  0  0  0  0  0  0  0  0  0  0
  186.6050  178.1750  146.8730 C   0  0  0  0  0  3  0  0  0  0  0  0
  185.8080  178.4220  144.5180 N   0  0  0  0  0  2  0  0  0  0  0  0
  187.9410  177.2990  144.9760 C   0  0  0  0  0  2  0  0  0  0  0  0
  187.1900  178.2790  144.0650 C   0  0  1  0  0  3  0  0  0  0  0  0
  185.5310  178.4840  145.9200 C   0  0  0  0  0  0  0  0  0  0  0  0
  187.7530  177.6570  146.4270 C   0  0  0  0  0  3  0  0  0  0  0  0
  1 22  1  0  0  0  0
  1  2  1  1  0  0  0
  3  6  2  0  0  0  0
  4 16  1  1  0  0  0
  4 10  1  0  0  0  0
  4  7  1  0  0  0  0
  5 25  1  0  0  0  0
  6  5  1  0  0  0  0
  8 17  1  6  0  0  0
  8  5  1  0  0  0  0
 10  9  1  6  0  0  0
 10  6  1  0  0  0  0
 11 19  1  0  0  0  0
 12 24  1  1  0  0  0
 12 18  1  0  0  0  0
 12 16  1  0  0  0  0
 13 17  1  0  0  0  0
 14  1  1  0  0  0  0
 14 13  1  0  0  0  0
 17 15  2  0  0  0  0
 18  9  1  0  0  0  0
 19 13  2  0  0  0  0
 20 21  1  0  0  0  0
 20 11  2  0  0  0  0
 21 14  2  0  0  0  0
 22  7  1  1  0  0  0
 22  8  1  0  0  0  0
 23 24  3  0  0  0  0
 25 26  1  0  0  0  0
 26 27  1  0  0  0  0
 27 28  1  0  0  0  0
 31 34  1  0  0  0  0
 32 35  1  0  0  0  0
 33 28  1  6  0  0  0
 33 31  1  0  0  0  0
 33 32  1  0  0  0  0
 34 29  2  0  0  0  0
 34 30  1  0  0  0  0
 35 30  2  0  0  0  0
M  END
>  <MODEL>
7

>  <REMARK>
 VINA RESULT:      -6.8      3.771      6.773
  Name = 
  6 active torsions:
  status: ('A' for Active; 'I' for Inactive)
    1  A    between atoms: C_8  and  N_31
    2  A    between atoms: C_8  and  C_33
    3  A    between atoms: N_9  and  C_33
    4  A    between atoms: C_17  and  C_32
    5  A    between atoms: C_18  and  C_23
    6  A    between atoms: C_18  and  N_31
                            x       y       z     vdW  Elec       q    Type
                         _______ _______ _______ _____ _____    ______ ____

>  <TORSDO>
F 6

$$$$
=
 OpenBabel10232409423D

 35 39  0  0  1  0  0  0  0  0999 V2000
  184.2030  178.6050  139.4930 C   0  0  1  0  0  3  0  0  0  0  0  0
  184.0980  180.0720  139.0980 C   0  0  0  0  0  1  0  0  0  0  0  0
  188.7480  176.3890  141.1650 O   0  0  0  0  0  0  0  0  0  0  0  0
  186.0080  178.2040  142.3780 C   0  0  1  0  0  3  0  0  0  0  0  0
  188.0080  178.2460  139.9710 N   0  0  0  0  0  0  0  0  0  0  0  0
  188.1140  177.4800  141.1810 C   0  0  0  0  0  0  0  0  0  0  0  0
  185.6770  179.1040  141.3570 O   0  0  0  0  0  0  0  0  0  0  0  0
  186.7270  178.4530  139.2790 C   0  0  1  0  0  3  0  0  0  0  0  0
  187.9060  177.1370  143.6650 C   0  0  0  0  0  2  0  0  0  0  0  0
  187.5360  178.0210  142.4680 C   0  0  2  0  0  3  0  0  0  0  0  0
  183.7090  176.1830  136.0240 C   0  0  0  0  0  3  0  0  0  0  0  0
  185.8240  177.8200  144.8530 C   0  0  1  0  0  3  0  0  0  0  0  0
  185.1950  177.2360  137.5970 C   0  0  0  0  0  0  0  0  0  0  0  0
  184.0640  177.7320  138.2760 C   0  0  0  0  0  0  0  0  0  0  0  0
  187.5640  177.0550  137.5060 O   0  0  0  0  0  0  0  0  0  0  0  0
  185.4500  178.7400  143.6950 C   0  0  0  0  0  2  0  0  0  0  0  0
  186.5570  177.5270  138.0990 C   0  0  0  0  0  0  0  0  0  0  0  0
  187.3390  177.7110  144.9570 C   0  0  0  0  0  2  0  0  0  0  0  0
  185.0040  176.4480  136.4610 C   0  0  0  0  0  3  0  0  0  0  0  0
  182.6520  176.6920  136.7100 N   0  0  0  0  0  0  0  0  0  0  0  0
  182.8240  177.4440  137.7990 N   0  0  0  0  0  0  0  0  0  0  0  0
  185.5210  178.3070  140.2200 C   0  0  2  0  0  3  0  0  0  0  0  0
  184.8570  178.7910  147.0870 N   0  0  0  0  0  0  0  0  0  0  0  0
  185.2840  178.3620  146.1010 C   0  0  0  0  0  0  0  0  0  0  0  0
  189.2260  178.7360  139.3390 C   0  0  0  0  0  2  0  0  0  0  0  0
  190.2830  177.6480  139.3310 C   0  0  0  0  0  2  0  0  0  0  0  0
  191.3590  178.0130  140.2330 N   0  0  0  0  0  2  0  0  0  0  0  0
  191.7380  176.8020  140.9400 C   0  0  0  0  0  2  0  0  0  0  0  0
  190.8570  179.9240  144.4250 O   0  0  0  0  0  0  0  0  0  0  0  0
  191.2870  177.7020  145.1260 C   0  0  0  0  0  3  0  0  0  0  0  0
  191.4080  178.4140  142.7340 N   0  0  0  0  0  2  0  0  0  0  0  0
  191.3700  176.0270  143.2990 C   0  0  0  0  0  2  0  0  0  0  0  0
  191.9830  177.1120  142.4050 C   0  0  1  0  0  3  0  0  0  0  0  0
  191.1670  178.7490  144.1030 C   0  0  0  0  0  0  0  0  0  0  0  0
  191.4240  176.4270  144.7500 C   0  0  0  0  0  3  0  0  0  0  0  0
  1  2  1  6  0  0  0
  1 22  1  0  0  0  0
  3  6  2  0  0  0  0
  4 10  1  0  0  0  0
  4 16  1  1  0  0  0
  5  6  1  0  0  0  0
  6 10  1  0  0  0  0
  7  4  1  0  0  0  0
  8 17  1  6  0  0  0
  8  5  1  0  0  0  0
  8 22  1  0  0  0  0
  9 18  1  0  0  0  0
 10  9  1  1  0  0  0
 11 19  2  0  0  0  0
 11 20  1  0  0  0  0
 12 18  1  0  0  0  0
 12 24  1  1  0  0  0
 13 17  1  0  0  0  0
 13 14  2  0  0  0  0
 14  1  1  0  0  0  0
 15 17  2  0  0  0  0
 16 12  1  0  0  0  0
 19 13  1  0  0  0  0
 20 21  2  0  0  0  0
 21 14  1  0  0  0  0
 22  7  1  1  0  0  0
 24 23  3  0  0  0  0
 25  5  1  0  0  0  0
 26 25  1  0  0  0  0
 26 27  1  0  0  0  0
 27 28  1  0  0  0  0
 31 34  1  0  0  0  0
 32 35  1  0  0  0  0
 33 28  1  6  0  0  0
 33 31  1  0  0  0  0
 33 32  1  0  0  0  0
 34 29  2  0  0  0  0
 34 30  1  0  0  0  0
 35 30  2  0  0  0  0
M  END
>  <MODEL>
8

>  <REMARK>
 VINA RESULT:      -6.8      2.542      3.546
  Name = 
  6 active torsions:
  status: ('A' for Active; 'I' for Inactive)
    1  A    between atoms: C_8  and  N_31
    2  A    between atoms: C_8  and  C_33
    3  A    between atoms: N_9  and  C_33
    4  A    between atoms: C_17  and  C_32
    5  A    between atoms: C_18  and  C_23
    6  A    between atoms: C_18  and  N_31
                            x       y       z     vdW  Elec       q    Type
                         _______ _______ _______ _____ _____    ______ ____

>  <TORSDO>
F 6

$$$$
=
 OpenBabel10232409423D

 35 39  0  0  1  0  0  0  0  0999 V2000
  186.2620  174.0520  136.4560 C   0  0  1  0  0  3  0  0  0  0  0  0
  185.7450  173.3060  137.6790 C   0  0  0  0  0  1  0  0  0  0  0  0
  189.7030  178.1030  136.7890 O   0  0  0  0  0  0  0  0  0  0  0  0
  189.6380  174.6030  136.6490 C   0  0  1  0  0  3  0  0  0  0  0  0
  188.1780  176.9500  138.1180 N   0  0  0  0  0  0  0  0  0  0  0  0
  189.3920  177.0190  137.3550 C   0  0  0  0  0  0  0  0  0  0  0  0
  188.5030  174.2230  137.3760 O   0  0  0  0  0  0  0  0  0  0  0  0
  187.0370  176.1170  137.7120 C   0  0  1  0  0  3  0  0  0  0  0  0
  191.6280  176.1630  136.5810 C   0  0  0  0  0  2  0  0  0  0  0  0
  190.3160  175.8250  137.3010 C   0  0  2  0  0  3  0  0  0  0  0  0
  183.0620  176.2520  134.7050 C   0  0  0  0  0  3  0  0  0  0  0  0
  191.8780  173.7910  135.8560 C   0  0  1  0  0  3  0  0  0  0  0  0
  184.9970  176.2320  136.1360 C   0  0  0  0  0  0  0  0  0  0  0  0
  185.1540  174.8630  135.8410 C   0  0  0  0  0  0  0  0  0  0  0  0
  185.8290  178.1510  137.2660 O   0  0  0  0  0  0  0  0  0  0  0  0
  190.5980  173.4170  136.5960 C   0  0  0  0  0  2  0  0  0  0  0  0
  185.9560  176.9190  137.0300 C   0  0  0  0  0  0  0  0  0  0  0  0
  192.5590  174.9570  136.5590 C   0  0  0  0  0  2  0  0  0  0  0  0
  183.9370  176.9270  135.5510 C   0  0  0  0  0  3  0  0  0  0  0  0
  183.2520  174.9290  134.4600 N   0  0  0  0  0  0  0  0  0  0  0  0
  184.2640  174.2560  135.0110 N   0  0  0  0  0  0  0  0  0  0  0  0
  187.4560  174.9500  136.8030 C   0  0  2  0  0  3  0  0  0  0  0  0
  193.4960  171.7290  135.8060 N   0  0  0  0  0  0  0  0  0  0  0  0
  192.7810  172.6390  135.8290 C   0  0  0  0  0  0  0  0  0  0  0  0
  188.0220  177.8250  139.2720 C   0  0  0  0  0  2  0  0  0  0  0  0
  189.1820  177.6370  140.2310 C   0  0  0  0  0  2  0  0  0  0  0  0
  188.7130  177.7940  141.5950 N   0  0  0  0  0  2  0  0  0  0  0  0
  188.9740  176.5360  142.2730 C   0  0  0  0  0  2  0  0  0  0  0  0
  189.6590  177.5970  146.8650 O   0  0  0  0  0  0  0  0  0  0  0  0
  187.4090  177.6660  146.1210 C   0  0  0  0  0  3  0  0  0  0  0  0
  189.3000  176.9620  144.6480 N   0  0  0  0  0  2  0  0  0  0  0  0
  187.1130  177.4830  143.6660 C   0  0  0  0  0  2  0  0  0  0  0  0
  188.3250  176.5430  143.6440 C   0  0  1  0  0  3  0  0  0  0  0  0
  188.8430  177.4160  145.9250 C   0  0  0  0  0  0  0  0  0  0  0  0
  186.5890  177.6570  145.0680 C   0  0  0  0  0  3  0  0  0  0  0  0
  1 22  1  0  0  0  0
  1  2  1  1  0  0  0
  3  6  2  0  0  0  0
  4 16  1  1  0  0  0
  4 10  1  0  0  0  0
  4  7  1  0  0  0  0
  5 25  1  0  0  0  0
  6  5  1  0  0  0  0
  8 17  1  6  0  0  0
  8  5  1  0  0  0  0
 10  9  1  6  0  0  0
 10  6  1  0  0  0  0
 11 19  1  0  0  0  0
 12 24  1  1  0  0  0
 12 18  1  0  0  0  0
 12 16  1  0  0  0  0
 13 17  1  0  0  0  0
 14 13  1  0  0  0  0
 14  1  1  0  0  0  0
 17 15  2  0  0  0  0
 18  9  1  0  0  0  0
 19 13  2  0  0  0  0
 20 11  2  0  0  0  0
 20 21  1  0  0  0  0
 21 14  2  0  0  0  0
 22  7  1  1  0  0  0
 22  8  1  0  0  0  0
 23 24  3  0  0  0  0
 25 26  1  0  0  0  0
 26 27  1  0  0  0  0
 27 28  1  0  0  0  0
 31 34  1  0  0  0  0
 32 35  1  0  0  0  0
 33 28  1  6  0  0  0
 33 32  1  0  0  0  0
 33 31  1  0  0  0  0
 34 30  1  0  0  0  0
 34 29  2  0  0  0  0
 35 30  2  0  0  0  0
M  END
>  <MODEL>
9

>  <REMARK>
 VINA RESULT:      -6.8      3.029      6.246
  Name = 
  6 active torsions:
  status: ('A' for Active; 'I' for Inactive)
    1  A    between atoms: C_8  and  N_31
    2  A    between atoms: C_8  and  C_33
    3  A    between atoms: N_9  and  C_33
    4  A    between atoms: C_17  and  C_32
    5  A    between atoms: C_18  and  C_23
    6  A    between atoms: C_18  and  N_31
                            x       y       z     vdW  Elec       q    Type
                         _______ _______ _______ _____ _____    ______ ____

>  <TORSDO>
F 6

$$$$
