=
 OpenBabel10232411453D

 27 30  0  0  1  0  0  0  0  0999 V2000
  186.9140  178.5710  139.4860 F   0  0  0  0  0  0  0  0  0  0  0  0
  190.0190  176.9290  140.7520 C   0  0  2  0  0  3  0  0  0  0  0  0
  188.1660  177.7920  141.9280 N   0  0  0  0  0  0  0  0  0  0  0  0
  186.4390  177.8540  144.3540 N   0  0  0  0  0  2  0  0  0  0  0  0
  184.0390  178.8040  141.7010 C   0  0  0  0  0  3  0  0  0  0  0  0
  191.0000  176.4600  142.9110 O   0  0  0  0  0  1  0  0  0  0  0  0
  187.7310  177.5120  144.8790 C   0  0  0  0  0  0  0  0  0  0  0  0
  188.5770  176.6270  142.6840 C   0  0  2  0  0  3  0  0  0  0  0  0
  186.7810  178.1760  141.8690 C   0  0  0  0  0  0  0  0  0  0  0  0
  189.1410  178.1500  140.9120 C   0  0  0  0  0  2  0  0  0  0  0  0
  188.6950  176.9730  144.1300 C   0  0  0  0  0  3  0  0  0  0  0  0
  184.6030  178.4450  142.9200 C   0  0  0  0  0  3  0  0  0  0  0  0
  189.9120  176.1660  142.0750 C   0  0  1  0  0  3  0  0  0  0  0  0
  186.1930  178.5470  140.6340 C   0  0  0  0  0  0  0  0  0  0  0  0
  185.9610  178.1270  143.0270 C   0  0  0  0  0  0  0  0  0  0  0  0
  184.2740  179.2050  139.3740 F   0  0  0  0  0  0  0  0  0  0  0  0
  184.8320  178.8590  140.5600 C   0  0  0  0  0  0  0  0  0  0  0  0
  188.0080  177.7470  146.3230 C   0  0  0  0  0  0  0  0  0  0  0  0
  188.6040  178.1970  148.9810 N   0  0  0  0  0  0  0  0  0  0  0  0
  189.2940  177.5010  146.8210 C   0  0  0  0  0  3  0  0  0  0  0  0
  187.3720  178.4320  148.5290 N   0  0  0  0  0  0  0  0  0  0  0  0
  187.0320  178.2260  147.2280 C   0  0  0  0  0  0  0  0  0  0  0  0
  189.5810  177.7340  148.1620 C   0  0  0  0  0  3  0  0  0  0  0  0
  185.6160  178.4690  146.8290 C   0  0  0  0  0  1  0  0  0  0  0  0
  191.4360  177.3210  140.3420 C   0  0  0  0  0  2  0  0  0  0  0  0
  191.7960  176.7320  138.9880 C   0  0  0  0  0  2  0  0  0  0  0  0
  190.8640  175.6730  138.6420 N   0  0  0  0  0  1  0  0  0  0  0  0
  1 14  1  0  0  0  0
  2 25  1  1  0  0  0
  2 10  1  0  0  0  0
  2 13  1  0  0  0  0
  3  8  1  0  0  0  0
  4  7  1  0  0  0  0
  5 12  1  0  0  0  0
  7 18  1  0  0  0  0
  8 11  1  1  0  0  0
  9  3  1  0  0  0  0
  9 15  1  0  0  0  0
 10  3  1  0  0  0  0
 11  7  2  0  0  0  0
 12 15  2  0  0  0  0
 13  8  1  0  0  0  0
 13  6  1  1  0  0  0
 14  9  2  0  0  0  0
 15  4  1  0  0  0  0
 16 17  1  0  0  0  0
 17 14  1  0  0  0  0
 17  5  2  0  0  0  0
 18 20  2  0  0  0  0
 18 22  1  0  0  0  0
 20 23  1  0  0  0  0
 21 19  1  0  0  0  0
 22 21  2  0  0  0  0
 23 19  2  0  0  0  0
 24 22  1  0  0  0  0
 26 25  1  0  0  0  0
 27 26  1  0  0  0  0
M  END
>  <MODEL>
1

>  <REMARK>
 VINA RESULT:      -9.3      0.000      0.000
  Name = 
  3 active torsions:
  status: ('A' for Active; 'I' for Inactive)
    1  A    between atoms: C_1  and  C_17
    2  A    between atoms: C_3  and  C_9
    3  A    between atoms: C_4  and  C_17
                            x       y       z     vdW  Elec       q    Type
                         _______ _______ _______ _____ _____    ______ ____

>  <TORSDO>
F 3

$$$$
=
 OpenBabel10232411453D

 27 30  0  0  1  0  0  0  0  0999 V2000
  192.0600  175.6990  144.0540 F   0  0  0  0  0  0  0  0  0  0  0  0
  190.3780  177.0580  141.0090 C   0  0  2  0  0  3  0  0  0  0  0  0
  189.6380  176.9740  143.2460 N   0  0  0  0  0  0  0  0  0  0  0  0
  187.9170  178.0110  145.4460 N   0  0  0  0  0  2  0  0  0  0  0  0
  190.8360  176.7200  147.3220 C   0  0  0  0  0  3  0  0  0  0  0  0
  188.2190  178.0050  140.4720 O   0  0  0  0  0  1  0  0  0  0  0  0
  187.1320  178.2580  144.2690 C   0  0  0  0  0  0  0  0  0  0  0  0
  189.1180  178.2240  142.7300 C   0  0  2  0  0  3  0  0  0  0  0  0
  190.0130  176.8540  144.6300 C   0  0  0  0  0  0  0  0  0  0  0  0
  190.1840  176.1370  142.1920 C   0  0  0  0  0  2  0  0  0  0  0  0
  187.6670  178.3430  143.0500 C   0  0  0  0  0  3  0  0  0  0  0  0
  189.6380  177.3410  146.9850 C   0  0  0  0  0  3  0  0  0  0  0  0
  189.3910  178.2110  141.2160 C   0  0  1  0  0  3  0  0  0  0  0  0
  191.2290  176.2220  144.9900 C   0  0  0  0  0  0  0  0  0  0  0  0
  189.2110  177.4200  145.6550 C   0  0  0  0  0  0  0  0  0  0  0  0
  192.7990  175.5600  146.6640 F   0  0  0  0  0  0  0  0  0  0  0  0
  191.6290  176.1580  146.3290 C   0  0  0  0  0  0  0  0  0  0  0  0
  185.6630  178.4510  144.4110 C   0  0  0  0  0  0  0  0  0  0  0  0
  182.9260  178.7580  144.6040 N   0  0  0  0  0  0  0  0  0  0  0  0
  184.8470  178.3490  143.2760 C   0  0  0  0  0  3  0  0  0  0  0  0
  183.6840  178.8660  145.6960 N   0  0  0  0  0  0  0  0  0  0  0  0
  185.0350  178.7220  145.6490 C   0  0  0  0  0  0  0  0  0  0  0  0
  183.4690  178.5040  143.3890 C   0  0  0  0  0  3  0  0  0  0  0  0
  185.8020  178.9110  146.9140 C   0  0  0  0  0  1  0  0  0  0  0  0
  190.2250  176.3020  139.6920 C   0  0  0  0  0  2  0  0  0  0  0  0
  191.4830  176.4180  138.8470 C   0  0  0  0  0  2  0  0  0  0  0  0
  191.7110  175.1800  138.1220 N   0  0  0  0  0  1  0  0  0  0  0  0
  1 14  1  0  0  0  0
  2 25  1  6  0  0  0
  2 13  1  0  0  0  0
  2 10  1  0  0  0  0
  3  9  1  0  0  0  0
  4 15  1  0  0  0  0
  7 18  1  0  0  0  0
  7  4  1  0  0  0  0
  8 11  1  6  0  0  0
  8  3  1  0  0  0  0
  9 14  2  0  0  0  0
  9 15  1  0  0  0  0
 10  3  1  0  0  0  0
 11  7  2  0  0  0  0
 12  5  1  0  0  0  0
 13  6  1  6  0  0  0
 13  8  1  0  0  0  0
 14 17  1  0  0  0  0
 15 12  2  0  0  0  0
 17 16  1  0  0  0  0
 17  5  2  0  0  0  0
 18 22  1  0  0  0  0
 19 21  1  0  0  0  0
 20 23  1  0  0  0  0
 20 18  2  0  0  0  0
 22 21  2  0  0  0  0
 22 24  1  0  0  0  0
 23 19  2  0  0  0  0
 26 25  1  0  0  0  0
 27 26  1  0  0  0  0
M  END
>  <MODEL>
2

>  <REMARK>
 VINA RESULT:      -9.3      2.957      5.189
  Name = 
  3 active torsions:
  status: ('A' for Active; 'I' for Inactive)
    1  A    between atoms: C_1  and  C_17
    2  A    between atoms: C_3  and  C_9
    3  A    between atoms: C_4  and  C_17
                            x       y       z     vdW  Elec       q    Type
                         _______ _______ _______ _____ _____    ______ ____

>  <TORSDO>
F 3

$$$$
=
 OpenBabel10232411453D

 27 30  0  0  1  0  0  0  0  0999 V2000
  190.4220  176.4270  144.5610 F   0  0  0  0  0  0  0  0  0  0  0  0
  189.8000  177.4160  141.0140 C   0  0  2  0  0  3  0  0  0  0  0  0
  188.3380  177.3850  142.8640 N   0  0  0  0  0  0  0  0  0  0  0  0
  185.8820  178.3590  144.2410 N   0  0  0  0  0  2  0  0  0  0  0  0
  188.0600  177.5020  147.1090 C   0  0  0  0  0  3  0  0  0  0  0  0
  187.8940  178.0920  139.6900 O   0  0  0  0  0  1  0  0  0  0  0  0
  185.5380  178.4510  142.8500 C   0  0  0  0  0  0  0  0  0  0  0  0
  187.9310  178.5390  142.0880 C   0  0  2  0  0  3  0  0  0  0  0  0
  188.2160  177.3870  144.2970 C   0  0  0  0  0  0  0  0  0  0  0  0
  189.2810  176.5500  142.1400 C   0  0  0  0  0  2  0  0  0  0  0  0
  186.4550  178.5210  141.8820 C   0  0  0  0  0  3  0  0  0  0  0  0
  187.0090  177.9690  146.3280 C   0  0  0  0  0  3  0  0  0  0  0  0
  188.7140  178.4670  140.7650 C   0  0  1  0  0  3  0  0  0  0  0  0
  189.2790  176.9120  145.1070 C   0  0  0  0  0  0  0  0  0  0  0  0
  187.0650  177.9240  144.9310 C   0  0  0  0  0  0  0  0  0  0  0  0
  190.2160  176.5230  147.2680 F   0  0  0  0  0  0  0  0  0  0  0  0
  189.1920  176.9710  146.5010 C   0  0  0  0  0  0  0  0  0  0  0  0
  184.1010  178.4930  142.4640 C   0  0  0  0  0  0  0  0  0  0  0  0
  181.4510  178.5140  141.6870 N   0  0  0  0  0  0  0  0  0  0  0  0
  183.7380  178.2080  141.1410 C   0  0  0  0  0  3  0  0  0  0  0  0
  181.7740  178.7960  142.9500 N   0  0  0  0  0  0  0  0  0  0  0  0
  183.0650  178.7970  143.3780 C   0  0  0  0  0  0  0  0  0  0  0  0
  182.4000  178.2200  140.7640 C   0  0  0  0  0  3  0  0  0  0  0  0
  183.3290  179.1730  144.7970 C   0  0  0  0  0  1  0  0  0  0  0  0
  190.1750  176.5710  139.8000 C   0  0  0  0  0  2  0  0  0  0  0  0
  191.5830  176.8930  139.3240 C   0  0  0  0  0  2  0  0  0  0  0  0
  192.3290  177.5460  140.3860 N   0  0  0  0  0  1  0  0  0  0  0  0
  1 14  1  0  0  0  0
  2 25  1  6  0  0  0
  2 10  1  0  0  0  0
  3  9  1  0  0  0  0
  4 15  1  0  0  0  0
  7  4  1  0  0  0  0
  8 11  1  6  0  0  0
  8  3  1  0  0  0  0
  9 15  2  0  0  0  0
  9 14  1  0  0  0  0
 10  3  1  0  0  0  0
 11  7  2  0  0  0  0
 12  5  2  0  0  0  0
 13  6  1  6  0  0  0
 13  2  1  0  0  0  0
 13  8  1  0  0  0  0
 14 17  2  0  0  0  0
 15 12  1  0  0  0  0
 17  5  1  0  0  0  0
 17 16  1  0  0  0  0
 18  7  1  0  0  0  0
 18 22  1  0  0  0  0
 19 21  1  0  0  0  0
 20 18  2  0  0  0  0
 21 22  2  0  0  0  0
 22 24  1  0  0  0  0
 23 20  1  0  0  0  0
 23 19  2  0  0  0  0
 26 25  1  0  0  0  0
 26 27  1  0  0  0  0
M  END
>  <MODEL>
3

>  <REMARK>
 VINA RESULT:      -9.3      2.923      5.442
  Name = 
  3 active torsions:
  status: ('A' for Active; 'I' for Inactive)
    1  A    between atoms: C_1  and  C_17
    2  A    between atoms: C_3  and  C_9
    3  A    between atoms: C_4  and  C_17
                            x       y       z     vdW  Elec       q    Type
                         _______ _______ _______ _____ _____    ______ ____

>  <TORSDO>
F 3

$$$$
=
 OpenBabel10232411453D

 27 30  0  0  1  0  0  0  0  0999 V2000
  186.9810  177.7280  146.0530 F   0  0  0  0  0  0  0  0  0  0  0  0
  190.6250  177.5580  145.2550 C   0  0  2  0  0  3  0  0  0  0  0  0
  188.7520  177.5440  143.8230 N   0  0  0  0  0  0  0  0  0  0  0  0
  187.5310  178.0290  141.1490 N   0  0  0  0  0  2  0  0  0  0  0  0
  184.6570  178.6280  143.4050 C   0  0  0  0  0  3  0  0  0  0  0  0
  191.9740  177.2620  143.2710 O   0  0  0  0  0  1  0  0  0  0  0  0
  188.8820  177.6600  140.8320 C   0  0  0  0  0  0  0  0  0  0  0  0
  189.7650  178.2840  143.1010 C   0  0  2  0  0  3  0  0  0  0  0  0
  187.3590  177.8670  143.6670 C   0  0  0  0  0  0  0  0  0  0  0  0
  189.2950  176.8860  144.9990 C   0  0  0  0  0  2  0  0  0  0  0  0
  189.8830  177.7630  141.7090 C   0  0  0  0  0  3  0  0  0  0  0  0
  185.4730  178.5390  142.2830 C   0  0  0  0  0  3  0  0  0  0  0  0
  191.0690  178.1270  143.9040 C   0  0  1  0  0  3  0  0  0  0  0  0
  186.5130  177.9590  144.8020 C   0  0  0  0  0  0  0  0  0  0  0  0
  186.8170  178.1660  142.3900 C   0  0  0  0  0  0  0  0  0  0  0  0
  184.3740  178.4300  145.7530 F   0  0  0  0  0  0  0  0  0  0  0  0
  185.1740  178.3360  144.6620 C   0  0  0  0  0  0  0  0  0  0  0  0
  189.1910  177.1610  139.4640 C   0  0  0  0  0  0  0  0  0  0  0  0
  189.8120  176.1740  136.9610 N   0  0  0  0  0  0  0  0  0  0  0  0
  190.3940  176.4790  139.2400 C   0  0  0  0  0  3  0  0  0  0  0  0
  188.6650  176.8270  137.1510 N   0  0  0  0  0  0  0  0  0  0  0  0
  188.3160  177.3290  138.3660 C   0  0  0  0  0  0  0  0  0  0  0  0
  190.6930  175.9850  137.9750 C   0  0  0  0  0  3  0  0  0  0  0  0
  187.0360  178.0870  138.4660 C   0  0  0  0  0  1  0  0  0  0  0  0
  191.6120  176.5930  145.9070 C   0  0  0  0  0  2  0  0  0  0  0  0
  191.4030  176.5340  147.4120 C   0  0  0  0  0  2  0  0  0  0  0  0
  192.6190  176.0820  148.0650 N   0  0  0  0  0  1  0  0  0  0  0  0
  2 25  1  6  0  0  0
  3 10  1  0  0  0  0
  4 15  1  0  0  0  0
  5 17  1  0  0  0  0
  7  4  1  0  0  0  0
  7 11  2  0  0  0  0
  8 11  1  6  0  0  0
  8  3  1  0  0  0  0
  8 13  1  0  0  0  0
  9  3  1  0  0  0  0
  9 14  1  0  0  0  0
 10  2  1  0  0  0  0
 12 15  1  0  0  0  0
 12  5  2  0  0  0  0
 13  6  1  6  0  0  0
 13  2  1  0  0  0  0
 14  1  1  0  0  0  0
 15  9  2  0  0  0  0
 17 14  2  0  0  0  0
 17 16  1  0  0  0  0
 18  7  1  0  0  0  0
 19 21  2  0  0  0  0
 19 23  1  0  0  0  0
 20 18  1  0  0  0  0
 21 22  1  0  0  0  0
 22 24  1  0  0  0  0
 22 18  2  0  0  0  0
 23 20  2  0  0  0  0
 25 26  1  0  0  0  0
 26 27  1  0  0  0  0
M  END
>  <MODEL>
4

>  <REMARK>
 VINA RESULT:      -9.2      2.692      6.303
  Name = 
  3 active torsions:
  status: ('A' for Active; 'I' for Inactive)
    1  A    between atoms: C_1  and  C_17
    2  A    between atoms: C_3  and  C_9
    3  A    between atoms: C_4  and  C_17
                            x       y       z     vdW  Elec       q    Type
                         _______ _______ _______ _____ _____    ______ ____

>  <TORSDO>
F 3

$$$$
=
 OpenBabel10232411453D

 27 30  0  0  1  0  0  0  0  0999 V2000
  185.2200  179.4800  141.9690 F   0  0  0  0  0  0  0  0  0  0  0  0
  188.2670  177.8380  140.5670 C   0  0  2  0  0  3  0  0  0  0  0  0
  187.6040  178.1560  142.8070 N   0  0  0  0  0  0  0  0  0  0  0  0
  187.7130  177.3660  145.6780 N   0  0  0  0  0  2  0  0  0  0  0  0
  184.3130  178.8080  145.4250 C   0  0  0  0  0  3  0  0  0  0  0  0
  190.2970  176.8650  141.4460 O   0  0  0  0  0  1  0  0  0  0  0  0
  189.0150  177.0080  145.1880 C   0  0  0  0  0  0  0  0  0  0  0  0
  188.2640  176.8660  142.7940 C   0  0  2  0  0  3  0  0  0  0  0  0
  186.5150  178.4120  143.7110 C   0  0  0  0  0  0  0  0  0  0  0  0
  187.7980  178.8770  141.5610 C   0  0  0  0  0  2  0  0  0  0  0  0
  189.2670  176.7950  143.8950 C   0  0  0  0  0  3  0  0  0  0  0  0
  185.4580  178.1700  145.8900 C   0  0  0  0  0  3  0  0  0  0  0  0
  188.9020  176.7220  141.4010 C   0  0  1  0  0  3  0  0  0  0  0  0
  185.3430  179.0640  143.2540 C   0  0  0  0  0  0  0  0  0  0  0  0
  186.5620  177.9600  145.0560 C   0  0  0  0  0  0  0  0  0  0  0  0
  183.1340  179.8750  143.6640 F   0  0  0  0  0  0  0  0  0  0  0  0
  184.2560  179.2590  144.1110 C   0  0  0  0  0  0  0  0  0  0  0  0
  190.1310  176.8460  146.1600 C   0  0  0  0  0  0  0  0  0  0  0  0
  192.2550  176.5380  147.8970 N   0  0  0  0  0  0  0  0  0  0  0  0
  191.2730  176.1300  145.7770 C   0  0  0  0  0  3  0  0  0  0  0  0
  191.1750  177.2180  148.2840 N   0  0  0  0  0  0  0  0  0  0  0  0
  190.1060  177.3960  147.4630 C   0  0  0  0  0  0  0  0  0  0  0  0
  192.3360  175.9840  146.6620 C   0  0  0  0  0  3  0  0  0  0  0  0
  188.9240  178.1270  148.0040 C   0  0  0  0  0  1  0  0  0  0  0  0
  189.1800  178.4590  139.5120 C   0  0  0  0  0  2  0  0  0  0  0  0
  188.5590  178.3620  138.1280 C   0  0  0  0  0  2  0  0  0  0  0  0
  188.9400  179.5140  137.3300 N   0  0  0  0  0  1  0  0  0  0  0  0
  1 14  1  0  0  0  0
  2 25  1  6  0  0  0
  2 13  1  0  0  0  0
  2 10  1  0  0  0  0
  3  9  1  0  0  0  0
  5 12  1  0  0  0  0
  7  4  1  0  0  0  0
  7 18  1  0  0  0  0
  8  3  1  0  0  0  0
  8 11  1  1  0  0  0
  9 15  1  0  0  0  0
 10  3  1  0  0  0  0
 11  7  2  0  0  0  0
 13  6  1  1  0  0  0
 13  8  1  0  0  0  0
 14  9  2  0  0  0  0
 14 17  1  0  0  0  0
 15  4  1  0  0  0  0
 15 12  2  0  0  0  0
 16 17  1  0  0  0  0
 17  5  2  0  0  0  0
 18 22  1  0  0  0  0
 19 21  1  0  0  0  0
 20 18  2  0  0  0  0
 20 23  1  0  0  0  0
 22 24  1  0  0  0  0
 22 21  2  0  0  0  0
 23 19  2  0  0  0  0
 26 25  1  0  0  0  0
 27 26  1  0  0  0  0
M  END
>  <MODEL>
5

>  <REMARK>
 VINA RESULT:      -9.0      2.188      2.877
  Name = 
  3 active torsions:
  status: ('A' for Active; 'I' for Inactive)
    1  A    between atoms: C_1  and  C_17
    2  A    between atoms: C_3  and  C_9
    3  A    between atoms: C_4  and  C_17
                            x       y       z     vdW  Elec       q    Type
                         _______ _______ _______ _____ _____    ______ ____

>  <TORSDO>
F 3

$$$$
=
 OpenBabel10232411453D

 27 30  0  0  1  0  0  0  0  0999 V2000
  185.8910  178.7850  139.9210 F   0  0  0  0  0  0  0  0  0  0  0  0
  189.2310  177.2180  140.4980 C   0  0  2  0  0  3  0  0  0  0  0  0
  187.6080  177.9520  142.0420 N   0  0  0  0  0  0  0  0  0  0  0  0
  186.3690  177.8390  144.7500 N   0  0  0  0  0  2  0  0  0  0  0  0
  183.4810  178.8050  142.6440 C   0  0  0  0  0  3  0  0  0  0  0  0
  190.6170  176.6960  142.4090 O   0  0  0  0  0  1  0  0  0  0  0  0
  187.7480  177.5280  145.0050 C   0  0  0  0  0  0  0  0  0  0  0  0
  188.1910  176.7740  142.6490 C   0  0  2  0  0  3  0  0  0  0  0  0
  186.2250  178.2820  142.2640 C   0  0  0  0  0  0  0  0  0  0  0  0
  188.3610  178.3940  140.8810 C   0  0  0  0  0  2  0  0  0  0  0  0
  188.5690  177.0610  144.0620 C   0  0  0  0  0  3  0  0  0  0  0  0
  184.2770  178.4160  143.7170 C   0  0  0  0  0  3  0  0  0  0  0  0
  189.4010  176.3940  141.7780 C   0  0  1  0  0  3  0  0  0  0  0  0
  185.4020  178.6820  141.1810 C   0  0  0  0  0  0  0  0  0  0  0  0
  185.6400  178.1490  143.5510 C   0  0  0  0  0  0  0  0  0  0  0  0
  183.2590  179.3140  140.3380 F   0  0  0  0  0  0  0  0  0  0  0  0
  184.0420  178.9410  141.3790 C   0  0  0  0  0  0  0  0  0  0  0  0
  188.2850  177.7110  146.3810 C   0  0  0  0  0  0  0  0  0  0  0  0
  189.2030  178.0340  148.9650 N   0  0  0  0  0  0  0  0  0  0  0  0
  187.4180  178.1140  147.4050 C   0  0  0  0  0  3  0  0  0  0  0  0
  190.0460  177.6560  148.0040 N   0  0  0  0  0  0  0  0  0  0  0  0
  189.6400  177.4840  146.7180 C   0  0  0  0  0  0  0  0  0  0  0  0
  187.8940  178.2710  148.7030 C   0  0  0  0  0  3  0  0  0  0  0  0
  190.6680  177.1090  145.7050 C   0  0  0  0  0  1  0  0  0  0  0  0
  190.5320  177.6850  139.8500 C   0  0  0  0  0  2  0  0  0  0  0  0
  190.7420  177.0150  138.5020 C   0  0  0  0  0  2  0  0  0  0  0  0
  190.8530  175.5770  138.6730 N   0  0  0  0  0  1  0  0  0  0  0  0
  1 14  1  0  0  0  0
  2 25  1  1  0  0  0
  2 10  1  0  0  0  0
  2 13  1  0  0  0  0
  3  9  1  0  0  0  0
  3  8  1  0  0  0  0
  4  7  1  0  0  0  0
  5 12  1  0  0  0  0
  7 18  1  0  0  0  0
  8 11  1  1  0  0  0
  9 15  1  0  0  0  0
 10  3  1  0  0  0  0
 11  7  2  0  0  0  0
 13  6  1  1  0  0  0
 13  8  1  0  0  0  0
 14 17  1  0  0  0  0
 14  9  2  0  0  0  0
 15 12  2  0  0  0  0
 15  4  1  0  0  0  0
 16 17  1  0  0  0  0
 17  5  2  0  0  0  0
 18 22  2  0  0  0  0
 18 20  1  0  0  0  0
 20 23  2  0  0  0  0
 21 19  2  0  0  0  0
 22 21  1  0  0  0  0
 23 19  1  0  0  0  0
 24 22  1  0  0  0  0
 26 27  1  0  0  0  0
 26 25  1  0  0  0  0
M  END
>  <MODEL>
6

>  <REMARK>
 VINA RESULT:      -8.9      0.921      1.568
  Name = 
  3 active torsions:
  status: ('A' for Active; 'I' for Inactive)
    1  A    between atoms: C_1  and  C_17
    2  A    between atoms: C_3  and  C_9
    3  A    between atoms: C_4  and  C_17
                            x       y       z     vdW  Elec       q    Type
                         _______ _______ _______ _____ _____    ______ ____

>  <TORSDO>
F 3

$$$$
=
 OpenBabel10232411453D

 27 30  0  0  1  0  0  0  0  0999 V2000
  187.5190  177.9110  145.3730 F   0  0  0  0  0  0  0  0  0  0  0  0
  188.9330  178.0590  141.9210 C   0  0  2  0  0  3  0  0  0  0  0  0
  186.6900  177.9880  142.6440 N   0  0  0  0  0  0  0  0  0  0  0  0
  183.7990  178.5340  142.1770 N   0  0  0  0  0  2  0  0  0  0  0  0
  184.0230  178.7850  145.8630 C   0  0  0  0  0  3  0  0  0  0  0  0
  188.0670  177.9800  139.6650 O   0  0  0  0  0  1  0  0  0  0  0  0
  184.3050  178.2850  140.8560 C   0  0  0  0  0  0  0  0  0  0  0  0
  186.6760  178.8420  141.4740 C   0  0  2  0  0  3  0  0  0  0  0  0
  185.7710  178.2140  143.7270 C   0  0  0  0  0  0  0  0  0  0  0  0
  187.9630  177.3060  142.8020 C   0  0  0  0  0  2  0  0  0  0  0  0
  185.5950  178.4120  140.5410 C   0  0  0  0  0  3  0  0  0  0  0  0
  183.5630  178.8230  144.5510 C   0  0  0  0  0  3  0  0  0  0  0  0
  188.0770  178.7370  140.8460 C   0  0  1  0  0  3  0  0  0  0  0  0
  186.2240  178.1770  145.0700 C   0  0  0  0  0  0  0  0  0  0  0  0
  184.4140  178.5450  143.4760 C   0  0  0  0  0  0  0  0  0  0  0  0
  185.7920  178.4320  147.4050 F   0  0  0  0  0  0  0  0  0  0  0  0
  185.3490  178.4600  146.1240 C   0  0  0  0  0  0  0  0  0  0  0  0
  183.3520  177.8910  139.7820 C   0  0  0  0  0  0  0  0  0  0  0  0
  181.5600  177.0920  137.8390 N   0  0  0  0  0  0  0  0  0  0  0  0
  182.9650  176.5490  139.6710 C   0  0  0  0  0  3  0  0  0  0  0  0
  181.9200  178.3730  137.9230 N   0  0  0  0  0  0  0  0  0  0  0  0
  182.7980  178.8130  138.8640 C   0  0  0  0  0  0  0  0  0  0  0  0
  182.0600  176.1610  138.6880 C   0  0  0  0  0  3  0  0  0  0  0  0
  183.1780  180.2550  138.8450 C   0  0  0  0  0  1  0  0  0  0  0  0
  190.0260  177.1350  141.3900 C   0  0  0  0  0  2  0  0  0  0  0  0
  190.4800  176.1560  142.4610 C   0  0  0  0  0  2  0  0  0  0  0  0
  191.5960  176.7130  143.2040 N   0  0  0  0  0  1  0  0  0  0  0  0
  2 25  1  6  0  0  0
  2 10  1  0  0  0  0
  3 10  1  0  0  0  0
  3  9  1  0  0  0  0
  4 15  1  0  0  0  0
  5 17  1  0  0  0  0
  7  4  1  0  0  0  0
  8 11  1  6  0  0  0
  8  3  1  0  0  0  0
  9 14  1  0  0  0  0
 11  7  2  0  0  0  0
 12  5  2  0  0  0  0
 13  6  1  6  0  0  0
 13  8  1  0  0  0  0
 13  2  1  0  0  0  0
 14  1  1  0  0  0  0
 14 17  2  0  0  0  0
 15  9  2  0  0  0  0
 15 12  1  0  0  0  0
 17 16  1  0  0  0  0
 18  7  1  0  0  0  0
 19 21  2  0  0  0  0
 19 23  1  0  0  0  0
 20 18  1  0  0  0  0
 21 22  1  0  0  0  0
 22 18  2  0  0  0  0
 23 20  2  0  0  0  0
 24 22  1  0  0  0  0
 25 26  1  0  0  0  0
 26 27  1  0  0  0  0
M  END
>  <MODEL>
7

>  <REMARK>
 VINA RESULT:      -8.7      3.500      6.459
  Name = 
  3 active torsions:
  status: ('A' for Active; 'I' for Inactive)
    1  A    between atoms: C_1  and  C_17
    2  A    between atoms: C_3  and  C_9
    3  A    between atoms: C_4  and  C_17
                            x       y       z     vdW  Elec       q    Type
                         _______ _______ _______ _____ _____    ______ ____

>  <TORSDO>
F 3

$$$$
=
 OpenBabel10232411453D

 27 30  0  0  1  0  0  0  0  0999 V2000
  186.3110  178.7340  147.7260 F   0  0  0  0  0  0  0  0  0  0  0  0
  184.3870  178.5910  144.5290 C   0  0  2  0  0  3  0  0  0  0  0  0
  186.6860  178.2590  144.9370 N   0  0  0  0  0  0  0  0  0  0  0  0
  189.3130  177.0910  144.1570 N   0  0  0  0  0  2  0  0  0  0  0  0
  189.6070  177.2010  147.8460 C   0  0  0  0  0  3  0  0  0  0  0  0
  184.9000  178.3010  142.1840 O   0  0  0  0  0  1  0  0  0  0  0  0
  188.6700  177.3270  142.8950 C   0  0  0  0  0  0  0  0  0  0  0  0
  186.3580  177.3250  143.8800 C   0  0  2  0  0  3  0  0  0  0  0  0
  187.6980  177.9390  145.9080 C   0  0  0  0  0  0  0  0  0  0  0  0
  185.6070  179.2000  145.1840 C   0  0  0  0  0  2  0  0  0  0  0  0
  187.3460  177.4430  142.7700 C   0  0  0  0  0  3  0  0  0  0  0  0
  189.8460  176.9600  146.4970 C   0  0  0  0  0  3  0  0  0  0  0  0
  184.9240  177.6640  143.4340 C   0  0  1  0  0  3  0  0  0  0  0  0
  187.4700  178.1810  147.2870 C   0  0  0  0  0  0  0  0  0  0  0  0
  188.9120  177.3160  145.5190 C   0  0  0  0  0  0  0  0  0  0  0  0
  188.1940  178.0390  149.5570 F   0  0  0  0  0  0  0  0  0  0  0  0
  188.4230  177.8130  148.2410 C   0  0  0  0  0  0  0  0  0  0  0  0
  189.5060  177.4250  141.6670 C   0  0  0  0  0  0  0  0  0  0  0  0
  190.9970  177.6600  139.3560 N   0  0  0  0  0  0  0  0  0  0  0  0
  188.8880  177.6910  140.4380 C   0  0  0  0  0  3  0  0  0  0  0  0
  191.6050  177.4000  140.5130 N   0  0  0  0  0  0  0  0  0  0  0  0
  190.9120  177.2770  141.6770 C   0  0  0  0  0  0  0  0  0  0  0  0
  189.6520  177.8080  139.2820 C   0  0  0  0  0  3  0  0  0  0  0  0
  191.6760  176.9350  142.9120 C   0  0  0  0  0  1  0  0  0  0  0  0
  183.4250  179.6730  144.0470 C   0  0  0  0  0  2  0  0  0  0  0  0
  182.0090  179.1310  143.9280 C   0  0  0  0  0  2  0  0  0  0  0  0
  181.5790  179.1630  142.5410 N   0  0  0  0  0  1  0  0  0  0  0  0
  2 25  1  6  0  0  0
  2 10  1  0  0  0  0
  3 10  1  0  0  0  0
  3  9  1  0  0  0  0
  4 15  1  0  0  0  0
  5 17  1  0  0  0  0
  7  4  1  0  0  0  0
  8 11  1  6  0  0  0
  8  3  1  0  0  0  0
  9 14  1  0  0  0  0
 11  7  2  0  0  0  0
 12  5  2  0  0  0  0
 13  6  1  6  0  0  0
 13  8  1  0  0  0  0
 13  2  1  0  0  0  0
 14  1  1  0  0  0  0
 14 17  2  0  0  0  0
 15  9  2  0  0  0  0
 15 12  1  0  0  0  0
 17 16  1  0  0  0  0
 18 22  1  0  0  0  0
 18  7  1  0  0  0  0
 19 21  1  0  0  0  0
 20 18  2  0  0  0  0
 21 22  2  0  0  0  0
 22 24  1  0  0  0  0
 23 19  2  0  0  0  0
 23 20  1  0  0  0  0
 26 25  1  0  0  0  0
 27 26  1  0  0  0  0
M  END
>  <MODEL>
8

>  <REMARK>
 VINA RESULT:      -8.7      3.326      7.177
  Name = 
  3 active torsions:
  status: ('A' for Active; 'I' for Inactive)
    1  A    between atoms: C_1  and  C_17
    2  A    between atoms: C_3  and  C_9
    3  A    between atoms: C_4  and  C_17
                            x       y       z     vdW  Elec       q    Type
                         _______ _______ _______ _____ _____    ______ ____

>  <TORSDO>
F 3

$$$$
=
 OpenBabel10232411453D

 27 30  0  0  1  0  0  0  0  0999 V2000
  192.1800  177.5650  142.9950 F   0  0  0  0  0  0  0  0  0  0  0  0
  190.5120  176.9930  146.2860 C   0  0  2  0  0  3  0  0  0  0  0  0
  189.5930  177.5920  144.1990 N   0  0  0  0  0  0  0  0  0  0  0  0
  187.2840  177.7000  142.3190 N   0  0  0  0  0  2  0  0  0  0  0  0
  190.1470  177.5190  139.9800 C   0  0  0  0  0  3  0  0  0  0  0  0
  188.2740  177.1950  147.1780 O   0  0  0  0  0  1  0  0  0  0  0  0
  186.6620  177.7860  143.6110 C   0  0  0  0  0  0  0  0  0  0  0  0
  188.6020  176.7270  144.8060 C   0  0  2  0  0  3  0  0  0  0  0  0
  189.7710  177.6130  142.7720 C   0  0  0  0  0  0  0  0  0  0  0  0
  190.6310  177.9730  145.1410 C   0  0  0  0  0  2  0  0  0  0  0  0
  187.2550  177.3610  144.7280 C   0  0  0  0  0  3  0  0  0  0  0  0
  188.8640  177.5460  140.5140 C   0  0  0  0  0  3  0  0  0  0  0  0
  189.0640  176.4930  146.2550 C   0  0  1  0  0  3  0  0  0  0  0  0
  191.0730  177.5880  142.2110 C   0  0  0  0  0  0  0  0  0  0  0  0
  188.6530  177.5910  141.8970 C   0  0  0  0  0  0  0  0  0  0  0  0
  192.4980  177.5110  140.2970 F   0  0  0  0  0  0  0  0  0  0  0  0
  191.2500  177.5440  140.8250 C   0  0  0  0  0  0  0  0  0  0  0  0
  185.2890  178.3530  143.7130 C   0  0  0  0  0  0  0  0  0  0  0  0
  182.7170  179.3490  143.8390 N   0  0  0  0  0  0  0  0  0  0  0  0
  184.4480  178.3140  142.5930 C   0  0  0  0  0  3  0  0  0  0  0  0
  183.5020  179.4030  144.9160 N   0  0  0  0  0  0  0  0  0  0  0  0
  184.7750  178.9240  144.9010 C   0  0  0  0  0  0  0  0  0  0  0  0
  183.1540  178.8180  142.6710 C   0  0  0  0  0  3  0  0  0  0  0  0
  185.5920  179.0740  146.1390 C   0  0  0  0  0  1  0  0  0  0  0  0
  190.9500  177.6280  147.6030 C   0  0  0  0  0  2  0  0  0  0  0  0
  192.0860  176.8420  148.2380 C   0  0  0  0  0  2  0  0  0  0  0  0
  192.5260  175.7900  147.3380 N   0  0  0  0  0  1  0  0  0  0  0  0
  2 25  1  1  0  0  0
  3  8  1  0  0  0  0
  3 10  1  0  0  0  0
  4  7  1  0  0  0  0
  5 12  2  0  0  0  0
  5 17  1  0  0  0  0
  7 18  1  0  0  0  0
  7 11  2  0  0  0  0
  8 11  1  1  0  0  0
  8 13  1  0  0  0  0
  9  3  1  0  0  0  0
 10  2  1  0  0  0  0
 12 15  1  0  0  0  0
 13  2  1  0  0  0  0
 13  6  1  1  0  0  0
 14  9  1  0  0  0  0
 14  1  1  0  0  0  0
 15  4  1  0  0  0  0
 15  9  2  0  0  0  0
 16 17  1  0  0  0  0
 17 14  2  0  0  0  0
 18 22  1  0  0  0  0
 19 21  1  0  0  0  0
 20 23  1  0  0  0  0
 20 18  2  0  0  0  0
 22 21  2  0  0  0  0
 22 24  1  0  0  0  0
 23 19  2  0  0  0  0
 25 26  1  0  0  0  0
 27 26  1  0  0  0  0
M  END
>  <MODEL>
9

>  <REMARK>
 VINA RESULT:      -8.6      3.069      5.562
  Name = 
  3 active torsions:
  status: ('A' for Active; 'I' for Inactive)
    1  A    between atoms: C_1  and  C_17
    2  A    between atoms: C_3  and  C_9
    3  A    between atoms: C_4  and  C_17
                            x       y       z     vdW  Elec       q    Type
                         _______ _______ _______ _____ _____    ______ ____

>  <TORSDO>
F 3

$$$$
