=
 OpenBabel10232411033D

 39 45  0  0  1  0  0  0  0  0999 V2000
  189.4230  176.8080  136.8240 C   0  0  0  0  0  0  0  0  0  0  0  0
  190.8020  174.4450  136.4640 C   0  0  0  0  0  0  0  0  0  0  0  0
  189.5240  176.2650  135.5660 C   0  0  0  0  0  0  0  0  0  0  0  0
  190.6100  174.9620  137.7620 C   0  0  0  0  0  3  0  0  0  0  0  0
  187.2540  177.9420  138.9480 C   0  0  0  0  0  2  0  0  0  0  0  0
  187.2120  177.4700  137.5020 C   0  0  2  0  0  3  0  0  0  0  0  0
  189.5210  176.6070  139.4040 C   0  0  2  0  0  3  0  0  0  0  0  0
  187.9620  177.7620  135.3810 C   0  0  2  0  0  3  0  0  0  0  0  0
  191.5550  173.1780  136.2790 C   0  0  0  0  0  1  0  0  0  0  0  0
  185.0160  176.9650  136.8180 C   0  0  0  0  0  1  0  0  0  0  0  0
  189.8910  176.1560  137.9730 C   0  0  0  0  0  0  0  0  0  0  0  0
  188.5550  176.8330  134.6910 N   0  0  0  0  0  2  0  0  0  0  0  0
  188.6800  177.9220  139.5590 C   0  0  2  0  0  3  0  0  0  0  0  0
  188.4470  177.8920  136.7580 C   0  0  2  0  0  3  0  0  0  0  0  0
  186.0720  177.9570  136.7110 N   0  0  0  0  0  0  0  0  0  0  0  0
  186.5530  177.8980  135.3860 N   0  0  0  0  0  2  0  0  0  0  0  0
  190.2040  175.0680  135.3560 C   0  0  0  0  0  3  0  0  0  0  0  0
  188.6180  178.4290  141.0040 C   0  0  0  0  0  2  0  0  0  0  0  0
  187.4990  178.0710  143.0930 O   0  0  0  0  0  0  0  0  0  0  0  0
  186.2020  179.0610  141.3000 C   0  0  0  0  0  2  0  0  0  0  0  0
  186.3750  177.4220  143.6400 C   0  0  0  0  0  2  0  0  0  0  0  0
  187.3100  178.0720  141.6990 C   0  0  1  0  0  3  0  0  0  0  0  0
  185.3140  179.4260  142.4930 C   0  0  0  0  0  2  0  0  0  0  0  0
  185.0810  178.2220  143.4080 C   0  0  2  0  0  3  0  0  0  0  0  0
  184.1120  179.0330  145.7040 N   0  0  0  0  0  0  0  0  0  0  0  0
  184.5400  178.6750  144.6900 C   0  0  0  0  0  0  0  0  0  0  0  0
  190.6730  176.6190  140.3360 N   0  0  0  0  0  0  0  0  0  0  0  0
  192.3390  178.2120  140.9700 O   0  0  0  0  0  0  0  0  0  0  0  0
  191.6970  177.5760  139.8880 C   0  0  2  0  0  0  0  0  0  0  0  0
  192.7190  176.9640  138.9510 C   0  0  0  0  0  2  0  0  0  0  0  0
  193.0080  177.1040  140.4240 C   0  0  1  0  0  3  0  0  0  0  0  0
  190.2320  176.9470  141.6950 C   0  0  0  0  0  2  0  0  0  0  0  0
  189.2410  175.4040  143.2140 O   0  0  0  0  0  1  0  0  0  0  0  0
  190.4520  175.7650  142.6210 C   0  0  2  0  0  3  0  0  0  0  0  0
  191.4560  176.1560  143.6920 C   0  0  0  0  0  2  0  0  0  0  0  0
  190.9520  177.3350  144.5080 C   0  0  2  0  0  3  0  0  0  0  0  0
  191.8160  178.4220  144.3550 O   0  0  0  0  0  1  0  0  0  0  0  0
  191.8980  176.9730  146.6350 O   0  0  0  0  0  0  0  0  0  0  0  0
  190.8920  176.9470  145.9470 C   0  0  0  0  0  3  0  0  0  0  0  0
  1 11  1  0  0  0  0
  2  4  1  0  0  0  0
  3  1  2  0  0  0  0
  4 11  2  0  0  0  0
  5 13  1  0  0  0  0
  6  5  1  1  0  0  0
  7 13  1  0  0  0  0
  7 27  1  1  0  0  0
  8 12  1  1  0  0  0
  8 16  1  0  0  0  0
  8 14  1  0  0  0  0
  9  2  1  0  0  0  0
 11  7  1  0  0  0  0
 12  3  1  0  0  0  0
 13 18  1  1  0  0  0
 14  1  1  6  0  0  0
 14  6  1  0  0  0  0
 15 10  1  0  0  0  0
 15  6  1  0  0  0  0
 16 15  1  0  0  0  0
 17  3  1  0  0  0  0
 17  2  2  0  0  0  0
 19 21  1  0  0  0  0
 20 22  1  0  0  0  0
 20 23  1  0  0  0  0
 22 18  1  6  0  0  0
 22 19  1  0  0  0  0
 23 24  1  0  0  0  0
 24 21  1  0  0  0  0
 24 26  1  1  0  0  0
 26 25  3  0  0  0  0
 27 32  1  0  0  0  0
 29 27  1  1  0  0  0
 29 31  1  0  0  0  0
 29 28  1  0  0  0  0
 30 29  1  0  0  0  0
 31 30  1  6  0  0  0
 31 28  1  0  0  0  0
 32 34  1  0  0  0  0
 34 33  1  1  0  0  0
 34 35  1  0  0  0  0
 35 36  1  0  0  0  0
 36 37  1  1  0  0  0
 36 39  1  0  0  0  0
 39 38  2  0  0  0  0
M  END
>  <MODEL>
1

>  <REMARK>
 VINA RESULT:      -7.1      0.000      0.000
  Name = 
  10 active torsions:
  status: ('A' for Active; 'I' for Inactive)
    1  A    between atoms: C_1  and  C_13
    2  A    between atoms: C_1  and  C_33
    3  A    between atoms: C_6  and  N_11
    4  A    between atoms: C_8  and  C_17
    5  A    between atoms: C_8  and  C_37
    6  A    between atoms: N_11  and  C_14
    7  A    between atoms: N_11  and  C_19
    8  A    between atoms: C_14  and  C_37
    9  A    between atoms: C_17  and  C_32
   10  A    between atoms: C_23  and  C_35
                            x       y       z     vdW  Elec       q    Type
                         _______ _______ _______ _____ _____    ______ ____

>  <TORSDO>
F 10

$$$$
=
 OpenBabel10232411033D

 39 45  0  0  1  0  0  0  0  0999 V2000
  188.0500  177.6750  143.5160 C   0  0  0  0  0  0  0  0  0  0  0  0
  190.6290  178.4990  144.0430 C   0  0  0  0  0  0  0  0  0  0  0  0
  188.5360  177.6030  144.7980 C   0  0  0  0  0  0  0  0  0  0  0  0
  190.0860  178.6560  142.7520 C   0  0  0  0  0  3  0  0  0  0  0  0
  185.5460  178.8050  141.7960 C   0  0  0  0  0  2  0  0  0  0  0  0
  185.8880  178.7030  143.2750 C   0  0  2  0  0  3  0  0  0  0  0  0
  188.1180  178.6180  141.1050 C   0  0  2  0  0  3  0  0  0  0  0  0
  186.3920  177.3470  145.0240 C   0  0  2  0  0  3  0  0  0  0  0  0
  192.0230  178.9350  144.3150 C   0  0  0  0  0  1  0  0  0  0  0  0
  184.5480  180.1370  144.5760 C   0  0  0  0  0  1  0  0  0  0  0  0
  188.7640  178.2620  142.4630 C   0  0  0  0  0  0  0  0  0  0  0  0
  187.4740  177.4610  145.7350 N   0  0  0  0  0  2  0  0  0  0  0  0
  186.6270  178.1870  140.8720 C   0  0  2  0  0  3  0  0  0  0  0  0
  186.6130  177.4210  143.5760 C   0  0  2  0  0  3  0  0  0  0  0  0
  184.7400  178.7480  144.1940 N   0  0  0  0  0  0  0  0  0  0  0  0
  185.2180  178.0740  145.3370 N   0  0  0  0  0  2  0  0  0  0  0  0
  189.8310  178.0220  145.0970 C   0  0  0  0  0  3  0  0  0  0  0  0
  186.1840  178.3240  139.4110 C   0  0  0  0  0  2  0  0  0  0  0  0
  184.3980  179.8220  138.8550 O   0  0  0  0  0  0  0  0  0  0  0  0
  184.1060  177.4890  138.2670 C   0  0  0  0  0  2  0  0  0  0  0  0
  183.0190  180.0130  139.0640 C   0  0  0  0  0  2  0  0  0  0  0  0
  184.6780  178.5070  139.2670 C   0  0  1  0  0  3  0  0  0  0  0  0
  183.0330  178.1160  137.3740 C   0  0  0  0  0  2  0  0  0  0  0  0
  182.1690  179.1130  138.1500 C   0  0  2  0  0  3  0  0  0  0  0  0
  180.8000  180.5880  136.4710 N   0  0  0  0  0  0  0  0  0  0  0  0
  181.4050  179.9370  137.2130 C   0  0  0  0  0  0  0  0  0  0  0  0
  188.9510  178.2400  139.9390 N   0  0  0  0  0  0  0  0  0  0  0  0
  189.4080  175.9870  139.2830 O   0  0  0  0  0  0  0  0  0  0  0  0
  189.7040  177.0070  140.2110 C   0  0  2  0  0  0  0  0  0  0  0  0
  191.2020  177.2270  140.2960 C   0  0  0  0  0  2  0  0  0  0  0  0
  190.5640  176.7410  139.0190 C   0  0  1  0  0  3  0  0  0  0  0  0
  188.1180  178.0720  138.7440 C   0  0  0  0  0  2  0  0  0  0  0  0
  188.9640  179.9950  137.6220 O   0  0  0  0  0  1  0  0  0  0  0  0
  188.8370  178.6090  137.5190 C   0  0  2  0  0  3  0  0  0  0  0  0
  188.0330  178.2530  136.2790 C   0  0  0  0  0  2  0  0  0  0  0  0
  187.6200  176.7910  136.2970 C   0  0  2  0  0  3  0  0  0  0  0  0
  188.7130  175.9850  135.9710 O   0  0  0  0  0  1  0  0  0  0  0  0
  185.7180  177.4580  135.0780 O   0  0  0  0  0  0  0  0  0  0  0  0
  186.5290  176.5760  135.3030 C   0  0  0  0  0  3  0  0  0  0  0  0
  1  3  1  0  0  0  0
  2  9  1  0  0  0  0
  2 17  1  0  0  0  0
  3 17  2  0  0  0  0
  3 12  1  0  0  0  0
  4  2  2  0  0  0  0
  6  5  1  6  0  0  0
  6 14  1  0  0  0  0
  6 15  1  0  0  0  0
  7 27  1  6  0  0  0
  7 11  1  0  0  0  0
  8 16  1  1  0  0  0
  8 12  1  0  0  0  0
 11  4  1  0  0  0  0
 11  1  2  0  0  0  0
 13 18  1  6  0  0  0
 13  7  1  0  0  0  0
 13  5  1  0  0  0  0
 14  1  1  1  0  0  0
 14  8  1  0  0  0  0
 15 10  1  0  0  0  0
 15 16  1  0  0  0  0
 19 21  1  0  0  0  0
 19 22  1  0  0  0  0
 20 22  1  0  0  0  0
 22 18  1  6  0  0  0
 23 24  1  0  0  0  0
 23 20  1  0  0  0  0
 24 26  1  6  0  0  0
 24 21  1  0  0  0  0
 25 26  3  0  0  0  0
 28 29  1  0  0  0  0
 29 27  1  6  0  0  0
 29 30  1  0  0  0  0
 31 28  1  0  0  0  0
 31 29  1  0  0  0  0
 31 30  1  1  0  0  0
 32 27  1  0  0  0  0
 34 33  1  1  0  0  0
 34 32  1  0  0  0  0
 35 36  1  0  0  0  0
 35 34  1  0  0  0  0
 36 37  1  6  0  0  0
 38 39  2  0  0  0  0
 39 36  1  0  0  0  0
M  END
>  <MODEL>
2

>  <REMARK>
 VINA RESULT:      -6.9      3.006      7.274
  Name = 
  10 active torsions:
  status: ('A' for Active; 'I' for Inactive)
    1  A    between atoms: C_1  and  C_13
    2  A    between atoms: C_1  and  C_33
    3  A    between atoms: C_6  and  N_11
    4  A    between atoms: C_8  and  C_17
    5  A    between atoms: C_8  and  C_37
    6  A    between atoms: N_11  and  C_14
    7  A    between atoms: N_11  and  C_19
    8  A    between atoms: C_14  and  C_37
    9  A    between atoms: C_17  and  C_32
   10  A    between atoms: C_23  and  C_35
                            x       y       z     vdW  Elec       q    Type
                         _______ _______ _______ _____ _____    ______ ____

>  <TORSDO>
F 10

$$$$
=
 OpenBabel10232411033D

 39 45  0  0  1  0  0  0  0  0999 V2000
  183.9360  179.1950  142.6670 C   0  0  0  0  0  0  0  0  0  0  0  0
  181.3710  178.4280  143.3330 C   0  0  0  0  0  0  0  0  0  0  0  0
  183.5440  179.2090  143.9840 C   0  0  0  0  0  0  0  0  0  0  0  0
  181.8160  178.3270  141.9990 C   0  0  0  0  0  3  0  0  0  0  0  0
  186.2690  178.0820  140.7120 C   0  0  0  0  0  2  0  0  0  0  0  0
  186.0360  178.1100  142.2160 C   0  0  2  0  0  3  0  0  0  0  0  0
  183.6640  178.3950  140.2190 C   0  0  2  0  0  3  0  0  0  0  0  0
  185.7070  179.3790  144.0680 C   0  0  2  0  0  3  0  0  0  0  0  0
  179.9840  178.0240  143.6800 C   0  0  0  0  0  1  0  0  0  0  0  0
  187.4090  176.5600  143.3360 C   0  0  0  0  0  1  0  0  0  0  0  0
  183.1290  178.6930  141.6380 C   0  0  0  0  0  0  0  0  0  0  0  0
  184.6730  179.2610  144.8480 N   0  0  0  0  0  2  0  0  0  0  0  0
  185.1500  178.7890  139.9040 C   0  0  2  0  0  3  0  0  0  0  0  0
  185.3820  179.3960  142.6380 C   0  0  2  0  0  3  0  0  0  0  0  0
  187.2430  177.9740  143.0460 N   0  0  0  0  0  0  0  0  0  0  0  0
  186.8710  178.5970  144.2560 N   0  0  0  0  0  2  0  0  0  0  0  0
  182.2590  178.8170  144.3510 C   0  0  0  0  0  3  0  0  0  0  0  0
  185.4850  178.7210  138.4100 C   0  0  0  0  0  2  0  0  0  0  0  0
  186.2470  176.7390  137.2980 O   0  0  0  0  0  0  0  0  0  0  0  0
  187.7990  178.5970  137.4340 C   0  0  0  0  0  2  0  0  0  0  0  0
  187.2810  175.7840  137.3420 C   0  0  0  0  0  2  0  0  0  0  0  0
  186.6670  177.8070  138.1110 C   0  0  1  0  0  3  0  0  0  0  0  0
  188.4640  177.7860  136.3180 C   0  0  0  0  0  2  0  0  0  0  0  0
  188.5740  176.3050  136.6890 C   0  0  2  0  0  3  0  0  0  0  0  0
  189.1210  174.8960  134.5480 N   0  0  0  0  0  0  0  0  0  0  0  0
  188.8790  175.5190  135.4940 C   0  0  0  0  0  0  0  0  0  0  0  0
  182.7660  178.8660  139.1390 N   0  0  0  0  0  0  0  0  0  0  0  0
  180.8740  178.2470  137.8140 O   0  0  0  0  0  0  0  0  0  0  0  0
  181.8840  177.7820  138.6810 C   0  0  2  0  0  0  0  0  0  0  0  0
  182.6350  176.6270  138.0480 C   0  0  0  0  0  2  0  0  0  0  0  0
  182.0130  177.7040  137.1960 C   0  0  1  0  0  3  0  0  0  0  0  0
  181.9700  180.0100  139.5940 C   0  0  0  0  0  2  0  0  0  0  0  0
  182.9820  182.0100  138.7890 O   0  0  0  0  0  1  0  0  0  0  0  0
  181.9560  181.0980  138.5360 C   0  0  2  0  0  3  0  0  0  0  0  0
  180.6120  181.8080  138.5750 C   0  0  0  0  0  2  0  0  0  0  0  0
  180.1410  182.1620  137.1740 C   0  0  2  0  0  3  0  0  0  0  0  0
  180.8700  181.4340  136.2310 O   0  0  0  0  0  1  0  0  0  0  0  0
  181.4380  184.0450  136.6080 O   0  0  0  0  0  0  0  0  0  0  0  0
  180.3440  183.6200  136.9410 C   0  0  0  0  0  3  0  0  0  0  0  0
  1  3  1  0  0  0  0
  2  9  1  0  0  0  0
  2 17  1  0  0  0  0
  3 17  2  0  0  0  0
  3 12  1  0  0  0  0
  4  2  2  0  0  0  0
  6  5  1  6  0  0  0
  6 14  1  0  0  0  0
  6 15  1  0  0  0  0
  7 27  1  6  0  0  0
  7 11  1  0  0  0  0
  8 16  1  6  0  0  0
  8 12  1  0  0  0  0
 11  4  1  0  0  0  0
 11  1  2  0  0  0  0
 13 18  1  6  0  0  0
 13  7  1  0  0  0  0
 13  5  1  0  0  0  0
 14  1  1  1  0  0  0
 14  8  1  0  0  0  0
 15 10  1  0  0  0  0
 15 16  1  0  0  0  0
 19 21  1  0  0  0  0
 19 22  1  0  0  0  0
 20 22  1  0  0  0  0
 22 18  1  6  0  0  0
 23 24  1  0  0  0  0
 23 20  1  0  0  0  0
 24 26  1  6  0  0  0
 24 21  1  0  0  0  0
 25 26  3  0  0  0  0
 27 32  1  0  0  0  0
 28 29  1  0  0  0  0
 29 27  1  1  0  0  0
 30 29  1  0  0  0  0
 31 28  1  0  0  0  0
 31 30  1  1  0  0  0
 31 29  1  0  0  0  0
 34 35  1  0  0  0  0
 34 33  1  1  0  0  0
 34 32  1  0  0  0  0
 36 37  1  6  0  0  0
 36 35  1  0  0  0  0
 38 39  2  0  0  0  0
 39 36  1  0  0  0  0
M  END
>  <MODEL>
3

>  <REMARK>
 VINA RESULT:      -6.9      4.422      9.880
  Name = 
  10 active torsions:
  status: ('A' for Active; 'I' for Inactive)
    1  A    between atoms: C_1  and  C_13
    2  A    between atoms: C_1  and  C_33
    3  A    between atoms: C_6  and  N_11
    4  A    between atoms: C_8  and  C_17
    5  A    between atoms: C_8  and  C_37
    6  A    between atoms: N_11  and  C_14
    7  A    between atoms: N_11  and  C_19
    8  A    between atoms: C_14  and  C_37
    9  A    between atoms: C_17  and  C_32
   10  A    between atoms: C_23  and  C_35
                            x       y       z     vdW  Elec       q    Type
                         _______ _______ _______ _____ _____    ______ ____

>  <TORSDO>
F 10

$$$$
=
 OpenBabel10232411033D

 39 45  0  0  1  0  0  0  0  0999 V2000
  187.5770  177.6680  143.4300 C   0  0  0  0  0  0  0  0  0  0  0  0
  190.2340  178.3330  143.7550 C   0  0  0  0  0  0  0  0  0  0  0  0
  188.1310  177.6570  144.6870 C   0  0  0  0  0  0  0  0  0  0  0  0
  189.6300  178.4320  142.4850 C   0  0  0  0  0  3  0  0  0  0  0  0
  185.0650  178.8480  141.7580 C   0  0  0  0  0  2  0  0  0  0  0  0
  185.4830  178.8340  143.2210 C   0  0  2  0  0  3  0  0  0  0  0  0
  187.5720  178.4160  140.9510 C   0  0  2  0  0  3  0  0  0  0  0  0
  185.9900  177.5810  145.0440 C   0  0  2  0  0  3  0  0  0  0  0  0
  191.6690  178.6830  143.9180 C   0  0  0  0  0  1  0  0  0  0  0  0
  184.3250  180.4590  144.4700 C   0  0  0  0  0  1  0  0  0  0  0  0
  188.2690  178.1180  142.2980 C   0  0  0  0  0  0  0  0  0  0  0  0
  187.1170  177.6680  145.6870 N   0  0  0  0  0  2  0  0  0  0  0  0
  186.0440  178.0820  140.8310 C   0  0  2  0  0  3  0  0  0  0  0  0
  186.1320  177.5280  143.5850 C   0  0  2  0  0  3  0  0  0  0  0  0
  184.3960  179.0350  144.1920 N   0  0  0  0  0  0  0  0  0  0  0  0
  184.8910  178.4160  145.3590 N   0  0  0  0  0  2  0  0  0  0  0  0
  189.4660  177.9990  144.8830 C   0  0  0  0  0  3  0  0  0  0  0  0
  185.5280  178.1400  139.3900 C   0  0  0  0  0  2  0  0  0  0  0  0
  184.0920  179.9540  138.7620 O   0  0  0  0  0  0  0  0  0  0  0  0
  183.2420  177.7070  138.4360 C   0  0  0  0  0  2  0  0  0  0  0  0
  182.8090  180.4760  139.0130 C   0  0  0  0  0  2  0  0  0  0  0  0
  184.0960  178.6530  139.2960 C   0  0  1  0  0  3  0  0  0  0  0  0
  182.2780  178.4820  137.5320 C   0  0  0  0  0  2  0  0  0  0  0  0
  181.7170  179.7180  138.2380 C   0  0  2  0  0  3  0  0  0  0  0  0
  180.6040  181.3100  136.4790 N   0  0  0  0  0  0  0  0  0  0  0  0
  181.0960  180.6070  137.2560 C   0  0  0  0  0  0  0  0  0  0  0  0
  188.3080  177.8900  139.7770 N   0  0  0  0  0  0  0  0  0  0  0  0
  188.9850  179.5370  138.1820 O   0  0  0  0  0  0  0  0  0  0  0  0
  187.9630  178.6430  138.5620 C   0  0  2  0  0  0  0  0  0  0  0  0
  187.5770  177.7540  137.3960 C   0  0  0  0  0  2  0  0  0  0  0  0
  188.9780  178.2960  137.5240 C   0  0  1  0  0  3  0  0  0  0  0  0
  189.7550  177.9410  140.0120 C   0  0  0  0  0  2  0  0  0  0  0  0
  190.4900  175.9190  141.0320 O   0  0  0  0  0  1  0  0  0  0  0  0
  190.3720  176.5700  139.8040 C   0  0  2  0  0  3  0  0  0  0  0  0
  191.7440  176.7360  139.1730 C   0  0  0  0  0  2  0  0  0  0  0  0
  191.8670  175.9060  137.9060 C   0  0  2  0  0  3  0  0  0  0  0  0
  191.2640  174.6600  138.0950 O   0  0  0  0  0  1  0  0  0  0  0  0
  193.9450  176.6110  137.0500 O   0  0  0  0  0  0  0  0  0  0  0  0
  193.3090  175.7160  137.5800 C   0  0  0  0  0  3  0  0  0  0  0  0
  1  3  1  0  0  0  0
  2  9  1  0  0  0  0
  2 17  1  0  0  0  0
  3 17  2  0  0  0  0
  3 12  1  0  0  0  0
  4  2  2  0  0  0  0
  6  5  1  6  0  0  0
  6 14  1  0  0  0  0
  6 15  1  0  0  0  0
  7 27  1  6  0  0  0
  7 11  1  0  0  0  0
  8 16  1  6  0  0  0
  8 12  1  0  0  0  0
 11  4  1  0  0  0  0
 11  1  2  0  0  0  0
 13 18  1  6  0  0  0
 13  7  1  0  0  0  0
 13  5  1  0  0  0  0
 14  1  1  1  0  0  0
 14  8  1  0  0  0  0
 15 10  1  0  0  0  0
 15 16  1  0  0  0  0
 19 21  1  0  0  0  0
 19 22  1  0  0  0  0
 20 22  1  0  0  0  0
 22 18  1  6  0  0  0
 23 24  1  0  0  0  0
 23 20  1  0  0  0  0
 24 26  1  6  0  0  0
 24 21  1  0  0  0  0
 25 26  3  0  0  0  0
 27 32  1  0  0  0  0
 28 29  1  0  0  0  0
 29 27  1  1  0  0  0
 30 29  1  0  0  0  0
 31 30  1  6  0  0  0
 31 28  1  0  0  0  0
 31 29  1  0  0  0  0
 34 32  1  0  0  0  0
 34 33  1  1  0  0  0
 35 34  1  0  0  0  0
 36 37  1  1  0  0  0
 36 35  1  0  0  0  0
 38 39  2  0  0  0  0
 39 36  1  0  0  0  0
M  END
>  <MODEL>
4

>  <REMARK>
 VINA RESULT:      -6.7      2.783      6.824
  Name = 
  10 active torsions:
  status: ('A' for Active; 'I' for Inactive)
    1  A    between atoms: C_1  and  C_13
    2  A    between atoms: C_1  and  C_33
    3  A    between atoms: C_6  and  N_11
    4  A    between atoms: C_8  and  C_17
    5  A    between atoms: C_8  and  C_37
    6  A    between atoms: N_11  and  C_14
    7  A    between atoms: N_11  and  C_19
    8  A    between atoms: C_14  and  C_37
    9  A    between atoms: C_17  and  C_32
   10  A    between atoms: C_23  and  C_35
                            x       y       z     vdW  Elec       q    Type
                         _______ _______ _______ _____ _____    ______ ____

>  <TORSDO>
F 10

$$$$
=
 OpenBabel10232411033D

 39 45  0  0  1  0  0  0  0  0999 V2000
  185.5530  178.3470  138.8770 C   0  0  0  0  0  0  0  0  0  0  0  0
  185.1070  178.5460  141.5920 C   0  0  0  0  0  0  0  0  0  0  0  0
  186.5790  178.7260  139.7070 C   0  0  0  0  0  0  0  0  0  0  0  0
  184.0900  178.0660  140.7420 C   0  0  0  0  0  3  0  0  0  0  0  0
  184.8100  176.2270  136.5410 C   0  0  0  0  0  2  0  0  0  0  0  0
  186.0730  176.6050  137.3010 C   0  0  2  0  0  3  0  0  0  0  0  0
  183.2530  177.2290  138.4640 C   0  0  2  0  0  3  0  0  0  0  0  0
  187.5600  178.2350  137.8330 C   0  0  2  0  0  3  0  0  0  0  0  0
  184.8540  178.6600  143.0520 C   0  0  0  0  0  1  0  0  0  0  0  0
  187.7310  174.9440  137.1100 C   0  0  0  0  0  1  0  0  0  0  0  0
  184.3010  177.9360  139.3540 C   0  0  0  0  0  0  0  0  0  0  0  0
  187.8360  178.5870  139.0540 N   0  0  0  0  0  2  0  0  0  0  0  0
  183.5770  177.0800  136.9360 C   0  0  2  0  0  3  0  0  0  0  0  0
  186.1270  178.0840  137.5600 C   0  0  2  0  0  3  0  0  0  0  0  0
  187.3390  176.2600  136.6360 N   0  0  0  0  0  0  0  0  0  0  0  0
  188.2530  177.1810  137.1900 N   0  0  0  0  0  2  0  0  0  0  0  0
  186.3870  178.8240  141.0830 C   0  0  0  0  0  3  0  0  0  0  0  0
  182.3670  176.6360  136.1070 C   0  0  0  0  0  2  0  0  0  0  0  0
  181.8660  174.3740  136.7180 O   0  0  0  0  0  0  0  0  0  0  0  0
  181.7130  174.9430  134.3670 C   0  0  0  0  0  2  0  0  0  0  0  0
  182.2560  173.0500  136.4430 C   0  0  0  0  0  2  0  0  0  0  0  0
  182.4340  175.1680  135.7060 C   0  0  1  0  0  3  0  0  0  0  0  0
  180.9100  173.6380  134.3700 C   0  0  0  0  0  2  0  0  0  0  0  0
  181.6430  172.5300  135.1300 C   0  0  2  0  0  3  0  0  0  0  0  0
  179.9860  170.5640  135.6380 N   0  0  0  0  0  0  0  0  0  0  0  0
  180.7180  171.4330  135.4140 C   0  0  0  0  0  0  0  0  0  0  0  0
  181.8760  177.7450  138.6510 N   0  0  0  0  0  0  0  0  0  0  0  0
  179.9920  177.7240  140.1220 O   0  0  0  0  0  0  0  0  0  0  0  0
  181.2650  177.1770  139.8620 C   0  0  2  0  0  0  0  0  0  0  0  0
  181.1980  175.6630  139.8440 C   0  0  0  0  0  2  0  0  0  0  0  0
  180.0060  176.4940  139.4430 C   0  0  1  0  0  3  0  0  0  0  0  0
  181.8810  179.2100  138.7240 C   0  0  0  0  0  2  0  0  0  0  0  0
  181.3090  179.9220  136.5250 O   0  0  0  0  0  1  0  0  0  0  0  0
  180.8070  179.7860  137.8200 C   0  0  2  0  0  3  0  0  0  0  0  0
  180.3870  181.1450  138.3570 C   0  0  0  0  0  2  0  0  0  0  0  0
  181.0740  182.2680  137.5970 C   0  0  2  0  0  3  0  0  0  0  0  0
  182.0810  182.8280  138.3860 O   0  0  0  0  0  1  0  0  0  0  0  0
  180.3530  184.4970  137.3550 O   0  0  0  0  0  0  0  0  0  0  0  0
  180.0700  183.3150  137.2540 C   0  0  0  0  0  3  0  0  0  0  0  0
  1 11  2  0  0  0  0
  1  3  1  0  0  0  0
  2  9  1  0  0  0  0
  3 17  2  0  0  0  0
  4  2  2  0  0  0  0
  5 13  1  0  0  0  0
  6  5  1  6  0  0  0
  6 14  1  0  0  0  0
  7 27  1  6  0  0  0
  7 11  1  0  0  0  0
  8 16  1  1  0  0  0
  8 12  1  0  0  0  0
 11  4  1  0  0  0  0
 12  3  1  0  0  0  0
 13 18  1  6  0  0  0
 13  7  1  0  0  0  0
 14  8  1  0  0  0  0
 14  1  1  1  0  0  0
 15 10  1  0  0  0  0
 15 16  1  0  0  0  0
 15  6  1  0  0  0  0
 17  2  1  0  0  0  0
 20 23  1  0  0  0  0
 20 22  1  0  0  0  0
 21 19  1  0  0  0  0
 22 18  1  1  0  0  0
 22 19  1  0  0  0  0
 23 24  1  0  0  0  0
 24 26  1  1  0  0  0
 24 21  1  0  0  0  0
 26 25  3  0  0  0  0
 27 32  1  0  0  0  0
 29 27  1  6  0  0  0
 29 28  1  0  0  0  0
 30 29  1  0  0  0  0
 31 30  1  1  0  0  0
 31 29  1  0  0  0  0
 31 28  1  0  0  0  0
 34 33  1  6  0  0  0
 34 35  1  0  0  0  0
 34 32  1  0  0  0  0
 36 35  1  0  0  0  0
 36 37  1  1  0  0  0
 39 38  2  0  0  0  0
 39 36  1  0  0  0  0
M  END
>  <MODEL>
5

>  <REMARK>
 VINA RESULT:      -6.7      5.264      9.506
  Name = 
  10 active torsions:
  status: ('A' for Active; 'I' for Inactive)
    1  A    between atoms: C_1  and  C_13
    2  A    between atoms: C_1  and  C_33
    3  A    between atoms: C_6  and  N_11
    4  A    between atoms: C_8  and  C_17
    5  A    between atoms: C_8  and  C_37
    6  A    between atoms: N_11  and  C_14
    7  A    between atoms: N_11  and  C_19
    8  A    between atoms: C_14  and  C_37
    9  A    between atoms: C_17  and  C_32
   10  A    between atoms: C_23  and  C_35
                            x       y       z     vdW  Elec       q    Type
                         _______ _______ _______ _____ _____    ______ ____

>  <TORSDO>
F 10

$$$$
=
 OpenBabel10232411033D

 39 45  0  0  1  0  0  0  0  0999 V2000
  187.6570  177.3130  142.3590 C   0  0  0  0  0  0  0  0  0  0  0  0
  190.4110  177.4440  142.2670 C   0  0  0  0  0  0  0  0  0  0  0  0
  188.3890  177.0040  143.4800 C   0  0  0  0  0  0  0  0  0  0  0  0
  189.6450  177.8500  141.1540 C   0  0  0  0  0  3  0  0  0  0  0  0
  185.1990  179.1670  141.3480 C   0  0  0  0  0  2  0  0  0  0  0  0
  185.8320  178.8440  142.6940 C   0  0  2  0  0  3  0  0  0  0  0  0
  187.4090  178.4390  140.0410 C   0  0  2  0  0  3  0  0  0  0  0  0
  186.3610  177.2460  144.2160 C   0  0  2  0  0  3  0  0  0  0  0  0
  191.8940  177.5070  142.2030 C   0  0  0  0  0  1  0  0  0  0  0  0
  185.2350  180.4240  144.3350 C   0  0  0  0  0  1  0  0  0  0  0  0
  188.2370  177.8110  141.1850 C   0  0  0  0  0  0  0  0  0  0  0  0
  187.5690  177.0300  144.6430 N   0  0  0  0  0  2  0  0  0  0  0  0
  185.8460  178.4000  140.1660 C   0  0  2  0  0  3  0  0  0  0  0  0
  186.2560  177.4040  142.7610 C   0  0  2  0  0  3  0  0  0  0  0  0
  184.9750  179.0730  143.8680 N   0  0  0  0  0  0  0  0  0  0  0  0
  185.5140  178.1970  144.8330 N   0  0  0  0  0  2  0  0  0  0  0  0
  189.7800  177.0720  143.4660 C   0  0  0  0  0  3  0  0  0  0  0  0
  185.1300  178.7790  138.8650 C   0  0  0  0  0  2  0  0  0  0  0  0
  183.2780  178.0240  137.5450 O   0  0  0  0  0  0  0  0  0  0  0  0
  183.4350  177.1820  139.8130 C   0  0  0  0  0  2  0  0  0  0  0  0
  181.8710  177.9770  137.5520 C   0  0  0  0  0  2  0  0  0  0  0  0
  183.6640  178.3620  138.8540 C   0  0  1  0  0  3  0  0  0  0  0  0
  182.4610  176.1570  139.2230 C   0  0  0  0  0  2  0  0  0  0  0  0
  181.3380  176.8370  138.4380 C   0  0  2  0  0  3  0  0  0  0  0  0
  180.0960  175.0650  136.9590 N   0  0  0  0  0  0  0  0  0  0  0  0
  180.6450  175.8480  137.6120 C   0  0  0  0  0  0  0  0  0  0  0  0
  187.8300  177.9890  138.6930 N   0  0  0  0  0  0  0  0  0  0  0  0
  190.0280  177.6320  137.8230 O   0  0  0  0  0  0  0  0  0  0  0  0
  189.1190  178.5890  138.3190 C   0  0  2  0  0  0  0  0  0  0  0  0
  188.9810  179.7430  137.3460 C   0  0  0  0  0  2  0  0  0  0  0  0
  189.3080  178.3550  136.8570 C   0  0  1  0  0  3  0  0  0  0  0  0
  187.9180  176.5250  138.6450 C   0  0  0  0  0  2  0  0  0  0  0  0
  185.9710  176.0850  137.3470 O   0  0  0  0  0  1  0  0  0  0  0  0
  187.3640  176.0070  137.3300 C   0  0  2  0  0  3  0  0  0  0  0  0
  187.7980  174.5610  137.1470 C   0  0  0  0  0  2  0  0  0  0  0  0
  188.9760  174.4620  136.1920 C   0  0  2  0  0  3  0  0  0  0  0  0
  188.6100  173.7270  135.0620 O   0  0  0  0  0  1  0  0  0  0  0  0
  190.7660  174.3770  137.7210 O   0  0  0  0  0  0  0  0  0  0  0  0
  190.1120  173.7840  136.8800 C   0  0  0  0  0  3  0  0  0  0  0  0
  1  3  1  0  0  0  0
  2 17  1  0  0  0  0
  3 12  1  0  0  0  0
  4 11  1  0  0  0  0
  4  2  2  0  0  0  0
  6  5  1  6  0  0  0
  6 14  1  0  0  0  0
  6 15  1  0  0  0  0
  7 27  1  6  0  0  0
  7 13  1  0  0  0  0
  7 11  1  0  0  0  0
  8 12  1  1  0  0  0
  8 16  1  0  0  0  0
  9  2  1  0  0  0  0
 11  1  2  0  0  0  0
 13 18  1  6  0  0  0
 13  5  1  0  0  0  0
 14  1  1  6  0  0  0
 14  8  1  0  0  0  0
 15 10  1  0  0  0  0
 15 16  1  0  0  0  0
 17  3  2  0  0  0  0
 19 21  1  0  0  0  0
 19 22  1  0  0  0  0
 21 24  1  0  0  0  0
 22 18  1  6  0  0  0
 22 20  1  0  0  0  0
 23 20  1  0  0  0  0
 24 26  1  6  0  0  0
 24 23  1  0  0  0  0
 25 26  3  0  0  0  0
 28 29  1  0  0  0  0
 29 27  1  1  0  0  0
 30 29  1  0  0  0  0
 31 30  1  6  0  0  0
 31 28  1  0  0  0  0
 31 29  1  0  0  0  0
 32 27  1  0  0  0  0
 34 33  1  1  0  0  0
 34 32  1  0  0  0  0
 35 34  1  0  0  0  0
 36 37  1  6  0  0  0
 36 39  1  0  0  0  0
 36 35  1  0  0  0  0
 39 38  2  0  0  0  0
M  END
>  <MODEL>
6

>  <REMARK>
 VINA RESULT:      -6.5      3.238      6.856
  Name = 
  10 active torsions:
  status: ('A' for Active; 'I' for Inactive)
    1  A    between atoms: C_1  and  C_13
    2  A    between atoms: C_1  and  C_33
    3  A    between atoms: C_6  and  N_11
    4  A    between atoms: C_8  and  C_17
    5  A    between atoms: C_8  and  C_37
    6  A    between atoms: N_11  and  C_14
    7  A    between atoms: N_11  and  C_19
    8  A    between atoms: C_14  and  C_37
    9  A    between atoms: C_17  and  C_32
   10  A    between atoms: C_23  and  C_35
                            x       y       z     vdW  Elec       q    Type
                         _______ _______ _______ _____ _____    ______ ____

>  <TORSDO>
F 10

$$$$
=
 OpenBabel10232411033D

 39 45  0  0  1  0  0  0  0  0999 V2000
  183.6240  178.0180  139.8690 C   0  0  0  0  0  0  0  0  0  0  0  0
  186.2130  178.5280  140.6730 C   0  0  0  0  0  0  0  0  0  0  0  0
  183.8720  178.3700  141.1730 C   0  0  0  0  0  0  0  0  0  0  0  0
  185.9330  178.2590  139.3180 C   0  0  0  0  0  3  0  0  0  0  0  0
  181.7770  178.7960  137.3230 C   0  0  0  0  0  2  0  0  0  0  0  0
  181.8480  179.2230  138.7820 C   0  0  2  0  0  3  0  0  0  0  0  0
  184.2960  177.9170  137.3700 C   0  0  2  0  0  3  0  0  0  0  0  0
  181.7230  178.5940  140.9580 C   0  0  2  0  0  3  0  0  0  0  0  0
  187.6120  178.7900  141.0990 C   0  0  0  0  0  1  0  0  0  0  0  0
  180.7200  181.2580  139.1470 C   0  0  0  0  0  1  0  0  0  0  0  0
  184.6160  178.0150  138.8790 C   0  0  0  0  0  0  0  0  0  0  0  0
  182.6760  178.7890  141.8210 N   0  0  0  0  0  2  0  0  0  0  0  0
  182.8000  177.6910  136.9550 C   0  0  2  0  0  3  0  0  0  0  0  0
  182.1780  178.0580  139.6710 C   0  0  2  0  0  3  0  0  0  0  0  0
  180.6190  179.8200  139.3270 N   0  0  0  0  0  0  0  0  0  0  0  0
  180.7320  179.5740  140.7120 N   0  0  0  0  0  2  0  0  0  0  0  0
  185.1670  178.6440  141.6050 C   0  0  0  0  0  3  0  0  0  0  0  0
  182.6370  177.3210  135.4770 C   0  0  0  0  0  2  0  0  0  0  0  0
  182.2960  175.0310  134.8570 O   0  0  0  0  0  0  0  0  0  0  0  0
  180.8120  175.9540  136.5370 C   0  0  0  0  0  2  0  0  0  0  0  0
  181.3050  174.1640  134.3590 C   0  0  0  0  0  2  0  0  0  0  0  0
  181.6270  176.2020  135.2570 C   0  0  1  0  0  3  0  0  0  0  0  0
  180.5730  174.4600  136.7740 C   0  0  0  0  0  2  0  0  0  0  0  0
  180.3280  173.7150  135.4600 C   0  0  2  0  0  3  0  0  0  0  0  0
  180.5550  171.1340  135.8530 N   0  0  0  0  0  0  0  0  0  0  0  0
  180.4540  172.2740  135.6800 C   0  0  0  0  0  0  0  0  0  0  0  0
  185.1810  176.9780  136.6410 N   0  0  0  0  0  0  0  0  0  0  0  0
  187.5620  176.9700  136.4270 O   0  0  0  0  0  0  0  0  0  0  0  0
  186.3750  177.6710  136.1330 C   0  0  2  0  0  0  0  0  0  0  0  0
  186.2990  177.9860  134.6520 C   0  0  0  0  0  2  0  0  0  0  0  0
  187.0270  176.7610  135.1450 C   0  0  1  0  0  3  0  0  0  0  0  0
  185.5730  175.8610  137.5080 C   0  0  0  0  0  2  0  0  0  0  0  0
  183.6600  174.5860  138.1290 O   0  0  0  0  0  1  0  0  0  0  0  0
  184.7150  174.6430  137.2180 C   0  0  2  0  0  3  0  0  0  0  0  0
  185.5740  173.3940  137.3410 C   0  0  0  0  0  2  0  0  0  0  0  0
  185.5020  172.5560  136.0760 C   0  0  2  0  0  3  0  0  0  0  0  0
  185.6620  173.3740  134.9550 O   0  0  0  0  0  1  0  0  0  0  0  0
  183.7380  171.2860  136.9840 O   0  0  0  0  0  0  0  0  0  0  0  0
  184.1760  171.8760  136.0110 C   0  0  0  0  0  3  0  0  0  0  0  0
  1  3  1  0  0  0  0
  2  9  1  0  0  0  0
  2 17  1  0  0  0  0
  3 17  2  0  0  0  0
  3 12  1  0  0  0  0
  4  2  2  0  0  0  0
  6  5  1  6  0  0  0
  6 15  1  0  0  0  0
  6 14  1  0  0  0  0
  7 27  1  1  0  0  0
  7 11  1  0  0  0  0
  8 16  1  6  0  0  0
  8 12  1  0  0  0  0
 10 15  1  0  0  0  0
 11  4  1  0  0  0  0
 11  1  2  0  0  0  0
 13 18  1  6  0  0  0
 13  5  1  0  0  0  0
 13  7  1  0  0  0  0
 14  1  1  1  0  0  0
 14  8  1  0  0  0  0
 15 16  1  0  0  0  0
 19 22  1  0  0  0  0
 20 23  1  0  0  0  0
 21 19  1  0  0  0  0
 21 24  1  0  0  0  0
 22 18  1  1  0  0  0
 22 20  1  0  0  0  0
 24 26  1  1  0  0  0
 24 23  1  0  0  0  0
 26 25  3  0  0  0  0
 27 32  1  0  0  0  0
 29 28  1  0  0  0  0
 29 27  1  1  0  0  0
 30 29  1  0  0  0  0
 31 30  1  6  0  0  0
 31 29  1  0  0  0  0
 31 28  1  0  0  0  0
 34 35  1  0  0  0  0
 34 32  1  0  0  0  0
 34 33  1  1  0  0  0
 36 37  1  6  0  0  0
 36 35  1  0  0  0  0
 39 36  1  0  0  0  0
 39 38  2  0  0  0  0
M  END
>  <MODEL>
7

>  <REMARK>
 VINA RESULT:      -6.4      4.881      8.691
  Name = 
  10 active torsions:
  status: ('A' for Active; 'I' for Inactive)
    1  A    between atoms: C_1  and  C_13
    2  A    between atoms: C_1  and  C_33
    3  A    between atoms: C_6  and  N_11
    4  A    between atoms: C_8  and  C_17
    5  A    between atoms: C_8  and  C_37
    6  A    between atoms: N_11  and  C_14
    7  A    between atoms: N_11  and  C_19
    8  A    between atoms: C_14  and  C_37
    9  A    between atoms: C_17  and  C_32
   10  A    between atoms: C_23  and  C_35
                            x       y       z     vdW  Elec       q    Type
                         _______ _______ _______ _____ _____    ______ ____

>  <TORSDO>
F 10

$$$$
=
 OpenBabel10232411033D

 39 45  0  0  1  0  0  0  0  0999 V2000
  182.0950  177.4340  139.4620 C   0  0  0  0  0  0  0  0  0  0  0  0
  180.7220  175.0560  139.2010 C   0  0  0  0  0  0  0  0  0  0  0  0
  181.0250  177.1750  140.2830 C   0  0  0  0  0  0  0  0  0  0  0  0
  181.8790  175.2920  138.4310 C   0  0  0  0  0  3  0  0  0  0  0  0
  185.2080  178.3330  139.5340 C   0  0  0  0  0  2  0  0  0  0  0  0
  184.0920  178.2020  140.5620 C   0  0  2  0  0  3  0  0  0  0  0  0
  183.9770  176.6570  137.8610 C   0  0  2  0  0  3  0  0  0  0  0  0
  182.0230  178.8600  141.2200 C   0  0  2  0  0  3  0  0  0  0  0  0
  179.9820  173.7760  139.0450 C   0  0  0  0  0  1  0  0  0  0  0  0
  184.9390  178.1400  142.7580 C   0  0  0  0  0  1  0  0  0  0  0  0
  182.6090  176.4910  138.5610 C   0  0  0  0  0  0  0  0  0  0  0  0
  181.0330  178.0390  141.4140 N   0  0  0  0  0  2  0  0  0  0  0  0
  184.7540  178.0000  138.0890 C   0  0  2  0  0  3  0  0  0  0  0  0
  182.7700  178.6190  139.9810 C   0  0  2  0  0  3  0  0  0  0  0  0
  184.2670  178.9910  141.7900 N   0  0  0  0  0  0  0  0  0  0  0  0
  182.9450  179.1660  142.2490 N   0  0  0  0  0  2  0  0  0  0  0  0
  180.3190  175.9780  140.1820 C   0  0  0  0  0  3  0  0  0  0  0  0
  185.9390  178.1790  137.1330 C   0  0  0  0  0  2  0  0  0  0  0  0
  187.6260  176.8360  138.1780 O   0  0  0  0  0  0  0  0  0  0  0  0
  188.3690  178.8030  136.9720 C   0  0  0  0  0  2  0  0  0  0  0  0
  188.6800  176.9240  139.1070 C   0  0  0  0  0  2  0  0  0  0  0  0
  187.2830  178.1600  137.8500 C   0  0  1  0  0  3  0  0  0  0  0  0
  189.6940  178.0410  137.0630 C   0  0  0  0  0  2  0  0  0  0  0  0
  189.9500  177.5280  138.4820 C   0  0  2  0  0  3  0  0  0  0  0  0
  191.8610  175.7350  138.4400 N   0  0  0  0  0  0  0  0  0  0  0  0
  191.0170  176.5270  138.4590 C   0  0  0  0  0  0  0  0  0  0  0  0
  183.9450  176.3190  136.4180 N   0  0  0  0  0  0  0  0  0  0  0  0
  183.9890  177.5150  134.3490 O   0  0  0  0  0  0  0  0  0  0  0  0
  183.4060  177.4370  135.6300 C   0  0  2  0  0  0  0  0  0  0  0  0
  181.8940  177.4190  135.5240 C   0  0  0  0  0  2  0  0  0  0  0  0
  182.7530  176.8520  134.4220 C   0  0  1  0  0  3  0  0  0  0  0  0
  185.2870  175.9640  135.9440 C   0  0  0  0  0  2  0  0  0  0  0  0
  186.7110  174.0960  135.5540 O   0  0  0  0  0  1  0  0  0  0  0  0
  185.6050  174.5210  136.2900 C   0  0  2  0  0  3  0  0  0  0  0  0
  184.4000  173.6570  135.9580 C   0  0  0  0  0  2  0  0  0  0  0  0
  184.0140  172.7810  137.1390 C   0  0  2  0  0  3  0  0  0  0  0  0
  185.0350  172.7940  138.0920 O   0  0  0  0  0  1  0  0  0  0  0  0
  184.4640  170.9300  135.7540 O   0  0  0  0  0  0  0  0  0  0  0  0
  183.7930  171.3850  136.6650 C   0  0  0  0  0  3  0  0  0  0  0  0
  1  3  1  0  0  0  0
  2 17  1  0  0  0  0
  3 12  1  0  0  0  0
  4 11  1  0  0  0  0
  4  2  2  0  0  0  0
  6  5  1  6  0  0  0
  6 15  1  0  0  0  0
  7 27  1  6  0  0  0
  7 13  1  0  0  0  0
  7 11  1  0  0  0  0
  8 12  1  1  0  0  0
  8 16  1  0  0  0  0
  9  2  1  0  0  0  0
 11  1  2  0  0  0  0
 13 18  1  6  0  0  0
 13  5  1  0  0  0  0
 14  1  1  1  0  0  0
 14  6  1  0  0  0  0
 14  8  1  0  0  0  0
 15 16  1  0  0  0  0
 15 10  1  0  0  0  0
 17  3  2  0  0  0  0
 19 21  1  0  0  0  0
 20 23  1  0  0  0  0
 20 22  1  0  0  0  0
 22 18  1  6  0  0  0
 22 19  1  0  0  0  0
 23 24  1  0  0  0  0
 24 26  1  6  0  0  0
 24 21  1  0  0  0  0
 25 26  3  0  0  0  0
 28 31  1  0  0  0  0
 28 29  1  0  0  0  0
 29 27  1  1  0  0  0
 30 29  1  0  0  0  0
 31 30  1  6  0  0  0
 31 29  1  0  0  0  0
 32 34  1  0  0  0  0
 32 27  1  0  0  0  0
 34 33  1  6  0  0  0
 35 34  1  0  0  0  0
 35 36  1  0  0  0  0
 36 37  1  1  0  0  0
 38 39  2  0  0  0  0
 39 36  1  0  0  0  0
M  END
>  <MODEL>
8

>  <REMARK>
 VINA RESULT:      -6.4      4.302      8.707
  Name = 
  10 active torsions:
  status: ('A' for Active; 'I' for Inactive)
    1  A    between atoms: C_1  and  C_13
    2  A    between atoms: C_1  and  C_33
    3  A    between atoms: C_6  and  N_11
    4  A    between atoms: C_8  and  C_17
    5  A    between atoms: C_8  and  C_37
    6  A    between atoms: N_11  and  C_14
    7  A    between atoms: N_11  and  C_19
    8  A    between atoms: C_14  and  C_37
    9  A    between atoms: C_17  and  C_32
   10  A    between atoms: C_23  and  C_35
                            x       y       z     vdW  Elec       q    Type
                         _______ _______ _______ _____ _____    ______ ____

>  <TORSDO>
F 10

$$$$
=
 OpenBabel10232411033D

 39 45  0  0  1  0  0  0  0  0999 V2000
  185.7680  173.2080  136.3390 C   0  0  0  0  0  0  0  0  0  0  0  0
  183.6340  172.0390  135.0380 C   0  0  0  0  0  0  0  0  0  0  0  0
  185.7560  171.8490  136.1390 C   0  0  0  0  0  0  0  0  0  0  0  0
  183.7040  173.4420  135.1650 C   0  0  0  0  0  3  0  0  0  0  0  0
  187.6120  175.8360  135.8980 C   0  0  0  0  0  2  0  0  0  0  0  0
  187.8010  174.3360  135.7230 C   0  0  2  0  0  3  0  0  0  0  0  0
  184.9560  175.6000  135.7670 C   0  0  2  0  0  3  0  0  0  0  0  0
  187.8060  172.2900  136.7030 C   0  0  2  0  0  3  0  0  0  0  0  0
  182.4750  171.4180  134.3460 C   0  0  0  0  0  1  0  0  0  0  0  0
  189.6500  173.8510  134.3480 C   0  0  0  0  0  1  0  0  0  0  0  0
  184.7940  174.0630  135.8070 C   0  0  0  0  0  0  0  0  0  0  0  0
  187.0590  171.3010  136.3110 N   0  0  0  0  0  2  0  0  0  0  0  0
  186.2190  176.2170  136.4640 C   0  0  2  0  0  3  0  0  0  0  0  0
  187.1010  173.5720  136.8100 C   0  0  2  0  0  3  0  0  0  0  0  0
  189.1970  173.8700  135.7280 N   0  0  0  0  0  0  0  0  0  0  0  0
  189.0830  172.5250  136.1380 N   0  0  0  0  0  2  0  0  0  0  0  0
  184.6980  171.2320  135.4760 C   0  0  0  0  0  3  0  0  0  0  0  0
  186.1350  177.7400  136.6190 C   0  0  0  0  0  2  0  0  0  0  0  0
  187.2360  177.3780  138.7160 O   0  0  0  0  0  0  0  0  0  0  0  0
  188.4890  178.5390  136.9960 C   0  0  0  0  0  2  0  0  0  0  0  0
  187.8800  178.0790  139.7540 C   0  0  0  0  0  2  0  0  0  0  0  0
  187.1200  178.2830  137.6460 C   0  0  1  0  0  3  0  0  0  0  0  0
  189.6390  178.1300  137.9210 C   0  0  0  0  0  2  0  0  0  0  0  0
  189.3250  178.4560  139.3830 C   0  0  2  0  0  3  0  0  0  0  0  0
  191.0040  177.1910  140.9490 N   0  0  0  0  0  0  0  0  0  0  0  0
  190.2620  177.7490  140.2570 C   0  0  0  0  0  0  0  0  0  0  0  0
  183.7340  176.3330  136.1730 N   0  0  0  0  0  0  0  0  0  0  0  0
  181.5030  176.3220  135.3130 O   0  0  0  0  0  0  0  0  0  0  0  0
  182.8590  176.5720  135.0160 C   0  0  2  0  0  0  0  0  0  0  0  0
  183.0230  177.9550  134.4180 C   0  0  0  0  0  2  0  0  0  0  0  0
  181.9130  177.6630  135.3950 C   0  0  1  0  0  3  0  0  0  0  0  0
  183.0100  175.5910  137.2110 C   0  0  0  0  0  2  0  0  0  0  0  0
  182.5080  175.5480  139.5380 O   0  0  0  0  0  1  0  0  0  0  0  0
  183.3030  176.1780  138.5800 C   0  0  2  0  0  3  0  0  0  0  0  0
  183.0000  177.6670  138.5540 C   0  0  0  0  0  2  0  0  0  0  0  0
  183.1310  178.2750  139.9400 C   0  0  2  0  0  3  0  0  0  0  0  0
  182.0620  179.1410  140.1820 O   0  0  0  0  0  1  0  0  0  0  0  0
  184.6230  179.9740  139.2810 O   0  0  0  0  0  0  0  0  0  0  0  0
  184.4130  179.0310  140.0260 C   0  0  0  0  0  3  0  0  0  0  0  0
  2  4  2  0  0  0  0
  2 17  1  0  0  0  0
  3 12  1  0  0  0  0
  3  1  1  0  0  0  0
  4 11  1  0  0  0  0
  5 13  1  0  0  0  0
  6 15  1  0  0  0  0
  6  5  1  1  0  0  0
  6 14  1  0  0  0  0
  7 11  1  0  0  0  0
  7 27  1  1  0  0  0
  7 13  1  0  0  0  0
  8 16  1  6  0  0  0
  8 14  1  0  0  0  0
  9  2  1  0  0  0  0
 10 15  1  0  0  0  0
 11  1  2  0  0  0  0
 12  8  1  0  0  0  0
 13 18  1  6  0  0  0
 14  1  1  6  0  0  0
 15 16  1  0  0  0  0
 17  3  2  0  0  0  0
 19 21  1  0  0  0  0
 20 22  1  0  0  0  0
 20 23  1  0  0  0  0
 22 18  1  6  0  0  0
 22 19  1  0  0  0  0
 23 24  1  0  0  0  0
 24 21  1  0  0  0  0
 24 26  1  1  0  0  0
 26 25  3  0  0  0  0
 27 32  1  0  0  0  0
 28 31  1  0  0  0  0
 29 28  1  0  0  0  0
 29 31  1  0  0  0  0
 29 27  1  1  0  0  0
 30 29  1  0  0  0  0
 31 30  1  6  0  0  0
 32 34  1  0  0  0  0
 34 33  1  1  0  0  0
 35 34  1  0  0  0  0
 35 36  1  0  0  0  0
 36 39  1  0  0  0  0
 36 37  1  6  0  0  0
 38 39  2  0  0  0  0
M  END
>  <MODEL>
9

>  <REMARK>
 VINA RESULT:      -6.4      3.935      7.512
  Name = 
  10 active torsions:
  status: ('A' for Active; 'I' for Inactive)
    1  A    between atoms: C_1  and  C_13
    2  A    between atoms: C_1  and  C_33
    3  A    between atoms: C_6  and  N_11
    4  A    between atoms: C_8  and  C_17
    5  A    between atoms: C_8  and  C_37
    6  A    between atoms: N_11  and  C_14
    7  A    between atoms: N_11  and  C_19
    8  A    between atoms: C_14  and  C_37
    9  A    between atoms: C_17  and  C_32
   10  A    between atoms: C_23  and  C_35
                            x       y       z     vdW  Elec       q    Type
                         _______ _______ _______ _____ _____    ______ ____

>  <TORSDO>
F 10

$$$$
