=
 OpenBabel10232411243D

 36 40  0  0  1  0  0  0  0  0999 V2000
  191.3820  176.6200  139.0370 C   0  0  0  0  0  2  0  0  0  0  0  0
  190.7390  177.1840  140.2640 C   0  0  0  0  0  0  0  0  0  0  0  0
  189.4110  177.3130  140.3030 C   0  0  0  0  0  3  0  0  0  0  0  0
  190.7670  177.2560  137.7910 C   0  0  0  0  0  2  0  0  0  0  0  0
  188.5780  176.8600  139.1400 C   0  0  0  0  0  2  0  0  0  0  0  0
  189.2260  177.1920  137.7820 C   0  0  1  0  0  3  0  0  0  0  0  0
  188.6510  178.4560  137.2190 C   0  0  0  0  0  0  0  0  0  0  0  0
  189.0680  179.5460  137.5860 O   0  0  0  0  0  0  0  0  0  0  0  0
  187.5320  178.3840  136.2310 C   0  0  0  0  0  2  0  0  0  0  0  0
  181.0640  177.5180  140.7610 F   0  0  0  0  0  0  0  0  0  0  0  0
  184.5840  178.3280  138.7550 C   0  0  0  0  0  0  0  0  0  0  0  0
  185.6730  176.9170  136.4420 O   0  0  0  0  0  0  0  0  0  0  0  0
  186.2900  177.9110  136.9080 C   0  0  0  0  0  0  0  0  0  0  0  0
  182.2150  177.8020  140.1030 C   0  0  0  0  0  0  0  0  0  0  0  0
  183.0490  178.8250  140.5490 C   0  0  0  0  0  3  0  0  0  0  0  0
  185.8010  178.6160  138.0570 N   0  0  0  0  0  2  0  0  0  0  0  0
  183.7530  177.3300  138.3380 N   0  0  0  0  0  0  0  0  0  0  0  0
  184.2390  179.0990  139.8700 C   0  0  0  0  0  2  0  0  0  0  0  0
  182.5880  177.0550  138.9830 C   0  0  0  0  0  2  0  0  0  0  0  0
  191.5610  177.5280  141.3870 N   0  0  0  0  0  2  0  0  0  0  0  0
  191.6160  177.3320  143.7590 C   0  0  1  0  0  3  0  0  0  0  0  0
  191.0310  178.0600  142.6350 C   0  0  1  0  0  3  0  0  0  0  0  0
  192.1230  178.6680  143.4100 N   0  0  0  0  0  2  0  0  0  0  0  0
  190.7570  177.4310  144.9410 N   0  0  0  0  0  0  0  0  0  0  0  0
  192.0540  175.6120  145.7340 F   0  0  0  0  0  0  0  0  0  0  0  0
  191.4480  176.8120  146.0800 C   0  0  2  0  0  3  0  0  0  0  0  0
  190.4980  176.6040  147.2450 C   0  0  0  0  0  1  0  0  0  0  0  0
  189.4240  176.8340  144.7160 C   0  0  0  0  0  2  0  0  0  0  0  0
  187.0060  177.2300  144.5580 C   0  0  2  0  0  3  0  0  0  0  0  0
  188.3370  177.8500  144.3660 C   0  0  2  0  0  3  0  0  0  0  0  0
  187.5780  177.3720  143.2810 O   0  0  0  0  0  0  0  0  0  0  0  0
  184.7650  178.2980  143.7640 C   0  0  0  0  0  1  0  0  0  0  0  0
  185.8880  178.2770  144.7990 C   0  0  1  0  0  3  0  0  0  0  0  0
  185.2930  178.3230  146.2200 C   0  0  0  0  0  3  0  0  0  0  0  0
  185.8480  179.4370  147.0940 C   0  0  0  0  0  2  0  0  0  0  0  0
  186.3480  178.0130  147.2680 C   0  0  0  0  0  2  0  0  0  0  0  0
  1  2  1  0  0  0  0
  2  3  2  0  0  0  0
  2 20  1  0  0  0  0
  4  1  1  0  0  0  0
  5  3  1  0  0  0  0
  6  7  1  1  0  0  0
  6  4  1  0  0  0  0
  6  5  1  0  0  0  0
  7  8  2  0  0  0  0
  9 13  1  0  0  0  0
  9  7  1  0  0  0  0
 11 18  1  0  0  0  0
 12 13  2  0  0  0  0
 13 16  1  0  0  0  0
 14 15  2  0  0  0  0
 14 10  1  0  0  0  0
 16 11  1  0  0  0  0
 17 11  2  0  0  0  0
 17 19  1  0  0  0  0
 18 15  1  0  0  0  0
 19 14  1  0  0  0  0
 21 24  1  1  0  0  0
 22 20  1  6  0  0  0
 22 23  1  0  0  0  0
 22 21  1  0  0  0  0
 23 21  1  0  0  0  0
 24 26  1  0  0  0  0
 25 26  1  0  0  0  0
 26 27  1  1  0  0  0
 28 24  1  0  0  0  0
 29 33  1  6  0  0  0
 30 29  1  0  0  0  0
 30 28  1  1  0  0  0
 31 30  1  0  0  0  0
 31 29  1  0  0  0  0
 33 32  1  6  0  0  0
 33 34  1  0  0  0  0
 34 35  1  0  0  0  0
 34 36  1  0  0  0  0
 35 36  1  0  0  0  0
M  END
>  <MODEL>
1

>  <REMARK>
 VINA RESULT:      -7.9      0.000      0.000
  Name = 
  11 active torsions:
  status: ('A' for Active; 'I' for Inactive)
    1  A    between atoms: C_1  and  C_26
    2  A    between atoms: C_7  and  N_27
    3  A    between atoms: C_10  and  N_24
    4  A    between atoms: C_10  and  C_29
    5  A    between atoms: C_12  and  N_24
    6  A    between atoms: C_13  and  N_24
    7  A    between atoms: C_14  and  N_27
    8  A    between atoms: C_15  and  C_22
    9  A    between atoms: C_17  and  C_22
   10  A    between atoms: C_17  and  C_35
   11  A    between atoms: C_25  and  C_26
                            x       y       z     vdW  Elec       q    Type
                         _______ _______ _______ _____ _____    ______ ____

>  <TORSDO>
F 11

$$$$
=
 OpenBabel10232411243D

 36 40  0  0  1  0  0  0  0  0999 V2000
  190.2680  176.6270  136.4770 C   0  0  0  0  0  2  0  0  0  0  0  0
  189.5160  175.9610  137.5830 C   0  0  0  0  0  0  0  0  0  0  0  0
  188.3480  175.3700  137.3150 C   0  0  0  0  0  3  0  0  0  0  0  0
  189.3100  177.4650  135.6310 C   0  0  0  0  0  2  0  0  0  0  0  0
  187.8240  175.3490  135.9090 C   0  0  0  0  0  2  0  0  0  0  0  0
  188.0710  176.6740  135.1640 C   0  0  1  0  0  3  0  0  0  0  0  0
  186.8490  177.5390  135.2080 C   0  0  0  0  0  0  0  0  0  0  0  0
  186.8100  178.5940  134.5900 O   0  0  0  0  0  0  0  0  0  0  0  0
  185.6820  177.1280  136.0480 C   0  0  0  0  0  2  0  0  0  0  0  0
  184.5540  179.6340  143.5000 F   0  0  0  0  0  0  0  0  0  0  0  0
  184.6460  178.1540  139.6440 C   0  0  0  0  0  0  0  0  0  0  0  0
  186.7620  178.4980  137.6620 O   0  0  0  0  0  0  0  0  0  0  0  0
  185.7500  177.8060  137.3740 C   0  0  0  0  0  0  0  0  0  0  0  0
  184.5780  179.1320  142.2410 C   0  0  0  0  0  0  0  0  0  0  0  0
  183.4920  178.4120  141.7470 C   0  0  0  0  0  3  0  0  0  0  0  0
  184.6780  177.6340  138.3100 N   0  0  0  0  0  2  0  0  0  0  0  0
  185.6960  178.8640  140.1480 N   0  0  0  0  0  0  0  0  0  0  0  0
  183.5240  177.9110  140.4440 C   0  0  0  0  0  2  0  0  0  0  0  0
  185.6850  179.3520  141.4170 C   0  0  0  0  0  2  0  0  0  0  0  0
  190.0880  175.9290  138.8980 N   0  0  0  0  0  2  0  0  0  0  0  0
  190.7910  177.1900  140.7910 C   0  0  1  0  0  3  0  0  0  0  0  0
  189.6390  176.7840  139.9890 C   0  0  1  0  0  3  0  0  0  0  0  0
  190.2080  178.1290  139.8210 N   0  0  0  0  0  2  0  0  0  0  0  0
  190.3720  177.5640  142.1430 N   0  0  0  0  0  0  0  0  0  0  0  0
  191.4630  176.2010  143.7470 F   0  0  0  0  0  0  0  0  0  0  0  0
  191.5130  177.4020  143.0530 C   0  0  2  0  0  3  0  0  0  0  0  0
  191.6040  178.5660  144.0240 C   0  0  0  0  0  1  0  0  0  0  0  0
  189.1930  176.7940  142.5970 C   0  0  0  0  0  2  0  0  0  0  0  0
  188.0190  176.8440  144.7520 C   0  0  2  0  0  3  0  0  0  0  0  0
  188.2380  177.5860  143.4880 C   0  0  2  0  0  3  0  0  0  0  0  0
  187.0700  176.8320  143.7130 O   0  0  0  0  0  0  0  0  0  0  0  0
  186.0920  178.1410  145.9350 C   0  0  0  0  0  1  0  0  0  0  0  0
  187.5730  177.7670  145.9160 C   0  0  1  0  0  3  0  0  0  0  0  0
  188.0260  177.3470  147.3280 C   0  0  0  0  0  3  0  0  0  0  0  0
  189.2400  178.1050  147.8460 C   0  0  0  0  0  2  0  0  0  0  0  0
  189.3990  176.6980  147.2950 C   0  0  0  0  0  2  0  0  0  0  0  0
  1  2  1  0  0  0  0
  2 20  1  0  0  0  0
  3  2  2  0  0  0  0
  4  1  1  0  0  0  0
  5  3  1  0  0  0  0
  6  7  1  1  0  0  0
  6  4  1  0  0  0  0
  6  5  1  0  0  0  0
  7  9  1  0  0  0  0
  8  7  2  0  0  0  0
  9 13  1  0  0  0  0
 11 17  2  0  0  0  0
 11 18  1  0  0  0  0
 13 12  2  0  0  0  0
 13 16  1  0  0  0  0
 14 10  1  0  0  0  0
 15 14  2  0  0  0  0
 16 11  1  0  0  0  0
 17 19  1  0  0  0  0
 18 15  1  0  0  0  0
 19 14  1  0  0  0  0
 21 24  1  1  0  0  0
 22 20  1  6  0  0  0
 22 21  1  0  0  0  0
 23 22  1  0  0  0  0
 23 21  1  0  0  0  0
 24 28  1  0  0  0  0
 24 26  1  0  0  0  0
 26 25  1  0  0  0  0
 26 27  1  1  0  0  0
 29 33  1  1  0  0  0
 30 28  1  6  0  0  0
 30 31  1  0  0  0  0
 30 29  1  0  0  0  0
 31 29  1  0  0  0  0
 33 32  1  1  0  0  0
 33 34  1  0  0  0  0
 34 35  1  0  0  0  0
 36 34  1  0  0  0  0
 36 35  1  0  0  0  0
M  END
>  <MODEL>
2

>  <REMARK>
 VINA RESULT:      -7.9      1.884      2.915
  Name = 
  11 active torsions:
  status: ('A' for Active; 'I' for Inactive)
    1  A    between atoms: C_1  and  C_26
    2  A    between atoms: C_7  and  N_27
    3  A    between atoms: C_10  and  N_24
    4  A    between atoms: C_10  and  C_29
    5  A    between atoms: C_12  and  N_24
    6  A    between atoms: C_13  and  N_24
    7  A    between atoms: C_14  and  N_27
    8  A    between atoms: C_15  and  C_22
    9  A    between atoms: C_17  and  C_22
   10  A    between atoms: C_17  and  C_35
   11  A    between atoms: C_25  and  C_26
                            x       y       z     vdW  Elec       q    Type
                         _______ _______ _______ _____ _____    ______ ____

>  <TORSDO>
F 11

$$$$
=
 OpenBabel10232411243D

 36 40  0  0  1  0  0  0  0  0999 V2000
  190.9810  176.2550  142.5850 C   0  0  0  0  0  2  0  0  0  0  0  0
  190.0180  177.3990  142.5600 C   0  0  0  0  0  0  0  0  0  0  0  0
  190.2310  178.4480  143.3580 C   0  0  0  0  0  3  0  0  0  0  0  0
  191.3200  175.8950  144.0310 C   0  0  0  0  0  2  0  0  0  0  0  0
  191.4450  178.4850  144.2400 C   0  0  0  0  0  2  0  0  0  0  0  0
  191.7680  177.1140  144.8640 C   0  0  1  0  0  3  0  0  0  0  0  0
  191.2210  177.0270  146.2560 C   0  0  0  0  0  0  0  0  0  0  0  0
  191.7670  177.6170  147.1770 O   0  0  0  0  0  0  0  0  0  0  0  0
  190.0200  176.1790  146.5260 C   0  0  0  0  0  2  0  0  0  0  0  0
  183.1840  179.7300  144.5860 F   0  0  0  0  0  0  0  0  0  0  0  0
  186.7800  177.7570  145.0860 C   0  0  0  0  0  0  0  0  0  0  0  0
  188.4200  177.6430  147.4990 O   0  0  0  0  0  0  0  0  0  0  0  0
  188.7870  177.0160  146.4700 C   0  0  0  0  0  0  0  0  0  0  0  0
  184.3580  179.0680  144.7410 C   0  0  0  0  0  0  0  0  0  0  0  0
  184.9340  178.3920  143.6680 C   0  0  0  0  0  3  0  0  0  0  0  0
  188.0230  177.0660  145.2590 N   0  0  0  0  0  2  0  0  0  0  0  0
  186.1980  178.4270  146.1220 N   0  0  0  0  0  0  0  0  0  0  0  0
  186.1490  177.7250  143.8380 C   0  0  0  0  0  3  0  0  0  0  0  0
  185.0110  179.0750  145.9760 C   0  0  0  0  0  3  0  0  0  0  0  0
  188.9160  177.3640  141.6440 N   0  0  0  0  0  2  0  0  0  0  0  0
  187.9310  177.7600  139.5120 C   0  0  1  0  0  3  0  0  0  0  0  0
  188.7130  178.3550  140.5950 C   0  0  1  0  0  3  0  0  0  0  0  0
  187.2790  178.6570  140.4800 N   0  0  0  0  0  2  0  0  0  0  0  0
  188.1570  178.4800  138.2580 N   0  0  0  0  0  0  0  0  0  0  0  0
  186.3460  177.0930  137.6130 F   0  0  0  0  0  0  0  0  0  0  0  0
  186.9780  178.3090  137.3970 C   0  0  2  0  0  3  0  0  0  0  0  0
  187.3490  178.4580  135.9330 C   0  0  0  0  0  1  0  0  0  0  0  0
  189.3990  178.0490  137.5810 C   0  0  0  0  0  2  0  0  0  0  0  0
  190.4770  176.0290  136.6930 C   0  0  2  0  0  3  0  0  0  0  0  0
  189.8000  176.6040  137.8790 C   0  0  2  0  0  3  0  0  0  0  0  0
  189.1330  175.7380  136.9920 O   0  0  0  0  0  0  0  0  0  0  0  0
  190.9380  173.4660  136.5890 C   0  0  0  0  0  1  0  0  0  0  0  0
  191.4080  174.8430  137.0530 C   0  0  1  0  0  3  0  0  0  0  0  0
  192.9020  175.0270  136.7220 C   0  0  0  0  0  3  0  0  0  0  0  0
  193.7800  175.3080  137.9320 C   0  0  0  0  0  2  0  0  0  0  0  0
  193.3610  176.4440  137.0150 C   0  0  0  0  0  2  0  0  0  0  0  0
  1  4  1  0  0  0  0
  2  1  1  0  0  0  0
  2  3  2  0  0  0  0
  3  5  1  0  0  0  0
  4  6  1  0  0  0  0
  5  6  1  0  0  0  0
  6  7  1  1  0  0  0
  7  9  1  0  0  0  0
  7  8  2  0  0  0  0
 10 14  1  0  0  0  0
 11 16  1  0  0  0  0
 11 17  2  0  0  0  0
 13  9  1  0  0  0  0
 13 12  2  0  0  0  0
 14 19  2  0  0  0  0
 15 18  2  0  0  0  0
 15 14  1  0  0  0  0
 16 13  1  0  0  0  0
 18 11  1  0  0  0  0
 19 17  1  0  0  0  0
 20  2  1  0  0  0  0
 21 24  1  6  0  0  0
 21 23  1  0  0  0  0
 21 22  1  0  0  0  0
 22 20  1  1  0  0  0
 23 22  1  0  0  0  0
 26 27  1  6  0  0  0
 26 25  1  0  0  0  0
 26 24  1  0  0  0  0
 28 24  1  0  0  0  0
 29 31  1  0  0  0  0
 29 33  1  1  0  0  0
 29 30  1  0  0  0  0
 30 28  1  6  0  0  0
 31 30  1  0  0  0  0
 33 32  1  6  0  0  0
 34 36  1  0  0  0  0
 34 33  1  0  0  0  0
 34 35  1  0  0  0  0
 36 35  1  0  0  0  0
M  END
>  <MODEL>
3

>  <REMARK>
 VINA RESULT:      -7.7      3.060      8.177
  Name = 
  11 active torsions:
  status: ('A' for Active; 'I' for Inactive)
    1  A    between atoms: C_1  and  C_26
    2  A    between atoms: C_7  and  N_27
    3  A    between atoms: C_10  and  N_24
    4  A    between atoms: C_10  and  C_29
    5  A    between atoms: C_12  and  N_24
    6  A    between atoms: C_13  and  N_24
    7  A    between atoms: C_14  and  N_27
    8  A    between atoms: C_15  and  C_22
    9  A    between atoms: C_17  and  C_22
   10  A    between atoms: C_17  and  C_35
   11  A    between atoms: C_25  and  C_26
                            x       y       z     vdW  Elec       q    Type
                         _______ _______ _______ _____ _____    ______ ____

>  <TORSDO>
F 11

$$$$
=
 OpenBabel10232411243D

 36 40  0  0  1  0  0  0  0  0999 V2000
  191.2120  176.4820  142.8480 C   0  0  0  0  0  2  0  0  0  0  0  0
  190.3220  177.6800  142.7640 C   0  0  0  0  0  0  0  0  0  0  0  0
  190.4940  178.6830  143.6290 C   0  0  0  0  0  3  0  0  0  0  0  0
  191.3590  176.0470  144.3060 C   0  0  0  0  0  2  0  0  0  0  0  0
  191.5960  178.6150  144.6460 C   0  0  0  0  0  2  0  0  0  0  0  0
  191.7690  177.2040  145.2400 C   0  0  1  0  0  3  0  0  0  0  0  0
  191.0570  177.0950  146.5540 C   0  0  0  0  0  0  0  0  0  0  0  0
  191.5080  177.6370  147.5530 O   0  0  0  0  0  0  0  0  0  0  0  0
  189.8050  176.2820  146.6510 C   0  0  0  0  0  2  0  0  0  0  0  0
  183.2850  179.9150  143.9340 F   0  0  0  0  0  0  0  0  0  0  0  0
  186.7470  177.8570  144.8540 C   0  0  0  0  0  0  0  0  0  0  0  0
  188.2060  177.8810  147.3830 O   0  0  0  0  0  0  0  0  0  0  0  0
  188.6170  177.1570  146.4380 C   0  0  0  0  0  0  0  0  0  0  0  0
  184.4140  179.2240  144.2280 C   0  0  0  0  0  0  0  0  0  0  0  0
  185.0350  178.4410  143.2570 C   0  0  0  0  0  3  0  0  0  0  0  0
  187.9430  177.1360  145.1730 N   0  0  0  0  0  2  0  0  0  0  0  0
  186.1230  178.6310  145.7880 N   0  0  0  0  0  0  0  0  0  0  0  0
  186.2050  177.7450  143.5690 C   0  0  0  0  0  3  0  0  0  0  0  0
  184.9790  179.3090  145.5030 C   0  0  0  0  0  3  0  0  0  0  0  0
  189.3350  177.7450  141.7250 N   0  0  0  0  0  2  0  0  0  0  0  0
  189.2930  178.0700  139.3670 C   0  0  1  0  0  3  0  0  0  0  0  0
  189.4860  177.0890  140.4340 C   0  0  1  0  0  3  0  0  0  0  0  0
  190.6540  177.6480  139.7360 N   0  0  0  0  0  2  0  0  0  0  0  0
  188.8990  177.4070  138.1220 N   0  0  0  0  0  0  0  0  0  0  0  0
  189.1970  179.5780  137.2180 F   0  0  0  0  0  0  0  0  0  0  0  0
  189.3620  178.2200  136.9890 C   0  0  2  0  0  3  0  0  0  0  0  0
  188.6580  177.8130  135.7060 C   0  0  0  0  0  1  0  0  0  0  0  0
  187.4440  177.1540  138.0600 C   0  0  0  0  0  2  0  0  0  0  0  0
  185.1850  178.0600  138.3820 C   0  0  2  0  0  3  0  0  0  0  0  0
  186.6000  178.1900  138.8020 C   0  0  2  0  0  3  0  0  0  0  0  0
  186.0170  179.0740  137.8740 O   0  0  0  0  0  0  0  0  0  0  0  0
  183.4060  179.8550  139.0210 C   0  0  0  0  0  1  0  0  0  0  0  0
  184.1950  178.6160  139.4390 C   0  0  1  0  0  3  0  0  0  0  0  0
  183.2510  177.5880  140.0930 C   0  0  0  0  0  3  0  0  0  0  0  0
  181.8160  177.6500  139.5920 C   0  0  0  0  0  2  0  0  0  0  0  0
  182.1840  178.2740  140.9280 C   0  0  0  0  0  2  0  0  0  0  0  0
  1  4  1  0  0  0  0
  2  1  1  0  0  0  0
  2  3  2  0  0  0  0
  3  5  1  0  0  0  0
  4  6  1  0  0  0  0
  5  6  1  0  0  0  0
  6  7  1  1  0  0  0
  7  9  1  0  0  0  0
  7  8  2  0  0  0  0
 10 14  1  0  0  0  0
 11 16  1  0  0  0  0
 11 17  2  0  0  0  0
 13  9  1  0  0  0  0
 13 12  2  0  0  0  0
 14 19  2  0  0  0  0
 15 18  2  0  0  0  0
 15 14  1  0  0  0  0
 16 13  1  0  0  0  0
 18 11  1  0  0  0  0
 19 17  1  0  0  0  0
 20  2  1  0  0  0  0
 21 24  1  6  0  0  0
 21 23  1  0  0  0  0
 21 22  1  0  0  0  0
 22 20  1  1  0  0  0
 23 22  1  0  0  0  0
 26 27  1  6  0  0  0
 26 25  1  0  0  0  0
 26 24  1  0  0  0  0
 28 24  1  0  0  0  0
 29 30  1  0  0  0  0
 29 33  1  1  0  0  0
 30 28  1  6  0  0  0
 31 29  1  0  0  0  0
 31 30  1  0  0  0  0
 33 32  1  6  0  0  0
 33 34  1  0  0  0  0
 34 36  1  0  0  0  0
 35 34  1  0  0  0  0
 35 36  1  0  0  0  0
M  END
>  <MODEL>
4

>  <REMARK>
 VINA RESULT:      -7.6      2.683      7.154
  Name = 
  11 active torsions:
  status: ('A' for Active; 'I' for Inactive)
    1  A    between atoms: C_1  and  C_26
    2  A    between atoms: C_7  and  N_27
    3  A    between atoms: C_10  and  N_24
    4  A    between atoms: C_10  and  C_29
    5  A    between atoms: C_12  and  N_24
    6  A    between atoms: C_13  and  N_24
    7  A    between atoms: C_14  and  N_27
    8  A    between atoms: C_15  and  C_22
    9  A    between atoms: C_17  and  C_22
   10  A    between atoms: C_17  and  C_35
   11  A    between atoms: C_25  and  C_26
                            x       y       z     vdW  Elec       q    Type
                         _______ _______ _______ _____ _____    ______ ____

>  <TORSDO>
F 11

$$$$
=
 OpenBabel10232411243D

 36 40  0  0  1  0  0  0  0  0999 V2000
  184.6220  179.0170  139.7920 C   0  0  0  0  0  2  0  0  0  0  0  0
  183.6190  177.9340  140.0310 C   0  0  0  0  0  0  0  0  0  0  0  0
  183.0700  177.8090  141.2420 C   0  0  0  0  0  3  0  0  0  0  0  0
  185.6180  179.0650  140.9500 C   0  0  0  0  0  2  0  0  0  0  0  0
  183.4350  178.7720  142.3340 C   0  0  0  0  0  2  0  0  0  0  0  0
  184.9320  179.1340  142.3300 C   0  0  1  0  0  3  0  0  0  0  0  0
  185.6770  178.3020  143.3280 C   0  0  0  0  0  0  0  0  0  0  0  0
  186.3160  177.3230  142.9690 O   0  0  0  0  0  0  0  0  0  0  0  0
  185.6060  178.6500  144.7810 C   0  0  0  0  0  2  0  0  0  0  0  0
  192.6460  176.0170  147.3510 F   0  0  0  0  0  0  0  0  0  0  0  0
  189.2240  177.4770  145.5550 C   0  0  0  0  0  0  0  0  0  0  0  0
  186.5140  177.4840  146.6430 O   0  0  0  0  0  0  0  0  0  0  0  0
  186.7290  177.9970  145.5120 C   0  0  0  0  0  0  0  0  0  0  0  0
  191.5320  176.5110  146.7570 C   0  0  0  0  0  0  0  0  0  0  0  0
  191.5950  177.0390  145.4680 C   0  0  0  0  0  3  0  0  0  0  0  0
  188.0400  177.9920  144.9330 N   0  0  0  0  0  2  0  0  0  0  0  0
  189.1860  176.9540  146.8140 N   0  0  0  0  0  0  0  0  0  0  0  0
  190.4380  177.5330  144.8620 C   0  0  0  0  0  3  0  0  0  0  0  0
  190.3050  176.4760  147.4220 C   0  0  0  0  0  3  0  0  0  0  0  0
  183.2340  177.0860  138.9410 N   0  0  0  0  0  2  0  0  0  0  0  0
  184.3820  175.4900  137.5970 C   0  0  1  0  0  3  0  0  0  0  0  0
  184.0420  176.9040  137.7420 C   0  0  1  0  0  3  0  0  0  0  0  0
  183.3060  176.0720  136.7790 N   0  0  0  0  0  2  0  0  0  0  0  0
  185.5840  175.3290  136.7770 N   0  0  0  0  0  0  0  0  0  0  0  0
  186.4920  173.3710  135.7970 F   0  0  0  0  0  0  0  0  0  0  0  0
  186.1230  173.9790  136.9890 C   0  0  2  0  0  3  0  0  0  0  0  0
  185.1300  173.1090  137.7380 C   0  0  0  0  0  1  0  0  0  0  0  0
  186.5930  176.3740  137.0540 C   0  0  0  0  0  2  0  0  0  0  0  0
  188.8640  176.9500  137.7910 C   0  0  2  0  0  3  0  0  0  0  0  0
  187.9720  175.8260  137.4210 C   0  0  2  0  0  3  0  0  0  0  0  0
  188.9330  176.3350  136.5270 O   0  0  0  0  0  0  0  0  0  0  0  0
  191.3360  176.1500  137.9850 C   0  0  0  0  0  1  0  0  0  0  0  0
  190.0370  176.5070  138.7030 C   0  0  1  0  0  3  0  0  0  0  0  0
  190.3370  177.4130  139.9130 C   0  0  0  0  0  3  0  0  0  0  0  0
  190.2230  176.7140  141.2600 C   0  0  0  0  0  2  0  0  0  0  0  0
  189.1000  177.6130  140.7710 C   0  0  0  0  0  2  0  0  0  0  0  0
  1  2  1  0  0  0  0
  1  4  1  0  0  0  0
  2  3  2  0  0  0  0
  3  5  1  0  0  0  0
  4  6  1  0  0  0  0
  6  5  1  0  0  0  0
  6  7  1  1  0  0  0
  7  9  1  0  0  0  0
  8  7  2  0  0  0  0
  9 13  1  0  0  0  0
 11 17  2  0  0  0  0
 13 12  2  0  0  0  0
 14 10  1  0  0  0  0
 14 19  2  0  0  0  0
 15 14  1  0  0  0  0
 16 13  1  0  0  0  0
 16 11  1  0  0  0  0
 17 19  1  0  0  0  0
 18 15  2  0  0  0  0
 18 11  1  0  0  0  0
 20  2  1  0  0  0  0
 21 24  1  6  0  0  0
 21 22  1  0  0  0  0
 22 20  1  1  0  0  0
 23 21  1  0  0  0  0
 23 22  1  0  0  0  0
 24 26  1  0  0  0  0
 24 28  1  0  0  0  0
 25 26  1  0  0  0  0
 26 27  1  6  0  0  0
 29 33  1  1  0  0  0
 30 28  1  6  0  0  0
 30 29  1  0  0  0  0
 31 30  1  0  0  0  0
 31 29  1  0  0  0  0
 33 32  1  6  0  0  0
 33 34  1  0  0  0  0
 34 36  1  0  0  0  0
 34 35  1  0  0  0  0
 36 35  1  0  0  0  0
M  END
>  <MODEL>
5

>  <REMARK>
 VINA RESULT:      -7.5      2.409      8.868
  Name = 
  11 active torsions:
  status: ('A' for Active; 'I' for Inactive)
    1  A    between atoms: C_1  and  C_26
    2  A    between atoms: C_7  and  N_27
    3  A    between atoms: C_10  and  N_24
    4  A    between atoms: C_10  and  C_29
    5  A    between atoms: C_12  and  N_24
    6  A    between atoms: C_13  and  N_24
    7  A    between atoms: C_14  and  N_27
    8  A    between atoms: C_15  and  C_22
    9  A    between atoms: C_17  and  C_22
   10  A    between atoms: C_17  and  C_35
   11  A    between atoms: C_25  and  C_26
                            x       y       z     vdW  Elec       q    Type
                         _______ _______ _______ _____ _____    ______ ____

>  <TORSDO>
F 11

$$$$
=
 OpenBabel10232411243D

 36 40  0  0  1  0  0  0  0  0999 V2000
  187.7620  177.4450  145.7640 C   0  0  0  0  0  2  0  0  0  0  0  0
  186.8840  177.4500  144.5540 C   0  0  0  0  0  0  0  0  0  0  0  0
  187.3010  176.8380  143.4430 C   0  0  0  0  0  3  0  0  0  0  0  0
  189.2010  177.7670  145.3620 C   0  0  0  0  0  2  0  0  0  0  0  0
  188.6210  176.1240  143.4300 C   0  0  0  0  0  2  0  0  0  0  0  0
  189.7140  176.8830  144.2060 C   0  0  1  0  0  3  0  0  0  0  0  0
  190.5640  177.6850  143.2700 C   0  0  0  0  0  0  0  0  0  0  0  0
  190.5430  178.9080  143.3030 O   0  0  0  0  0  0  0  0  0  0  0  0
  191.4140  176.9850  142.2580 C   0  0  0  0  0  2  0  0  0  0  0  0
  187.2160  178.8900  135.7900 F   0  0  0  0  0  0  0  0  0  0  0  0
  188.9410  177.7570  139.3690 C   0  0  0  0  0  0  0  0  0  0  0  0
  191.7890  177.5780  139.9870 O   0  0  0  0  0  0  0  0  0  0  0  0
  190.9430  177.3180  140.8840 C   0  0  0  0  0  0  0  0  0  0  0  0
  187.7700  178.5280  136.9740 C   0  0  0  0  0  0  0  0  0  0  0  0
  186.9630  178.1340  138.0390 C   0  0  0  0  0  3  0  0  0  0  0  0
  189.5360  177.3710  140.6140 N   0  0  0  0  0  2  0  0  0  0  0  0
  189.7100  178.1440  138.3120 N   0  0  0  0  0  0  0  0  0  0  0  0
  187.5470  177.7520  139.2490 C   0  0  0  0  0  2  0  0  0  0  0  0
  189.1580  178.5270  137.1290 C   0  0  0  0  0  2  0  0  0  0  0  0
  185.5940  178.0720  144.6300 N   0  0  0  0  0  2  0  0  0  0  0  0
  183.5460  178.8340  143.6860 C   0  0  1  0  0  3  0  0  0  0  0  0
  184.9990  178.8210  143.5310 C   0  0  1  0  0  3  0  0  0  0  0  0
  184.3330  180.0190  144.0630 N   0  0  0  0  0  2  0  0  0  0  0  0
  182.8920  179.0750  142.3980 N   0  0  0  0  0  0  0  0  0  0  0  0
  180.6910  179.8810  142.0450 F   0  0  0  0  0  0  0  0  0  0  0  0
  181.4510  178.8340  142.5480 C   0  0  2  0  0  3  0  0  0  0  0  0
  181.0920  178.5740  144.0000 C   0  0  0  0  0  1  0  0  0  0  0  0
  183.4760  178.2560  141.3140 C   0  0  0  0  0  2  0  0  0  0  0  0
  183.3740  178.2510  138.8600 C   0  0  2  0  0  3  0  0  0  0  0  0
  182.5680  178.0990  140.0940 C   0  0  2  0  0  3  0  0  0  0  0  0
  182.5680  179.2950  139.3510 O   0  0  0  0  0  0  0  0  0  0  0  0
  181.8980  178.4670  136.7230 C   0  0  0  0  0  1  0  0  0  0  0  0
  182.7250  177.5610  137.6330 C   0  0  1  0  0  3  0  0  0  0  0  0
  183.6520  176.6690  136.7840 C   0  0  0  0  0  3  0  0  0  0  0  0
  183.1570  175.2420  136.6090 C   0  0  0  0  0  2  0  0  0  0  0  0
  184.2520  175.5500  137.6170 C   0  0  0  0  0  2  0  0  0  0  0  0
  2 20  1  0  0  0  0
  2  1  1  0  0  0  0
  3  2  2  0  0  0  0
  4  1  1  0  0  0  0
  5  3  1  0  0  0  0
  5  6  1  0  0  0  0
  6  7  1  6  0  0  0
  6  4  1  0  0  0  0
  7  8  2  0  0  0  0
  9  7  1  0  0  0  0
 10 14  1  0  0  0  0
 11 16  1  0  0  0  0
 12 13  2  0  0  0  0
 13  9  1  0  0  0  0
 14 19  1  0  0  0  0
 14 15  2  0  0  0  0
 15 18  1  0  0  0  0
 16 13  1  0  0  0  0
 17 11  2  0  0  0  0
 18 11  1  0  0  0  0
 19 17  1  0  0  0  0
 21 24  1  6  0  0  0
 21 23  1  0  0  0  0
 22 21  1  0  0  0  0
 22 23  1  0  0  0  0
 22 20  1  1  0  0  0
 24 26  1  0  0  0  0
 25 26  1  0  0  0  0
 26 27  1  1  0  0  0
 28 24  1  0  0  0  0
 29 33  1  6  0  0  0
 29 31  1  0  0  0  0
 29 30  1  0  0  0  0
 30 28  1  1  0  0  0
 31 30  1  0  0  0  0
 33 32  1  6  0  0  0
 34 36  1  0  0  0  0
 34 33  1  0  0  0  0
 35 34  1  0  0  0  0
 35 36  1  0  0  0  0
M  END
>  <MODEL>
6

>  <REMARK>
 VINA RESULT:      -7.5      3.039      7.496
  Name = 
  11 active torsions:
  status: ('A' for Active; 'I' for Inactive)
    1  A    between atoms: C_1  and  C_26
    2  A    between atoms: C_7  and  N_27
    3  A    between atoms: C_10  and  N_24
    4  A    between atoms: C_10  and  C_29
    5  A    between atoms: C_12  and  N_24
    6  A    between atoms: C_13  and  N_24
    7  A    between atoms: C_14  and  N_27
    8  A    between atoms: C_15  and  C_22
    9  A    between atoms: C_17  and  C_22
   10  A    between atoms: C_17  and  C_35
   11  A    between atoms: C_25  and  C_26
                            x       y       z     vdW  Elec       q    Type
                         _______ _______ _______ _____ _____    ______ ____

>  <TORSDO>
F 11

$$$$
=
 OpenBabel10232411243D

 36 40  0  0  1  0  0  0  0  0999 V2000
  183.2800  178.4790  141.2560 C   0  0  0  0  0  2  0  0  0  0  0  0
  184.5310  179.0760  140.6970 C   0  0  0  0  0  0  0  0  0  0  0  0
  185.6890  178.8800  141.3340 C   0  0  0  0  0  3  0  0  0  0  0  0
  183.2240  178.7140  142.7660 C   0  0  0  0  0  2  0  0  0  0  0  0
  185.7290  178.0380  142.5760 C   0  0  0  0  0  2  0  0  0  0  0  0
  184.5120  178.2740  143.4910 C   0  0  1  0  0  3  0  0  0  0  0  0
  184.8540  179.2390  144.5850 C   0  0  0  0  0  0  0  0  0  0  0  0
  185.2050  180.3800  144.3200 O   0  0  0  0  0  0  0  0  0  0  0  0
  184.8050  178.7890  146.0100 C   0  0  0  0  0  2  0  0  0  0  0  0
  192.3570  176.3550  146.3900 F   0  0  0  0  0  0  0  0  0  0  0  0
  188.4710  177.5630  145.6710 C   0  0  0  0  0  0  0  0  0  0  0  0
  186.3870  178.0980  147.6440 O   0  0  0  0  0  0  0  0  0  0  0  0
  186.1390  178.2640  146.4200 C   0  0  0  0  0  0  0  0  0  0  0  0
  191.0870  176.7630  146.1420 C   0  0  0  0  0  0  0  0  0  0  0  0
  190.6380  176.9140  144.8310 C   0  0  0  0  0  3  0  0  0  0  0  0
  187.1270  177.9890  145.4190 N   0  0  0  0  0  2  0  0  0  0  0  0
  188.9330  177.4060  146.9450 N   0  0  0  0  0  0  0  0  0  0  0  0
  189.3250  177.3230  144.5890 C   0  0  0  0  0  3  0  0  0  0  0  0
  190.2110  177.0160  147.1990 C   0  0  0  0  0  3  0  0  0  0  0  0
  184.4670  179.8030  139.4630 N   0  0  0  0  0  2  0  0  0  0  0  0
  184.3040  177.7180  138.3270 C   0  0  1  0  0  3  0  0  0  0  0  0
  184.4400  179.1630  138.1550 C   0  0  1  0  0  3  0  0  0  0  0  0
  183.1310  178.5230  137.9520 N   0  0  0  0  0  2  0  0  0  0  0  0
  184.8040  177.0090  137.1470 N   0  0  0  0  0  0  0  0  0  0  0  0
  184.7720  174.8390  136.1930 F   0  0  0  0  0  0  0  0  0  0  0  0
  184.6670  175.5640  137.3720 C   0  0  2  0  0  3  0  0  0  0  0  0
  183.3570  175.2440  138.0710 C   0  0  0  0  0  1  0  0  0  0  0  0
  186.1960  177.3840  136.8180 C   0  0  0  0  0  2  0  0  0  0  0  0
  188.5750  177.0910  137.3490 C   0  0  2  0  0  3  0  0  0  0  0  0
  187.2490  176.4320  137.3860 C   0  0  2  0  0  3  0  0  0  0  0  0
  188.1980  176.1330  136.3900 O   0  0  0  0  0  0  0  0  0  0  0  0
  190.7650  175.7510  137.8030 C   0  0  0  0  0  1  0  0  0  0  0  0
  189.5650  176.4980  138.3840 C   0  0  1  0  0  3  0  0  0  0  0  0
  190.0320  177.4500  139.5030 C   0  0  0  0  0  3  0  0  0  0  0  0
  189.2890  177.2790  140.8190 C   0  0  0  0  0  2  0  0  0  0  0  0
  188.9340  178.4260  139.8870 C   0  0  0  0  0  2  0  0  0  0  0  0
  1  4  1  0  0  0  0
  2  1  1  0  0  0  0
  2  3  2  0  0  0  0
  3  5  1  0  0  0  0
  4  6  1  0  0  0  0
  5  6  1  0  0  0  0
  6  7  1  1  0  0  0
  7  9  1  0  0  0  0
  8  7  2  0  0  0  0
  9 13  1  0  0  0  0
 11 17  2  0  0  0  0
 13 12  2  0  0  0  0
 14 10  1  0  0  0  0
 14 19  2  0  0  0  0
 15 14  1  0  0  0  0
 16 11  1  0  0  0  0
 16 13  1  0  0  0  0
 17 19  1  0  0  0  0
 18 15  2  0  0  0  0
 18 11  1  0  0  0  0
 20  2  1  0  0  0  0
 21 24  1  6  0  0  0
 22 21  1  0  0  0  0
 22 20  1  1  0  0  0
 23 22  1  0  0  0  0
 23 21  1  0  0  0  0
 24 26  1  0  0  0  0
 25 26  1  0  0  0  0
 26 27  1  6  0  0  0
 28 24  1  0  0  0  0
 29 30  1  0  0  0  0
 29 33  1  1  0  0  0
 30 28  1  6  0  0  0
 31 29  1  0  0  0  0
 31 30  1  0  0  0  0
 33 32  1  6  0  0  0
 33 34  1  0  0  0  0
 34 36  1  0  0  0  0
 34 35  1  0  0  0  0
 36 35  1  0  0  0  0
M  END
>  <MODEL>
7

>  <REMARK>
 VINA RESULT:      -7.4      2.332      8.928
  Name = 
  11 active torsions:
  status: ('A' for Active; 'I' for Inactive)
    1  A    between atoms: C_1  and  C_26
    2  A    between atoms: C_7  and  N_27
    3  A    between atoms: C_10  and  N_24
    4  A    between atoms: C_10  and  C_29
    5  A    between atoms: C_12  and  N_24
    6  A    between atoms: C_13  and  N_24
    7  A    between atoms: C_14  and  N_27
    8  A    between atoms: C_15  and  C_22
    9  A    between atoms: C_17  and  C_22
   10  A    between atoms: C_17  and  C_35
   11  A    between atoms: C_25  and  C_26
                            x       y       z     vdW  Elec       q    Type
                         _______ _______ _______ _____ _____    ______ ____

>  <TORSDO>
F 11

$$$$
=
 OpenBabel10232411243D

 36 40  0  0  1  0  0  0  0  0999 V2000
  184.5670  178.7770  141.3020 C   0  0  0  0  0  2  0  0  0  0  0  0
  185.1470  178.8140  139.9250 C   0  0  0  0  0  0  0  0  0  0  0  0
  184.3700  179.1750  138.9000 C   0  0  0  0  0  3  0  0  0  0  0  0
  183.1990  178.0970  141.2700 C   0  0  0  0  0  2  0  0  0  0  0  0
  182.9430  179.5730  139.1440 C   0  0  0  0  0  2  0  0  0  0  0  0
  182.2560  178.6940  140.2060 C   0  0  1  0  0  3  0  0  0  0  0  0
  181.4500  177.6130  139.5530 C   0  0  0  0  0  0  0  0  0  0  0  0
  180.6550  176.9490  140.2040 O   0  0  0  0  0  0  0  0  0  0  0  0
  181.6500  177.3160  138.1010 C   0  0  0  0  0  2  0  0  0  0  0  0
  187.4710  172.0220  137.0120 F   0  0  0  0  0  0  0  0  0  0  0  0
  184.7600  175.1230  137.3420 C   0  0  0  0  0  0  0  0  0  0  0  0
  181.9950  174.9710  138.2690 O   0  0  0  0  0  0  0  0  0  0  0  0
  182.4800  176.0880  137.9450 C   0  0  0  0  0  0  0  0  0  0  0  0
  186.5940  173.0500  137.1280 C   0  0  0  0  0  0  0  0  0  0  0  0
  186.9580  174.3360  136.7320 C   0  0  0  0  0  3  0  0  0  0  0  0
  183.8250  176.2010  137.4630 N   0  0  0  0  0  2  0  0  0  0  0  0
  184.4260  173.8560  137.7220 N   0  0  0  0  0  0  0  0  0  0  0  0
  186.0410  175.3840  136.8450 C   0  0  0  0  0  3  0  0  0  0  0  0
  185.3080  172.8260  137.6260 C   0  0  0  0  0  3  0  0  0  0  0  0
  186.5360  178.5080  139.7430 N   0  0  0  0  0  2  0  0  0  0  0  0
  188.4830  177.6120  140.7790 C   0  0  1  0  0  3  0  0  0  0  0  0
  187.5470  178.7350  140.7660 C   0  0  1  0  0  3  0  0  0  0  0  0
  188.8640  178.8750  140.1270 N   0  0  0  0  0  2  0  0  0  0  0  0
  189.1520  177.5130  142.0780 N   0  0  0  0  0  0  0  0  0  0  0  0
  190.4830  176.1700  140.6480 F   0  0  0  0  0  0  0  0  0  0  0  0
  190.3810  176.7260  141.9160 C   0  0  2  0  0  3  0  0  0  0  0  0
  190.4750  175.6410  142.9750 C   0  0  0  0  0  1  0  0  0  0  0  0
  188.2690  176.9480  143.1200 C   0  0  0  0  0  2  0  0  0  0  0  0
  187.2140  177.2420  145.3170 C   0  0  2  0  0  3  0  0  0  0  0  0
  187.8200  177.9610  144.1720 C   0  0  2  0  0  3  0  0  0  0  0  0
  186.4250  177.8770  144.3400 O   0  0  0  0  0  0  0  0  0  0  0  0
  185.9390  178.6930  147.0680 C   0  0  0  0  0  1  0  0  0  0  0  0
  187.2610  178.0640  146.6310 C   0  0  1  0  0  3  0  0  0  0  0  0
  187.9410  177.3840  147.8350 C   0  0  0  0  0  3  0  0  0  0  0  0
  189.1590  178.1260  148.3660 C   0  0  0  0  0  2  0  0  0  0  0  0
  189.3380  176.9050  147.4790 C   0  0  0  0  0  2  0  0  0  0  0  0
  2  1  1  0  0  0  0
  3  5  1  0  0  0  0
  3  2  2  0  0  0  0
  4  1  1  0  0  0  0
  5  6  1  0  0  0  0
  6  7  1  6  0  0  0
  6  4  1  0  0  0  0
  7  8  2  0  0  0  0
  9  7  1  0  0  0  0
 10 14  1  0  0  0  0
 11 16  1  0  0  0  0
 11 17  2  0  0  0  0
 13  9  1  0  0  0  0
 13 12  2  0  0  0  0
 14 19  2  0  0  0  0
 15 18  2  0  0  0  0
 15 14  1  0  0  0  0
 16 13  1  0  0  0  0
 18 11  1  0  0  0  0
 19 17  1  0  0  0  0
 20  2  1  0  0  0  0
 21 24  1  1  0  0  0
 22 20  1  6  0  0  0
 22 21  1  0  0  0  0
 23 22  1  0  0  0  0
 23 21  1  0  0  0  0
 24 28  1  0  0  0  0
 25 26  1  0  0  0  0
 26 24  1  0  0  0  0
 26 27  1  1  0  0  0
 29 33  1  1  0  0  0
 30 28  1  6  0  0  0
 30 31  1  0  0  0  0
 30 29  1  0  0  0  0
 31 29  1  0  0  0  0
 33 32  1  1  0  0  0
 33 34  1  0  0  0  0
 34 35  1  0  0  0  0
 36 34  1  0  0  0  0
 36 35  1  0  0  0  0
M  END
>  <MODEL>
8

>  <REMARK>
 VINA RESULT:      -7.4      3.058      5.285
  Name = 
  11 active torsions:
  status: ('A' for Active; 'I' for Inactive)
    1  A    between atoms: C_1  and  C_26
    2  A    between atoms: C_7  and  N_27
    3  A    between atoms: C_10  and  N_24
    4  A    between atoms: C_10  and  C_29
    5  A    between atoms: C_12  and  N_24
    6  A    between atoms: C_13  and  N_24
    7  A    between atoms: C_14  and  N_27
    8  A    between atoms: C_15  and  C_22
    9  A    between atoms: C_17  and  C_22
   10  A    between atoms: C_17  and  C_35
   11  A    between atoms: C_25  and  C_26
                            x       y       z     vdW  Elec       q    Type
                         _______ _______ _______ _____ _____    ______ ____

>  <TORSDO>
F 11

$$$$
=
 OpenBabel10232411243D

 36 40  0  0  1  0  0  0  0  0999 V2000
  190.8730  176.5390  139.9440 C   0  0  0  0  0  2  0  0  0  0  0  0
  190.3410  177.3770  141.0620 C   0  0  0  0  0  0  0  0  0  0  0  0
  189.0540  177.7340  141.0550 C   0  0  0  0  0  3  0  0  0  0  0  0
  190.3710  177.0820  138.6060 C   0  0  0  0  0  2  0  0  0  0  0  0
  188.1520  177.2640  139.9510 C   0  0  0  0  0  2  0  0  0  0  0  0
  188.8410  177.2800  138.5730 C   0  0  1  0  0  3  0  0  0  0  0  0
  188.4900  178.5270  137.8220 C   0  0  0  0  0  0  0  0  0  0  0  0
  189.0770  179.5760  138.0480 O   0  0  0  0  0  0  0  0  0  0  0  0
  187.3830  178.4980  136.8170 C   0  0  0  0  0  2  0  0  0  0  0  0
  180.6770  175.4130  139.7500 F   0  0  0  0  0  0  0  0  0  0  0  0
  184.1590  176.6190  137.8820 C   0  0  0  0  0  0  0  0  0  0  0  0
  185.6470  179.0910  138.3280 O   0  0  0  0  0  0  0  0  0  0  0  0
  186.0840  178.2450  137.5030 C   0  0  0  0  0  0  0  0  0  0  0  0
  181.8270  175.7920  139.1390 C   0  0  0  0  0  0  0  0  0  0  0  0
  182.3900  174.9990  138.1420 C   0  0  0  0  0  3  0  0  0  0  0  0
  185.3700  177.0310  137.2380 N   0  0  0  0  0  2  0  0  0  0  0  0
  183.5870  177.3810  138.8580 N   0  0  0  0  0  0  0  0  0  0  0  0
  183.5680  175.4060  137.5110 C   0  0  0  0  0  3  0  0  0  0  0  0
  182.4450  176.9950  139.4880 C   0  0  0  0  0  3  0  0  0  0  0  0
  191.2130  177.7360  142.1420 N   0  0  0  0  0  2  0  0  0  0  0  0
  191.2210  177.2710  144.4760 C   0  0  1  0  0  3  0  0  0  0  0  0
  190.7360  178.1840  143.4430 C   0  0  1  0  0  3  0  0  0  0  0  0
  191.8840  178.5690  144.2770 N   0  0  0  0  0  2  0  0  0  0  0  0
  190.3690  177.3370  145.6650 N   0  0  0  0  0  0  0  0  0  0  0  0
  191.4830  177.3150  147.7570 F   0  0  0  0  0  0  0  0  0  0  0  0
  190.9800  176.5300  146.7300 C   0  0  2  0  0  3  0  0  0  0  0  0
  192.0690  175.6310  146.1720 C   0  0  0  0  0  1  0  0  0  0  0  0
  188.9810  176.9130  145.3820 C   0  0  0  0  0  2  0  0  0  0  0  0
  186.6190  177.5300  145.1130 C   0  0  2  0  0  3  0  0  0  0  0  0
  187.9420  178.0200  145.5650 C   0  0  2  0  0  3  0  0  0  0  0  0
  187.4080  178.3760  144.3120 O   0  0  0  0  0  0  0  0  0  0  0  0
  185.7750  179.0530  147.0530 C   0  0  0  0  0  1  0  0  0  0  0  0
  185.4420  178.3010  145.7650 C   0  0  1  0  0  3  0  0  0  0  0  0
  184.6180  179.2050  144.8270 C   0  0  0  0  0  3  0  0  0  0  0  0
  183.1630  178.7900  144.6800 C   0  0  0  0  0  2  0  0  0  0  0  0
  184.1660  178.4470  143.5910 C   0  0  0  0  0  2  0  0  0  0  0  0
  1  2  1  0  0  0  0
  2 20  1  0  0  0  0
  3  2  2  0  0  0  0
  4  1  1  0  0  0  0
  5  3  1  0  0  0  0
  6  7  1  1  0  0  0
  6  4  1  0  0  0  0
  6  5  1  0  0  0  0
  7  8  2  0  0  0  0
  9 13  1  0  0  0  0
  9  7  1  0  0  0  0
 11 17  2  0  0  0  0
 13 12  2  0  0  0  0
 14 19  2  0  0  0  0
 14 10  1  0  0  0  0
 15 14  1  0  0  0  0
 16 13  1  0  0  0  0
 16 11  1  0  0  0  0
 17 19  1  0  0  0  0
 18 11  1  0  0  0  0
 18 15  2  0  0  0  0
 21 24  1  1  0  0  0
 22 20  1  6  0  0  0
 22 23  1  0  0  0  0
 22 21  1  0  0  0  0
 23 21  1  0  0  0  0
 24 26  1  0  0  0  0
 26 27  1  6  0  0  0
 26 25  1  0  0  0  0
 28 24  1  0  0  0  0
 29 30  1  0  0  0  0
 29 33  1  1  0  0  0
 30 28  1  6  0  0  0
 31 29  1  0  0  0  0
 31 30  1  0  0  0  0
 33 32  1  1  0  0  0
 34 33  1  0  0  0  0
 35 34  1  0  0  0  0
 36 35  1  0  0  0  0
 36 34  1  0  0  0  0
M  END
>  <MODEL>
9

>  <REMARK>
 VINA RESULT:      -7.4      1.349      2.001
  Name = 
  11 active torsions:
  status: ('A' for Active; 'I' for Inactive)
    1  A    between atoms: C_1  and  C_26
    2  A    between atoms: C_7  and  N_27
    3  A    between atoms: C_10  and  N_24
    4  A    between atoms: C_10  and  C_29
    5  A    between atoms: C_12  and  N_24
    6  A    between atoms: C_13  and  N_24
    7  A    between atoms: C_14  and  N_27
    8  A    between atoms: C_15  and  C_22
    9  A    between atoms: C_17  and  C_22
   10  A    between atoms: C_17  and  C_35
   11  A    between atoms: C_25  and  C_26
                            x       y       z     vdW  Elec       q    Type
                         _______ _______ _______ _____ _____    ______ ____

>  <TORSDO>
F 11

$$$$
