=
 OpenBabel10232408493D

 64 70  0  0  1  0  0  0  0  0999 V2000
  186.4690  177.8670  137.7570 C   0  0  2  0  0  3  0  0  0  0  0  0
  185.5070  175.5490  137.4680 N   0  0  0  0  0  0  0  0  0  0  0  0
  185.6460  176.8860  136.9910 C   0  0  0  0  0  0  0  0  0  0  0  0
  186.6460  174.6410  137.3100 C   0  0  0  0  0  2  0  0  0  0  0  0
  186.1710  173.1850  137.2520 C   0  0  0  0  0  2  0  0  0  0  0  0
  184.1690  174.9880  137.5890 C   0  0  0  0  0  2  0  0  0  0  0  0
  183.9740  173.9820  136.4490 C   0  0  1  0  0  3  0  0  0  0  0  0
  185.0850  173.0240  136.2670 N   0  0  0  0  0  2  0  0  0  0  0  0
  185.0390  177.2490  135.9490 O   0  0  0  0  0  0  0  0  0  0  0  0
  182.6300  173.3100  136.4930 C   0  0  0  0  0  0  0  0  0  0  0  0
  182.5910  172.1600  136.9120 O   0  0  0  0  0  0  0  0  0  0  0  0
  180.2700  173.1700  136.3100 O   0  0  0  0  0  1  0  0  0  0  0  0
  181.4160  174.1830  134.4970 C   0  0  0  0  0  1  0  0  0  0  0  0
  181.3560  174.0030  136.0170 C   0  0  2  0  0  0  0  0  0  0  0  0
  180.5680  176.3120  135.8460 C   0  0  0  0  0  1  0  0  0  0  0  0
  181.1730  175.3020  136.7140 N   0  0  0  0  0  0  0  0  0  0  0  0
  180.2750  175.1480  137.8560 C   0  0  0  0  0  1  0  0  0  0  0  0
  185.6070  178.9020  138.2320 O   0  0  0  0  0  0  0  0  0  0  0  0
  184.0360  178.4070  141.5430 C   0  0  0  0  0  0  0  0  0  0  0  0
  184.9900  178.5620  140.5370 C   0  0  0  0  0  3  0  0  0  0  0  0
  180.8410  178.8640  139.5640 C   0  0  0  0  0  1  0  0  0  0  0  0
  183.2450  178.9140  138.9110 C   0  0  0  0  0  3  0  0  0  0  0  0
  182.6740  178.5050  141.2250 C   0  0  0  0  0  3  0  0  0  0  0  0
  184.6080  178.8110  139.2140 C   0  0  0  0  0  0  0  0  0  0  0  0
  182.2830  178.7590  139.9090 C   0  0  0  0  0  0  0  0  0  0  0  0
  182.6490  179.2080  143.9970 O   0  0  0  0  0  0  0  0  0  0  0  0
  183.8180  178.7330  144.0590 C   0  0  0  0  0  0  0  0  0  0  0  0
  184.4800  178.2490  142.8880 N   0  0  0  0  0  2  0  0  0  0  0  0
  184.4600  178.5380  145.3850 C   0  0  0  0  0  2  0  0  0  0  0  0
  185.8860  178.0610  145.1940 C   0  0  0  0  0  2  0  0  0  0  0  0
  188.0490  178.0550  149.4970 C   0  0  0  0  0  1  0  0  0  0  0  0
  188.3130  178.6780  145.8880 C   0  0  1  0  0  3  0  0  0  0  0  0
  186.6400  177.9520  147.5150 N   0  0  0  0  0  2  0  0  0  0  0  0
  186.8130  178.6550  146.2480 C   0  0  2  0  0  3  0  0  0  0  0  0
  187.9670  177.6630  148.0400 C   0  0  0  0  0  0  0  0  0  0  0  0
  188.9680  178.4620  147.2360 C   0  0  0  0  0  2  0  0  0  0  0  0
  188.2460  176.1820  147.8960 C   0  0  0  0  0  1  0  0  0  0  0  0
  190.5240  176.8830  142.5060 C   0  0  1  0  0  3  0  0  0  0  0  0
  190.8030  177.6920  143.6250 O   0  0  0  0  0  0  0  0  0  0  0  0
  188.7630  177.5800  144.9000 C   0  0  2  0  0  3  0  0  0  0  0  0
  188.6530  178.1020  141.2950 C   0  0  0  0  0  1  0  0  0  0  0  0
  189.4680  178.1470  143.6700 C   0  0  2  0  0  3  0  0  0  0  0  0
  188.0210  176.2850  142.9880 C   0  0  0  0  0  2  0  0  0  0  0  0
  187.5880  176.7860  144.3490 C   0  0  0  0  0  2  0  0  0  0  0  0
  190.7690  175.4190  142.8520 C   0  0  0  0  0  1  0  0  0  0  0  0
  189.0630  177.2880  142.5060 C   0  0  2  0  0  0  0  0  0  0  0  0
  187.6330  178.3640  136.9100 C   0  0  0  0  0  2  0  0  0  0  0  0
  187.4730  177.7870  135.5080 C   0  0  0  0  0  2  0  0  0  0  0  0
  193.9190  173.8770  137.5190 C   0  0  2  0  0  3  0  0  0  0  0  0
  192.1350  176.4760  135.7060 N   0  0  0  0  0  0  0  0  0  0  0  0
  190.5380  173.6360  136.4540 C   0  0  0  0  0  3  0  0  0  0  0  0
  189.8260  176.9280  135.7100 N   0  0  0  0  0  2  0  0  0  0  0  0
  190.6490  174.5560  135.2400 C   0  0  0  0  0  2  0  0  0  0  0  0
  193.3170  174.3170  136.1840 C   0  0  2  0  0  3  0  0  0  0  0  0
  193.4140  175.7390  135.6160 C   0  0  0  0  0  2  0  0  0  0  0  0
  188.5000  176.7480  135.1970 C   0  0  0  0  0  0  0  0  0  0  0  0
  191.4300  173.5600  137.3980 N   0  0  0  0  0  0  0  0  0  0  0  0
  188.2270  175.7870  134.4200 O   0  0  0  0  0  0  0  0  0  0  0  0
  192.5370  174.4760  137.4780 C   0  0  1  0  0  3  0  0  0  0  0  0
  190.9180  176.0130  135.5520 C   0  0  0  0  0  0  0  0  0  0  0  0
  194.9150  174.9040  138.0260 C   0  0  0  0  0  2  0  0  0  0  0  0
  196.0820  174.2030  138.7110 C   0  0  0  0  0  2  0  0  0  0  0  0
  198.0210  175.4350  138.7570 O   0  0  0  0  0  0  0  0  0  0  0  0
  197.3320  174.6610  138.1580 N   0  0  0  0  0  0  0  0  0  0  0  0
  1 47  1  6  0  0  0
  1 18  1  0  0  0  0
  2  6  1  0  0  0  0
  3  2  1  0  0  0  0
  3  1  1  0  0  0  0
  4  2  1  0  0  0  0
  5  4  1  0  0  0  0
  7 10  1  1  0  0  0
  7  6  1  0  0  0  0
  8  7  1  0  0  0  0
  8  5  1  0  0  0  0
  9  3  2  0  0  0  0
 10 11  2  0  0  0  0
 14 13  1  6  0  0  0
 14 12  1  0  0  0  0
 14 10  1  0  0  0  0
 14 16  1  0  0  0  0
 15 16  1  0  0  0  0
 16 17  1  0  0  0  0
 18 24  1  0  0  0  0
 19 28  1  0  0  0  0
 20 19  2  0  0  0  0
 21 25  1  0  0  0  0
 22 24  2  0  0  0  0
 22 25  1  0  0  0  0
 23 19  1  0  0  0  0
 24 20  1  0  0  0  0
 25 23  2  0  0  0  0
 26 27  2  0  0  0  0
 27 29  1  0  0  0  0
 28 27  1  0  0  0  0
 30 29  1  0  0  0  0
 32 34  1  0  0  0  0
 32 36  1  1  0  0  0
 33 35  1  0  0  0  0
 34 30  1  6  0  0  0
 34 33  1  0  0  0  0
 35 31  1  0  0  0  0
 36 35  1  0  0  0  0
 37 35  1  0  0  0  0
 38 45  1  1  0  0  0
 38 39  1  0  0  0  0
 40 44  1  6  0  0  0
 40 32  1  0  0  0  0
 42 39  1  1  0  0  0
 42 40  1  0  0  0  0
 43 44  1  0  0  0  0
 46 41  1  6  0  0  0
 46 38  1  0  0  0  0
 46 43  1  0  0  0  0
 46 42  1  0  0  0  0
 48 47  1  0  0  0  0
 49 61  1  1  0  0  0
 51 57  2  0  0  0  0
 53 60  1  0  0  0  0
 53 51  1  0  0  0  0
 54 55  1  1  0  0  0
 54 59  1  0  0  0  0
 54 49  1  0  0  0  0
 55 50  1  0  0  0  0
 56 48  1  0  0  0  0
 56 52  1  0  0  0  0
 58 56  2  0  0  0  0
 59 57  1  6  0  0  0
 59 49  1  0  0  0  0
 60 50  2  0  0  0  0
 60 52  1  0  0  0  0
 61 62  1  0  0  0  0
 64 62  1  0  0  0  0
 64 63  2  0  0  0  0
M  END
>  <MODEL>
1

>  <REMARK>
 VINA RESULT:      -7.7      0.000      0.000
  Name = 
  17 active torsions:
  status: ('A' for Active; 'I' for Inactive)
    1  A    between atoms: C_3  and  C_50
    2  A    between atoms: C_7  and  N_27
    3  A    between atoms: C_8  and  C_30
    4  A    between atoms: C_8  and  C_45
    5  A    between atoms: O_9  and  C_50
    6  A    between atoms: O_9  and  C_54
    7  A    between atoms: C_10  and  C_16
    8  A    between atoms: C_11  and  C_44
    9  A    between atoms: C_12  and  C_34
   10  A    between atoms: C_12  and  C_52
   11  A    between atoms: C_21  and  C_42
   12  A    between atoms: C_30  and  C_50
   13  A    between atoms: C_31  and  C_44
   14  A    between atoms: C_31  and  N_51
   15  A    between atoms: C_34  and  N_49
   16  A    between atoms: C_42  and  C_43
   17  A    between atoms: C_43  and  C_56
                            x       y       z     vdW  Elec       q    Type
                         _______ _______ _______ _____ _____    ______ ____

>  <TORSDO>
F 17

$$$$
=
 OpenBabel10232408493D

 64 70  0  0  1  0  0  0  0  0999 V2000
  191.3090  176.3500  138.2700 C   0  0  2  0  0  3  0  0  0  0  0  0
  189.8430  177.0160  140.2180 N   0  0  0  0  0  0  0  0  0  0  0  0
  191.1260  177.0170  139.5920 C   0  0  0  0  0  0  0  0  0  0  0  0
  188.8160  177.9120  139.6790 C   0  0  0  0  0  2  0  0  0  0  0  0
  187.7950  178.2760  140.7640 C   0  0  0  0  0  2  0  0  0  0  0  0
  189.7430  176.5800  141.6030 C   0  0  0  0  0  2  0  0  0  0  0  0
  189.5210  177.8210  142.4740 C   0  0  1  0  0  3  0  0  0  0  0  0
  188.4720  178.7430  141.9880 N   0  0  0  0  0  2  0  0  0  0  0  0
  192.1100  177.5410  140.1770 O   0  0  0  0  0  0  0  0  0  0  0  0
  189.3690  177.4870  143.9320 C   0  0  0  0  0  0  0  0  0  0  0  0
  188.5020  176.6760  144.2340 O   0  0  0  0  0  0  0  0  0  0  0  0
  189.3890  178.5630  146.0440 O   0  0  0  0  0  1  0  0  0  0  0  0
  190.9250  179.3710  144.4280 C   0  0  0  0  0  1  0  0  0  0  0  0
  190.2310  178.1360  145.0110 C   0  0  2  0  0  0  0  0  0  0  0  0
  190.6620  176.3910  146.6690 C   0  0  0  0  0  1  0  0  0  0  0  0
  191.2130  177.1640  145.5560 N   0  0  0  0  0  0  0  0  0  0  0  0
  191.5970  176.1950  144.5320 C   0  0  0  0  0  1  0  0  0  0  0  0
  190.3990  175.2520  138.1910 O   0  0  0  0  0  0  0  0  0  0  0  0
  188.0280  174.4770  135.4610 C   0  0  0  0  0  0  0  0  0  0  0  0
  188.6250  175.0790  136.5690 C   0  0  0  0  0  3  0  0  0  0  0  0
  190.6360  171.8780  134.5790 C   0  0  0  0  0  1  0  0  0  0  0  0
  190.5210  173.6030  136.3730 C   0  0  0  0  0  3  0  0  0  0  0  0
  188.6860  173.4250  134.8080 C   0  0  0  0  0  3  0  0  0  0  0  0
  189.8710  174.6490  137.0390 C   0  0  0  0  0  0  0  0  0  0  0  0
  189.9320  172.9920  135.2660 C   0  0  0  0  0  0  0  0  0  0  0  0
  187.3800  177.2890  134.9550 O   0  0  0  0  0  0  0  0  0  0  0  0
  186.4910  176.4020  134.8170 C   0  0  0  0  0  0  0  0  0  0  0  0
  186.8050  175.0150  134.9670 N   0  0  0  0  0  2  0  0  0  0  0  0
  185.1360  176.7900  134.3480 C   0  0  0  0  0  2  0  0  0  0  0  0
  184.2620  177.1270  135.5400 C   0  0  0  0  0  2  0  0  0  0  0  0
  181.9240  173.0250  136.4900 C   0  0  0  0  0  1  0  0  0  0  0  0
  181.9110  176.6970  136.5600 C   0  0  1  0  0  3  0  0  0  0  0  0
  183.3830  174.8720  135.8670 N   0  0  0  0  0  2  0  0  0  0  0  0
  183.0140  176.2540  135.5760 C   0  0  2  0  0  3  0  0  0  0  0  0
  182.4650  174.3800  136.8860 C   0  0  0  0  0  0  0  0  0  0  0  0
  181.3300  175.3710  137.0060 C   0  0  0  0  0  2  0  0  0  0  0  0
  183.2000  174.2680  138.2040 C   0  0  0  0  0  1  0  0  0  0  0  0
  182.2470  177.8670  140.8090 C   0  0  1  0  0  3  0  0  0  0  0  0
  182.2630  176.6820  140.0480 O   0  0  0  0  0  0  0  0  0  0  0  0
  182.4110  177.4920  137.7840 C   0  0  2  0  0  3  0  0  0  0  0  0
  180.0870  179.0220  140.1370 C   0  0  0  0  0  1  0  0  0  0  0  0
  181.5260  177.2980  139.0130 C   0  0  2  0  0  3  0  0  0  0  0  0
  182.2350  179.6450  138.8880 C   0  0  0  0  0  2  0  0  0  0  0  0
  182.4130  178.9930  137.5330 C   0  0  0  0  0  2  0  0  0  0  0  0
  183.6720  178.3580  141.0320 C   0  0  0  0  0  1  0  0  0  0  0  0
  181.4900  178.6170  139.7310 C   0  0  2  0  0  0  0  0  0  0  0  0
  192.7680  175.9680  138.0620 C   0  0  0  0  0  2  0  0  0  0  0  0
  193.2140  176.5350  136.7200 C   0  0  0  0  0  2  0  0  0  0  0  0
  197.8080  170.2800  135.9100 C   0  0  2  0  0  3  0  0  0  0  0  0
  197.1290  173.8490  135.7450 N   0  0  0  0  0  0  0  0  0  0  0  0
  194.6180  171.6980  135.2510 C   0  0  0  0  0  3  0  0  0  0  0  0
  195.1170  174.9700  136.2250 N   0  0  0  0  0  2  0  0  0  0  0  0
  195.1090  172.9930  134.6070 C   0  0  0  0  0  2  0  0  0  0  0  0
  197.4740  171.4750  135.0170 C   0  0  2  0  0  3  0  0  0  0  0  0
  198.0830  172.8740  135.1750 C   0  0  0  0  0  2  0  0  0  0  0  0
  193.8420  175.5020  135.8420 C   0  0  0  0  0  0  0  0  0  0  0  0
  195.3720  170.8930  135.9400 N   0  0  0  0  0  0  0  0  0  0  0  0
  193.3050  175.1800  134.7420 O   0  0  0  0  0  0  0  0  0  0  0  0
  196.7180  171.2390  136.3130 C   0  0  1  0  0  3  0  0  0  0  0  0
  195.8390  173.9430  135.5330 C   0  0  0  0  0  0  0  0  0  0  0  0
  199.0620  170.5480  136.7220 C   0  0  0  0  0  2  0  0  0  0  0  0
  199.4690  169.2910  137.4810 C   0  0  0  0  0  2  0  0  0  0  0  0
  198.4380  167.9130  139.0050 O   0  0  0  0  0  0  0  0  0  0  0  0
  198.3150  168.6870  138.1000 N   0  0  0  0  0  0  0  0  0  0  0  0
  1 47  1  1  0  0  0
  1  3  1  0  0  0  0
  2  6  1  0  0  0  0
  3  9  2  0  0  0  0
  3  2  1  0  0  0  0
  4  2  1  0  0  0  0
  4  5  1  0  0  0  0
  5  8  1  0  0  0  0
  6  7  1  0  0  0  0
  7 10  1  1  0  0  0
  8  7  1  0  0  0  0
 10 11  2  0  0  0  0
 10 14  1  0  0  0  0
 14 13  1  6  0  0  0
 14 16  1  0  0  0  0
 14 12  1  0  0  0  0
 16 15  1  0  0  0  0
 17 16  1  0  0  0  0
 18  1  1  0  0  0  0
 19 20  1  0  0  0  0
 20 24  2  0  0  0  0
 21 25  1  0  0  0  0
 22 24  1  0  0  0  0
 23 25  1  0  0  0  0
 23 19  2  0  0  0  0
 24 18  1  0  0  0  0
 25 22  2  0  0  0  0
 27 26  2  0  0  0  0
 27 28  1  0  0  0  0
 28 19  1  0  0  0  0
 29 27  1  0  0  0  0
 29 30  1  0  0  0  0
 31 35  1  0  0  0  0
 32 36  1  1  0  0  0
 32 40  1  0  0  0  0
 33 35  1  0  0  0  0
 34 30  1  1  0  0  0
 34 33  1  0  0  0  0
 34 32  1  0  0  0  0
 35 36  1  0  0  0  0
 35 37  1  0  0  0  0
 38 45  1  6  0  0  0
 39 38  1  0  0  0  0
 40 44  1  6  0  0  0
 40 42  1  0  0  0  0
 42 46  1  0  0  0  0
 42 39  1  1  0  0  0
 43 46  1  0  0  0  0
 44 43  1  0  0  0  0
 46 41  1  1  0  0  0
 46 38  1  0  0  0  0
 48 47  1  0  0  0  0
 49 59  1  0  0  0  0
 49 61  1  1  0  0  0
 51 57  2  0  0  0  0
 53 51  1  0  0  0  0
 53 60  1  0  0  0  0
 54 55  1  1  0  0  0
 54 49  1  0  0  0  0
 54 59  1  0  0  0  0
 55 50  1  0  0  0  0
 56 52  1  0  0  0  0
 56 48  1  0  0  0  0
 58 56  2  0  0  0  0
 59 57  1  6  0  0  0
 60 50  2  0  0  0  0
 60 52  1  0  0  0  0
 61 62  1  0  0  0  0
 62 64  1  0  0  0  0
 64 63  2  0  0  0  0
M  END
>  <MODEL>
2

>  <REMARK>
 VINA RESULT:      -7.2      3.030      9.165
  Name = 
  17 active torsions:
  status: ('A' for Active; 'I' for Inactive)
    1  A    between atoms: C_3  and  C_50
    2  A    between atoms: C_7  and  N_27
    3  A    between atoms: C_8  and  C_30
    4  A    between atoms: C_8  and  C_45
    5  A    between atoms: O_9  and  C_50
    6  A    between atoms: O_9  and  C_54
    7  A    between atoms: C_10  and  C_16
    8  A    between atoms: C_11  and  C_44
    9  A    between atoms: C_12  and  C_34
   10  A    between atoms: C_12  and  C_52
   11  A    between atoms: C_21  and  C_42
   12  A    between atoms: C_30  and  C_50
   13  A    between atoms: C_31  and  C_44
   14  A    between atoms: C_31  and  N_51
   15  A    between atoms: C_34  and  N_49
   16  A    between atoms: C_42  and  C_43
   17  A    between atoms: C_43  and  C_56
                            x       y       z     vdW  Elec       q    Type
                         _______ _______ _______ _____ _____    ______ ____

>  <TORSDO>
F 17

$$$$
=
 OpenBabel10232408493D

 64 70  0  0  1  0  0  0  0  0999 V2000
  188.4710  176.9510  136.6410 C   0  0  2  0  0  3  0  0  0  0  0  0
  190.8800  176.2190  136.8620 N   0  0  0  0  0  0  0  0  0  0  0  0
  189.8550  176.8480  136.0930 C   0  0  0  0  0  0  0  0  0  0  0  0
  191.4380  176.9590  137.9970 C   0  0  0  0  0  2  0  0  0  0  0  0
  192.8680  176.4930  138.2940 C   0  0  0  0  0  2  0  0  0  0  0  0
  191.6810  175.1770  136.2360 C   0  0  0  0  0  2  0  0  0  0  0  0
  193.0680  175.7600  135.9420 C   0  0  1  0  0  3  0  0  0  0  0  0
  193.6870  176.4920  137.0680 N   0  0  0  0  0  2  0  0  0  0  0  0
  190.1090  177.2750  134.9360 O   0  0  0  0  0  0  0  0  0  0  0  0
  193.9990  174.7560  135.3210 C   0  0  0  0  0  0  0  0  0  0  0  0
  193.5890  174.1390  134.3460 O   0  0  0  0  0  0  0  0  0  0  0  0
  195.4090  174.8780  137.2230 O   0  0  0  0  0  1  0  0  0  0  0  0
  196.4150  175.3390  135.1260 C   0  0  0  0  0  1  0  0  0  0  0  0
  195.3930  174.4840  135.8800 C   0  0  2  0  0  0  0  0  0  0  0  0
  197.1640  172.8020  135.7560 C   0  0  0  0  0  1  0  0  0  0  0  0
  195.7210  173.0380  135.7950 N   0  0  0  0  0  0  0  0  0  0  0  0
  195.2180  172.3290  136.9690 C   0  0  0  0  0  1  0  0  0  0  0  0
  187.6000  176.1890  135.8050 O   0  0  0  0  0  0  0  0  0  0  0  0
  185.1210  173.6310  136.7980 C   0  0  0  0  0  0  0  0  0  0  0  0
  185.7080  174.8540  136.4770 C   0  0  0  0  0  3  0  0  0  0  0  0
  188.0160  171.2720  136.1780 C   0  0  0  0  0  1  0  0  0  0  0  0
  187.7840  173.7430  135.9620 C   0  0  0  0  0  3  0  0  0  0  0  0
  185.8770  172.4540  136.7020 C   0  0  0  0  0  3  0  0  0  0  0  0
  187.0420  174.9260  136.0610 C   0  0  0  0  0  0  0  0  0  0  0  0
  187.2070  172.5140  136.2820 C   0  0  0  0  0  0  0  0  0  0  0  0
  182.8430  173.6310  134.9550 O   0  0  0  0  0  0  0  0  0  0  0  0
  182.6460  173.6960  136.2010 C   0  0  0  0  0  0  0  0  0  0  0  0
  183.7340  173.6030  137.1240 N   0  0  0  0  0  2  0  0  0  0  0  0
  181.2550  173.7190  136.7220 C   0  0  0  0  0  2  0  0  0  0  0  0
  180.9060  175.1230  137.1760 C   0  0  0  0  0  2  0  0  0  0  0  0
  180.9370  179.0230  134.3510 C   0  0  0  0  0  1  0  0  0  0  0  0
  182.5370  177.1430  137.0700 C   0  0  1  0  0  3  0  0  0  0  0  0
  180.6130  176.9440  135.5740 N   0  0  0  0  0  2  0  0  0  0  0  0
  181.6030  176.1710  136.3180 C   0  0  2  0  0  3  0  0  0  0  0  0
  180.9690  178.3500  135.7040 C   0  0  0  0  0  0  0  0  0  0  0  0
  182.3640  178.4250  136.2830 C   0  0  0  0  0  2  0  0  0  0  0  0
  179.9830  179.0280  136.6310 C   0  0  0  0  0  1  0  0  0  0  0  0
  181.9050  179.4220  140.8050 C   0  0  1  0  0  3  0  0  0  0  0  0
  181.5650  179.5340  139.4430 O   0  0  0  0  0  0  0  0  0  0  0  0
  182.1730  177.3800  138.5510 C   0  0  2  0  0  3  0  0  0  0  0  0
  184.4300  179.1430  140.8050 C   0  0  0  0  0  1  0  0  0  0  0  0
  182.6630  178.7310  139.0680 C   0  0  2  0  0  3  0  0  0  0  0  0
  182.9760  177.0330  140.8140 C   0  0  0  0  0  2  0  0  0  0  0  0
  182.8110  176.3510  139.4720 C   0  0  0  0  0  2  0  0  0  0  0  0
  180.7760  178.7380  141.5660 C   0  0  0  0  0  1  0  0  0  0  0  0
  183.0840  178.5200  140.4950 C   0  0  2  0  0  0  0  0  0  0  0  0
  188.0670  178.4100  136.7990 C   0  0  0  0  0  2  0  0  0  0  0  0
  188.7190  178.9430  138.0700 C   0  0  0  0  0  2  0  0  0  0  0  0
  189.8420  177.2370  145.6010 C   0  0  2  0  0  3  0  0  0  0  0  0
  190.2670  176.6330  142.0400 N   0  0  0  0  0  0  0  0  0  0  0  0
  187.4810  178.1430  143.1050 C   0  0  0  0  0  3  0  0  0  0  0  0
  189.3830  177.8650  140.2410 N   0  0  0  0  0  2  0  0  0  0  0  0
  187.8310  177.0500  142.0980 C   0  0  0  0  0  2  0  0  0  0  0  0
  189.3990  176.4260  144.3830 C   0  0  2  0  0  3  0  0  0  0  0  0
  190.3510  175.8810  143.3100 C   0  0  0  0  0  2  0  0  0  0  0  0
  188.3580  178.1400  139.2780 C   0  0  0  0  0  0  0  0  0  0  0  0
  188.2250  178.4660  144.1220 N   0  0  0  0  0  0  0  0  0  0  0  0
  187.2020  177.6370  139.3940 O   0  0  0  0  0  0  0  0  0  0  0  0
  189.5510  177.9350  144.2970 C   0  0  1  0  0  3  0  0  0  0  0  0
  189.2060  177.1570  141.4750 C   0  0  0  0  0  0  0  0  0  0  0  0
  191.3410  177.1250  145.8070 C   0  0  0  0  0  2  0  0  0  0  0  0
  191.6420  176.7610  147.2560 C   0  0  0  0  0  2  0  0  0  0  0  0
  192.4500  174.7870  146.4010 O   0  0  0  0  0  0  0  0  0  0  0  0
  192.4440  175.5630  147.3110 N   0  0  0  0  0  0  0  0  0  0  0  0
  1 47  1  6  0  0  0
  2  4  1  0  0  0  0
  3  1  1  0  0  0  0
  3  2  1  0  0  0  0
  4  5  1  0  0  0  0
  6  2  1  0  0  0  0
  7 10  1  1  0  0  0
  7  6  1  0  0  0  0
  7  8  1  0  0  0  0
  8  5  1  0  0  0  0
  9  3  2  0  0  0  0
 10 14  1  0  0  0  0
 11 10  2  0  0  0  0
 14 13  1  6  0  0  0
 14 12  1  0  0  0  0
 15 16  1  0  0  0  0
 16 14  1  0  0  0  0
 16 17  1  0  0  0  0
 18 24  1  0  0  0  0
 18  1  1  0  0  0  0
 19 28  1  0  0  0  0
 20 19  2  0  0  0  0
 21 25  1  0  0  0  0
 22 24  2  0  0  0  0
 22 25  1  0  0  0  0
 23 19  1  0  0  0  0
 24 20  1  0  0  0  0
 25 23  2  0  0  0  0
 26 27  2  0  0  0  0
 27 29  1  0  0  0  0
 27 28  1  0  0  0  0
 29 30  1  0  0  0  0
 31 35  1  0  0  0  0
 32 36  1  6  0  0  0
 32 40  1  0  0  0  0
 33 35  1  0  0  0  0
 33 34  1  0  0  0  0
 34 32  1  0  0  0  0
 34 30  1  1  0  0  0
 35 36  1  0  0  0  0
 35 37  1  0  0  0  0
 38 45  1  1  0  0  0
 39 38  1  0  0  0  0
 40 42  1  0  0  0  0
 40 44  1  1  0  0  0
 42 39  1  1  0  0  0
 42 46  1  0  0  0  0
 44 43  1  0  0  0  0
 46 41  1  1  0  0  0
 46 38  1  0  0  0  0
 46 43  1  0  0  0  0
 47 48  1  0  0  0  0
 48 56  1  0  0  0  0
 49 61  1  6  0  0  0
 50 55  1  0  0  0  0
 51 57  2  0  0  0  0
 52 60  1  0  0  0  0
 53 51  1  0  0  0  0
 54 55  1  6  0  0  0
 54 49  1  0  0  0  0
 56 58  2  0  0  0  0
 56 52  1  0  0  0  0
 59 57  1  1  0  0  0
 59 54  1  0  0  0  0
 59 49  1  0  0  0  0
 60 50  2  0  0  0  0
 60 53  1  0  0  0  0
 61 62  1  0  0  0  0
 62 64  1  0  0  0  0
 63 64  2  0  0  0  0
M  END
>  <MODEL>
3

>  <REMARK>
 VINA RESULT:      -7.1      2.486      9.602
  Name = 
  17 active torsions:
  status: ('A' for Active; 'I' for Inactive)
    1  A    between atoms: C_3  and  C_50
    2  A    between atoms: C_7  and  N_27
    3  A    between atoms: C_8  and  C_30
    4  A    between atoms: C_8  and  C_45
    5  A    between atoms: O_9  and  C_50
    6  A    between atoms: O_9  and  C_54
    7  A    between atoms: C_10  and  C_16
    8  A    between atoms: C_11  and  C_44
    9  A    between atoms: C_12  and  C_34
   10  A    between atoms: C_12  and  C_52
   11  A    between atoms: C_21  and  C_42
   12  A    between atoms: C_30  and  C_50
   13  A    between atoms: C_31  and  C_44
   14  A    between atoms: C_31  and  N_51
   15  A    between atoms: C_34  and  N_49
   16  A    between atoms: C_42  and  C_43
   17  A    between atoms: C_43  and  C_56
                            x       y       z     vdW  Elec       q    Type
                         _______ _______ _______ _____ _____    ______ ____

>  <TORSDO>
F 17

$$$$
=
 OpenBabel10232408493D

 64 70  0  0  1  0  0  0  0  0999 V2000
  186.1210  177.3340  137.0140 C   0  0  2  0  0  3  0  0  0  0  0  0
  184.9950  175.2250  136.1970 N   0  0  0  0  0  0  0  0  0  0  0  0
  185.0780  176.6490  136.1960 C   0  0  0  0  0  0  0  0  0  0  0  0
  186.0050  174.4770  135.4440 C   0  0  0  0  0  2  0  0  0  0  0  0
  185.4550  173.1140  135.0090 C   0  0  0  0  0  2  0  0  0  0  0  0
  183.7050  174.6020  136.4570 C   0  0  0  0  0  2  0  0  0  0  0  0
  183.1700  174.0510  135.1310 C   0  0  1  0  0  3  0  0  0  0  0  0
  184.1450  173.2630  134.3460 N   0  0  0  0  0  2  0  0  0  0  0  0
  184.2440  177.3280  135.5400 O   0  0  0  0  0  0  0  0  0  0  0  0
  181.8490  173.3510  135.2850 C   0  0  0  0  0  0  0  0  0  0  0  0
  180.8530  173.9360  134.8760 O   0  0  0  0  0  0  0  0  0  0  0  0
  180.4580  171.4640  135.6420 O   0  0  0  0  0  1  0  0  0  0  0  0
  181.8250  172.1330  137.4610 C   0  0  0  0  0  1  0  0  0  0  0  0
  181.7250  171.9780  135.9400 C   0  0  2  0  0  0  0  0  0  0  0  0
  183.4810  170.3670  136.4900 C   0  0  0  0  0  1  0  0  0  0  0  0
  182.7600  171.0500  135.4160 N   0  0  0  0  0  0  0  0  0  0  0  0
  182.1450  170.0050  134.6010 C   0  0  0  0  0  1  0  0  0  0  0  0
  185.4850  178.3440  137.7990 O   0  0  0  0  0  0  0  0  0  0  0  0
  186.9550  178.7260  141.1700 C   0  0  0  0  0  0  0  0  0  0  0  0
  186.8230  178.5940  139.7880 C   0  0  0  0  0  3  0  0  0  0  0  0
  183.3190  178.8290  142.2220 C   0  0  0  0  0  1  0  0  0  0  0  0
  184.4210  178.6190  139.9970 C   0  0  0  0  0  3  0  0  0  0  0  0
  185.8060  178.8020  141.9710 C   0  0  0  0  0  3  0  0  0  0  0  0
  185.5600  178.5340  139.1880 C   0  0  0  0  0  0  0  0  0  0  0  0
  184.5420  178.7490  141.3810 C   0  0  0  0  0  0  0  0  0  0  0  0
  189.0030  176.6610  141.5240 O   0  0  0  0  0  0  0  0  0  0  0  0
  189.2030  177.8290  141.9630 C   0  0  0  0  0  0  0  0  0  0  0  0
  188.2600  178.8770  141.7210 N   0  0  0  0  0  2  0  0  0  0  0  0
  190.4990  178.1570  142.6090 C   0  0  0  0  0  2  0  0  0  0  0  0
  190.2750  178.4460  144.0810 C   0  0  0  0  0  2  0  0  0  0  0  0
  191.9560  175.8440  147.7680 C   0  0  0  0  0  1  0  0  0  0  0  0
  189.0840  176.7800  145.6800 C   0  0  1  0  0  3  0  0  0  0  0  0
  191.4710  177.2760  145.8600 N   0  0  0  0  0  2  0  0  0  0  0  0
  190.3640  177.1740  144.9140 C   0  0  2  0  0  3  0  0  0  0  0  0
  190.9820  176.8240  147.1550 C   0  0  0  0  0  0  0  0  0  0  0  0
  189.6450  176.1510  146.9380 C   0  0  0  0  0  2  0  0  0  0  0  0
  190.8210  178.0190  148.0710 C   0  0  0  0  0  1  0  0  0  0  0  0
  186.3570  179.2070  148.1740 C   0  0  1  0  0  3  0  0  0  0  0  0
  187.5990  178.5560  148.3130 O   0  0  0  0  0  0  0  0  0  0  0  0
  188.1570  177.9580  146.0470 C   0  0  2  0  0  3  0  0  0  0  0  0
  184.7880  177.4010  147.3210 C   0  0  0  0  0  1  0  0  0  0  0  0
  187.2850  177.6630  147.2660 C   0  0  2  0  0  3  0  0  0  0  0  0
  185.9630  178.8960  145.6050 C   0  0  0  0  0  2  0  0  0  0  0  0
  187.1750  178.2860  144.9310 C   0  0  0  0  0  2  0  0  0  0  0  0
  186.5780  180.6670  147.7960 C   0  0  0  0  0  1  0  0  0  0  0  0
  185.9560  178.3160  147.0140 C   0  0  2  0  0  0  0  0  0  0  0  0
  187.2440  177.8500  136.1250 C   0  0  0  0  0  2  0  0  0  0  0  0
  188.5640  177.6050  136.8460 C   0  0  0  0  0  2  0  0  0  0  0  0
  194.8000  172.9220  136.5850 C   0  0  2  0  0  3  0  0  0  0  0  0
  193.1210  176.1160  136.1310 N   0  0  0  0  0  0  0  0  0  0  0  0
  191.3600  173.2960  135.7790 C   0  0  0  0  0  3  0  0  0  0  0  0
  190.8550  176.6320  136.4980 N   0  0  0  0  0  2  0  0  0  0  0  0
  191.4750  174.6270  135.0410 C   0  0  0  0  0  2  0  0  0  0  0  0
  194.1640  173.8990  135.5960 C   0  0  2  0  0  3  0  0  0  0  0  0
  194.3350  175.4230  135.6500 C   0  0  0  0  0  2  0  0  0  0  0  0
  189.4940  176.7390  136.0600 C   0  0  0  0  0  0  0  0  0  0  0  0
  192.2920  172.7980  136.5390 N   0  0  0  0  0  0  0  0  0  0  0  0
  189.1110  176.1970  134.9830 O   0  0  0  0  0  0  0  0  0  0  0  0
  193.4650  173.5480  136.8990 C   0  0  1  0  0  3  0  0  0  0  0  0
  191.8660  175.8130  135.8970 C   0  0  0  0  0  0  0  0  0  0  0  0
  195.8940  173.6030  137.3870 C   0  0  0  0  0  2  0  0  0  0  0  0
  195.3570  174.0160  138.7520 C   0  0  0  0  0  2  0  0  0  0  0  0
  195.8690  175.6020  140.3350 O   0  0  0  0  0  0  0  0  0  0  0  0
  196.1860  175.0500  139.3210 N   0  0  0  0  0  0  0  0  0  0  0  0
  1 47  1  6  0  0  0
  1 18  1  0  0  0  0
  2  6  1  0  0  0  0
  3  2  1  0  0  0  0
  3  1  1  0  0  0  0
  4  2  1  0  0  0  0
  5  4  1  0  0  0  0
  7 10  1  1  0  0  0
  7  6  1  0  0  0  0
  8  5  1  0  0  0  0
  8  7  1  0  0  0  0
  9  3  2  0  0  0  0
 10 14  1  0  0  0  0
 11 10  2  0  0  0  0
 12 14  1  0  0  0  0
 14 13  1  1  0  0  0
 16 14  1  0  0  0  0
 16 15  1  0  0  0  0
 17 16  1  0  0  0  0
 18 24  1  0  0  0  0
 19 28  1  0  0  0  0
 19 23  1  0  0  0  0
 20 19  2  0  0  0  0
 22 25  1  0  0  0  0
 24 20  1  0  0  0  0
 24 22  2  0  0  0  0
 25 23  2  0  0  0  0
 25 21  1  0  0  0  0
 26 27  2  0  0  0  0
 27 29  1  0  0  0  0
 28 27  1  0  0  0  0
 29 30  1  0  0  0  0
 32 40  1  0  0  0  0
 32 36  1  1  0  0  0
 33 35  1  0  0  0  0
 34 30  1  1  0  0  0
 34 32  1  0  0  0  0
 34 33  1  0  0  0  0
 35 31  1  0  0  0  0
 35 37  1  0  0  0  0
 36 35  1  0  0  0  0
 38 45  1  6  0  0  0
 38 39  1  0  0  0  0
 40 44  1  6  0  0  0
 40 42  1  0  0  0  0
 42 39  1  1  0  0  0
 43 46  1  0  0  0  0
 44 43  1  0  0  0  0
 46 42  1  0  0  0  0
 46 41  1  1  0  0  0
 46 38  1  0  0  0  0
 47 48  1  0  0  0  0
 49 59  1  0  0  0  0
 49 61  1  1  0  0  0
 51 57  2  0  0  0  0
 53 51  1  0  0  0  0
 53 60  1  0  0  0  0
 54 55  1  1  0  0  0
 54 49  1  0  0  0  0
 54 59  1  0  0  0  0
 55 50  1  0  0  0  0
 56 52  1  0  0  0  0
 56 48  1  0  0  0  0
 58 56  2  0  0  0  0
 59 57  1  6  0  0  0
 60 50  2  0  0  0  0
 60 52  1  0  0  0  0
 61 62  1  0  0  0  0
 62 64  1  0  0  0  0
 64 63  2  0  0  0  0
M  END
>  <MODEL>
4

>  <REMARK>
 VINA RESULT:      -7.0      2.019      3.518
  Name = 
  17 active torsions:
  status: ('A' for Active; 'I' for Inactive)
    1  A    between atoms: C_3  and  C_50
    2  A    between atoms: C_7  and  N_27
    3  A    between atoms: C_8  and  C_30
    4  A    between atoms: C_8  and  C_45
    5  A    between atoms: O_9  and  C_50
    6  A    between atoms: O_9  and  C_54
    7  A    between atoms: C_10  and  C_16
    8  A    between atoms: C_11  and  C_44
    9  A    between atoms: C_12  and  C_34
   10  A    between atoms: C_12  and  C_52
   11  A    between atoms: C_21  and  C_42
   12  A    between atoms: C_30  and  C_50
   13  A    between atoms: C_31  and  C_44
   14  A    between atoms: C_31  and  N_51
   15  A    between atoms: C_34  and  N_49
   16  A    between atoms: C_42  and  C_43
   17  A    between atoms: C_43  and  C_56
                            x       y       z     vdW  Elec       q    Type
                         _______ _______ _______ _____ _____    ______ ____

>  <TORSDO>
F 17

$$$$
=
 OpenBabel10232408493D

 64 70  0  0  1  0  0  0  0  0999 V2000
  192.1630  175.5340  137.4540 C   0  0  2  0  0  3  0  0  0  0  0  0
  194.5860  174.8180  137.4600 N   0  0  0  0  0  0  0  0  0  0  0  0
  193.6050  175.8220  137.2030 C   0  0  0  0  0  0  0  0  0  0  0  0
  194.9350  174.5400  138.8560 C   0  0  0  0  0  2  0  0  0  0  0  0
  196.3560  173.9750  138.9540 C   0  0  0  0  0  2  0  0  0  0  0  0
  195.5480  174.4990  136.4150 C   0  0  0  0  0  2  0  0  0  0  0  0
  196.9000  175.0970  136.8200 C   0  0  1  0  0  3  0  0  0  0  0  0
  197.3110  174.8200  138.2130 N   0  0  0  0  0  2  0  0  0  0  0  0
  193.9530  176.9330  136.7230 O   0  0  0  0  0  0  0  0  0  0  0  0
  197.9870  174.8010  135.8250 C   0  0  0  0  0  0  0  0  0  0  0  0
  198.4650  175.7500  135.2170 O   0  0  0  0  0  0  0  0  0  0  0  0
  199.6060  173.4590  134.7300 O   0  0  0  0  0  1  0  0  0  0  0  0
  197.3910  172.6130  134.7860 C   0  0  0  0  0  1  0  0  0  0  0  0
  198.4740  173.3810  135.5500 C   0  0  2  0  0  0  0  0  0  0  0  0
  198.8860  171.2420  136.6620 C   0  0  0  0  0  1  0  0  0  0  0  0
  198.8400  172.6960  136.8160 N   0  0  0  0  0  0  0  0  0  0  0  0
  200.1720  173.1070  137.2550 C   0  0  0  0  0  1  0  0  0  0  0  0
  191.4410  175.7720  136.2440 O   0  0  0  0  0  0  0  0  0  0  0  0
  188.1830  174.8180  134.7780 C   0  0  0  0  0  0  0  0  0  0  0  0
  189.2290  175.5730  135.3080 C   0  0  0  0  0  3  0  0  0  0  0  0
  189.7450  171.3690  134.7510 C   0  0  0  0  0  1  0  0  0  0  0  0
  190.6000  173.5970  135.4690 C   0  0  0  0  0  3  0  0  0  0  0  0
  188.3500  173.4370  134.5960 C   0  0  0  0  0  3  0  0  0  0  0  0
  190.4430  174.9740  135.6630 C   0  0  0  0  0  0  0  0  0  0  0  0
  189.5600  172.8310  134.9410 C   0  0  0  0  0  0  0  0  0  0  0  0
  186.0210  175.8940  136.4370 O   0  0  0  0  0  0  0  0  0  0  0  0
  185.9240  175.9230  135.1780 C   0  0  0  0  0  0  0  0  0  0  0  0
  187.0040  175.4910  134.3460 N   0  0  0  0  0  2  0  0  0  0  0  0
  184.7340  176.5520  134.5490 C   0  0  0  0  0  2  0  0  0  0  0  0
  183.8940  177.2300  135.6140 C   0  0  0  0  0  2  0  0  0  0  0  0
  180.1680  174.1850  135.8030 C   0  0  0  0  0  1  0  0  0  0  0  0
  181.4600  177.5590  136.4600 C   0  0  1  0  0  3  0  0  0  0  0  0
  182.2410  175.4330  135.5410 N   0  0  0  0  0  2  0  0  0  0  0  0
  182.4190  176.8790  135.4610 C   0  0  2  0  0  3  0  0  0  0  0  0
  181.1170  175.1800  136.4320 C   0  0  0  0  0  0  0  0  0  0  0  0
  180.4040  176.4930  136.6650 C   0  0  0  0  0  2  0  0  0  0  0  0
  181.6360  174.6280  137.7420 C   0  0  0  0  0  1  0  0  0  0  0  0
  181.6930  178.1670  140.8320 C   0  0  1  0  0  3  0  0  0  0  0  0
  181.2610  177.1680  139.9380 O   0  0  0  0  0  0  0  0  0  0  0  0
  182.0930  177.9420  137.8150 C   0  0  2  0  0  3  0  0  0  0  0  0
  180.4460  180.2550  140.0990 C   0  0  0  0  0  1  0  0  0  0  0  0
  181.0550  178.1230  138.9190 C   0  0  2  0  0  3  0  0  0  0  0  0
  182.7890  179.8450  139.1490 C   0  0  0  0  0  2  0  0  0  0  0  0
  182.8330  179.2700  137.7480 C   0  0  0  0  0  2  0  0  0  0  0  0
  183.1340  177.9000  141.2500 C   0  0  0  0  0  1  0  0  0  0  0  0
  181.5380  179.2520  139.7850 C   0  0  2  0  0  0  0  0  0  0  0  0
  191.6590  176.3320  138.6480 C   0  0  0  0  0  2  0  0  0  0  0  0
  190.1400  176.2090  138.6880 C   0  0  0  0  0  2  0  0  0  0  0  0
  190.0550  178.0570  146.2690 C   0  0  2  0  0  3  0  0  0  0  0  0
  188.8650  176.2200  143.3640 N   0  0  0  0  0  0  0  0  0  0  0  0
  190.1240  179.2870  142.9370 C   0  0  0  0  0  3  0  0  0  0  0  0
  189.5960  176.3930  141.1350 N   0  0  0  0  0  2  0  0  0  0  0  0
  188.9240  178.5010  142.4120 C   0  0  0  0  0  2  0  0  0  0  0  0
  188.9740  177.9310  145.1940 C   0  0  2  0  0  3  0  0  0  0  0  0
  188.3840  176.6000  144.7100 C   0  0  0  0  0  2  0  0  0  0  0  0
  189.5340  176.9680  139.8230 C   0  0  0  0  0  0  0  0  0  0  0  0
  190.7360  179.0280  144.0540 N   0  0  0  0  0  0  0  0  0  0  0  0
  188.8980  178.0420  139.6120 O   0  0  0  0  0  0  0  0  0  0  0  0
  190.4470  177.8500  144.8280 C   0  0  1  0  0  3  0  0  0  0  0  0
  189.1130  177.0000  142.3400 C   0  0  0  0  0  0  0  0  0  0  0  0
  190.2040  176.7580  147.0390 C   0  0  0  0  0  2  0  0  0  0  0  0
  191.5830  176.6900  147.6840 C   0  0  0  0  0  2  0  0  0  0  0  0
  192.5380  174.9330  146.5520 O   0  0  0  0  0  0  0  0  0  0  0  0
  192.1110  175.3520  147.5890 N   0  0  0  0  0  0  0  0  0  0  0  0
  1 47  1  1  0  0  0
  2  4  1  0  0  0  0
  3  1  1  0  0  0  0
  3  2  1  0  0  0  0
  4  5  1  0  0  0  0
  6  7  1  0  0  0  0
  6  2  1  0  0  0  0
  7 10  1  6  0  0  0
  7  8  1  0  0  0  0
  8  5  1  0  0  0  0
  9  3  2  0  0  0  0
 11 10  2  0  0  0  0
 12 14  1  0  0  0  0
 14 13  1  6  0  0  0
 14 10  1  0  0  0  0
 14 16  1  0  0  0  0
 15 16  1  0  0  0  0
 16 17  1  0  0  0  0
 18  1  1  0  0  0  0
 19 20  1  0  0  0  0
 20 24  2  0  0  0  0
 21 25  1  0  0  0  0
 22 24  1  0  0  0  0
 23 19  2  0  0  0  0
 23 25  1  0  0  0  0
 24 18  1  0  0  0  0
 25 22  2  0  0  0  0
 27 26  2  0  0  0  0
 28 19  1  0  0  0  0
 28 27  1  0  0  0  0
 29 27  1  0  0  0  0
 29 30  1  0  0  0  0
 31 35  1  0  0  0  0
 32 36  1  1  0  0  0
 32 40  1  0  0  0  0
 33 35  1  0  0  0  0
 34 33  1  0  0  0  0
 34 30  1  1  0  0  0
 34 32  1  0  0  0  0
 35 36  1  0  0  0  0
 35 37  1  0  0  0  0
 38 45  1  6  0  0  0
 39 38  1  0  0  0  0
 40 44  1  6  0  0  0
 40 42  1  0  0  0  0
 42 46  1  0  0  0  0
 42 39  1  1  0  0  0
 43 46  1  0  0  0  0
 44 43  1  0  0  0  0
 46 41  1  1  0  0  0
 46 38  1  0  0  0  0
 47 48  1  0  0  0  0
 48 56  1  0  0  0  0
 49 61  1  1  0  0  0
 50 55  1  0  0  0  0
 51 57  2  0  0  0  0
 52 60  1  0  0  0  0
 53 51  1  0  0  0  0
 54 55  1  1  0  0  0
 54 49  1  0  0  0  0
 56 52  1  0  0  0  0
 58 56  2  0  0  0  0
 59 57  1  6  0  0  0
 59 54  1  0  0  0  0
 59 49  1  0  0  0  0
 60 53  1  0  0  0  0
 60 50  2  0  0  0  0
 61 62  1  0  0  0  0
 63 64  2  0  0  0  0
 64 62  1  0  0  0  0
M  END
>  <MODEL>
5

>  <REMARK>
 VINA RESULT:      -6.9      2.769     11.063
  Name = 
  17 active torsions:
  status: ('A' for Active; 'I' for Inactive)
    1  A    between atoms: C_3  and  C_50
    2  A    between atoms: C_7  and  N_27
    3  A    between atoms: C_8  and  C_30
    4  A    between atoms: C_8  and  C_45
    5  A    between atoms: O_9  and  C_50
    6  A    between atoms: O_9  and  C_54
    7  A    between atoms: C_10  and  C_16
    8  A    between atoms: C_11  and  C_44
    9  A    between atoms: C_12  and  C_34
   10  A    between atoms: C_12  and  C_52
   11  A    between atoms: C_21  and  C_42
   12  A    between atoms: C_30  and  C_50
   13  A    between atoms: C_31  and  C_44
   14  A    between atoms: C_31  and  N_51
   15  A    between atoms: C_34  and  N_49
   16  A    between atoms: C_42  and  C_43
   17  A    between atoms: C_43  and  C_56
                            x       y       z     vdW  Elec       q    Type
                         _______ _______ _______ _____ _____    ______ ____

>  <TORSDO>
F 17

$$$$
=
 OpenBabel10232408493D

 64 70  0  0  1  0  0  0  0  0999 V2000
  192.3650  174.8120  137.4650 C   0  0  2  0  0  3  0  0  0  0  0  0
  194.8690  174.4890  137.3730 N   0  0  0  0  0  0  0  0  0  0  0  0
  193.7170  175.2450  137.0050 C   0  0  0  0  0  0  0  0  0  0  0  0
  195.3550  174.6050  138.7510 C   0  0  0  0  0  2  0  0  0  0  0  0
  196.8560  174.2990  138.8210 C   0  0  0  0  0  2  0  0  0  0  0  0
  195.7980  174.0810  136.3290 C   0  0  0  0  0  2  0  0  0  0  0  0
  197.0530  174.9540  136.4450 C   0  0  1  0  0  3  0  0  0  0  0  0
  197.6000  175.0780  137.8140 N   0  0  0  0  0  2  0  0  0  0  0  0
  193.8360  176.2510  136.2560 O   0  0  0  0  0  0  0  0  0  0  0  0
  198.1040  174.5970  135.4310 C   0  0  0  0  0  0  0  0  0  0  0  0
  198.1500  175.2720  134.4110 O   0  0  0  0  0  0  0  0  0  0  0  0
  199.9640  173.7780  136.6500 O   0  0  0  0  0  1  0  0  0  0  0  0
  199.8730  173.2130  134.3490 C   0  0  0  0  0  1  0  0  0  0  0  0
  199.0670  173.4310  135.6330 C   0  0  2  0  0  0  0  0  0  0  0  0
  197.8740  171.4360  134.8750 C   0  0  0  0  0  1  0  0  0  0  0  0
  198.3330  172.2040  136.0320 N   0  0  0  0  0  0  0  0  0  0  0  0
  199.2010  171.3140  136.8000 C   0  0  0  0  0  1  0  0  0  0  0  0
  191.5400  174.6190  136.3150 O   0  0  0  0  0  0  0  0  0  0  0  0
  189.4200  171.9280  134.9230 C   0  0  0  0  0  0  0  0  0  0  0  0
  189.8310  173.1390  135.4800 C   0  0  0  0  0  3  0  0  0  0  0  0
  192.7560  170.2110  134.4210 C   0  0  0  0  0  1  0  0  0  0  0  0
  192.1340  172.4420  135.3420 C   0  0  0  0  0  3  0  0  0  0  0  0
  190.3780  170.9650  134.5760 C   0  0  0  0  0  3  0  0  0  0  0  0
  191.1860  173.4070  135.6990 C   0  0  0  0  0  0  0  0  0  0  0  0
  191.7340  171.2260  134.7860 C   0  0  0  0  0  0  0  0  0  0  0  0
  187.1470  172.2370  136.7470 O   0  0  0  0  0  0  0  0  0  0  0  0
  186.9600  171.8140  135.5710 C   0  0  0  0  0  0  0  0  0  0  0  0
  188.0370  171.7430  134.6330 N   0  0  0  0  0  2  0  0  0  0  0  0
  185.5780  171.5260  135.1080 C   0  0  0  0  0  2  0  0  0  0  0  0
  184.7690  172.8090  135.0920 C   0  0  0  0  0  2  0  0  0  0  0  0
  180.5100  170.5630  134.9950 C   0  0  0  0  0  1  0  0  0  0  0  0
  182.3630  173.7230  134.7370 C   0  0  1  0  0  3  0  0  0  0  0  0
  182.8130  171.3460  135.0900 N   0  0  0  0  0  2  0  0  0  0  0  0
  183.3710  172.5730  134.5320 C   0  0  2  0  0  3  0  0  0  0  0  0
  181.4460  171.6360  135.5010 C   0  0  0  0  0  0  0  0  0  0  0  0
  181.0580  172.9750  134.9150 C   0  0  0  0  0  2  0  0  0  0  0  0
  181.3840  171.6910  137.0130 C   0  0  0  0  0  1  0  0  0  0  0  0
  181.4120  176.1700  138.2940 C   0  0  1  0  0  3  0  0  0  0  0  0
  181.0550  174.9150  137.7640 O   0  0  0  0  0  0  0  0  0  0  0  0
  182.6320  174.6140  135.9680 C   0  0  2  0  0  3  0  0  0  0  0  0
  180.9360  177.8090  136.4120 C   0  0  0  0  0  1  0  0  0  0  0  0
  181.3790  175.3370  136.4570 C   0  0  2  0  0  3  0  0  0  0  0  0
  183.3040  176.8530  136.6180 C   0  0  0  0  0  2  0  0  0  0  0  0
  183.6340  175.7200  135.6690 C   0  0  0  0  0  2  0  0  0  0  0  0
  182.5660  176.0090  139.2750 C   0  0  0  0  0  1  0  0  0  0  0  0
  181.8200  176.6930  136.9300 C   0  0  2  0  0  0  0  0  0  0  0  0
  191.8030  175.8020  138.4760 C   0  0  0  0  0  2  0  0  0  0  0  0
  190.3000  175.9100  138.2410 C   0  0  0  0  0  2  0  0  0  0  0  0
  189.8040  178.0770  145.7210 C   0  0  2  0  0  3  0  0  0  0  0  0
  188.8360  176.0510  142.8600 N   0  0  0  0  0  0  0  0  0  0  0  0
  189.9400  179.1630  142.3410 C   0  0  0  0  0  3  0  0  0  0  0  0
  189.6480  176.1680  140.6550 N   0  0  0  0  0  2  0  0  0  0  0  0
  188.8090  178.2880  141.8080 C   0  0  0  0  0  2  0  0  0  0  0  0
  188.7760  177.8430  144.6130 C   0  0  2  0  0  3  0  0  0  0  0  0
  188.2800  176.4610  144.1670 C   0  0  0  0  0  2  0  0  0  0  0  0
  189.6070  176.6820  139.3160 C   0  0  0  0  0  0  0  0  0  0  0  0
  190.5200  178.9880  143.4920 N   0  0  0  0  0  0  0  0  0  0  0  0
  188.9220  177.7070  139.0320 O   0  0  0  0  0  0  0  0  0  0  0  0
  190.2650  177.8300  144.3070 C   0  0  1  0  0  3  0  0  0  0  0  0
  189.0830  176.7990  141.8110 C   0  0  0  0  0  0  0  0  0  0  0  0
  189.9920  176.8230  146.5540 C   0  0  0  0  0  2  0  0  0  0  0  0
  190.8720  177.1270  147.7610 C   0  0  0  0  0  2  0  0  0  0  0  0
  192.8240  176.2930  148.6420 O   0  0  0  0  0  0  0  0  0  0  0  0
  192.0850  176.3500  147.7020 N   0  0  0  0  0  0  0  0  0  0  0  0
  1 47  1  1  0  0  0
  2  4  1  0  0  0  0
  3  2  1  0  0  0  0
  3  1  1  0  0  0  0
  4  5  1  0  0  0  0
  6  7  1  0  0  0  0
  6  2  1  0  0  0  0
  7 10  1  6  0  0  0
  7  8  1  0  0  0  0
  8  5  1  0  0  0  0
  9  3  2  0  0  0  0
 10 14  1  0  0  0  0
 11 10  2  0  0  0  0
 14 13  1  6  0  0  0
 14 16  1  0  0  0  0
 14 12  1  0  0  0  0
 15 16  1  0  0  0  0
 16 17  1  0  0  0  0
 18  1  1  0  0  0  0
 19 20  1  0  0  0  0
 20 24  2  0  0  0  0
 21 25  1  0  0  0  0
 22 24  1  0  0  0  0
 23 25  1  0  0  0  0
 23 19  2  0  0  0  0
 24 18  1  0  0  0  0
 25 22  2  0  0  0  0
 27 26  2  0  0  0  0
 28 19  1  0  0  0  0
 28 27  1  0  0  0  0
 29 27  1  0  0  0  0
 30 29  1  0  0  0  0
 31 35  1  0  0  0  0
 32 36  1  1  0  0  0
 32 40  1  0  0  0  0
 33 35  1  0  0  0  0
 34 32  1  0  0  0  0
 34 33  1  0  0  0  0
 34 30  1  1  0  0  0
 35 37  1  0  0  0  0
 36 35  1  0  0  0  0
 38 45  1  1  0  0  0
 39 38  1  0  0  0  0
 40 44  1  6  0  0  0
 40 42  1  0  0  0  0
 42 46  1  0  0  0  0
 42 39  1  1  0  0  0
 43 46  1  0  0  0  0
 44 43  1  0  0  0  0
 46 41  1  6  0  0  0
 46 38  1  0  0  0  0
 48 47  1  0  0  0  0
 48 56  1  0  0  0  0
 49 61  1  1  0  0  0
 50 55  1  0  0  0  0
 51 57  2  0  0  0  0
 52 60  1  0  0  0  0
 53 60  1  0  0  0  0
 53 51  1  0  0  0  0
 54 55  1  1  0  0  0
 54 49  1  0  0  0  0
 56 52  1  0  0  0  0
 58 56  2  0  0  0  0
 59 57  1  6  0  0  0
 59 54  1  0  0  0  0
 59 49  1  0  0  0  0
 60 50  2  0  0  0  0
 61 62  1  0  0  0  0
 64 62  1  0  0  0  0
 64 63  2  0  0  0  0
M  END
>  <MODEL>
6

>  <REMARK>
 VINA RESULT:      -6.8      3.117     11.802
  Name = 
  17 active torsions:
  status: ('A' for Active; 'I' for Inactive)
    1  A    between atoms: C_3  and  C_50
    2  A    between atoms: C_7  and  N_27
    3  A    between atoms: C_8  and  C_30
    4  A    between atoms: C_8  and  C_45
    5  A    between atoms: O_9  and  C_50
    6  A    between atoms: O_9  and  C_54
    7  A    between atoms: C_10  and  C_16
    8  A    between atoms: C_11  and  C_44
    9  A    between atoms: C_12  and  C_34
   10  A    between atoms: C_12  and  C_52
   11  A    between atoms: C_21  and  C_42
   12  A    between atoms: C_30  and  C_50
   13  A    between atoms: C_31  and  C_44
   14  A    between atoms: C_31  and  N_51
   15  A    between atoms: C_34  and  N_49
   16  A    between atoms: C_42  and  C_43
   17  A    between atoms: C_43  and  C_56
                            x       y       z     vdW  Elec       q    Type
                         _______ _______ _______ _____ _____    ______ ____

>  <TORSDO>
F 17

$$$$
=
 OpenBabel10232408493D

 64 70  0  0  1  0  0  0  0  0999 V2000
  187.4650  178.3820  141.4600 C   0  0  2  0  0  3  0  0  0  0  0  0
  187.5880  177.8710  143.9320 N   0  0  0  0  0  0  0  0  0  0  0  0
  188.1710  178.4630  142.7720 C   0  0  0  0  0  0  0  0  0  0  0  0
  186.4530  178.5560  144.5560 C   0  0  0  0  0  2  0  0  0  0  0  0
  186.3650  178.2050  146.0460 C   0  0  0  0  0  2  0  0  0  0  0  0
  188.4000  176.9710  144.7390 C   0  0  0  0  0  2  0  0  0  0  0  0
  188.7860  177.7100  146.0250 C   0  0  1  0  0  3  0  0  0  0  0  0
  187.6680  178.3940  146.7090 N   0  0  0  0  0  2  0  0  0  0  0  0
  189.3010  179.0150  142.8480 O   0  0  0  0  0  0  0  0  0  0  0  0
  189.6050  176.8610  146.9580 C   0  0  0  0  0  0  0  0  0  0  0  0
  188.9970  176.1230  147.7230 O   0  0  0  0  0  0  0  0  0  0  0  0
  191.5170  177.7760  148.0180 O   0  0  0  0  0  1  0  0  0  0  0  0
  191.6360  177.5090  145.6640 C   0  0  0  0  0  1  0  0  0  0  0  0
  191.1290  176.9170  146.9830 C   0  0  2  0  0  0  0  0  0  0  0  0
  192.2130  174.9530  146.0080 C   0  0  0  0  0  1  0  0  0  0  0  0
  191.7010  175.5690  147.2320 N   0  0  0  0  0  0  0  0  0  0  0  0
  192.8310  175.6540  148.1540 C   0  0  0  0  0  1  0  0  0  0  0  0
  186.2690  177.6230  141.6410 O   0  0  0  0  0  0  0  0  0  0  0  0
  183.1420  178.6990  139.9840 C   0  0  0  0  0  0  0  0  0  0  0  0
  184.4360  178.2210  140.1940 C   0  0  0  0  0  3  0  0  0  0  0  0
  181.9780  179.1770  143.5550 C   0  0  0  0  0  1  0  0  0  0  0  0
  184.1220  178.3650  142.5800 C   0  0  0  0  0  3  0  0  0  0  0  0
  182.3340  179.0140  141.0860 C   0  0  0  0  0  3  0  0  0  0  0  0
  184.9410  178.0530  141.4880 C   0  0  0  0  0  0  0  0  0  0  0  0
  182.8270  178.8450  142.3810 C   0  0  0  0  0  0  0  0  0  0  0  0
  181.0220  177.0720  138.7820 O   0  0  0  0  0  0  0  0  0  0  0  0
  181.6700  177.8900  138.0700 C   0  0  0  0  0  0  0  0  0  0  0  0
  182.6450  178.7610  138.6510 N   0  0  0  0  0  2  0  0  0  0  0  0
  181.3150  178.0560  136.6370 C   0  0  0  0  0  2  0  0  0  0  0  0
  181.8410  176.8770  135.8420 C   0  0  0  0  0  2  0  0  0  0  0  0
  180.1040  172.3950  135.5460 C   0  0  0  0  0  1  0  0  0  0  0  0
  182.4890  174.7060  137.1130 C   0  0  1  0  0  3  0  0  0  0  0  0
  180.7120  174.7490  135.4360 N   0  0  0  0  0  2  0  0  0  0  0  0
  181.3860  175.5550  136.4490 C   0  0  2  0  0  3  0  0  0  0  0  0
  181.2380  173.3950  135.5340 C   0  0  0  0  0  0  0  0  0  0  0  0
  182.0250  173.2940  136.8210 C   0  0  0  0  0  2  0  0  0  0  0  0
  182.1400  173.1250  134.3480 C   0  0  0  0  0  1  0  0  0  0  0  0
  186.2420  173.7010  135.0040 C   0  0  1  0  0  3  0  0  0  0  0  0
  184.8560  173.5850  134.7820 O   0  0  0  0  0  0  0  0  0  0  0  0
  183.9090  174.9230  136.5470 C   0  0  2  0  0  3  0  0  0  0  0  0
  186.6170  172.5890  137.2560 C   0  0  0  0  0  1  0  0  0  0  0  0
  184.5980  173.6130  136.1690 C   0  0  2  0  0  3  0  0  0  0  0  0
  186.2360  175.1220  137.2020 C   0  0  0  0  0  2  0  0  0  0  0  0
  184.8370  175.5780  137.5590 C   0  0  0  0  0  2  0  0  0  0  0  0
  186.7620  174.9850  134.3700 C   0  0  0  0  0  1  0  0  0  0  0  0
  186.0520  173.7790  136.5060 C   0  0  2  0  0  0  0  0  0  0  0  0
  188.3950  177.8350  140.3860 C   0  0  0  0  0  2  0  0  0  0  0  0
  187.9210  178.3690  139.0390 C   0  0  0  0  0  2  0  0  0  0  0  0
  193.1830  173.2780  136.3410 C   0  0  2  0  0  3  0  0  0  0  0  0
  192.1320  176.5820  137.4390 N   0  0  0  0  0  0  0  0  0  0  0  0
  189.8850  174.5580  136.0150 C   0  0  0  0  0  3  0  0  0  0  0  0
  189.9960  177.2680  138.1470 N   0  0  0  0  0  2  0  0  0  0  0  0
  190.2570  176.0370  135.9240 C   0  0  0  0  0  2  0  0  0  0  0  0
  192.7540  174.6850  135.9220 C   0  0  2  0  0  3  0  0  0  0  0  0
  193.2050  175.9730  136.6230 C   0  0  0  0  0  2  0  0  0  0  0  0
  188.6860  177.7920  137.8930 C   0  0  0  0  0  0  0  0  0  0  0  0
  190.6950  173.6240  136.4160 N   0  0  0  0  0  0  0  0  0  0  0  0
  188.2260  177.8550  136.7160 O   0  0  0  0  0  0  0  0  0  0  0  0
  191.9820  173.9220  136.9860 C   0  0  1  0  0  3  0  0  0  0  0  0
  190.8480  176.6360  137.1830 C   0  0  0  0  0  0  0  0  0  0  0  0
  194.3710  173.3340  137.2830 C   0  0  0  0  0  2  0  0  0  0  0  0
  195.6410  172.9300  136.5440 C   0  0  0  0  0  2  0  0  0  0  0  0
  197.7210  173.8610  136.8420 O   0  0  0  0  0  0  0  0  0  0  0  0
  196.5780  174.0260  136.5280 N   0  0  0  0  0  0  0  0  0  0  0  0
  1 47  1  6  0  0  0
  1 18  1  0  0  0  0
  1  3  1  0  0  0  0
  2  4  1  0  0  0  0
  2  6  1  0  0  0  0
  3  9  2  0  0  0  0
  3  2  1  0  0  0  0
  4  5  1  0  0  0  0
  5  8  1  0  0  0  0
  6  7  1  0  0  0  0
  7  8  1  0  0  0  0
  7 10  1  1  0  0  0
 10 14  1  0  0  0  0
 10 11  2  0  0  0  0
 14 13  1  6  0  0  0
 14 16  1  0  0  0  0
 14 12  1  0  0  0  0
 15 16  1  0  0  0  0
 16 17  1  0  0  0  0
 19 20  2  0  0  0  0
 19 23  1  0  0  0  0
 20 24  1  0  0  0  0
 23 25  2  0  0  0  0
 24 18  1  0  0  0  0
 24 22  2  0  0  0  0
 25 22  1  0  0  0  0
 25 21  1  0  0  0  0
 27 28  1  0  0  0  0
 27 26  2  0  0  0  0
 28 19  1  0  0  0  0
 29 27  1  0  0  0  0
 30 29  1  0  0  0  0
 32 36  1  6  0  0  0
 33 35  1  0  0  0  0
 33 34  1  0  0  0  0
 34 30  1  6  0  0  0
 34 32  1  0  0  0  0
 35 31  1  0  0  0  0
 35 36  1  0  0  0  0
 37 35  1  0  0  0  0
 38 45  1  6  0  0  0
 38 46  1  0  0  0  0
 39 38  1  0  0  0  0
 40 32  1  0  0  0  0
 40 44  1  1  0  0  0
 42 39  1  6  0  0  0
 42 46  1  0  0  0  0
 42 40  1  0  0  0  0
 43 44  1  0  0  0  0
 46 43  1  0  0  0  0
 46 41  1  1  0  0  0
 48 47  1  0  0  0  0
 49 59  1  0  0  0  0
 49 61  1  1  0  0  0
 51 57  2  0  0  0  0
 53 51  1  0  0  0  0
 53 60  1  0  0  0  0
 54 49  1  0  0  0  0
 54 55  1  1  0  0  0
 54 59  1  0  0  0  0
 55 50  1  0  0  0  0
 56 52  1  0  0  0  0
 56 48  1  0  0  0  0
 58 56  2  0  0  0  0
 59 57  1  6  0  0  0
 60 50  2  0  0  0  0
 60 52  1  0  0  0  0
 62 61  1  0  0  0  0
 64 62  1  0  0  0  0
 64 63  2  0  0  0  0
M  END
>  <MODEL>
7

>  <REMARK>
 VINA RESULT:      -6.5      2.221      8.868
  Name = 
  17 active torsions:
  status: ('A' for Active; 'I' for Inactive)
    1  A    between atoms: C_3  and  C_50
    2  A    between atoms: C_7  and  N_27
    3  A    between atoms: C_8  and  C_30
    4  A    between atoms: C_8  and  C_45
    5  A    between atoms: O_9  and  C_50
    6  A    between atoms: O_9  and  C_54
    7  A    between atoms: C_10  and  C_16
    8  A    between atoms: C_11  and  C_44
    9  A    between atoms: C_12  and  C_34
   10  A    between atoms: C_12  and  C_52
   11  A    between atoms: C_21  and  C_42
   12  A    between atoms: C_30  and  C_50
   13  A    between atoms: C_31  and  C_44
   14  A    between atoms: C_31  and  N_51
   15  A    between atoms: C_34  and  N_49
   16  A    between atoms: C_42  and  C_43
   17  A    between atoms: C_43  and  C_56
                            x       y       z     vdW  Elec       q    Type
                         _______ _______ _______ _____ _____    ______ ____

>  <TORSDO>
F 17

$$$$
=
 OpenBabel10232408493D

 64 70  0  0  1  0  0  0  0  0999 V2000
  187.0010  177.8710  140.4290 C   0  0  2  0  0  3  0  0  0  0  0  0
  187.3920  177.4590  142.8910 N   0  0  0  0  0  0  0  0  0  0  0  0
  187.6820  178.2100  141.7130 C   0  0  0  0  0  0  0  0  0  0  0  0
  186.1130  177.7020  143.5630 C   0  0  0  0  0  2  0  0  0  0  0  0
  186.2130  177.3560  145.0540 C   0  0  0  0  0  2  0  0  0  0  0  0
  188.5020  176.9140  143.6610 C   0  0  0  0  0  2  0  0  0  0  0  0
  188.6500  177.7530  144.9350 C   0  0  1  0  0  3  0  0  0  0  0  0
  187.3890  178.0020  145.6660 N   0  0  0  0  0  2  0  0  0  0  0  0
  188.5440  179.1280  141.7470 O   0  0  0  0  0  0  0  0  0  0  0  0
  189.7520  177.2580  145.8300 C   0  0  0  0  0  0  0  0  0  0  0  0
  189.5320  177.2450  147.0350 O   0  0  0  0  0  0  0  0  0  0  0  0
  190.8840  175.7620  144.3810 O   0  0  0  0  0  1  0  0  0  0  0  0
  191.9580  176.2660  146.4350 C   0  0  0  0  0  1  0  0  0  0  0  0
  191.1040  176.8090  145.2850 C   0  0  2  0  0  0  0  0  0  0  0  0
  191.6830  177.7970  143.1240 C   0  0  0  0  0  1  0  0  0  0  0  0
  191.7840  177.9240  144.5780 N   0  0  0  0  0  0  0  0  0  0  0  0
  191.1670  179.2020  144.9250 C   0  0  0  0  0  1  0  0  0  0  0  0
  187.9990  177.7030  139.4220 O   0  0  0  0  0  0  0  0  0  0  0  0
  188.8550  175.7360  136.4100 C   0  0  0  0  0  0  0  0  0  0  0  0
  188.9150  176.3150  137.6780 C   0  0  0  0  0  3  0  0  0  0  0  0
  185.4610  176.9400  135.2430 C   0  0  0  0  0  1  0  0  0  0  0  0
  186.7340  177.2890  137.3560 C   0  0  0  0  0  3  0  0  0  0  0  0
  187.7230  175.9410  135.6080 C   0  0  0  0  0  3  0  0  0  0  0  0
  187.8620  177.0980  138.1620 C   0  0  0  0  0  0  0  0  0  0  0  0
  186.6650  176.7170  136.0850 C   0  0  0  0  0  0  0  0  0  0  0  0
  190.9780  176.2860  134.4660 O   0  0  0  0  0  0  0  0  0  0  0  0
  190.8790  175.1380  134.9840 C   0  0  0  0  0  0  0  0  0  0  0  0
  189.9120  174.8710  136.0030 N   0  0  0  0  0  2  0  0  0  0  0  0
  191.8740  174.0910  134.6390 C   0  0  0  0  0  2  0  0  0  0  0  0
  193.0280  174.1420  135.6210 C   0  0  0  0  0  2  0  0  0  0  0  0
  193.3370  169.3380  135.7640 C   0  0  0  0  0  1  0  0  0  0  0  0
  194.5730  172.5690  136.9960 C   0  0  1  0  0  3  0  0  0  0  0  0
  192.8900  171.7100  135.4460 N   0  0  0  0  0  2  0  0  0  0  0  0
  193.1940  172.8140  136.3500 C   0  0  2  0  0  3  0  0  0  0  0  0
  193.9410  170.7140  135.6030 C   0  0  0  0  0  0  0  0  0  0  0  0
  194.7390  171.0730  136.8370 C   0  0  0  0  0  2  0  0  0  0  0  0
  194.8340  170.7360  134.3810 C   0  0  0  0  0  1  0  0  0  0  0  0
  198.7340  173.2750  135.6800 C   0  0  1  0  0  3  0  0  0  0  0  0
  197.7990  172.2210  135.6690 O   0  0  0  0  0  0  0  0  0  0  0  0
  195.7490  173.3050  136.3200 C   0  0  2  0  0  3  0  0  0  0  0  0
  198.8460  173.9950  138.1130 C   0  0  0  0  0  1  0  0  0  0  0  0
  197.1100  172.7770  136.7680 C   0  0  2  0  0  3  0  0  0  0  0  0
  197.2190  175.2200  136.5590 C   0  0  0  0  0  2  0  0  0  0  0  0
  195.7720  174.7880  136.6600 C   0  0  0  0  0  2  0  0  0  0  0  0
  198.6680  174.0390  134.3630 C   0  0  0  0  0  1  0  0  0  0  0  0
  198.0320  173.9610  136.8350 C   0  0  2  0  0  0  0  0  0  0  0  0
  185.9460  178.9160  140.0930 C   0  0  0  0  0  2  0  0  0  0  0  0
  184.7030  178.6110  140.9210 C   0  0  0  0  0  2  0  0  0  0  0  0
  180.1530  173.6650  136.9560 C   0  0  2  0  0  3  0  0  0  0  0  0
  182.7600  176.1890  137.1990 N   0  0  0  0  0  0  0  0  0  0  0  0
  180.2850  176.1950  139.4470 C   0  0  0  0  0  3  0  0  0  0  0  0
  183.5400  177.2920  139.1250 N   0  0  0  0  0  2  0  0  0  0  0  0
  181.0360  177.2410  138.6240 C   0  0  0  0  0  2  0  0  0  0  0  0
  180.5210  175.1390  136.7840 C   0  0  2  0  0  3  0  0  0  0  0  0
  181.8400  175.6390  136.1810 C   0  0  0  0  0  2  0  0  0  0  0  0
  183.4970  178.3660  140.0740 C   0  0  0  0  0  0  0  0  0  0  0  0
  180.1890  174.9400  139.1210 N   0  0  0  0  0  0  0  0  0  0  0  0
  182.5030  179.1490  140.1270 O   0  0  0  0  0  0  0  0  0  0  0  0
  180.9380  174.3750  138.0300 C   0  0  1  0  0  3  0  0  0  0  0  0
  182.4640  176.8850  138.2700 C   0  0  0  0  0  0  0  0  0  0  0  0
  181.0760  172.7800  136.1380 C   0  0  0  0  0  2  0  0  0  0  0  0
  181.6690  171.6900  137.0220 C   0  0  0  0  0  2  0  0  0  0  0  0
  183.7340  171.1430  136.1740 O   0  0  0  0  0  0  0  0  0  0  0  0
  183.1090  171.7540  136.9920 N   0  0  0  0  0  0  0  0  0  0  0  0
  1 47  1  6  0  0  0
  1  3  1  0  0  0  0
  2  4  1  0  0  0  0
  2  6  1  0  0  0  0
  3  9  2  0  0  0  0
  3  2  1  0  0  0  0
  4  5  1  0  0  0  0
  5  8  1  0  0  0  0
  6  7  1  0  0  0  0
  7  8  1  0  0  0  0
  7 10  1  1  0  0  0
 10 11  2  0  0  0  0
 12 14  1  0  0  0  0
 14 10  1  0  0  0  0
 14 13  1  1  0  0  0
 15 16  1  0  0  0  0
 16 17  1  0  0  0  0
 16 14  1  0  0  0  0
 18  1  1  0  0  0  0
 19 20  1  0  0  0  0
 20 24  2  0  0  0  0
 21 25  1  0  0  0  0
 22 24  1  0  0  0  0
 23 25  1  0  0  0  0
 23 19  2  0  0  0  0
 24 18  1  0  0  0  0
 25 22  2  0  0  0  0
 26 27  2  0  0  0  0
 27 28  1  0  0  0  0
 28 19  1  0  0  0  0
 29 27  1  0  0  0  0
 29 30  1  0  0  0  0
 32 36  1  6  0  0  0
 33 35  1  0  0  0  0
 33 34  1  0  0  0  0
 34 30  1  6  0  0  0
 34 32  1  0  0  0  0
 35 31  1  0  0  0  0
 35 36  1  0  0  0  0
 37 35  1  0  0  0  0
 38 45  1  6  0  0  0
 38 46  1  0  0  0  0
 39 38  1  0  0  0  0
 40 44  1  1  0  0  0
 40 42  1  0  0  0  0
 40 32  1  0  0  0  0
 42 39  1  6  0  0  0
 42 46  1  0  0  0  0
 43 44  1  0  0  0  0
 43 46  1  0  0  0  0
 46 41  1  1  0  0  0
 47 48  1  0  0  0  0
 49 61  1  6  0  0  0
 49 59  1  0  0  0  0
 50 60  2  0  0  0  0
 52 56  1  0  0  0  0
 53 51  1  0  0  0  0
 54 55  1  6  0  0  0
 54 49  1  0  0  0  0
 54 59  1  0  0  0  0
 55 50  1  0  0  0  0
 56 58  2  0  0  0  0
 56 48  1  0  0  0  0
 57 51  2  0  0  0  0
 59 57  1  1  0  0  0
 60 53  1  0  0  0  0
 60 52  1  0  0  0  0
 61 62  1  0  0  0  0
 63 64  2  0  0  0  0
 64 62  1  0  0  0  0
M  END
>  <MODEL>
8

>  <REMARK>
 VINA RESULT:      -6.2      2.524     11.205
  Name = 
  17 active torsions:
  status: ('A' for Active; 'I' for Inactive)
    1  A    between atoms: C_3  and  C_50
    2  A    between atoms: C_7  and  N_27
    3  A    between atoms: C_8  and  C_30
    4  A    between atoms: C_8  and  C_45
    5  A    between atoms: O_9  and  C_50
    6  A    between atoms: O_9  and  C_54
    7  A    between atoms: C_10  and  C_16
    8  A    between atoms: C_11  and  C_44
    9  A    between atoms: C_12  and  C_34
   10  A    between atoms: C_12  and  C_52
   11  A    between atoms: C_21  and  C_42
   12  A    between atoms: C_30  and  C_50
   13  A    between atoms: C_31  and  C_44
   14  A    between atoms: C_31  and  N_51
   15  A    between atoms: C_34  and  N_49
   16  A    between atoms: C_42  and  C_43
   17  A    between atoms: C_43  and  C_56
                            x       y       z     vdW  Elec       q    Type
                         _______ _______ _______ _____ _____    ______ ____

>  <TORSDO>
F 17

$$$$
=
 OpenBabel10232408493D

 64 70  0  0  1  0  0  0  0  0999 V2000
  188.5870  177.3320  140.7800 C   0  0  2  0  0  3  0  0  0  0  0  0
  188.2360  177.1490  143.2760 N   0  0  0  0  0  0  0  0  0  0  0  0
  188.9290  177.7360  142.1750 C   0  0  0  0  0  0  0  0  0  0  0  0
  186.8630  177.5890  143.5370 C   0  0  0  0  0  2  0  0  0  0  0  0
  186.5080  177.3970  145.0160 C   0  0  0  0  0  2  0  0  0  0  0  0
  189.0150  176.5820  144.3670 C   0  0  0  0  0  2  0  0  0  0  0  0
  188.9140  177.5330  145.5640 C   0  0  1  0  0  3  0  0  0  0  0  0
  187.5430  177.9840  145.8870 N   0  0  0  0  0  2  0  0  0  0  0  0
  189.8570  178.5620  142.3840 O   0  0  0  0  0  0  0  0  0  0  0  0
  189.6580  177.0300  146.7700 C   0  0  0  0  0  0  0  0  0  0  0  0
  188.9940  176.7310  147.7540 O   0  0  0  0  0  0  0  0  0  0  0  0
  191.6630  177.7230  147.8290 O   0  0  0  0  0  1  0  0  0  0  0  0
  191.7510  177.4360  145.4770 C   0  0  0  0  0  1  0  0  0  0  0  0
  191.1790  176.9100  146.7970 C   0  0  2  0  0  0  0  0  0  0  0  0
  192.6050  175.0500  146.0990 C   0  0  0  0  0  1  0  0  0  0  0  0
  191.5920  175.5070  147.0500 N   0  0  0  0  0  0  0  0  0  0  0  0
  192.1880  175.3800  148.3790 C   0  0  0  0  0  1  0  0  0  0  0  0
  189.7950  176.9690  140.1100 O   0  0  0  0  0  0  0  0  0  0  0  0
  191.3010  175.7060  136.9780 C   0  0  0  0  0  0  0  0  0  0  0  0
  191.0280  175.9090  138.3310 C   0  0  0  0  0  3  0  0  0  0  0  0
  188.6550  177.8930  135.3840 C   0  0  0  0  0  1  0  0  0  0  0  0
  189.2170  177.3940  137.7590 C   0  0  0  0  0  3  0  0  0  0  0  0
  190.5240  176.3570  136.0090 C   0  0  0  0  0  3  0  0  0  0  0  0
  189.9900  176.7560  138.7360 C   0  0  0  0  0  0  0  0  0  0  0  0
  189.4830  177.1990  136.4040 C   0  0  0  0  0  0  0  0  0  0  0  0
  194.0960  176.2390  136.2770 O   0  0  0  0  0  0  0  0  0  0  0  0
  193.6380  175.0640  136.1940 C   0  0  0  0  0  0  0  0  0  0  0  0
  192.3060  174.7620  136.6190 N   0  0  0  0  0  2  0  0  0  0  0  0
  194.5380  173.9540  135.7900 C   0  0  0  0  0  2  0  0  0  0  0  0
  195.1550  173.3240  137.0230 C   0  0  0  0  0  2  0  0  0  0  0  0
  192.9210  169.3110  135.5760 C   0  0  0  0  0  1  0  0  0  0  0  0
  195.7210  170.8180  137.4120 C   0  0  1  0  0  3  0  0  0  0  0  0
  193.7600  171.5260  136.1350 N   0  0  0  0  0  2  0  0  0  0  0  0
  194.6410  171.9060  137.2360 C   0  0  2  0  0  3  0  0  0  0  0  0
  194.1450  170.1870  135.7100 C   0  0  0  0  0  0  0  0  0  0  0  0
  195.0740  169.6160  136.7570 C   0  0  0  0  0  2  0  0  0  0  0  0
  194.8550  170.2750  134.3750 C   0  0  0  0  0  1  0  0  0  0  0  0
  199.7110  169.9930  135.6980 C   0  0  1  0  0  3  0  0  0  0  0  0
  198.4090  169.4620  135.6160 O   0  0  0  0  0  0  0  0  0  0  0  0
  197.0720  171.1260  136.7330 C   0  0  2  0  0  3  0  0  0  0  0  0
  200.2270  170.0220  138.1850 C   0  0  0  0  0  1  0  0  0  0  0  0
  198.0790  169.9880  136.8840 C   0  0  2  0  0  3  0  0  0  0  0  0
  199.2420  172.1360  137.1250 C   0  0  0  0  0  2  0  0  0  0  0  0
  197.7570  172.3410  137.3400 C   0  0  0  0  0  2  0  0  0  0  0  0
  199.9340  170.9930  134.5700 C   0  0  0  0  0  1  0  0  0  0  0  0
  199.4290  170.6260  137.0460 C   0  0  2  0  0  0  0  0  0  0  0  0
  187.7940  178.4300  140.0850 C   0  0  0  0  0  2  0  0  0  0  0  0
  186.6570  178.8450  141.0120 C   0  0  0  0  0  2  0  0  0  0  0  0
  181.3290  175.0910  136.7210 C   0  0  2  0  0  3  0  0  0  0  0  0
  184.0670  177.4430  137.1620 N   0  0  0  0  0  0  0  0  0  0  0  0
  181.9540  176.9240  139.7000 C   0  0  0  0  0  3  0  0  0  0  0  0
  185.1770  178.0260  139.1530 N   0  0  0  0  0  2  0  0  0  0  0  0
  182.6270  178.1310  139.0500 C   0  0  0  0  0  2  0  0  0  0  0  0
  181.7410  176.5570  136.8570 C   0  0  2  0  0  3  0  0  0  0  0  0
  182.9800  177.1750  136.1960 C   0  0  0  0  0  2  0  0  0  0  0  0
  185.3280  178.8320  140.3290 C   0  0  0  0  0  0  0  0  0  0  0  0
  181.7480  175.7890  139.0980 N   0  0  0  0  0  0  0  0  0  0  0  0
  184.3940  179.5890  140.7240 O   0  0  0  0  0  0  0  0  0  0  0  0
  182.2980  175.5030  137.8000 C   0  0  1  0  0  3  0  0  0  0  0  0
  183.9680  177.8560  138.4020 C   0  0  0  0  0  0  0  0  0  0  0  0
  182.0750  174.4250  135.5800 C   0  0  0  0  0  2  0  0  0  0  0  0
  182.6450  173.0890  136.0410 C   0  0  0  0  0  2  0  0  0  0  0  0
  180.9110  172.0840  134.9150 O   0  0  0  0  0  0  0  0  0  0  0  0
  182.0420  172.0080  135.2990 N   0  0  0  0  0  0  0  0  0  0  0  0
  1 47  1  6  0  0  0
  1  3  1  0  0  0  0
  2  4  1  0  0  0  0
  2  6  1  0  0  0  0
  3  9  2  0  0  0  0
  3  2  1  0  0  0  0
  4  5  1  0  0  0  0
  5  8  1  0  0  0  0
  6  7  1  0  0  0  0
  7  8  1  0  0  0  0
  7 10  1  1  0  0  0
 10 14  1  0  0  0  0
 10 11  2  0  0  0  0
 14 13  1  6  0  0  0
 14 16  1  0  0  0  0
 14 12  1  0  0  0  0
 15 16  1  0  0  0  0
 16 17  1  0  0  0  0
 18  1  1  0  0  0  0
 19 20  1  0  0  0  0
 20 24  2  0  0  0  0
 21 25  1  0  0  0  0
 22 24  1  0  0  0  0
 23 25  1  0  0  0  0
 23 19  2  0  0  0  0
 24 18  1  0  0  0  0
 25 22  2  0  0  0  0
 27 26  2  0  0  0  0
 27 28  1  0  0  0  0
 28 19  1  0  0  0  0
 29 27  1  0  0  0  0
 29 30  1  0  0  0  0
 31 35  1  0  0  0  0
 32 36  1  6  0  0  0
 33 34  1  0  0  0  0
 34 30  1  6  0  0  0
 34 32  1  0  0  0  0
 35 33  1  0  0  0  0
 35 36  1  0  0  0  0
 37 35  1  0  0  0  0
 38 45  1  6  0  0  0
 38 46  1  0  0  0  0
 39 38  1  0  0  0  0
 40 42  1  0  0  0  0
 40 44  1  1  0  0  0
 40 32  1  0  0  0  0
 42 39  1  6  0  0  0
 42 46  1  0  0  0  0
 43 44  1  0  0  0  0
 46 43  1  0  0  0  0
 46 41  1  1  0  0  0
 47 48  1  0  0  0  0
 49 61  1  6  0  0  0
 49 54  1  0  0  0  0
 49 59  1  0  0  0  0
 50 60  2  0  0  0  0
 52 56  1  0  0  0  0
 53 51  1  0  0  0  0
 54 55  1  6  0  0  0
 54 59  1  0  0  0  0
 55 50  1  0  0  0  0
 56 58  2  0  0  0  0
 56 48  1  0  0  0  0
 57 51  2  0  0  0  0
 59 57  1  1  0  0  0
 60 53  1  0  0  0  0
 60 52  1  0  0  0  0
 61 62  1  0  0  0  0
 63 64  2  0  0  0  0
 64 62  1  0  0  0  0
M  END
>  <MODEL>
9

>  <REMARK>
 VINA RESULT:      -6.2      3.201     11.905
  Name = 
  17 active torsions:
  status: ('A' for Active; 'I' for Inactive)
    1  A    between atoms: C_3  and  C_50
    2  A    between atoms: C_7  and  N_27
    3  A    between atoms: C_8  and  C_30
    4  A    between atoms: C_8  and  C_45
    5  A    between atoms: O_9  and  C_50
    6  A    between atoms: O_9  and  C_54
    7  A    between atoms: C_10  and  C_16
    8  A    between atoms: C_11  and  C_44
    9  A    between atoms: C_12  and  C_34
   10  A    between atoms: C_12  and  C_52
   11  A    between atoms: C_21  and  C_42
   12  A    between atoms: C_30  and  C_50
   13  A    between atoms: C_31  and  C_44
   14  A    between atoms: C_31  and  N_51
   15  A    between atoms: C_34  and  N_49
   16  A    between atoms: C_42  and  C_43
   17  A    between atoms: C_43  and  C_56
                            x       y       z     vdW  Elec       q    Type
                         _______ _______ _______ _____ _____    ______ ____

>  <TORSDO>
F 17

$$$$
