=
 OpenBabel10232411073D

 39 42  0  0  1  0  0  0  0  0999 V2000
  189.8120  174.4230  136.0750 C   0  0  0  0  0  2  0  0  0  0  0  0
  193.2310  175.5310  138.0630 N   0  0  0  0  0  0  0  0  0  0  0  0
  190.9130  173.3900  136.2200 C   0  0  0  0  0  2  0  0  0  0  0  0
  190.8160  175.7390  137.9970 C   0  0  1  0  0  3  0  0  0  0  0  0
  192.1110  175.0700  137.5880 C   0  0  0  0  0  0  0  0  0  0  0  0
  189.5560  175.0430  137.4460 C   0  0  1  0  0  3  0  0  0  0  0  0
  192.1110  174.0160  136.6630 O   0  0  0  0  0  0  0  0  0  0  0  0
  195.1890  175.4680  136.5680 N   0  0  0  0  0  2  0  0  0  0  0  0
  194.5450  175.0390  137.7680 C   0  0  0  0  0  0  0  0  0  0  0  0
  195.1320  174.2400  138.5480 O   0  0  0  0  0  0  0  0  0  0  0  0
  196.6030  174.9040  134.6850 C   0  0  0  0  0  2  0  0  0  0  0  0
  197.2150  176.0900  135.4010 C   0  0  0  0  0  2  0  0  0  0  0  0
  196.5160  175.0060  136.1940 C   0  0  0  0  0  3  0  0  0  0  0  0
  190.3010  178.1000  139.5110 O   0  0  0  0  0  0  0  0  0  0  0  0
  190.7290  175.8080  139.4500 N   0  0  0  0  0  2  0  0  0  0  0  0
  190.4900  177.0310  140.1540 C   0  0  0  0  0  0  0  0  0  0  0  0
  190.4520  177.0320  141.6290 C   0  0  0  0  0  0  0  0  0  0  0  0
  191.4420  177.6290  142.3070 C   0  0  0  0  0  3  0  0  0  0  0  0
  188.6040  176.9960  143.3450 C   0  0  0  0  0  2  0  0  0  0  0  0
  189.3950  176.2110  142.3140 C   0  0  0  0  0  2  0  0  0  0  0  0
  189.4190  177.1290  144.6170 C   0  0  2  0  0  3  0  0  0  0  0  0
  188.4880  177.4430  145.7690 C   0  0  0  0  0  1  0  0  0  0  0  0
  190.3790  178.2120  144.4730 N   0  0  0  0  0  2  0  0  0  0  0  0
  191.4780  177.7430  143.7340 N   0  0  0  0  0  2  0  0  0  0  0  0
  187.2860  175.4430  136.6920 O   0  0  0  0  0  1  0  0  0  0  0  0
  188.3700  176.0170  137.3630 C   0  0  2  0  0  3  0  0  0  0  0  0
  188.7490  177.3360  136.6900 C   0  0  0  0  0  2  0  0  0  0  0  0
  187.5200  178.1400  136.2860 C   0  0  0  0  0  2  0  0  0  0  0  0
  186.9440  178.7810  137.4540 N   0  0  0  0  0  2  0  0  0  0  0  0
  184.9670  179.0650  141.1920 C   0  0  0  0  0  0  0  0  0  0  0  0
  183.6260  178.4530  141.4670 C   0  0  0  0  0  2  0  0  0  0  0  0
  185.6880  178.1950  137.6650 N   0  0  0  0  0  2  0  0  0  0  0  0
  183.0630  177.7370  140.2720 C   0  0  0  0  0  3  0  0  0  0  0  0
  183.7020  177.6560  139.0950 C   0  0  0  0  0  0  0  0  0  0  0  0
  185.0240  178.2920  138.9260 C   0  0  0  0  0  0  0  0  0  0  0  0
  185.5850  178.9340  139.9060 N   0  0  0  0  0  0  0  0  0  0  0  0
  185.5570  179.7000  142.1030 O   0  0  0  0  0  0  0  0  0  0  0  0
  183.4210  175.6170  137.7080 C   0  0  0  0  0  1  0  0  0  0  0  0
  183.1350  176.9760  138.0100 O   0  0  0  0  0  0  0  0  0  0  0  0
  1  3  1  0  0  0  0
  1  6  1  0  0  0  0
  3  7  1  0  0  0  0
  4 15  1  1  0  0  0
  5  4  1  0  0  0  0
  5  2  2  0  0  0  0
  6 26  1  6  0  0  0
  6  4  1  0  0  0  0
  7  5  1  0  0  0  0
  8  9  1  0  0  0  0
  9  2  1  0  0  0  0
  9 10  2  0  0  0  0
 11 12  1  0  0  0  0
 11 13  1  0  0  0  0
 12 13  1  0  0  0  0
 13  8  1  0  0  0  0
 14 16  2  0  0  0  0
 15 16  1  0  0  0  0
 16 17  1  0  0  0  0
 17 18  2  0  0  0  0
 17 20  1  0  0  0  0
 18 24  1  0  0  0  0
 19 21  1  0  0  0  0
 20 19  1  0  0  0  0
 21 22  1  1  0  0  0
 23 21  1  0  0  0  0
 24 23  1  0  0  0  0
 26 25  1  6  0  0  0
 27 26  1  0  0  0  0
 28 27  1  0  0  0  0
 28 29  1  0  0  0  0
 29 32  1  0  0  0  0
 30 31  1  0  0  0  0
 30 37  2  0  0  0  0
 32 35  1  0  0  0  0
 33 31  1  0  0  0  0
 34 33  2  0  0  0  0
 35 34  1  0  0  0  0
 35 36  2  0  0  0  0
 36 30  1  0  0  0  0
 38 39  1  0  0  0  0
 39 34  1  0  0  0  0
M  END
>  <MODEL>
1

>  <REMARK>
 VINA RESULT:      -7.7      0.000      0.000
  Name = 
  10 active torsions:
  status: ('A' for Active; 'I' for Inactive)
    1  A    between atoms: N_1  and  C_26
    2  A    between atoms: C_3  and  C_21
    3  A    between atoms: C_6  and  C_22
    4  A    between atoms: C_6  and  C_33
    5  A    between atoms: N_9  and  C_19
    6  A    between atoms: N_12  and  N_36
    7  A    between atoms: C_14  and  N_16
    8  A    between atoms: C_22  and  N_36
    9  A    between atoms: C_24  and  C_33
   10  A    between atoms: C_25  and  O_37
                            x       y       z     vdW  Elec       q    Type
                         _______ _______ _______ _____ _____    ______ ____

>  <TORSDO>
F 10

$$$$
=
 OpenBabel10232411073D

 39 42  0  0  1  0  0  0  0  0999 V2000
  184.8040  178.9390  146.3280 C   0  0  0  0  0  2  0  0  0  0  0  0
  188.4330  177.0520  145.9530 N   0  0  0  0  0  0  0  0  0  0  0  0
  185.9670  179.4740  147.1410 C   0  0  0  0  0  2  0  0  0  0  0  0
  186.4420  177.7800  144.7760 C   0  0  1  0  0  3  0  0  0  0  0  0
  187.3660  177.7960  145.9760 C   0  0  0  0  0  0  0  0  0  0  0  0
  185.2670  178.7730  144.8830 C   0  0  1  0  0  3  0  0  0  0  0  0
  187.0440  178.5450  147.1160 O   0  0  0  0  0  0  0  0  0  0  0  0
  190.7580  176.6420  146.6610 N   0  0  0  0  0  2  0  0  0  0  0  0
  189.4010  176.9260  147.0040 C   0  0  0  0  0  0  0  0  0  0  0  0
  189.0710  177.0610  148.2140 O   0  0  0  0  0  0  0  0  0  0  0  0
  191.8650  175.0390  148.0970 C   0  0  0  0  0  2  0  0  0  0  0  0
  192.8870  175.5920  147.1270 C   0  0  0  0  0  2  0  0  0  0  0  0
  191.7950  176.4900  147.6690 C   0  0  0  0  0  3  0  0  0  0  0  0
  187.8440  175.8460  143.2180 O   0  0  0  0  0  0  0  0  0  0  0  0
  187.1980  178.0610  143.5620 N   0  0  0  0  0  2  0  0  0  0  0  0
  187.9010  177.0480  142.8360 C   0  0  0  0  0  0  0  0  0  0  0  0
  188.6770  177.4120  141.6350 C   0  0  0  0  0  0  0  0  0  0  0  0
  189.9370  176.9720  141.5150 C   0  0  0  0  0  3  0  0  0  0  0  0
  188.0820  177.9250  139.2390 C   0  0  0  0  0  2  0  0  0  0  0  0
  188.0830  178.4080  140.6780 C   0  0  0  0  0  2  0  0  0  0  0  0
  189.4700  178.0850  138.6480 C   0  0  2  0  0  3  0  0  0  0  0  0
  189.3650  178.0930  137.1380 C   0  0  0  0  0  1  0  0  0  0  0  0
  190.3100  176.9730  139.0610 N   0  0  0  0  0  2  0  0  0  0  0  0
  190.7630  177.2120  140.3690 N   0  0  0  0  0  2  0  0  0  0  0  0
  184.4960  178.0720  142.6940 O   0  0  0  0  0  1  0  0  0  0  0  0
  184.0850  178.3370  144.0040 C   0  0  2  0  0  3  0  0  0  0  0  0
  182.9600  179.3720  143.9880 C   0  0  0  0  0  2  0  0  0  0  0  0
  181.6030  178.7310  143.7300 C   0  0  0  0  0  2  0  0  0  0  0  0
  181.0000  179.3150  142.5450 N   0  0  0  0  0  2  0  0  0  0  0  0
  183.6320  179.2250  139.2240 C   0  0  0  0  0  0  0  0  0  0  0  0
  183.5930  178.1630  138.1650 C   0  0  0  0  0  2  0  0  0  0  0  0
  180.9280  178.3000  141.5800 N   0  0  0  0  0  2  0  0  0  0  0  0
  182.5230  177.1380  138.4180 C   0  0  0  0  0  3  0  0  0  0  0  0
  181.6980  177.1800  139.4740 C   0  0  0  0  0  0  0  0  0  0  0  0
  181.8160  178.2720  140.4620 C   0  0  0  0  0  0  0  0  0  0  0  0
  182.7140  179.2010  140.3240 N   0  0  0  0  0  0  0  0  0  0  0  0
  184.4810  180.1490  139.1440 O   0  0  0  0  0  0  0  0  0  0  0  0
  180.6400  175.0140  138.8850 C   0  0  0  0  0  1  0  0  0  0  0  0
  180.7170  176.1990  139.6650 O   0  0  0  0  0  0  0  0  0  0  0  0
  1  3  1  0  0  0  0
  2  5  2  0  0  0  0
  2  9  1  0  0  0  0
  4 15  1  6  0  0  0
  4  6  1  0  0  0  0
  4  5  1  0  0  0  0
  5  7  1  0  0  0  0
  6 26  1  6  0  0  0
  6  1  1  0  0  0  0
  7  3  1  0  0  0  0
  8  9  1  0  0  0  0
  8 13  1  0  0  0  0
  9 10  2  0  0  0  0
 12 13  1  0  0  0  0
 12 11  1  0  0  0  0
 13 11  1  0  0  0  0
 16 14  2  0  0  0  0
 16 15  1  0  0  0  0
 17 16  1  0  0  0  0
 18 17  2  0  0  0  0
 19 20  1  0  0  0  0
 20 17  1  0  0  0  0
 21 22  1  6  0  0  0
 21 23  1  0  0  0  0
 21 19  1  0  0  0  0
 23 24  1  0  0  0  0
 24 18  1  0  0  0  0
 26 25  1  6  0  0  0
 27 26  1  0  0  0  0
 28 27  1  0  0  0  0
 29 28  1  0  0  0  0
 30 36  1  0  0  0  0
 31 33  1  0  0  0  0
 31 30  1  0  0  0  0
 32 29  1  0  0  0  0
 33 34  2  0  0  0  0
 34 39  1  0  0  0  0
 34 35  1  0  0  0  0
 35 32  1  0  0  0  0
 36 35  2  0  0  0  0
 37 30  2  0  0  0  0
 38 39  1  0  0  0  0
M  END
>  <MODEL>
2

>  <REMARK>
 VINA RESULT:      -7.6      4.162      7.942
  Name = 
  10 active torsions:
  status: ('A' for Active; 'I' for Inactive)
    1  A    between atoms: N_1  and  C_26
    2  A    between atoms: C_3  and  C_21
    3  A    between atoms: C_6  and  C_22
    4  A    between atoms: C_6  and  C_33
    5  A    between atoms: N_9  and  C_19
    6  A    between atoms: N_12  and  N_36
    7  A    between atoms: C_14  and  N_16
    8  A    between atoms: C_22  and  N_36
    9  A    between atoms: C_24  and  C_33
   10  A    between atoms: C_25  and  O_37
                            x       y       z     vdW  Elec       q    Type
                         _______ _______ _______ _____ _____    ______ ____

>  <TORSDO>
F 10

$$$$
=
 OpenBabel10232411073D

 39 42  0  0  1  0  0  0  0  0999 V2000
  189.7780  178.0400  137.9750 C   0  0  0  0  0  2  0  0  0  0  0  0
  186.0160  178.1350  139.6190 N   0  0  0  0  0  0  0  0  0  0  0  0
  188.8660  179.1880  137.5880 C   0  0  0  0  0  2  0  0  0  0  0  0
  188.3490  177.6160  140.0270 C   0  0  1  0  0  3  0  0  0  0  0  0
  187.2450  178.2570  139.2120 C   0  0  0  0  0  0  0  0  0  0  0  0
  189.7660  177.9120  139.4960 C   0  0  1  0  0  3  0  0  0  0  0  0
  187.5350  178.9110  138.0060 O   0  0  0  0  0  0  0  0  0  0  0  0
  184.0180  177.7580  138.2250 N   0  0  0  0  0  2  0  0  0  0  0  0
  184.8500  178.6530  138.9640 C   0  0  0  0  0  0  0  0  0  0  0  0
  184.5540  179.8780  139.0320 O   0  0  0  0  0  0  0  0  0  0  0  0
  181.8700  177.0440  137.3660 C   0  0  0  0  0  2  0  0  0  0  0  0
  181.6310  178.0770  138.4470 C   0  0  0  0  0  2  0  0  0  0  0  0
  182.8250  178.2090  137.5260 C   0  0  0  0  0  3  0  0  0  0  0  0
  188.6270  175.9270  142.3080 O   0  0  0  0  0  0  0  0  0  0  0  0
  188.2570  178.0500  141.4160 N   0  0  0  0  0  2  0  0  0  0  0  0
  188.3830  177.1470  142.5180 C   0  0  0  0  0  0  0  0  0  0  0  0
  188.2420  177.6520  143.8980 C   0  0  0  0  0  0  0  0  0  0  0  0
  187.0150  177.8830  144.3860 C   0  0  0  0  0  3  0  0  0  0  0  0
  189.5970  177.4100  146.0110 C   0  0  0  0  0  2  0  0  0  0  0  0
  189.4860  178.0530  144.6400 C   0  0  0  0  0  2  0  0  0  0  0  0
  188.6980  178.1420  146.9890 C   0  0  2  0  0  3  0  0  0  0  0  0
  189.1670  177.8550  148.4000 C   0  0  0  0  0  1  0  0  0  0  0  0
  187.3290  177.6760  146.8390 N   0  0  0  0  0  2  0  0  0  0  0  0
  186.7560  178.3150  145.7260 N   0  0  0  0  0  2  0  0  0  0  0  0
  191.6610  177.3240  140.8900 O   0  0  0  0  0  1  0  0  0  0  0  0
  190.7640  176.8310  139.9360 C   0  0  2  0  0  3  0  0  0  0  0  0
  191.5420  176.2450  138.7580 C   0  0  0  0  0  2  0  0  0  0  0  0
  192.9980  176.6920  138.7600 C   0  0  0  0  0  2  0  0  0  0  0  0
  193.5620  176.5390  137.4310 N   0  0  0  0  0  2  0  0  0  0  0  0
  197.2910  174.5250  137.3720 C   0  0  0  0  0  0  0  0  0  0  0  0
  197.4340  173.0560  137.1040 C   0  0  0  0  0  2  0  0  0  0  0  0
  193.6480  175.1620  137.1790 N   0  0  0  0  0  2  0  0  0  0  0  0
  196.1120  172.3830  136.8670 C   0  0  0  0  0  3  0  0  0  0  0  0
  194.9400  173.0340  136.8890 C   0  0  0  0  0  0  0  0  0  0  0  0
  194.9060  174.4860  137.1590 C   0  0  0  0  0  0  0  0  0  0  0  0
  196.0020  175.1490  137.3780 N   0  0  0  0  0  0  0  0  0  0  0  0
  198.3180  175.2180  137.5920 O   0  0  0  0  0  0  0  0  0  0  0  0
  193.2800  171.9950  135.3640 C   0  0  0  0  0  1  0  0  0  0  0  0
  193.7340  172.3610  136.6610 O   0  0  0  0  0  0  0  0  0  0  0  0
  1  6  1  0  0  0  0
  3  1  1  0  0  0  0
  3  7  1  0  0  0  0
  4 15  1  1  0  0  0
  5  2  2  0  0  0  0
  5  4  1  0  0  0  0
  6 26  1  6  0  0  0
  6  4  1  0  0  0  0
  7  5  1  0  0  0  0
  8  9  1  0  0  0  0
  9 10  2  0  0  0  0
  9  2  1  0  0  0  0
 11 13  1  0  0  0  0
 11 12  1  0  0  0  0
 13  8  1  0  0  0  0
 13 12  1  0  0  0  0
 14 16  2  0  0  0  0
 15 16  1  0  0  0  0
 16 17  1  0  0  0  0
 17 18  2  0  0  0  0
 17 20  1  0  0  0  0
 18 24  1  0  0  0  0
 19 21  1  0  0  0  0
 20 19  1  0  0  0  0
 21 22  1  1  0  0  0
 23 21  1  0  0  0  0
 24 23  1  0  0  0  0
 26 25  1  1  0  0  0
 27 28  1  0  0  0  0
 27 26  1  0  0  0  0
 29 28  1  0  0  0  0
 30 36  1  0  0  0  0
 30 37  2  0  0  0  0
 31 30  1  0  0  0  0
 32 29  1  0  0  0  0
 33 34  2  0  0  0  0
 33 31  1  0  0  0  0
 34 35  1  0  0  0  0
 35 32  1  0  0  0  0
 35 36  2  0  0  0  0
 38 39  1  0  0  0  0
 39 34  1  0  0  0  0
M  END
>  <MODEL>
3

>  <REMARK>
 VINA RESULT:      -7.5      2.346      9.001
  Name = 
  10 active torsions:
  status: ('A' for Active; 'I' for Inactive)
    1  A    between atoms: N_1  and  C_26
    2  A    between atoms: C_3  and  C_21
    3  A    between atoms: C_6  and  C_22
    4  A    between atoms: C_6  and  C_33
    5  A    between atoms: N_9  and  C_19
    6  A    between atoms: N_12  and  N_36
    7  A    between atoms: C_14  and  N_16
    8  A    between atoms: C_22  and  N_36
    9  A    between atoms: C_24  and  C_33
   10  A    between atoms: C_25  and  O_37
                            x       y       z     vdW  Elec       q    Type
                         _______ _______ _______ _____ _____    ______ ____

>  <TORSDO>
F 10

$$$$
=
 OpenBabel10232411073D

 39 42  0  0  1  0  0  0  0  0999 V2000
  182.5330  177.5220  139.6190 C   0  0  0  0  0  2  0  0  0  0  0  0
  184.5070  176.2790  136.2390 N   0  0  0  0  0  0  0  0  0  0  0  0
  182.2910  176.1040  139.1390 C   0  0  0  0  0  2  0  0  0  0  0  0
  184.6780  177.5960  138.2670 C   0  0  1  0  0  3  0  0  0  0  0  0
  184.0000  176.5520  137.4040 C   0  0  0  0  0  0  0  0  0  0  0  0
  184.0410  177.7600  139.6610 C   0  0  1  0  0  3  0  0  0  0  0  0
  182.8100  175.9410  137.8250 O   0  0  0  0  0  0  0  0  0  0  0  0
  184.3990  173.9760  135.3630 N   0  0  0  0  0  2  0  0  0  0  0  0
  183.9870  175.3410  135.2850 C   0  0  0  0  0  0  0  0  0  0  0  0
  183.1770  175.7060  134.3890 O   0  0  0  0  0  0  0  0  0  0  0  0
  183.9540  171.6120  135.0990 C   0  0  0  0  0  2  0  0  0  0  0  0
  182.6460  172.3600  134.9630 C   0  0  0  0  0  2  0  0  0  0  0  0
  183.9240  172.9700  134.4280 C   0  0  0  0  0  3  0  0  0  0  0  0
  186.8490  179.1350  137.2430 O   0  0  0  0  0  0  0  0  0  0  0  0
  186.0910  177.2710  138.4220 N   0  0  0  0  0  2  0  0  0  0  0  0
  187.1350  178.0740  137.8630 C   0  0  0  0  0  0  0  0  0  0  0  0
  188.5430  177.6630  138.0280 C   0  0  0  0  0  0  0  0  0  0  0  0
  188.9780  177.2980  139.2420 C   0  0  0  0  0  3  0  0  0  0  0  0
  190.2520  176.5800  136.5240 C   0  0  0  0  0  2  0  0  0  0  0  0
  189.4780  177.8400  136.8640 C   0  0  0  0  0  2  0  0  0  0  0  0
  191.3980  176.4080  137.5030 C   0  0  2  0  0  3  0  0  0  0  0  0
  192.4350  175.4880  136.8940 C   0  0  0  0  0  1  0  0  0  0  0  0
  190.9050  175.8180  138.7370 N   0  0  0  0  0  2  0  0  0  0  0  0
  190.3030  176.8260  139.5090 N   0  0  0  0  0  2  0  0  0  0  0  0
  184.4780  180.1080  139.2390 O   0  0  0  0  0  1  0  0  0  0  0  0
  184.3320  179.1500  140.2480 C   0  0  2  0  0  3  0  0  0  0  0  0
  185.5720  179.1540  141.1420 C   0  0  0  0  0  2  0  0  0  0  0  0
  185.2070  179.2610  142.6170 C   0  0  0  0  0  2  0  0  0  0  0  0
  185.3310  177.9600  143.2500 N   0  0  0  0  0  2  0  0  0  0  0  0
  187.6180  177.8730  146.8170 C   0  0  0  0  0  0  0  0  0  0  0  0
  189.0770  177.5280  146.8570 C   0  0  0  0  0  2  0  0  0  0  0  0
  186.6940  177.6280  143.2390 N   0  0  0  0  0  2  0  0  0  0  0  0
  189.6310  177.2130  145.4960 C   0  0  0  0  0  3  0  0  0  0  0  0
  188.8940  177.2450  144.3760 C   0  0  0  0  0  0  0  0  0  0  0  0
  187.4620  177.6000  144.4430 C   0  0  0  0  0  0  0  0  0  0  0  0
  186.8990  177.8850  145.5790 N   0  0  0  0  0  0  0  0  0  0  0  0
  187.0190  178.1560  147.8870 O   0  0  0  0  0  0  0  0  0  0  0  0
  190.1780  175.7450  142.8720 C   0  0  0  0  0  1  0  0  0  0  0  0
  189.4580  176.9430  143.1300 O   0  0  0  0  0  0  0  0  0  0  0  0
  1  6  1  0  0  0  0
  2  5  2  0  0  0  0
  3  1  1  0  0  0  0
  4 15  1  1  0  0  0
  4  6  1  0  0  0  0
  5  7  1  0  0  0  0
  5  4  1  0  0  0  0
  6 26  1  6  0  0  0
  7  3  1  0  0  0  0
  9  8  1  0  0  0  0
  9  2  1  0  0  0  0
 10  9  2  0  0  0  0
 12 11  1  0  0  0  0
 13 12  1  0  0  0  0
 13 11  1  0  0  0  0
 13  8  1  0  0  0  0
 14 16  2  0  0  0  0
 16 17  1  0  0  0  0
 16 15  1  0  0  0  0
 17 18  2  0  0  0  0
 18 24  1  0  0  0  0
 19 20  1  0  0  0  0
 19 21  1  0  0  0  0
 20 17  1  0  0  0  0
 21 22  1  6  0  0  0
 21 23  1  0  0  0  0
 23 24  1  0  0  0  0
 26 25  1  6  0  0  0
 26 27  1  0  0  0  0
 27 28  1  0  0  0  0
 28 29  1  0  0  0  0
 30 31  1  0  0  0  0
 30 37  2  0  0  0  0
 32 29  1  0  0  0  0
 32 35  1  0  0  0  0
 33 31  1  0  0  0  0
 34 35  1  0  0  0  0
 34 33  2  0  0  0  0
 35 36  2  0  0  0  0
 36 30  1  0  0  0  0
 38 39  1  0  0  0  0
 39 34  1  0  0  0  0
M  END
>  <MODEL>
4

>  <REMARK>
 VINA RESULT:      -7.4      2.980      8.059
  Name = 
  10 active torsions:
  status: ('A' for Active; 'I' for Inactive)
    1  A    between atoms: N_1  and  C_26
    2  A    between atoms: C_3  and  C_21
    3  A    between atoms: C_6  and  C_22
    4  A    between atoms: C_6  and  C_33
    5  A    between atoms: N_9  and  C_19
    6  A    between atoms: N_12  and  N_36
    7  A    between atoms: C_14  and  N_16
    8  A    between atoms: C_22  and  N_36
    9  A    between atoms: C_24  and  C_33
   10  A    between atoms: C_25  and  O_37
                            x       y       z     vdW  Elec       q    Type
                         _______ _______ _______ _____ _____    ______ ____

>  <TORSDO>
F 10

$$$$
=
 OpenBabel10232411073D

 39 42  0  0  1  0  0  0  0  0999 V2000
  181.3680  179.3220  142.4040 C   0  0  0  0  0  2  0  0  0  0  0  0
  181.9820  180.4380  138.5000 N   0  0  0  0  0  0  0  0  0  0  0  0
  180.1550  179.4360  141.5020 C   0  0  0  0  0  2  0  0  0  0  0  0
  182.8550  179.1480  140.3570 C   0  0  1  0  0  3  0  0  0  0  0  0
  181.7460  179.9100  139.6650 C   0  0  0  0  0  0  0  0  0  0  0  0
  182.4240  178.4890  141.6830 C   0  0  1  0  0  3  0  0  0  0  0  0
  180.5080  180.1020  140.2950 O   0  0  0  0  0  0  0  0  0  0  0  0
  181.1850  182.6320  137.7060 N   0  0  0  0  0  2  0  0  0  0  0  0
  181.0620  181.2090  137.7150 C   0  0  0  0  0  0  0  0  0  0  0  0
  180.1540  180.6510  137.0390 O   0  0  0  0  0  0  0  0  0  0  0  0
  180.6470  184.9330  137.1830 C   0  0  0  0  0  2  0  0  0  0  0  0
  181.0810  184.2440  135.9070 C   0  0  0  0  0  2  0  0  0  0  0  0
  180.2850  183.4820  136.9440 C   0  0  0  0  0  3  0  0  0  0  0  0
  185.2280  179.3910  138.7930 O   0  0  0  0  0  0  0  0  0  0  0  0
  183.3870  178.1250  139.4650 N   0  0  0  0  0  2  0  0  0  0  0  0
  184.5730  178.3170  138.6880 C   0  0  0  0  0  0  0  0  0  0  0  0
  185.0330  177.2510  137.7770 C   0  0  0  0  0  0  0  0  0  0  0  0
  186.2980  177.2720  137.3350 C   0  0  0  0  0  3  0  0  0  0  0  0
  184.4110  174.8310  137.4380 C   0  0  0  0  0  2  0  0  0  0  0  0
  184.0150  176.2830  137.2410 C   0  0  0  0  0  2  0  0  0  0  0  0
  185.4340  174.4370  136.3890 C   0  0  2  0  0  3  0  0  0  0  0  0
  185.4490  172.9290  136.2560 C   0  0  0  0  0  1  0  0  0  0  0  0
  186.7540  174.8920  136.7970 N   0  0  0  0  0  2  0  0  0  0  0  0
  186.8700  176.2600  136.4980 N   0  0  0  0  0  2  0  0  0  0  0  0
  183.2770  178.4320  143.9520 O   0  0  0  0  0  1  0  0  0  0  0  0
  183.6280  178.2580  142.6090 C   0  0  2  0  0  3  0  0  0  0  0  0
  184.8070  179.1670  142.2660 C   0  0  0  0  0  2  0  0  0  0  0  0
  186.1300  178.4120  142.2830 C   0  0  0  0  0  2  0  0  0  0  0  0
  186.3880  177.9000  143.6170 N   0  0  0  0  0  2  0  0  0  0  0  0
  188.4020  177.5140  147.3250 C   0  0  0  0  0  0  0  0  0  0  0  0
  189.8620  177.1910  147.4450 C   0  0  0  0  0  2  0  0  0  0  0  0
  187.7550  177.5930  143.6800 N   0  0  0  0  0  2  0  0  0  0  0  0
  190.5230  177.0150  146.1070 C   0  0  0  0  0  3  0  0  0  0  0  0
  189.8720  177.1400  144.9410 C   0  0  0  0  0  0  0  0  0  0  0  0
  188.4310  177.4640  144.9310 C   0  0  0  0  0  0  0  0  0  0  0  0
  187.7780  177.6320  146.0420 N   0  0  0  0  0  0  0  0  0  0  0  0
  187.7180  177.6860  148.3670 O   0  0  0  0  0  0  0  0  0  0  0  0
  190.4960  175.7520  142.9810 C   0  0  0  0  0  1  0  0  0  0  0  0
  190.5340  176.9660  143.7200 O   0  0  0  0  0  0  0  0  0  0  0  0
  2  5  2  0  0  0  0
  3  1  1  0  0  0  0
  4 15  1  6  0  0  0
  4  6  1  0  0  0  0
  5  7  1  0  0  0  0
  5  4  1  0  0  0  0
  6  1  1  0  0  0  0
  6 26  1  1  0  0  0
  7  3  1  0  0  0  0
  8  9  1  0  0  0  0
  9  2  1  0  0  0  0
 10  9  2  0  0  0  0
 12 13  1  0  0  0  0
 12 11  1  0  0  0  0
 13 11  1  0  0  0  0
 13  8  1  0  0  0  0
 16 14  2  0  0  0  0
 16 15  1  0  0  0  0
 17 16  1  0  0  0  0
 18 17  2  0  0  0  0
 20 19  1  0  0  0  0
 20 17  1  0  0  0  0
 21 22  1  1  0  0  0
 21 23  1  0  0  0  0
 21 19  1  0  0  0  0
 24 23  1  0  0  0  0
 24 18  1  0  0  0  0
 26 25  1  1  0  0  0
 27 28  1  0  0  0  0
 27 26  1  0  0  0  0
 28 29  1  0  0  0  0
 29 32  1  0  0  0  0
 30 31  1  0  0  0  0
 30 37  2  0  0  0  0
 32 35  1  0  0  0  0
 33 31  1  0  0  0  0
 34 33  2  0  0  0  0
 35 34  1  0  0  0  0
 35 36  2  0  0  0  0
 36 30  1  0  0  0  0
 38 39  1  0  0  0  0
 39 34  1  0  0  0  0
M  END
>  <MODEL>
5

>  <REMARK>
 VINA RESULT:      -7.4      4.702     10.511
  Name = 
  10 active torsions:
  status: ('A' for Active; 'I' for Inactive)
    1  A    between atoms: N_1  and  C_26
    2  A    between atoms: C_3  and  C_21
    3  A    between atoms: C_6  and  C_22
    4  A    between atoms: C_6  and  C_33
    5  A    between atoms: N_9  and  C_19
    6  A    between atoms: N_12  and  N_36
    7  A    between atoms: C_14  and  N_16
    8  A    between atoms: C_22  and  N_36
    9  A    between atoms: C_24  and  C_33
   10  A    between atoms: C_25  and  O_37
                            x       y       z     vdW  Elec       q    Type
                         _______ _______ _______ _____ _____    ______ ____

>  <TORSDO>
F 10

$$$$
=
 OpenBabel10232411073D

 39 42  0  0  1  0  0  0  0  0999 V2000
  189.6930  176.4970  136.3840 C   0  0  0  0  0  2  0  0  0  0  0  0
  193.4120  176.0920  138.0810 N   0  0  0  0  0  0  0  0  0  0  0  0
  190.2680  175.0990  136.5020 C   0  0  0  0  0  2  0  0  0  0  0  0
  191.3090  177.2960  138.1680 C   0  0  1  0  0  3  0  0  0  0  0  0
  192.1670  176.1380  137.7050 C   0  0  0  0  0  0  0  0  0  0  0  0
  189.8330  177.1880  137.7390 C   0  0  1  0  0  3  0  0  0  0  0  0
  191.6500  175.1690  136.8330 O   0  0  0  0  0  0  0  0  0  0  0  0
  195.4360  175.4360  136.8360 N   0  0  0  0  0  2  0  0  0  0  0  0
  194.3700  175.0880  137.7200 C   0  0  0  0  0  0  0  0  0  0  0  0
  194.2840  173.9130  138.1710 O   0  0  0  0  0  0  0  0  0  0  0  0
  197.6490  175.2120  135.8810 C   0  0  0  0  0  2  0  0  0  0  0  0
  197.6730  174.6330  137.2800 C   0  0  0  0  0  2  0  0  0  0  0  0
  196.4400  174.4720  136.4170 C   0  0  0  0  0  3  0  0  0  0  0  0
  189.6720  175.8770  140.0230 O   0  0  0  0  0  0  0  0  0  0  0  0
  191.3780  177.4170  139.6200 N   0  0  0  0  0  2  0  0  0  0  0  0
  190.5110  176.6920  140.4980 C   0  0  0  0  0  0  0  0  0  0  0  0
  190.6130  176.8920  141.9560 C   0  0  0  0  0  0  0  0  0  0  0  0
  191.4710  177.8050  142.4320 C   0  0  0  0  0  3  0  0  0  0  0  0
  189.0100  176.6400  143.8870 C   0  0  0  0  0  2  0  0  0  0  0  0
  189.8790  175.9390  142.8580 C   0  0  0  0  0  2  0  0  0  0  0  0
  189.8780  177.1500  145.0220 C   0  0  2  0  0  3  0  0  0  0  0  0
  189.0100  177.3810  146.2410 C   0  0  0  0  0  1  0  0  0  0  0  0
  190.5010  178.4050  144.6360 N   0  0  0  0  0  2  0  0  0  0  0  0
  191.6110  178.1250  143.8210 N   0  0  0  0  0  2  0  0  0  0  0  0
  189.0550  179.1270  138.9680 O   0  0  0  0  0  1  0  0  0  0  0  0
  189.1610  178.5690  137.6900 C   0  0  2  0  0  3  0  0  0  0  0  0
  187.7810  178.5200  137.0360 C   0  0  0  0  0  2  0  0  0  0  0  0
  186.7380  177.8990  137.9570 C   0  0  0  0  0  2  0  0  0  0  0  0
  185.8130  178.9210  138.4140 N   0  0  0  0  0  2  0  0  0  0  0  0
  182.0780  178.9060  140.4150 C   0  0  0  0  0  0  0  0  0  0  0  0
  181.9370  178.7860  141.9040 C   0  0  0  0  0  2  0  0  0  0  0  0
  185.7300  178.8030  139.8080 N   0  0  0  0  0  2  0  0  0  0  0  0
  183.2630  178.6670  142.6000 C   0  0  0  0  0  3  0  0  0  0  0  0
  184.4380  178.6730  141.9520 C   0  0  0  0  0  0  0  0  0  0  0  0
  184.4700  178.7990  140.4810 C   0  0  0  0  0  0  0  0  0  0  0  0
  183.3700  178.9050  139.7970 N   0  0  0  0  0  0  0  0  0  0  0  0
  181.0470  179.0100  139.7020 O   0  0  0  0  0  0  0  0  0  0  0  0
  185.7230  178.2560  144.0340 C   0  0  0  0  0  1  0  0  0  0  0  0
  185.6480  178.5590  142.6470 O   0  0  0  0  0  0  0  0  0  0  0  0
  1  3  1  0  0  0  0
  1  6  1  0  0  0  0
  3  7  1  0  0  0  0
  4 15  1  1  0  0  0
  5  2  2  0  0  0  0
  5  4  1  0  0  0  0
  6 26  1  6  0  0  0
  6  4  1  0  0  0  0
  7  5  1  0  0  0  0
  8  9  1  0  0  0  0
  9  2  1  0  0  0  0
  9 10  2  0  0  0  0
 11 13  1  0  0  0  0
 11 12  1  0  0  0  0
 13  8  1  0  0  0  0
 13 12  1  0  0  0  0
 14 16  2  0  0  0  0
 15 16  1  0  0  0  0
 16 17  1  0  0  0  0
 17 18  2  0  0  0  0
 17 20  1  0  0  0  0
 18 24  1  0  0  0  0
 19 21  1  0  0  0  0
 20 19  1  0  0  0  0
 21 22  1  1  0  0  0
 23 21  1  0  0  0  0
 24 23  1  0  0  0  0
 26 25  1  1  0  0  0
 27 26  1  0  0  0  0
 27 28  1  0  0  0  0
 28 29  1  0  0  0  0
 29 32  1  0  0  0  0
 30 31  1  0  0  0  0
 31 33  1  0  0  0  0
 32 35  1  0  0  0  0
 34 33  2  0  0  0  0
 34 39  1  0  0  0  0
 35 34  1  0  0  0  0
 36 30  1  0  0  0  0
 36 35  2  0  0  0  0
 37 30  2  0  0  0  0
 39 38  1  0  0  0  0
M  END
>  <MODEL>
6

>  <REMARK>
 VINA RESULT:      -7.3      1.525      2.414
  Name = 
  10 active torsions:
  status: ('A' for Active; 'I' for Inactive)
    1  A    between atoms: N_1  and  C_26
    2  A    between atoms: C_3  and  C_21
    3  A    between atoms: C_6  and  C_22
    4  A    between atoms: C_6  and  C_33
    5  A    between atoms: N_9  and  C_19
    6  A    between atoms: N_12  and  N_36
    7  A    between atoms: C_14  and  N_16
    8  A    between atoms: C_22  and  N_36
    9  A    between atoms: C_24  and  C_33
   10  A    between atoms: C_25  and  O_37
                            x       y       z     vdW  Elec       q    Type
                         _______ _______ _______ _____ _____    ______ ____

>  <TORSDO>
F 10

$$$$
=
 OpenBabel10232411073D

 39 42  0  0  1  0  0  0  0  0999 V2000
  182.9220  178.4560  142.1600 C   0  0  0  0  0  2  0  0  0  0  0  0
  182.9590  180.7000  138.7210 N   0  0  0  0  0  0  0  0  0  0  0  0
  181.7640  178.2910  141.1950 C   0  0  0  0  0  2  0  0  0  0  0  0
  184.3190  179.4480  140.2900 C   0  0  1  0  0  3  0  0  0  0  0  0
  182.9830  179.8380  139.6940 C   0  0  0  0  0  0  0  0  0  0  0  0
  184.2230  178.3500  141.3680 C   0  0  1  0  0  3  0  0  0  0  0  0
  181.7880  179.3320  140.2260 O   0  0  0  0  0  0  0  0  0  0  0  0
  181.5190  182.6010  138.0970 N   0  0  0  0  0  2  0  0  0  0  0  0
  181.7900  181.1990  138.0570 C   0  0  0  0  0  0  0  0  0  0  0  0
  181.0060  180.4220  137.4450 O   0  0  0  0  0  0  0  0  0  0  0  0
  180.5900  184.6580  137.2230 C   0  0  0  0  0  2  0  0  0  0  0  0
  180.7320  183.6770  136.0790 C   0  0  0  0  0  2  0  0  0  0  0  0
  180.3490  183.1810  137.4570 C   0  0  0  0  0  3  0  0  0  0  0  0
  183.8620  177.2450  138.5380 O   0  0  0  0  0  0  0  0  0  0  0  0
  185.2230  179.0060  139.2350 N   0  0  0  0  0  2  0  0  0  0  0  0
  184.9460  177.8760  138.4020 C   0  0  0  0  0  0  0  0  0  0  0  0
  185.9250  177.4630  137.3780 C   0  0  0  0  0  0  0  0  0  0  0  0
  186.7660  178.3770  136.8740 C   0  0  0  0  0  3  0  0  0  0  0  0
  187.1330  175.3120  136.8580 C   0  0  0  0  0  2  0  0  0  0  0  0
  185.8220  176.0750  136.8120 C   0  0  0  0  0  2  0  0  0  0  0  0
  188.0310  175.7770  135.7270 C   0  0  2  0  0  3  0  0  0  0  0  0
  189.0780  174.7170  135.4600 C   0  0  0  0  0  1  0  0  0  0  0  0
  188.6930  177.0150  136.1040 N   0  0  0  0  0  2  0  0  0  0  0  0
  187.7940  178.0800  135.9220 N   0  0  0  0  0  2  0  0  0  0  0  0
  185.1890  179.2830  143.3860 O   0  0  0  0  0  1  0  0  0  0  0  0
  185.4230  178.4020  142.3260 C   0  0  2  0  0  3  0  0  0  0  0  0
  186.7180  178.7890  141.6140 C   0  0  0  0  0  2  0  0  0  0  0  0
  187.9280  178.0860  142.2160 C   0  0  0  0  0  2  0  0  0  0  0  0
  187.4910  176.9980  143.0710 N   0  0  0  0  0  2  0  0  0  0  0  0
  186.6890  178.4240  146.9810 C   0  0  0  0  0  0  0  0  0  0  0  0
  187.6660  178.3260  148.1140 C   0  0  0  0  0  2  0  0  0  0  0  0
  188.4350  176.8830  144.1020 N   0  0  0  0  0  2  0  0  0  0  0  0
  188.9530  177.6640  147.7090 C   0  0  0  0  0  3  0  0  0  0  0  0
  189.1920  177.2180  146.4670 C   0  0  0  0  0  0  0  0  0  0  0  0
  188.1630  177.3640  145.4180 C   0  0  0  0  0  0  0  0  0  0  0  0
  187.0190  177.9230  145.6800 N   0  0  0  0  0  0  0  0  0  0  0  0
  185.5650  178.9540  147.1760 O   0  0  0  0  0  0  0  0  0  0  0  0
  191.5100  176.5370  147.0350 C   0  0  0  0  0  1  0  0  0  0  0  0
  190.4090  176.6070  146.1390 O   0  0  0  0  0  0  0  0  0  0  0  0
  2  5  2  0  0  0  0
  3  1  1  0  0  0  0
  4 15  1  6  0  0  0
  4  6  1  0  0  0  0
  5  7  1  0  0  0  0
  5  4  1  0  0  0  0
  6  1  1  0  0  0  0
  6 26  1  1  0  0  0
  7  3  1  0  0  0  0
  9  8  1  0  0  0  0
  9  2  1  0  0  0  0
 10  9  2  0  0  0  0
 11 13  1  0  0  0  0
 12 11  1  0  0  0  0
 12 13  1  0  0  0  0
 13  8  1  0  0  0  0
 16 14  2  0  0  0  0
 16 15  1  0  0  0  0
 17 16  1  0  0  0  0
 18 17  2  0  0  0  0
 20 19  1  0  0  0  0
 20 17  1  0  0  0  0
 21 22  1  1  0  0  0
 21 23  1  0  0  0  0
 21 19  1  0  0  0  0
 24 23  1  0  0  0  0
 24 18  1  0  0  0  0
 26 25  1  1  0  0  0
 27 28  1  0  0  0  0
 27 26  1  0  0  0  0
 28 29  1  0  0  0  0
 29 32  1  0  0  0  0
 30 37  2  0  0  0  0
 30 31  1  0  0  0  0
 32 35  1  0  0  0  0
 33 31  1  0  0  0  0
 34 33  2  0  0  0  0
 35 36  2  0  0  0  0
 35 34  1  0  0  0  0
 36 30  1  0  0  0  0
 39 34  1  0  0  0  0
 39 38  1  0  0  0  0
M  END
>  <MODEL>
7

>  <REMARK>
 VINA RESULT:      -7.3      4.111     10.123
  Name = 
  10 active torsions:
  status: ('A' for Active; 'I' for Inactive)
    1  A    between atoms: N_1  and  C_26
    2  A    between atoms: C_3  and  C_21
    3  A    between atoms: C_6  and  C_22
    4  A    between atoms: C_6  and  C_33
    5  A    between atoms: N_9  and  C_19
    6  A    between atoms: N_12  and  N_36
    7  A    between atoms: C_14  and  N_16
    8  A    between atoms: C_22  and  N_36
    9  A    between atoms: C_24  and  C_33
   10  A    between atoms: C_25  and  O_37
                            x       y       z     vdW  Elec       q    Type
                         _______ _______ _______ _____ _____    ______ ____

>  <TORSDO>
F 10

$$$$
=
 OpenBabel10232411073D

 39 42  0  0  1  0  0  0  0  0999 V2000
  189.7310  178.1590  137.7590 C   0  0  0  0  0  2  0  0  0  0  0  0
  186.0300  178.1860  139.5400 N   0  0  0  0  0  0  0  0  0  0  0  0
  188.7930  179.3020  137.4240 C   0  0  0  0  0  2  0  0  0  0  0  0
  188.3820  177.6870  139.8550 C   0  0  1  0  0  3  0  0  0  0  0  0
  187.2430  178.3270  139.0910 C   0  0  0  0  0  0  0  0  0  0  0  0
  189.7750  178.0070  139.2780 C   0  0  1  0  0  3  0  0  0  0  0  0
  187.4810  179.0040  137.8860 O   0  0  0  0  0  0  0  0  0  0  0  0
  184.0160  177.8200  138.1670 N   0  0  0  0  0  2  0  0  0  0  0  0
  184.8360  178.7010  138.9360 C   0  0  0  0  0  0  0  0  0  0  0  0
  184.5040  179.9100  139.0760 O   0  0  0  0  0  0  0  0  0  0  0  0
  182.5710  177.4550  136.2600 C   0  0  0  0  0  2  0  0  0  0  0  0
  181.7880  177.1410  137.5160 C   0  0  0  0  0  2  0  0  0  0  0  0
  182.7960  178.2700  137.5170 C   0  0  0  0  0  3  0  0  0  0  0  0
  188.6790  175.9510  142.0980 O   0  0  0  0  0  0  0  0  0  0  0  0
  188.3360  178.0980  141.2530 N   0  0  0  0  0  2  0  0  0  0  0  0
  188.4700  177.1720  142.3360 C   0  0  0  0  0  0  0  0  0  0  0  0
  188.3770  177.6550  143.7270 C   0  0  0  0  0  0  0  0  0  0  0  0
  187.1730  177.9510  144.2360 C   0  0  0  0  0  3  0  0  0  0  0  0
  189.7390  177.2850  145.8170 C   0  0  0  0  0  2  0  0  0  0  0  0
  189.6520  177.9630  144.4610 C   0  0  0  0  0  2  0  0  0  0  0  0
  188.8980  178.0500  146.8220 C   0  0  2  0  0  3  0  0  0  0  0  0
  189.3650  177.7050  148.2200 C   0  0  0  0  0  1  0  0  0  0  0  0
  187.5010  177.6730  146.6800 N   0  0  0  0  0  2  0  0  0  0  0  0
  186.9560  178.3690  145.5880 N   0  0  0  0  0  2  0  0  0  0  0  0
  191.7890  177.4470  140.5070 O   0  0  0  0  0  1  0  0  0  0  0  0
  190.8010  176.9300  139.6640 C   0  0  2  0  0  3  0  0  0  0  0  0
  191.4560  176.2880  138.4400 C   0  0  0  0  0  2  0  0  0  0  0  0
  192.9760  176.3700  138.5030 C   0  0  0  0  0  2  0  0  0  0  0  0
  193.5590  175.3020  137.7100 N   0  0  0  0  0  2  0  0  0  0  0  0
  196.0930  172.2550  136.2080 C   0  0  0  0  0  0  0  0  0  0  0  0
  197.5650  172.1890  136.4900 C   0  0  0  0  0  2  0  0  0  0  0  0
  194.9320  175.2830  137.9970 N   0  0  0  0  0  2  0  0  0  0  0  0
  198.0370  173.3230  137.3550 C   0  0  0  0  0  3  0  0  0  0  0  0
  197.2220  174.2800  137.8230 C   0  0  0  0  0  0  0  0  0  0  0  0
  195.7830  174.2540  137.4900 C   0  0  0  0  0  0  0  0  0  0  0  0
  195.2890  173.3110  136.7450 N   0  0  0  0  0  0  0  0  0  0  0  0
  195.5590  171.3700  135.4920 O   0  0  0  0  0  0  0  0  0  0  0  0
  198.7360  175.1340  139.5950 C   0  0  0  0  0  1  0  0  0  0  0  0
  197.7110  175.3170  138.6270 O   0  0  0  0  0  0  0  0  0  0  0  0
  1  6  1  0  0  0  0
  3  1  1  0  0  0  0
  3  7  1  0  0  0  0
  4 15  1  1  0  0  0
  5  2  2  0  0  0  0
  5  4  1  0  0  0  0
  6 26  1  6  0  0  0
  6  4  1  0  0  0  0
  7  5  1  0  0  0  0
  8  9  1  0  0  0  0
  9 10  2  0  0  0  0
  9  2  1  0  0  0  0
 11 12  1  0  0  0  0
 11 13  1  0  0  0  0
 12 13  1  0  0  0  0
 13  8  1  0  0  0  0
 14 16  2  0  0  0  0
 15 16  1  0  0  0  0
 16 17  1  0  0  0  0
 17 18  2  0  0  0  0
 17 20  1  0  0  0  0
 18 24  1  0  0  0  0
 19 21  1  0  0  0  0
 20 19  1  0  0  0  0
 21 22  1  1  0  0  0
 23 21  1  0  0  0  0
 24 23  1  0  0  0  0
 26 25  1  1  0  0  0
 27 28  1  0  0  0  0
 27 26  1  0  0  0  0
 29 32  1  0  0  0  0
 29 28  1  0  0  0  0
 30 31  1  0  0  0  0
 30 36  1  0  0  0  0
 31 33  1  0  0  0  0
 33 34  2  0  0  0  0
 34 39  1  0  0  0  0
 35 34  1  0  0  0  0
 35 32  1  0  0  0  0
 36 35  2  0  0  0  0
 37 30  2  0  0  0  0
 39 38  1  0  0  0  0
M  END
>  <MODEL>
8

>  <REMARK>
 VINA RESULT:      -7.3      2.459      9.458
  Name = 
  10 active torsions:
  status: ('A' for Active; 'I' for Inactive)
    1  A    between atoms: N_1  and  C_26
    2  A    between atoms: C_3  and  C_21
    3  A    between atoms: C_6  and  C_22
    4  A    between atoms: C_6  and  C_33
    5  A    between atoms: N_9  and  C_19
    6  A    between atoms: N_12  and  N_36
    7  A    between atoms: C_14  and  N_16
    8  A    between atoms: C_22  and  N_36
    9  A    between atoms: C_24  and  C_33
   10  A    between atoms: C_25  and  O_37
                            x       y       z     vdW  Elec       q    Type
                         _______ _______ _______ _____ _____    ______ ____

>  <TORSDO>
F 10

$$$$
=
 OpenBabel10232411073D

 39 42  0  0  1  0  0  0  0  0999 V2000
  186.6230  178.9630  141.9950 C   0  0  0  0  0  2  0  0  0  0  0  0
  184.0860  179.3770  138.7920 N   0  0  0  0  0  0  0  0  0  0  0  0
  185.1550  178.6490  142.2100 C   0  0  0  0  0  2  0  0  0  0  0  0
  186.3010  178.6840  139.4950 C   0  0  1  0  0  3  0  0  0  0  0  0
  184.8620  179.0550  139.7850 C   0  0  0  0  0  0  0  0  0  0  0  0
  187.0900  178.2300  140.7390 C   0  0  1  0  0  3  0  0  0  0  0  0
  184.3920  179.1170  141.1050 O   0  0  0  0  0  0  0  0  0  0  0  0
  182.3460  181.0930  138.4720 N   0  0  0  0  0  2  0  0  0  0  0  0
  182.7110  179.7750  138.8840 C   0  0  0  0  0  0  0  0  0  0  0  0
  181.8310  178.9840  139.3190 O   0  0  0  0  0  0  0  0  0  0  0  0
  180.8860  182.9280  137.8720 C   0  0  0  0  0  2  0  0  0  0  0  0
  180.4160  181.6880  137.1420 C   0  0  0  0  0  2  0  0  0  0  0  0
  180.9760  181.5730  138.5440 C   0  0  0  0  0  3  0  0  0  0  0  0
  187.0890  179.0340  136.7770 O   0  0  0  0  0  0  0  0  0  0  0  0
  186.3490  177.6310  138.4870 N   0  0  0  0  0  2  0  0  0  0  0  0
  186.7320  177.8760  137.1310 C   0  0  0  0  0  0  0  0  0  0  0  0
  186.7220  176.7680  136.1560 C   0  0  0  0  0  0  0  0  0  0  0  0
  187.8860  176.3190  135.6670 C   0  0  0  0  0  3  0  0  0  0  0  0
  185.1960  174.8060  135.7310 C   0  0  0  0  0  2  0  0  0  0  0  0
  185.3970  176.3060  135.6160 C   0  0  0  0  0  2  0  0  0  0  0  0
  185.9650  174.1040  134.6280 C   0  0  2  0  0  3  0  0  0  0  0  0
  185.3860  172.7200  134.4260 C   0  0  0  0  0  1  0  0  0  0  0  0
  187.3640  173.9850  135.0040 N   0  0  0  0  0  2  0  0  0  0  0  0
  188.0020  175.2140  134.7640 N   0  0  0  0  0  2  0  0  0  0  0  0
  188.8730  179.1630  139.3860 O   0  0  0  0  0  1  0  0  0  0  0  0
  188.6010  178.4340  140.5490 C   0  0  2  0  0  3  0  0  0  0  0  0
  189.3650  177.1110  140.5150 C   0  0  0  0  0  2  0  0  0  0  0  0
  189.9400  176.7530  141.8790 C   0  0  0  0  0  2  0  0  0  0  0  0
  190.1730  177.9630  142.6480 N   0  0  0  0  0  2  0  0  0  0  0  0
  187.6970  177.7020  146.0780 C   0  0  0  0  0  0  0  0  0  0  0  0
  188.1960  177.2850  147.4290 C   0  0  0  0  0  2  0  0  0  0  0  0
  190.6830  177.5650  143.8920 N   0  0  0  0  0  2  0  0  0  0  0  0
  189.6650  176.9670  147.4270 C   0  0  0  0  0  3  0  0  0  0  0  0
  190.4350  177.0540  146.3330 C   0  0  0  0  0  0  0  0  0  0  0  0
  189.8470  177.4780  145.0460 C   0  0  0  0  0  0  0  0  0  0  0  0
  188.5840  177.7710  144.9560 N   0  0  0  0  0  0  0  0  0  0  0  0
  186.4830  177.9950  145.9290 O   0  0  0  0  0  0  0  0  0  0  0  0
  192.3480  175.7790  147.2690 C   0  0  0  0  0  1  0  0  0  0  0  0
  191.8010  176.7460  146.3830 O   0  0  0  0  0  0  0  0  0  0  0  0
  1  3  1  0  0  0  0
  2  9  1  0  0  0  0
  2  5  2  0  0  0  0
  4 15  1  6  0  0  0
  4  5  1  0  0  0  0
  4  6  1  0  0  0  0
  5  7  1  0  0  0  0
  6 26  1  6  0  0  0
  6  1  1  0  0  0  0
  7  3  1  0  0  0  0
  8 13  1  0  0  0  0
  8  9  1  0  0  0  0
  9 10  2  0  0  0  0
 11 13  1  0  0  0  0
 12 11  1  0  0  0  0
 12 13  1  0  0  0  0
 14 16  2  0  0  0  0
 16 15  1  0  0  0  0
 17 16  1  0  0  0  0
 18 17  2  0  0  0  0
 20 19  1  0  0  0  0
 20 17  1  0  0  0  0
 21 22  1  1  0  0  0
 21 23  1  0  0  0  0
 21 19  1  0  0  0  0
 24 23  1  0  0  0  0
 24 18  1  0  0  0  0
 26 25  1  6  0  0  0
 27 26  1  0  0  0  0
 27 28  1  0  0  0  0
 28 29  1  0  0  0  0
 29 32  1  0  0  0  0
 30 31  1  0  0  0  0
 32 35  1  0  0  0  0
 33 31  1  0  0  0  0
 34 39  1  0  0  0  0
 34 33  2  0  0  0  0
 35 34  1  0  0  0  0
 36 35  2  0  0  0  0
 36 30  1  0  0  0  0
 37 30  2  0  0  0  0
 39 38  1  0  0  0  0
M  END
>  <MODEL>
9

>  <REMARK>
 VINA RESULT:      -7.2      4.032      9.745
  Name = 
  10 active torsions:
  status: ('A' for Active; 'I' for Inactive)
    1  A    between atoms: N_1  and  C_26
    2  A    between atoms: C_3  and  C_21
    3  A    between atoms: C_6  and  C_22
    4  A    between atoms: C_6  and  C_33
    5  A    between atoms: N_9  and  C_19
    6  A    between atoms: N_12  and  N_36
    7  A    between atoms: C_14  and  N_16
    8  A    between atoms: C_22  and  N_36
    9  A    between atoms: C_24  and  C_33
   10  A    between atoms: C_25  and  O_37
                            x       y       z     vdW  Elec       q    Type
                         _______ _______ _______ _____ _____    ______ ____

>  <TORSDO>
F 10

$$$$
