=
 OpenBabel10232411343D

 48 54  0  0  1  0  0  0  0  0999 V2000
  188.5280  178.4050  137.0830 C   0  0  0  0  0  0  0  0  0  0  0  0
  189.2190  178.7040  136.0760 O   0  0  0  0  0  0  0  0  0  0  0  0
  186.2930  178.0430  138.1270 C   0  0  0  0  0  0  0  0  0  0  0  0
  187.1760  177.7670  136.9240 C   0  0  2  0  0  3  0  0  0  0  0  0
  188.2620  178.5140  139.4600 N   0  0  0  0  0  0  0  0  0  0  0  0
  186.5020  174.2280  135.6670 C   0  0  0  0  0  3  0  0  0  0  0  0
  184.1760  178.0100  136.7140 C   0  0  0  0  0  2  0  0  0  0  0  0
  184.1560  176.1160  135.0650 C   0  0  0  0  0  2  0  0  0  0  0  0
  186.8480  178.2750  139.3350 C   0  0  1  0  0  3  0  0  0  0  0  0
  189.0560  178.6080  138.4350 C   0  0  0  0  0  3  0  0  0  0  0  0
  184.8660  178.0070  138.0000 N   0  0  0  0  0  0  0  0  0  0  0  0
  182.0010  176.9410  136.1480 C   0  0  2  0  0  3  0  0  0  0  0  0
  181.2580  175.7720  138.0640 C   0  0  0  0  0  2  0  0  0  0  0  0
  188.2330  174.1170  137.3490 C   0  0  0  0  0  3  0  0  0  0  0  0
  183.5180  176.6590  136.3530 C   0  0  2  0  0  0  0  0  0  0  0  0
  187.3930  173.4770  136.4390 C   0  0  0  0  0  3  0  0  0  0  0  0
  181.1740  175.8310  136.6080 N   0  0  0  0  0  2  0  0  0  0  0  0
  187.3010  176.2750  136.7060 C   0  0  0  0  0  0  0  0  0  0  0  0
  183.7140  175.5800  137.4490 C   0  0  0  0  0  2  0  0  0  0  0  0
  185.5580  176.3680  135.0280 O   0  0  0  0  0  0  0  0  0  0  0  0
  186.4560  175.6220  135.7930 C   0  0  0  0  0  0  0  0  0  0  0  0
  182.6940  175.7100  138.5790 C   0  0  0  0  0  2  0  0  0  0  0  0
  188.1800  175.5050  137.4880 C   0  0  0  0  0  3  0  0  0  0  0  0
  181.5910  177.3590  134.7360 C   0  0  1  0  0  3  0  0  0  0  0  0
  180.1980  177.1800  134.5810 O   0  0  0  0  0  0  0  0  0  0  0  0
  180.6450  178.5150  134.6540 C   0  0  1  0  0  3  0  0  0  0  0  0
  180.2980  179.0730  135.9510 N   0  0  0  0  0  2  0  0  0  0  0  0
  181.6600  180.5920  138.1780 C   0  0  0  0  0  1  0  0  0  0  0  0
  179.9820  183.0510  138.2490 C   0  0  0  0  0  1  0  0  0  0  0  0
  180.7230  183.9870  135.2790 C   0  0  0  0  0  1  0  0  0  0  0  0
  180.0100  182.8070  135.9200 C   0  0  2  0  0  3  0  0  0  0  0  0
  180.7070  182.4220  137.1490 N   0  0  0  0  0  0  0  0  0  0  0  0
  179.9820  181.4270  134.7560 S   0  0  0  0  0  0  0  0  0  0  0  0
  180.5740  181.0290  137.3030 N   0  0  0  0  0  0  0  0  0  0  0  0
  180.8250  180.4320  135.9950 C   0  0  1  0  0  3  0  0  0  0  0  0
  185.9970  178.3650  140.5600 C   0  0  0  0  0  2  0  0  0  0  0  0
  186.8390  178.6220  141.7800 C   0  0  0  0  0  2  0  0  0  0  0  0
  186.2920  177.9560  142.8790 O   0  0  0  0  0  0  0  0  0  0  0  0
  187.2850  178.0000  143.8630 C   0  0  1  0  0  3  0  0  0  0  0  0
  186.6600  177.9210  145.1890 C   0  0  0  0  0  0  0  0  0  0  0  0
  186.1480  177.8550  146.2750 C   0  0  0  0  0  3  0  0  0  0  0  0
  188.3070  176.8940  143.7000 C   0  0  0  0  0  0  0  0  0  0  0  0
  187.9170  175.7900  143.3490 O   0  0  0  0  0  0  0  0  0  0  0  0
  190.6120  176.0090  143.3180 C   0  0  0  0  0  2  0  0  0  0  0  0
  190.3210  178.3190  143.3680 C   0  0  0  0  0  2  0  0  0  0  0  0
  189.7780  177.0630  143.9690 C   0  0  1  0  0  3  0  0  0  0  0  0
  191.5930  178.0150  142.8610 O   0  0  0  0  0  0  0  0  0  0  0  0
  191.5360  176.7200  142.4470 N   0  0  0  0  0  2  0  0  0  0  0  0
  1 10  1  0  0  0  0
  2  1  2  0  0  0  0
  3  9  1  0  0  0  0
  4 18  1  1  0  0  0
  4  1  1  0  0  0  0
  4  3  1  0  0  0  0
  6 21  2  0  0  0  0
  6 16  1  0  0  0  0
  7 11  1  0  0  0  0
  9  5  1  0  0  0  0
  9 36  1  6  0  0  0
 10  5  2  0  0  0  0
 11  3  2  0  0  0  0
 12 15  1  0  0  0  0
 12 17  1  6  0  0  0
 13 22  1  0  0  0  0
 14 23  1  0  0  0  0
 15  8  1  6  0  0  0
 15  7  1  0  0  0  0
 15 19  1  0  0  0  0
 16 14  2  0  0  0  0
 17 13  1  0  0  0  0
 18 23  2  0  0  0  0
 19 22  1  0  0  0  0
 20  8  1  0  0  0  0
 20 21  1  0  0  0  0
 21 18  1  0  0  0  0
 24 25  1  1  0  0  0
 24 12  1  0  0  0  0
 25 26  1  0  0  0  0
 26 24  1  0  0  0  0
 26 27  1  1  0  0  0
 31 30  1  6  0  0  0
 31 32  1  0  0  0  0
 32 34  1  0  0  0  0
 32 29  1  0  0  0  0
 33 31  1  0  0  0  0
 33 35  1  0  0  0  0
 34 28  1  0  0  0  0
 35 27  1  1  0  0  0
 35 34  1  0  0  0  0
 36 37  1  0  0  0  0
 37 38  1  0  0  0  0
 38 39  1  0  0  0  0
 39 40  1  1  0  0  0
 40 41  3  0  0  0  0
 42 39  1  0  0  0  0
 43 42  2  0  0  0  0
 44 46  1  0  0  0  0
 45 46  1  0  0  0  0
 46 42  1  6  0  0  0
 47 45  1  0  0  0  0
 48 47  1  0  0  0  0
 48 44  1  0  0  0  0
M  END
>  <MODEL>
1

>  <REMARK>
 VINA RESULT:      -6.8      0.000      0.000
  Name = 
  10 active torsions:
  status: ('A' for Active; 'I' for Inactive)
    1  A    between atoms: C_3  and  C_42
    2  A    between atoms: C_5  and  C_9
    3  A    between atoms: C_5  and  C_42
    4  A    between atoms: N_6  and  C_44
    5  A    between atoms: N_6  and  C_45
    6  A    between atoms: C_21  and  C_48
    7  A    between atoms: C_22  and  C_25
    8  A    between atoms: C_31  and  O_38
    9  A    between atoms: C_31  and  C_48
   10  A    between atoms: O_38  and  C_42
                            x       y       z     vdW  Elec       q    Type
                         _______ _______ _______ _____ _____    ______ ____

>  <TORSDO>
F 10

$$$$
=
 OpenBabel10232411343D

 48 54  0  0  1  0  0  0  0  0999 V2000
  181.5960  176.4140  139.0230 C   0  0  0  0  0  0  0  0  0  0  0  0
  180.7620  175.4780  138.9370 O   0  0  0  0  0  0  0  0  0  0  0  0
  183.9130  177.2700  138.6810 C   0  0  0  0  0  0  0  0  0  0  0  0
  182.7570  176.4990  138.0720 C   0  0  2  0  0  3  0  0  0  0  0  0
  182.3850  178.3150  140.2460 N   0  0  0  0  0  0  0  0  0  0  0  0
  182.5480  177.3010  134.3470 C   0  0  0  0  0  3  0  0  0  0  0  0
  185.6380  175.9060  137.4000 C   0  0  0  0  0  2  0  0  0  0  0  0
  184.9870  175.5520  135.0000 C   0  0  0  0  0  2  0  0  0  0  0  0
  183.6790  178.2050  139.6250 C   0  0  1  0  0  3  0  0  0  0  0  0
  181.4150  177.4840  140.0080 C   0  0  0  0  0  3  0  0  0  0  0  0
  185.2530  177.0470  138.2230 N   0  0  0  0  0  0  0  0  0  0  0  0
  187.4310  175.8040  135.6770 C   0  0  2  0  0  3  0  0  0  0  0  0
  188.3690  177.9670  135.4920 C   0  0  0  0  0  2  0  0  0  0  0  0
  181.2290  178.9300  135.5480 C   0  0  0  0  0  3  0  0  0  0  0  0
  185.9700  176.2730  135.9360 C   0  0  2  0  0  0  0  0  0  0  0  0
  181.7340  178.4370  134.3460 C   0  0  0  0  0  3  0  0  0  0  0  0
  188.1430  176.7110  134.7830 N   0  0  0  0  0  2  0  0  0  0  0  0
  182.3430  177.1360  136.7630 C   0  0  0  0  0  0  0  0  0  0  0  0
  185.8410  177.7910  135.6500 C   0  0  0  0  0  2  0  0  0  0  0  0
  183.6720  175.5190  135.5470 O   0  0  0  0  0  0  0  0  0  0  0  0
  182.8500  176.6470  135.5480 C   0  0  0  0  0  0  0  0  0  0  0  0
  187.0880  178.5680  136.0680 C   0  0  0  0  0  2  0  0  0  0  0  0
  181.5400  178.2900  136.7490 C   0  0  0  0  0  3  0  0  0  0  0  0
  187.5880  174.3600  135.2030 C   0  0  1  0  0  3  0  0  0  0  0  0
  188.8410  174.2090  134.5680 O   0  0  0  0  0  0  0  0  0  0  0  0
  188.7100  173.5930  135.8290 C   0  0  1  0  0  3  0  0  0  0  0  0
  189.4510  174.3560  136.8220 N   0  0  0  0  0  2  0  0  0  0  0  0
  191.5950  172.4990  135.7840 C   0  0  0  0  0  1  0  0  0  0  0  0
  193.9320  173.4500  137.3640 C   0  0  0  0  0  1  0  0  0  0  0  0
  193.9350  176.4000  136.1220 C   0  0  0  0  0  1  0  0  0  0  0  0
  192.9940  175.5590  136.9700 C   0  0  2  0  0  3  0  0  0  0  0  0
  193.0110  174.1740  136.4940 N   0  0  0  0  0  0  0  0  0  0  0  0
  191.3260  176.2400  136.8590 S   0  0  0  0  0  0  0  0  0  0  0  0
  191.7280  173.6310  136.6990 N   0  0  0  0  0  0  0  0  0  0  0  0
  190.7670  174.6380  136.2610 C   0  0  1  0  0  3  0  0  0  0  0  0
  184.7780  179.0990  140.1010 C   0  0  0  0  0  2  0  0  0  0  0  0
  184.8230  179.1390  141.6040 C   0  0  0  0  0  2  0  0  0  0  0  0
  186.1460  179.2800  142.0320 O   0  0  0  0  0  0  0  0  0  0  0  0
  186.5300  178.0040  142.4560 C   0  0  1  0  0  3  0  0  0  0  0  0
  187.8420  177.6770  141.8870 C   0  0  0  0  0  0  0  0  0  0  0  0
  188.9190  177.4100  141.4210 C   0  0  0  0  0  3  0  0  0  0  0  0
  186.5710  177.8870  143.9660 C   0  0  0  0  0  0  0  0  0  0  0  0
  187.1000  176.9020  144.4580 O   0  0  0  0  0  0  0  0  0  0  0  0
  184.4920  179.0270  144.7570 C   0  0  0  0  0  2  0  0  0  0  0  0
  186.1220  178.5060  146.3350 C   0  0  0  0  0  2  0  0  0  0  0  0
  185.9730  178.9020  144.9020 C   0  0  1  0  0  3  0  0  0  0  0  0
  184.9330  178.8620  146.9860 O   0  0  0  0  0  0  0  0  0  0  0  0
  183.9390  178.7200  146.0670 N   0  0  0  0  0  2  0  0  0  0  0  0
  1 10  1  0  0  0  0
  2  1  2  0  0  0  0
  3  9  1  0  0  0  0
  4 18  1  6  0  0  0
  4  3  1  0  0  0  0
  4  1  1  0  0  0  0
  6 21  1  0  0  0  0
  7 11  1  0  0  0  0
  8 20  1  0  0  0  0
  9 36  1  1  0  0  0
  9  5  1  0  0  0  0
 10  5  2  0  0  0  0
 11  3  2  0  0  0  0
 12 17  1  6  0  0  0
 12 15  1  0  0  0  0
 13 22  1  0  0  0  0
 14 23  2  0  0  0  0
 15  8  1  6  0  0  0
 15  7  1  0  0  0  0
 16  6  2  0  0  0  0
 16 14  1  0  0  0  0
 17 13  1  0  0  0  0
 19 15  1  0  0  0  0
 19 22  1  0  0  0  0
 20 21  1  0  0  0  0
 21 18  2  0  0  0  0
 23 18  1  0  0  0  0
 24 25  1  6  0  0  0
 24 12  1  0  0  0  0
 24 26  1  0  0  0  0
 25 26  1  0  0  0  0
 26 27  1  1  0  0  0
 28 34  1  0  0  0  0
 31 30  1  6  0  0  0
 32 34  1  0  0  0  0
 32 31  1  0  0  0  0
 32 29  1  0  0  0  0
 33 31  1  0  0  0  0
 35 34  1  0  0  0  0
 35 27  1  1  0  0  0
 35 33  1  0  0  0  0
 36 37  1  0  0  0  0
 37 38  1  0  0  0  0
 38 39  1  0  0  0  0
 39 40  1  6  0  0  0
 39 42  1  0  0  0  0
 41 40  3  0  0  0  0
 42 43  2  0  0  0  0
 44 46  1  0  0  0  0
 44 48  1  0  0  0  0
 45 47  1  0  0  0  0
 46 42  1  6  0  0  0
 46 45  1  0  0  0  0
 48 47  1  0  0  0  0
M  END
>  <MODEL>
2

>  <REMARK>
 VINA RESULT:      -5.8      3.590      7.871
  Name = 
  10 active torsions:
  status: ('A' for Active; 'I' for Inactive)
    1  A    between atoms: C_3  and  C_42
    2  A    between atoms: C_5  and  C_9
    3  A    between atoms: C_5  and  C_42
    4  A    between atoms: N_6  and  C_44
    5  A    between atoms: N_6  and  C_45
    6  A    between atoms: C_21  and  C_48
    7  A    between atoms: C_22  and  C_25
    8  A    between atoms: C_31  and  O_38
    9  A    between atoms: C_31  and  C_48
   10  A    between atoms: O_38  and  C_42
                            x       y       z     vdW  Elec       q    Type
                         _______ _______ _______ _____ _____    ______ ____

>  <TORSDO>
F 10

$$$$
=
 OpenBabel10232411343D

 48 54  0  0  1  0  0  0  0  0999 V2000
  181.6020  176.6480  139.1920 C   0  0  0  0  0  0  0  0  0  0  0  0
  180.7220  175.7510  139.2110 O   0  0  0  0  0  0  0  0  0  0  0  0
  183.9250  177.3700  138.6470 C   0  0  0  0  0  0  0  0  0  0  0  0
  182.6930  176.6310  138.1590 C   0  0  2  0  0  3  0  0  0  0  0  0
  182.5660  178.5610  140.2630 N   0  0  0  0  0  0  0  0  0  0  0  0
  182.2510  177.2730  134.4230 C   0  0  0  0  0  3  0  0  0  0  0  0
  185.4870  175.8650  137.3150 C   0  0  0  0  0  2  0  0  0  0  0  0
  184.6480  175.4360  134.9870 C   0  0  0  0  0  2  0  0  0  0  0  0
  183.8050  178.3580  139.5580 C   0  0  1  0  0  3  0  0  0  0  0  0
  181.5430  177.7690  140.1340 C   0  0  0  0  0  3  0  0  0  0  0  0
  185.2160  177.0600  138.1070 N   0  0  0  0  0  0  0  0  0  0  0  0
  187.1430  175.5960  135.4770 C   0  0  2  0  0  3  0  0  0  0  0  0
  188.1650  177.6990  135.1210 C   0  0  0  0  0  2  0  0  0  0  0  0
  181.1000  179.0190  135.6330 C   0  0  0  0  0  3  0  0  0  0  0  0
  185.7280  176.1480  135.8150 C   0  0  2  0  0  0  0  0  0  0  0  0
  181.4930  178.4470  134.4240 C   0  0  0  0  0  3  0  0  0  0  0  0
  187.8300  176.4250  134.4920 N   0  0  0  0  0  2  0  0  0  0  0  0
  182.2150  177.2290  136.8530 C   0  0  0  0  0  0  0  0  0  0  0  0
  185.6490  177.6560  135.4660 C   0  0  0  0  0  2  0  0  0  0  0  0
  183.3750  175.4930  135.6270 O   0  0  0  0  0  0  0  0  0  0  0  0
  182.6100  176.6590  135.6310 C   0  0  0  0  0  0  0  0  0  0  0  0
  186.9590  178.3880  135.7560 C   0  0  0  0  0  2  0  0  0  0  0  0
  181.4680  178.4190  136.8390 C   0  0  0  0  0  3  0  0  0  0  0  0
  187.1980  174.1260  135.0650 C   0  0  1  0  0  3  0  0  0  0  0  0
  188.3910  173.8860  134.3460 O   0  0  0  0  0  0  0  0  0  0  0  0
  188.3290  173.3350  135.6420 C   0  0  1  0  0  3  0  0  0  0  0  0
  189.1770  174.1050  136.5380 N   0  0  0  0  0  2  0  0  0  0  0  0
  191.2180  172.1750  135.4270 C   0  0  0  0  0  1  0  0  0  0  0  0
  193.6890  173.2050  136.7310 C   0  0  0  0  0  1  0  0  0  0  0  0
  193.5830  176.0740  135.3160 C   0  0  0  0  0  1  0  0  0  0  0  0
  192.7210  175.2920  136.2940 C   0  0  2  0  0  3  0  0  0  0  0  0
  192.6930  173.8810  135.9040 N   0  0  0  0  0  0  0  0  0  0  0  0
  191.0500  175.9760  136.2920 S   0  0  0  0  0  0  0  0  0  0  0  0
  191.4340  173.3590  136.2560 N   0  0  0  0  0  0  0  0  0  0  0  0
  190.4380  174.3440  135.8460 C   0  0  1  0  0  3  0  0  0  0  0  0
  184.9760  179.2170  139.9110 C   0  0  0  0  0  2  0  0  0  0  0  0
  185.6570  178.7110  141.1530 C   0  0  0  0  0  2  0  0  0  0  0  0
  186.9870  179.1390  141.1700 O   0  0  0  0  0  0  0  0  0  0  0  0
  187.7480  177.9710  141.0590 C   0  0  1  0  0  3  0  0  0  0  0  0
  188.7290  178.1320  139.9790 C   0  0  0  0  0  0  0  0  0  0  0  0
  189.5340  178.2640  139.0950 C   0  0  0  0  0  3  0  0  0  0  0  0
  188.4480  177.6160  142.3540 C   0  0  0  0  0  0  0  0  0  0  0  0
  187.7640  177.2880  143.3120 O   0  0  0  0  0  0  0  0  0  0  0  0
  190.3430  178.3450  143.8100 C   0  0  0  0  0  2  0  0  0  0  0  0
  190.5340  176.3040  142.7060 C   0  0  0  0  0  2  0  0  0  0  0  0
  189.9400  177.6650  142.5420 C   0  0  1  0  0  3  0  0  0  0  0  0
  191.5350  176.4070  143.6820 O   0  0  0  0  0  0  0  0  0  0  0  0
  191.1160  177.3640  144.5550 N   0  0  0  0  0  2  0  0  0  0  0  0
  1  2  2  0  0  0  0
  1 10  1  0  0  0  0
  3  9  1  0  0  0  0
  4 18  1  6  0  0  0
  4  3  1  0  0  0  0
  4  1  1  0  0  0  0
  6 16  2  0  0  0  0
  6 21  1  0  0  0  0
  7 11  1  0  0  0  0
  8 20  1  0  0  0  0
  9 36  1  1  0  0  0
  9  5  1  0  0  0  0
 10  5  2  0  0  0  0
 11  3  2  0  0  0  0
 12 17  1  6  0  0  0
 12 15  1  0  0  0  0
 13 22  1  0  0  0  0
 14 23  2  0  0  0  0
 15  8  1  6  0  0  0
 15  7  1  0  0  0  0
 16 14  1  0  0  0  0
 17 13  1  0  0  0  0
 19 22  1  0  0  0  0
 19 15  1  0  0  0  0
 20 21  1  0  0  0  0
 21 18  2  0  0  0  0
 23 18  1  0  0  0  0
 24 25  1  6  0  0  0
 24 12  1  0  0  0  0
 24 26  1  0  0  0  0
 25 26  1  0  0  0  0
 26 27  1  1  0  0  0
 28 34  1  0  0  0  0
 31 30  1  6  0  0  0
 32 34  1  0  0  0  0
 32 31  1  0  0  0  0
 32 29  1  0  0  0  0
 33 31  1  0  0  0  0
 35 34  1  0  0  0  0
 35 33  1  0  0  0  0
 35 27  1  1  0  0  0
 36 37  1  0  0  0  0
 37 38  1  0  0  0  0
 39 40  1  6  0  0  0
 39 38  1  0  0  0  0
 39 42  1  0  0  0  0
 41 40  3  0  0  0  0
 42 43  2  0  0  0  0
 44 48  1  0  0  0  0
 45 47  1  0  0  0  0
 46 42  1  1  0  0  0
 46 45  1  0  0  0  0
 46 44  1  0  0  0  0
 47 48  1  0  0  0  0
M  END
>  <MODEL>
3

>  <REMARK>
 VINA RESULT:      -5.6      3.374      7.609
  Name = 
  10 active torsions:
  status: ('A' for Active; 'I' for Inactive)
    1  A    between atoms: C_3  and  C_42
    2  A    between atoms: C_5  and  C_9
    3  A    between atoms: C_5  and  C_42
    4  A    between atoms: N_6  and  C_44
    5  A    between atoms: N_6  and  C_45
    6  A    between atoms: C_21  and  C_48
    7  A    between atoms: C_22  and  C_25
    8  A    between atoms: C_31  and  O_38
    9  A    between atoms: C_31  and  C_48
   10  A    between atoms: O_38  and  C_42
                            x       y       z     vdW  Elec       q    Type
                         _______ _______ _______ _____ _____    ______ ____

>  <TORSDO>
F 10

$$$$
=
 OpenBabel10232411343D

 48 54  0  0  1  0  0  0  0  0999 V2000
  192.8040  172.1930  135.9800 C   0  0  0  0  0  0  0  0  0  0  0  0
  193.7560  171.5530  136.4930 O   0  0  0  0  0  0  0  0  0  0  0  0
  190.8890  173.7700  136.2310 C   0  0  0  0  0  0  0  0  0  0  0  0
  192.3390  173.4910  136.5800 C   0  0  2  0  0  3  0  0  0  0  0  0
  191.0540  172.2550  134.3460 N   0  0  0  0  0  0  0  0  0  0  0  0
  194.2760  176.7780  136.5870 C   0  0  0  0  0  3  0  0  0  0  0  0
  190.4900  175.0100  138.4190 C   0  0  0  0  0  2  0  0  0  0  0  0
  192.3710  176.5740  138.9870 C   0  0  0  0  0  2  0  0  0  0  0  0
  190.3540  173.2610  135.1020 C   0  0  0  0  0  0  0  0  0  0  0  0
  192.1730  171.7240  134.7430 C   0  0  0  0  0  3  0  0  0  0  0  0
  190.0930  174.6160  137.0710 N   0  0  0  0  0  2  0  0  0  0  0  0
  189.9620  177.1310  139.6070 C   0  0  2  0  0  3  0  0  0  0  0  0
  188.7700  178.5150  138.1050 C   0  0  0  0  0  2  0  0  0  0  0  0
  194.3220  175.8770  134.3460 C   0  0  0  0  0  3  0  0  0  0  0  0
  190.9020  176.4940  138.5430 C   0  0  2  0  0  0  0  0  0  0  0  0
  194.6630  176.8830  135.2480 C   0  0  0  0  0  3  0  0  0  0  0  0
  189.6330  178.5150  139.2820 N   0  0  0  0  0  2  0  0  0  0  0  0
  193.2100  174.6420  136.1290 C   0  0  0  0  0  0  0  0  0  0  0  0
  190.7890  177.2660  137.2040 C   0  0  0  0  0  2  0  0  0  0  0  0
  193.1620  175.5650  138.3670 O   0  0  0  0  0  0  0  0  0  0  0  0
  193.5560  175.6610  137.0320 C   0  0  0  0  0  0  0  0  0  0  0  0
  189.3640  177.7430  136.9280 C   0  0  0  0  0  2  0  0  0  0  0  0
  193.5910  174.7690  134.7810 C   0  0  0  0  0  3  0  0  0  0  0  0
  190.4350  177.0240  141.0560 C   0  0  1  0  0  3  0  0  0  0  0  0
  190.3220  178.2870  141.6790 O   0  0  0  0  0  0  0  0  0  0  0  0
  189.3980  177.3080  142.0960 C   0  0  1  0  0  3  0  0  0  0  0  0
  188.0880  177.6100  141.5410 N   0  0  0  0  0  2  0  0  0  0  0  0
  185.1470  178.2880  141.6740 C   0  0  0  0  0  1  0  0  0  0  0  0
  185.0690  179.8180  144.2270 C   0  0  0  0  0  1  0  0  0  0  0  0
  186.0090  177.3660  146.0580 C   0  0  0  0  0  1  0  0  0  0  0  0
  186.6030  178.1940  144.9290 C   0  0  2  0  0  3  0  0  0  0  0  0
  185.5690  178.4780  143.9320 N   0  0  0  0  0  0  0  0  0  0  0  0
  187.9660  177.2810  144.1770 S   0  0  0  0  0  0  0  0  0  0  0  0
  186.1890  178.5320  142.6700 N   0  0  0  0  0  0  0  0  0  0  0  0
  187.1070  177.4000  142.6000 C   0  0  1  0  0  3  0  0  0  0  0  0
  188.9910  173.6740  134.6500 C   0  0  0  0  0  2  0  0  0  0  0  0
  187.9600  172.6580  135.0570 C   0  0  0  0  0  2  0  0  0  0  0  0
  187.2510  173.1240  136.1670 O   0  0  0  0  0  0  0  0  0  0  0  0
  185.9180  173.1860  135.7490 C   0  0  1  0  0  3  0  0  0  0  0  0
  185.3530  171.8320  135.7250 C   0  0  0  0  0  0  0  0  0  0  0  0
  184.8900  170.7220  135.7040 C   0  0  0  0  0  3  0  0  0  0  0  0
  185.0800  174.0870  136.6310 C   0  0  0  0  0  0  0  0  0  0  0  0
  184.6730  173.6440  137.6950 O   0  0  0  0  0  0  0  0  0  0  0  0
  183.5730  176.0240  137.1020 C   0  0  0  0  0  2  0  0  0  0  0  0
  185.7880  176.4720  136.5430 C   0  0  0  0  0  2  0  0  0  0  0  0
  184.6920  175.4950  136.2670 C   0  0  1  0  0  3  0  0  0  0  0  0
  185.1860  177.6330  137.0490 O   0  0  0  0  0  0  0  0  0  0  0  0
  184.0930  177.2200  137.7470 N   0  0  0  0  0  2  0  0  0  0  0  0
  1  2  2  0  0  0  0
  3  4  1  0  0  0  0
  3 11  1  0  0  0  0
  4  1  1  6  0  0  0
  5 10  2  0  0  0  0
  5  9  1  0  0  0  0
  6 21  1  0  0  0  0
  7 15  1  0  0  0  0
  9  3  2  0  0  0  0
 10  1  1  0  0  0  0
 11  7  1  0  0  0  0
 12 17  1  6  0  0  0
 12 24  1  0  0  0  0
 13 17  1  0  0  0  0
 14 23  2  0  0  0  0
 14 16  1  0  0  0  0
 15 19  1  6  0  0  0
 15  8  1  0  0  0  0
 15 12  1  0  0  0  0
 16  6  2  0  0  0  0
 18  4  1  0  0  0  0
 18 21  2  0  0  0  0
 20  8  1  0  0  0  0
 21 20  1  0  0  0  0
 22 19  1  0  0  0  0
 22 13  1  0  0  0  0
 23 18  1  0  0  0  0
 24 25  1  6  0  0  0
 24 26  1  0  0  0  0
 25 26  1  0  0  0  0
 26 27  1  6  0  0  0
 28 34  1  0  0  0  0
 31 30  1  1  0  0  0
 32 29  1  0  0  0  0
 32 31  1  0  0  0  0
 33 31  1  0  0  0  0
 34 32  1  0  0  0  0
 35 27  1  6  0  0  0
 35 34  1  0  0  0  0
 35 33  1  0  0  0  0
 36 37  1  0  0  0  0
 36  9  1  0  0  0  0
 37 38  1  0  0  0  0
 39 40  1  1  0  0  0
 39 38  1  0  0  0  0
 39 42  1  0  0  0  0
 41 40  3  0  0  0  0
 42 43  2  0  0  0  0
 44 48  1  0  0  0  0
 45 47  1  0  0  0  0
 46 45  1  0  0  0  0
 46 42  1  1  0  0  0
 46 44  1  0  0  0  0
 47 48  1  0  0  0  0
M  END
>  <MODEL>
4

>  <REMARK>
 VINA RESULT:      -5.1      4.247      8.926
  Name = 
  10 active torsions:
  status: ('A' for Active; 'I' for Inactive)
    1  A    between atoms: C_3  and  C_42
    2  A    between atoms: C_5  and  C_9
    3  A    between atoms: C_5  and  C_42
    4  A    between atoms: N_6  and  C_44
    5  A    between atoms: N_6  and  C_45
    6  A    between atoms: C_21  and  C_48
    7  A    between atoms: C_22  and  C_25
    8  A    between atoms: C_31  and  O_38
    9  A    between atoms: C_31  and  C_48
   10  A    between atoms: O_38  and  C_42
                            x       y       z     vdW  Elec       q    Type
                         _______ _______ _______ _____ _____    ______ ____

>  <TORSDO>
F 10

$$$$
=
 OpenBabel10232411343D

 48 54  0  0  1  0  0  0  0  0999 V2000
  189.1610  177.5570  136.1670 C   0  0  0  0  0  0  0  0  0  0  0  0
  189.6370  177.6470  135.0070 O   0  0  0  0  0  0  0  0  0  0  0  0
  187.2390  177.8330  137.7310 C   0  0  0  0  0  0  0  0  0  0  0  0
  187.6930  177.3150  136.3780 C   0  0  2  0  0  3  0  0  0  0  0  0
  189.5280  177.7550  138.5250 N   0  0  0  0  0  0  0  0  0  0  0  0
  185.8170  174.0880  135.5830 C   0  0  0  0  0  3  0  0  0  0  0  0
  184.9080  178.3720  136.8610 C   0  0  0  0  0  2  0  0  0  0  0  0
  183.9820  176.5440  135.4090 C   0  0  0  0  0  2  0  0  0  0  0  0
  188.1150  177.9130  138.7540 C   0  0  1  0  0  3  0  0  0  0  0  0
  190.0400  177.6180  137.3380 C   0  0  0  0  0  3  0  0  0  0  0  0
  185.8670  178.1900  137.9450 N   0  0  0  0  0  0  0  0  0  0  0  0
  182.4580  177.9390  136.9020 C   0  0  2  0  0  3  0  0  0  0  0  0
  181.9270  177.0340  139.0220 C   0  0  0  0  0  2  0  0  0  0  0  0
  187.8160  173.5190  136.8150 C   0  0  0  0  0  3  0  0  0  0  0  0
  183.8480  177.2520  136.7670 C   0  0  2  0  0  0  0  0  0  0  0  0
  186.6400  173.1270  136.1790 C   0  0  0  0  0  3  0  0  0  0  0  0
  181.5060  177.1020  137.6260 N   0  0  0  0  0  2  0  0  0  0  0  0
  187.3600  175.8450  136.2500 C   0  0  0  0  0  0  0  0  0  0  0  0
  184.0150  176.1700  137.8630 C   0  0  0  0  0  2  0  0  0  0  0  0
  185.3470  176.4010  135.0260 O   0  0  0  0  0  0  0  0  0  0  0  0
  186.1750  175.4430  135.6120 C   0  0  0  0  0  0  0  0  0  0  0  0
  183.3770  176.5840  139.1880 C   0  0  0  0  0  2  0  0  0  0  0  0
  188.1690  174.8690  136.8590 C   0  0  0  0  0  3  0  0  0  0  0  0
  181.8390  178.4420  135.5990 C   0  0  1  0  0  3  0  0  0  0  0  0
  180.4490  178.1890  135.6130 O   0  0  0  0  0  0  0  0  0  0  0  0
  180.8320  179.5390  135.7440 C   0  0  1  0  0  3  0  0  0  0  0  0
  180.6360  179.9680  137.1190 N   0  0  0  0  0  2  0  0  0  0  0  0
  179.9820  181.7680  134.7840 C   0  0  0  0  0  1  0  0  0  0  0  0
  181.5810  184.1750  135.5030 C   0  0  0  0  0  1  0  0  0  0  0  0
  179.9820  184.7810  138.2090 C   0  0  0  0  0  1  0  0  0  0  0  0
  180.8650  183.6650  137.6730 C   0  0  2  0  0  3  0  0  0  0  0  0
  180.5680  183.4420  136.2570 N   0  0  0  0  0  0  0  0  0  0  0  0
  180.5600  182.1600  138.6220 S   0  0  0  0  0  0  0  0  0  0  0  0
  180.7540  182.0730  135.9860 N   0  0  0  0  0  0  0  0  0  0  0  0
  180.1320  181.3360  137.0810 C   0  0  1  0  0  3  0  0  0  0  0  0
  187.6470  178.2430  140.1340 C   0  0  0  0  0  2  0  0  0  0  0  0
  188.7800  178.1540  141.1200 C   0  0  0  0  0  2  0  0  0  0  0  0
  188.6380  177.0020  141.8980 O   0  0  0  0  0  0  0  0  0  0  0  0
  189.2800  177.2960  143.1050 C   0  0  1  0  0  3  0  0  0  0  0  0
  188.2860  177.3510  144.1830 C   0  0  0  0  0  0  0  0  0  0  0  0
  187.4710  177.3960  145.0670 C   0  0  0  0  0  3  0  0  0  0  0  0
  190.3620  176.2910  143.4410 C   0  0  0  0  0  0  0  0  0  0  0  0
  190.2640  175.1590  142.9910 O   0  0  0  0  0  0  0  0  0  0  0  0
  191.2720  177.6820  145.3070 C   0  0  0  0  0  2  0  0  0  0  0  0
  191.9000  175.4430  145.2050 C   0  0  0  0  0  2  0  0  0  0  0  0
  191.5450  176.5930  144.3210 C   0  0  1  0  0  3  0  0  0  0  0  0
  192.2600  175.9770  146.4510 O   0  0  0  0  0  0  0  0  0  0  0  0
  191.5000  177.0940  146.6180 N   0  0  0  0  0  2  0  0  0  0  0  0
  1 10  1  0  0  0  0
  2  1  2  0  0  0  0
  3 11  2  0  0  0  0
  3  9  1  0  0  0  0
  4  1  1  1  0  0  0
  4  3  1  0  0  0  0
  5  9  1  0  0  0  0
  6 21  2  0  0  0  0
  6 16  1  0  0  0  0
  7 11  1  0  0  0  0
  9 36  1  6  0  0  0
 10  5  2  0  0  0  0
 12 17  1  6  0  0  0
 13 22  1  0  0  0  0
 14 23  1  0  0  0  0
 15  8  1  6  0  0  0
 15  7  1  0  0  0  0
 15 12  1  0  0  0  0
 15 19  1  0  0  0  0
 16 14  2  0  0  0  0
 17 13  1  0  0  0  0
 18  4  1  0  0  0  0
 18 23  2  0  0  0  0
 19 22  1  0  0  0  0
 20  8  1  0  0  0  0
 20 21  1  0  0  0  0
 21 18  1  0  0  0  0
 24 25  1  1  0  0  0
 24 26  1  0  0  0  0
 24 12  1  0  0  0  0
 25 26  1  0  0  0  0
 26 27  1  1  0  0  0
 28 34  1  0  0  0  0
 29 32  1  0  0  0  0
 31 30  1  1  0  0  0
 31 33  1  0  0  0  0
 32 31  1  0  0  0  0
 34 32  1  0  0  0  0
 34 35  1  0  0  0  0
 35 27  1  1  0  0  0
 35 33  1  0  0  0  0
 36 37  1  0  0  0  0
 37 38  1  0  0  0  0
 38 39  1  0  0  0  0
 39 42  1  0  0  0  0
 39 40  1  1  0  0  0
 40 41  3  0  0  0  0
 43 42  2  0  0  0  0
 44 48  1  0  0  0  0
 45 47  1  0  0  0  0
 46 42  1  1  0  0  0
 46 45  1  0  0  0  0
 46 44  1  0  0  0  0
 47 48  1  0  0  0  0
M  END
>  <MODEL>
5

>  <REMARK>
 VINA RESULT:      -4.9      1.641      2.047
  Name = 
  10 active torsions:
  status: ('A' for Active; 'I' for Inactive)
    1  A    between atoms: C_3  and  C_42
    2  A    between atoms: C_5  and  C_9
    3  A    between atoms: C_5  and  C_42
    4  A    between atoms: N_6  and  C_44
    5  A    between atoms: N_6  and  C_45
    6  A    between atoms: C_21  and  C_48
    7  A    between atoms: C_22  and  C_25
    8  A    between atoms: C_31  and  O_38
    9  A    between atoms: C_31  and  C_48
   10  A    between atoms: O_38  and  C_42
                            x       y       z     vdW  Elec       q    Type
                         _______ _______ _______ _____ _____    ______ ____

>  <TORSDO>
F 10

$$$$
=
 OpenBabel10232411343D

 48 54  0  0  1  0  0  0  0  0999 V2000
  189.0740  178.2410  136.6980 C   0  0  0  0  0  0  0  0  0  0  0  0
  189.6350  178.6700  135.6590 O   0  0  0  0  0  0  0  0  0  0  0  0
  186.9880  177.6470  137.9280 C   0  0  0  0  0  0  0  0  0  0  0  0
  187.7500  177.5340  136.6210 C   0  0  2  0  0  3  0  0  0  0  0  0
  189.0610  178.1260  139.0900 N   0  0  0  0  0  0  0  0  0  0  0  0
  187.1390  174.0820  135.1150 C   0  0  0  0  0  3  0  0  0  0  0  0
  184.7360  177.6010  136.7430 C   0  0  0  0  0  2  0  0  0  0  0  0
  184.6410  175.8610  134.9360 C   0  0  0  0  0  2  0  0  0  0  0  0
  187.6560  177.8090  139.0890 C   0  0  1  0  0  3  0  0  0  0  0  0
  189.7330  178.3600  138.0020 C   0  0  0  0  0  3  0  0  0  0  0  0
  185.5600  177.5310  137.9460 N   0  0  0  0  0  0  0  0  0  0  0  0
  182.5740  176.4490  136.3050 C   0  0  2  0  0  3  0  0  0  0  0  0
  182.1070  175.0720  138.1710 C   0  0  0  0  0  2  0  0  0  0  0  0
  189.0450  173.9370  136.5920 C   0  0  0  0  0  3  0  0  0  0  0  0
  184.1170  176.2480  136.3270 C   0  0  2  0  0  0  0  0  0  0  0  0
  188.1480  173.3260  135.7180 C   0  0  0  0  0  3  0  0  0  0  0  0
  181.8640  175.2510  136.7430 N   0  0  0  0  0  2  0  0  0  0  0  0
  187.9320  176.0780  136.2530 C   0  0  0  0  0  0  0  0  0  0  0  0
  184.4890  175.0930  137.2910 C   0  0  0  0  0  2  0  0  0  0  0  0
  186.0150  176.2040  134.7790 O   0  0  0  0  0  0  0  0  0  0  0  0
  187.0300  175.4540  135.3740 C   0  0  0  0  0  0  0  0  0  0  0  0
  183.5920  175.0580  138.5280 C   0  0  0  0  0  2  0  0  0  0  0  0
  188.9310  175.3010  136.8650 C   0  0  0  0  0  3  0  0  0  0  0  0
  181.9930  176.9600  134.9890 C   0  0  1  0  0  3  0  0  0  0  0  0
  180.5820  176.9650  135.0710 O   0  0  0  0  0  0  0  0  0  0  0  0
  181.2050  178.2290  135.0800 C   0  0  1  0  0  3  0  0  0  0  0  0
  181.1560  178.7850  136.4230 N   0  0  0  0  0  2  0  0  0  0  0  0
  182.2040  180.7630  138.4520 C   0  0  0  0  0  1  0  0  0  0  0  0
  180.0980  182.8610  138.2840 C   0  0  0  0  0  1  0  0  0  0  0  0
  180.6640  183.5900  135.2190 C   0  0  0  0  0  1  0  0  0  0  0  0
  180.1800  182.3750  135.9950 C   0  0  2  0  0  3  0  0  0  0  0  0
  180.9320  182.2620  137.2470 N   0  0  0  0  0  0  0  0  0  0  0  0
  180.4130  180.8960  134.9870 S   0  0  0  0  0  0  0  0  0  0  0  0
  181.0590  180.8940  137.5520 N   0  0  0  0  0  0  0  0  0  0  0  0
  181.4220  180.2150  136.3120 C   0  0  1  0  0  3  0  0  0  0  0  0
  186.9400  177.7370  140.3980 C   0  0  0  0  0  2  0  0  0  0  0  0
  187.4340  178.8010  141.3390 C   0  0  0  0  0  2  0  0  0  0  0  0
  188.6480  178.4040  141.9050 O   0  0  0  0  0  0  0  0  0  0  0  0
  188.3010  177.5000  142.9140 C   0  0  1  0  0  3  0  0  0  0  0  0
  189.1850  176.3300  142.8430 C   0  0  0  0  0  0  0  0  0  0  0  0
  189.9110  175.3730  142.7850 C   0  0  0  0  0  3  0  0  0  0  0  0
  188.3680  178.1230  144.2920 C   0  0  0  0  0  0  0  0  0  0  0  0
  189.4610  178.2330  144.8280 O   0  0  0  0  0  0  0  0  0  0  0  0
  185.8790  178.0650  144.5080 C   0  0  0  0  0  2  0  0  0  0  0  0
  187.1460  178.0780  146.4610 C   0  0  0  0  0  2  0  0  0  0  0  0
  187.1620  178.5950  145.0600 C   0  0  1  0  0  3  0  0  0  0  0  0
  185.8170  177.7540  146.7650 O   0  0  0  0  0  0  0  0  0  0  0  0
  185.2530  177.3340  145.5990 N   0  0  0  0  0  2  0  0  0  0  0  0
  1 10  1  0  0  0  0
  2  1  2  0  0  0  0
  3 11  2  0  0  0  0
  3  9  1  0  0  0  0
  4 18  1  1  0  0  0
  4  1  1  0  0  0  0
  4  3  1  0  0  0  0
  6 21  2  0  0  0  0
  6 16  1  0  0  0  0
  7 11  1  0  0  0  0
  9  5  1  0  0  0  0
  9 36  1  6  0  0  0
 10  5  2  0  0  0  0
 12 15  1  0  0  0  0
 12 17  1  6  0  0  0
 13 22  1  0  0  0  0
 14 23  1  0  0  0  0
 15  8  1  6  0  0  0
 15  7  1  0  0  0  0
 15 19  1  0  0  0  0
 16 14  2  0  0  0  0
 17 13  1  0  0  0  0
 18 23  2  0  0  0  0
 19 22  1  0  0  0  0
 20  8  1  0  0  0  0
 20 21  1  0  0  0  0
 21 18  1  0  0  0  0
 24 25  1  1  0  0  0
 24 26  1  0  0  0  0
 24 12  1  0  0  0  0
 25 26  1  0  0  0  0
 26 27  1  1  0  0  0
 31 30  1  6  0  0  0
 31 32  1  0  0  0  0
 32 34  1  0  0  0  0
 32 29  1  0  0  0  0
 33 31  1  0  0  0  0
 33 35  1  0  0  0  0
 34 28  1  0  0  0  0
 35 27  1  1  0  0  0
 35 34  1  0  0  0  0
 36 37  1  0  0  0  0
 37 38  1  0  0  0  0
 38 39  1  0  0  0  0
 39 40  1  1  0  0  0
 39 42  1  0  0  0  0
 41 40  3  0  0  0  0
 42 43  2  0  0  0  0
 44 46  1  0  0  0  0
 44 48  1  0  0  0  0
 45 47  1  0  0  0  0
 46 42  1  6  0  0  0
 46 45  1  0  0  0  0
 48 47  1  0  0  0  0
M  END
>  <MODEL>
6

>  <REMARK>
 VINA RESULT:      -4.4      1.515      2.274
  Name = 
  10 active torsions:
  status: ('A' for Active; 'I' for Inactive)
    1  A    between atoms: C_3  and  C_42
    2  A    between atoms: C_5  and  C_9
    3  A    between atoms: C_5  and  C_42
    4  A    between atoms: N_6  and  C_44
    5  A    between atoms: N_6  and  C_45
    6  A    between atoms: C_21  and  C_48
    7  A    between atoms: C_22  and  C_25
    8  A    between atoms: C_31  and  O_38
    9  A    between atoms: C_31  and  C_48
   10  A    between atoms: O_38  and  C_42
                            x       y       z     vdW  Elec       q    Type
                         _______ _______ _______ _____ _____    ______ ____

>  <TORSDO>
F 10

$$$$
=
 OpenBabel10232411343D

 48 54  0  0  1  0  0  0  0  0999 V2000
  192.9750  172.2110  136.1910 C   0  0  0  0  0  0  0  0  0  0  0  0
  194.0110  171.6290  136.6000 O   0  0  0  0  0  0  0  0  0  0  0  0
  191.0220  173.6950  136.6400 C   0  0  0  0  0  0  0  0  0  0  0  0
  192.5150  173.4950  136.8240 C   0  0  2  0  0  3  0  0  0  0  0  0
  191.0500  172.1550  134.7680 N   0  0  0  0  0  0  0  0  0  0  0  0
  194.2680  176.8740  136.5660 C   0  0  0  0  0  3  0  0  0  0  0  0
  190.8120  174.9540  138.8420 C   0  0  0  0  0  2  0  0  0  0  0  0
  192.6610  176.6210  139.1710 C   0  0  0  0  0  2  0  0  0  0  0  0
  190.3890  173.1390  135.5860 C   0  0  0  0  0  0  0  0  0  0  0  0
  192.2320  171.6880  135.0420 C   0  0  0  0  0  3  0  0  0  0  0  0
  190.2840  174.5160  137.5540 N   0  0  0  0  0  2  0  0  0  0  0  0
  190.3140  177.0690  140.0550 C   0  0  2  0  0  3  0  0  0  0  0  0
  188.8880  178.3630  138.6820 C   0  0  0  0  0  2  0  0  0  0  0  0
  194.1050  175.9340  134.3460 C   0  0  0  0  0  3  0  0  0  0  0  0
  191.1580  176.4590  138.8990 C   0  0  2  0  0  0  0  0  0  0  0  0
  194.4940  176.9730  135.1900 C   0  0  0  0  0  3  0  0  0  0  0  0
  189.8780  178.4280  139.7520 N   0  0  0  0  0  2  0  0  0  0  0  0
  193.2680  174.6790  136.2600 C   0  0  0  0  0  0  0  0  0  0  0  0
  190.8530  177.1990  137.5710 C   0  0  0  0  0  2  0  0  0  0  0  0
  193.4280  175.6400  138.4770 O   0  0  0  0  0  0  0  0  0  0  0  0
  193.6620  175.7310  137.1040 C   0  0  0  0  0  0  0  0  0  0  0  0
  189.3830  177.5990  137.4550 C   0  0  0  0  0  2  0  0  0  0  0  0
  193.4870  174.8000  134.8770 C   0  0  0  0  0  3  0  0  0  0  0  0
  190.9530  177.0130  141.4420 C   0  0  1  0  0  3  0  0  0  0  0  0
  190.5330  178.1310  142.1960 O   0  0  0  0  0  0  0  0  0  0  0  0
  190.0000  176.8870  142.5880 C   0  0  1  0  0  3  0  0  0  0  0  0
  188.6070  176.8050  142.1770 N   0  0  0  0  0  2  0  0  0  0  0  0
  188.7920  177.5780  145.0920 C   0  0  0  0  0  1  0  0  0  0  0  0
  185.9400  177.2970  145.8980 C   0  0  0  0  0  1  0  0  0  0  0  0
  184.8600  179.5760  143.9270 C   0  0  0  0  0  1  0  0  0  0  0  0
  185.5350  178.2210  143.7850 C   0  0  2  0  0  3  0  0  0  0  0  0
  186.5560  178.0710  144.8240 N   0  0  0  0  0  0  0  0  0  0  0  0
  186.2850  178.1000  142.1470 S   0  0  0  0  0  0  0  0  0  0  0  0
  187.6010  177.2910  144.2940 N   0  0  0  0  0  0  0  0  0  0  0  0
  187.8660  177.7950  142.9510 C   0  0  1  0  0  3  0  0  0  0  0  0
  188.9640  173.4750  135.2880 C   0  0  0  0  0  2  0  0  0  0  0  0
  188.1000  173.2740  136.5030 C   0  0  0  0  0  2  0  0  0  0  0  0
  187.7240  171.9320  136.5970 O   0  0  0  0  0  0  0  0  0  0  0  0
  187.0630  171.6530  135.3970 C   0  0  1  0  0  3  0  0  0  0  0  0
  187.4920  170.3410  134.8990 C   0  0  0  0  0  0  0  0  0  0  0  0
  187.8430  169.2650  134.4920 C   0  0  0  0  0  3  0  0  0  0  0  0
  185.5560  171.6880  135.5480 C   0  0  0  0  0  0  0  0  0  0  0  0
  184.9330  170.6490  135.3940 O   0  0  0  0  0  0  0  0  0  0  0  0
  183.5880  173.1120  134.9600 C   0  0  0  0  0  2  0  0  0  0  0  0
  184.1470  172.8930  137.2100 C   0  0  0  0  0  2  0  0  0  0  0  0
  184.7720  172.9360  135.8540 C   0  0  1  0  0  3  0  0  0  0  0  0
  182.8740  173.4700  137.0940 O   0  0  0  0  0  0  0  0  0  0  0  0
  182.4330  173.1680  135.8420 N   0  0  0  0  0  2  0  0  0  0  0  0
  1  2  2  0  0  0  0
  3  4  1  0  0  0  0
  3 11  1  0  0  0  0
  4  1  1  6  0  0  0
  5 10  2  0  0  0  0
  5  9  1  0  0  0  0
  6 21  1  0  0  0  0
  7 15  1  0  0  0  0
  9  3  2  0  0  0  0
 10  1  1  0  0  0  0
 11  7  1  0  0  0  0
 12 17  1  6  0  0  0
 12 24  1  0  0  0  0
 13 17  1  0  0  0  0
 14 23  2  0  0  0  0
 14 16  1  0  0  0  0
 15 19  1  6  0  0  0
 15  8  1  0  0  0  0
 15 12  1  0  0  0  0
 16  6  2  0  0  0  0
 18  4  1  0  0  0  0
 18 21  2  0  0  0  0
 20  8  1  0  0  0  0
 21 20  1  0  0  0  0
 22 19  1  0  0  0  0
 22 13  1  0  0  0  0
 23 18  1  0  0  0  0
 24 25  1  1  0  0  0
 24 26  1  0  0  0  0
 25 26  1  0  0  0  0
 26 27  1  6  0  0  0
 31 30  1  6  0  0  0
 31 32  1  0  0  0  0
 32 29  1  0  0  0  0
 33 35  1  0  0  0  0
 33 31  1  0  0  0  0
 34 32  1  0  0  0  0
 34 28  1  0  0  0  0
 35 27  1  6  0  0  0
 35 34  1  0  0  0  0
 36  9  1  0  0  0  0
 36 37  1  0  0  0  0
 37 38  1  0  0  0  0
 39 40  1  1  0  0  0
 39 42  1  0  0  0  0
 39 38  1  0  0  0  0
 41 40  3  0  0  0  0
 43 42  2  0  0  0  0
 44 48  1  0  0  0  0
 44 46  1  0  0  0  0
 46 42  1  6  0  0  0
 46 45  1  0  0  0  0
 47 45  1  0  0  0  0
 48 47  1  0  0  0  0
M  END
>  <MODEL>
7

>  <REMARK>
 VINA RESULT:      -4.0      4.750      9.522
  Name = 
  10 active torsions:
  status: ('A' for Active; 'I' for Inactive)
    1  A    between atoms: C_3  and  C_42
    2  A    between atoms: C_5  and  C_9
    3  A    between atoms: C_5  and  C_42
    4  A    between atoms: N_6  and  C_44
    5  A    between atoms: N_6  and  C_45
    6  A    between atoms: C_21  and  C_48
    7  A    between atoms: C_22  and  C_25
    8  A    between atoms: C_31  and  O_38
    9  A    between atoms: C_31  and  C_48
   10  A    between atoms: O_38  and  C_42
                            x       y       z     vdW  Elec       q    Type
                         _______ _______ _______ _____ _____    ______ ____

>  <TORSDO>
F 10

$$$$
