=
 OpenBabel10232411023D

 26 29  0  0  1  0  0  0  0  0999 V2000
  183.1080  178.8980  144.2580 C   0  0  0  0  0  0  0  0  0  0  0  0
  188.9650  177.3220  141.3490 C   0  0  0  0  0  2  0  0  0  0  0  0
  190.5980  177.1050  143.0890 C   0  0  1  0  0  0  0  0  0  0  0  0
  181.7960  179.1410  143.5960 C   0  0  0  0  0  1  0  0  0  0  0  0
  186.0120  178.0260  141.7870 C   0  0  0  0  0  2  0  0  0  0  0  0
  183.7090  178.5040  141.3240 O   0  0  0  0  0  0  0  0  0  0  0  0
  187.5940  177.9670  145.3130 C   0  0  0  0  0  3  0  0  0  0  0  0
  188.3350  177.5580  142.6650 C   0  0  0  0  0  0  0  0  0  0  0  0
  190.3390  176.8810  141.6340 N   0  0  0  0  0  0  0  0  0  0  0  0
  184.2930  178.5720  143.6220 C   0  0  0  0  0  0  0  0  0  0  0  0
  188.9190  177.6380  145.0010 C   0  0  0  0  0  3  0  0  0  0  0  0
  186.6340  178.0950  144.2920 C   0  0  0  0  0  0  0  0  0  0  0  0
  191.5440  178.2810  143.3820 C   0  0  0  0  0  1  0  0  0  0  0  0
  189.2620  177.4310  143.6610 C   0  0  0  0  0  0  0  0  0  0  0  0
  184.5930  178.6920  145.7910 C   0  0  0  0  0  0  0  0  0  0  0  0
  185.2380  178.4400  144.5960 C   0  0  0  0  0  0  0  0  0  0  0  0
  183.2870  178.9730  145.5950 N   0  0  0  0  0  2  0  0  0  0  0  0
  187.0030  177.8920  142.9350 C   0  0  0  0  0  0  0  0  0  0  0  0
  185.1990  178.6640  147.0790 N   0  0  0  0  0  1  0  0  0  0  0  0
  184.6030  178.3780  142.2010 C   0  0  0  0  0  0  0  0  0  0  0  0
  192.4760  175.6330  143.2870 F   0  0  0  0  0  0  0  0  0  0  0  0
  191.1680  175.8120  143.7020 C   0  0  0  0  0  0  0  0  0  0  0  0
  190.4210  174.7190  143.2940 F   0  0  0  0  0  0  0  0  0  0  0  0
  191.1480  175.8740  145.0860 F   0  0  0  0  0  0  0  0  0  0  0  0
  191.2430  177.5990  140.7360 C   0  0  0  0  0  2  0  0  0  0  0  0
  191.2460  176.9340  139.3740 C   0  0  0  0  0  1  0  0  0  0  0  0
  1 17  1  0  0  0  0
  2  9  1  0  0  0  0
  2  8  1  0  0  0  0
  3 13  1  1  0  0  0
  3 14  1  0  0  0  0
  3 22  1  0  0  0  0
  4  1  1  0  0  0  0
  5 20  1  0  0  0  0
  5 18  1  0  0  0  0
  6 20  2  0  0  0  0
  8 18  2  0  0  0  0
  8 14  1  0  0  0  0
  9  3  1  0  0  0  0
 10  1  2  0  0  0  0
 10 16  1  0  0  0  0
 11  7  1  0  0  0  0
 12 16  1  0  0  0  0
 12  7  2  0  0  0  0
 14 11  2  0  0  0  0
 15 19  1  0  0  0  0
 16 15  2  0  0  0  0
 17 15  1  0  0  0  0
 18 12  1  0  0  0  0
 20 10  1  0  0  0  0
 21 22  1  0  0  0  0
 22 24  1  0  0  0  0
 23 22  1  0  0  0  0
 25  9  1  0  0  0  0
 26 25  1  0  0  0  0
M  END
>  <MODEL>
1

>  <REMARK>
 VINA RESULT:      -9.9      0.000      0.000
  Name = 
  2 active torsions:
  status: ('A' for Active; 'I' for Inactive)
    1  A    between atoms: C_3  and  C_5
    2  A    between atoms: C_8  and  N_12
                            x       y       z     vdW  Elec       q    Type
                         _______ _______ _______ _____ _____    ______ ____

>  <TORSDO>
F 2

$$$$
=
 OpenBabel10232411023D

 26 29  0  0  1  0  0  0  0  0999 V2000
  182.8430  178.8010  143.3550 C   0  0  0  0  0  0  0  0  0  0  0  0
  188.9460  177.6850  145.9560 C   0  0  0  0  0  2  0  0  0  0  0  0
  190.4790  177.4690  144.1270 C   0  0  1  0  0  0  0  0  0  0  0  0
  181.5610  178.9980  144.0870 C   0  0  0  0  0  1  0  0  0  0  0  0
  185.9380  178.2100  145.6740 C   0  0  0  0  0  2  0  0  0  0  0  0
  183.6440  178.5900  146.2600 O   0  0  0  0  0  0  0  0  0  0  0  0
  187.3050  178.0770  142.0620 C   0  0  0  0  0  3  0  0  0  0  0  0
  188.2320  177.8610  144.6740 C   0  0  0  0  0  0  0  0  0  0  0  0
  190.3740  177.6020  145.6120 N   0  0  0  0  0  0  0  0  0  0  0  0
  184.0820  178.5760  143.9300 C   0  0  2  0  0  3  0  0  0  0  0  0
  188.6640  177.8410  142.3040 C   0  0  0  0  0  3  0  0  0  0  0  0
  186.4030  178.2050  143.1350 C   0  0  0  0  0  0  0  0  0  0  0  0
  190.8890  176.0640  143.6530 C   0  0  0  0  0  1  0  0  0  0  0  0
  189.1030  177.7430  143.6280 C   0  0  0  0  0  0  0  0  0  0  0  0
  184.2420  178.6060  141.7430 C   0  0  0  0  0  0  0  0  0  0  0  0
  184.9730  178.4520  142.9050 C   0  0  0  0  0  0  0  0  0  0  0  0
  182.9370  178.8210  142.0070 N   0  0  0  0  0  0  0  0  0  0  0  0
  186.8660  178.0910  144.4730 C   0  0  0  0  0  0  0  0  0  0  0  0
  184.7710  178.5530  140.4220 N   0  0  0  0  0  1  0  0  0  0  0  0
  184.4890  178.4700  145.3350 C   0  0  0  0  0  0  0  0  0  0  0  0
  190.8720  179.7500  143.5140 F   0  0  0  0  0  0  0  0  0  0  0  0
  191.4830  178.5110  143.6000 C   0  0  0  0  0  0  0  0  0  0  0  0
  191.9290  178.1500  142.3400 F   0  0  0  0  0  0  0  0  0  0  0  0
  192.5750  178.6140  144.4470 F   0  0  0  0  0  0  0  0  0  0  0  0
  190.9600  176.4950  146.3670 C   0  0  0  0  0  2  0  0  0  0  0  0
  191.2940  176.9530  147.7730 C   0  0  0  0  0  1  0  0  0  0  0  0
  1 10  1  0  0  0  0
  1  4  1  0  0  0  0
  3 13  1  6  0  0  0
  3  9  1  0  0  0  0
  7 11  2  0  0  0  0
  7 12  1  0  0  0  0
  8  2  1  0  0  0  0
  9  2  1  0  0  0  0
  9 25  1  0  0  0  0
 10 16  1  6  0  0  0
 10 20  1  0  0  0  0
 11 14  1  0  0  0  0
 12 18  2  0  0  0  0
 14  3  1  0  0  0  0
 14  8  2  0  0  0  0
 15 17  1  0  0  0  0
 15 16  2  0  0  0  0
 16 12  1  0  0  0  0
 17  1  2  0  0  0  0
 18  8  1  0  0  0  0
 18  5  1  0  0  0  0
 19 15  1  0  0  0  0
 20  5  1  0  0  0  0
 20  6  2  0  0  0  0
 21 22  1  0  0  0  0
 22  3  1  0  0  0  0
 22 24  1  0  0  0  0
 23 22  1  0  0  0  0
 25 26  1  0  0  0  0
M  END
>  <MODEL>
2

>  <REMARK>
 VINA RESULT:      -9.9      2.414      3.688
  Name = 
  2 active torsions:
  status: ('A' for Active; 'I' for Inactive)
    1  A    between atoms: C_3  and  C_5
    2  A    between atoms: C_8  and  N_12
                            x       y       z     vdW  Elec       q    Type
                         _______ _______ _______ _____ _____    ______ ____

>  <TORSDO>
F 2

$$$$
=
 OpenBabel10232411023D

 26 29  0  0  1  0  0  0  0  0999 V2000
  183.2670  178.9360  140.4000 C   0  0  0  0  0  0  0  0  0  0  0  0
  187.9580  177.9130  145.1120 C   0  0  0  0  0  2  0  0  0  0  0  0
  190.0540  177.6170  143.9890 C   0  0  1  0  0  0  0  0  0  0  0  0
  181.8090  179.1670  140.5980 C   0  0  0  0  0  1  0  0  0  0  0  0
  185.2760  178.4340  143.7180 C   0  0  0  0  0  2  0  0  0  0  0  0
  182.9360  178.8440  143.4010 O   0  0  0  0  0  0  0  0  0  0  0  0
  187.8780  178.1480  140.8750 C   0  0  0  0  0  3  0  0  0  0  0  0
  187.7710  178.0380  143.6510 C   0  0  0  0  0  0  0  0  0  0  0  0
  189.4100  177.8120  145.3240 N   0  0  0  0  0  0  0  0  0  0  0  0
  184.2020  178.7320  141.3990 C   0  0  1  0  0  3  0  0  0  0  0  0
  189.0470  177.9180  141.6110 C   0  0  0  0  0  3  0  0  0  0  0  0
  186.6460  178.3220  141.5330 C   0  0  0  0  0  0  0  0  0  0  0  0
  190.5850  176.1940  143.7530 C   0  0  0  0  0  1  0  0  0  0  0  0
  188.9640  177.8740  143.0070 C   0  0  0  0  0  0  0  0  0  0  0  0
  185.1590  178.6710  139.4270 C   0  0  0  0  0  0  0  0  0  0  0  0
  185.4070  178.5640  140.7820 C   0  0  0  0  0  0  0  0  0  0  0  0
  183.8520  178.9000  139.1820 N   0  0  0  0  0  0  0  0  0  0  0  0
  186.5800  178.2630  142.9510 C   0  0  0  0  0  0  0  0  0  0  0  0
  186.1370  178.5620  138.3980 N   0  0  0  0  0  1  0  0  0  0  0  0
  184.0600  178.6830  142.8580 C   0  0  0  0  0  0  0  0  0  0  0  0
  191.8930  178.3830  142.6600 F   0  0  0  0  0  0  0  0  0  0  0  0
  191.2000  178.6340  143.8310 C   0  0  0  0  0  0  0  0  0  0  0  0
  192.0800  178.5310  144.8960 F   0  0  0  0  0  0  0  0  0  0  0  0
  190.7070  179.9280  143.7850 F   0  0  0  0  0  0  0  0  0  0  0  0
  189.6570  176.7360  146.2830 C   0  0  0  0  0  2  0  0  0  0  0  0
  188.8930  177.0070  147.5640 C   0  0  0  0  0  1  0  0  0  0  0  0
  1  4  1  0  0  0  0
  2  9  1  0  0  0  0
  3 13  1  6  0  0  0
  3  9  1  0  0  0  0
  7 12  2  0  0  0  0
  7 11  1  0  0  0  0
  8  2  1  0  0  0  0
  9 25  1  0  0  0  0
 10  1  1  1  0  0  0
 10 20  1  0  0  0  0
 11 14  2  0  0  0  0
 12 18  1  0  0  0  0
 14  8  1  0  0  0  0
 14  3  1  0  0  0  0
 15 16  2  0  0  0  0
 16 10  1  0  0  0  0
 16 12  1  0  0  0  0
 17 15  1  0  0  0  0
 17  1  2  0  0  0  0
 18  8  2  0  0  0  0
 18  5  1  0  0  0  0
 19 15  1  0  0  0  0
 20  6  2  0  0  0  0
 20  5  1  0  0  0  0
 21 22  1  0  0  0  0
 22  3  1  0  0  0  0
 22 23  1  0  0  0  0
 24 22  1  0  0  0  0
 25 26  1  0  0  0  0
M  END
>  <MODEL>
3

>  <REMARK>
 VINA RESULT:      -9.1      2.553      4.172
  Name = 
  2 active torsions:
  status: ('A' for Active; 'I' for Inactive)
    1  A    between atoms: C_3  and  C_5
    2  A    between atoms: C_8  and  N_12
                            x       y       z     vdW  Elec       q    Type
                         _______ _______ _______ _____ _____    ______ ____

>  <TORSDO>
F 2

$$$$
=
 OpenBabel10232411023D

 26 29  0  0  1  0  0  0  0  0999 V2000
  188.9550  177.3720  146.2360 C   0  0  0  0  0  0  0  0  0  0  0  0
  190.9540  176.8060  139.8380 C   0  0  0  0  0  2  0  0  0  0  0  0
  189.0940  177.3990  138.4470 C   0  0  1  0  0  0  0  0  0  0  0  0
  189.7500  177.1080  147.4680 C   0  0  0  0  0  1  0  0  0  0  0  0
  190.9200  176.7900  142.9040 C   0  0  0  0  0  2  0  0  0  0  0  0
  191.6570  176.5410  145.1720 O   0  0  0  0  0  0  0  0  0  0  0  0
  187.3790  177.9130  141.8390 C   0  0  0  0  0  3  0  0  0  0  0  0
  189.7960  177.1810  140.6750 C   0  0  0  0  0  0  0  0  0  0  0  0
  190.5590  177.1000  138.4510 N   0  0  0  0  0  0  0  0  0  0  0  0
  189.4060  177.2460  144.9330 C   0  0  0  0  0  0  0  0  0  0  0  0
  187.5040  177.8890  140.4450 C   0  0  0  0  0  3  0  0  0  0  0  0
  188.4700  177.5660  142.6570 C   0  0  0  0  0  0  0  0  0  0  0  0
  188.2310  176.2840  137.8330 C   0  0  0  0  0  1  0  0  0  0  0  0
  188.7340  177.5230  139.8870 C   0  0  0  0  0  0  0  0  0  0  0  0
  187.3130  177.9000  144.9630 C   0  0  0  0  0  0  0  0  0  0  0  0
  188.3620  177.5820  144.1220 C   0  0  0  0  0  0  0  0  0  0  0  0
  187.6660  177.7750  146.2590 N   0  0  0  0  0  2  0  0  0  0  0  0
  189.7080  177.1850  142.0720 C   0  0  0  0  0  0  0  0  0  0  0  0
  186.0150  178.3110  144.5450 N   0  0  0  0  0  1  0  0  0  0  0  0
  190.7110  176.8440  144.3990 C   0  0  0  0  0  0  0  0  0  0  0  0
  189.5610  178.7180  136.5040 F   0  0  0  0  0  0  0  0  0  0  0  0
  188.8540  178.7200  137.6940 C   0  0  0  0  0  0  0  0  0  0  0  0
  189.2810  179.7920  138.4600 F   0  0  0  0  0  0  0  0  0  0  0  0
  187.5080  178.8850  137.4070 F   0  0  0  0  0  0  0  0  0  0  0  0
  190.9530  175.9670  137.6150 C   0  0  0  0  0  2  0  0  0  0  0  0
  192.4060  176.1100  137.2090 C   0  0  0  0  0  1  0  0  0  0  0  0
  1 17  1  0  0  0  0
  1  4  1  0  0  0  0
  2  8  1  0  0  0  0
  3 13  1  6  0  0  0
  3  9  1  0  0  0  0
  3 14  1  0  0  0  0
  5 20  1  0  0  0  0
  7 12  1  0  0  0  0
  8 18  1  0  0  0  0
  9  2  1  0  0  0  0
 10  1  2  0  0  0  0
 11  7  2  0  0  0  0
 12 16  1  0  0  0  0
 14 11  1  0  0  0  0
 14  8  2  0  0  0  0
 15 17  1  0  0  0  0
 16 10  1  0  0  0  0
 16 15  2  0  0  0  0
 18 12  2  0  0  0  0
 18  5  1  0  0  0  0
 19 15  1  0  0  0  0
 20 10  1  0  0  0  0
 20  6  2  0  0  0  0
 21 22  1  0  0  0  0
 22  3  1  0  0  0  0
 22 23  1  0  0  0  0
 24 22  1  0  0  0  0
 25  9  1  0  0  0  0
 26 25  1  0  0  0  0
M  END
>  <MODEL>
4

>  <REMARK>
 VINA RESULT:      -8.7      3.780      5.460
  Name = 
  2 active torsions:
  status: ('A' for Active; 'I' for Inactive)
    1  A    between atoms: C_3  and  C_5
    2  A    between atoms: C_8  and  N_12
                            x       y       z     vdW  Elec       q    Type
                         _______ _______ _______ _____ _____    ______ ____

>  <TORSDO>
F 2

$$$$
=
 OpenBabel10232411023D

 26 29  0  0  1  0  0  0  0  0999 V2000
  187.4470  178.0090  146.3670 C   0  0  0  0  0  0  0  0  0  0  0  0
  182.1090  178.7880  142.3480 C   0  0  0  0  0  2  0  0  0  0  0  0
  182.8820  178.6270  140.0850 C   0  0  1  0  0  0  0  0  0  0  0  0
  187.4800  178.0330  147.8560 C   0  0  0  0  0  1  0  0  0  0  0  0
  183.8880  178.5470  144.8340 C   0  0  0  0  0  2  0  0  0  0  0  0
  184.5630  178.4770  147.1330 O   0  0  0  0  0  0  0  0  0  0  0  0
  186.2650  178.1110  141.8170 C   0  0  0  0  0  3  0  0  0  0  0  0
  183.5650  178.5370  142.3280 C   0  0  0  0  0  0  0  0  0  0  0  0
  181.6640  178.6820  140.9490 N   0  0  0  0  0  0  0  0  0  0  0  0
  186.3240  178.1710  145.5750 C   0  0  0  0  0  0  0  0  0  0  0  0
  185.3630  178.2330  140.7530 C   0  0  0  0  0  3  0  0  0  0  0  0
  185.8130  178.2040  143.1470 C   0  0  0  0  0  0  0  0  0  0  0  0
  183.1400  179.9160  139.2870 C   0  0  0  0  0  1  0  0  0  0  0  0
  184.0100  178.4400  141.0400 C   0  0  0  0  0  0  0  0  0  0  0  0
  188.1040  177.8670  144.3310 C   0  0  0  0  0  0  0  0  0  0  0  0
  186.7400  178.0800  144.2790 C   0  0  0  0  0  0  0  0  0  0  0  0
  188.5470  177.8210  145.6050 N   0  0  0  0  0  2  0  0  0  0  0  0
  184.4350  178.4260  143.4180 C   0  0  0  0  0  0  0  0  0  0  0  0
  188.9590  177.7090  143.2030 N   0  0  0  0  0  1  0  0  0  0  0  0
  184.9190  178.4000  145.9280 C   0  0  0  0  0  0  0  0  0  0  0  0
  183.6960  177.5480  138.1090 F   0  0  0  0  0  0  0  0  0  0  0  0
  182.7600  177.4330  139.1220 C   0  0  0  0  0  0  0  0  0  0  0  0
  181.4970  177.4030  138.5540 F   0  0  0  0  0  0  0  0  0  0  0  0
  182.9770  176.2380  139.7890 F   0  0  0  0  0  0  0  0  0  0  0  0
  180.7680  179.8040  140.6710 C   0  0  0  0  0  2  0  0  0  0  0  0
  179.9860  180.1580  141.9210 C   0  0  0  0  0  1  0  0  0  0  0  0
  1  4  1  0  0  0  0
  3 13  1  6  0  0  0
  3  9  1  0  0  0  0
  3 14  1  0  0  0  0
  5 20  1  0  0  0  0
  7 12  1  0  0  0  0
  8  2  1  0  0  0  0
  8 18  1  0  0  0  0
  9  2  1  0  0  0  0
 10 20  1  0  0  0  0
 10  1  2  0  0  0  0
 11 14  1  0  0  0  0
 11  7  2  0  0  0  0
 12 18  2  0  0  0  0
 12 16  1  0  0  0  0
 14  8  2  0  0  0  0
 15 17  1  0  0  0  0
 16 15  2  0  0  0  0
 16 10  1  0  0  0  0
 17  1  1  0  0  0  0
 18  5  1  0  0  0  0
 19 15  1  0  0  0  0
 20  6  2  0  0  0  0
 21 22  1  0  0  0  0
 22 24  1  0  0  0  0
 22  3  1  0  0  0  0
 23 22  1  0  0  0  0
 25  9  1  0  0  0  0
 25 26  1  0  0  0  0
M  END
>  <MODEL>
5

>  <REMARK>
 VINA RESULT:      -8.5      4.202      7.046
  Name = 
  2 active torsions:
  status: ('A' for Active; 'I' for Inactive)
    1  A    between atoms: C_3  and  C_5
    2  A    between atoms: C_8  and  N_12
                            x       y       z     vdW  Elec       q    Type
                         _______ _______ _______ _____ _____    ______ ____

>  <TORSDO>
F 2

$$$$
=
 OpenBabel10232411023D

 26 29  0  0  1  0  0  0  0  0999 V2000
  187.0660  177.9360  146.1010 C   0  0  0  0  0  0  0  0  0  0  0  0
  190.2720  176.8130  140.2940 C   0  0  0  0  0  2  0  0  0  0  0  0
  188.8020  177.4740  138.5210 C   0  0  1  0  0  0  0  0  0  0  0  0
  187.5630  177.6820  147.4820 C   0  0  0  0  0  1  0  0  0  0  0  0
  189.6080  176.9870  143.2830 C   0  0  0  0  0  2  0  0  0  0  0  0
  189.8370  176.8170  145.6640 O   0  0  0  0  0  0  0  0  0  0  0  0
  186.4840  178.3370  141.4530 C   0  0  0  0  0  3  0  0  0  0  0  0
  189.0070  177.3350  140.8540 C   0  0  0  0  0  0  0  0  0  0  0  0
  190.1990  177.0540  138.8450 N   0  0  0  0  0  0  0  0  0  0  0  0
  187.7600  177.6920  144.9280 C   0  0  0  0  0  0  0  0  0  0  0  0
  186.8900  178.2180  140.1180 C   0  0  0  0  0  3  0  0  0  0  0  0
  187.3460  177.9500  142.4950 C   0  0  0  0  0  0  0  0  0  0  0  0
  187.9810  176.4010  137.7870 C   0  0  0  0  0  1  0  0  0  0  0  0
  188.1670  177.7160  139.8460 C   0  0  0  0  0  0  0  0  0  0  0  0
  185.7780  178.5210  144.4900 C   0  0  0  0  0  0  0  0  0  0  0  0
  186.9420  178.0650  143.9030 C   0  0  0  0  0  0  0  0  0  0  0  0
  185.8430  178.4470  145.8360 N   0  0  0  0  0  2  0  0  0  0  0  0
  188.6360  177.4320  142.2000 C   0  0  0  0  0  0  0  0  0  0  0  0
  184.6380  179.0140  143.7930 N   0  0  0  0  0  1  0  0  0  0  0  0
  189.1030  177.1500  144.6970 C   0  0  0  0  0  0  0  0  0  0  0  0
  187.5850  179.0490  137.1900 F   0  0  0  0  0  0  0  0  0  0  0  0
  188.8480  178.7620  137.6790 C   0  0  0  0  0  0  0  0  0  0  0  0
  189.7100  178.6020  136.6060 F   0  0  0  0  0  0  0  0  0  0  0  0
  189.2800  179.8340  138.4420 F   0  0  0  0  0  0  0  0  0  0  0  0
  190.6460  175.8420  138.1590 C   0  0  0  0  0  2  0  0  0  0  0  0
  191.9280  176.1260  137.4010 C   0  0  0  0  0  1  0  0  0  0  0  0
  1  4  1  0  0  0  0
  2  8  1  0  0  0  0
  3 13  1  6  0  0  0
  3  9  1  0  0  0  0
  3 14  1  0  0  0  0
  5 20  1  0  0  0  0
  7 12  1  0  0  0  0
  8 18  1  0  0  0  0
  9  2  1  0  0  0  0
 10  1  2  0  0  0  0
 11  7  2  0  0  0  0
 12 16  1  0  0  0  0
 14 11  1  0  0  0  0
 14  8  2  0  0  0  0
 15 17  1  0  0  0  0
 16 15  2  0  0  0  0
 16 10  1  0  0  0  0
 17  1  1  0  0  0  0
 18 12  2  0  0  0  0
 18  5  1  0  0  0  0
 19 15  1  0  0  0  0
 20 10  1  0  0  0  0
 20  6  2  0  0  0  0
 21 22  1  0  0  0  0
 22 24  1  0  0  0  0
 22  3  1  0  0  0  0
 23 22  1  0  0  0  0
 25  9  1  0  0  0  0
 26 25  1  0  0  0  0
M  END
>  <MODEL>
6

>  <REMARK>
 VINA RESULT:      -8.4      3.436      4.919
  Name = 
  2 active torsions:
  status: ('A' for Active; 'I' for Inactive)
    1  A    between atoms: C_3  and  C_5
    2  A    between atoms: C_8  and  N_12
                            x       y       z     vdW  Elec       q    Type
                         _______ _______ _______ _____ _____    ______ ____

>  <TORSDO>
F 2

$$$$
=
 OpenBabel10232411023D

 26 29  0  0  1  0  0  0  0  0999 V2000
  182.6670  178.6830  143.3200 C   0  0  0  0  0  0  0  0  0  0  0  0
  188.9720  177.4220  141.3450 C   0  0  0  0  0  2  0  0  0  0  0  0
  190.3460  177.3760  143.3080 C   0  0  1  0  0  0  0  0  0  0  0  0
  181.4520  178.8130  142.4670 C   0  0  0  0  0  1  0  0  0  0  0  0
  185.9490  177.9350  141.3280 C   0  0  0  0  0  2  0  0  0  0  0  0
  183.7120  178.2370  140.5210 O   0  0  0  0  0  0  0  0  0  0  0  0
  187.0020  178.1000  145.0420 C   0  0  0  0  0  3  0  0  0  0  0  0
  188.1450  177.6570  142.5460 C   0  0  0  0  0  0  0  0  0  0  0  0
  190.3160  177.0870  141.8420 N   0  0  0  0  0  0  0  0  0  0  0  0
  183.9500  178.4200  142.8730 C   0  0  0  0  0  0  0  0  0  0  0  0
  188.3760  177.8530  144.9370 C   0  0  0  0  0  3  0  0  0  0  0  0
  186.1940  178.1270  143.8910 C   0  0  0  0  0  0  0  0  0  0  0  0
  191.1620  178.6240  143.6840 C   0  0  0  0  0  1  0  0  0  0  0  0
  188.9230  177.6270  143.6690 C   0  0  0  0  0  0  0  0  0  0  0  0
  183.9230  178.6300  145.0550 C   0  0  0  0  0  0  0  0  0  0  0  0
  184.7500  178.3850  143.9770 C   0  0  0  0  0  0  0  0  0  0  0  0
  182.6450  178.8130  144.6640 N   0  0  0  0  0  2  0  0  0  0  0  0
  186.7690  177.9070  142.6100 C   0  0  0  0  0  0  0  0  0  0  0  0
  184.3360  178.6860  146.4170 N   0  0  0  0  0  1  0  0  0  0  0  0
  184.4750  178.2020  141.5210 C   0  0  0  0  0  0  0  0  0  0  0  0
  190.2150  175.9640  145.2380 F   0  0  0  0  0  0  0  0  0  0  0  0
  190.9020  176.1460  144.0500 C   0  0  0  0  0  0  0  0  0  0  0  0
  192.2440  176.3290  144.3400 F   0  0  0  0  0  0  0  0  0  0  0  0
  190.7640  175.0030  143.2800 F   0  0  0  0  0  0  0  0  0  0  0  0
  191.2930  177.8370  141.0530 C   0  0  0  0  0  2  0  0  0  0  0  0
  191.4830  177.1700  139.7050 C   0  0  0  0  0  1  0  0  0  0  0  0
  1 17  1  0  0  0  0
  2  9  1  0  0  0  0
  2  8  1  0  0  0  0
  3 14  1  0  0  0  0
  3 13  1  1  0  0  0
  3 22  1  0  0  0  0
  4  1  1  0  0  0  0
  5 20  1  0  0  0  0
  5 18  1  0  0  0  0
  6 20  2  0  0  0  0
  8 18  2  0  0  0  0
  8 14  1  0  0  0  0
  9  3  1  0  0  0  0
 10  1  2  0  0  0  0
 10 16  1  0  0  0  0
 11  7  1  0  0  0  0
 12 16  1  0  0  0  0
 12  7  2  0  0  0  0
 14 11  2  0  0  0  0
 15 19  1  0  0  0  0
 16 15  2  0  0  0  0
 17 15  1  0  0  0  0
 18 12  1  0  0  0  0
 20 10  1  0  0  0  0
 22 23  1  0  0  0  0
 22 21  1  0  0  0  0
 24 22  1  0  0  0  0
 25  9  1  0  0  0  0
 26 25  1  0  0  0  0
M  END
>  <MODEL>
7

>  <REMARK>
 VINA RESULT:      -8.4      0.737      1.108
  Name = 
  2 active torsions:
  status: ('A' for Active; 'I' for Inactive)
    1  A    between atoms: C_3  and  C_5
    2  A    between atoms: C_8  and  N_12
                            x       y       z     vdW  Elec       q    Type
                         _______ _______ _______ _____ _____    ______ ____

>  <TORSDO>
F 2

$$$$
=
 OpenBabel10232411023D

 26 29  0  0  1  0  0  0  0  0999 V2000
  189.7160  177.1140  135.7600 C   0  0  0  0  0  0  0  0  0  0  0  0
  191.1070  176.3270  142.2950 C   0  0  0  0  0  2  0  0  0  0  0  0
  189.4980  177.6010  143.5320 C   0  0  1  0  0  0  0  0  0  0  0  0
  190.4350  176.5250  134.5960 C   0  0  0  0  0  1  0  0  0  0  0  0
  191.2100  176.1220  139.2370 C   0  0  0  0  0  2  0  0  0  0  0  0
  191.9200  175.4900  137.0360 O   0  0  0  0  0  0  0  0  0  0  0  0
  188.2060  178.4250  140.0150 C   0  0  0  0  0  3  0  0  0  0  0  0
  190.1610  176.9830  141.3680 C   0  0  0  0  0  0  0  0  0  0  0  0
  190.5900  176.5870  143.6470 N   0  0  0  0  0  0  0  0  0  0  0  0
  190.0340  176.9250  137.0940 C   0  0  1  0  0  3  0  0  0  0  0  0
  188.2480  178.4470  141.4150 C   0  0  0  0  0  3  0  0  0  0  0  0
  189.1500  177.6770  139.2870 C   0  0  0  0  0  0  0  0  0  0  0  0
  189.8830  178.9960  144.0510 C   0  0  0  0  0  1  0  0  0  0  0  0
  189.2390  177.7070  142.0690 C   0  0  0  0  0  0  0  0  0  0  0  0
  188.2900  178.2390  136.8980 C   0  0  0  0  0  0  0  0  0  0  0  0
  189.1260  177.6400  137.8190 C   0  0  0  0  0  0  0  0  0  0  0  0
  188.6410  177.9230  135.6340 N   0  0  0  0  0  0  0  0  0  0  0  0
  190.1560  176.9400  139.9690 C   0  0  0  0  0  0  0  0  0  0  0  0
  187.1880  179.0850  137.2110 N   0  0  0  0  0  1  0  0  0  0  0  0
  191.0980  176.1420  137.7300 C   0  0  0  0  0  0  0  0  0  0  0  0
  188.6060  176.7190  145.5720 F   0  0  0  0  0  0  0  0  0  0  0  0
  188.2560  177.0890  144.2840 C   0  0  0  0  0  0  0  0  0  0  0  0
  187.7260  175.9850  143.6370 F   0  0  0  0  0  0  0  0  0  0  0  0
  187.2840  178.0730  144.3560 F   0  0  0  0  0  0  0  0  0  0  0  0
  191.7110  176.9910  144.4940 C   0  0  0  0  0  2  0  0  0  0  0  0
  191.7130  176.1700  145.7680 C   0  0  0  0  0  1  0  0  0  0  0  0
  2  9  1  0  0  0  0
  3  9  1  0  0  0  0
  3 13  1  1  0  0  0
  3 22  1  0  0  0  0
  4  1  1  0  0  0  0
  5 18  1  0  0  0  0
  6 20  2  0  0  0  0
  7 11  1  0  0  0  0
  8 14  1  0  0  0  0
  8  2  1  0  0  0  0
  9 25  1  0  0  0  0
 10  1  1  1  0  0  0
 10 20  1  0  0  0  0
 10 16  1  0  0  0  0
 11 14  2  0  0  0  0
 12 18  1  0  0  0  0
 12  7  2  0  0  0  0
 14  3  1  0  0  0  0
 15 19  1  0  0  0  0
 15 16  2  0  0  0  0
 16 12  1  0  0  0  0
 17  1  2  0  0  0  0
 17 15  1  0  0  0  0
 18  8  2  0  0  0  0
 20  5  1  0  0  0  0
 22 24  1  0  0  0  0
 22 21  1  0  0  0  0
 23 22  1  0  0  0  0
 25 26  1  0  0  0  0
M  END
>  <MODEL>
8

>  <REMARK>
 VINA RESULT:      -8.0      3.973      6.735
  Name = 
  2 active torsions:
  status: ('A' for Active; 'I' for Inactive)
    1  A    between atoms: C_3  and  C_5
    2  A    between atoms: C_8  and  N_12
                            x       y       z     vdW  Elec       q    Type
                         _______ _______ _______ _____ _____    ______ ____

>  <TORSDO>
F 2

$$$$
=
 OpenBabel10232411023D

 26 29  0  0  1  0  0  0  0  0999 V2000
  187.4630  178.0260  145.7660 C   0  0  0  0  0  0  0  0  0  0  0  0
  185.6010  178.1780  139.3040 C   0  0  0  0  0  2  0  0  0  0  0  0
  183.2510  178.6430  139.2430 C   0  0  1  0  0  0  0  0  0  0  0  0
  188.8220  177.7700  146.3190 C   0  0  0  0  0  1  0  0  0  0  0  0
  187.2770  177.9320  141.8600 C   0  0  0  0  0  2  0  0  0  0  0  0
  189.1630  177.6080  143.3050 O   0  0  0  0  0  0  0  0  0  0  0  0
  183.6810  178.6950  143.0540 C   0  0  0  0  0  3  0  0  0  0  0  0
  185.0830  178.3480  140.6780 C   0  0  0  0  0  0  0  0  0  0  0  0
  184.4850  178.5240  138.4090 N   0  0  0  0  0  0  0  0  0  0  0  0
  187.1210  178.0510  144.4250 C   0  0  0  0  0  0  0  0  0  0  0  0
  183.0120  178.7900  141.8270 C   0  0  0  0  0  3  0  0  0  0  0  0
  185.0610  178.4230  143.0910 C   0  0  0  0  0  0  0  0  0  0  0  0
  182.2600  177.4810  139.0620 C   0  0  0  0  0  1  0  0  0  0  0  0
  183.7440  178.6170  140.6480 C   0  0  0  0  0  0  0  0  0  0  0  0
  185.3620  178.4440  145.6750 C   0  0  0  0  0  0  0  0  0  0  0  0
  185.7840  178.3180  144.3660 C   0  0  0  0  0  0  0  0  0  0  0  0
  186.3820  178.2680  146.5410 N   0  0  0  0  0  2  0  0  0  0  0  0
  185.7860  178.2390  141.8830 C   0  0  0  0  0  0  0  0  0  0  0  0
  184.0290  178.7260  146.0900 N   0  0  0  0  0  1  0  0  0  0  0  0
  187.9300  177.8500  143.2190 C   0  0  0  0  0  0  0  0  0  0  0  0
  181.9670  179.9090  137.6670 F   0  0  0  0  0  0  0  0  0  0  0  0
  182.5540  179.9770  138.9190 C   0  0  0  0  0  0  0  0  0  0  0  0
  183.4760  181.0110  138.9190 F   0  0  0  0  0  0  0  0  0  0  0  0
  181.5700  180.2570  139.8530 F   0  0  0  0  0  0  0  0  0  0  0  0
  184.4150  177.5100  137.3570 C   0  0  0  0  0  2  0  0  0  0  0  0
  185.7670  176.8420  137.1980 C   0  0  0  0  0  1  0  0  0  0  0  0
  1  4  1  0  0  0  0
  1 17  1  0  0  0  0
  2  8  1  0  0  0  0
  3 13  1  6  0  0  0
  3 14  1  0  0  0  0
  5 18  1  0  0  0  0
  5 20  1  0  0  0  0
  7 12  1  0  0  0  0
  8 18  1  0  0  0  0
  9  3  1  0  0  0  0
  9  2  1  0  0  0  0
 10  1  2  0  0  0  0
 11  7  2  0  0  0  0
 12 16  1  0  0  0  0
 14  8  2  0  0  0  0
 14 11  1  0  0  0  0
 15 19  1  0  0  0  0
 15 17  1  0  0  0  0
 16 10  1  0  0  0  0
 16 15  2  0  0  0  0
 18 12  2  0  0  0  0
 20  6  2  0  0  0  0
 20 10  1  0  0  0  0
 21 22  1  0  0  0  0
 22  3  1  0  0  0  0
 22 24  1  0  0  0  0
 23 22  1  0  0  0  0
 25  9  1  0  0  0  0
 26 25  1  0  0  0  0
M  END
>  <MODEL>
9

>  <REMARK>
 VINA RESULT:      -7.8      4.612      6.609
  Name = 
  2 active torsions:
  status: ('A' for Active; 'I' for Inactive)
    1  A    between atoms: C_3  and  C_5
    2  A    between atoms: C_8  and  N_12
                            x       y       z     vdW  Elec       q    Type
                         _______ _______ _______ _____ _____    ______ ____

>  <TORSDO>
F 2

$$$$
