=
 OpenBabel10232408053D

 38 44  0  0  1  0  0  0  0  0999 V2000
  179.9820  179.9100  138.2050 C   0  0  0  0  0  1  0  0  0  0  0  0
  183.3980  178.5420  141.4750 C   0  0  1  0  0  3  0  0  0  0  0  0
  183.3560  177.4840  140.3630 C   0  0  0  0  0  2  0  0  0  0  0  0
  181.1070  178.4320  139.8320 C   0  0  0  0  0  0  0  0  0  0  0  0
  181.9330  177.2460  138.1160 C   0  0  0  0  0  0  0  0  0  0  0  0
  180.7920  177.6810  137.6700 N   0  0  0  0  0  0  0  0  0  0  0  0
  180.1370  178.4850  138.6990 C   0  0  2  0  0  3  0  0  0  0  0  0
  180.9760  179.1460  141.1470 C   0  0  0  0  0  2  0  0  0  0  0  0
  182.0310  178.6690  142.1550 C   0  0  0  0  0  2  0  0  0  0  0  0
  182.1690  177.7250  139.4710 C   0  0  0  0  0  0  0  0  0  0  0  0
  183.2380  175.2260  137.8150 C   0  0  0  0  0  3  0  0  0  0  0  0
  186.1550  175.8830  136.8770 C   0  0  0  0  0  0  0  0  0  0  0  0
  185.6540  176.8590  136.1070 C   0  0  0  0  0  0  0  0  0  0  0  0
  183.1340  176.7480  135.9120 C   0  0  0  0  0  3  0  0  0  0  0  0
  184.1140  174.3050  137.0410 C   0  0  0  0  0  2  0  0  0  0  0  0
  184.3580  176.9130  135.3970 C   0  0  0  0  0  3  0  0  0  0  0  0
  185.5020  174.6660  137.2630 N   0  0  0  0  0  2  0  0  0  0  0  0
  187.8360  176.1630  137.4200 S   0  0  0  0  0  0  0  0  0  0  0  0
  186.6180  177.9720  135.8720 C   0  0  0  0  0  2  0  0  0  0  0  0
  182.8240  176.3890  137.3100 C   0  0  0  0  0  0  0  0  0  0  0  0
  187.6230  177.9180  137.0110 C   0  0  0  0  0  2  0  0  0  0  0  0
  186.3710  177.8640  144.4560 C   0  0  2  0  0  3  0  0  0  0  0  0
  185.9320  178.0550  141.9290 C   0  0  1  0  0  3  0  0  0  0  0  0
  186.5300  179.2710  141.2360 C   0  0  0  0  0  1  0  0  0  0  0  0
  184.5180  179.3820  143.6180 C   0  0  0  0  0  2  0  0  0  0  0  0
  186.8930  177.5870  143.0360 C   0  0  0  0  0  2  0  0  0  0  0  0
  185.7290  179.2500  144.5540 C   0  0  0  0  0  2  0  0  0  0  0  0
  184.5230  178.3360  142.4940 C   0  0  1  0  0  3  0  0  0  0  0  0
  191.9450  176.5280  146.8060 C   0  0  0  0  0  3  0  0  0  0  0  0
  189.3990  177.4090  147.4720 C   0  0  0  0  0  0  0  0  0  0  0  0
  187.1410  177.9920  146.8240 C   0  0  0  0  0  3  0  0  0  0  0  0
  191.6160  176.8630  148.1240 C   0  0  0  0  0  3  0  0  0  0  0  0
  189.6940  177.0830  146.1310 C   0  0  0  0  0  0  0  0  0  0  0  0
  190.9770  176.6410  145.8040 C   0  0  0  0  0  3  0  0  0  0  0  0
  187.4320  177.6740  145.4910 C   0  0  0  0  0  0  0  0  0  0  0  0
  188.1210  177.8600  147.8130 C   0  0  0  0  0  3  0  0  0  0  0  0
  188.7140  177.2190  145.1450 C   0  0  0  0  0  3  0  0  0  0  0  0
  190.3610  177.2940  148.4270 N   0  0  0  0  0  0  0  0  0  0  0  0
  2  3  1  6  0  0  0
  2  9  1  0  0  0  0
  2 28  1  0  0  0  0
  4  8  1  0  0  0  0
  5 10  1  0  0  0  0
  6  5  2  0  0  0  0
  6  7  1  0  0  0  0
  7  1  1  6  0  0  0
  7  4  1  0  0  0  0
  8  9  1  0  0  0  0
 10  4  2  0  0  0  0
 10  3  1  0  0  0  0
 12 17  1  0  0  0  0
 12 18  1  0  0  0  0
 13 12  2  0  0  0  0
 14 20  1  0  0  0  0
 15 17  1  0  0  0  0
 15 11  1  0  0  0  0
 16 14  2  0  0  0  0
 16 13  1  0  0  0  0
 19 13  1  0  0  0  0
 19 21  1  0  0  0  0
 20 11  2  0  0  0  0
 20  5  1  0  0  0  0
 21 18  1  0  0  0  0
 22 27  1  0  0  0  0
 22 35  1  1  0  0  0
 23 24  1  1  0  0  0
 23 28  1  0  0  0  0
 23 26  1  0  0  0  0
 25 27  1  0  0  0  0
 26 22  1  0  0  0  0
 28 25  1  6  0  0  0
 29 32  1  0  0  0  0
 30 36  1  0  0  0  0
 30 38  1  0  0  0  0
 31 36  2  0  0  0  0
 32 38  2  0  0  0  0
 33 30  2  0  0  0  0
 34 33  1  0  0  0  0
 34 29  2  0  0  0  0
 35 31  1  0  0  0  0
 37 35  2  0  0  0  0
 37 33  1  0  0  0  0
M  END
>  <MODEL>
1

>  <REMARK>
 VINA RESULT:      -9.8      0.000      0.000
  Name = 
  3 active torsions:
  status: ('A' for Active; 'I' for Inactive)
    1  A    between atoms: C_2  and  C_36
    2  A    between atoms: C_8  and  C_23
    3  A    between atoms: C_18  and  C_37
                            x       y       z     vdW  Elec       q    Type
                         _______ _______ _______ _____ _____    ______ ____

>  <TORSDO>
F 3

$$$$
=
 OpenBabel10232408053D

 38 44  0  0  1  0  0  0  0  0999 V2000
  192.6100  176.3020  134.3460 C   0  0  0  0  0  1  0  0  0  0  0  0
  190.6320  176.4670  138.8510 C   0  0  1  0  0  3  0  0  0  0  0  0
  191.7750  175.4410  138.8720 C   0  0  0  0  0  2  0  0  0  0  0  0
  191.5300  175.4260  136.3870 C   0  0  0  0  0  0  0  0  0  0  0  0
  193.5150  174.6010  137.0290 C   0  0  0  0  0  0  0  0  0  0  0  0
  193.5620  174.5460  135.7310 N   0  0  0  0  0  0  0  0  0  0  0  0
  192.3170  175.0650  135.1720 C   0  0  2  0  0  3  0  0  0  0  0  0
  190.1750  176.0740  136.4070 C   0  0  0  0  0  2  0  0  0  0  0  0
  189.5710  176.0750  137.8180 C   0  0  0  0  0  2  0  0  0  0  0  0
  192.2510  175.1750  137.4700 C   0  0  0  0  0  0  0  0  0  0  0  0
  195.2520  175.0060  138.6700 C   0  0  0  0  0  3  0  0  0  0  0  0
  198.0040  173.8370  137.7290 C   0  0  0  0  0  0  0  0  0  0  0  0
  197.3470  172.7830  137.2240 C   0  0  0  0  0  0  0  0  0  0  0  0
  194.9320  172.6910  137.9710 C   0  0  0  0  0  3  0  0  0  0  0  0
  196.3570  174.5880  139.5750 C   0  0  0  0  0  2  0  0  0  0  0  0
  196.1190  172.1260  137.7190 C   0  0  0  0  0  3  0  0  0  0  0  0
  197.6140  174.6400  138.8500 N   0  0  0  0  0  2  0  0  0  0  0  0
  199.5420  174.2120  136.8990 S   0  0  0  0  0  0  0  0  0  0  0  0
  198.0530  172.1510  136.0720 C   0  0  0  0  0  2  0  0  0  0  0  0
  194.6230  174.1310  137.8840 C   0  0  0  0  0  0  0  0  0  0  0  0
  198.9710  173.2150  135.4940 C   0  0  0  0  0  2  0  0  0  0  0  0
  188.7050  177.1480  142.5930 C   0  0  2  0  0  3  0  0  0  0  0  0
  190.9400  176.5900  141.4500 C   0  0  1  0  0  3  0  0  0  0  0  0
  192.0090  177.6710  141.5060 C   0  0  0  0  0  1  0  0  0  0  0  0
  189.1720  178.0280  140.2590 C   0  0  0  0  0  2  0  0  0  0  0  0
  190.1360  176.6110  142.7620 C   0  0  0  0  0  2  0  0  0  0  0  0
  188.6720  178.3690  141.6710 C   0  0  0  0  0  2  0  0  0  0  0  0
  190.0130  176.7440  140.2250 C   0  0  1  0  0  3  0  0  0  0  0  0
  188.2270  178.0520  148.7040 C   0  0  0  0  0  3  0  0  0  0  0  0
  186.7850  178.0480  146.3310 C   0  0  0  0  0  0  0  0  0  0  0  0
  186.6890  177.7480  143.9320 C   0  0  0  0  0  3  0  0  0  0  0  0
  186.8640  178.3690  148.6840 C   0  0  0  0  0  3  0  0  0  0  0  0
  188.1590  177.7260  146.3120 C   0  0  0  0  0  0  0  0  0  0  0  0
  188.8770  177.7310  147.5080 C   0  0  0  0  0  3  0  0  0  0  0  0
  188.0540  177.4330  143.9080 C   0  0  0  0  0  0  0  0  0  0  0  0
  186.0550  178.0560  145.1400 C   0  0  0  0  0  3  0  0  0  0  0  0
  188.7900  177.4240  145.1030 C   0  0  0  0  0  3  0  0  0  0  0  0
  186.1770  178.3610  147.5080 N   0  0  0  0  0  0  0  0  0  0  0  0
  2  9  1  6  0  0  0
  2  3  1  0  0  0  0
  2 28  1  0  0  0  0
  4  8  1  0  0  0  0
  4 10  2  0  0  0  0
  5 10  1  0  0  0  0
  5 20  1  0  0  0  0
  6  5  2  0  0  0  0
  7  1  1  6  0  0  0
  7  6  1  0  0  0  0
  7  4  1  0  0  0  0
  8  9  1  0  0  0  0
 10  3  1  0  0  0  0
 11 15  1  0  0  0  0
 12 17  1  0  0  0  0
 13 16  1  0  0  0  0
 13 12  2  0  0  0  0
 16 14  2  0  0  0  0
 17 15  1  0  0  0  0
 18 12  1  0  0  0  0
 19 13  1  0  0  0  0
 20 14  1  0  0  0  0
 20 11  2  0  0  0  0
 21 19  1  0  0  0  0
 21 18  1  0  0  0  0
 22 26  1  0  0  0  0
 22 35  1  1  0  0  0
 23 24  1  1  0  0  0
 23 26  1  0  0  0  0
 25 27  1  0  0  0  0
 27 22  1  0  0  0  0
 28 25  1  6  0  0  0
 28 23  1  0  0  0  0
 30 38  1  0  0  0  0
 31 36  1  0  0  0  0
 32 29  1  0  0  0  0
 33 30  1  0  0  0  0
 33 34  1  0  0  0  0
 34 29  2  0  0  0  0
 35 31  2  0  0  0  0
 35 37  1  0  0  0  0
 36 30  2  0  0  0  0
 37 33  2  0  0  0  0
 38 32  2  0  0  0  0
M  END
>  <MODEL>
2

>  <REMARK>
 VINA RESULT:      -8.9      6.543      9.205
  Name = 
  3 active torsions:
  status: ('A' for Active; 'I' for Inactive)
    1  A    between atoms: C_2  and  C_36
    2  A    between atoms: C_8  and  C_23
    3  A    between atoms: C_18  and  C_37
                            x       y       z     vdW  Elec       q    Type
                         _______ _______ _______ _____ _____    ______ ____

>  <TORSDO>
F 3

$$$$
=
 OpenBabel10232408053D

 38 44  0  0  1  0  0  0  0  0999 V2000
  186.3560  178.9400  146.0070 C   0  0  0  0  0  1  0  0  0  0  0  0
  188.8480  177.3690  142.0630 C   0  0  1  0  0  3  0  0  0  0  0  0
  187.3650  177.4740  141.6760 C   0  0  0  0  0  2  0  0  0  0  0  0
  186.9350  177.4360  144.1360 C   0  0  0  0  0  0  0  0  0  0  0  0
  185.1790  178.2470  143.0000 C   0  0  0  0  0  0  0  0  0  0  0  0
  184.8040  178.3190  144.2420 N   0  0  0  0  0  0  0  0  0  0  0  0
  185.8700  177.8210  145.1070 C   0  0  2  0  0  3  0  0  0  0  0  0
  188.3020  176.9130  144.4770 C   0  0  0  0  0  2  0  0  0  0  0  0
  189.0360  176.3980  143.2320 C   0  0  0  0  0  2  0  0  0  0  0  0
  186.5320  177.7140  142.9050 C   0  0  0  0  0  0  0  0  0  0  0  0
  183.0010  178.4090  141.9490 C   0  0  0  0  0  3  0  0  0  0  0  0
  183.0800  177.3620  138.9960 C   0  0  0  0  0  0  0  0  0  0  0  0
  184.2880  177.9290  138.8610 C   0  0  0  0  0  0  0  0  0  0  0  0
  184.8570  179.4760  140.7800 C   0  0  0  0  0  3  0  0  0  0  0  0
  182.0680  178.8300  140.8680 C   0  0  0  0  0  2  0  0  0  0  0  0
  184.8100  179.1660  139.4780 C   0  0  0  0  0  3  0  0  0  0  0  0
  182.0150  177.7940  139.8530 N   0  0  0  0  0  2  0  0  0  0  0  0
  182.8110  175.9430  137.9420 S   0  0  0  0  0  0  0  0  0  0  0  0
  185.1450  177.2430  137.8520 C   0  0  0  0  0  2  0  0  0  0  0  0
  184.3090  178.6640  141.8830 C   0  0  0  0  0  0  0  0  0  0  0  0
  184.6080  175.8280  137.7210 C   0  0  0  0  0  2  0  0  0  0  0  0
  191.5240  176.2600  138.9330 C   0  0  2  0  0  3  0  0  0  0  0  0
  189.2360  177.3030  139.4720 C   0  0  1  0  0  3  0  0  0  0  0  0
  189.0910  178.7880  139.1780 C   0  0  0  0  0  1  0  0  0  0  0  0
  191.2130  177.5460  141.0990 C   0  0  0  0  0  2  0  0  0  0  0  0
  190.1390  176.6650  138.4020 C   0  0  0  0  0  2  0  0  0  0  0  0
  192.1000  177.3300  139.8640 C   0  0  0  0  0  2  0  0  0  0  0  0
  189.7790  177.0360  140.8930 C   0  0  1  0  0  3  0  0  0  0  0  0
  196.6700  174.1430  136.2100 C   0  0  0  0  0  3  0  0  0  0  0  0
  194.1720  175.2420  135.7050 C   0  0  0  0  0  0  0  0  0  0  0  0
  192.0660  176.1270  136.5030 C   0  0  0  0  0  3  0  0  0  0  0  0
  196.2240  174.3560  134.9010 C   0  0  0  0  0  3  0  0  0  0  0  0
  194.5860  175.0390  137.0380 C   0  0  0  0  0  0  0  0  0  0  0  0
  195.8430  174.4850  137.2840 C   0  0  0  0  0  3  0  0  0  0  0  0
  192.4710  175.9220  137.8280 C   0  0  0  0  0  0  0  0  0  0  0  0
  192.9130  175.7880  135.4430 C   0  0  0  0  0  3  0  0  0  0  0  0
  193.7360  175.3740  138.0950 C   0  0  0  0  0  3  0  0  0  0  0  0
  194.9940  174.8970  134.6770 N   0  0  0  0  0  0  0  0  0  0  0  0
  2  3  1  6  0  0  0
  2  9  1  0  0  0  0
  3 10  1  0  0  0  0
  4  8  1  0  0  0  0
  4  7  1  0  0  0  0
  5  6  2  0  0  0  0
  6  7  1  0  0  0  0
  7  1  1  1  0  0  0
  9  8  1  0  0  0  0
 10  5  1  0  0  0  0
 10  4  2  0  0  0  0
 12 17  1  0  0  0  0
 13 12  2  0  0  0  0
 13 16  1  0  0  0  0
 14 20  1  0  0  0  0
 15 11  1  0  0  0  0
 16 14  2  0  0  0  0
 17 15  1  0  0  0  0
 18 12  1  0  0  0  0
 19 13  1  0  0  0  0
 20 11  2  0  0  0  0
 20  5  1  0  0  0  0
 21 19  1  0  0  0  0
 21 18  1  0  0  0  0
 22 35  1  6  0  0  0
 22 27  1  0  0  0  0
 23 24  1  6  0  0  0
 23 28  1  0  0  0  0
 26 22  1  0  0  0  0
 26 23  1  0  0  0  0
 27 25  1  0  0  0  0
 28 25  1  1  0  0  0
 28  2  1  0  0  0  0
 29 34  1  0  0  0  0
 30 33  1  0  0  0  0
 31 35  1  0  0  0  0
 32 29  2  0  0  0  0
 33 34  2  0  0  0  0
 33 37  1  0  0  0  0
 35 37  2  0  0  0  0
 36 30  1  0  0  0  0
 36 31  2  0  0  0  0
 38 32  1  0  0  0  0
 38 30  2  0  0  0  0
M  END
>  <MODEL>
3

>  <REMARK>
 VINA RESULT:      -8.9      4.689      8.068
  Name = 
  3 active torsions:
  status: ('A' for Active; 'I' for Inactive)
    1  A    between atoms: C_2  and  C_36
    2  A    between atoms: C_8  and  C_23
    3  A    between atoms: C_18  and  C_37
                            x       y       z     vdW  Elec       q    Type
                         _______ _______ _______ _____ _____    ______ ____

>  <TORSDO>
F 3

$$$$
=
 OpenBabel10232408053D

 38 44  0  0  1  0  0  0  0  0999 V2000
  186.0670  179.1500  146.6020 C   0  0  0  0  0  1  0  0  0  0  0  0
  188.2710  177.5400  142.5050 C   0  0  1  0  0  3  0  0  0  0  0  0
  186.7630  177.6340  142.2270 C   0  0  0  0  0  2  0  0  0  0  0  0
  186.5160  177.6250  144.7130 C   0  0  0  0  0  0  0  0  0  0  0  0
  184.6760  178.4130  143.6990 C   0  0  0  0  0  0  0  0  0  0  0  0
  184.3930  178.5000  144.9640 N   0  0  0  0  0  0  0  0  0  0  0  0
  185.5220  178.0170  145.7540 C   0  0  2  0  0  3  0  0  0  0  0  0
  187.9060  177.1130  144.9590 C   0  0  0  0  0  2  0  0  0  0  0  0
  188.5490  176.5850  143.6690 C   0  0  0  0  0  2  0  0  0  0  0  0
  186.0210  177.8850  143.5110 C   0  0  0  0  0  0  0  0  0  0  0  0
  182.4170  178.7960  142.9090 C   0  0  0  0  0  3  0  0  0  0  0  0
  181.9040  177.3490  140.1770 C   0  0  0  0  0  0  0  0  0  0  0  0
  183.1500  177.6770  139.8060 C   0  0  0  0  0  0  0  0  0  0  0  0
  184.2190  179.3570  141.3650 C   0  0  0  0  0  3  0  0  0  0  0  0
  181.4090  179.2140  141.8970 C   0  0  0  0  0  2  0  0  0  0  0  0
  183.9360  178.8810  140.1470 C   0  0  0  0  0  3  0  0  0  0  0  0
  181.0530  178.0710  141.0770 N   0  0  0  0  0  2  0  0  0  0  0  0
  181.2740  175.8630  139.4070 S   0  0  0  0  0  0  0  0  0  0  0  0
  183.7380  176.7210  138.8230 C   0  0  0  0  0  2  0  0  0  0  0  0
  183.7230  178.8120  142.6440 C   0  0  0  0  0  0  0  0  0  0  0  0
  182.9820  175.4130  138.9900 C   0  0  0  0  0  2  0  0  0  0  0  0
  190.6850  176.3830  139.1860 C   0  0  2  0  0  3  0  0  0  0  0  0
  188.5660  177.6510  139.9040 C   0  0  1  0  0  3  0  0  0  0  0  0
  188.6030  179.1630  139.7390 C   0  0  0  0  0  1  0  0  0  0  0  0
  190.6080  177.5060  141.4600 C   0  0  0  0  0  2  0  0  0  0  0  0
  189.3470  177.0020  138.7480 C   0  0  0  0  0  2  0  0  0  0  0  0
  191.4210  177.2880  140.1760 C   0  0  0  0  0  2  0  0  0  0  0  0
  189.1150  177.1970  141.2740 C   0  0  1  0  0  3  0  0  0  0  0  0
  195.6710  174.3540  136.1190 C   0  0  0  0  0  3  0  0  0  0  0  0
  193.0850  175.3070  135.7870 C   0  0  0  0  0  0  0  0  0  0  0  0
  191.0160  176.1380  136.7270 C   0  0  0  0  0  3  0  0  0  0  0  0
  195.1010  174.4720  134.8470 C   0  0  0  0  0  3  0  0  0  0  0  0
  193.6260  175.1990  137.0860 C   0  0  0  0  0  0  0  0  0  0  0  0
  194.9260  174.7180  137.2450 C   0  0  0  0  0  3  0  0  0  0  0  0
  191.5470  176.0270  138.0180 C   0  0  0  0  0  0  0  0  0  0  0  0
  191.7820  175.7790  135.6130 C   0  0  0  0  0  3  0  0  0  0  0  0
  192.8570  175.5540  138.1970 C   0  0  0  0  0  3  0  0  0  0  0  0
  193.8300  174.9420  134.7090 N   0  0  0  0  0  0  0  0  0  0  0  0
  2  3  1  6  0  0  0
  2  9  1  0  0  0  0
  3 10  1  0  0  0  0
  4  8  1  0  0  0  0
  4  7  1  0  0  0  0
  5  6  2  0  0  0  0
  6  7  1  0  0  0  0
  7  1  1  1  0  0  0
  9  8  1  0  0  0  0
 10  5  1  0  0  0  0
 10  4  2  0  0  0  0
 12 17  1  0  0  0  0
 13 16  1  0  0  0  0
 13 12  2  0  0  0  0
 14 20  1  0  0  0  0
 15 11  1  0  0  0  0
 16 14  2  0  0  0  0
 17 15  1  0  0  0  0
 18 12  1  0  0  0  0
 19 21  1  0  0  0  0
 19 13  1  0  0  0  0
 20 11  2  0  0  0  0
 20  5  1  0  0  0  0
 21 18  1  0  0  0  0
 22 35  1  6  0  0  0
 22 27  1  0  0  0  0
 23 24  1  6  0  0  0
 23 28  1  0  0  0  0
 26 22  1  0  0  0  0
 26 23  1  0  0  0  0
 27 25  1  0  0  0  0
 28 25  1  1  0  0  0
 28  2  1  0  0  0  0
 29 34  1  0  0  0  0
 30 33  1  0  0  0  0
 31 35  1  0  0  0  0
 32 29  2  0  0  0  0
 33 34  2  0  0  0  0
 33 37  1  0  0  0  0
 35 37  2  0  0  0  0
 36 30  1  0  0  0  0
 36 31  2  0  0  0  0
 38 32  1  0  0  0  0
 38 30  2  0  0  0  0
M  END
>  <MODEL>
4

>  <REMARK>
 VINA RESULT:      -8.6      4.247      8.032
  Name = 
  3 active torsions:
  status: ('A' for Active; 'I' for Inactive)
    1  A    between atoms: C_2  and  C_36
    2  A    between atoms: C_8  and  C_23
    3  A    between atoms: C_18  and  C_37
                            x       y       z     vdW  Elec       q    Type
                         _______ _______ _______ _____ _____    ______ ____

>  <TORSDO>
F 3

$$$$
=
 OpenBabel10232408053D

 38 44  0  0  1  0  0  0  0  0999 V2000
  188.6830  178.4320  148.6460 C   0  0  0  0  0  1  0  0  0  0  0  0
  189.5310  177.3370  143.9230 C   0  0  1  0  0  3  0  0  0  0  0  0
  188.0240  177.5790  144.0900 C   0  0  0  0  0  2  0  0  0  0  0  0
  188.4440  177.1960  146.5220 C   0  0  0  0  0  0  0  0  0  0  0  0
  186.5000  178.2610  146.1740 C   0  0  0  0  0  0  0  0  0  0  0  0
  186.5730  178.1670  147.4680 N   0  0  0  0  0  0  0  0  0  0  0  0
  187.8110  177.4880  147.8420 C   0  0  2  0  0  3  0  0  0  0  0  0
  189.7840  176.5560  146.3020 C   0  0  0  0  0  2  0  0  0  0  0  0
  190.0010  176.1930  144.8270 C   0  0  0  0  0  2  0  0  0  0  0  0
  187.6800  177.6760  145.5510 C   0  0  0  0  0  0  0  0  0  0  0  0
  184.1350  178.3660  145.6510 C   0  0  0  0  0  3  0  0  0  0  0  0
  183.6580  178.5670  142.5600 C   0  0  0  0  0  0  0  0  0  0  0  0
  184.7250  179.3740  142.4810 C   0  0  0  0  0  0  0  0  0  0  0  0
  185.5300  180.1520  144.7490 C   0  0  0  0  0  3  0  0  0  0  0  0
  182.9350  178.9680  145.0100 C   0  0  0  0  0  2  0  0  0  0  0  0
  185.2220  180.3600  143.4640 C   0  0  0  0  0  3  0  0  0  0  0  0
  182.7750  178.4110  143.6790 N   0  0  0  0  0  2  0  0  0  0  0  0
  183.3270  177.6350  141.0710 S   0  0  0  0  0  0  0  0  0  0  0  0
  185.4040  179.3170  141.1540 C   0  0  0  0  0  2  0  0  0  0  0  0
  185.3520  178.8870  145.4880 C   0  0  0  0  0  0  0  0  0  0  0  0
  185.0260  177.9820  140.5350 C   0  0  0  0  0  2  0  0  0  0  0  0
  190.8940  176.5800  139.9530 C   0  0  2  0  0  3  0  0  0  0  0  0
  188.9580  177.5040  141.3720 C   0  0  1  0  0  3  0  0  0  0  0  0
  188.7210  179.0050  141.2850 C   0  0  0  0  0  1  0  0  0  0  0  0
  191.3890  177.6670  142.1930 C   0  0  0  0  0  2  0  0  0  0  0  0
  189.4110  176.9880  139.9950 C   0  0  0  0  0  2  0  0  0  0  0  0
  191.7700  177.5840  140.7070 C   0  0  0  0  0  2  0  0  0  0  0  0
  189.9760  177.1340  142.4710 C   0  0  1  0  0  3  0  0  0  0  0  0
  194.8650  175.3320  135.3650 C   0  0  0  0  0  3  0  0  0  0  0  0
  192.2050  175.9030  135.9170 C   0  0  0  0  0  0  0  0  0  0  0  0
  190.4520  176.4140  137.5050 C   0  0  0  0  0  3  0  0  0  0  0  0
  193.9080  175.3800  134.3460 C   0  0  0  0  0  3  0  0  0  0  0  0
  193.1410  175.8590  136.9720 C   0  0  0  0  0  0  0  0  0  0  0  0
  194.4770  175.5710  136.6860 C   0  0  0  0  0  3  0  0  0  0  0  0
  191.3780  176.3660  138.5560 C   0  0  0  0  0  0  0  0  0  0  0  0
  190.8630  176.1820  136.1890 C   0  0  0  0  0  3  0  0  0  0  0  0
  192.7270  176.0870  138.2860 C   0  0  0  0  0  3  0  0  0  0  0  0
  192.6090  175.6620  134.6400 N   0  0  0  0  0  0  0  0  0  0  0  0
  2  3  1  6  0  0  0
  2  9  1  0  0  0  0
  3 10  1  0  0  0  0
  4  7  1  0  0  0  0
  5  6  2  0  0  0  0
  6  7  1  0  0  0  0
  7  1  1  1  0  0  0
  8  4  1  0  0  0  0
  9  8  1  0  0  0  0
 10  5  1  0  0  0  0
 10  4  2  0  0  0  0
 12 17  1  0  0  0  0
 13 12  2  0  0  0  0
 13 16  1  0  0  0  0
 14 20  1  0  0  0  0
 15 11  1  0  0  0  0
 16 14  2  0  0  0  0
 17 15  1  0  0  0  0
 18 12  1  0  0  0  0
 19 13  1  0  0  0  0
 20 11  2  0  0  0  0
 20  5  1  0  0  0  0
 21 18  1  0  0  0  0
 21 19  1  0  0  0  0
 22 35  1  6  0  0  0
 22 26  1  0  0  0  0
 22 27  1  0  0  0  0
 23 24  1  6  0  0  0
 23 28  1  0  0  0  0
 26 23  1  0  0  0  0
 27 25  1  0  0  0  0
 28 25  1  6  0  0  0
 28  2  1  0  0  0  0
 29 34  1  0  0  0  0
 30 36  1  0  0  0  0
 30 33  1  0  0  0  0
 31 35  1  0  0  0  0
 32 38  1  0  0  0  0
 32 29  2  0  0  0  0
 33 37  1  0  0  0  0
 34 33  2  0  0  0  0
 36 31  2  0  0  0  0
 37 35  2  0  0  0  0
 38 30  2  0  0  0  0
M  END
>  <MODEL>
5

>  <REMARK>
 VINA RESULT:      -8.5      3.906      9.026
  Name = 
  3 active torsions:
  status: ('A' for Active; 'I' for Inactive)
    1  A    between atoms: C_2  and  C_36
    2  A    between atoms: C_8  and  C_23
    3  A    between atoms: C_18  and  C_37
                            x       y       z     vdW  Elec       q    Type
                         _______ _______ _______ _____ _____    ______ ____

>  <TORSDO>
F 3

$$$$
=
 OpenBabel10232408053D

 38 44  0  0  1  0  0  0  0  0999 V2000
  191.9270  174.7070  134.4430 C   0  0  0  0  0  1  0  0  0  0  0  0
  189.9440  176.1440  138.7130 C   0  0  1  0  0  3  0  0  0  0  0  0
  188.8280  175.5340  137.8530 C   0  0  0  0  0  2  0  0  0  0  0  0
  190.3790  175.9210  135.9340 C   0  0  0  0  0  0  0  0  0  0  0  0
  188.7870  174.4250  135.4250 C   0  0  0  0  0  0  0  0  0  0  0  0
  189.5080  174.4870  134.3460 N   0  0  0  0  0  0  0  0  0  0  0  0
  190.6020  175.4360  134.5410 C   0  0  2  0  0  3  0  0  0  0  0  0
  191.2530  176.8780  136.6920 C   0  0  0  0  0  2  0  0  0  0  0  0
  190.5900  177.3350  137.9990 C   0  0  0  0  0  2  0  0  0  0  0  0
  189.3280  175.3030  136.4540 C   0  0  0  0  0  0  0  0  0  0  0  0
  187.0400  173.0780  134.4190 C   0  0  0  0  0  3  0  0  0  0  0  0
  184.2120  173.8840  135.5050 C   0  0  0  0  0  0  0  0  0  0  0  0
  184.7600  174.0470  136.7170 C   0  0  0  0  0  0  0  0  0  0  0  0
  187.1110  173.1250  136.8570 C   0  0  0  0  0  3  0  0  0  0  0  0
  185.8540  172.1800  134.4630 C   0  0  0  0  0  2  0  0  0  0  0  0
  185.8780  173.3090  137.3420 C   0  0  0  0  0  3  0  0  0  0  0  0
  184.6460  172.9840  134.4760 N   0  0  0  0  0  2  0  0  0  0  0  0
  182.7670  174.8940  135.2070 S   0  0  0  0  0  0  0  0  0  0  0  0
  184.0340  175.0440  137.5570 C   0  0  0  0  0  2  0  0  0  0  0  0
  187.5940  173.5610  135.5320 C   0  0  0  0  0  0  0  0  0  0  0  0
  183.2760  175.9450  136.5960 C   0  0  0  0  0  2  0  0  0  0  0  0
  188.5330  177.0420  142.6360 C   0  0  2  0  0  3  0  0  0  0  0  0
  190.6010  176.4330  141.2330 C   0  0  1  0  0  3  0  0  0  0  0  0
  191.6490  177.5240  141.0760 C   0  0  0  0  0  1  0  0  0  0  0  0
  188.6630  177.7780  140.2100 C   0  0  0  0  0  2  0  0  0  0  0  0
  189.9830  176.5290  142.6390 C   0  0  0  0  0  2  0  0  0  0  0  0
  188.3540  178.2020  141.6540 C   0  0  0  0  0  2  0  0  0  0  0  0
  189.5140  176.5020  140.1390 C   0  0  1  0  0  3  0  0  0  0  0  0
  188.8090  177.9890  148.7520 C   0  0  0  0  0  3  0  0  0  0  0  0
  187.1390  178.1670  146.5420 C   0  0  0  0  0  0  0  0  0  0  0  0
  186.7570  177.8850  144.1690 C   0  0  0  0  0  3  0  0  0  0  0  0
  187.5020  178.4720  148.8690 C   0  0  0  0  0  3  0  0  0  0  0  0
  188.4530  177.6780  146.3840 C   0  0  0  0  0  0  0  0  0  0  0  0
  189.2870  177.5920  147.5000 C   0  0  0  0  0  3  0  0  0  0  0  0
  188.0630  177.4030  144.0070 C   0  0  0  0  0  0  0  0  0  0  0  0
  186.2950  178.2660  145.4320 C   0  0  0  0  0  3  0  0  0  0  0  0
  188.9130  177.3010  145.1200 C   0  0  0  0  0  3  0  0  0  0  0  0
  186.7000  178.5510  147.7710 N   0  0  0  0  0  0  0  0  0  0  0  0
  2  3  1  6  0  0  0
  2 28  1  0  0  0  0
  4 10  2  0  0  0  0
  4  8  1  0  0  0  0
  5 20  1  0  0  0  0
  5 10  1  0  0  0  0
  6  7  1  0  0  0  0
  6  5  2  0  0  0  0
  7  1  1  1  0  0  0
  7  4  1  0  0  0  0
  8  9  1  0  0  0  0
  9  2  1  0  0  0  0
 10  3  1  0  0  0  0
 11 15  1  0  0  0  0
 11 20  2  0  0  0  0
 12 13  2  0  0  0  0
 13 16  1  0  0  0  0
 13 19  1  0  0  0  0
 14 16  2  0  0  0  0
 15 17  1  0  0  0  0
 17 12  1  0  0  0  0
 18 12  1  0  0  0  0
 18 21  1  0  0  0  0
 20 14  1  0  0  0  0
 21 19  1  0  0  0  0
 22 26  1  0  0  0  0
 22 35  1  1  0  0  0
 23 24  1  6  0  0  0
 23 26  1  0  0  0  0
 25 27  1  0  0  0  0
 27 22  1  0  0  0  0
 28 25  1  6  0  0  0
 28 23  1  0  0  0  0
 29 32  1  0  0  0  0
 30 38  1  0  0  0  0
 31 36  1  0  0  0  0
 33 30  1  0  0  0  0
 33 34  1  0  0  0  0
 34 29  2  0  0  0  0
 35 31  2  0  0  0  0
 35 37  1  0  0  0  0
 36 30  2  0  0  0  0
 37 33  2  0  0  0  0
 38 32  2  0  0  0  0
M  END
>  <MODEL>
6

>  <REMARK>
 VINA RESULT:      -8.3      3.197      6.164
  Name = 
  3 active torsions:
  status: ('A' for Active; 'I' for Inactive)
    1  A    between atoms: C_2  and  C_36
    2  A    between atoms: C_8  and  C_23
    3  A    between atoms: C_18  and  C_37
                            x       y       z     vdW  Elec       q    Type
                         _______ _______ _______ _____ _____    ______ ____

>  <TORSDO>
F 3

$$$$
=
 OpenBabel10232408053D

 38 44  0  0  1  0  0  0  0  0999 V2000
  187.5480  176.8150  149.0080 C   0  0  0  0  0  1  0  0  0  0  0  0
  185.5970  177.9190  144.6250 C   0  0  1  0  0  3  0  0  0  0  0  0
  187.1110  178.1680  144.5470 C   0  0  0  0  0  2  0  0  0  0  0  0
  187.0220  178.2140  147.0430 C   0  0  0  0  0  0  0  0  0  0  0  0
  189.1080  177.8660  146.2930 C   0  0  0  0  0  0  0  0  0  0  0  0
  189.2350  177.8350  147.5860 N   0  0  0  0  0  0  0  0  0  0  0  0
  187.9330  178.0470  148.2130 C   0  0  2  0  0  3  0  0  0  0  0  0
  185.5320  178.3990  147.0950 C   0  0  0  0  0  2  0  0  0  0  0  0
  184.9620  178.7790  145.7220 C   0  0  0  0  0  2  0  0  0  0  0  0
  187.7160  178.0800  145.9210 C   0  0  0  0  0  0  0  0  0  0  0  0
  190.9460  178.7740  145.0000 C   0  0  0  0  0  3  0  0  0  0  0  0
  190.8730  177.7490  142.0400 C   0  0  0  0  0  0  0  0  0  0  0  0
  190.4840  176.5510  142.4980 C   0  0  0  0  0  0  0  0  0  0  0  0
  190.7160  176.3460  145.0090 C   0  0  0  0  0  3  0  0  0  0  0  0
  192.1290  178.6680  144.1040 C   0  0  0  0  0  2  0  0  0  0  0  0
  190.8450  175.8750  143.7630 C   0  0  0  0  0  3  0  0  0  0  0  0
  191.6870  178.7120  142.7230 N   0  0  0  0  0  2  0  0  0  0  0  0
  190.3190  178.1180  140.3800 S   0  0  0  0  0  0  0  0  0  0  0  0
  189.6700  175.7840  141.5120 C   0  0  0  0  0  2  0  0  0  0  0  0
  190.2550  177.6980  145.3800 C   0  0  0  0  0  0  0  0  0  0  0  0
  189.0780  176.8060  140.5560 C   0  0  0  0  0  2  0  0  0  0  0  0
  183.6870  178.1610  140.8200 C   0  0  2  0  0  3  0  0  0  0  0  0
  183.3970  178.5430  143.3470 C   0  0  1  0  0  3  0  0  0  0  0  0
  183.2710  179.9910  143.7950 C   0  0  0  0  0  1  0  0  0  0  0  0
  185.6960  178.8110  142.2280 C   0  0  0  0  0  2  0  0  0  0  0  0
  182.7040  178.3780  141.9830 C   0  0  0  0  0  2  0  0  0  0  0  0
  184.9040  179.0810  140.9390 C   0  0  0  0  0  2  0  0  0  0  0  0
  184.8660  178.0730  143.2870 C   0  0  1  0  0  3  0  0  0  0  0  0
  180.5990  180.8660  136.1810 C   0  0  0  0  0  3  0  0  0  0  0  0
  181.8550  178.5120  136.9490 C   0  0  0  0  0  0  0  0  0  0  0  0
  183.0730  177.2220  138.5940 C   0  0  0  0  0  3  0  0  0  0  0  0
  180.6790  179.7710  135.3130 C   0  0  0  0  0  3  0  0  0  0  0  0
  181.7960  179.5970  137.8500 C   0  0  0  0  0  0  0  0  0  0  0  0
  181.1630  180.7770  137.4560 C   0  0  0  0  0  3  0  0  0  0  0  0
  183.0210  178.2980  139.4900 C   0  0  0  0  0  0  0  0  0  0  0  0
  182.4920  177.3280  137.3270 C   0  0  0  0  0  3  0  0  0  0  0  0
  182.3810  179.4890  139.1140 C   0  0  0  0  0  3  0  0  0  0  0  0
  181.3010  178.6270  135.7110 N   0  0  0  0  0  0  0  0  0  0  0  0
  2  3  1  6  0  0  0
  2  9  1  0  0  0  0
  3 10  1  0  0  0  0
  4  8  1  0  0  0  0
  4  7  1  0  0  0  0
  5  6  2  0  0  0  0
  6  7  1  0  0  0  0
  7  1  1  6  0  0  0
  9  8  1  0  0  0  0
 10  5  1  0  0  0  0
 10  4  2  0  0  0  0
 11 20  2  0  0  0  0
 12 13  2  0  0  0  0
 12 17  1  0  0  0  0
 13 16  1  0  0  0  0
 14 20  1  0  0  0  0
 15 11  1  0  0  0  0
 16 14  2  0  0  0  0
 17 15  1  0  0  0  0
 18 21  1  0  0  0  0
 18 12  1  0  0  0  0
 19 13  1  0  0  0  0
 20  5  1  0  0  0  0
 21 19  1  0  0  0  0
 22 35  1  6  0  0  0
 22 27  1  0  0  0  0
 22 26  1  0  0  0  0
 23 24  1  6  0  0  0
 26 23  1  0  0  0  0
 27 25  1  0  0  0  0
 28 25  1  6  0  0  0
 28 23  1  0  0  0  0
 28  2  1  0  0  0  0
 29 34  1  0  0  0  0
 30 36  1  0  0  0  0
 30 33  1  0  0  0  0
 31 35  1  0  0  0  0
 32 38  1  0  0  0  0
 32 29  2  0  0  0  0
 33 37  1  0  0  0  0
 34 33  2  0  0  0  0
 36 31  2  0  0  0  0
 37 35  2  0  0  0  0
 38 30  2  0  0  0  0
M  END
>  <MODEL>
7

>  <REMARK>
 VINA RESULT:      -7.3      2.301      9.677
  Name = 
  3 active torsions:
  status: ('A' for Active; 'I' for Inactive)
    1  A    between atoms: C_2  and  C_36
    2  A    between atoms: C_8  and  C_23
    3  A    between atoms: C_18  and  C_37
                            x       y       z     vdW  Elec       q    Type
                         _______ _______ _______ _____ _____    ______ ____

>  <TORSDO>
F 3

$$$$
=
 OpenBabel10232408053D

 38 44  0  0  1  0  0  0  0  0999 V2000
  181.4020  180.3230  138.4680 C   0  0  0  0  0  1  0  0  0  0  0  0
  184.5810  178.7670  141.8900 C   0  0  1  0  0  3  0  0  0  0  0  0
  184.8100  177.9370  140.6180 C   0  0  0  0  0  2  0  0  0  0  0  0
  182.5270  178.7050  139.9560 C   0  0  0  0  0  0  0  0  0  0  0  0
  183.6970  177.9630  138.1910 C   0  0  0  0  0  0  0  0  0  0  0  0
  182.5650  178.3410  137.6760 N   0  0  0  0  0  0  0  0  0  0  0  0
  181.6940  178.8580  138.7280 C   0  0  2  0  0  3  0  0  0  0  0  0
  182.1530  179.1400  141.3440 C   0  0  0  0  0  2  0  0  0  0  0  0
  183.1420  178.6070  142.3890 C   0  0  0  0  0  2  0  0  0  0  0  0
  183.7100  178.2040  139.6280 C   0  0  0  0  0  0  0  0  0  0  0  0
  184.9980  176.0640  137.4330 C   0  0  0  0  0  3  0  0  0  0  0  0
  188.0720  176.6020  137.7160 C   0  0  0  0  0  0  0  0  0  0  0  0
  187.8540  177.8680  137.3310 C   0  0  0  0  0  0  0  0  0  0  0  0
  185.5210  178.2180  136.4160 C   0  0  0  0  0  3  0  0  0  0  0  0
  186.0570  175.4120  136.6160 C   0  0  0  0  0  2  0  0  0  0  0  0
  186.8480  178.3920  136.3830 C   0  0  0  0  0  3  0  0  0  0  0  0
  187.3110  175.4440  137.3480 N   0  0  0  0  0  2  0  0  0  0  0  0
  189.5010  176.3900  138.7700 S   0  0  0  0  0  0  0  0  0  0  0  0
  188.8610  178.8250  137.8720 C   0  0  0  0  0  2  0  0  0  0  0  0
  184.7820  177.3790  137.3790 C   0  0  0  0  0  0  0  0  0  0  0  0
  189.4550  178.1720  139.1080 C   0  0  0  0  0  2  0  0  0  0  0  0
  187.5930  178.0750  144.8290 C   0  0  2  0  0  3  0  0  0  0  0  0
  185.2100  178.9530  144.4270 C   0  0  1  0  0  3  0  0  0  0  0  0
  184.0800  178.1150  145.0080 C   0  0  0  0  0  1  0  0  0  0  0  0
  186.1940  177.0880  142.9560 C   0  0  0  0  0  2  0  0  0  0  0  0
  186.4170  178.8980  145.3800 C   0  0  0  0  0  2  0  0  0  0  0  0
  187.1080  176.7900  144.1530 C   0  0  0  0  0  2  0  0  0  0  0  0
  185.6010  178.5030  143.0030 C   0  0  1  0  0  3  0  0  0  0  0  0
  192.7730  175.7890  147.3440 C   0  0  0  0  0  3  0  0  0  0  0  0
  190.5470  177.3640  147.8680 C   0  0  0  0  0  0  0  0  0  0  0  0
  188.4730  178.3760  147.1420 C   0  0  0  0  0  3  0  0  0  0  0  0
  192.5920  176.3960  148.5910 C   0  0  0  0  0  3  0  0  0  0  0  0
  190.6970  176.7700  146.5960 C   0  0  0  0  0  0  0  0  0  0  0  0
  191.8180  175.9800  146.3410 C   0  0  0  0  0  3  0  0  0  0  0  0
  188.6200  177.7930  145.8770 C   0  0  0  0  0  0  0  0  0  0  0  0
  189.4340  178.1630  148.1350 C   0  0  0  0  0  3  0  0  0  0  0  0
  189.7370  176.9880  145.6040 C   0  0  0  0  0  3  0  0  0  0  0  0
  191.4930  177.1650  148.8250 N   0  0  0  0  0  0  0  0  0  0  0  0
  2  3  1  6  0  0  0
  2  9  1  0  0  0  0
  2 28  1  0  0  0  0
  4  8  1  0  0  0  0
  5 10  1  0  0  0  0
  6  5  2  0  0  0  0
  6  7  1  0  0  0  0
  7  1  1  6  0  0  0
  7  4  1  0  0  0  0
  8  9  1  0  0  0  0
 10  4  2  0  0  0  0
 10  3  1  0  0  0  0
 12 18  1  0  0  0  0
 13 12  2  0  0  0  0
 13 19  1  0  0  0  0
 14 20  1  0  0  0  0
 15 17  1  0  0  0  0
 15 11  1  0  0  0  0
 16 14  2  0  0  0  0
 16 13  1  0  0  0  0
 17 12  1  0  0  0  0
 18 21  1  0  0  0  0
 19 21  1  0  0  0  0
 20 11  2  0  0  0  0
 20  5  1  0  0  0  0
 22 26  1  0  0  0  0
 22 35  1  1  0  0  0
 23 24  1  1  0  0  0
 23 26  1  0  0  0  0
 25 27  1  0  0  0  0
 27 22  1  0  0  0  0
 28 25  1  1  0  0  0
 28 23  1  0  0  0  0
 29 32  1  0  0  0  0
 30 36  1  0  0  0  0
 30 38  1  0  0  0  0
 31 36  2  0  0  0  0
 32 38  2  0  0  0  0
 33 30  2  0  0  0  0
 34 33  1  0  0  0  0
 34 29  2  0  0  0  0
 35 31  1  0  0  0  0
 37 35  2  0  0  0  0
 37 33  1  0  0  0  0
M  END
>  <MODEL>
8

>  <REMARK>
 VINA RESULT:      -7.0      1.377      2.084
  Name = 
  3 active torsions:
  status: ('A' for Active; 'I' for Inactive)
    1  A    between atoms: C_2  and  C_36
    2  A    between atoms: C_8  and  C_23
    3  A    between atoms: C_18  and  C_37
                            x       y       z     vdW  Elec       q    Type
                         _______ _______ _______ _____ _____    ______ ____

>  <TORSDO>
F 3

$$$$
