=
 OpenBabel10222421493D

 54 62  0  0  1  0  0  0  0  0999 V2000
  183.5960  178.6630  140.2030 C   0  0  1  0  0  0  0  0  0  0  0  0
  182.1220  177.3250  140.4030 C   0  0  0  0  0  2  0  0  0  0  0  0
  183.0770  178.0870  138.2180 C   0  0  1  0  0  3  0  0  0  0  0  0
  182.4100  178.5840  140.9580 O   0  0  0  0  0  0  0  0  0  0  0  0
  183.3620  177.3400  139.5330 C   0  0  1  0  0  3  0  0  0  0  0  0
  183.4920  179.4060  138.8710 C   0  0  1  0  0  3  0  0  0  0  0  0
  183.9440  175.0000  135.9500 N   0  0  0  0  0  0  0  0  0  0  0  0
  187.1040  178.1750  137.8670 C   0  0  0  0  0  1  0  0  0  0  0  0
  183.9980  177.7240  137.0350 C   0  0  2  0  0  3  0  0  0  0  0  0
  182.7210  175.7950  135.9570 C   0  0  1  0  0  3  0  0  0  0  0  0
  182.0140  178.0970  135.6400 O   0  0  0  0  0  1  0  0  0  0  0  0
  183.1280  177.2720  135.8260 C   0  0  1  0  0  3  0  0  0  0  0  0
  184.9990  176.6210  137.4760 C   0  0  2  0  0  3  0  0  0  0  0  0
  186.4480  176.9620  137.3050 C   0  0  0  0  0  0  0  0  0  0  0  0
  187.1260  176.0120  136.7400 N   0  0  0  0  0  0  0  0  0  0  0  0
  186.2840  174.9700  136.3320 N   0  0  0  0  0  2  0  0  0  0  0  0
  184.9660  175.3660  136.6640 C   0  0  0  0  0  0  0  0  0  0  0  0
  181.8550  175.3880  134.7750 C   0  0  0  0  0  2  0  0  0  0  0  0
  180.7600  174.4110  135.1870 C   0  0  0  0  0  2  0  0  0  0  0  0
  181.1950  172.5110  136.8450 C   0  0  0  0  0  3  0  0  0  0  0  0
  181.9970  171.3830  136.7650 C   0  0  0  0  0  3  0  0  0  0  0  0
  181.2930  173.0740  135.5850 C   0  0  0  0  0  0  0  0  0  0  0  0
  182.5180  171.3180  135.5230 N   0  0  0  0  0  0  0  0  0  0  0  0
  182.1200  172.3570  134.8070 N   0  0  0  0  0  0  0  0  0  0  0  0
  184.9440  170.8990  135.3950 C   0  0  0  0  0  2  0  0  0  0  0  0
  183.5470  170.3660  135.1010 C   0  0  1  0  0  3  0  0  0  0  0  0
  184.5680  168.1110  135.5200 C   0  0  0  0  0  3  0  0  0  0  0  0
  183.3880  169.0110  135.7950 C   0  0  0  0  0  2  0  0  0  0  0  0
  185.9530  169.9510  134.7500 C   0  0  0  0  0  2  0  0  0  0  0  0
  185.7050  168.5600  135.1010 N   0  0  0  0  0  0  0  0  0  0  0  0
  182.8660  181.7010  138.7080 O   0  0  0  0  0  1  0  0  0  0  0  0
  182.3500  180.4140  138.8500 C   0  0  0  0  0  2  0  0  0  0  0  0
  184.8530  178.8030  141.0600 C   0  0  0  0  0  2  0  0  0  0  0  0
  184.5830  179.1390  142.5140 C   0  0  0  0  0  2  0  0  0  0  0  0
  185.2870  178.1020  143.3670 C   0  0  0  0  0  2  0  0  0  0  0  0
  186.6790  177.8230  142.8260 C   0  0  0  0  0  2  0  0  0  0  0  0
  187.4800  176.9710  143.8030 C   0  0  0  0  0  2  0  0  0  0  0  0
  188.9860  177.1930  143.6320 C   0  0  2  0  0  3  0  0  0  0  0  0
  189.2510  177.8420  147.1460 C   0  0  0  0  0  2  0  0  0  0  0  0
  190.2150  176.6890  147.1540 C   0  0  0  0  0  2  0  0  0  0  0  0
  190.1250  179.0410  144.6580 O   0  0  0  0  0  1  0  0  0  0  0  0
  188.6020  177.8700  145.9050 O   0  0  0  0  0  0  0  0  0  0  0  0
  189.6030  177.7700  144.9190 C   0  0  1  0  0  0  0  0  0  0  0  0
  190.9440  176.6730  145.5090 S   0  0  0  0  0  0  0  0  0  0  0  0
  189.2260  178.1150  142.4350 C   0  0  0  0  0  2  0  0  0  0  0  0
  190.7150  176.4910  139.4770 C   0  0  1  0  0  3  0  0  0  0  0  0
  192.0040  176.9780  140.1790 C   0  0  0  0  0  2  0  0  0  0  0  0
  192.1500  177.9720  142.3700 O   0  0  0  0  0  0  0  0  0  0  0  0
  189.5360  176.9560  140.2330 N   0  0  0  0  0  2  0  0  0  0  0  0
  190.0550  177.4480  141.4360 N   0  0  0  0  0  0  0  0  0  0  0  0
  191.4590  177.5120  141.4270 C   0  0  0  0  0  0  0  0  0  0  0  0
  190.5540  176.8380  137.9860 C   0  0  0  0  0  3  0  0  0  0  0  0
  191.8000  176.5420  137.1730 C   0  0  0  0  0  2  0  0  0  0  0  0
  190.6060  175.6070  137.0960 C   0  0  0  0  0  2  0  0  0  0  0  0
  1  4  1  0  0  0  0
  1 33  1  1  0  0  0
  2  4  1  0  0  0  0
  3  9  1  6  0  0  0
  3  6  1  0  0  0  0
  3  5  1  0  0  0  0
  5  1  1  0  0  0  0
  5  2  1  1  0  0  0
  6 32  1  1  0  0  0
  6  1  1  0  0  0  0
  7 10  1  0  0  0  0
  7 17  2  0  0  0  0
  9 13  1  0  0  0  0
 11 12  1  0  0  0  0
 12 10  1  0  0  0  0
 12  9  1  0  0  0  0
 14 13  1  0  0  0  0
 14  8  1  0  0  0  0
 15 14  2  0  0  0  0
 16 17  1  0  0  0  0
 16 15  1  0  0  0  0
 17 13  1  0  0  0  0
 18 19  1  0  0  0  0
 18 10  1  0  0  0  0
 19 22  1  0  0  0  0
 21 20  2  0  0  0  0
 22 20  1  0  0  0  0
 23 21  1  0  0  0  0
 24 23  1  0  0  0  0
 24 22  2  0  0  0  0
 26 25  1  0  0  0  0
 26 23  1  0  0  0  0
 26 28  1  0  0  0  0
 27 28  1  0  0  0  0
 29 30  1  0  0  0  0
 29 25  1  0  0  0  0
 30 27  2  0  0  0  0
 31 32  1  0  0  0  0
 33 34  1  0  0  0  0
 34 35  1  0  0  0  0
 36 35  1  0  0  0  0
 36 37  1  0  0  0  0
 38 37  1  0  0  0  0
 38 43  1  0  0  0  0
 39 40  1  0  0  0  0
 41 43  1  0  0  0  0
 42 39  1  0  0  0  0
 43 44  1  0  0  0  0
 43 42  1  0  0  0  0
 44 40  1  0  0  0  0
 45 38  1  0  0  0  0
 46 47  1  0  0  0  0
 46 49  1  0  0  0  0
 47 51  1  0  0  0  0
 49 50  1  0  0  0  0
 50 45  1  0  0  0  0
 51 50  1  0  0  0  0
 51 48  2  0  0  0  0
 52 46  1  0  0  0  0
 53 52  1  0  0  0  0
 54 53  1  0  0  0  0
 54 52  1  0  0  0  0
M  END
>  <MODEL>
1

>  <REMARK>
 VINA RESULT:      -7.0      0.000      0.000
  Name = 
  16 active torsions:
  status: ('A' for Active; 'I' for Inactive)
    1  A    between atoms: C_4  and  C_23
    2  A    between atoms: C_6  and  C_19
    3  A    between atoms: C_6  and  C_44
    4  A    between atoms: C_10  and  N_46
    5  A    between atoms: C_12  and  C_20
    6  A    between atoms: C_14  and  C_37
    7  A    between atoms: C_14  and  C_45
    8  A    between atoms: C_16  and  C_32
    9  A    between atoms: C_17  and  C_45
   10  A    between atoms: C_19  and  C_32
   11  A    between atoms: C_24  and  C_53
   12  A    between atoms: C_25  and  C_36
   13  A    between atoms: C_29  and  C_36
   14  A    between atoms: C_29  and  N_42
   15  A    between atoms: C_30  and  C_36
   16  A    between atoms: C_30  and  C_44
                            x       y       z     vdW  Elec       q    Type
                         _______ _______ _______ _____ _____    ______ ____

>  <TORSDO>
F 16

$$$$
=
 OpenBabel10222421493D

 54 62  0  0  1  0  0  0  0  0999 V2000
  182.9890  178.8030  139.6200 C   0  0  1  0  0  0  0  0  0  0  0  0
  181.9310  179.6720  138.1610 C   0  0  0  0  0  2  0  0  0  0  0  0
  183.0530  177.4420  137.9830 C   0  0  1  0  0  3  0  0  0  0  0  0
  182.9300  180.0930  139.0580 O   0  0  0  0  0  0  0  0  0  0  0  0
  181.9510  178.2510  138.6870 C   0  0  1  0  0  3  0  0  0  0  0  0
  184.0600  177.8740  139.0490 C   0  0  1  0  0  3  0  0  0  0  0  0
  182.0740  174.5700  135.4880 N   0  0  0  0  0  0  0  0  0  0  0  0
  180.5170  175.0900  140.0760 C   0  0  0  0  0  1  0  0  0  0  0  0
  182.8530  175.9120  137.9770 C   0  0  2  0  0  3  0  0  0  0  0  0
  183.3130  175.3380  135.5320 C   0  0  1  0  0  3  0  0  0  0  0  0
  185.1310  175.8220  137.0690 O   0  0  0  0  0  1  0  0  0  0  0  0
  183.8510  175.2670  136.9710 C   0  0  1  0  0  3  0  0  0  0  0  0
  181.3770  175.5830  137.6230 C   0  0  2  0  0  3  0  0  0  0  0  0
  180.6440  174.7510  138.6310 C   0  0  0  0  0  0  0  0  0  0  0  0
  179.9920  173.7680  138.0940 N   0  0  0  0  0  0  0  0  0  0  0  0
  180.2530  173.6830  136.7210 N   0  0  0  0  0  2  0  0  0  0  0  0
  181.1860  174.7060  136.4260 C   0  0  0  0  0  0  0  0  0  0  0  0
  184.3170  174.7210  134.5710 C   0  0  0  0  0  2  0  0  0  0  0  0
  184.5070  173.2310  134.8320 C   0  0  0  0  0  2  0  0  0  0  0  0
  186.3420  171.7420  135.8130 C   0  0  0  0  0  3  0  0  0  0  0  0
  187.7010  171.9530  135.9960 C   0  0  0  0  0  3  0  0  0  0  0  0
  185.9250  172.8680  135.1250 C   0  0  0  0  0  0  0  0  0  0  0  0
  188.0270  173.1360  135.4380 N   0  0  0  0  0  0  0  0  0  0  0  0
  186.9500  173.7140  134.9330 N   0  0  0  0  0  0  0  0  0  0  0  0
  189.3920  175.0710  134.7520 C   0  0  0  0  0  2  0  0  0  0  0  0
  189.3320  173.7870  135.5710 C   0  0  1  0  0  3  0  0  0  0  0  0
  190.8920  174.9820  137.1340 C   0  0  0  0  0  3  0  0  0  0  0  0
  189.6530  174.1260  137.0290 C   0  0  0  0  0  2  0  0  0  0  0  0
  190.8330  175.5780  134.7810 C   0  0  0  0  0  2  0  0  0  0  0  0
  191.3660  175.6490  136.1330 N   0  0  0  0  0  0  0  0  0  0  0  0
  186.2280  178.8080  139.3820 O   0  0  0  0  0  1  0  0  0  0  0  0
  185.2260  178.6330  138.4300 C   0  0  0  0  0  2  0  0  0  0  0  0
  182.6740  178.7780  141.1150 C   0  0  0  0  0  2  0  0  0  0  0  0
  183.7820  178.2030  141.9770 C   0  0  0  0  0  2  0  0  0  0  0  0
  183.6310  178.7810  143.3700 C   0  0  0  0  0  2  0  0  0  0  0  0
  184.9900  178.9290  144.0350 C   0  0  0  0  0  2  0  0  0  0  0  0
  186.0990  178.4210  143.1210 C   0  0  0  0  0  2  0  0  0  0  0  0
  187.3830  178.1380  143.9070 C   0  0  2  0  0  3  0  0  0  0  0  0
  190.8280  177.8630  142.9610 C   0  0  0  0  0  2  0  0  0  0  0  0
  190.6010  176.3800  143.0580 C   0  0  0  0  0  2  0  0  0  0  0  0
  188.2990  178.5460  141.7250 O   0  0  0  0  0  1  0  0  0  0  0  0
  189.7230  178.5180  143.5190 O   0  0  0  0  0  0  0  0  0  0  0  0
  188.5730  177.9340  142.9520 C   0  0  1  0  0  0  0  0  0  0  0  0
  188.8570  176.1450  142.6880 S   0  0  0  0  0  0  0  0  0  0  0  0
  187.1670  176.9140  144.8000 C   0  0  0  0  0  2  0  0  0  0  0  0
  189.7400  176.8940  147.4420 C   0  0  1  0  0  3  0  0  0  0  0  0
  188.8200  178.0120  147.9870 C   0  0  0  0  0  2  0  0  0  0  0  0
  186.6710  178.6520  147.1030 O   0  0  0  0  0  0  0  0  0  0  0  0
  189.2350  176.4350  146.1340 N   0  0  0  0  0  2  0  0  0  0  0  0
  187.9700  177.0210  146.0130 N   0  0  0  0  0  0  0  0  0  0  0  0
  187.7150  177.9560  147.0310 C   0  0  0  0  0  0  0  0  0  0  0  0
  191.2440  177.2080  147.3440 C   0  0  0  0  0  3  0  0  0  0  0  0
  192.1120  176.1420  147.9880 C   0  0  0  0  0  2  0  0  0  0  0  0
  191.9890  176.2070  146.4760 C   0  0  0  0  0  2  0  0  0  0  0  0
  1 33  1  1  0  0  0
  2  4  1  0  0  0  0
  3  9  1  1  0  0  0
  3  5  1  0  0  0  0
  3  6  1  0  0  0  0
  4  1  1  0  0  0  0
  5  2  1  6  0  0  0
  5  1  1  0  0  0  0
  6 32  1  6  0  0  0
  6  1  1  0  0  0  0
  7 10  1  0  0  0  0
  7 17  2  0  0  0  0
 10 12  1  0  0  0  0
 12 11  1  0  0  0  0
 12  9  1  0  0  0  0
 13  9  1  0  0  0  0
 13 14  1  0  0  0  0
 14  8  1  0  0  0  0
 15 14  2  0  0  0  0
 16 15  1  0  0  0  0
 17 16  1  0  0  0  0
 17 13  1  0  0  0  0
 18 19  1  0  0  0  0
 18 10  1  0  0  0  0
 19 22  1  0  0  0  0
 20 21  2  0  0  0  0
 22 20  1  0  0  0  0
 23 26  1  0  0  0  0
 23 21  1  0  0  0  0
 24 22  2  0  0  0  0
 24 23  1  0  0  0  0
 25 29  1  0  0  0  0
 25 26  1  0  0  0  0
 26 28  1  0  0  0  0
 28 27  1  0  0  0  0
 29 30  1  0  0  0  0
 30 27  2  0  0  0  0
 32 31  1  0  0  0  0
 33 34  1  0  0  0  0
 34 35  1  0  0  0  0
 35 36  1  0  0  0  0
 37 38  1  0  0  0  0
 37 36  1  0  0  0  0
 38 45  1  0  0  0  0
 39 40  1  0  0  0  0
 39 42  1  0  0  0  0
 41 43  1  0  0  0  0
 43 42  1  0  0  0  0
 43 38  1  0  0  0  0
 44 43  1  0  0  0  0
 44 40  1  0  0  0  0
 45 50  1  0  0  0  0
 46 47  1  0  0  0  0
 49 46  1  0  0  0  0
 50 49  1  0  0  0  0
 50 51  1  0  0  0  0
 51 48  2  0  0  0  0
 51 47  1  0  0  0  0
 52 46  1  0  0  0  0
 52 53  1  0  0  0  0
 54 52  1  0  0  0  0
 54 53  1  0  0  0  0
M  END
>  <MODEL>
2

>  <REMARK>
 VINA RESULT:      -6.5      2.370      5.366
  Name = 
  16 active torsions:
  status: ('A' for Active; 'I' for Inactive)
    1  A    between atoms: C_4  and  C_23
    2  A    between atoms: C_6  and  C_19
    3  A    between atoms: C_6  and  C_44
    4  A    between atoms: C_10  and  N_46
    5  A    between atoms: C_12  and  C_20
    6  A    between atoms: C_14  and  C_37
    7  A    between atoms: C_14  and  C_45
    8  A    between atoms: C_16  and  C_32
    9  A    between atoms: C_17  and  C_45
   10  A    between atoms: C_19  and  C_32
   11  A    between atoms: C_24  and  C_53
   12  A    between atoms: C_25  and  C_36
   13  A    between atoms: C_29  and  C_36
   14  A    between atoms: C_29  and  N_42
   15  A    between atoms: C_30  and  C_36
   16  A    between atoms: C_30  and  C_44
                            x       y       z     vdW  Elec       q    Type
                         _______ _______ _______ _____ _____    ______ ____

>  <TORSDO>
F 16

$$$$
=
 OpenBabel10222421493D

 54 62  0  0  1  0  0  0  0  0999 V2000
  188.3380  176.9910  136.9460 C   0  0  1  0  0  0  0  0  0  0  0  0
  187.1290  178.5370  137.3390 C   0  0  0  0  0  2  0  0  0  0  0  0
  186.5870  176.6560  135.7780 C   0  0  1  0  0  3  0  0  0  0  0  0
  188.4930  178.3880  137.0300 O   0  0  0  0  0  0  0  0  0  0  0  0
  186.8660  177.0470  137.2390 C   0  0  1  0  0  3  0  0  0  0  0  0
  188.0820  176.4300  135.5470 C   0  0  1  0  0  3  0  0  0  0  0  0
  183.5110  174.7880  137.3520 N   0  0  0  0  0  0  0  0  0  0  0  0
  187.7200  172.7780  135.9420 C   0  0  0  0  0  1  0  0  0  0  0  0
  185.7800  175.3560  135.5820 C   0  0  2  0  0  3  0  0  0  0  0  0
  183.5080  176.0050  136.5490 C   0  0  1  0  0  3  0  0  0  0  0  0
  184.1960  176.7670  134.3470 O   0  0  0  0  0  1  0  0  0  0  0  0
  184.2990  175.7140  135.2630 C   0  0  1  0  0  3  0  0  0  0  0  0
  185.9030  174.4710  136.8530 C   0  0  2  0  0  3  0  0  0  0  0  0
  186.4330  173.0890  136.6250 C   0  0  0  0  0  0  0  0  0  0  0  0
  185.7310  172.1750  137.2190 N   0  0  0  0  0  0  0  0  0  0  0  0
  184.5910  172.7280  137.8150 N   0  0  0  0  0  2  0  0  0  0  0  0
  184.6080  174.1100  137.5090 C   0  0  0  0  0  0  0  0  0  0  0  0
  182.0730  176.3730  136.2050 C   0  0  0  0  0  2  0  0  0  0  0  0
  181.9930  177.7060  135.4690 C   0  0  0  0  0  2  0  0  0  0  0  0
  180.6760  178.6070  137.4700 C   0  0  0  0  0  3  0  0  0  0  0  0
  180.1620  179.8650  137.7430 C   0  0  0  0  0  3  0  0  0  0  0  0
  181.3860  178.7910  136.2960 C   0  0  0  0  0  0  0  0  0  0  0  0
  180.5640  180.7100  136.7730 N   0  0  0  0  0  0  0  0  0  0  0  0
  181.2840  180.0610  135.8720 N   0  0  0  0  0  0  0  0  0  0  0  0
  180.6750  182.9950  137.6920 C   0  0  0  0  0  2  0  0  0  0  0  0
  180.0890  182.0860  136.6180 C   0  0  1  0  0  3  0  0  0  0  0  0
  180.1480  184.1390  135.1730 C   0  0  0  0  0  3  0  0  0  0  0  0
  180.4490  182.6620  135.2460 C   0  0  0  0  0  2  0  0  0  0  0  0
  179.9820  184.3530  137.5860 C   0  0  0  0  0  2  0  0  0  0  0  0
  179.9900  184.8720  136.2260 N   0  0  0  0  0  0  0  0  0  0  0  0
  190.0050  177.3430  134.4740 O   0  0  0  0  0  1  0  0  0  0  0  0
  188.6110  177.3390  134.4460 C   0  0  0  0  0  2  0  0  0  0  0  0
  189.2200  176.2220  137.9280 C   0  0  0  0  0  2  0  0  0  0  0  0
  190.5450  176.8950  138.2350 C   0  0  0  0  0  2  0  0  0  0  0  0
  190.3820  177.6690  139.5280 C   0  0  0  0  0  2  0  0  0  0  0  0
  189.2510  177.0870  140.3590 C   0  0  0  0  0  2  0  0  0  0  0  0
  189.7310  176.7450  141.7640 C   0  0  0  0  0  2  0  0  0  0  0  0
  189.0700  177.6440  142.8140 C   0  0  2  0  0  3  0  0  0  0  0  0
  190.3900  177.4320  146.1380 C   0  0  0  0  0  2  0  0  0  0  0  0
  191.3270  176.4080  145.5610 C   0  0  0  0  0  2  0  0  0  0  0  0
  190.4410  179.2820  143.9090 O   0  0  0  0  0  1  0  0  0  0  0  0
  189.3920  177.7030  145.1930 O   0  0  0  0  0  0  0  0  0  0  0  0
  190.0430  177.9430  143.9680 C   0  0  1  0  0  0  0  0  0  0  0  0
  191.5160  176.8650  143.8310 S   0  0  0  0  0  0  0  0  0  0  0  0
  187.7920  176.9710  143.3200 C   0  0  0  0  0  2  0  0  0  0  0  0
  184.9050  178.7300  141.8470 C   0  0  1  0  0  3  0  0  0  0  0  0
  184.5110  178.7950  143.3410 C   0  0  0  0  0  2  0  0  0  0  0  0
  185.8780  178.1270  145.2100 O   0  0  0  0  0  0  0  0  0  0  0  0
  186.1500  177.9530  141.6990 N   0  0  0  0  0  2  0  0  0  0  0  0
  186.6270  177.7900  143.0050 N   0  0  0  0  0  0  0  0  0  0  0  0
  185.7010  178.2240  143.9690 C   0  0  0  0  0  0  0  0  0  0  0  0
  183.8410  178.2090  140.8630 C   0  0  0  0  0  3  0  0  0  0  0  0
  182.6630  179.1540  140.7130 C   0  0  0  0  0  2  0  0  0  0  0  0
  183.7200  179.0840  139.6250 C   0  0  0  0  0  2  0  0  0  0  0  0
  1  4  1  0  0  0  0
  1  5  1  0  0  0  0
  1 33  1  1  0  0  0
  3  9  1  1  0  0  0
  3  5  1  0  0  0  0
  4  2  1  0  0  0  0
  5  2  1  6  0  0  0
  6 32  1  6  0  0  0
  6  3  1  0  0  0  0
  6  1  1  0  0  0  0
  7 17  2  0  0  0  0
  8 14  1  0  0  0  0
  9 13  1  0  0  0  0
 10  7  1  0  0  0  0
 11 12  1  0  0  0  0
 12  9  1  0  0  0  0
 12 10  1  0  0  0  0
 13 17  1  0  0  0  0
 14 13  1  0  0  0  0
 14 15  2  0  0  0  0
 15 16  1  0  0  0  0
 17 16  1  0  0  0  0
 18 10  1  0  0  0  0
 19 18  1  0  0  0  0
 19 22  1  0  0  0  0
 20 21  2  0  0  0  0
 22 20  1  0  0  0  0
 23 21  1  0  0  0  0
 24 22  2  0  0  0  0
 24 23  1  0  0  0  0
 26 23  1  0  0  0  0
 26 25  1  0  0  0  0
 27 28  1  0  0  0  0
 27 30  2  0  0  0  0
 28 26  1  0  0  0  0
 29 25  1  0  0  0  0
 30 29  1  0  0  0  0
 32 31  1  0  0  0  0
 33 34  1  0  0  0  0
 34 35  1  0  0  0  0
 35 36  1  0  0  0  0
 36 37  1  0  0  0  0
 37 38  1  0  0  0  0
 38 45  1  0  0  0  0
 38 43  1  0  0  0  0
 40 39  1  0  0  0  0
 41 43  1  0  0  0  0
 42 39  1  0  0  0  0
 43 42  1  0  0  0  0
 44 43  1  0  0  0  0
 44 40  1  0  0  0  0
 46 47  1  0  0  0  0
 47 51  1  0  0  0  0
 49 46  1  0  0  0  0
 49 50  1  0  0  0  0
 50 45  1  0  0  0  0
 50 51  1  0  0  0  0
 51 48  2  0  0  0  0
 52 46  1  0  0  0  0
 53 52  1  0  0  0  0
 54 53  1  0  0  0  0
 54 52  1  0  0  0  0
M  END
>  <MODEL>
3

>  <REMARK>
 VINA RESULT:      -6.3      3.236      7.151
  Name = 
  16 active torsions:
  status: ('A' for Active; 'I' for Inactive)
    1  A    between atoms: C_4  and  C_23
    2  A    between atoms: C_6  and  C_19
    3  A    between atoms: C_6  and  C_44
    4  A    between atoms: C_10  and  N_46
    5  A    between atoms: C_12  and  C_20
    6  A    between atoms: C_14  and  C_37
    7  A    between atoms: C_14  and  C_45
    8  A    between atoms: C_16  and  C_32
    9  A    between atoms: C_17  and  C_45
   10  A    between atoms: C_19  and  C_32
   11  A    between atoms: C_24  and  C_53
   12  A    between atoms: C_25  and  C_36
   13  A    between atoms: C_29  and  C_36
   14  A    between atoms: C_29  and  N_42
   15  A    between atoms: C_30  and  C_36
   16  A    between atoms: C_30  and  C_44
                            x       y       z     vdW  Elec       q    Type
                         _______ _______ _______ _____ _____    ______ ____

>  <TORSDO>
F 16

$$$$
=
 OpenBabel10222421493D

 54 62  0  0  1  0  0  0  0  0999 V2000
  190.2740  177.8670  142.8250 C   0  0  1  0  0  0  0  0  0  0  0  0
  190.9090  179.5430  143.7150 C   0  0  0  0  0  2  0  0  0  0  0  0
  188.7650  178.3630  144.2460 C   0  0  1  0  0  3  0  0  0  0  0  0
  190.8190  179.0890  142.3870 O   0  0  0  0  0  0  0  0  0  0  0  0
  190.3000  178.2710  144.2710 C   0  0  1  0  0  3  0  0  0  0  0  0
  188.7470  177.7810  142.8330 C   0  0  1  0  0  3  0  0  0  0  0  0
  185.9460  178.5850  146.9710 N   0  0  0  0  0  0  0  0  0  0  0  0
  190.1500  176.1490  147.3320 C   0  0  0  0  0  1  0  0  0  0  0  0
  188.0280  177.4490  145.2470 C   0  0  2  0  0  3  0  0  0  0  0  0
  185.8030  178.6700  145.5220 C   0  0  1  0  0  3  0  0  0  0  0  0
  186.2670  177.3430  143.5410 O   0  0  0  0  0  1  0  0  0  0  0  0
  186.5070  177.4450  144.9150 C   0  0  1  0  0  3  0  0  0  0  0  0
  188.3060  177.9350  146.6960 C   0  0  2  0  0  3  0  0  0  0  0  0
  188.9030  176.9140  147.6140 C   0  0  0  0  0  0  0  0  0  0  0  0
  188.3080  176.8610  148.7650 N   0  0  0  0  0  0  0  0  0  0  0  0
  187.1850  177.6980  148.7870 N   0  0  0  0  0  2  0  0  0  0  0  0
  187.0920  178.2780  147.4990 C   0  0  0  0  0  0  0  0  0  0  0  0
  184.3250  178.6500  145.1640 C   0  0  0  0  0  2  0  0  0  0  0  0
  183.9850  179.7010  144.1130 C   0  0  0  0  0  2  0  0  0  0  0  0
  181.5650  179.0730  143.5650 C   0  0  0  0  0  3  0  0  0  0  0  0
  180.9940  178.5030  142.4370 C   0  0  0  0  0  3  0  0  0  0  0  0
  182.8850  179.2730  143.1980 C   0  0  0  0  0  0  0  0  0  0  0  0
  181.9450  178.3900  141.4880 N   0  0  0  0  0  0  0  0  0  0  0  0
  183.1050  178.8270  141.9510 N   0  0  0  0  0  0  0  0  0  0  0  0
  182.9940  176.8300  139.8930 C   0  0  0  0  0  2  0  0  0  0  0  0
  181.7730  177.6820  140.2180 C   0  0  1  0  0  3  0  0  0  0  0  0
  180.4890  175.8950  139.0090 C   0  0  0  0  0  3  0  0  0  0  0  0
  180.5390  176.7760  140.2330 C   0  0  0  0  0  2  0  0  0  0  0  0
  182.8240  176.2900  138.4740 C   0  0  0  0  0  2  0  0  0  0  0  0
  181.5260  175.6610  138.2740 N   0  0  0  0  0  0  0  0  0  0  0  0
  187.7780  178.0680  140.6740 O   0  0  0  0  0  1  0  0  0  0  0  0
  188.1010  178.7460  141.8480 C   0  0  0  0  0  2  0  0  0  0  0  0
  191.1060  176.6510  142.4210 C   0  0  0  0  0  2  0  0  0  0  0  0
  191.7300  176.7530  141.0420 C   0  0  0  0  0  2  0  0  0  0  0  0
  190.6350  176.5200  140.0200 C   0  0  0  0  0  2  0  0  0  0  0  0
  191.1270  176.8670  138.6240 C   0  0  0  0  0  2  0  0  0  0  0  0
  191.7860  175.6610  137.9670 C   0  0  0  0  0  2  0  0  0  0  0  0
  190.9630  175.1550  136.7770 C   0  0  2  0  0  3  0  0  0  0  0  0
  193.9380  175.0140  134.7850 C   0  0  0  0  0  2  0  0  0  0  0  0
  194.3070  173.8430  135.6520 C   0  0  0  0  0  2  0  0  0  0  0  0
  191.1210  174.3970  134.5050 O   0  0  0  0  0  1  0  0  0  0  0  0
  192.8330  175.6580  135.3560 O   0  0  0  0  0  0  0  0  0  0  0  0
  191.8840  174.6600  135.6480 C   0  0  1  0  0  0  0  0  0  0  0  0
  192.7390  173.1290  136.1720 S   0  0  0  0  0  0  0  0  0  0  0  0
  190.0370  176.2740  136.2940 C   0  0  0  0  0  2  0  0  0  0  0  0
  186.7950  174.5320  136.5270 C   0  0  1  0  0  3  0  0  0  0  0  0
  186.4090  175.8820  137.1750 C   0  0  0  0  0  2  0  0  0  0  0  0
  187.7850  177.8570  137.2920 O   0  0  0  0  0  0  0  0  0  0  0  0
  188.2360  174.5320  136.2110 N   0  0  0  0  0  2  0  0  0  0  0  0
  188.6430  175.8580  136.3940 N   0  0  0  0  0  0  0  0  0  0  0  0
  187.6380  176.6490  136.9780 C   0  0  0  0  0  0  0  0  0  0  0  0
  186.4260  173.2520  137.2990 C   0  0  0  0  0  3  0  0  0  0  0  0
  184.9570  173.1910  137.6720 C   0  0  0  0  0  2  0  0  0  0  0  0
  185.4790  172.3570  136.5170 C   0  0  0  0  0  2  0  0  0  0  0  0
  1 33  1  6  0  0  0
  1  6  1  0  0  0  0
  1  5  1  0  0  0  0
  3  5  1  0  0  0  0
  3  9  1  1  0  0  0
  4  1  1  0  0  0  0
  4  2  1  0  0  0  0
  5  2  1  6  0  0  0
  6 32  1  6  0  0  0
  6  3  1  0  0  0  0
  7 17  2  0  0  0  0
  8 14  1  0  0  0  0
  9 13  1  0  0  0  0
 10  7  1  0  0  0  0
 11 12  1  0  0  0  0
 12  9  1  0  0  0  0
 12 10  1  0  0  0  0
 13 17  1  0  0  0  0
 13 14  1  0  0  0  0
 14 15  2  0  0  0  0
 15 16  1  0  0  0  0
 17 16  1  0  0  0  0
 18 10  1  0  0  0  0
 19 18  1  0  0  0  0
 21 20  2  0  0  0  0
 22 20  1  0  0  0  0
 22 19  1  0  0  0  0
 23 24  1  0  0  0  0
 23 21  1  0  0  0  0
 24 22  2  0  0  0  0
 25 26  1  0  0  0  0
 26 28  1  0  0  0  0
 26 23  1  0  0  0  0
 27 28  1  0  0  0  0
 29 25  1  0  0  0  0
 30 29  1  0  0  0  0
 30 27  2  0  0  0  0
 31 32  1  0  0  0  0
 34 33  1  0  0  0  0
 35 34  1  0  0  0  0
 36 35  1  0  0  0  0
 37 36  1  0  0  0  0
 38 37  1  0  0  0  0
 39 42  1  0  0  0  0
 39 40  1  0  0  0  0
 40 44  1  0  0  0  0
 41 43  1  0  0  0  0
 42 43  1  0  0  0  0
 43 44  1  0  0  0  0
 43 38  1  0  0  0  0
 45 50  1  0  0  0  0
 45 38  1  0  0  0  0
 46 47  1  0  0  0  0
 46 52  1  0  0  0  0
 49 50  1  0  0  0  0
 49 46  1  0  0  0  0
 50 51  1  0  0  0  0
 51 47  1  0  0  0  0
 51 48  2  0  0  0  0
 52 53  1  0  0  0  0
 54 52  1  0  0  0  0
 54 53  1  0  0  0  0
M  END
>  <MODEL>
4

>  <REMARK>
 VINA RESULT:      -6.2      3.654      9.000
  Name = 
  16 active torsions:
  status: ('A' for Active; 'I' for Inactive)
    1  A    between atoms: C_4  and  C_23
    2  A    between atoms: C_6  and  C_19
    3  A    between atoms: C_6  and  C_44
    4  A    between atoms: C_10  and  N_46
    5  A    between atoms: C_12  and  C_20
    6  A    between atoms: C_14  and  C_37
    7  A    between atoms: C_14  and  C_45
    8  A    between atoms: C_16  and  C_32
    9  A    between atoms: C_17  and  C_45
   10  A    between atoms: C_19  and  C_32
   11  A    between atoms: C_24  and  C_53
   12  A    between atoms: C_25  and  C_36
   13  A    between atoms: C_29  and  C_36
   14  A    between atoms: C_29  and  N_42
   15  A    between atoms: C_30  and  C_36
   16  A    between atoms: C_30  and  C_44
                            x       y       z     vdW  Elec       q    Type
                         _______ _______ _______ _____ _____    ______ ____

>  <TORSDO>
F 16

$$$$
=
 OpenBabel10222421493D

 54 62  0  0  1  0  0  0  0  0999 V2000
  189.8750  178.0210  141.9000 C   0  0  1  0  0  0  0  0  0  0  0  0
  191.0750  176.4990  141.4040 C   0  0  0  0  0  2  0  0  0  0  0  0
  190.2520  176.9780  143.7200 C   0  0  1  0  0  3  0  0  0  0  0  0
  191.0340  177.8750  141.1150 O   0  0  0  0  0  0  0  0  0  0  0  0
  189.8490  176.5720  142.2920 C   0  0  1  0  0  3  0  0  0  0  0  0
  190.1000  178.4540  143.3500 C   0  0  1  0  0  3  0  0  0  0  0  0
  187.0230  178.3380  145.4950 N   0  0  0  0  0  0  0  0  0  0  0  0
  190.8440  176.2130  147.6450 C   0  0  0  0  0  1  0  0  0  0  0  0
  189.2640  176.5660  144.8310 C   0  0  2  0  0  3  0  0  0  0  0  0
  187.1520  177.8200  144.1370 C   0  0  1  0  0  3  0  0  0  0  0  0
  187.8360  175.7900  142.9930 O   0  0  0  0  0  1  0  0  0  0  0  0
  187.8340  176.4450  144.2280 C   0  0  1  0  0  3  0  0  0  0  0  0
  189.3220  177.6030  145.9870 C   0  0  2  0  0  3  0  0  0  0  0  0
  189.6460  177.0420  147.3370 C   0  0  0  0  0  0  0  0  0  0  0  0
  188.8520  177.4760  148.2670 N   0  0  0  0  0  0  0  0  0  0  0  0
  187.8280  178.2610  147.7240 N   0  0  0  0  0  2  0  0  0  0  0  0
  188.0220  178.2610  146.3210 C   0  0  0  0  0  0  0  0  0  0  0  0
  185.7660  177.6730  143.5260 C   0  0  0  0  0  2  0  0  0  0  0  0
  184.7610  178.6190  144.1730 C   0  0  0  0  0  2  0  0  0  0  0  0
  182.2520  178.9840  143.8210 C   0  0  0  0  0  3  0  0  0  0  0  0
  181.4670  178.9470  142.6780 C   0  0  0  0  0  3  0  0  0  0  0  0
  183.5410  178.8280  143.3380 C   0  0  0  0  0  0  0  0  0  0  0  0
  182.2740  178.7790  141.6120 N   0  0  0  0  0  0  0  0  0  0  0  0
  183.5330  178.6770  142.0040 N   0  0  0  0  0  0  0  0  0  0  0  0
  182.9690  178.1630  139.3280 C   0  0  0  0  0  2  0  0  0  0  0  0
  181.8080  178.5240  140.2470 C   0  0  1  0  0  3  0  0  0  0  0  0
  180.4670  176.9910  138.7790 C   0  0  0  0  0  3  0  0  0  0  0  0
  180.7800  177.3900  140.2000 C   0  0  0  0  0  2  0  0  0  0  0  0
  182.4340  178.1090  137.8980 C   0  0  0  0  0  2  0  0  0  0  0  0
  181.2400  177.2850  137.7850 N   0  0  0  0  0  0  0  0  0  0  0  0
  191.2280  180.2320  144.4670 O   0  0  0  0  0  1  0  0  0  0  0  0
  191.4090  179.2070  143.5400 C   0  0  0  0  0  2  0  0  0  0  0  0
  188.6770  178.5600  141.1190 C   0  0  0  0  0  2  0  0  0  0  0  0
  188.3710  177.7980  139.8440 C   0  0  0  0  0  2  0  0  0  0  0  0
  188.8660  178.6300  138.6780 C   0  0  0  0  0  2  0  0  0  0  0  0
  189.5820  177.7530  137.6640 C   0  0  0  0  0  2  0  0  0  0  0  0
  189.6850  176.3180  138.1660 C   0  0  0  0  0  2  0  0  0  0  0  0
  189.2230  175.3200  137.0990 C   0  0  2  0  0  3  0  0  0  0  0  0
  192.0380  175.2850  134.8830 C   0  0  0  0  0  2  0  0  0  0  0  0
  192.8550  175.4880  136.1280 C   0  0  0  0  0  2  0  0  0  0  0  0
  190.1390  173.3980  135.9900 O   0  0  0  0  0  1  0  0  0  0  0  0
  190.6880  175.4770  135.2020 O   0  0  0  0  0  0  0  0  0  0  0  0
  190.4290  174.7150  136.3580 C   0  0  1  0  0  0  0  0  0  0  0  0
  191.8980  174.7310  137.4490 S   0  0  0  0  0  0  0  0  0  0  0  0
  188.2680  176.0230  136.1320 C   0  0  0  0  0  2  0  0  0  0  0  0
  185.2130  173.9730  136.3900 C   0  0  1  0  0  3  0  0  0  0  0  0
  184.7240  175.2540  137.1040 C   0  0  0  0  0  2  0  0  0  0  0  0
  185.9120  177.3450  137.2610 O   0  0  0  0  0  0  0  0  0  0  0  0
  186.6360  174.1220  136.0310 N   0  0  0  0  0  2  0  0  0  0  0  0
  186.9220  175.4730  136.2560 N   0  0  0  0  0  0  0  0  0  0  0  0
  185.8680  176.1410  136.9020 C   0  0  0  0  0  0  0  0  0  0  0  0
  184.9930  172.6350  137.1190 C   0  0  0  0  0  3  0  0  0  0  0  0
  183.5490  172.1700  137.0750 C   0  0  0  0  0  2  0  0  0  0  0  0
  184.5800  171.5200  136.1710 C   0  0  0  0  0  2  0  0  0  0  0  0
  1 33  1  6  0  0  0
  1  5  1  0  0  0  0
  1  6  1  0  0  0  0
  3  9  1  1  0  0  0
  4  2  1  0  0  0  0
  4  1  1  0  0  0  0
  5  2  1  6  0  0  0
  5  3  1  0  0  0  0
  6 32  1  6  0  0  0
  6  3  1  0  0  0  0
  7 17  2  0  0  0  0
  9 13  1  0  0  0  0
 10 12  1  0  0  0  0
 10  7  1  0  0  0  0
 11 12  1  0  0  0  0
 12  9  1  0  0  0  0
 13 17  1  0  0  0  0
 13 14  1  0  0  0  0
 14  8  1  0  0  0  0
 14 15  2  0  0  0  0
 16 15  1  0  0  0  0
 17 16  1  0  0  0  0
 18 10  1  0  0  0  0
 18 19  1  0  0  0  0
 21 20  2  0  0  0  0
 22 20  1  0  0  0  0
 22 19  1  0  0  0  0
 23 24  1  0  0  0  0
 23 21  1  0  0  0  0
 24 22  2  0  0  0  0
 25 26  1  0  0  0  0
 26 23  1  0  0  0  0
 27 28  1  0  0  0  0
 28 26  1  0  0  0  0
 29 25  1  0  0  0  0
 30 29  1  0  0  0  0
 30 27  2  0  0  0  0
 32 31  1  0  0  0  0
 34 33  1  0  0  0  0
 35 34  1  0  0  0  0
 36 37  1  0  0  0  0
 36 35  1  0  0  0  0
 38 37  1  0  0  0  0
 39 42  1  0  0  0  0
 39 40  1  0  0  0  0
 40 44  1  0  0  0  0
 41 43  1  0  0  0  0
 42 43  1  0  0  0  0
 43 38  1  0  0  0  0
 43 44  1  0  0  0  0
 45 50  1  0  0  0  0
 45 38  1  0  0  0  0
 46 47  1  0  0  0  0
 46 52  1  0  0  0  0
 49 50  1  0  0  0  0
 49 46  1  0  0  0  0
 50 51  1  0  0  0  0
 51 47  1  0  0  0  0
 51 48  2  0  0  0  0
 53 52  1  0  0  0  0
 54 53  1  0  0  0  0
 54 52  1  0  0  0  0
M  END
>  <MODEL>
5

>  <REMARK>
 VINA RESULT:      -6.2      3.223      9.078
  Name = 
  16 active torsions:
  status: ('A' for Active; 'I' for Inactive)
    1  A    between atoms: C_4  and  C_23
    2  A    between atoms: C_6  and  C_19
    3  A    between atoms: C_6  and  C_44
    4  A    between atoms: C_10  and  N_46
    5  A    between atoms: C_12  and  C_20
    6  A    between atoms: C_14  and  C_37
    7  A    between atoms: C_14  and  C_45
    8  A    between atoms: C_16  and  C_32
    9  A    between atoms: C_17  and  C_45
   10  A    between atoms: C_19  and  C_32
   11  A    between atoms: C_24  and  C_53
   12  A    between atoms: C_25  and  C_36
   13  A    between atoms: C_29  and  C_36
   14  A    between atoms: C_29  and  N_42
   15  A    between atoms: C_30  and  C_36
   16  A    between atoms: C_30  and  C_44
                            x       y       z     vdW  Elec       q    Type
                         _______ _______ _______ _____ _____    ______ ____

>  <TORSDO>
F 16

$$$$
=
 OpenBabel10222421493D

 54 62  0  0  1  0  0  0  0  0999 V2000
  186.9940  175.6870  135.8070 C   0  0  1  0  0  0  0  0  0  0  0  0
  187.2070  177.0380  134.3460 C   0  0  0  0  0  2  0  0  0  0  0  0
  185.3500  175.3650  134.4900 C   0  0  1  0  0  3  0  0  0  0  0  0
  188.0600  176.1340  135.0030 O   0  0  0  0  0  0  0  0  0  0  0  0
  185.9980  176.5960  135.1460 C   0  0  1  0  0  3  0  0  0  0  0  0
  186.2560  174.4440  135.3080 C   0  0  1  0  0  3  0  0  0  0  0  0
  182.8930  175.7070  137.5350 N   0  0  0  0  0  0  0  0  0  0  0  0
  183.0730  172.0270  134.3460 C   0  0  0  0  0  1  0  0  0  0  0  0
  183.8610  175.1400  134.8250 C   0  0  2  0  0  3  0  0  0  0  0  0
  183.5120  176.7730  136.7560 C   0  0  1  0  0  3  0  0  0  0  0  0
  183.6240  177.5550  134.4590 O   0  0  0  0  0  1  0  0  0  0  0  0
  183.2260  176.4890  135.2720 C   0  0  1  0  0  3  0  0  0  0  0  0
  183.7350  174.0470  135.9210 C   0  0  2  0  0  3  0  0  0  0  0  0
  182.8830  172.8690  135.5600 C   0  0  0  0  0  0  0  0  0  0  0  0
  182.0400  172.5510  136.4930 N   0  0  0  0  0  0  0  0  0  0  0  0
  182.0790  173.4800  137.5400 N   0  0  0  0  0  2  0  0  0  0  0  0
  183.0210  174.4680  137.1660 C   0  0  0  0  0  0  0  0  0  0  0  0
  182.8980  178.1060  137.1580 C   0  0  0  0  0  2  0  0  0  0  0  0
  182.2810  178.0460  138.5510 C   0  0  0  0  0  2  0  0  0  0  0  0
  184.4770  179.0320  139.4200 C   0  0  0  0  0  3  0  0  0  0  0  0
  185.0340  179.0660  140.6890 C   0  0  0  0  0  3  0  0  0  0  0  0
  183.2280  178.4720  139.6240 C   0  0  0  0  0  0  0  0  0  0  0  0
  184.1420  178.5510  141.5590 N   0  0  0  0  0  0  0  0  0  0  0  0
  183.0530  178.1600  140.9180 N   0  0  0  0  0  0  0  0  0  0  0  0
  185.8750  178.5730  143.3120 C   0  0  0  0  0  2  0  0  0  0  0  0
  184.4240  178.2610  142.9670 C   0  0  1  0  0  3  0  0  0  0  0  0
  183.9540  178.9200  145.3430 C   0  0  0  0  0  3  0  0  0  0  0  0
  183.5170  179.0610  143.9060 C   0  0  0  0  0  2  0  0  0  0  0  0
  186.1400  178.0600  144.7270 C   0  0  0  0  0  2  0  0  0  0  0  0
  185.1360  178.5170  145.6770 N   0  0  0  0  0  0  0  0  0  0  0  0
  188.1440  172.9970  135.1500 O   0  0  0  0  0  1  0  0  0  0  0  0
  187.1190  173.5740  134.4040 C   0  0  0  0  0  2  0  0  0  0  0  0
  187.2380  175.8820  137.3020 C   0  0  0  0  0  2  0  0  0  0  0  0
  187.0410  177.3060  137.7860 C   0  0  0  0  0  2  0  0  0  0  0  0
  188.3800  178.0120  137.7060 C   0  0  0  0  0  2  0  0  0  0  0  0
  188.7790  178.5540  139.0680 C   0  0  0  0  0  2  0  0  0  0  0  0
  188.3840  177.5840  140.1750 C   0  0  0  0  0  2  0  0  0  0  0  0
  189.5880  176.7670  140.6560 C   0  0  2  0  0  3  0  0  0  0  0  0
  191.1150  176.4590  143.8830 C   0  0  0  0  0  2  0  0  0  0  0  0
  191.1270  177.9620  143.8770 C   0  0  0  0  0  2  0  0  0  0  0  0
  188.4990  176.1020  142.6900 O   0  0  0  0  0  1  0  0  0  0  0  0
  190.7860  176.0120  142.5960 O   0  0  0  0  0  0  0  0  0  0  0  0
  189.6450  176.7330  142.1940 C   0  0  1  0  0  0  0  0  0  0  0  0
  189.7300  178.4400  142.8490 S   0  0  0  0  0  0  0  0  0  0  0  0
  190.8680  177.3600  140.0630 C   0  0  0  0  0  2  0  0  0  0  0  0
  191.8370  174.7540  137.6390 C   0  0  1  0  0  3  0  0  0  0  0  0
  193.1680  175.5400  137.7190 C   0  0  0  0  0  2  0  0  0  0  0  0
  193.6790  177.3340  139.2450 O   0  0  0  0  0  0  0  0  0  0  0  0
  190.8160  175.4300  138.4620 N   0  0  0  0  0  2  0  0  0  0  0  0
  191.5260  176.3860  139.1980 N   0  0  0  0  0  0  0  0  0  0  0  0
  192.8610  176.5030  138.7750 C   0  0  0  0  0  0  0  0  0  0  0  0
  191.2750  174.4680  136.2350 C   0  0  0  0  0  3  0  0  0  0  0  0
  192.3600  174.2440  135.1990 C   0  0  0  0  0  2  0  0  0  0  0  0
  191.5950  173.0600  135.7600 C   0  0  0  0  0  2  0  0  0  0  0  0
  1 33  1  1  0  0  0
  2  4  1  0  0  0  0
  3  9  1  1  0  0  0
  3  5  1  0  0  0  0
  3  6  1  0  0  0  0
  4  1  1  0  0  0  0
  5  2  1  6  0  0  0
  5  1  1  0  0  0  0
  6 32  1  6  0  0  0
  6  1  1  0  0  0  0
  8 14  1  0  0  0  0
  9 12  1  0  0  0  0
  9 13  1  0  0  0  0
 10 18  1  0  0  0  0
 10  7  1  0  0  0  0
 11 12  1  0  0  0  0
 12 10  1  0  0  0  0
 13 17  1  0  0  0  0
 14 13  1  0  0  0  0
 14 15  2  0  0  0  0
 15 16  1  0  0  0  0
 17  7  2  0  0  0  0
 17 16  1  0  0  0  0
 18 19  1  0  0  0  0
 19 22  1  0  0  0  0
 20 22  1  0  0  0  0
 20 21  2  0  0  0  0
 21 23  1  0  0  0  0
 22 24  2  0  0  0  0
 23 26  1  0  0  0  0
 24 23  1  0  0  0  0
 25 29  1  0  0  0  0
 26 25  1  0  0  0  0
 26 28  1  0  0  0  0
 27 30  2  0  0  0  0
 28 27  1  0  0  0  0
 29 30  1  0  0  0  0
 32 31  1  0  0  0  0
 33 34  1  0  0  0  0
 35 34  1  0  0  0  0
 35 36  1  0  0  0  0
 36 37  1  0  0  0  0
 37 38  1  0  0  0  0
 38 43  1  0  0  0  0
 40 39  1  0  0  0  0
 42 39  1  0  0  0  0
 43 42  1  0  0  0  0
 43 41  1  0  0  0  0
 43 44  1  0  0  0  0
 44 40  1  0  0  0  0
 45 38  1  0  0  0  0
 46 47  1  0  0  0  0
 46 49  1  0  0  0  0
 47 51  1  0  0  0  0
 49 50  1  0  0  0  0
 50 45  1  0  0  0  0
 51 50  1  0  0  0  0
 51 48  2  0  0  0  0
 52 46  1  0  0  0  0
 53 54  1  0  0  0  0
 53 52  1  0  0  0  0
 54 52  1  0  0  0  0
M  END
>  <MODEL>
6

>  <REMARK>
 VINA RESULT:      -6.0      2.811      6.664
  Name = 
  16 active torsions:
  status: ('A' for Active; 'I' for Inactive)
    1  A    between atoms: C_4  and  C_23
    2  A    between atoms: C_6  and  C_19
    3  A    between atoms: C_6  and  C_44
    4  A    between atoms: C_10  and  N_46
    5  A    between atoms: C_12  and  C_20
    6  A    between atoms: C_14  and  C_37
    7  A    between atoms: C_14  and  C_45
    8  A    between atoms: C_16  and  C_32
    9  A    between atoms: C_17  and  C_45
   10  A    between atoms: C_19  and  C_32
   11  A    between atoms: C_24  and  C_53
   12  A    between atoms: C_25  and  C_36
   13  A    between atoms: C_29  and  C_36
   14  A    between atoms: C_29  and  N_42
   15  A    between atoms: C_30  and  C_36
   16  A    between atoms: C_30  and  C_44
                            x       y       z     vdW  Elec       q    Type
                         _______ _______ _______ _____ _____    ______ ____

>  <TORSDO>
F 16

$$$$
=
 OpenBabel10222421493D

 54 62  0  0  1  0  0  0  0  0999 V2000
  187.0400  177.5030  136.8150 C   0  0  1  0  0  0  0  0  0  0  0  0
  187.7130  177.6650  134.9370 C   0  0  0  0  0  2  0  0  0  0  0  0
  188.4890  175.9570  136.5950 C   0  0  1  0  0  3  0  0  0  0  0  0
  187.4670  178.5620  135.9920 O   0  0  0  0  0  0  0  0  0  0  0  0
  187.2980  176.4640  135.7630 C   0  0  1  0  0  3  0  0  0  0  0  0
  188.1030  176.9000  137.7340 C   0  0  1  0  0  3  0  0  0  0  0  0
  189.7120  172.4240  135.3900 N   0  0  0  0  0  0  0  0  0  0  0  0
  185.3140  173.5220  137.1770 C   0  0  0  0  0  1  0  0  0  0  0  0
  188.4130  174.4790  137.0310 C   0  0  2  0  0  3  0  0  0  0  0  0
  190.5110  173.5100  135.9460 C   0  0  1  0  0  3  0  0  0  0  0  0
  190.6510  174.8520  137.9670 O   0  0  0  0  0  1  0  0  0  0  0  0
  189.8540  173.9390  137.2690 C   0  0  1  0  0  3  0  0  0  0  0  0
  187.6550  173.6570  135.9520 C   0  0  2  0  0  3  0  0  0  0  0  0
  186.4550  172.9070  136.4410 C   0  0  0  0  0  0  0  0  0  0  0  0
  186.4250  171.6780  136.0290 N   0  0  0  0  0  0  0  0  0  0  0  0
  187.5970  171.3550  135.3330 N   0  0  0  0  0  2  0  0  0  0  0  0
  188.4170  172.5090  135.3710 C   0  0  0  0  0  0  0  0  0  0  0  0
  191.9230  173.0080  136.2070 C   0  0  0  0  0  2  0  0  0  0  0  0
  192.8780  174.1510  136.5330 C   0  0  0  0  0  2  0  0  0  0  0  0
  194.8000  172.6780  135.7060 C   0  0  0  0  0  3  0  0  0  0  0  0
  196.1370  172.6190  136.0680 C   0  0  0  0  0  3  0  0  0  0  0  0
  194.3140  173.7590  136.4220 C   0  0  0  0  0  0  0  0  0  0  0  0
  196.3870  173.6150  136.9420 N   0  0  0  0  0  0  0  0  0  0  0  0
  195.2780  174.2950  137.1870 N   0  0  0  0  0  0  0  0  0  0  0  0
  198.7360  174.3440  136.7870 C   0  0  0  0  0  2  0  0  0  0  0  0
  197.6400  173.7790  137.6820 C   0  0  1  0  0  3  0  0  0  0  0  0
  198.8040  175.0380  139.5160 C   0  0  0  0  0  3  0  0  0  0  0  0
  197.4720  174.7060  138.8890 C   0  0  0  0  0  2  0  0  0  0  0  0
  200.0490  174.2970  137.5670 C   0  0  0  0  0  2  0  0  0  0  0  0
  199.9260  174.8900  138.8910 N   0  0  0  0  0  0  0  0  0  0  0  0
  189.0000  178.4740  139.2840 O   0  0  0  0  0  1  0  0  0  0  0  0
  189.2300  177.8770  138.0460 C   0  0  0  0  0  2  0  0  0  0  0  0
  185.6030  177.6600  137.3090 C   0  0  0  0  0  2  0  0  0  0  0  0
  184.6980  176.4880  136.9780 C   0  0  0  0  0  2  0  0  0  0  0  0
  183.3380  176.7660  137.5880 C   0  0  0  0  0  2  0  0  0  0  0  0
  183.4110  176.6970  139.1050 C   0  0  0  0  0  2  0  0  0  0  0  0
  183.5540  178.0900  139.7050 C   0  0  0  0  0  2  0  0  0  0  0  0
  182.9400  178.1600  141.1070 C   0  0  2  0  0  3  0  0  0  0  0  0
  179.9890  180.1070  141.6850 C   0  0  0  0  0  2  0  0  0  0  0  0
  180.2230  180.6360  140.2980 C   0  0  0  0  0  2  0  0  0  0  0  0
  180.6830  177.3450  141.1520 O   0  0  0  0  0  1  0  0  0  0  0  0
  181.1240  179.3900  142.0850 O   0  0  0  0  0  0  0  0  0  0  0  0
  181.4440  178.5120  141.0310 C   0  0  1  0  0  0  0  0  0  0  0  0
  181.0760  179.3130  139.4270 S   0  0  0  0  0  0  0  0  0  0  0  0
  183.7130  179.1810  141.9440 C   0  0  0  0  0  2  0  0  0  0  0  0
  186.4840  177.5680  143.7660 C   0  0  1  0  0  3  0  0  0  0  0  0
  185.5920  177.9750  144.9620 C   0  0  0  0  0  2  0  0  0  0  0  0
  183.3710  178.9010  144.8390 O   0  0  0  0  0  0  0  0  0  0  0  0
  185.8870  178.0680  142.5130 N   0  0  0  0  0  2  0  0  0  0  0  0
  184.6070  178.5030  142.8760 N   0  0  0  0  0  0  0  0  0  0  0  0
  184.4170  178.5000  144.2690 C   0  0  0  0  0  0  0  0  0  0  0  0
  187.9710  177.9630  143.8340 C   0  0  0  0  0  3  0  0  0  0  0  0
  188.5040  178.0150  145.2530 C   0  0  0  0  0  2  0  0  0  0  0  0
  188.8460  176.8370  144.3590 C   0  0  0  0  0  2  0  0  0  0  0  0
  1 33  1  1  0  0  0
  1  6  1  0  0  0  0
  2  4  1  0  0  0  0
  3  9  1  1  0  0  0
  3  6  1  0  0  0  0
  4  1  1  0  0  0  0
  5  2  1  6  0  0  0
  5  3  1  0  0  0  0
  5  1  1  0  0  0  0
  6 32  1  6  0  0  0
  7 10  1  0  0  0  0
  9 12  1  0  0  0  0
 10 18  1  0  0  0  0
 10 12  1  0  0  0  0
 12 11  1  0  0  0  0
 13 14  1  0  0  0  0
 13  9  1  0  0  0  0
 14  8  1  0  0  0  0
 15 14  2  0  0  0  0
 16 17  1  0  0  0  0
 16 15  1  0  0  0  0
 17  7  2  0  0  0  0
 17 13  1  0  0  0  0
 18 19  1  0  0  0  0
 20 21  2  0  0  0  0
 20 22  1  0  0  0  0
 21 23  1  0  0  0  0
 22 19  1  0  0  0  0
 22 24  2  0  0  0  0
 23 24  1  0  0  0  0
 23 26  1  0  0  0  0
 25 29  1  0  0  0  0
 25 26  1  0  0  0  0
 26 28  1  0  0  0  0
 28 27  1  0  0  0  0
 29 30  1  0  0  0  0
 30 27  2  0  0  0  0
 32 31  1  0  0  0  0
 34 33  1  0  0  0  0
 34 35  1  0  0  0  0
 35 36  1  0  0  0  0
 36 37  1  0  0  0  0
 37 38  1  0  0  0  0
 38 45  1  0  0  0  0
 39 42  1  0  0  0  0
 40 39  1  0  0  0  0
 43 38  1  0  0  0  0
 43 41  1  0  0  0  0
 43 42  1  0  0  0  0
 44 40  1  0  0  0  0
 44 43  1  0  0  0  0
 45 50  1  0  0  0  0
 46 52  1  0  0  0  0
 46 47  1  0  0  0  0
 49 50  1  0  0  0  0
 49 46  1  0  0  0  0
 50 51  1  0  0  0  0
 51 48  2  0  0  0  0
 51 47  1  0  0  0  0
 52 54  1  0  0  0  0
 52 53  1  0  0  0  0
 54 53  1  0  0  0  0
M  END
>  <MODEL>
7

>  <REMARK>
 VINA RESULT:      -5.8      4.362      9.363
  Name = 
  16 active torsions:
  status: ('A' for Active; 'I' for Inactive)
    1  A    between atoms: C_4  and  C_23
    2  A    between atoms: C_6  and  C_19
    3  A    between atoms: C_6  and  C_44
    4  A    between atoms: C_10  and  N_46
    5  A    between atoms: C_12  and  C_20
    6  A    between atoms: C_14  and  C_37
    7  A    between atoms: C_14  and  C_45
    8  A    between atoms: C_16  and  C_32
    9  A    between atoms: C_17  and  C_45
   10  A    between atoms: C_19  and  C_32
   11  A    between atoms: C_24  and  C_53
   12  A    between atoms: C_25  and  C_36
   13  A    between atoms: C_29  and  C_36
   14  A    between atoms: C_29  and  N_42
   15  A    between atoms: C_30  and  C_36
   16  A    between atoms: C_30  and  C_44
                            x       y       z     vdW  Elec       q    Type
                         _______ _______ _______ _____ _____    ______ ____

>  <TORSDO>
F 16

$$$$
=
 OpenBabel10222421493D

 54 62  0  0  1  0  0  0  0  0999 V2000
  189.7870  178.0660  142.0220 C   0  0  1  0  0  0  0  0  0  0  0  0
  190.9370  176.5160  141.4900 C   0  0  0  0  0  2  0  0  0  0  0  0
  190.2370  177.0410  143.8360 C   0  0  1  0  0  3  0  0  0  0  0  0
  190.9040  177.8890  141.1840 O   0  0  0  0  0  0  0  0  0  0  0  0
  189.7570  176.6230  142.4360 C   0  0  1  0  0  3  0  0  0  0  0  0
  190.0900  178.5140  143.4520 C   0  0  1  0  0  3  0  0  0  0  0  0
  187.0610  178.4320  145.6830 N   0  0  0  0  0  0  0  0  0  0  0  0
  190.9910  176.4390  147.7620 C   0  0  0  0  0  1  0  0  0  0  0  0
  189.2980  176.6620  145.0010 C   0  0  2  0  0  3  0  0  0  0  0  0
  187.1440  177.8620  144.3430 C   0  0  1  0  0  3  0  0  0  0  0  0
  187.8100  175.7970  143.2520 O   0  0  0  0  0  1  0  0  0  0  0  0
  187.8480  176.5000  144.4600 C   0  0  1  0  0  3  0  0  0  0  0  0
  189.3870  177.7440  146.1120 C   0  0  2  0  0  3  0  0  0  0  0  0
  189.7700  177.2410  147.4700 C   0  0  0  0  0  0  0  0  0  0  0  0
  189.0080  177.7010  148.4120 N   0  0  0  0  0  0  0  0  0  0  0  0
  187.9530  178.4520  147.8800 N   0  0  0  0  0  2  0  0  0  0  0  0
  188.0920  178.3990  146.4720 C   0  0  0  0  0  0  0  0  0  0  0  0
  185.7380  177.6750  143.7920 C   0  0  0  0  0  2  0  0  0  0  0  0
  184.8210  178.8290  144.1820 C   0  0  0  0  0  2  0  0  0  0  0  0
  182.3090  179.0700  143.7540 C   0  0  0  0  0  3  0  0  0  0  0  0
  181.5520  178.9210  142.6020 C   0  0  0  0  0  3  0  0  0  0  0  0
  183.6130  178.9310  143.3100 C   0  0  0  0  0  0  0  0  0  0  0  0
  182.3890  178.7100  141.5660 N   0  0  0  0  0  0  0  0  0  0  0  0
  183.6420  178.6850  141.9910 N   0  0  0  0  0  0  0  0  0  0  0  0
  180.5340  177.8150  140.2120 C   0  0  0  0  0  2  0  0  0  0  0  0
  181.9650  178.3400  140.2150 C   0  0  1  0  0  3  0  0  0  0  0  0
  181.4120  179.1950  137.9190 C   0  0  0  0  0  3  0  0  0  0  0  0
  182.0480  179.5240  139.2470 C   0  0  0  0  0  2  0  0  0  0  0  0
  180.2380  177.2670  138.8170 C   0  0  0  0  0  2  0  0  0  0  0  0
  180.5790  178.2170  137.7680 N   0  0  0  0  0  0  0  0  0  0  0  0
  191.2950  180.3000  144.4730 O   0  0  0  0  0  1  0  0  0  0  0  0
  191.4190  179.2480  143.5670 C   0  0  0  0  0  2  0  0  0  0  0  0
  188.5610  178.6130  141.2930 C   0  0  0  0  0  2  0  0  0  0  0  0
  188.0090  177.6910  140.2230 C   0  0  0  0  0  2  0  0  0  0  0  0
  187.9550  178.4700  138.9240 C   0  0  0  0  0  2  0  0  0  0  0  0
  189.2920  178.4010  138.2050 C   0  0  0  0  0  2  0  0  0  0  0  0
  189.0920  178.1960  136.7080 C   0  0  0  0  0  2  0  0  0  0  0  0
  189.3020  176.7310  136.3120 C   0  0  2  0  0  3  0  0  0  0  0  0
  186.0870  175.2900  136.9700 C   0  0  0  0  0  2  0  0  0  0  0  0
  185.5500  176.6440  136.5980 C   0  0  0  0  0  2  0  0  0  0  0  0
  188.1470  175.1380  134.9380 O   0  0  0  0  0  1  0  0  0  0  0  0
  187.4770  175.3900  137.1130 O   0  0  0  0  0  0  0  0  0  0  0  0
  187.9590  176.0600  135.9720 C   0  0  1  0  0  0  0  0  0  0  0  0
  186.7490  177.3270  135.4440 S   0  0  0  0  0  0  0  0  0  0  0  0
  190.0200  176.0010  137.4500 C   0  0  0  0  0  2  0  0  0  0  0  0
  193.2990  174.6510  136.4380 C   0  0  1  0  0  3  0  0  0  0  0  0
  192.4760  173.3420  136.4530 C   0  0  0  0  0  2  0  0  0  0  0  0
  190.0930  173.1560  136.7610 O   0  0  0  0  0  0  0  0  0  0  0  0
  192.4550  175.7700  136.9000 N   0  0  0  0  0  2  0  0  0  0  0  0
  191.1570  175.2480  136.9330 N   0  0  0  0  0  0  0  0  0  0  0  0
  191.1340  173.8580  136.7200 C   0  0  0  0  0  0  0  0  0  0  0  0
  194.6340  174.6500  137.2050 C   0  0  0  0  0  3  0  0  0  0  0  0
  195.6310  173.6470  136.6530 C   0  0  0  0  0  2  0  0  0  0  0  0
  195.7950  175.1240  136.3470 C   0  0  0  0  0  2  0  0  0  0  0  0
  1 33  1  6  0  0  0
  1  5  1  0  0  0  0
  1  6  1  0  0  0  0
  3  9  1  1  0  0  0
  4  2  1  0  0  0  0
  4  1  1  0  0  0  0
  5  2  1  6  0  0  0
  5  3  1  0  0  0  0
  6 32  1  6  0  0  0
  6  3  1  0  0  0  0
  7 17  2  0  0  0  0
  9 13  1  0  0  0  0
 10 12  1  0  0  0  0
 10  7  1  0  0  0  0
 11 12  1  0  0  0  0
 12  9  1  0  0  0  0
 13 17  1  0  0  0  0
 13 14  1  0  0  0  0
 14  8  1  0  0  0  0
 14 15  2  0  0  0  0
 16 15  1  0  0  0  0
 17 16  1  0  0  0  0
 18 19  1  0  0  0  0
 18 10  1  0  0  0  0
 21 20  2  0  0  0  0
 22 20  1  0  0  0  0
 22 19  1  0  0  0  0
 23 24  1  0  0  0  0
 23 21  1  0  0  0  0
 24 22  2  0  0  0  0
 25 26  1  0  0  0  0
 26 23  1  0  0  0  0
 27 28  1  0  0  0  0
 28 26  1  0  0  0  0
 29 25  1  0  0  0  0
 30 27  2  0  0  0  0
 30 29  1  0  0  0  0
 32 31  1  0  0  0  0
 34 33  1  0  0  0  0
 35 34  1  0  0  0  0
 36 35  1  0  0  0  0
 37 36  1  0  0  0  0
 38 37  1  0  0  0  0
 38 45  1  0  0  0  0
 39 42  1  0  0  0  0
 40 39  1  0  0  0  0
 41 43  1  0  0  0  0
 43 38  1  0  0  0  0
 43 42  1  0  0  0  0
 44 43  1  0  0  0  0
 44 40  1  0  0  0  0
 46 47  1  0  0  0  0
 46 49  1  0  0  0  0
 46 52  1  0  0  0  0
 47 51  1  0  0  0  0
 49 50  1  0  0  0  0
 50 45  1  0  0  0  0
 51 48  2  0  0  0  0
 51 50  1  0  0  0  0
 53 52  1  0  0  0  0
 54 53  1  0  0  0  0
 54 52  1  0  0  0  0
M  END
>  <MODEL>
8

>  <REMARK>
 VINA RESULT:      -5.8      4.227      8.965
  Name = 
  16 active torsions:
  status: ('A' for Active; 'I' for Inactive)
    1  A    between atoms: C_4  and  C_23
    2  A    between atoms: C_6  and  C_19
    3  A    between atoms: C_6  and  C_44
    4  A    between atoms: C_10  and  N_46
    5  A    between atoms: C_12  and  C_20
    6  A    between atoms: C_14  and  C_37
    7  A    between atoms: C_14  and  C_45
    8  A    between atoms: C_16  and  C_32
    9  A    between atoms: C_17  and  C_45
   10  A    between atoms: C_19  and  C_32
   11  A    between atoms: C_24  and  C_53
   12  A    between atoms: C_25  and  C_36
   13  A    between atoms: C_29  and  C_36
   14  A    between atoms: C_29  and  N_42
   15  A    between atoms: C_30  and  C_36
   16  A    between atoms: C_30  and  C_44
                            x       y       z     vdW  Elec       q    Type
                         _______ _______ _______ _____ _____    ______ ____

>  <TORSDO>
F 16

$$$$
=
 OpenBabel10222421493D

 54 62  0  0  1  0  0  0  0  0999 V2000
  184.6300  178.9510  139.5670 C   0  0  1  0  0  0  0  0  0  0  0  0
  183.0970  180.0440  138.8890 C   0  0  0  0  0  2  0  0  0  0  0  0
  183.7360  177.7820  138.0260 C   0  0  1  0  0  3  0  0  0  0  0  0
  184.4460  180.2970  139.1960 O   0  0  0  0  0  0  0  0  0  0  0  0
  183.2150  178.5740  139.2380 C   0  0  1  0  0  3  0  0  0  0  0  0
  185.1760  178.0270  138.4770 C   0  0  1  0  0  3  0  0  0  0  0  0
  182.5840  174.9990  135.5050 N   0  0  0  0  0  0  0  0  0  0  0  0
  180.9090  175.6960  140.0270 C   0  0  0  0  0  1  0  0  0  0  0  0
  183.3920  176.2780  138.0180 C   0  0  2  0  0  3  0  0  0  0  0  0
  183.8880  175.6460  135.5950 C   0  0  1  0  0  3  0  0  0  0  0  0
  185.6840  175.9660  137.1990 O   0  0  0  0  0  1  0  0  0  0  0  0
  184.3610  175.5340  137.0530 C   0  0  1  0  0  3  0  0  0  0  0  0
  181.9050  176.0880  137.6080 C   0  0  2  0  0  3  0  0  0  0  0  0
  181.0590  175.3370  138.5890 C   0  0  0  0  0  0  0  0  0  0  0  0
  180.3370  174.4150  138.0310 N   0  0  0  0  0  0  0  0  0  0  0  0
  180.6420  174.2970  136.6690 N   0  0  0  0  0  2  0  0  0  0  0  0
  181.6780  175.2250  136.4080 C   0  0  0  0  0  0  0  0  0  0  0  0
  184.8650  174.9300  134.6750 C   0  0  0  0  0  2  0  0  0  0  0  0
  185.0970  173.4880  135.1110 C   0  0  0  0  0  2  0  0  0  0  0  0
  187.0500  171.9620  135.7480 C   0  0  0  0  0  3  0  0  0  0  0  0
  188.4130  172.1990  135.8410 C   0  0  0  0  0  3  0  0  0  0  0  0
  186.5450  173.1460  135.2390 C   0  0  0  0  0  0  0  0  0  0  0  0
  188.6580  173.4520  135.4060 N   0  0  0  0  0  0  0  0  0  0  0  0
  187.5260  174.0450  135.0650 N   0  0  0  0  0  0  0  0  0  0  0  0
  191.1030  173.1380  135.3870 C   0  0  0  0  0  2  0  0  0  0  0  0
  189.9520  174.1300  135.5070 C   0  0  1  0  0  3  0  0  0  0  0  0
  191.5270  175.7440  134.4040 C   0  0  0  0  0  3  0  0  0  0  0  0
  190.1190  175.2020  134.4270 C   0  0  0  0  0  2  0  0  0  0  0  0
  192.3990  173.8850  135.7020 C   0  0  0  0  0  2  0  0  0  0  0  0
  192.5250  175.1180  134.9370 N   0  0  0  0  0  0  0  0  0  0  0  0
  187.3300  178.6340  137.6560 O   0  0  0  0  0  1  0  0  0  0  0  0
  185.9650  178.7780  137.4130 C   0  0  0  0  0  2  0  0  0  0  0  0
  185.0860  178.7770  141.0150 C   0  0  0  0  0  2  0  0  0  0  0  0
  183.9650  178.4620  141.9870 C   0  0  0  0  0  2  0  0  0  0  0  0
  184.5900  178.1890  143.3410 C   0  0  0  0  0  2  0  0  0  0  0  0
  186.0940  178.0170  143.2080 C   0  0  0  0  0  2  0  0  0  0  0  0
  186.7590  177.9920  144.5790 C   0  0  0  0  0  2  0  0  0  0  0  0
  188.2050  177.4930  144.4890 C   0  0  2  0  0  3  0  0  0  0  0  0
  189.4730  178.3840  147.7190 C   0  0  0  0  0  2  0  0  0  0  0  0
  188.0810  178.0870  148.2030 C   0  0  0  0  0  2  0  0  0  0  0  0
  189.6920  176.1850  145.8460 O   0  0  0  0  0  1  0  0  0  0  0  0
  189.4590  178.4140  146.3190 O   0  0  0  0  0  0  0  0  0  0  0  0
  188.7880  177.2510  145.8920 C   0  0  1  0  0  0  0  0  0  0  0  0
  187.4390  176.8520  147.0640 S   0  0  0  0  0  0  0  0  0  0  0  0
  189.0390  178.5080  143.7040 C   0  0  0  0  0  2  0  0  0  0  0  0
  190.7860  176.8840  140.8900 C   0  0  1  0  0  3  0  0  0  0  0  0
  192.0050  177.2750  141.7580 C   0  0  0  0  0  2  0  0  0  0  0  0
  191.9370  178.1950  143.9850 O   0  0  0  0  0  0  0  0  0  0  0  0
  189.5510  177.3960  141.5150 N   0  0  0  0  0  2  0  0  0  0  0  0
  189.9460  177.8220  142.7890 N   0  0  0  0  0  0  0  0  0  0  0  0
  191.3420  177.8030  142.9500 C   0  0  0  0  0  0  0  0  0  0  0  0
  190.8260  177.2830  139.4040 C   0  0  0  0  0  3  0  0  0  0  0  0
  191.3720  176.1830  138.5120 C   0  0  0  0  0  2  0  0  0  0  0  0
  189.8790  176.4500  138.5550 C   0  0  0  0  0  2  0  0  0  0  0  0
  1 33  1  1  0  0  0
  2  4  1  0  0  0  0
  3  9  1  1  0  0  0
  3  6  1  0  0  0  0
  3  5  1  0  0  0  0
  4  1  1  0  0  0  0
  5  2  1  6  0  0  0
  5  1  1  0  0  0  0
  6 32  1  6  0  0  0
  6  1  1  0  0  0  0
  7 10  1  0  0  0  0
  7 17  2  0  0  0  0
 10 12  1  0  0  0  0
 12 11  1  0  0  0  0
 12  9  1  0  0  0  0
 13  9  1  0  0  0  0
 13 14  1  0  0  0  0
 14  8  1  0  0  0  0
 15 14  2  0  0  0  0
 16 15  1  0  0  0  0
 17 16  1  0  0  0  0
 17 13  1  0  0  0  0
 18 19  1  0  0  0  0
 18 10  1  0  0  0  0
 19 22  1  0  0  0  0
 20 21  2  0  0  0  0
 22 20  1  0  0  0  0
 23 26  1  0  0  0  0
 23 21  1  0  0  0  0
 24 22  2  0  0  0  0
 24 23  1  0  0  0  0
 25 26  1  0  0  0  0
 25 29  1  0  0  0  0
 27 28  1  0  0  0  0
 27 30  2  0  0  0  0
 28 26  1  0  0  0  0
 30 29  1  0  0  0  0
 32 31  1  0  0  0  0
 33 34  1  0  0  0  0
 34 35  1  0  0  0  0
 36 35  1  0  0  0  0
 36 37  1  0  0  0  0
 38 37  1  0  0  0  0
 38 43  1  0  0  0  0
 39 40  1  0  0  0  0
 41 43  1  0  0  0  0
 42 39  1  0  0  0  0
 43 42  1  0  0  0  0
 43 44  1  0  0  0  0
 44 40  1  0  0  0  0
 45 38  1  0  0  0  0
 46 49  1  0  0  0  0
 46 47  1  0  0  0  0
 47 51  1  0  0  0  0
 49 50  1  0  0  0  0
 50 51  1  0  0  0  0
 50 45  1  0  0  0  0
 51 48  2  0  0  0  0
 52 46  1  0  0  0  0
 53 54  1  0  0  0  0
 53 52  1  0  0  0  0
 54 52  1  0  0  0  0
M  END
>  <MODEL>
9

>  <REMARK>
 VINA RESULT:      -5.6      2.278      4.327
  Name = 
  16 active torsions:
  status: ('A' for Active; 'I' for Inactive)
    1  A    between atoms: C_4  and  C_23
    2  A    between atoms: C_6  and  C_19
    3  A    between atoms: C_6  and  C_44
    4  A    between atoms: C_10  and  N_46
    5  A    between atoms: C_12  and  C_20
    6  A    between atoms: C_14  and  C_37
    7  A    between atoms: C_14  and  C_45
    8  A    between atoms: C_16  and  C_32
    9  A    between atoms: C_17  and  C_45
   10  A    between atoms: C_19  and  C_32
   11  A    between atoms: C_24  and  C_53
   12  A    between atoms: C_25  and  C_36
   13  A    between atoms: C_29  and  C_36
   14  A    between atoms: C_29  and  N_42
   15  A    between atoms: C_30  and  C_36
   16  A    between atoms: C_30  and  C_44
                            x       y       z     vdW  Elec       q    Type
                         _______ _______ _______ _____ _____    ______ ____

>  <TORSDO>
F 16

$$$$
