=
 OpenBabel10222421363D

 43 48  0  0  1  0  0  0  0  0999 V2000
  190.0020  176.8290  145.4390 N   0  0  0  0  0  2  0  0  0  0  0  0
  187.4240  177.8290  145.7250 C   0  0  0  0  0  0  0  0  0  0  0  0
  188.1730  177.3890  146.9180 C   0  0  0  0  0  0  0  0  0  0  0  0
  185.9460  178.4920  144.2190 C   0  0  0  0  0  0  0  0  0  0  0  0
  185.1230  178.4830  146.6560 C   0  0  0  0  0  1  0  0  0  0  0  0
  187.9710  177.7750  144.4720 C   0  0  0  0  0  0  0  0  0  0  0  0
  187.0870  178.1970  143.5260 N   0  0  0  0  0  0  0  0  0  0  0  0
  186.1320  178.2790  145.5780 C   0  0  0  0  0  0  0  0  0  0  0  0
  189.2970  177.2380  144.2860 N   0  0  0  0  0  0  0  0  0  0  0  0
  189.4110  176.9060  146.7500 C   0  0  0  0  0  3  0  0  0  0  0  0
  189.9630  177.1440  143.0280 C   0  0  0  0  0  0  0  0  0  0  0  0
  191.8190  177.7370  141.5890 C   0  0  0  0  0  3  0  0  0  0  0  0
  191.3590  176.8470  140.6080 C   0  0  0  0  0  0  0  0  0  0  0  0
  190.1920  176.1030  140.8530 C   0  0  0  0  0  3  0  0  0  0  0  0
  189.5010  176.2470  142.0580 C   0  0  0  0  0  3  0  0  0  0  0  0
  191.1340  177.8770  142.7970 C   0  0  0  0  0  0  0  0  0  0  0  0
  191.5950  178.7460  143.7310 F   0  0  0  0  0  0  0  0  0  0  0  0
  192.0730  176.6970  139.3730 N   0  0  0  0  0  0  0  0  0  0  0  0
  192.8580  175.8750  137.3730 C   0  0  2  0  0  3  0  0  0  0  0  0
  193.3960  177.2200  139.1180 C   0  0  0  0  0  2  0  0  0  0  0  0
  191.6430  175.8920  138.2710 C   0  0  0  0  0  2  0  0  0  0  0  0
  193.7590  176.8770  137.8010 O   0  0  0  0  0  0  0  0  0  0  0  0
  192.8130  174.9140  135.0970 C   0  0  0  0  0  2  0  0  0  0  0  0
  193.6930  176.1420  135.0640 C   0  0  0  0  0  2  0  0  0  0  0  0
  192.4540  176.1240  135.9340 C   0  0  0  0  0  3  0  0  0  0  0  0
  184.6550  178.8900  143.6310 C   0  0  0  0  0  0  0  0  0  0  0  0
  184.0470  179.9070  144.0640 O   0  0  0  0  0  0  0  0  0  0  0  0
  184.0500  178.0690  142.6240 N   0  0  0  0  0  2  0  0  0  0  0  0
  182.8240  178.4170  142.0400 N   0  0  0  0  0  2  0  0  0  0  0  0
  182.4770  177.3770  141.1650 N   0  0  0  0  0  2  0  0  0  0  0  0
  182.5310  176.4240  139.0520 O   0  0  0  0  0  0  0  0  0  0  0  0
  182.8930  177.3700  139.7990 C   0  0  0  0  0  0  0  0  0  0  0  0
  183.7560  178.4530  139.2320 C   0  0  2  0  0  3  0  0  0  0  0  0
  183.0260  179.6170  139.0920 F   0  0  0  0  0  0  0  0  0  0  0  0
  184.3410  178.0480  137.8860 C   0  0  0  0  0  2  0  0  0  0  0  0
  186.5640  178.8880  137.6870 O   0  0  0  0  0  1  0  0  0  0  0  0
  185.8240  177.7450  138.0000 C   0  0  0  0  0  3  0  0  0  0  0  0
  186.1530  176.7260  137.1100 O   0  0  0  0  0  1  0  0  0  0  0  0
  186.5220  179.1620  141.2960 C   0  0  0  0  0  2  0  0  0  0  0  0
  187.2490  178.0700  142.0700 C   0  0  0  0  0  3  0  0  0  0  0  0
  188.0010  179.2820  141.5340 C   0  0  0  0  0  2  0  0  0  0  0  0
  188.2870  178.2900  149.1030 O   0  0  0  0  0  1  0  0  0  0  0  0
  187.5700  177.4150  148.2830 C   0  0  0  0  0  2  0  0  0  0  0  0
  1 10  1  0  0  0  0
  2  3  1  0  0  0  0
  3 43  1  0  0  0  0
  4  8  2  0  0  0  0
  6  2  2  0  0  0  0
  7  4  1  0  0  0  0
  7  6  1  0  0  0  0
  8  2  1  0  0  0  0
  8  5  1  0  0  0  0
  9  6  1  0  0  0  0
  9  1  1  0  0  0  0
 10  3  2  0  0  0  0
 11  9  1  0  0  0  0
 12 16  2  0  0  0  0
 13 14  2  0  0  0  0
 13 12  1  0  0  0  0
 14 15  1  0  0  0  0
 15 11  2  0  0  0  0
 16 11  1  0  0  0  0
 16 17  1  0  0  0  0
 18 13  1  0  0  0  0
 19 25  1  6  0  0  0
 19 22  1  0  0  0  0
 19 21  1  0  0  0  0
 20 18  1  0  0  0  0
 21 18  1  0  0  0  0
 22 20  1  0  0  0  0
 23 25  1  0  0  0  0
 24 23  1  0  0  0  0
 24 25  1  0  0  0  0
 26 27  2  0  0  0  0
 26  4  1  0  0  0  0
 28 26  1  0  0  0  0
 29 28  1  0  0  0  0
 30 29  1  0  0  0  0
 31 32  2  0  0  0  0
 32 30  1  0  0  0  0
 33 34  1  6  0  0  0
 33 32  1  0  0  0  0
 35 37  1  0  0  0  0
 35 33  1  0  0  0  0
 36 37  1  0  0  0  0
 38 37  1  0  0  0  0
 39 41  1  0  0  0  0
 39 40  1  0  0  0  0
 40  7  1  0  0  0  0
 41 40  1  0  0  0  0
 43 42  1  0  0  0  0
M  END
>  <MODEL>
1

>  <REMARK>
 VINA RESULT:      -7.1      0.000      0.000
  Name = 
  11 active torsions:
  status: ('A' for Active; 'I' for Inactive)
    1  A    between atoms: C_3  and  C_15
    2  A    between atoms: C_3  and  C_37
    3  A    between atoms: C_5  and  C_22
    4  A    between atoms: N_6  and  N_13
    5  A    between atoms: N_6  and  N_33
    6  A    between atoms: C_8  and  C_12
    7  A    between atoms: N_9  and  C_23
    8  A    between atoms: C_14  and  N_38
    9  A    between atoms: C_15  and  C_24
   10  A    between atoms: C_16  and  C_41
   11  A    between atoms: C_26  and  N_35
                            x       y       z     vdW  Elec       q    Type
                         _______ _______ _______ _____ _____    ______ ____

>  <TORSDO>
F 11

$$$$
=
 OpenBabel10222421363D

 43 48  0  0  1  0  0  0  0  0999 V2000
  182.7820  178.6940  143.5240 N   0  0  0  0  0  2  0  0  0  0  0  0
  182.9630  178.8160  140.7530 C   0  0  0  0  0  0  0  0  0  0  0  0
  181.6520  178.9880  141.4070 C   0  0  0  0  0  0  0  0  0  0  0  0
  184.6830  178.5170  139.3950 C   0  0  0  0  0  0  0  0  0  0  0  0
  182.4110  178.8910  138.2480 C   0  0  0  0  0  1  0  0  0  0  0  0
  184.1070  178.6120  141.4770 C   0  0  0  0  0  0  0  0  0  0  0  0
  185.1850  178.4440  140.6630 N   0  0  0  0  0  0  0  0  0  0  0  0
  183.3150  178.7530  139.4240 C   0  0  0  0  0  0  0  0  0  0  0  0
  184.0430  178.5190  142.9150 N   0  0  0  0  0  0  0  0  0  0  0  0
  181.5930  178.9200  142.7430 C   0  0  0  0  0  3  0  0  0  0  0  0
  185.1720  178.3170  143.7630 C   0  0  0  0  0  0  0  0  0  0  0  0
  186.4440  178.9120  145.7370 C   0  0  0  0  0  3  0  0  0  0  0  0
  187.3090  177.8300  145.5210 C   0  0  0  0  0  0  0  0  0  0  0  0
  187.0910  176.9900  144.4160 C   0  0  0  0  0  3  0  0  0  0  0  0
  186.0250  177.2300  143.5450 C   0  0  0  0  0  3  0  0  0  0  0  0
  185.3740  179.1490  144.8720 C   0  0  0  0  0  0  0  0  0  0  0  0
  184.5520  180.2030  145.0990 F   0  0  0  0  0  0  0  0  0  0  0  0
  188.4000  177.5840  146.4190 N   0  0  0  0  0  0  0  0  0  0  0  0
  190.2050  176.6240  147.4750 C   0  0  2  0  0  3  0  0  0  0  0  0
  188.4500  178.0260  147.7940 C   0  0  0  0  0  2  0  0  0  0  0  0
  189.5250  176.7470  146.1320 C   0  0  0  0  0  2  0  0  0  0  0  0
  189.6730  177.6000  148.3500 O   0  0  0  0  0  0  0  0  0  0  0  0
  192.3180  175.5610  146.7620 C   0  0  0  0  0  2  0  0  0  0  0  0
  192.4220  175.8530  148.2420 C   0  0  0  0  0  2  0  0  0  0  0  0
  191.7000  176.8210  147.3290 C   0  0  0  0  0  3  0  0  0  0  0  0
  185.4380  178.2890  138.1500 C   0  0  0  0  0  0  0  0  0  0  0  0
  186.0920  179.2300  137.6230 O   0  0  0  0  0  0  0  0  0  0  0  0
  185.3570  177.0170  137.4930 N   0  0  0  0  0  2  0  0  0  0  0  0
  186.0630  176.7620  136.3100 N   0  0  0  0  0  2  0  0  0  0  0  0
  186.5470  175.4490  136.3960 N   0  0  0  0  0  2  0  0  0  0  0  0
  188.2430  173.9610  136.9310 O   0  0  0  0  0  0  0  0  0  0  0  0
  187.8510  175.1560  136.9000 C   0  0  0  0  0  0  0  0  0  0  0  0
  188.7610  176.2340  137.4020 C   0  0  2  0  0  3  0  0  0  0  0  0
  188.9580  177.1830  136.4200 F   0  0  0  0  0  0  0  0  0  0  0  0
  190.1020  175.6630  137.8430 C   0  0  0  0  0  2  0  0  0  0  0  0
  192.1970  176.5170  138.5980 O   0  0  0  0  0  1  0  0  0  0  0  0
  190.8170  176.6110  138.7900 C   0  0  0  0  0  3  0  0  0  0  0  0
  190.5100  176.2640  140.1030 O   0  0  0  0  0  1  0  0  0  0  0  0
  187.6120  178.3750  140.0840 C   0  0  0  0  0  2  0  0  0  0  0  0
  186.5220  177.9920  141.0770 C   0  0  0  0  0  3  0  0  0  0  0  0
  187.4150  179.2020  141.3240 C   0  0  0  0  0  2  0  0  0  0  0  0
  180.1230  180.5420  140.4850 O   0  0  0  0  0  1  0  0  0  0  0  0
  180.3970  179.1780  140.6220 C   0  0  0  0  0  2  0  0  0  0  0  0
  2  3  1  0  0  0  0
  2  6  2  0  0  0  0
  3 10  2  0  0  0  0
  4  8  2  0  0  0  0
  4  7  1  0  0  0  0
  5  8  1  0  0  0  0
  6  9  1  0  0  0  0
  7 40  1  0  0  0  0
  7  6  1  0  0  0  0
  8  2  1  0  0  0  0
  9  1  1  0  0  0  0
  9 11  1  0  0  0  0
 10  1  1  0  0  0  0
 11 16  1  0  0  0  0
 13 12  1  0  0  0  0
 13 18  1  0  0  0  0
 14 13  2  0  0  0  0
 15 11  2  0  0  0  0
 15 14  1  0  0  0  0
 16 17  1  0  0  0  0
 16 12  2  0  0  0  0
 18 20  1  0  0  0  0
 19 25  1  6  0  0  0
 19 22  1  0  0  0  0
 20 22  1  0  0  0  0
 21 18  1  0  0  0  0
 21 19  1  0  0  0  0
 23 25  1  0  0  0  0
 23 24  1  0  0  0  0
 25 24  1  0  0  0  0
 26  4  1  0  0  0  0
 27 26  2  0  0  0  0
 28 26  1  0  0  0  0
 29 30  1  0  0  0  0
 29 28  1  0  0  0  0
 30 32  1  0  0  0  0
 32 31  2  0  0  0  0
 32 33  1  0  0  0  0
 33 34  1  6  0  0  0
 33 35  1  0  0  0  0
 35 37  1  0  0  0  0
 36 37  1  0  0  0  0
 37 38  1  0  0  0  0
 39 40  1  0  0  0  0
 39 41  1  0  0  0  0
 40 41  1  0  0  0  0
 42 43  1  0  0  0  0
 43  3  1  0  0  0  0
M  END
>  <MODEL>
2

>  <REMARK>
 VINA RESULT:      -6.8      2.914      7.456
  Name = 
  11 active torsions:
  status: ('A' for Active; 'I' for Inactive)
    1  A    between atoms: C_3  and  C_15
    2  A    between atoms: C_3  and  C_37
    3  A    between atoms: C_5  and  C_22
    4  A    between atoms: N_6  and  N_13
    5  A    between atoms: N_6  and  N_33
    6  A    between atoms: C_8  and  C_12
    7  A    between atoms: N_9  and  C_23
    8  A    between atoms: C_14  and  N_38
    9  A    between atoms: C_15  and  C_24
   10  A    between atoms: C_16  and  C_41
   11  A    between atoms: C_26  and  N_35
                            x       y       z     vdW  Elec       q    Type
                         _______ _______ _______ _____ _____    ______ ____

>  <TORSDO>
F 11

$$$$
=
 OpenBabel10222421363D

 43 48  0  0  1  0  0  0  0  0999 V2000
  188.9250  176.9950  136.5630 N   0  0  0  0  0  2  0  0  0  0  0  0
  187.9610  177.6790  139.0780 C   0  0  0  0  0  0  0  0  0  0  0  0
  187.1610  177.9940  137.8790 C   0  0  0  0  0  0  0  0  0  0  0  0
  188.8680  177.4810  141.0860 C   0  0  0  0  0  0  0  0  0  0  0  0
  186.5970  178.6860  141.0050 C   0  0  0  0  0  1  0  0  0  0  0  0
  189.1670  177.0380  138.9900 C   0  0  0  0  0  0  0  0  0  0  0  0
  189.7390  176.8860  140.2160 N   0  0  0  0  0  0  0  0  0  0  0  0
  187.7600  177.9700  140.4080 C   0  0  0  0  0  0  0  0  0  0  0  0
  189.7070  176.6920  137.6980 N   0  0  0  0  0  0  0  0  0  0  0  0
  187.6520  177.6580  136.6790 C   0  0  0  0  0  3  0  0  0  0  0  0
  190.9480  176.0180  137.4940 C   0  0  0  0  0  0  0  0  0  0  0  0
  192.1830  173.9690  137.1180 C   0  0  0  0  0  3  0  0  0  0  0  0
  193.3660  174.6990  136.9430 C   0  0  0  0  0  0  0  0  0  0  0  0
  193.3260  176.1010  137.0420 C   0  0  0  0  0  3  0  0  0  0  0  0
  192.1230  176.7560  137.3120 C   0  0  0  0  0  3  0  0  0  0  0  0
  190.9770  174.6220  137.3800 C   0  0  0  0  0  0  0  0  0  0  0  0
  189.8460  173.8950  137.5490 F   0  0  0  0  0  0  0  0  0  0  0  0
  194.6000  174.0240  136.6620 N   0  0  0  0  0  0  0  0  0  0  0  0
  196.8240  173.5770  136.2780 C   0  0  2  0  0  3  0  0  0  0  0  0
  194.7240  172.8440  135.8370 C   0  0  0  0  0  2  0  0  0  0  0  0
  195.8980  174.4990  137.0360 C   0  0  0  0  0  2  0  0  0  0  0  0
  196.0830  172.4730  135.7980 O   0  0  0  0  0  0  0  0  0  0  0  0
  199.2450  173.0970  136.4080 C   0  0  0  0  0  2  0  0  0  0  0  0
  198.5030  171.8000  136.6320 C   0  0  0  0  0  2  0  0  0  0  0  0
  197.9430  173.0950  137.1800 C   0  0  0  0  0  3  0  0  0  0  0  0
  189.0850  177.6760  142.5300 C   0  0  0  0  0  0  0  0  0  0  0  0
  189.6810  178.7060  142.9490 O   0  0  0  0  0  0  0  0  0  0  0  0
  188.6920  176.6510  143.4520 N   0  0  0  0  0  2  0  0  0  0  0  0
  188.8800  176.8020  144.8330 N   0  0  0  0  0  2  0  0  0  0  0  0
  187.7700  177.5070  145.3220 N   0  0  0  0  0  2  0  0  0  0  0  0
  186.5060  178.2820  147.1050 O   0  0  0  0  0  0  0  0  0  0  0  0
  187.5320  177.6610  146.7220 C   0  0  0  0  0  0  0  0  0  0  0  0
  188.4750  177.1130  147.7470 C   0  0  2  0  0  3  0  0  0  0  0  0
  187.8770  177.1130  148.9900 F   0  0  0  0  0  0  0  0  0  0  0  0
  189.7660  177.9180  147.7970 C   0  0  0  0  0  2  0  0  0  0  0  0
  191.6800  177.3670  146.4840 O   0  0  0  0  0  1  0  0  0  0  0  0
  190.9810  177.0200  147.6420 C   0  0  0  0  0  3  0  0  0  0  0  0
  190.5610  175.6960  147.5460 O   0  0  0  0  0  1  0  0  0  0  0  0
  192.1300  177.5790  140.3860 C   0  0  0  0  0  2  0  0  0  0  0  0
  191.1170  176.4460  140.4820 C   0  0  0  0  0  3  0  0  0  0  0  0
  191.6390  177.1370  141.7360 C   0  0  0  0  0  2  0  0  0  0  0  0
  184.8080  177.8050  138.0560 O   0  0  0  0  0  1  0  0  0  0  0  0
  185.8610  178.7210  137.9670 C   0  0  0  0  0  2  0  0  0  0  0  0
  1 10  1  0  0  0  0
  1  9  1  0  0  0  0
  2  8  1  0  0  0  0
  3 43  1  0  0  0  0
  3  2  1  0  0  0  0
  4 26  1  0  0  0  0
  6  2  2  0  0  0  0
  6  7  1  0  0  0  0
  7 40  1  0  0  0  0
  7  4  1  0  0  0  0
  8  5  1  0  0  0  0
  8  4  2  0  0  0  0
  9  6  1  0  0  0  0
 10  3  2  0  0  0  0
 11  9  1  0  0  0  0
 12 16  2  0  0  0  0
 13 14  2  0  0  0  0
 13 12  1  0  0  0  0
 14 15  1  0  0  0  0
 15 11  2  0  0  0  0
 16 11  1  0  0  0  0
 16 17  1  0  0  0  0
 18 13  1  0  0  0  0
 18 21  1  0  0  0  0
 19 21  1  0  0  0  0
 19 25  1  1  0  0  0
 20 18  1  0  0  0  0
 22 20  1  0  0  0  0
 22 19  1  0  0  0  0
 23 24  1  0  0  0  0
 23 25  1  0  0  0  0
 24 25  1  0  0  0  0
 26 27  2  0  0  0  0
 26 28  1  0  0  0  0
 28 29  1  0  0  0  0
 29 30  1  0  0  0  0
 30 32  1  0  0  0  0
 32 31  2  0  0  0  0
 32 33  1  0  0  0  0
 33 35  1  0  0  0  0
 33 34  1  1  0  0  0
 36 37  1  0  0  0  0
 37 35  1  0  0  0  0
 38 37  1  0  0  0  0
 39 40  1  0  0  0  0
 39 41  1  0  0  0  0
 40 41  1  0  0  0  0
 43 42  1  0  0  0  0
M  END
>  <MODEL>
3

>  <REMARK>
 VINA RESULT:      -6.6      3.335      7.391
  Name = 
  11 active torsions:
  status: ('A' for Active; 'I' for Inactive)
    1  A    between atoms: C_3  and  C_15
    2  A    between atoms: C_3  and  C_37
    3  A    between atoms: C_5  and  C_22
    4  A    between atoms: N_6  and  N_13
    5  A    between atoms: N_6  and  N_33
    6  A    between atoms: C_8  and  C_12
    7  A    between atoms: N_9  and  C_23
    8  A    between atoms: C_14  and  N_38
    9  A    between atoms: C_15  and  C_24
   10  A    between atoms: C_16  and  C_41
   11  A    between atoms: C_26  and  N_35
                            x       y       z     vdW  Elec       q    Type
                         _______ _______ _______ _____ _____    ______ ____

>  <TORSDO>
F 11

$$$$
=
 OpenBabel10222421363D

 43 48  0  0  1  0  0  0  0  0999 V2000
  190.3960  176.1240  135.4270 N   0  0  0  0  0  2  0  0  0  0  0  0
  191.7340  176.5230  137.8300 C   0  0  0  0  0  0  0  0  0  0  0  0
  192.4970  176.1550  136.6230 C   0  0  0  0  0  0  0  0  0  0  0  0
  190.9760  176.9790  139.8580 C   0  0  0  0  0  0  0  0  0  0  0  0
  193.5120  176.5910  139.6800 C   0  0  0  0  0  1  0  0  0  0  0  0
  190.3760  176.6920  137.8000 C   0  0  0  0  0  0  0  0  0  0  0  0
  189.8860  176.9930  139.0330 N   0  0  0  0  0  0  0  0  0  0  0  0
  192.1290  176.6980  139.1370 C   0  0  0  0  0  0  0  0  0  0  0  0
  189.6500  176.4680  136.5730 N   0  0  0  0  0  0  0  0  0  0  0  0
  191.8270  175.9640  135.4790 C   0  0  0  0  0  3  0  0  0  0  0  0
  188.2390  176.6240  136.4300 C   0  0  0  0  0  0  0  0  0  0  0  0
  185.9950  175.7530  136.7050 C   0  0  0  0  0  3  0  0  0  0  0  0
  185.4560  176.9800  136.2930 C   0  0  0  0  0  0  0  0  0  0  0  0
  186.3250  178.0310  135.9540 C   0  0  0  0  0  3  0  0  0  0  0  0
  187.7090  177.8550  136.0270 C   0  0  0  0  0  3  0  0  0  0  0  0
  187.3780  175.5780  136.7860 C   0  0  0  0  0  0  0  0  0  0  0  0
  187.8780  174.3820  137.1840 F   0  0  0  0  0  0  0  0  0  0  0  0
  184.0340  177.1590  136.2230 N   0  0  0  0  0  0  0  0  0  0  0  0
  181.8010  177.2600  136.7680 C   0  0  2  0  0  3  0  0  0  0  0  0
  183.2340  176.9460  135.0390 C   0  0  0  0  0  2  0  0  0  0  0  0
  183.1870  177.4340  137.3430 C   0  0  0  0  0  2  0  0  0  0  0  0
  181.8910  177.2250  135.3570 O   0  0  0  0  0  0  0  0  0  0  0  0
  179.9820  178.7730  136.0560 C   0  0  0  0  0  2  0  0  0  0  0  0
  181.1990  179.6190  136.3510 C   0  0  0  0  0  2  0  0  0  0  0  0
  180.9020  178.4010  137.2000 C   0  0  0  0  0  3  0  0  0  0  0  0
  190.9560  177.1400  141.3230 C   0  0  0  0  0  0  0  0  0  0  0  0
  191.4700  178.1610  141.8560 O   0  0  0  0  0  0  0  0  0  0  0  0
  190.4270  176.0920  142.1450 N   0  0  0  0  0  2  0  0  0  0  0  0
  190.3880  176.2110  143.5410 N   0  0  0  0  0  2  0  0  0  0  0  0
  189.0740  176.5560  143.8870 N   0  0  0  0  0  2  0  0  0  0  0  0
  187.5740  177.5480  145.3510 O   0  0  0  0  0  0  0  0  0  0  0  0
  188.7740  177.2880  145.0770 C   0  0  0  0  0  0  0  0  0  0  0  0
  189.8510  177.7600  146.0030 C   0  0  2  0  0  3  0  0  0  0  0  0
  190.9290  178.2250  145.2780 F   0  0  0  0  0  0  0  0  0  0  0  0
  190.3020  176.6470  146.9400 C   0  0  0  0  0  2  0  0  0  0  0  0
  192.2470  175.2750  146.7930 O   0  0  0  0  0  1  0  0  0  0  0  0
  191.8160  176.5830  147.0280 C   0  0  0  0  0  3  0  0  0  0  0  0
  192.2180  176.9790  148.3000 O   0  0  0  0  0  1  0  0  0  0  0  0
  188.1980  177.9270  140.6170 C   0  0  0  0  0  2  0  0  0  0  0  0
  188.4660  177.0270  139.4180 C   0  0  0  0  0  3  0  0  0  0  0  0
  187.9210  178.4370  139.2300 C   0  0  0  0  0  2  0  0  0  0  0  0
  194.6340  177.0850  136.2090 O   0  0  0  0  0  1  0  0  0  0  0  0
  193.9730  175.9380  136.6580 C   0  0  0  0  0  2  0  0  0  0  0  0
  1 10  1  0  0  0  0
  1  9  1  0  0  0  0
  2  8  1  0  0  0  0
  3 43  1  0  0  0  0
  3  2  1  0  0  0  0
  4 26  1  0  0  0  0
  6  2  2  0  0  0  0
  6  7  1  0  0  0  0
  7 40  1  0  0  0  0
  7  4  1  0  0  0  0
  8  5  1  0  0  0  0
  8  4  2  0  0  0  0
  9  6  1  0  0  0  0
 10  3  2  0  0  0  0
 11  9  1  0  0  0  0
 11 16  1  0  0  0  0
 12 16  2  0  0  0  0
 13 12  1  0  0  0  0
 14 15  1  0  0  0  0
 14 13  2  0  0  0  0
 15 11  2  0  0  0  0
 16 17  1  0  0  0  0
 18 13  1  0  0  0  0
 18 21  1  0  0  0  0
 19 25  1  6  0  0  0
 19 21  1  0  0  0  0
 20 22  1  0  0  0  0
 20 18  1  0  0  0  0
 22 19  1  0  0  0  0
 23 24  1  0  0  0  0
 23 25  1  0  0  0  0
 24 25  1  0  0  0  0
 26 27  2  0  0  0  0
 26 28  1  0  0  0  0
 28 29  1  0  0  0  0
 29 30  1  0  0  0  0
 30 32  1  0  0  0  0
 32 31  2  0  0  0  0
 32 33  1  0  0  0  0
 33 34  1  6  0  0  0
 33 35  1  0  0  0  0
 35 37  1  0  0  0  0
 36 37  1  0  0  0  0
 37 38  1  0  0  0  0
 40 39  1  0  0  0  0
 41 40  1  0  0  0  0
 41 39  1  0  0  0  0
 42 43  1  0  0  0  0
M  END
>  <MODEL>
4

>  <REMARK>
 VINA RESULT:      -6.6      3.030      9.358
  Name = 
  11 active torsions:
  status: ('A' for Active; 'I' for Inactive)
    1  A    between atoms: C_3  and  C_15
    2  A    between atoms: C_3  and  C_37
    3  A    between atoms: C_5  and  C_22
    4  A    between atoms: N_6  and  N_13
    5  A    between atoms: N_6  and  N_33
    6  A    between atoms: C_8  and  C_12
    7  A    between atoms: N_9  and  C_23
    8  A    between atoms: C_14  and  N_38
    9  A    between atoms: C_15  and  C_24
   10  A    between atoms: C_16  and  C_41
   11  A    between atoms: C_26  and  N_35
                            x       y       z     vdW  Elec       q    Type
                         _______ _______ _______ _____ _____    ______ ____

>  <TORSDO>
F 11

$$$$
=
 OpenBabel10222421363D

 43 48  0  0  1  0  0  0  0  0999 V2000
  190.0720  176.3680  135.1900 N   0  0  0  0  0  2  0  0  0  0  0  0
  188.4180  177.2300  137.2500 C   0  0  0  0  0  0  0  0  0  0  0  0
  187.9680  177.3580  135.8510 C   0  0  0  0  0  0  0  0  0  0  0  0
  188.7420  177.3110  139.4370 C   0  0  0  0  0  0  0  0  0  0  0  0
  186.5290  178.3220  138.6020 C   0  0  0  0  0  1  0  0  0  0  0  0
  189.6300  176.6790  137.5690 C   0  0  0  0  0  0  0  0  0  0  0  0
  189.8460  176.6990  138.9130 N   0  0  0  0  0  0  0  0  0  0  0  0
  187.8440  177.6410  138.4320 C   0  0  0  0  0  0  0  0  0  0  0  0
  190.5220  176.2450  136.5220 N   0  0  0  0  0  0  0  0  0  0  0  0
  188.7870  176.9390  134.8780 C   0  0  0  0  0  3  0  0  0  0  0  0
  191.8000  175.6520  136.7430 C   0  0  0  0  0  0  0  0  0  0  0  0
  193.1440  173.7130  137.2940 C   0  0  0  0  0  3  0  0  0  0  0  0
  194.3170  174.4370  137.0340 C   0  0  0  0  0  0  0  0  0  0  0  0
  194.2170  175.7760  136.6220 C   0  0  0  0  0  3  0  0  0  0  0  0
  192.9650  176.3790  136.4730 C   0  0  0  0  0  3  0  0  0  0  0  0
  191.8920  174.3110  137.1380 C   0  0  0  0  0  0  0  0  0  0  0  0
  190.7720  173.5930  137.3980 F   0  0  0  0  0  0  0  0  0  0  0  0
  195.6000  173.8150  137.1840 N   0  0  0  0  0  0  0  0  0  0  0  0
  197.7910  173.1900  136.8640 C   0  0  2  0  0  3  0  0  0  0  0  0
  195.8190  172.5030  137.7480 C   0  0  0  0  0  2  0  0  0  0  0  0
  196.8290  174.3370  136.6680 C   0  0  0  0  0  2  0  0  0  0  0  0
  197.2030  172.2400  137.7310 O   0  0  0  0  0  0  0  0  0  0  0  0
  200.2290  173.3670  136.5020 C   0  0  0  0  0  2  0  0  0  0  0  0
  200.0040  172.5080  137.7260 C   0  0  0  0  0  2  0  0  0  0  0  0
  199.0950  173.6880  137.4530 C   0  0  0  0  0  3  0  0  0  0  0  0
  188.5410  177.6700  140.8520 C   0  0  0  0  0  0  0  0  0  0  0  0
  188.6470  178.8710  141.2230 O   0  0  0  0  0  0  0  0  0  0  0  0
  188.3080  176.6390  141.8200 N   0  0  0  0  0  2  0  0  0  0  0  0
  188.1100  176.9430  143.1740 N   0  0  0  0  0  2  0  0  0  0  0  0
  189.2620  176.5320  143.8600 N   0  0  0  0  0  2  0  0  0  0  0  0
  190.6580  176.6620  145.7060 O   0  0  0  0  0  0  0  0  0  0  0  0
  189.5980  177.0470  145.1490 C   0  0  0  0  0  0  0  0  0  0  0  0
  188.7170  178.0270  145.8590 C   0  0  2  0  0  3  0  0  0  0  0  0
  189.2600  178.3510  147.0850 F   0  0  0  0  0  0  0  0  0  0  0  0
  187.3120  177.4710  146.0480 C   0  0  0  0  0  2  0  0  0  0  0  0
  185.4120  178.4860  147.0720 O   0  0  0  0  0  1  0  0  0  0  0  0
  186.2700  178.5730  145.9730 C   0  0  0  0  0  3  0  0  0  0  0  0
  185.5330  178.4270  144.8010 O   0  0  0  0  0  1  0  0  0  0  0  0
  192.1670  177.4800  139.3940 C   0  0  0  0  0  2  0  0  0  0  0  0
  191.1150  176.3970  139.5920 C   0  0  0  0  0  3  0  0  0  0  0  0
  191.3760  177.4400  140.6720 C   0  0  0  0  0  2  0  0  0  0  0  0
  186.8140  178.7930  134.3650 O   0  0  0  0  0  1  0  0  0  0  0  0
  186.6620  177.9870  135.4970 C   0  0  0  0  0  2  0  0  0  0  0  0
  1  9  1  0  0  0  0
  2  6  2  0  0  0  0
  2  8  1  0  0  0  0
  3  2  1  0  0  0  0
  4 26  1  0  0  0  0
  6  7  1  0  0  0  0
  7  4  1  0  0  0  0
  7 40  1  0  0  0  0
  8  5  1  0  0  0  0
  8  4  2  0  0  0  0
  9 11  1  0  0  0  0
  9  6  1  0  0  0  0
 10  1  1  0  0  0  0
 10  3  2  0  0  0  0
 11 16  1  0  0  0  0
 13 18  1  0  0  0  0
 13 12  1  0  0  0  0
 14 13  2  0  0  0  0
 15 14  1  0  0  0  0
 15 11  2  0  0  0  0
 16 12  2  0  0  0  0
 16 17  1  0  0  0  0
 18 20  1  0  0  0  0
 19 25  1  1  0  0  0
 19 22  1  0  0  0  0
 21 19  1  0  0  0  0
 21 18  1  0  0  0  0
 22 20  1  0  0  0  0
 23 25  1  0  0  0  0
 23 24  1  0  0  0  0
 25 24  1  0  0  0  0
 26 27  2  0  0  0  0
 26 28  1  0  0  0  0
 28 29  1  0  0  0  0
 29 30  1  0  0  0  0
 30 32  1  0  0  0  0
 32 31  2  0  0  0  0
 32 33  1  0  0  0  0
 33 35  1  0  0  0  0
 33 34  1  1  0  0  0
 37 35  1  0  0  0  0
 37 36  1  0  0  0  0
 38 37  1  0  0  0  0
 39 40  1  0  0  0  0
 39 41  1  0  0  0  0
 40 41  1  0  0  0  0
 42 43  1  0  0  0  0
 43  3  1  0  0  0  0
M  END
>  <MODEL>
5

>  <REMARK>
 VINA RESULT:      -6.3      3.602      7.831
  Name = 
  11 active torsions:
  status: ('A' for Active; 'I' for Inactive)
    1  A    between atoms: C_3  and  C_15
    2  A    between atoms: C_3  and  C_37
    3  A    between atoms: C_5  and  C_22
    4  A    between atoms: N_6  and  N_13
    5  A    between atoms: N_6  and  N_33
    6  A    between atoms: C_8  and  C_12
    7  A    between atoms: N_9  and  C_23
    8  A    between atoms: C_14  and  N_38
    9  A    between atoms: C_15  and  C_24
   10  A    between atoms: C_16  and  C_41
   11  A    between atoms: C_26  and  N_35
                            x       y       z     vdW  Elec       q    Type
                         _______ _______ _______ _____ _____    ______ ____

>  <TORSDO>
F 11

$$$$
=
 OpenBabel10222421363D

 43 48  0  0  1  0  0  0  0  0999 V2000
  190.1600  176.8240  142.5520 N   0  0  0  0  0  2  0  0  0  0  0  0
  187.6250  177.9060  142.1900 C   0  0  0  0  0  0  0  0  0  0  0  0
  188.1050  177.6130  143.5540 C   0  0  0  0  0  0  0  0  0  0  0  0
  186.5030  178.3930  140.3480 C   0  0  0  0  0  0  0  0  0  0  0  0
  185.2200  178.7260  142.5530 C   0  0  0  0  0  1  0  0  0  0  0  0
  188.4030  177.6750  141.0880 C   0  0  0  0  0  0  0  0  0  0  0  0
  187.7410  177.9860  139.9400 N   0  0  0  0  0  0  0  0  0  0  0  0
  186.4090  178.3600  141.7320 C   0  0  0  0  0  0  0  0  0  0  0  0
  189.7140  177.0910  141.2410 N   0  0  0  0  0  0  0  0  0  0  0  0
  189.3290  177.0870  143.6990 C   0  0  0  0  0  3  0  0  0  0  0  0
  190.6070  176.8170  140.1620 C   0  0  0  0  0  0  0  0  0  0  0  0
  192.7880  177.0550  139.1350 C   0  0  0  0  0  3  0  0  0  0  0  0
  192.4210  176.1610  138.1200 C   0  0  0  0  0  0  0  0  0  0  0  0
  191.1350  175.5930  138.1400 C   0  0  0  0  0  3  0  0  0  0  0  0
  190.2350  175.9160  139.1580 C   0  0  0  0  0  3  0  0  0  0  0  0
  191.8930  177.3730  140.1580 C   0  0  0  0  0  0  0  0  0  0  0  0
  192.2680  178.2430  141.1280 F   0  0  0  0  0  0  0  0  0  0  0  0
  193.3480  175.8270  137.0780 N   0  0  0  0  0  0  0  0  0  0  0  0
  195.2540  175.2170  135.9430 C   0  0  2  0  0  3  0  0  0  0  0  0
  193.3100  176.3660  135.7380 C   0  0  0  0  0  2  0  0  0  0  0  0
  194.5230  175.0280  137.2510 C   0  0  0  0  0  2  0  0  0  0  0  0
  194.3730  175.8030  135.0050 O   0  0  0  0  0  0  0  0  0  0  0  0
  197.1510  173.6330  135.9460 C   0  0  0  0  0  2  0  0  0  0  0  0
  196.9540  174.1170  134.5280 C   0  0  0  0  0  2  0  0  0  0  0  0
  195.7530  173.8850  135.4200 C   0  0  0  0  0  3  0  0  0  0  0  0
  185.3710  178.7370  139.4680 C   0  0  0  0  0  0  0  0  0  0  0  0
  184.9400  179.9210  139.4220 O   0  0  0  0  0  0  0  0  0  0  0  0
  184.7060  177.7030  138.7310 N   0  0  0  0  0  2  0  0  0  0  0  0
  183.6280  177.9910  137.8820 N   0  0  0  0  0  2  0  0  0  0  0  0
  182.7240  176.9250  137.9910 N   0  0  0  0  0  2  0  0  0  0  0  0
  180.7740  176.0230  138.8630 O   0  0  0  0  0  0  0  0  0  0  0  0
  181.5370  177.0200  138.7800 C   0  0  0  0  0  0  0  0  0  0  0  0
  181.1710  178.2770  139.5050 C   0  0  2  0  0  3  0  0  0  0  0  0
  181.3660  179.3710  138.6850 F   0  0  0  0  0  0  0  0  0  0  0  0
  181.9890  178.4380  140.7800 C   0  0  0  0  0  2  0  0  0  0  0  0
  180.1090  177.7570  142.0800 O   0  0  0  0  0  1  0  0  0  0  0  0
  181.0970  178.7390  141.9710 C   0  0  0  0  0  3  0  0  0  0  0  0
  180.4930  179.9800  141.7890 O   0  0  0  0  0  1  0  0  0  0  0  0
  187.5850  178.5970  137.5250 C   0  0  0  0  0  2  0  0  0  0  0  0
  188.1780  177.6640  138.5730 C   0  0  0  0  0  3  0  0  0  0  0  0
  188.9900  178.8250  138.0110 C   0  0  0  0  0  2  0  0  0  0  0  0
  188.0500  178.1330  145.8620 O   0  0  0  0  0  1  0  0  0  0  0  0
  187.2490  177.8320  144.7560 C   0  0  0  0  0  2  0  0  0  0  0  0
  1 10  1  0  0  0  0
  2  3  1  0  0  0  0
  3 10  2  0  0  0  0
  3 43  1  0  0  0  0
  4  8  2  0  0  0  0
  6  9  1  0  0  0  0
  6  2  2  0  0  0  0
  7  4  1  0  0  0  0
  7  6  1  0  0  0  0
  8  2  1  0  0  0  0
  8  5  1  0  0  0  0
  9  1  1  0  0  0  0
 11  9  1  0  0  0  0
 12 16  2  0  0  0  0
 13 14  2  0  0  0  0
 13 12  1  0  0  0  0
 14 15  1  0  0  0  0
 15 11  2  0  0  0  0
 16 11  1  0  0  0  0
 16 17  1  0  0  0  0
 18 21  1  0  0  0  0
 18 13  1  0  0  0  0
 19 25  1  6  0  0  0
 19 21  1  0  0  0  0
 20 18  1  0  0  0  0
 22 20  1  0  0  0  0
 22 19  1  0  0  0  0
 24 25  1  0  0  0  0
 24 23  1  0  0  0  0
 25 23  1  0  0  0  0
 26  4  1  0  0  0  0
 27 26  2  0  0  0  0
 28 26  1  0  0  0  0
 29 30  1  0  0  0  0
 29 28  1  0  0  0  0
 30 32  1  0  0  0  0
 32 31  2  0  0  0  0
 32 33  1  0  0  0  0
 33 34  1  6  0  0  0
 33 35  1  0  0  0  0
 35 37  1  0  0  0  0
 37 36  1  0  0  0  0
 38 37  1  0  0  0  0
 39 41  1  0  0  0  0
 39 40  1  0  0  0  0
 40  7  1  0  0  0  0
 41 40  1  0  0  0  0
 43 42  1  0  0  0  0
M  END
>  <MODEL>
6

>  <REMARK>
 VINA RESULT:      -6.3      2.424      3.815
  Name = 
  11 active torsions:
  status: ('A' for Active; 'I' for Inactive)
    1  A    between atoms: C_3  and  C_15
    2  A    between atoms: C_3  and  C_37
    3  A    between atoms: C_5  and  C_22
    4  A    between atoms: N_6  and  N_13
    5  A    between atoms: N_6  and  N_33
    6  A    between atoms: C_8  and  C_12
    7  A    between atoms: N_9  and  C_23
    8  A    between atoms: C_14  and  N_38
    9  A    between atoms: C_15  and  C_24
   10  A    between atoms: C_16  and  C_41
   11  A    between atoms: C_26  and  N_35
                            x       y       z     vdW  Elec       q    Type
                         _______ _______ _______ _____ _____    ______ ____

>  <TORSDO>
F 11

$$$$
=
 OpenBabel10222421363D

 43 48  0  0  1  0  0  0  0  0999 V2000
  192.7340  176.2140  138.8080 N   0  0  0  0  0  2  0  0  0  0  0  0
  190.7400  176.4620  136.8880 C   0  0  0  0  0  0  0  0  0  0  0  0
  192.1240  176.1710  136.4690 C   0  0  0  0  0  0  0  0  0  0  0  0
  188.5980  176.9820  137.0760 C   0  0  0  0  0  0  0  0  0  0  0  0
  189.4680  176.7020  134.6720 C   0  0  0  0  0  1  0  0  0  0  0  0
  190.4000  176.5990  138.2070 C   0  0  0  0  0  0  0  0  0  0  0  0
  189.0810  176.9010  138.3520 N   0  0  0  0  0  0  0  0  0  0  0  0
  189.6000  176.7080  136.1560 C   0  0  0  0  0  0  0  0  0  0  0  0
  191.4170  176.5000  139.2270 N   0  0  0  0  0  0  0  0  0  0  0  0
  193.0660  176.0610  137.4150 C   0  0  0  0  0  3  0  0  0  0  0  0
  191.1720  176.6190  140.6270 C   0  0  0  0  0  0  0  0  0  0  0  0
  191.5300  177.7700  142.7280 C   0  0  0  0  0  3  0  0  0  0  0  0
  190.5770  176.9530  143.3520 C   0  0  0  0  0  0  0  0  0  0  0  0
  189.9200  175.9670  142.5960 C   0  0  0  0  0  3  0  0  0  0  0  0
  190.2120  175.8050  141.2400 C   0  0  0  0  0  3  0  0  0  0  0  0
  191.8180  177.6140  141.3710 C   0  0  0  0  0  0  0  0  0  0  0  0
  192.7460  178.4130  140.7880 F   0  0  0  0  0  0  0  0  0  0  0  0
  190.2760  177.1240  144.7440 N   0  0  0  0  0  0  0  0  0  0  0  0
  189.3480  177.8530  146.7190 C   0  0  2  0  0  3  0  0  0  0  0  0
  191.2260  176.9550  145.8190 C   0  0  0  0  0  2  0  0  0  0  0  0
  189.0380  177.6250  145.2580 C   0  0  0  0  0  2  0  0  0  0  0  0
  190.5630  177.2030  147.0380 O   0  0  0  0  0  0  0  0  0  0  0  0
  187.2240  178.4120  147.8520 C   0  0  0  0  0  2  0  0  0  0  0  0
  188.2320  178.0380  148.9150 C   0  0  0  0  0  2  0  0  0  0  0  0
  188.2300  177.3110  147.5870 C   0  0  0  0  0  3  0  0  0  0  0  0
  187.2360  177.3920  136.6910 C   0  0  0  0  0  0  0  0  0  0  0  0
  187.0250  178.5510  136.2400 O   0  0  0  0  0  0  0  0  0  0  0  0
  186.1370  176.4980  136.9100 N   0  0  0  0  0  2  0  0  0  0  0  0
  184.8280  176.8520  136.5540 N   0  0  0  0  0  2  0  0  0  0  0  0
  183.9690  175.9570  137.2080 N   0  0  0  0  0  2  0  0  0  0  0  0
  182.6300  175.4170  139.0230 O   0  0  0  0  0  0  0  0  0  0  0  0
  183.3730  176.2680  138.4680 C   0  0  0  0  0  0  0  0  0  0  0  0
  183.6010  177.5840  139.1430 C   0  0  2  0  0  3  0  0  0  0  0  0
  183.6210  177.4180  140.5130 F   0  0  0  0  0  0  0  0  0  0  0  0
  182.5260  178.5940  138.7640 C   0  0  0  0  0  2  0  0  0  0  0  0
  182.2320  180.9430  138.4710 O   0  0  0  0  0  1  0  0  0  0  0  0
  182.8820  179.9870  139.2540 C   0  0  0  0  0  3  0  0  0  0  0  0
  184.2580  180.1690  139.1550 O   0  0  0  0  0  1  0  0  0  0  0  0
  188.6940  178.7880  139.9380 C   0  0  0  0  0  2  0  0  0  0  0  0
  188.4200  177.3300  139.5940 C   0  0  0  0  0  3  0  0  0  0  0  0
  187.3970  178.4130  139.2780 C   0  0  0  0  0  2  0  0  0  0  0  0
  192.7580  174.7150  134.7140 O   0  0  0  0  0  1  0  0  0  0  0  0
  192.5040  176.0530  135.0310 C   0  0  0  0  0  2  0  0  0  0  0  0
  1  9  1  0  0  0  0
  2  6  2  0  0  0  0
  3  2  1  0  0  0  0
  3 10  2  0  0  0  0
  4  7  1  0  0  0  0
  5  8  1  0  0  0  0
  6  7  1  0  0  0  0
  6  9  1  0  0  0  0
  7 40  1  0  0  0  0
  8  2  1  0  0  0  0
  8  4  2  0  0  0  0
  9 11  1  0  0  0  0
 10  1  1  0  0  0  0
 11 15  2  0  0  0  0
 11 16  1  0  0  0  0
 12 13  1  0  0  0  0
 13 18  1  0  0  0  0
 14 13  2  0  0  0  0
 15 14  1  0  0  0  0
 16 12  2  0  0  0  0
 17 16  1  0  0  0  0
 18 21  1  0  0  0  0
 18 20  1  0  0  0  0
 19 22  1  0  0  0  0
 19 25  1  1  0  0  0
 20 22  1  0  0  0  0
 21 19  1  0  0  0  0
 23 24  1  0  0  0  0
 25 23  1  0  0  0  0
 25 24  1  0  0  0  0
 26 28  1  0  0  0  0
 26  4  1  0  0  0  0
 27 26  2  0  0  0  0
 29 28  1  0  0  0  0
 29 30  1  0  0  0  0
 30 32  1  0  0  0  0
 32 31  2  0  0  0  0
 32 33  1  0  0  0  0
 33 34  1  1  0  0  0
 35 33  1  0  0  0  0
 35 37  1  0  0  0  0
 36 37  1  0  0  0  0
 38 37  1  0  0  0  0
 40 39  1  0  0  0  0
 41 40  1  0  0  0  0
 41 39  1  0  0  0  0
 42 43  1  0  0  0  0
 43  3  1  0  0  0  0
M  END
>  <MODEL>
7

>  <REMARK>
 VINA RESULT:      -6.2      2.477      7.674
  Name = 
  11 active torsions:
  status: ('A' for Active; 'I' for Inactive)
    1  A    between atoms: C_3  and  C_15
    2  A    between atoms: C_3  and  C_37
    3  A    between atoms: C_5  and  C_22
    4  A    between atoms: N_6  and  N_13
    5  A    between atoms: N_6  and  N_33
    6  A    between atoms: C_8  and  C_12
    7  A    between atoms: N_9  and  C_23
    8  A    between atoms: C_14  and  N_38
    9  A    between atoms: C_15  and  C_24
   10  A    between atoms: C_16  and  C_41
   11  A    between atoms: C_26  and  N_35
                            x       y       z     vdW  Elec       q    Type
                         _______ _______ _______ _____ _____    ______ ____

>  <TORSDO>
F 11

$$$$
=
 OpenBabel10222421363D

 43 48  0  0  1  0  0  0  0  0999 V2000
  189.4400  174.1510  134.5070 N   0  0  0  0  0  2  0  0  0  0  0  0
  187.8730  175.6300  136.2630 C   0  0  0  0  0  0  0  0  0  0  0  0
  187.2290  174.8600  135.1820 C   0  0  0  0  0  0  0  0  0  0  0  0
  188.4300  176.9770  137.9270 C   0  0  0  0  0  0  0  0  0  0  0  0
  185.9170  176.8500  137.3920 C   0  0  0  0  0  1  0  0  0  0  0  0
  189.2300  175.6250  136.4410 C   0  0  0  0  0  0  0  0  0  0  0  0
  189.5990  176.4330  137.4730 N   0  0  0  0  0  0  0  0  0  0  0  0
  187.3510  176.4920  137.2010 C   0  0  0  0  0  0  0  0  0  0  0  0
  190.0730  174.8870  135.5310 N   0  0  0  0  0  0  0  0  0  0  0  0
  188.0090  174.1600  134.3470 C   0  0  0  0  0  3  0  0  0  0  0  0
  191.4940  174.8090  135.6300 C   0  0  0  0  0  0  0  0  0  0  0  0
  193.6800  175.7670  135.2170 C   0  0  0  0  0  3  0  0  0  0  0  0
  194.2840  174.7380  135.9520 C   0  0  0  0  0  0  0  0  0  0  0  0
  193.4750  173.7440  136.5300 C   0  0  0  0  0  3  0  0  0  0  0  0
  192.0880  173.7820  136.3740 C   0  0  0  0  0  3  0  0  0  0  0  0
  192.2930  175.8120  135.0660 C   0  0  0  0  0  0  0  0  0  0  0  0
  191.7310  176.8150  134.3470 F   0  0  0  0  0  0  0  0  0  0  0  0
  195.7090  174.7030  136.1150 N   0  0  0  0  0  0  0  0  0  0  0  0
  197.8200  174.2580  136.9130 C   0  0  2  0  0  3  0  0  0  0  0  0
  196.6080  175.7680  135.7330 C   0  0  0  0  0  2  0  0  0  0  0  0
  196.4300  173.6780  136.8070 C   0  0  0  0  0  2  0  0  0  0  0  0
  197.9230  175.3690  136.0440 O   0  0  0  0  0  0  0  0  0  0  0  0
  200.2300  173.8540  136.5440 C   0  0  0  0  0  2  0  0  0  0  0  0
  199.5130  173.6070  135.2360 C   0  0  0  0  0  2  0  0  0  0  0  0
  198.8560  173.2160  136.5430 C   0  0  0  0  0  3  0  0  0  0  0  0
  188.3040  178.0070  138.9730 C   0  0  0  0  0  0  0  0  0  0  0  0
  188.5600  179.2140  138.7100 O   0  0  0  0  0  0  0  0  0  0  0  0
  187.9730  177.6210  140.3140 N   0  0  0  0  0  2  0  0  0  0  0  0
  187.8420  178.5720  141.3340 N   0  0  0  0  0  2  0  0  0  0  0  0
  187.7590  177.8670  142.5440 N   0  0  0  0  0  2  0  0  0  0  0  0
  186.5880  177.2910  144.4600 O   0  0  0  0  0  0  0  0  0  0  0  0
  186.5980  177.9240  143.3730 C   0  0  0  0  0  0  0  0  0  0  0  0
  185.3870  178.7100  142.9780 C   0  0  2  0  0  3  0  0  0  0  0  0
  184.5140  178.8050  144.0440 F   0  0  0  0  0  0  0  0  0  0  0  0
  184.6790  178.0750  141.7890 C   0  0  0  0  0  2  0  0  0  0  0  0
  182.8340  178.5990  140.3710 O   0  0  0  0  0  1  0  0  0  0  0  0
  184.0020  179.1260  140.9260 C   0  0  0  0  0  3  0  0  0  0  0  0
  184.8670  179.5050  139.9040 O   0  0  0  0  0  1  0  0  0  0  0  0
  191.1220  177.2800  139.2580 C   0  0  0  0  0  2  0  0  0  0  0  0
  190.9720  176.8390  137.8080 C   0  0  0  0  0  3  0  0  0  0  0  0
  191.5410  175.8930  138.8590 C   0  0  0  0  0  2  0  0  0  0  0  0
  185.1580  173.7930  135.5970 O   0  0  0  0  0  1  0  0  0  0  0  0
  185.7530  174.8880  134.9640 C   0  0  0  0  0  2  0  0  0  0  0  0
  1  9  1  0  0  0  0
  2  6  2  0  0  0  0
  2  8  1  0  0  0  0
  3  2  1  0  0  0  0
  4 26  1  0  0  0  0
  6  7  1  0  0  0  0
  7 40  1  0  0  0  0
  7  4  1  0  0  0  0
  8  5  1  0  0  0  0
  8  4  2  0  0  0  0
  9 11  1  0  0  0  0
  9  6  1  0  0  0  0
 10  1  1  0  0  0  0
 10  3  2  0  0  0  0
 11 15  1  0  0  0  0
 12 13  2  0  0  0  0
 13 18  1  0  0  0  0
 13 14  1  0  0  0  0
 15 14  2  0  0  0  0
 16 12  1  0  0  0  0
 16 11  2  0  0  0  0
 17 16  1  0  0  0  0
 18 21  1  0  0  0  0
 19 25  1  6  0  0  0
 20 22  1  0  0  0  0
 20 18  1  0  0  0  0
 21 19  1  0  0  0  0
 22 19  1  0  0  0  0
 24 25  1  0  0  0  0
 24 23  1  0  0  0  0
 25 23  1  0  0  0  0
 26 28  1  0  0  0  0
 27 26  2  0  0  0  0
 28 29  1  0  0  0  0
 29 30  1  0  0  0  0
 30 32  1  0  0  0  0
 32 31  2  0  0  0  0
 33 32  1  0  0  0  0
 33 34  1  1  0  0  0
 35 33  1  0  0  0  0
 36 37  1  0  0  0  0
 37 35  1  0  0  0  0
 38 37  1  0  0  0  0
 40 41  1  0  0  0  0
 40 39  1  0  0  0  0
 41 39  1  0  0  0  0
 43  3  1  0  0  0  0
 43 42  1  0  0  0  0
M  END
>  <MODEL>
8

>  <REMARK>
 VINA RESULT:      -6.2      3.761      7.539
  Name = 
  11 active torsions:
  status: ('A' for Active; 'I' for Inactive)
    1  A    between atoms: C_3  and  C_15
    2  A    between atoms: C_3  and  C_37
    3  A    between atoms: C_5  and  C_22
    4  A    between atoms: N_6  and  N_13
    5  A    between atoms: N_6  and  N_33
    6  A    between atoms: C_8  and  C_12
    7  A    between atoms: N_9  and  C_23
    8  A    between atoms: C_14  and  N_38
    9  A    between atoms: C_15  and  C_24
   10  A    between atoms: C_16  and  C_41
   11  A    between atoms: C_26  and  N_35
                            x       y       z     vdW  Elec       q    Type
                         _______ _______ _______ _____ _____    ______ ____

>  <TORSDO>
F 11

$$$$
=
 OpenBabel10222421363D

 43 48  0  0  1  0  0  0  0  0999 V2000
  190.1620  176.9040  142.4340 N   0  0  0  0  0  2  0  0  0  0  0  0
  187.6350  177.9960  142.0460 C   0  0  0  0  0  0  0  0  0  0  0  0
  188.1240  177.7580  143.4170 C   0  0  0  0  0  0  0  0  0  0  0  0
  186.5010  178.4140  140.1940 C   0  0  0  0  0  0  0  0  0  0  0  0
  185.2410  178.8560  142.3930 C   0  0  0  0  0  1  0  0  0  0  0  0
  188.4010  177.7090  140.9490 C   0  0  0  0  0  0  0  0  0  0  0  0
  187.7320  177.9760  139.7930 N   0  0  0  0  0  0  0  0  0  0  0  0
  186.4190  178.4420  141.5790 C   0  0  0  0  0  0  0  0  0  0  0  0
  189.7070  177.1190  141.1160 N   0  0  0  0  0  0  0  0  0  0  0  0
  189.3440  177.2260  143.5750 C   0  0  0  0  0  3  0  0  0  0  0  0
  190.5880  176.7890  140.0430 C   0  0  0  0  0  0  0  0  0  0  0  0
  192.7660  176.9470  138.9960 C   0  0  0  0  0  3  0  0  0  0  0  0
  192.3750  176.0230  138.0160 C   0  0  0  0  0  0  0  0  0  0  0  0
  191.0790  175.4820  138.0630 C   0  0  0  0  0  3  0  0  0  0  0  0
  190.1920  175.8590  139.0740 C   0  0  0  0  0  3  0  0  0  0  0  0
  191.8840  177.3190  140.0110 C   0  0  0  0  0  0  0  0  0  0  0  0
  192.2820  178.2160  140.9470 F   0  0  0  0  0  0  0  0  0  0  0  0
  193.2890  175.6340  136.9810 N   0  0  0  0  0  0  0  0  0  0  0  0
  195.2060  175.0900  135.8310 C   0  0  2  0  0  3  0  0  0  0  0  0
  193.1080  175.9120  135.5750 C   0  0  0  0  0  2  0  0  0  0  0  0
  194.5750  175.0450  137.2020 C   0  0  0  0  0  2  0  0  0  0  0  0
  194.2050  175.3730  134.8730 O   0  0  0  0  0  0  0  0  0  0  0  0
  197.3560  173.8740  135.7610 C   0  0  0  0  0  2  0  0  0  0  0  0
  196.8210  173.9510  134.3500 C   0  0  0  0  0  2  0  0  0  0  0  0
  195.8670  173.7650  135.5100 C   0  0  0  0  0  3  0  0  0  0  0  0
  185.3650  178.7300  139.3100 C   0  0  0  0  0  0  0  0  0  0  0  0
  184.9360  179.9140  139.2250 O   0  0  0  0  0  0  0  0  0  0  0  0
  184.6940  177.6740  138.6110 N   0  0  0  0  0  2  0  0  0  0  0  0
  183.6110  177.9360  137.7600 N   0  0  0  0  0  2  0  0  0  0  0  0
  182.6680  176.9200  137.9700 N   0  0  0  0  0  2  0  0  0  0  0  0
  181.6860  174.9220  137.3240 O   0  0  0  0  0  0  0  0  0  0  0  0
  182.5690  175.7910  137.1020 C   0  0  0  0  0  0  0  0  0  0  0  0
  183.4920  175.6090  135.9380 C   0  0  2  0  0  3  0  0  0  0  0  0
  182.7700  175.3130  134.8000 F   0  0  0  0  0  0  0  0  0  0  0  0
  184.5070  174.5040  136.2050 C   0  0  0  0  0  2  0  0  0  0  0  0
  186.5640  175.5450  135.5960 O   0  0  0  0  0  1  0  0  0  0  0  0
  185.8280  175.0760  136.6870 C   0  0  0  0  0  3  0  0  0  0  0  0
  186.5500  174.0770  137.3340 O   0  0  0  0  0  1  0  0  0  0  0  0
  187.5610  178.4830  137.3560 C   0  0  0  0  0  2  0  0  0  0  0  0
  188.1540  177.5900  138.4380 C   0  0  0  0  0  3  0  0  0  0  0  0
  188.9720  178.7170  137.8190 C   0  0  0  0  0  2  0  0  0  0  0  0
  186.5620  176.8940  144.9710 O   0  0  0  0  0  1  0  0  0  0  0  0
  187.2810  178.0390  144.6160 C   0  0  0  0  0  2  0  0  0  0  0  0
  1 10  1  0  0  0  0
  2  3  1  0  0  0  0
  3 10  2  0  0  0  0
  3 43  1  0  0  0  0
  4  8  2  0  0  0  0
  6  9  1  0  0  0  0
  6  2  2  0  0  0  0
  7  4  1  0  0  0  0
  7  6  1  0  0  0  0
  8  2  1  0  0  0  0
  8  5  1  0  0  0  0
  9  1  1  0  0  0  0
 11  9  1  0  0  0  0
 12 16  2  0  0  0  0
 13 14  2  0  0  0  0
 13 12  1  0  0  0  0
 14 15  1  0  0  0  0
 15 11  2  0  0  0  0
 16 11  1  0  0  0  0
 16 17  1  0  0  0  0
 18 21  1  0  0  0  0
 18 13  1  0  0  0  0
 19 25  1  6  0  0  0
 19 21  1  0  0  0  0
 20 18  1  0  0  0  0
 22 20  1  0  0  0  0
 22 19  1  0  0  0  0
 24 25  1  0  0  0  0
 24 23  1  0  0  0  0
 25 23  1  0  0  0  0
 26  4  1  0  0  0  0
 27 26  2  0  0  0  0
 28 26  1  0  0  0  0
 29 30  1  0  0  0  0
 29 28  1  0  0  0  0
 32 31  2  0  0  0  0
 32 30  1  0  0  0  0
 33 34  1  6  0  0  0
 33 35  1  0  0  0  0
 33 32  1  0  0  0  0
 35 37  1  0  0  0  0
 36 37  1  0  0  0  0
 37 38  1  0  0  0  0
 39 41  1  0  0  0  0
 39 40  1  0  0  0  0
 40  7  1  0  0  0  0
 41 40  1  0  0  0  0
 43 42  1  0  0  0  0
M  END
>  <MODEL>
9

>  <REMARK>
 VINA RESULT:      -6.2      2.651      3.715
  Name = 
  11 active torsions:
  status: ('A' for Active; 'I' for Inactive)
    1  A    between atoms: C_3  and  C_15
    2  A    between atoms: C_3  and  C_37
    3  A    between atoms: C_5  and  C_22
    4  A    between atoms: N_6  and  N_13
    5  A    between atoms: N_6  and  N_33
    6  A    between atoms: C_8  and  C_12
    7  A    between atoms: N_9  and  C_23
    8  A    between atoms: C_14  and  N_38
    9  A    between atoms: C_15  and  C_24
   10  A    between atoms: C_16  and  C_41
   11  A    between atoms: C_26  and  N_35
                            x       y       z     vdW  Elec       q    Type
                         _______ _______ _______ _____ _____    ______ ____

>  <TORSDO>
F 11

$$$$
