=
 OpenBabel10232410563D

 64 69  0  0  1  0  0  0  0  0999 V2000
  184.7580  176.9650  138.1360 C   0  0  1  0  0  3  0  0  0  0  0  0
  184.0700  176.3900  135.9130 N   0  0  0  0  0  0  0  0  0  0  0  0
  183.4250  175.4510  136.8410 C   0  0  1  0  0  3  0  0  0  0  0  0
  184.1180  174.0880  136.9020 C   0  0  0  0  0  1  0  0  0  0  0  0
  183.5160  176.0990  138.2070 C   0  0  0  0  0  2  0  0  0  0  0  0
  185.1420  177.0590  136.6640 C   0  0  2  0  0  3  0  0  0  0  0  0
  184.5200  175.7710  134.6650 C   0  0  0  0  0  1  0  0  0  0  0  0
  185.4090  178.7550  139.6800 N   0  0  0  0  0  0  0  0  0  0  0  0
  184.5700  178.3190  138.7780 C   0  0  0  0  0  0  0  0  0  0  0  0
  182.2550  181.3210  138.6080 C   0  0  0  0  0  3  0  0  0  0  0  0
  182.2850  178.6610  137.7620 C   0  0  0  0  0  3  0  0  0  0  0  0
  179.9820  181.6560  137.6290 C   0  0  0  0  0  1  0  0  0  0  0  0
  181.1780  179.4690  137.4880 C   0  0  0  0  0  3  0  0  0  0  0  0
  183.3910  179.1700  138.4600 C   0  0  0  0  0  0  0  0  0  0  0  0
  183.3610  180.5110  138.8810 C   0  0  0  0  0  3  0  0  0  0  0  0
  181.1630  180.7990  137.9120 C   0  0  0  0  0  0  0  0  0  0  0  0
  186.6210  178.1640  140.1850 C   0  0  0  0  0  0  0  0  0  0  0  0
  188.0650  178.3360  139.4250 S   0  0  0  0  0  0  0  0  0  0  0  0
  186.6310  177.6340  141.5110 N   0  0  0  0  0  2  0  0  0  0  0  0
  187.3620  178.2650  142.5980 C   0  0  1  0  0  3  0  0  0  0  0  0
  186.6110  178.0950  143.8820 C   0  0  0  0  0  3  0  0  0  0  0  0
  185.2900  178.2360  143.9270 C   0  0  0  0  0  2  0  0  0  0  0  0
  188.7390  177.6370  142.7060 C   0  0  0  0  0  2  0  0  0  0  0  0
  189.0270  177.3270  144.0970 N   0  0  0  0  0  2  0  0  0  0  0  0
  190.3550  177.8450  144.3990 C   0  0  2  0  0  3  0  0  0  0  0  0
  191.4050  176.9990  143.7530 C   0  0  0  0  0  0  0  0  0  0  0  0
  192.0630  177.4410  142.6100 O   0  0  0  0  0  0  0  0  0  0  0  0
  191.6860  175.8730  144.2400 O   0  0  0  0  0  1  0  0  0  0  0  0
  190.5880  177.9900  145.9060 C   0  0  0  0  0  2  0  0  0  0  0  0
  188.6000  177.5130  147.7170 S   0  0  0  0  0  1  0  0  0  0  0  0
  189.9810  176.8540  146.7280 C   0  0  2  0  0  3  0  0  0  0  0  0
  192.1390  177.1000  147.7580 O   0  0  0  0  0  1  0  0  0  0  0  0
  191.5160  174.9090  147.1050 C   0  0  0  0  0  1  0  0  0  0  0  0
  191.0390  176.2460  147.6470 C   0  0  2  0  0  3  0  0  0  0  0  0
  186.3780  176.4260  136.4750 O   0  0  0  0  0  0  0  0  0  0  0  0
  187.1830  177.3870  135.8570 C   0  0  0  0  0  2  0  0  0  0  0  0
  188.3220  176.7040  135.1280 C   0  0  2  0  0  3  0  0  0  0  0  0
  187.9870  175.2380  134.9360 C   0  0  0  0  0  1  0  0  0  0  0  0
  189.5950  176.8340  135.9440 C   0  0  0  0  0  2  0  0  0  0  0  0
  194.2640  172.1840  135.0690 C   0  0  1  0  0  3  0  0  0  0  0  0
  192.8690  172.6010  135.2000 N   0  0  0  0  0  2  0  0  0  0  0  0
  194.1620  175.1800  135.9980 N   0  0  0  0  0  0  0  0  0  0  0  0
  195.1310  172.9070  136.0970 C   0  0  0  0  0  2  0  0  0  0  0  0
  190.5300  175.7230  135.6210 C   0  0  0  0  0  0  0  0  0  0  0  0
  195.3420  174.3640  135.6930 C   0  0  2  0  0  3  0  0  0  0  0  0
  192.7210  173.8820  134.5220 C   0  0  0  0  0  2  0  0  0  0  0  0
  190.0820  174.6530  135.1280 O   0  0  0  0  0  0  0  0  0  0  0  0
  191.9280  175.8920  135.8820 N   0  0  0  0  0  2  0  0  0  0  0  0
  192.9780  175.0000  135.4900 C   0  0  0  0  0  0  0  0  0  0  0  0
  194.4230  170.6650  135.2300 C   0  0  1  0  0  0  0  0  0  0  0  0
  195.7720  169.2990  138.1820 C   0  0  0  0  0  1  0  0  0  0  0  0
  193.2630  169.8410  135.7340 C   0  0  0  0  0  2  0  0  0  0  0  0
  195.5770  169.9390  134.5690 C   0  0  0  0  0  2  0  0  0  0  0  0
  193.7980  169.1160  136.9490 C   0  0  0  0  0  2  0  0  0  0  0  0
  195.2510  169.0930  136.8420 N   0  0  0  0  0  0  0  0  0  0  0  0
  195.6260  170.2650  136.0580 C   0  0  2  0  0  3  0  0  0  0  0  0
  200.0830  173.4720  135.6900 Cl  0  0  0  0  0  0  0  0  0  0  0  0
  198.9490  174.6080  136.4540 C   0  0  2  0  0  3  0  0  0  0  0  0
  196.9540  174.0950  137.5980 C   0  0  0  0  0  2  0  0  0  0  0  0
  198.4130  174.0210  137.6790 N   0  0  0  0  0  0  0  0  0  0  0  0
  196.5840  174.9240  136.3870 C   0  0  1  0  0  3  0  0  0  0  0  0
  197.8070  174.8960  135.5070 C   0  0  0  0  0  2  0  0  0  0  0  0
  200.2230  174.5000  139.2290 C   0  0  0  0  0  1  0  0  0  0  0  0
  198.8290  174.8830  138.7750 C   0  0  0  0  0  2  0  0  0  0  0  0
  1  5  1  0  0  0  0
  1  9  1  6  0  0  0
  2  6  1  0  0  0  0
  2  3  1  0  0  0  0
  3  4  1  1  0  0  0
  3  5  1  0  0  0  0
  6 35  1  1  0  0  0
  6  1  1  0  0  0  0
  7  2  1  0  0  0  0
  8 17  1  0  0  0  0
  9  8  2  0  0  0  0
 10 15  1  0  0  0  0
 11 14  1  0  0  0  0
 12 16  1  0  0  0  0
 13 11  2  0  0  0  0
 13 16  1  0  0  0  0
 14  9  1  0  0  0  0
 14 15  2  0  0  0  0
 16 10  2  0  0  0  0
 17 19  1  0  0  0  0
 18 17  2  0  0  0  0
 19 20  1  0  0  0  0
 20 23  1  1  0  0  0
 20 21  1  0  0  0  0
 21 22  2  0  0  0  0
 23 24  1  0  0  0  0
 24 25  1  0  0  0  0
 25 29  1  1  0  0  0
 26 28  1  0  0  0  0
 26 25  1  0  0  0  0
 27 26  2  0  0  0  0
 29 31  1  0  0  0  0
 31 34  1  0  0  0  0
 31 30  1  1  0  0  0
 34 33  1  6  0  0  0
 34 32  1  0  0  0  0
 36 35  1  0  0  0  0
 37 38  1  1  0  0  0
 37 36  1  0  0  0  0
 37 39  1  0  0  0  0
 40 41  1  0  0  0  0
 40 50  1  0  0  0  0
 40 43  1  1  0  0  0
 44 48  1  0  0  0  0
 44 39  1  0  0  0  0
 45 42  1  0  0  0  0
 45 43  1  1  0  0  0
 45 61  1  0  0  0  0
 46 41  1  0  0  0  0
 46 49  1  0  0  0  0
 47 44  2  0  0  0  0
 49 48  1  0  0  0  0
 49 42  2  0  0  0  0
 50 53  1  6  0  0  0
 50 52  1  0  0  0  0
 50 56  1  0  0  0  0
 52 54  1  0  0  0  0
 55 54  1  0  0  0  0
 55 51  1  0  0  0  0
 56 53  1  6  0  0  0
 56 55  1  0  0  0  0
 58 57  1  6  0  0  0
 58 60  1  0  0  0  0
 59 60  1  0  0  0  0
 60 64  1  0  0  0  0
 61 62  1  6  0  0  0
 61 59  1  0  0  0  0
 62 58  1  0  0  0  0
 64 63  1  0  0  0  0
M  END
>  <MODEL>
1

>  <REMARK>
 VINA RESULT:      -5.5      0.000      0.000
  Name = 
  21 active torsions:
  status: ('A' for Active; 'I' for Inactive)
    1  A    between atoms: C_1  and  C_6
    2  A    between atoms: C_2  and  C_29
    3  A    between atoms: C_2  and  C_38
    4  A    between atoms: C_13  and  C_60
    5  A    between atoms: C_14  and  N_17
    6  A    between atoms: C_14  and  N_39
    7  A    between atoms: C_18  and  CA_54
    8  A    between atoms: C_19  and  C_27
    9  A    between atoms: C_19  and  C_31
   10  A    between atoms: C_19  and  N_39
   11  A    between atoms: N_24  and  C_27
   12  A    between atoms: N_24  and  CA_54
   13  A    between atoms: C_26  and  C_38
   14  A    between atoms: C_26  and  O_40
   15  A    between atoms: C_30  and  C_60
   16  A    between atoms: C_33  and  C_48
   17  A    between atoms: O_40  and  C_61
   18  A    between atoms: N_45  and  C_46
   19  A    between atoms: C_49  and  C_58
   20  A    between atoms: C_50  and  CA_54
   21  A    between atoms: C_50  and  C_58
                            x       y       z     vdW  Elec       q    Type
                         _______ _______ _______ _____ _____    ______ ____

>  <TORSDO>
F 21

$$$$
=
 OpenBabel10232410563D

 64 69  0  0  1  0  0  0  0  0999 V2000
  190.2580  174.4200  136.5840 C   0  0  1  0  0  3  0  0  0  0  0  0
  192.2040  175.5180  135.7180 N   0  0  0  0  0  0  0  0  0  0  0  0
  192.2920  175.5370  137.1840 C   0  0  1  0  0  3  0  0  0  0  0  0
  191.8940  176.8810  137.7970 C   0  0  0  0  0  1  0  0  0  0  0  0
  191.3180  174.4820  137.6660 C   0  0  0  0  0  2  0  0  0  0  0  0
  190.8160  175.1700  135.3810 C   0  0  2  0  0  3  0  0  0  0  0  0
  192.6750  176.7500  135.0820 C   0  0  0  0  0  1  0  0  0  0  0  0
  190.7170  172.1200  135.8710 N   0  0  0  0  0  0  0  0  0  0  0  0
  189.8380  173.0090  136.2500 C   0  0  0  0  0  0  0  0  0  0  0  0
  186.1710  172.8410  137.2160 C   0  0  0  0  0  3  0  0  0  0  0  0
  187.9190  171.5830  135.4400 C   0  0  0  0  0  3  0  0  0  0  0  0
  184.2770  171.4120  136.4370 C   0  0  0  0  0  1  0  0  0  0  0  0
  186.5760  171.1990  135.4890 C   0  0  0  0  0  3  0  0  0  0  0  0
  188.4060  172.6000  136.2750 C   0  0  0  0  0  0  0  0  0  0  0  0
  187.5140  173.2240  137.1650 C   0  0  0  0  0  3  0  0  0  0  0  0
  185.7030  171.8280  136.3770 C   0  0  0  0  0  0  0  0  0  0  0  0
  192.1480  172.2200  135.7520 C   0  0  0  0  0  0  0  0  0  0  0  0
  192.8850  172.6580  134.3530 S   0  0  0  0  0  0  0  0  0  0  0  0
  192.9440  172.1920  136.9370 N   0  0  0  0  0  2  0  0  0  0  0  0
  193.9180  171.1450  137.1980 C   0  0  1  0  0  3  0  0  0  0  0  0
  194.1710  170.3610  135.9470 C   0  0  0  0  0  3  0  0  0  0  0  0
  193.9880  169.0450  135.9150 C   0  0  0  0  0  2  0  0  0  0  0  0
  195.2070  171.7730  137.6950 C   0  0  0  0  0  2  0  0  0  0  0  0
  195.2780  173.1570  137.2560 N   0  0  0  0  0  2  0  0  0  0  0  0
  196.5160  173.7230  137.7750 C   0  0  2  0  0  3  0  0  0  0  0  0
  196.2480  174.5160  139.0140 C   0  0  0  0  0  0  0  0  0  0  0  0
  196.9720  174.2760  140.1770 O   0  0  0  0  0  1  0  0  0  0  0  0
  195.3500  175.3990  139.0080 O   0  0  0  0  0  0  0  0  0  0  0  0
  197.2590  174.5490  136.7210 C   0  0  0  0  0  2  0  0  0  0  0  0
  198.1830  173.3250  134.4610 S   0  0  0  0  0  1  0  0  0  0  0  0
  198.5070  173.8570  136.1740 C   0  0  2  0  0  3  0  0  0  0  0  0
  200.1610  172.7670  137.5340 O   0  0  0  0  0  1  0  0  0  0  0  0
  198.7630  171.3640  136.2310 C   0  0  0  0  0  1  0  0  0  0  0  0
  198.8600  172.6490  137.0380 C   0  0  2  0  0  3  0  0  0  0  0  0
  190.0360  176.3120  135.1550 O   0  0  0  0  0  0  0  0  0  0  0  0
  188.7140  175.8660  135.2340 C   0  0  0  0  0  2  0  0  0  0  0  0
  187.7850  176.9300  134.6880 C   0  0  2  0  0  3  0  0  0  0  0  0
  188.5580  178.2190  134.4910 C   0  0  0  0  0  1  0  0  0  0  0  0
  186.6490  177.1610  135.6670 C   0  0  0  0  0  2  0  0  0  0  0  0
  188.2350  177.7460  142.0960 C   0  0  1  0  0  3  0  0  0  0  0  0
  188.4050  177.1400  140.7750 N   0  0  0  0  0  2  0  0  0  0  0  0
  185.8930  178.6710  140.2220 N   0  0  0  0  0  0  0  0  0  0  0  0
  186.7510  177.9120  142.4130 C   0  0  0  0  0  2  0  0  0  0  0  0
  187.1780  177.2810  137.0520 C   0  0  0  0  0  0  0  0  0  0  0  0
  186.1550  179.0650  141.6100 C   0  0  2  0  0  3  0  0  0  0  0  0
  188.2410  178.1900  139.7790 C   0  0  0  0  0  2  0  0  0  0  0  0
  188.3080  176.7990  137.3320 O   0  0  0  0  0  0  0  0  0  0  0  0
  186.3840  177.9400  138.0450 N   0  0  0  0  0  2  0  0  0  0  0  0
  186.7990  178.2820  139.3730 C   0  0  0  0  0  0  0  0  0  0  0  0
  188.9140  176.9170  143.1960 C   0  0  1  0  0  0  0  0  0  0  0  0
  191.8080  178.1010  144.8150 C   0  0  0  0  0  1  0  0  0  0  0  0
  188.4320  177.0300  144.6220 C   0  0  0  0  0  2  0  0  0  0  0  0
  189.8010  175.7430  142.8360 C   0  0  0  0  0  2  0  0  0  0  0  0
  189.6570  177.4220  145.4180 C   0  0  0  0  0  2  0  0  0  0  0  0
  190.8270  177.0450  144.6370 N   0  0  0  0  0  0  0  0  0  0  0  0
  190.4180  177.0790  143.2370 C   0  0  2  0  0  3  0  0  0  0  0  0
  184.0430  178.6290  145.9250 Cl  0  0  0  0  0  0  0  0  0  0  0  0
  183.7430  179.4570  144.3800 C   0  0  2  0  0  3  0  0  0  0  0  0
  183.7810  178.5210  142.2190 C   0  0  0  0  0  2  0  0  0  0  0  0
  183.0290  178.5620  143.4720 N   0  0  0  0  0  0  0  0  0  0  0  0
  184.8760  179.5640  142.2830 C   0  0  1  0  0  3  0  0  0  0  0  0
  185.0600  179.8460  143.7520 C   0  0  0  0  0  2  0  0  0  0  0  0
  180.8580  178.2210  142.4310 C   0  0  0  0  0  1  0  0  0  0  0  0
  181.7470  179.1890  143.1870 C   0  0  0  0  0  2  0  0  0  0  0  0
  1  9  1  6  0  0  0
  1  5  1  0  0  0  0
  2  3  1  0  0  0  0
  3  5  1  0  0  0  0
  3  4  1  1  0  0  0
  6 35  1  1  0  0  0
  6  2  1  0  0  0  0
  6  1  1  0  0  0  0
  7  2  1  0  0  0  0
  8  9  2  0  0  0  0
  9 14  1  0  0  0  0
 11 13  2  0  0  0  0
 11 14  1  0  0  0  0
 13 16  1  0  0  0  0
 14 15  2  0  0  0  0
 15 10  1  0  0  0  0
 16 12  1  0  0  0  0
 16 10  2  0  0  0  0
 17  8  1  0  0  0  0
 17 19  1  0  0  0  0
 18 17  2  0  0  0  0
 19 20  1  0  0  0  0
 20 21  1  6  0  0  0
 20 23  1  0  0  0  0
 22 21  2  0  0  0  0
 24 23  1  0  0  0  0
 24 25  1  0  0  0  0
 25 29  1  6  0  0  0
 25 26  1  0  0  0  0
 26 27  1  0  0  0  0
 28 26  2  0  0  0  0
 31 30  1  6  0  0  0
 31 29  1  0  0  0  0
 31 34  1  0  0  0  0
 34 33  1  6  0  0  0
 34 32  1  0  0  0  0
 35 36  1  0  0  0  0
 37 38  1  1  0  0  0
 37 36  1  0  0  0  0
 37 39  1  0  0  0  0
 39 44  1  0  0  0  0
 40 43  1  1  0  0  0
 40 50  1  0  0  0  0
 41 40  1  0  0  0  0
 42 45  1  0  0  0  0
 44 47  2  0  0  0  0
 44 48  1  0  0  0  0
 45 61  1  0  0  0  0
 45 43  1  1  0  0  0
 46 41  1  0  0  0  0
 48 49  1  0  0  0  0
 49 46  1  0  0  0  0
 49 42  2  0  0  0  0
 50 53  1  6  0  0  0
 50 56  1  0  0  0  0
 50 52  1  0  0  0  0
 52 54  1  0  0  0  0
 55 51  1  0  0  0  0
 55 54  1  0  0  0  0
 56 53  1  6  0  0  0
 56 55  1  0  0  0  0
 58 57  1  1  0  0  0
 59 60  1  0  0  0  0
 60 58  1  0  0  0  0
 61 59  1  1  0  0  0
 61 62  1  0  0  0  0
 62 58  1  0  0  0  0
 63 64  1  0  0  0  0
 64 60  1  0  0  0  0
M  END
>  <MODEL>
2

>  <REMARK>
 VINA RESULT:      -5.3      4.377     11.037
  Name = 
  21 active torsions:
  status: ('A' for Active; 'I' for Inactive)
    1  A    between atoms: C_1  and  C_6
    2  A    between atoms: C_2  and  C_29
    3  A    between atoms: C_2  and  C_38
    4  A    between atoms: C_13  and  C_60
    5  A    between atoms: C_14  and  N_17
    6  A    between atoms: C_14  and  N_39
    7  A    between atoms: C_18  and  CA_54
    8  A    between atoms: C_19  and  C_27
    9  A    between atoms: C_19  and  C_31
   10  A    between atoms: C_19  and  N_39
   11  A    between atoms: N_24  and  C_27
   12  A    between atoms: N_24  and  CA_54
   13  A    between atoms: C_26  and  C_38
   14  A    between atoms: C_26  and  O_40
   15  A    between atoms: C_30  and  C_60
   16  A    between atoms: C_33  and  C_48
   17  A    between atoms: O_40  and  C_61
   18  A    between atoms: N_45  and  C_46
   19  A    between atoms: C_49  and  C_58
   20  A    between atoms: C_50  and  CA_54
   21  A    between atoms: C_50  and  C_58
                            x       y       z     vdW  Elec       q    Type
                         _______ _______ _______ _____ _____    ______ ____

>  <TORSDO>
F 21

$$$$
=
 OpenBabel10232410563D

 64 69  0  0  1  0  0  0  0  0999 V2000
  183.6350  176.4360  136.4320 C   0  0  1  0  0  3  0  0  0  0  0  0
  181.3120  176.2660  136.9980 N   0  0  0  0  0  0  0  0  0  0  0  0
  181.4430  177.2690  135.9320 C   0  0  1  0  0  3  0  0  0  0  0  0
  181.3900  178.7090  136.4440 C   0  0  0  0  0  1  0  0  0  0  0  0
  182.8040  177.0290  135.3110 C   0  0  0  0  0  2  0  0  0  0  0  0
  182.6610  176.0410  137.5360 C   0  0  2  0  0  3  0  0  0  0  0  0
  180.3200  176.6170  138.0170 C   0  0  0  0  0  1  0  0  0  0  0  0
  185.7460  175.4810  135.6320 N   0  0  0  0  0  0  0  0  0  0  0  0
  184.5020  175.2860  135.9780 C   0  0  0  0  0  0  0  0  0  0  0  0
  184.0200  171.5530  136.4660 C   0  0  0  0  0  3  0  0  0  0  0  0
  182.8990  173.6210  134.9640 C   0  0  0  0  0  3  0  0  0  0  0  0
  182.4550  169.8980  135.4420 C   0  0  0  0  0  1  0  0  0  0  0  0
  182.4090  172.3190  134.8350 C   0  0  0  0  0  3  0  0  0  0  0  0
  183.9540  173.9090  135.8430 C   0  0  0  0  0  0  0  0  0  0  0  0
  184.5090  172.8560  136.5920 C   0  0  0  0  0  3  0  0  0  0  0  0
  182.9700  171.2850  135.5860 C   0  0  0  0  0  0  0  0  0  0  0  0
  186.5410  176.6820  135.6560 C   0  0  0  0  0  0  0  0  0  0  0  0
  186.4250  177.8350  134.4930 S   0  0  0  0  0  0  0  0  0  0  0  0
  187.2610  177.0120  136.8440 N   0  0  0  0  0  2  0  0  0  0  0  0
  188.6130  177.5440  136.8140 C   0  0  1  0  0  3  0  0  0  0  0  0
  189.0950  177.7880  138.2100 C   0  0  0  0  0  3  0  0  0  0  0  0
  188.5950  178.7770  138.9440 C   0  0  0  0  0  2  0  0  0  0  0  0
  189.5240  176.5560  136.1080 C   0  0  0  0  0  2  0  0  0  0  0  0
  189.9200  175.5080  137.0340 N   0  0  0  0  0  2  0  0  0  0  0  0
  190.3870  174.3750  136.2460 C   0  0  2  0  0  3  0  0  0  0  0  0
  189.2610  173.4300  135.9740 C   0  0  0  0  0  0  0  0  0  0  0  0
  188.1670  173.3690  136.8310 O   0  0  0  0  0  1  0  0  0  0  0  0
  189.3080  172.6750  134.9680 O   0  0  0  0  0  0  0  0  0  0  0  0
  191.5770  173.6680  136.9020 C   0  0  0  0  0  2  0  0  0  0  0  0
  193.9540  173.0360  135.7160 S   0  0  0  0  0  1  0  0  0  0  0  0
  192.9260  174.2910  136.5470 C   0  0  2  0  0  3  0  0  0  0  0  0
  193.5240  176.1760  137.9140 O   0  0  0  0  0  1  0  0  0  0  0  0
  195.0980  174.4080  137.7930 C   0  0  0  0  0  1  0  0  0  0  0  0
  193.6260  174.7860  137.8110 C   0  0  2  0  0  3  0  0  0  0  0  0
  182.9080  176.8330  138.6650 O   0  0  0  0  0  0  0  0  0  0  0  0
  183.9750  177.6580  138.2990 C   0  0  0  0  0  2  0  0  0  0  0  0
  183.7890  179.0310  138.9100 C   0  0  2  0  0  3  0  0  0  0  0  0
  185.1310  179.5600  139.3740 C   0  0  0  0  0  1  0  0  0  0  0  0
  182.8420  178.9350  140.0920 C   0  0  0  0  0  2  0  0  0  0  0  0
  186.9260  177.9620  145.2460 C   0  0  1  0  0  3  0  0  0  0  0  0
  185.7470  178.5720  144.6320 N   0  0  0  0  0  2  0  0  0  0  0  0
  186.9750  177.4290  142.1530 N   0  0  0  0  0  0  0  0  0  0  0  0
  188.1050  178.0010  144.2770 C   0  0  0  0  0  2  0  0  0  0  0  0
  183.6060  178.7060  141.3480 C   0  0  0  0  0  0  0  0  0  0  0  0
  187.9250  176.9650  143.1690 C   0  0  2  0  0  3  0  0  0  0  0  0
  185.1410  177.5830  143.7520 C   0  0  0  0  0  2  0  0  0  0  0  0
  183.0910  179.0140  142.4560 O   0  0  0  0  0  0  0  0  0  0  0  0
  184.9190  178.1400  141.2700 N   0  0  0  0  0  2  0  0  0  0  0  0
  185.7230  177.7070  142.3730 C   0  0  0  0  0  0  0  0  0  0  0  0
  187.3100  178.6580  146.5600 C   0  0  1  0  0  0  0  0  0  0  0  0
  187.4110  176.8580  149.5850 C   0  0  0  0  0  1  0  0  0  0  0  0
  188.7650  178.7920  146.9380 C   0  0  0  0  0  2  0  0  0  0  0  0
  186.3010  179.5120  147.3000 C   0  0  0  0  0  2  0  0  0  0  0  0
  188.8760  178.1430  148.3000 C   0  0  0  0  0  2  0  0  0  0  0  0
  187.5430  178.1240  148.8880 N   0  0  0  0  0  0  0  0  0  0  0  0
  186.6020  178.0940  147.7740 C   0  0  2  0  0  3  0  0  0  0  0  0
  192.2120  175.3380  144.6690 Cl  0  0  0  0  0  0  0  0  0  0  0  0
  191.4330  175.8070  143.1410 C   0  0  2  0  0  3  0  0  0  0  0  0
  190.2460  177.7890  142.6840 C   0  0  0  0  0  2  0  0  0  0  0  0
  191.5800  177.2450  142.9340 N   0  0  0  0  0  0  0  0  0  0  0  0
  189.2780  176.6350  142.5370 C   0  0  1  0  0  3  0  0  0  0  0  0
  189.9620  175.4660  143.1990 C   0  0  0  0  0  2  0  0  0  0  0  0
  191.4180  177.5830  140.5320 C   0  0  0  0  0  1  0  0  0  0  0  0
  192.3530  177.4170  141.7130 C   0  0  0  0  0  2  0  0  0  0  0  0
  1  9  1  6  0  0  0
  1  6  1  0  0  0  0
  2  6  1  0  0  0  0
  2  7  1  0  0  0  0
  3  4  1  1  0  0  0
  3  2  1  0  0  0  0
  5  3  1  0  0  0  0
  5  1  1  0  0  0  0
  6 35  1  1  0  0  0
  8 17  1  0  0  0  0
  8  9  2  0  0  0  0
 10 15  1  0  0  0  0
 11 14  1  0  0  0  0
 12 16  1  0  0  0  0
 13 11  2  0  0  0  0
 13 16  1  0  0  0  0
 14  9  1  0  0  0  0
 14 15  2  0  0  0  0
 16 10  2  0  0  0  0
 17 19  1  0  0  0  0
 18 17  2  0  0  0  0
 20 23  1  1  0  0  0
 20 19  1  0  0  0  0
 20 21  1  0  0  0  0
 21 22  2  0  0  0  0
 23 24  1  0  0  0  0
 25 29  1  1  0  0  0
 25 24  1  0  0  0  0
 26 25  1  0  0  0  0
 26 27  1  0  0  0  0
 28 26  2  0  0  0  0
 31 30  1  1  0  0  0
 31 29  1  0  0  0  0
 31 34  1  0  0  0  0
 34 33  1  6  0  0  0
 34 32  1  0  0  0  0
 36 35  1  0  0  0  0
 36 37  1  0  0  0  0
 37 38  1  1  0  0  0
 37 39  1  0  0  0  0
 39 44  1  0  0  0  0
 40 43  1  6  0  0  0
 40 50  1  0  0  0  0
 41 40  1  0  0  0  0
 42 49  2  0  0  0  0
 42 45  1  0  0  0  0
 44 47  2  0  0  0  0
 45 43  1  1  0  0  0
 46 41  1  0  0  0  0
 48 44  1  0  0  0  0
 48 49  1  0  0  0  0
 49 46  1  0  0  0  0
 50 52  1  1  0  0  0
 50 53  1  0  0  0  0
 50 56  1  0  0  0  0
 52 54  1  0  0  0  0
 54 55  1  0  0  0  0
 55 51  1  0  0  0  0
 56 53  1  1  0  0  0
 56 55  1  0  0  0  0
 58 62  1  0  0  0  0
 58 57  1  1  0  0  0
 59 60  1  0  0  0  0
 60 58  1  0  0  0  0
 61 59  1  1  0  0  0
 61 45  1  0  0  0  0
 61 62  1  0  0  0  0
 63 64  1  0  0  0  0
 64 60  1  0  0  0  0
M  END
>  <MODEL>
3

>  <REMARK>
 VINA RESULT:      -5.1      4.132      9.779
  Name = 
  21 active torsions:
  status: ('A' for Active; 'I' for Inactive)
    1  A    between atoms: C_1  and  C_6
    2  A    between atoms: C_2  and  C_29
    3  A    between atoms: C_2  and  C_38
    4  A    between atoms: C_13  and  C_60
    5  A    between atoms: C_14  and  N_17
    6  A    between atoms: C_14  and  N_39
    7  A    between atoms: C_18  and  CA_54
    8  A    between atoms: C_19  and  C_27
    9  A    between atoms: C_19  and  C_31
   10  A    between atoms: C_19  and  N_39
   11  A    between atoms: N_24  and  C_27
   12  A    between atoms: N_24  and  CA_54
   13  A    between atoms: C_26  and  C_38
   14  A    between atoms: C_26  and  O_40
   15  A    between atoms: C_30  and  C_60
   16  A    between atoms: C_33  and  C_48
   17  A    between atoms: O_40  and  C_61
   18  A    between atoms: N_45  and  C_46
   19  A    between atoms: C_49  and  C_58
   20  A    between atoms: C_50  and  CA_54
   21  A    between atoms: C_50  and  C_58
                            x       y       z     vdW  Elec       q    Type
                         _______ _______ _______ _____ _____    ______ ____

>  <TORSDO>
F 21

$$$$
=
 OpenBabel10232410563D

 64 69  0  0  1  0  0  0  0  0999 V2000
  192.9560  174.7400  136.5700 C   0  0  1  0  0  3  0  0  0  0  0  0
  190.8620  173.6330  136.2060 N   0  0  0  0  0  0  0  0  0  0  0  0
  191.9340  172.6900  135.8610 C   0  0  1  0  0  3  0  0  0  0  0  0
  192.1770  172.5720  134.3550 C   0  0  0  0  0  1  0  0  0  0  0  0
  193.1870  173.2430  136.5080 C   0  0  0  0  0  2  0  0  0  0  0  0
  191.4770  174.9660  136.2810 C   0  0  2  0  0  3  0  0  0  0  0  0
  189.7060  173.5660  135.3080 C   0  0  0  0  0  1  0  0  0  0  0  0
  194.6360  175.2520  138.2800 N   0  0  0  0  0  0  0  0  0  0  0  0
  193.3980  175.3520  137.8770 C   0  0  0  0  0  0  0  0  0  0  0  0
  191.9780  177.6670  140.5280 C   0  0  0  0  0  3  0  0  0  0  0  0
  191.0710  175.6690  138.8040 C   0  0  0  0  0  3  0  0  0  0  0  0
  189.6830  177.9640  141.4680 C   0  0  0  0  0  1  0  0  0  0  0  0
  190.1770  176.3000  139.6730 C   0  0  0  0  0  3  0  0  0  0  0  0
  192.4270  176.0270  138.7830 C   0  0  0  0  0  0  0  0  0  0  0  0
  192.8700  177.0350  139.6580 C   0  0  0  0  0  3  0  0  0  0  0  0
  190.6310  177.2990  140.5360 C   0  0  0  0  0  0  0  0  0  0  0  0
  195.7800  174.6650  137.6320 C   0  0  0  0  0  0  0  0  0  0  0  0
  197.2650  174.6340  138.3300 S   0  0  0  0  0  0  0  0  0  0  0  0
  195.5790  173.8590  136.4700 N   0  0  0  0  0  2  0  0  0  0  0  0
  196.2160  174.1540  135.1970 C   0  0  1  0  0  3  0  0  0  0  0  0
  196.9440  175.4600  135.2820 C   0  0  0  0  0  3  0  0  0  0  0  0
  198.1240  175.6260  134.6920 C   0  0  0  0  0  2  0  0  0  0  0  0
  197.1810  173.0360  134.8490 C   0  0  0  0  0  2  0  0  0  0  0  0
  197.6320  172.3820  136.0670 N   0  0  0  0  0  2  0  0  0  0  0  0
  197.5520  170.9430  135.8520 C   0  0  2  0  0  3  0  0  0  0  0  0
  198.7830  170.4490  135.1640 C   0  0  0  0  0  0  0  0  0  0  0  0
  198.7800  169.2260  134.5020 O   0  0  0  0  0  0  0  0  0  0  0  0
  199.8350  171.1400  135.1930 O   0  0  0  0  0  1  0  0  0  0  0  0
  196.2790  170.5430  135.1000 C   0  0  0  0  0  2  0  0  0  0  0  0
  195.1020  168.1970  134.3460 S   0  0  0  0  0  1  0  0  0  0  0  0
  195.5770  169.3240  135.6970 C   0  0  2  0  0  3  0  0  0  0  0  0
  194.7020  170.3410  137.6920 O   0  0  0  0  0  1  0  0  0  0  0  0
  193.4340  168.5710  136.7550 C   0  0  0  0  0  1  0  0  0  0  0  0
  194.3370  169.7600  136.4740 C   0  0  2  0  0  3  0  0  0  0  0  0
  191.3500  175.6640  135.0730 O   0  0  0  0  0  0  0  0  0  0  0  0
  190.9280  176.9450  135.4400 C   0  0  0  0  0  2  0  0  0  0  0  0
  189.4250  176.9520  135.6220 C   0  0  2  0  0  3  0  0  0  0  0  0
  188.7670  177.4390  134.3460 C   0  0  0  0  0  1  0  0  0  0  0  0
  189.0590  177.8770  136.7690 C   0  0  0  0  0  2  0  0  0  0  0  0
  182.5990  176.9120  138.0050 C   0  0  1  0  0  3  0  0  0  0  0  0
  183.8350  177.6820  138.1340 N   0  0  0  0  0  2  0  0  0  0  0  0
  184.9960  175.2170  136.8940 N   0  0  0  0  0  0  0  0  0  0  0  0
  182.8860  175.4220  138.1680 C   0  0  0  0  0  2  0  0  0  0  0  0
  187.5920  177.8390  137.0140 C   0  0  0  0  0  0  0  0  0  0  0  0
  183.5720  174.8670  136.9220 C   0  0  2  0  0  3  0  0  0  0  0  0
  184.5390  177.6110  136.8600 C   0  0  0  0  0  2  0  0  0  0  0  0
  186.9950  178.8840  137.3870 O   0  0  0  0  0  0  0  0  0  0  0  0
  186.8860  176.6070  136.8240 N   0  0  0  0  0  2  0  0  0  0  0  0
  185.4650  176.4300  136.8590 C   0  0  0  0  0  0  0  0  0  0  0  0
  181.5420  177.3540  139.0280 C   0  0  1  0  0  0  0  0  0  0  0  0
  182.4980  178.8100  142.0880 C   0  0  0  0  0  1  0  0  0  0  0  0
  180.9180  178.7230  138.9140 C   0  0  0  0  0  2  0  0  0  0  0  0
  180.8640  176.3350  139.9200 C   0  0  0  0  0  2  0  0  0  0  0  0
  181.1790  179.3840  140.2490 C   0  0  0  0  0  2  0  0  0  0  0  0
  181.4410  178.3280  141.2180 N   0  0  0  0  0  0  0  0  0  0  0  0
  181.9910  177.2050  140.4670 C   0  0  2  0  0  3  0  0  0  0  0  0
  186.1470  171.0600  135.4550 Cl  0  0  0  0  0  0  0  0  0  0  0  0
  184.5630  171.3830  136.1960 C   0  0  2  0  0  3  0  0  0  0  0  0
  182.9280  172.9180  135.4770 C   0  0  0  0  0  2  0  0  0  0  0  0
  183.5760  171.6470  135.1530 N   0  0  0  0  0  0  0  0  0  0  0  0
  183.3840  173.3510  136.8530 C   0  0  1  0  0  3  0  0  0  0  0  0
  184.6640  172.5920  137.0960 C   0  0  0  0  0  2  0  0  0  0  0  0
  183.2240  169.2760  135.5610 C   0  0  0  0  0  1  0  0  0  0  0  0
  182.5640  170.6070  135.2580 C   0  0  0  0  0  2  0  0  0  0  0  0
  1  9  1  1  0  0  0
  2  6  1  0  0  0  0
  3  4  1  6  0  0  0
  3  2  1  0  0  0  0
  3  5  1  0  0  0  0
  5  1  1  0  0  0  0
  6 35  1  6  0  0  0
  6  1  1  0  0  0  0
  7  2  1  0  0  0  0
  9  8  2  0  0  0  0
  9 14  1  0  0  0  0
 10 16  1  0  0  0  0
 11 13  1  0  0  0  0
 13 16  2  0  0  0  0
 14 11  2  0  0  0  0
 14 15  1  0  0  0  0
 15 10  2  0  0  0  0
 16 12  1  0  0  0  0
 17  8  1  0  0  0  0
 17 18  2  0  0  0  0
 19 17  1  0  0  0  0
 20 23  1  1  0  0  0
 20 21  1  0  0  0  0
 20 19  1  0  0  0  0
 22 21  2  0  0  0  0
 23 24  1  0  0  0  0
 25 29  1  6  0  0  0
 25 24  1  0  0  0  0
 26 28  1  0  0  0  0
 26 25  1  0  0  0  0
 27 26  2  0  0  0  0
 29 31  1  0  0  0  0
 31 30  1  6  0  0  0
 31 34  1  0  0  0  0
 34 33  1  1  0  0  0
 34 32  1  0  0  0  0
 35 36  1  0  0  0  0
 36 37  1  0  0  0  0
 37 38  1  6  0  0  0
 37 39  1  0  0  0  0
 39 44  1  0  0  0  0
 40 41  1  0  0  0  0
 40 43  1  1  0  0  0
 40 50  1  0  0  0  0
 42 45  1  0  0  0  0
 44 47  2  0  0  0  0
 45 43  1  1  0  0  0
 46 41  1  0  0  0  0
 48 49  1  0  0  0  0
 48 44  1  0  0  0  0
 49 46  1  0  0  0  0
 49 42  2  0  0  0  0
 50 52  1  6  0  0  0
 50 53  1  0  0  0  0
 50 56  1  0  0  0  0
 52 54  1  0  0  0  0
 54 55  1  0  0  0  0
 55 51  1  0  0  0  0
 56 53  1  1  0  0  0
 56 55  1  0  0  0  0
 58 57  1  6  0  0  0
 58 62  1  0  0  0  0
 60 64  1  0  0  0  0
 60 59  1  0  0  0  0
 60 58  1  0  0  0  0
 61 59  1  6  0  0  0
 61 45  1  0  0  0  0
 61 62  1  0  0  0  0
 64 63  1  0  0  0  0
M  END
>  <MODEL>
4

>  <REMARK>
 VINA RESULT:      -4.6      4.357     11.948
  Name = 
  21 active torsions:
  status: ('A' for Active; 'I' for Inactive)
    1  A    between atoms: C_1  and  C_6
    2  A    between atoms: C_2  and  C_29
    3  A    between atoms: C_2  and  C_38
    4  A    between atoms: C_13  and  C_60
    5  A    between atoms: C_14  and  N_17
    6  A    between atoms: C_14  and  N_39
    7  A    between atoms: C_18  and  CA_54
    8  A    between atoms: C_19  and  C_27
    9  A    between atoms: C_19  and  C_31
   10  A    between atoms: C_19  and  N_39
   11  A    between atoms: N_24  and  C_27
   12  A    between atoms: N_24  and  CA_54
   13  A    between atoms: C_26  and  C_38
   14  A    between atoms: C_26  and  O_40
   15  A    between atoms: C_30  and  C_60
   16  A    between atoms: C_33  and  C_48
   17  A    between atoms: O_40  and  C_61
   18  A    between atoms: N_45  and  C_46
   19  A    between atoms: C_49  and  C_58
   20  A    between atoms: C_50  and  CA_54
   21  A    between atoms: C_50  and  C_58
                            x       y       z     vdW  Elec       q    Type
                         _______ _______ _______ _____ _____    ______ ____

>  <TORSDO>
F 21

$$$$
=
 OpenBabel10232410563D

 64 69  0  0  1  0  0  0  0  0999 V2000
  186.5460  178.0410  137.7390 C   0  0  1  0  0  3  0  0  0  0  0  0
  188.5430  176.8530  138.3260 N   0  0  0  0  0  0  0  0  0  0  0  0
  188.9420  178.1160  137.6890 C   0  0  1  0  0  3  0  0  0  0  0  0
  189.3590  177.9510  136.2270 C   0  0  0  0  0  1  0  0  0  0  0  0
  187.7170  179.0050  137.7430 C   0  0  0  0  0  2  0  0  0  0  0  0
  187.1180  176.6580  138.0250 C   0  0  2  0  0  3  0  0  0  0  0  0
  189.3870  175.7140  137.9570 C   0  0  0  0  0  1  0  0  0  0  0  0
  185.7090  178.5780  139.9800 N   0  0  0  0  0  0  0  0  0  0  0  0
  185.4560  178.4350  138.7070 C   0  0  0  0  0  0  0  0  0  0  0  0
  182.2400  177.9960  136.7400 C   0  0  0  0  0  3  0  0  0  0  0  0
  183.1900  179.5370  138.8640 C   0  0  0  0  0  3  0  0  0  0  0  0
  180.0060  179.1050  136.8740 C   0  0  0  0  0  1  0  0  0  0  0  0
  181.8760  179.6970  138.4180 C   0  0  0  0  0  3  0  0  0  0  0  0
  184.0460  178.6050  138.2580 C   0  0  0  0  0  0  0  0  0  0  0  0
  183.5540  177.8370  137.1880 C   0  0  0  0  0  3  0  0  0  0  0  0
  181.4010  178.9270  137.3560 C   0  0  0  0  0  0  0  0  0  0  0  0
  186.9540  178.4790  140.6970 C   0  0  0  0  0  0  0  0  0  0  0  0
  188.2420  179.4370  140.3580 S   0  0  0  0  0  0  0  0  0  0  0  0
  186.9980  177.7150  141.9030 N   0  0  0  0  0  2  0  0  0  0  0  0
  186.3120  178.1310  143.1150 C   0  0  1  0  0  3  0  0  0  0  0  0
  184.8310  178.1020  142.8970 C   0  0  0  0  0  3  0  0  0  0  0  0
  184.0160  178.8580  143.6270 C   0  0  0  0  0  2  0  0  0  0  0  0
  186.6940  177.2000  144.2510 C   0  0  0  0  0  2  0  0  0  0  0  0
  187.0420  177.9800  145.4270 N   0  0  0  0  0  2  0  0  0  0  0  0
  188.2620  177.4140  145.9890 C   0  0  2  0  0  3  0  0  0  0  0  0
  188.2070  177.4380  147.4830 C   0  0  0  0  0  0  0  0  0  0  0  0
  188.6390  176.3420  148.2230 O   0  0  0  0  0  1  0  0  0  0  0  0
  187.7550  178.4520  148.0760 O   0  0  0  0  0  0  0  0  0  0  0  0
  189.5180  178.1060  145.4540 C   0  0  0  0  0  2  0  0  0  0  0  0
  191.6390  176.6980  146.4430 S   0  0  0  0  0  1  0  0  0  0  0  0
  190.6060  177.1320  145.0060 C   0  0  2  0  0  3  0  0  0  0  0  0
  191.0740  179.0910  143.6950 O   0  0  0  0  0  1  0  0  0  0  0  0
  191.3400  176.9990  142.6130 C   0  0  0  0  0  1  0  0  0  0  0  0
  191.4670  177.7690  143.9170 C   0  0  2  0  0  3  0  0  0  0  0  0
  186.9330  175.8480  136.8960 O   0  0  0  0  0  0  0  0  0  0  0  0
  187.5080  174.6200  137.2370 C   0  0  0  0  0  2  0  0  0  0  0  0
  186.5910  173.4930  136.8090 C   0  0  2  0  0  3  0  0  0  0  0  0
  186.8810  172.2640  137.6460 C   0  0  0  0  0  1  0  0  0  0  0  0
  186.8270  173.1790  135.3430 C   0  0  0  0  0  2  0  0  0  0  0  0
  192.9090  170.5060  135.1200 C   0  0  1  0  0  3  0  0  0  0  0  0
  191.4520  170.3930  135.1580 N   0  0  0  0  0  2  0  0  0  0  0  0
  191.6670  173.3240  135.7280 N   0  0  0  0  0  0  0  0  0  0  0  0
  193.3810  171.5800  136.0960 C   0  0  0  0  0  2  0  0  0  0  0  0
  188.1200  172.4650  135.1700 C   0  0  0  0  0  0  0  0  0  0  0  0
  193.0800  172.9740  135.5500 C   0  0  2  0  0  3  0  0  0  0  0  0
  190.9000  171.4690  134.3460 C   0  0  0  0  0  2  0  0  0  0  0  0
  188.1240  171.2680  134.7760 O   0  0  0  0  0  0  0  0  0  0  0  0
  189.3410  173.1550  135.4600 N   0  0  0  0  0  2  0  0  0  0  0  0
  190.6670  172.6810  135.2000 C   0  0  0  0  0  0  0  0  0  0  0  0
  193.5940  169.1710  135.4440 C   0  0  1  0  0  0  0  0  0  0  0  0
  196.0190  168.9620  137.9880 C   0  0  0  0  0  1  0  0  0  0  0  0
  192.9380  168.2070  136.4020 C   0  0  0  0  0  2  0  0  0  0  0  0
  194.7150  168.6500  134.5670 C   0  0  0  0  0  2  0  0  0  0  0  0
  193.9710  167.9630  137.4800 C   0  0  0  0  0  2  0  0  0  0  0  0
  195.2730  168.3110  136.9260 N   0  0  0  0  0  0  0  0  0  0  0  0
  195.0300  169.3200  135.9010 C   0  0  2  0  0  3  0  0  0  0  0  0
  197.8180  173.8050  135.9160 Cl  0  0  0  0  0  0  0  0  0  0  0  0
  196.2960  174.5490  136.4570 C   0  0  2  0  0  3  0  0  0  0  0  0
  194.4960  173.4980  137.5550 C   0  0  0  0  0  2  0  0  0  0  0  0
  195.8770  173.9490  137.7220 N   0  0  0  0  0  0  0  0  0  0  0  0
  193.9840  174.0070  136.2250 C   0  0  1  0  0  3  0  0  0  0  0  0
  195.2220  174.3120  135.4210 C   0  0  0  0  0  2  0  0  0  0  0  0
  196.8190  174.6810  139.8400 C   0  0  0  0  0  1  0  0  0  0  0  0
  195.8670  175.0170  138.7100 C   0  0  0  0  0  2  0  0  0  0  0  0
  1  5  1  0  0  0  0
  1  6  1  0  0  0  0
  1  9  1  1  0  0  0
  3  4  1  6  0  0  0
  3  5  1  0  0  0  0
  3  2  1  0  0  0  0
  6 35  1  6  0  0  0
  6  2  1  0  0  0  0
  7  2  1  0  0  0  0
  8 17  1  0  0  0  0
  9  8  2  0  0  0  0
 10 15  2  0  0  0  0
 10 16  1  0  0  0  0
 12 16  1  0  0  0  0
 13 11  1  0  0  0  0
 14  9  1  0  0  0  0
 14 11  2  0  0  0  0
 15 14  1  0  0  0  0
 16 13  2  0  0  0  0
 17 19  1  0  0  0  0
 18 17  2  0  0  0  0
 19 20  1  0  0  0  0
 20 21  1  6  0  0  0
 20 23  1  0  0  0  0
 21 22  2  0  0  0  0
 23 24  1  0  0  0  0
 24 25  1  0  0  0  0
 25 29  1  1  0  0  0
 25 26  1  0  0  0  0
 26 28  2  0  0  0  0
 26 27  1  0  0  0  0
 31 29  1  0  0  0  0
 31 30  1  1  0  0  0
 32 34  1  0  0  0  0
 34 33  1  6  0  0  0
 34 31  1  0  0  0  0
 35 36  1  0  0  0  0
 37 36  1  0  0  0  0
 37 38  1  1  0  0  0
 39 37  1  0  0  0  0
 40 41  1  0  0  0  0
 40 50  1  0  0  0  0
 40 43  1  1  0  0  0
 44 39  1  0  0  0  0
 44 48  1  0  0  0  0
 45 42  1  0  0  0  0
 45 43  1  1  0  0  0
 45 61  1  0  0  0  0
 46 41  1  0  0  0  0
 46 49  1  0  0  0  0
 47 44  2  0  0  0  0
 49 48  1  0  0  0  0
 49 42  2  0  0  0  0
 50 53  1  6  0  0  0
 50 56  1  0  0  0  0
 50 52  1  0  0  0  0
 52 54  1  0  0  0  0
 55 54  1  0  0  0  0
 55 51  1  0  0  0  0
 56 53  1  6  0  0  0
 56 55  1  0  0  0  0
 58 57  1  6  0  0  0
 58 60  1  0  0  0  0
 59 60  1  0  0  0  0
 60 64  1  0  0  0  0
 61 62  1  6  0  0  0
 61 59  1  0  0  0  0
 62 58  1  0  0  0  0
 64 63  1  0  0  0  0
M  END
>  <MODEL>
5

>  <REMARK>
 VINA RESULT:      -4.2      2.057      3.243
  Name = 
  21 active torsions:
  status: ('A' for Active; 'I' for Inactive)
    1  A    between atoms: C_1  and  C_6
    2  A    between atoms: C_2  and  C_29
    3  A    between atoms: C_2  and  C_38
    4  A    between atoms: C_13  and  C_60
    5  A    between atoms: C_14  and  N_17
    6  A    between atoms: C_14  and  N_39
    7  A    between atoms: C_18  and  CA_54
    8  A    between atoms: C_19  and  C_27
    9  A    between atoms: C_19  and  C_31
   10  A    between atoms: C_19  and  N_39
   11  A    between atoms: N_24  and  C_27
   12  A    between atoms: N_24  and  CA_54
   13  A    between atoms: C_26  and  C_38
   14  A    between atoms: C_26  and  O_40
   15  A    between atoms: C_30  and  C_60
   16  A    between atoms: C_33  and  C_48
   17  A    between atoms: O_40  and  C_61
   18  A    between atoms: N_45  and  C_46
   19  A    between atoms: C_49  and  C_58
   20  A    between atoms: C_50  and  CA_54
   21  A    between atoms: C_50  and  C_58
                            x       y       z     vdW  Elec       q    Type
                         _______ _______ _______ _____ _____    ______ ____

>  <TORSDO>
F 21

$$$$
=
 OpenBabel10232410563D

 64 69  0  0  1  0  0  0  0  0999 V2000
  187.9280  175.8090  137.1930 C   0  0  1  0  0  3  0  0  0  0  0  0
  187.7630  177.8310  135.9160 N   0  0  0  0  0  0  0  0  0  0  0  0
  189.0520  177.8480  136.6210 C   0  0  1  0  0  3  0  0  0  0  0  0
  189.0460  178.7230  137.8750 C   0  0  0  0  0  1  0  0  0  0  0  0
  189.3090  176.4140  137.0370 C   0  0  0  0  0  2  0  0  0  0  0  0
  186.9490  176.7820  136.5470 C   0  0  2  0  0  3  0  0  0  0  0  0
  187.1040  179.1380  135.8610 C   0  0  0  0  0  1  0  0  0  0  0  0
  188.8700  173.8270  136.1010 N   0  0  0  0  0  0  0  0  0  0  0  0
  187.8270  174.4140  136.6240 C   0  0  0  0  0  0  0  0  0  0  0  0
  184.8510  172.4700  135.2950 C   0  0  0  0  0  3  0  0  0  0  0  0
  185.7180  173.5570  137.7150 C   0  0  0  0  0  3  0  0  0  0  0  0
  182.7500  171.6460  136.3640 C   0  0  0  0  0  1  0  0  0  0  0  0
  184.4920  172.8900  137.6480 C   0  0  0  0  0  3  0  0  0  0  0  0
  186.5280  173.6890  136.5760 C   0  0  0  0  0  0  0  0  0  0  0  0
  186.0770  173.1370  135.3640 C   0  0  0  0  0  3  0  0  0  0  0  0
  184.0590  172.3470  136.4380 C   0  0  0  0  0  0  0  0  0  0  0  0
  190.2360  174.2710  136.0040 C   0  0  0  0  0  0  0  0  0  0  0  0
  191.2810  174.1820  137.2660 S   0  0  0  0  0  0  0  0  0  0  0  0
  190.7800  174.5570  134.7150 N   0  0  0  0  0  2  0  0  0  0  0  0
  192.2110  174.6510  134.4760 C   0  0  1  0  0  3  0  0  0  0  0  0
  192.6760  176.0550  134.7090 C   0  0  0  0  0  3  0  0  0  0  0  0
  193.5950  176.3280  135.6300 C   0  0  0  0  0  2  0  0  0  0  0  0
  192.9370  173.6950  135.4060 C   0  0  0  0  0  2  0  0  0  0  0  0
  193.6710  172.7140  134.6230 N   0  0  0  0  0  2  0  0  0  0  0  0
  194.8440  172.3210  135.3940 C   0  0  2  0  0  3  0  0  0  0  0  0
  194.4320  171.6020  136.6380 C   0  0  0  0  0  0  0  0  0  0  0  0
  194.6540  172.1700  137.8890 O   0  0  0  0  0  1  0  0  0  0  0  0
  193.8910  170.4680  136.5550 O   0  0  0  0  0  0  0  0  0  0  0  0
  195.7580  173.5110  135.7000 C   0  0  0  0  0  2  0  0  0  0  0  0
  197.6540  174.5820  137.3480 S   0  0  0  0  0  1  0  0  0  0  0  0
  197.0320  173.1240  136.4490 C   0  0  2  0  0  3  0  0  0  0  0  0
  199.3030  172.4090  136.1210 O   0  0  0  0  0  1  0  0  0  0  0  0
  198.3110  173.6410  134.3560 C   0  0  0  0  0  1  0  0  0  0  0  0
  198.0890  172.6260  135.4650 C   0  0  2  0  0  3  0  0  0  0  0  0
  186.1080  177.3060  137.5380 O   0  0  0  0  0  0  0  0  0  0  0  0
  185.0250  177.8500  136.8410 C   0  0  0  0  0  2  0  0  0  0  0  0
  183.8670  178.0710  137.7910 C   0  0  2  0  0  3  0  0  0  0  0  0
  182.5870  178.2240  136.9950 C   0  0  0  0  0  1  0  0  0  0  0  0
  184.1150  179.3280  138.6060 C   0  0  0  0  0  2  0  0  0  0  0  0
  185.9170  177.8910  144.8410 C   0  0  1  0  0  3  0  0  0  0  0  0
  185.0350  178.5370  143.8700 N   0  0  0  0  0  2  0  0  0  0  0  0
  187.2020  177.6980  141.9840 N   0  0  0  0  0  0  0  0  0  0  0  0
  187.3750  178.0610  144.4240 C   0  0  0  0  0  2  0  0  0  0  0  0
  184.3410  178.9800  140.0350 C   0  0  0  0  0  0  0  0  0  0  0  0
  187.7080  177.1480  143.2450 C   0  0  2  0  0  3  0  0  0  0  0  0
  184.8850  177.6360  142.7360 C   0  0  0  0  0  2  0  0  0  0  0  0
  183.4170  179.1540  140.8730 O   0  0  0  0  0  0  0  0  0  0  0  0
  185.6130  178.4550  140.4300 N   0  0  0  0  0  2  0  0  0  0  0  0
  185.9490  177.9230  141.7170 C   0  0  0  0  0  0  0  0  0  0  0  0
  185.7120  178.4470  146.2580 C   0  0  1  0  0  0  0  0  0  0  0  0
  188.2730  178.2280  148.6650 C   0  0  0  0  0  1  0  0  0  0  0  0
  185.9860  179.9050  146.5350 C   0  0  0  0  0  2  0  0  0  0  0  0
  184.9150  177.6650  147.2820 C   0  0  0  0  0  2  0  0  0  0  0  0
  187.0000  179.9060  147.6570 C   0  0  0  0  0  2  0  0  0  0  0  0
  186.9150  178.6150  148.3270 N   0  0  0  0  0  0  0  0  0  0  0  0
  186.4400  177.6630  147.3290 C   0  0  2  0  0  3  0  0  0  0  0  0
  191.7020  179.5670  144.4570 Cl  0  0  0  0  0  0  0  0  0  0  0  0
  191.2680  177.9930  143.7520 C   0  0  2  0  0  3  0  0  0  0  0  0
  189.8120  177.5810  141.9470 C   0  0  0  0  0  2  0  0  0  0  0  0
  191.1220  178.1250  142.3050 N   0  0  0  0  0  0  0  0  0  0  0  0
  189.2180  176.9190  143.1720 C   0  0  1  0  0  3  0  0  0  0  0  0
  189.9580  177.5220  144.3380 C   0  0  0  0  0  2  0  0  0  0  0  0
  191.7790  177.0060  140.2490 C   0  0  0  0  0  1  0  0  0  0  0  0
  192.1270  177.2640  141.7010 C   0  0  0  0  0  2  0  0  0  0  0  0
  1  9  1  6  0  0  0
  2  6  1  0  0  0  0
  2  3  1  0  0  0  0
  3  5  1  0  0  0  0
  3  4  1  1  0  0  0
  5  1  1  0  0  0  0
  6  1  1  0  0  0  0
  6 35  1  1  0  0  0
  7  2  1  0  0  0  0
  8  9  2  0  0  0  0
 10 15  2  0  0  0  0
 10 16  1  0  0  0  0
 12 16  1  0  0  0  0
 13 11  1  0  0  0  0
 14  9  1  0  0  0  0
 14 11  2  0  0  0  0
 15 14  1  0  0  0  0
 16 13  2  0  0  0  0
 17  8  1  0  0  0  0
 17 18  2  0  0  0  0
 19 17  1  0  0  0  0
 20 21  1  1  0  0  0
 20 19  1  0  0  0  0
 20 23  1  0  0  0  0
 21 22  2  0  0  0  0
 24 25  1  0  0  0  0
 24 23  1  0  0  0  0
 25 29  1  1  0  0  0
 25 26  1  0  0  0  0
 26 27  1  0  0  0  0
 28 26  2  0  0  0  0
 29 31  1  0  0  0  0
 31 30  1  6  0  0  0
 34 33  1  6  0  0  0
 34 32  1  0  0  0  0
 34 31  1  0  0  0  0
 36 35  1  0  0  0  0
 36 37  1  0  0  0  0
 37 38  1  6  0  0  0
 37 39  1  0  0  0  0
 39 44  1  0  0  0  0
 40 43  1  6  0  0  0
 40 50  1  0  0  0  0
 41 40  1  0  0  0  0
 42 45  1  0  0  0  0
 44 48  1  0  0  0  0
 44 47  2  0  0  0  0
 45 43  1  1  0  0  0
 46 41  1  0  0  0  0
 48 49  1  0  0  0  0
 49 42  2  0  0  0  0
 49 46  1  0  0  0  0
 50 52  1  1  0  0  0
 50 53  1  0  0  0  0
 50 56  1  0  0  0  0
 52 54  1  0  0  0  0
 54 55  1  0  0  0  0
 55 51  1  0  0  0  0
 56 53  1  1  0  0  0
 56 55  1  0  0  0  0
 58 62  1  0  0  0  0
 58 57  1  1  0  0  0
 59 60  1  0  0  0  0
 60 58  1  0  0  0  0
 61 59  1  6  0  0  0
 61 45  1  0  0  0  0
 61 62  1  0  0  0  0
 63 64  1  0  0  0  0
 64 60  1  0  0  0  0
M  END
>  <MODEL>
6

>  <REMARK>
 VINA RESULT:      -4.1      3.814     10.573
  Name = 
  21 active torsions:
  status: ('A' for Active; 'I' for Inactive)
    1  A    between atoms: C_1  and  C_6
    2  A    between atoms: C_2  and  C_29
    3  A    between atoms: C_2  and  C_38
    4  A    between atoms: C_13  and  C_60
    5  A    between atoms: C_14  and  N_17
    6  A    between atoms: C_14  and  N_39
    7  A    between atoms: C_18  and  CA_54
    8  A    between atoms: C_19  and  C_27
    9  A    between atoms: C_19  and  C_31
   10  A    between atoms: C_19  and  N_39
   11  A    between atoms: N_24  and  C_27
   12  A    between atoms: N_24  and  CA_54
   13  A    between atoms: C_26  and  C_38
   14  A    between atoms: C_26  and  O_40
   15  A    between atoms: C_30  and  C_60
   16  A    between atoms: C_33  and  C_48
   17  A    between atoms: O_40  and  C_61
   18  A    between atoms: N_45  and  C_46
   19  A    between atoms: C_49  and  C_58
   20  A    between atoms: C_50  and  CA_54
   21  A    between atoms: C_50  and  C_58
                            x       y       z     vdW  Elec       q    Type
                         _______ _______ _______ _____ _____    ______ ____

>  <TORSDO>
F 21

$$$$
=
 OpenBabel10232410563D

 64 69  0  0  1  0  0  0  0  0999 V2000
  184.6040  176.6890  137.8790 C   0  0  1  0  0  3  0  0  0  0  0  0
  183.2310  175.7850  136.1350 N   0  0  0  0  0  0  0  0  0  0  0  0
  182.9150  175.0650  137.3760 C   0  0  1  0  0  3  0  0  0  0  0  0
  183.5810  173.6910  137.4660 C   0  0  0  0  0  1  0  0  0  0  0  0
  183.4460  175.9320  138.4980 C   0  0  0  0  0  2  0  0  0  0  0  0
  184.4930  176.5010  136.3710 C   0  0  2  0  0  3  0  0  0  0  0  0
  183.2500  174.9300  134.9460 C   0  0  0  0  0  1  0  0  0  0  0  0
  185.7140  178.6600  138.8250 N   0  0  0  0  0  0  0  0  0  0  0  0
  184.6430  178.1430  138.2860 C   0  0  0  0  0  0  0  0  0  0  0  0
  181.4150  179.6240  136.9470 C   0  0  0  0  0  3  0  0  0  0  0  0
  183.2050  180.0760  139.0400 C   0  0  0  0  0  3  0  0  0  0  0  0
  180.0050  181.5530  137.6730 C   0  0  0  0  0  1  0  0  0  0  0  0
  182.0850  180.8980  138.8890 C   0  0  0  0  0  3  0  0  0  0  0  0
  183.4450  179.0170  138.1510 C   0  0  0  0  0  0  0  0  0  0  0  0
  182.5350  178.8020  137.1010 C   0  0  0  0  0  3  0  0  0  0  0  0
  181.1910  180.6720  137.8410 C   0  0  0  0  0  0  0  0  0  0  0  0
  187.0040  178.0710  139.0790 C   0  0  0  0  0  0  0  0  0  0  0  0
  187.4550  176.6320  138.4340 S   0  0  0  0  0  0  0  0  0  0  0  0
  188.0180  178.8670  139.6920 N   0  0  0  0  0  2  0  0  0  0  0  0
  188.2950  178.8150  141.1190 C   0  0  1  0  0  3  0  0  0  0  0  0
  187.0150  178.6630  141.8800 C   0  0  0  0  0  3  0  0  0  0  0  0
  185.8450  178.9520  141.3190 C   0  0  0  0  0  2  0  0  0  0  0  0
  189.2200  177.6470  141.4060 C   0  0  0  0  0  2  0  0  0  0  0  0
  188.6770  176.8480  142.4930 N   0  0  0  0  0  2  0  0  0  0  0  0
  189.5510  177.0200  143.6470 C   0  0  2  0  0  3  0  0  0  0  0  0
  190.8720  176.3640  143.4030 C   0  0  0  0  0  0  0  0  0  0  0  0
  190.9340  175.0560  142.9310 O   0  0  0  0  0  0  0  0  0  0  0  0
  191.9360  176.9940  143.6380 O   0  0  0  0  0  1  0  0  0  0  0  0
  188.8990  176.5250  144.9410 C   0  0  0  0  0  2  0  0  0  0  0  0
  189.2260  177.1340  147.5830 S   0  0  0  0  0  1  0  0  0  0  0  0
  188.6120  177.6410  145.9440 C   0  0  2  0  0  3  0  0  0  0  0  0
  186.6960  178.6370  144.8870 O   0  0  0  0  0  1  0  0  0  0  0  0
  186.7660  178.7150  147.2550 C   0  0  0  0  0  1  0  0  0  0  0  0
  187.1110  177.9160  146.0100 C   0  0  2  0  0  3  0  0  0  0  0  0
  185.5980  175.7650  135.9210 O   0  0  0  0  0  0  0  0  0  0  0  0
  186.2950  176.6390  135.0820 C   0  0  0  0  0  2  0  0  0  0  0  0
  187.4870  175.9240  134.4810 C   0  0  2  0  0  3  0  0  0  0  0  0
  187.2870  174.4270  134.6000 C   0  0  0  0  0  1  0  0  0  0  0  0
  188.7470  176.3310  135.2220 C   0  0  0  0  0  2  0  0  0  0  0  0
  193.7000  171.8990  135.3610 C   0  0  1  0  0  3  0  0  0  0  0  0
  192.2950  172.2570  135.1710 N   0  0  0  0  0  2  0  0  0  0  0  0
  193.2470  174.8580  136.3070 N   0  0  0  0  0  0  0  0  0  0  0  0
  194.2690  172.6220  136.5790 C   0  0  0  0  0  2  0  0  0  0  0  0
  189.7820  175.2690  135.1020 C   0  0  0  0  0  0  0  0  0  0  0  0
  194.5010  174.0990  136.2680 C   0  0  2  0  0  3  0  0  0  0  0  0
  192.2510  173.5520  134.5060 C   0  0  0  0  0  2  0  0  0  0  0  0
  189.5100  174.1990  134.4940 O   0  0  0  0  0  0  0  0  0  0  0  0
  191.0710  175.4840  135.6870 N   0  0  0  0  0  2  0  0  0  0  0  0
  192.2240  174.6480  135.5320 C   0  0  0  0  0  0  0  0  0  0  0  0
  193.8870  170.3840  135.5200 C   0  0  1  0  0  0  0  0  0  0  0  0
  194.8330  169.0030  138.6180 C   0  0  0  0  0  1  0  0  0  0  0  0
  192.6940  169.5120  135.8350 C   0  0  0  0  0  2  0  0  0  0  0  0
  195.1500  169.7090  135.0260 C   0  0  0  0  0  2  0  0  0  0  0  0
  193.0700  168.7810  137.1040 C   0  0  0  0  0  2  0  0  0  0  0  0
  194.5220  168.8070  137.2130 N   0  0  0  0  0  0  0  0  0  0  0  0
  194.9670  170.0060  136.5110 C   0  0  2  0  0  3  0  0  0  0  0  0
  198.9520  173.0190  137.7860 Cl  0  0  0  0  0  0  0  0  0  0  0  0
  197.7300  174.2820  138.0550 C   0  0  2  0  0  3  0  0  0  0  0  0
  195.4540  173.9880  138.5880 C   0  0  0  0  0  2  0  0  0  0  0  0
  196.8130  173.8640  139.1130 N   0  0  0  0  0  0  0  0  0  0  0  0
  195.5210  174.6850  137.2460 C   0  0  1  0  0  3  0  0  0  0  0  0
  196.9440  174.5040  136.7840 C   0  0  0  0  0  2  0  0  0  0  0  0
  195.6260  175.5300  140.4270 C   0  0  0  0  0  1  0  0  0  0  0  0
  196.9490  174.8300  140.1920 C   0  0  0  0  0  2  0  0  0  0  0  0
  1  9  1  6  0  0  0
  1  5  1  0  0  0  0
  2  6  1  0  0  0  0
  2  3  1  0  0  0  0
  3  4  1  6  0  0  0
  3  5  1  0  0  0  0
  6 35  1  1  0  0  0
  6  1  1  0  0  0  0
  7  2  1  0  0  0  0
  8 17  1  0  0  0  0
  9  8  2  0  0  0  0
 10 15  2  0  0  0  0
 10 16  1  0  0  0  0
 12 16  1  0  0  0  0
 13 11  1  0  0  0  0
 14  9  1  0  0  0  0
 14 11  2  0  0  0  0
 15 14  1  0  0  0  0
 16 13  2  0  0  0  0
 17 19  1  0  0  0  0
 18 17  2  0  0  0  0
 19 20  1  0  0  0  0
 20 23  1  6  0  0  0
 20 21  1  0  0  0  0
 22 21  2  0  0  0  0
 23 24  1  0  0  0  0
 24 25  1  0  0  0  0
 25 29  1  1  0  0  0
 26 28  1  0  0  0  0
 26 25  1  0  0  0  0
 27 26  2  0  0  0  0
 29 31  1  0  0  0  0
 31 34  1  0  0  0  0
 31 30  1  1  0  0  0
 32 34  1  0  0  0  0
 34 33  1  1  0  0  0
 36 35  1  0  0  0  0
 37 38  1  1  0  0  0
 37 36  1  0  0  0  0
 37 39  1  0  0  0  0
 40 50  1  0  0  0  0
 40 43  1  1  0  0  0
 41 40  1  0  0  0  0
 44 39  1  0  0  0  0
 44 48  1  0  0  0  0
 45 42  1  0  0  0  0
 45 43  1  1  0  0  0
 45 61  1  0  0  0  0
 46 41  1  0  0  0  0
 46 49  1  0  0  0  0
 47 44  2  0  0  0  0
 49 48  1  0  0  0  0
 49 42  2  0  0  0  0
 50 53  1  6  0  0  0
 50 52  1  0  0  0  0
 50 56  1  0  0  0  0
 52 54  1  0  0  0  0
 54 55  1  0  0  0  0
 55 51  1  0  0  0  0
 56 53  1  6  0  0  0
 56 55  1  0  0  0  0
 58 57  1  6  0  0  0
 58 60  1  0  0  0  0
 59 60  1  0  0  0  0
 60 64  1  0  0  0  0
 61 62  1  6  0  0  0
 61 59  1  0  0  0  0
 62 58  1  0  0  0  0
 64 63  1  0  0  0  0
M  END
>  <MODEL>
7

>  <REMARK>
 VINA RESULT:      -3.9      1.530      1.991
  Name = 
  21 active torsions:
  status: ('A' for Active; 'I' for Inactive)
    1  A    between atoms: C_1  and  C_6
    2  A    between atoms: C_2  and  C_29
    3  A    between atoms: C_2  and  C_38
    4  A    between atoms: C_13  and  C_60
    5  A    between atoms: C_14  and  N_17
    6  A    between atoms: C_14  and  N_39
    7  A    between atoms: C_18  and  CA_54
    8  A    between atoms: C_19  and  C_27
    9  A    between atoms: C_19  and  C_31
   10  A    between atoms: C_19  and  N_39
   11  A    between atoms: N_24  and  C_27
   12  A    between atoms: N_24  and  CA_54
   13  A    between atoms: C_26  and  C_38
   14  A    between atoms: C_26  and  O_40
   15  A    between atoms: C_30  and  C_60
   16  A    between atoms: C_33  and  C_48
   17  A    between atoms: O_40  and  C_61
   18  A    between atoms: N_45  and  C_46
   19  A    between atoms: C_49  and  C_58
   20  A    between atoms: C_50  and  CA_54
   21  A    between atoms: C_50  and  C_58
                            x       y       z     vdW  Elec       q    Type
                         _______ _______ _______ _____ _____    ______ ____

>  <TORSDO>
F 21

$$$$
=
 OpenBabel10232410563D

 64 70  0  0  1  0  0  0  0  0999 V2000
  190.9070  174.9990  137.2430 C   0  0  1  0  0  3  0  0  0  0  0  0
  190.7640  177.3500  137.6840 N   0  0  1  0  0  0  0  0  0  0  0  0
  191.3210  176.7020  138.8790 C   0  0  1  0  0  3  0  0  0  0  0  0
  190.2940  176.5020  139.9950 C   0  0  0  0  0  1  0  0  0  0  0  0
  191.8010  175.3410  138.4180 C   0  0  0  0  0  2  0  0  0  0  0  0
  190.1870  176.2840  136.8530 C   0  0  2  0  0  3  0  0  0  0  0  0
  189.8290  178.4370  137.9850 C   0  0  0  0  0  2  0  0  0  0  0  0
  191.0500  173.6070  135.2300 N   0  0  0  0  0  0  0  0  0  0  0  0
  191.6590  174.3770  136.0910 C   0  0  0  0  0  0  0  0  0  0  0  0
  195.0070  175.9560  135.2520 C   0  0  0  0  0  3  0  0  0  0  0  0
  194.0360  173.5460  136.2710 C   0  0  0  0  0  3  0  0  0  0  0  0
  197.3580  175.1270  135.4010 C   0  0  0  0  0  1  0  0  0  0  0  0
  195.4110  173.7300  136.1010 C   0  0  0  0  0  3  0  0  0  0  0  0
  193.1290  174.5630  135.9360 C   0  0  0  0  0  0  0  0  0  0  0  0
  193.6320  175.7710  135.4230 C   0  0  0  0  0  3  0  0  0  0  0  0
  195.8960  174.9350  135.5910 C   0  0  0  0  0  0  0  0  0  0  0  0
  189.6590  173.2480  135.1250 C   0  0  0  0  0  0  0  0  0  0  0  0
  188.5360  174.2630  134.4910 S   0  0  0  0  0  0  0  0  0  0  0  0
  189.2790  171.8880  135.3330 N   0  0  0  0  0  2  0  0  0  0  0  0
  187.8900  171.4780  135.4660 C   0  0  1  0  0  3  0  0  0  0  0  0
  187.7490  170.0320  135.1040 C   0  0  0  0  0  3  0  0  0  0  0  0
  188.8180  169.2590  134.9420 C   0  0  0  0  0  2  0  0  0  0  0  0
  187.4370  171.7090  136.8960 C   0  0  0  0  0  2  0  0  0  0  0  0
  186.7780  173.0010  136.9980 N   0  0  0  0  0  2  0  0  0  0  0  0
  185.5830  172.9550  136.1650 C   0  0  2  0  0  3  0  0  0  0  0  0
  185.0840  174.3380  135.8930 C   0  0  0  0  0  0  0  0  0  0  0  0
  184.3400  175.0220  136.8490 O   0  0  0  0  0  1  0  0  0  0  0  0
  185.3270  174.8820  134.7840 O   0  0  0  0  0  0  0  0  0  0  0  0
  184.4930  172.0650  136.7710 C   0  0  0  0  0  2  0  0  0  0  0  0
  181.8940  172.4730  136.0370 S   0  0  0  0  0  1  0  0  0  0  0  0
  183.4610  171.5870  135.7520 C   0  0  2  0  0  3  0  0  0  0  0  0
  184.4620  169.4020  135.8140 O   0  0  0  0  0  1  0  0  0  0  0  0
  182.3310  169.5670  134.7890 C   0  0  0  0  0  1  0  0  0  0  0  0
  183.2430  170.0820  135.8900 C   0  0  2  0  0  3  0  0  0  0  0  0
  188.8150  176.1270  137.0920 O   0  0  0  0  0  0  0  0  0  0  0  0
  188.3210  177.4270  137.2240 C   0  0  2  0  0  3  0  0  0  0  0  0
  187.1610  177.6300  136.2720 C   0  0  2  0  0  3  0  0  0  0  0  0
  187.6920  177.7920  134.8610 C   0  0  0  0  0  1  0  0  0  0  0  0
  186.3900  178.8750  136.6720 C   0  0  0  0  0  2  0  0  0  0  0  0
  183.7760  178.1860  142.7450 C   0  0  1  0  0  3  0  0  0  0  0  0
  183.6670  178.5130  141.3240 N   0  0  0  0  0  2  0  0  0  0  0  0
  186.6500  178.3340  141.4930 N   0  0  0  0  0  0  0  0  0  0  0  0
  185.0540  178.7830  143.3280 C   0  0  0  0  0  2  0  0  0  0  0  0
  185.6620  178.6420  137.9490 C   0  0  0  0  0  0  0  0  0  0  0  0
  186.2760  177.9900  142.8680 C   0  0  2  0  0  3  0  0  0  0  0  0
  184.5140  177.5860  140.5870 C   0  0  0  0  0  2  0  0  0  0  0  0
  184.4060  178.5450  137.9420 O   0  0  0  0  0  0  0  0  0  0  0  0
  186.4090  178.5380  139.1660 N   0  0  0  0  0  2  0  0  0  0  0  0
  185.8940  178.1610  140.4480 C   0  0  0  0  0  0  0  0  0  0  0  0
  182.5600  178.6840  143.5400 C   0  0  1  0  0  0  0  0  0  0  0  0
  180.0050  180.5210  141.9600 C   0  0  0  0  0  1  0  0  0  0  0  0
  181.3720  177.7730  143.7380 C   0  0  0  0  0  2  0  0  0  0  0  0
  182.6670  179.9130  144.4190 C   0  0  0  0  0  2  0  0  0  0  0  0
  180.1930  178.5450  143.1890 C   0  0  0  0  0  2  0  0  0  0  0  0
  180.5580  179.9550  143.1770 N   0  0  0  0  0  0  0  0  0  0  0  0
  182.0100  180.0050  143.0450 C   0  0  2  0  0  3  0  0  0  0  0  0
  191.0520  177.3100  142.8370 Cl  0  0  0  0  0  0  0  0  0  0  0  0
  189.8160  177.9780  143.9260 C   0  0  2  0  0  3  0  0  0  0  0  0
  187.7920  176.9720  144.5900 C   0  0  0  0  0  2  0  0  0  0  0  0
  189.2450  176.9080  144.7400 N   0  0  0  0  0  0  0  0  0  0  0  0
  187.4450  178.2300  143.8250 C   0  0  1  0  0  3  0  0  0  0  0  0
  188.7150  178.6150  143.1100 C   0  0  0  0  0  2  0  0  0  0  0  0
  190.8270  176.5240  146.5460 C   0  0  0  0  0  1  0  0  0  0  0  0
  189.5510  177.2260  146.1270 C   0  0  0  0  0  2  0  0  0  0  0  0
  1  9  1  6  0  0  0
  1  5  1  0  0  0  0
  2  7  1  1  0  0  0
  2  3  1  0  0  0  0
  3  4  1  1  0  0  0
  5  3  1  0  0  0  0
  6 35  1  1  0  0  0
  6  1  1  0  0  0  0
  6  2  1  0  0  0  0
  8  9  2  0  0  0  0
 10 15  2  0  0  0  0
 10 16  1  0  0  0  0
 12 16  1  0  0  0  0
 13 11  1  0  0  0  0
 14  9  1  0  0  0  0
 14 11  2  0  0  0  0
 15 14  1  0  0  0  0
 16 13  2  0  0  0  0
 17  8  1  0  0  0  0
 17 19  1  0  0  0  0
 18 17  2  0  0  0  0
 19 20  1  0  0  0  0
 20 21  1  1  0  0  0
 20 23  1  0  0  0  0
 22 21  2  0  0  0  0
 23 24  1  0  0  0  0
 25 29  1  1  0  0  0
 25 24  1  0  0  0  0
 26 25  1  0  0  0  0
 26 27  1  0  0  0  0
 28 26  2  0  0  0  0
 31 34  1  0  0  0  0
 31 30  1  1  0  0  0
 31 29  1  0  0  0  0
 32 34  1  0  0  0  0
 34 33  1  6  0  0  0
 35 36  1  0  0  0  0
 36 37  1  6  0  0  0
 36  7  1  0  0  0  0
 37 38  1  6  0  0  0
 37 39  1  0  0  0  0
 39 44  1  0  0  0  0
 40 43  1  1  0  0  0
 40 50  1  0  0  0  0
 41 40  1  0  0  0  0
 42 45  1  0  0  0  0
 44 48  1  0  0  0  0
 45 43  1  1  0  0  0
 45 61  1  0  0  0  0
 46 41  1  0  0  0  0
 47 44  2  0  0  0  0
 48 49  1  0  0  0  0
 49 46  1  0  0  0  0
 49 42  2  0  0  0  0
 50 52  1  1  0  0  0
 50 53  1  0  0  0  0
 51 55  1  0  0  0  0
 54 52  1  0  0  0  0
 55 54  1  0  0  0  0
 56 55  1  0  0  0  0
 56 50  1  0  0  0  0
 56 53  1  1  0  0  0
 58 57  1  6  0  0  0
 58 60  1  0  0  0  0
 59 60  1  0  0  0  0
 60 64  1  0  0  0  0
 61 62  1  6  0  0  0
 61 59  1  0  0  0  0
 62 58  1  0  0  0  0
 64 63  1  0  0  0  0
M  END
>  <MODEL>
8

>  <REMARK>
 VINA RESULT:      -3.8      4.097     11.955
  Name = 
  21 active torsions:
  status: ('A' for Active; 'I' for Inactive)
    1  A    between atoms: C_1  and  C_6
    2  A    between atoms: C_2  and  C_29
    3  A    between atoms: C_2  and  C_38
    4  A    between atoms: C_13  and  C_60
    5  A    between atoms: C_14  and  N_17
    6  A    between atoms: C_14  and  N_39
    7  A    between atoms: C_18  and  CA_54
    8  A    between atoms: C_19  and  C_27
    9  A    between atoms: C_19  and  C_31
   10  A    between atoms: C_19  and  N_39
   11  A    between atoms: N_24  and  C_27
   12  A    between atoms: N_24  and  CA_54
   13  A    between atoms: C_26  and  C_38
   14  A    between atoms: C_26  and  O_40
   15  A    between atoms: C_30  and  C_60
   16  A    between atoms: C_33  and  C_48
   17  A    between atoms: O_40  and  C_61
   18  A    between atoms: N_45  and  C_46
   19  A    between atoms: C_49  and  C_58
   20  A    between atoms: C_50  and  CA_54
   21  A    between atoms: C_50  and  C_58
                            x       y       z     vdW  Elec       q    Type
                         _______ _______ _______ _____ _____    ______ ____

>  <TORSDO>
F 21

$$$$
=
 OpenBabel10232410563D

 64 69  0  0  1  0  0  0  0  0999 V2000
  185.7150  177.7130  142.9570 C   0  0  1  0  0  3  0  0  0  0  0  0
  187.0030  179.1850  141.5730 N   0  0  0  0  0  0  0  0  0  0  0  0
  185.8130  178.7790  140.8120 C   0  0  1  0  0  3  0  0  0  0  0  0
  186.0960  177.6810  139.7850 C   0  0  0  0  0  1  0  0  0  0  0  0
  184.8380  178.2390  141.8380 C   0  0  0  0  0  2  0  0  0  0  0  0
  187.1150  178.2610  142.7100 C   0  0  2  0  0  3  0  0  0  0  0  0
  188.2190  179.2740  140.7610 C   0  0  0  0  0  1  0  0  0  0  0  0
  183.9320  178.3710  144.5060 N   0  0  0  0  0  0  0  0  0  0  0  0
  185.1870  178.0550  144.3300 C   0  0  0  0  0  0  0  0  0  0  0  0
  186.6200  179.0430  147.7020 C   0  0  0  0  0  3  0  0  0  0  0  0
  187.2630  177.3480  145.5800 C   0  0  0  0  0  3  0  0  0  0  0  0
  188.6880  178.3680  148.9290 C   0  0  0  0  0  1  0  0  0  0  0  0
  188.1070  177.4270  146.6910 C   0  0  0  0  0  3  0  0  0  0  0  0
  186.0880  178.1120  145.5140 C   0  0  0  0  0  0  0  0  0  0  0  0
  185.7780  178.9620  146.5900 C   0  0  0  0  0  3  0  0  0  0  0  0
  187.7860  178.2750  147.7520 C   0  0  0  0  0  0  0  0  0  0  0  0
  182.8410  178.4050  143.5660 C   0  0  0  0  0  0  0  0  0  0  0  0
  181.3140  177.9680  143.9770 S   0  0  0  0  0  0  0  0  0  0  0  0
  183.0230  179.0760  142.3190 N   0  0  0  0  0  2  0  0  0  0  0  0
  182.0960  178.9250  141.2100 C   0  0  1  0  0  3  0  0  0  0  0  0
  180.9400  179.8610  141.3810 C   0  0  0  0  0  3  0  0  0  0  0  0
  180.4430  180.5320  140.3460 C   0  0  0  0  0  2  0  0  0  0  0  0
  182.8210  179.2170  139.9090 C   0  0  0  0  0  2  0  0  0  0  0  0
  182.6250  178.1140  138.9810 N   0  0  0  0  0  2  0  0  0  0  0  0
  182.7620  178.6430  137.6300 C   0  0  2  0  0  3  0  0  0  0  0  0
  181.4250  179.0310  137.0840 C   0  0  0  0  0  0  0  0  0  0  0  0
  180.4170  178.0820  136.9450 O   0  0  0  0  0  1  0  0  0  0  0  0
  181.2140  180.2210  136.7350 O   0  0  0  0  0  0  0  0  0  0  0  0
  183.4960  177.6710  136.7020 C   0  0  0  0  0  2  0  0  0  0  0  0
  185.2940  175.6220  136.5430 S   0  0  0  0  0  1  0  0  0  0  0  0
  183.8310  176.3350  137.3630 C   0  0  2  0  0  3  0  0  0  0  0  0
  182.1470  175.0570  138.5090 O   0  0  0  0  0  1  0  0  0  0  0  0
  183.0640  174.0920  136.5470 C   0  0  0  0  0  1  0  0  0  0  0  0
  182.6470  175.3770  137.2430 C   0  0  2  0  0  3  0  0  0  0  0  0
  187.9780  177.1940  142.4270 O   0  0  0  0  0  0  0  0  0  0  0  0
  189.1880  177.5370  143.0360 C   0  0  0  0  0  2  0  0  0  0  0  0
  190.3050  176.6910  142.4620 C   0  0  2  0  0  3  0  0  0  0  0  0
  191.2870  176.3430  143.5630 C   0  0  0  0  0  1  0  0  0  0  0  0
  191.0170  177.4680  141.3700 C   0  0  0  0  0  2  0  0  0  0  0  0
  190.5330  174.3130  135.5390 C   0  0  1  0  0  3  0  0  0  0  0  0
  189.9560  174.8140  136.7860 N   0  0  0  0  0  2  0  0  0  0  0  0
  192.8400  175.2860  137.4310 N   0  0  0  0  0  0  0  0  0  0  0  0
  191.8960  173.6790  135.8050 C   0  0  0  0  0  2  0  0  0  0  0  0
  190.7520  176.8510  140.0420 C   0  0  0  0  0  0  0  0  0  0  0  0
  192.9470  174.7560  136.0680 C   0  0  2  0  0  3  0  0  0  0  0  0
  190.5710  176.1020  137.0750 C   0  0  0  0  0  2  0  0  0  0  0  0
  189.5670  176.7590  139.6230 O   0  0  0  0  0  0  0  0  0  0  0  0
  191.8550  176.3690  139.2660 N   0  0  0  0  0  2  0  0  0  0  0  0
  191.8000  175.8990  137.9140 C   0  0  0  0  0  0  0  0  0  0  0  0
  189.6110  173.2940  134.8520 C   0  0  1  0  0  0  0  0  0  0  0  0
  187.4650  171.2440  136.7470 C   0  0  0  0  0  1  0  0  0  0  0  0
  188.2570  173.7330  134.3470 C   0  0  0  0  0  2  0  0  0  0  0  0
  190.1600  171.9720  134.3580 C   0  0  0  0  0  2  0  0  0  0  0  0
  187.2700  172.8110  135.0280 C   0  0  0  0  0  2  0  0  0  0  0  0
  187.9980  171.6220  135.4510 N   0  0  0  0  0  0  0  0  0  0  0  0
  189.3790  172.0390  135.6660 C   0  0  2  0  0  3  0  0  0  0  0  0
  195.1350  170.4680  136.3860 Cl  0  0  0  0  0  0  0  0  0  0  0  0
  195.5380  172.1280  135.8930 C   0  0  2  0  0  3  0  0  0  0  0  0
  195.1470  174.1170  137.0930 C   0  0  0  0  0  2  0  0  0  0  0  0
  195.9590  172.9010  137.0590 N   0  0  0  0  0  0  0  0  0  0  0  0
  194.3460  174.1940  135.8110 C   0  0  1  0  0  3  0  0  0  0  0  0
  194.3200  172.7830  135.2830 C   0  0  0  0  0  2  0  0  0  0  0  0
  198.1240  172.1400  136.2560 C   0  0  0  0  0  1  0  0  0  0  0  0
  197.3350  173.3050  136.8200 C   0  0  0  0  0  2  0  0  0  0  0  0
  1  9  1  1  0  0  0
  2  6  1  0  0  0  0
  3  4  1  6  0  0  0
  3  2  1  0  0  0  0
  3  5  1  0  0  0  0
  5  1  1  0  0  0  0
  6 35  1  6  0  0  0
  6  1  1  0  0  0  0
  7  2  1  0  0  0  0
  9  8  2  0  0  0  0
  9 14  1  0  0  0  0
 10 16  1  0  0  0  0
 11 13  1  0  0  0  0
 13 16  2  0  0  0  0
 14 11  2  0  0  0  0
 14 15  1  0  0  0  0
 15 10  2  0  0  0  0
 16 12  1  0  0  0  0
 17 18  2  0  0  0  0
 17  8  1  0  0  0  0
 19 17  1  0  0  0  0
 20 23  1  6  0  0  0
 20 21  1  0  0  0  0
 20 19  1  0  0  0  0
 22 21  2  0  0  0  0
 24 23  1  0  0  0  0
 25 29  1  6  0  0  0
 25 24  1  0  0  0  0
 26 25  1  0  0  0  0
 27 26  1  0  0  0  0
 28 26  2  0  0  0  0
 29 31  1  0  0  0  0
 31 30  1  6  0  0  0
 34 33  1  1  0  0  0
 34 31  1  0  0  0  0
 34 32  1  0  0  0  0
 35 36  1  0  0  0  0
 37 36  1  0  0  0  0
 37 38  1  1  0  0  0
 39 37  1  0  0  0  0
 40 43  1  1  0  0  0
 40 41  1  0  0  0  0
 41 46  1  0  0  0  0
 42 49  2  0  0  0  0
 44 39  1  0  0  0  0
 45 43  1  1  0  0  0
 45 42  1  0  0  0  0
 46 49  1  0  0  0  0
 47 44  2  0  0  0  0
 48 44  1  0  0  0  0
 49 48  1  0  0  0  0
 50 52  1  6  0  0  0
 50 40  1  0  0  0  0
 50 56  1  0  0  0  0
 52 54  1  0  0  0  0
 53 50  1  0  0  0  0
 54 55  1  0  0  0  0
 55 56  1  0  0  0  0
 55 51  1  0  0  0  0
 56 53  1  6  0  0  0
 58 57  1  1  0  0  0
 58 60  1  0  0  0  0
 60 59  1  0  0  0  0
 61 62  1  1  0  0  0
 61 45  1  0  0  0  0
 61 59  1  0  0  0  0
 62 58  1  0  0  0  0
 63 64  1  0  0  0  0
 64 60  1  0  0  0  0
M  END
>  <MODEL>
9

>  <REMARK>
 VINA RESULT:      -3.3      2.973      7.794
  Name = 
  21 active torsions:
  status: ('A' for Active; 'I' for Inactive)
    1  A    between atoms: C_1  and  C_6
    2  A    between atoms: C_2  and  C_29
    3  A    between atoms: C_2  and  C_38
    4  A    between atoms: C_13  and  C_60
    5  A    between atoms: C_14  and  N_17
    6  A    between atoms: C_14  and  N_39
    7  A    between atoms: C_18  and  CA_54
    8  A    between atoms: C_19  and  C_27
    9  A    between atoms: C_19  and  C_31
   10  A    between atoms: C_19  and  N_39
   11  A    between atoms: N_24  and  C_27
   12  A    between atoms: N_24  and  CA_54
   13  A    between atoms: C_26  and  C_38
   14  A    between atoms: C_26  and  O_40
   15  A    between atoms: C_30  and  C_60
   16  A    between atoms: C_33  and  C_48
   17  A    between atoms: O_40  and  C_61
   18  A    between atoms: N_45  and  C_46
   19  A    between atoms: C_49  and  C_58
   20  A    between atoms: C_50  and  CA_54
   21  A    between atoms: C_50  and  C_58
                            x       y       z     vdW  Elec       q    Type
                         _______ _______ _______ _____ _____    ______ ____

>  <TORSDO>
F 21

$$$$
