=
 OpenBabel10232408023D

 46 51  0  0  1  0  0  0  0  0999 V2000
  187.5470  178.5910  138.4850 N   0  0  0  0  0  2  0  0  0  0  0  0
  189.7730  177.6830  138.5570 C   0  0  1  0  0  3  0  0  0  0  0  0
  189.3680  177.5790  136.7960 S   0  0  0  0  0  0  0  0  0  0  0  0
  188.4790  177.8460  139.3190 C   0  0  1  0  0  3  0  0  0  0  0  0
  187.6400  178.0500  137.1340 C   0  0  1  0  0  3  0  0  0  0  0  0
  187.4900  175.6070  136.6030 C   0  0  2  0  0  3  0  0  0  0  0  0
  187.6330  174.7700  137.7140 O   0  0  0  0  0  1  0  0  0  0  0  0
  185.9570  176.1020  134.8500 C   0  0  0  0  0  2  0  0  0  0  0  0
  186.7000  176.8530  136.9610 C   0  0  2  0  0  3  0  0  0  0  0  0
  185.7420  177.1120  135.8840 N   0  0  0  0  0  2  0  0  0  0  0  0
  186.7230  174.9540  135.4690 C   0  0  2  0  0  3  0  0  0  0  0  0
  184.7120  174.1020  136.6580 C   0  0  0  0  0  3  0  0  0  0  0  0
  183.7420  173.0410  137.0940 C   0  0  0  0  0  2  0  0  0  0  0  0
  185.7920  173.8330  135.8950 C   0  0  0  0  0  0  0  0  0  0  0  0
  186.0230  172.4450  135.3150 C   0  0  2  0  0  3  0  0  0  0  0  0
  185.0880  171.3670  135.8770 C   0  0  0  0  0  2  0  0  0  0  0  0
  183.6820  171.9120  136.0740 C   0  0  1  0  0  3  0  0  0  0  0  0
  182.7820  170.8140  136.5980 C   0  0  0  0  0  1  0  0  0  0  0  0
  187.4440  172.0120  135.4810 C   0  0  0  0  0  0  0  0  0  0  0  0
  187.9120  171.8290  136.6340 O   0  0  0  0  0  1  0  0  0  0  0  0
  188.2510  171.8040  134.3680 O   0  0  0  0  0  0  0  0  0  0  0  0
  190.4830  176.4140  138.9990 C   0  0  0  0  0  2  0  0  0  0  0  0
  190.9640  175.6250  137.7950 C   0  0  0  0  0  2  0  0  0  0  0  0
  192.3820  176.0490  137.4270 C   0  0  1  0  0  3  0  0  0  0  0  0
  192.6130  173.5720  136.6080 C   0  0  0  0  0  1  0  0  0  0  0  0
  193.2000  174.9640  136.8240 C   0  0  1  0  0  0  0  0  0  0  0  0
  192.5590  175.9310  136.0310 O   0  0  0  0  0  0  0  0  0  0  0  0
  197.1740  175.4080  135.8560 S   0  0  0  0  0  0  0  0  0  0  0  0
  197.1240  174.0250  137.0390 C   0  0  2  0  0  3  0  0  0  0  0  0
  195.5570  173.9950  137.9740 S   0  0  0  0  0  0  0  0  0  0  0  0
  194.7140  175.1760  136.8720 C   0  0  1  0  0  3  0  0  0  0  0  0
  195.4040  175.2680  135.5200 C   0  0  2  0  0  3  0  0  0  0  0  0
  198.2920  174.1280  137.9990 C   0  0  0  0  0  1  0  0  0  0  0  0
  195.1450  174.0600  134.6290 C   0  0  0  0  0  1  0  0  0  0  0  0
  188.7430  178.6080  140.6100 C   0  0  0  0  0  2  0  0  0  0  0  0
  187.8290  177.8850  142.9040 C   0  0  0  0  0  0  0  0  0  0  0  0
  185.2480  178.6380  141.9990 C   0  0  0  0  0  3  0  0  0  0  0  0
  186.3520  178.8080  141.1740 C   0  0  0  0  0  3  0  0  0  0  0  0
  187.6280  178.4280  141.5970 C   0  0  0  0  0  0  0  0  0  0  0  0
  185.4080  178.0670  143.2550 C   0  0  0  0  0  3  0  0  0  0  0  0
  186.6670  177.6780  143.7120 C   0  0  0  0  0  0  0  0  0  0  0  0
  186.6880  177.0080  145.0460 C   0  0  0  0  0  1  0  0  0  0  0  0
  189.5840  176.0650  142.9790 C   0  0  0  0  0  1  0  0  0  0  0  0
  190.2330  178.3030  142.8200 O   0  0  0  0  0  1  0  0  0  0  0  0
  189.2430  177.4950  143.3750 C   0  0  0  0  0  0  0  0  0  0  0  0
  189.3290  177.6230  144.8840 C   0  0  0  0  0  1  0  0  0  0  0  0
  1  4  1  0  0  0  0
  2 22  1  1  0  0  0
  2  4  1  0  0  0  0
  3  2  1  0  0  0  0
  4 35  1  1  0  0  0
  5  3  1  1  0  0  0
  5  1  1  0  0  0  0
  6  9  1  0  0  0  0
  6  7  1  1  0  0  0
  8 11  1  0  0  0  0
  8 10  1  0  0  0  0
  9 10  1  6  0  0  0
  9  5  1  0  0  0  0
 11 14  1  1  0  0  0
 11  6  1  0  0  0  0
 12 13  1  0  0  0  0
 14 12  2  0  0  0  0
 15 19  1  1  0  0  0
 15 16  1  0  0  0  0
 15 14  1  0  0  0  0
 16 17  1  0  0  0  0
 17 18  1  1  0  0  0
 17 13  1  0  0  0  0
 19 20  1  0  0  0  0
 21 19  2  0  0  0  0
 23 22  1  0  0  0  0
 24 23  1  6  0  0  0
 26 25  1  1  0  0  0
 26 31  1  0  0  0  0
 26 24  1  0  0  0  0
 27 26  1  0  0  0  0
 27 24  1  0  0  0  0
 28 29  1  0  0  0  0
 29 30  1  0  0  0  0
 29 33  1  1  0  0  0
 31 30  1  1  0  0  0
 32 34  1  6  0  0  0
 32 28  1  0  0  0  0
 32 31  1  0  0  0  0
 35 39  1  0  0  0  0
 36 45  1  0  0  0  0
 36 41  1  0  0  0  0
 37 40  1  0  0  0  0
 38 39  1  0  0  0  0
 38 37  2  0  0  0  0
 39 36  2  0  0  0  0
 40 41  2  0  0  0  0
 41 42  1  0  0  0  0
 43 45  1  0  0  0  0
 44 45  1  0  0  0  0
 45 46  1  0  0  0  0
M  END
>  <MODEL>
1

>  <REMARK>
 VINA RESULT:      -8.0      0.000      0.000
  Name = 
  10 active torsions:
  status: ('A' for Active; 'I' for Inactive)
    1  A    between atoms: C_8  and  C_10
    2  A    between atoms: C_9  and  C_23
    3  A    between atoms: C_10  and  C_12
    4  A    between atoms: C_12  and  C_16
    5  A    between atoms: C_15  and  C_26
    6  A    between atoms: C_18  and  C_43
    7  A    between atoms: C_19  and  C_45
    8  A    between atoms: C_22  and  C_42
    9  A    between atoms: C_25  and  C_29
   10  A    between atoms: C_29  and  C_41
                            x       y       z     vdW  Elec       q    Type
                         _______ _______ _______ _____ _____    ______ ____

>  <TORSDO>
F 10

$$$$
=
 OpenBabel10232408023D

 46 51  0  0  1  0  0  0  0  0999 V2000
  188.2490  178.4560  141.2030 N   0  0  0  0  0  2  0  0  0  0  0  0
  189.9810  177.4480  139.8720 C   0  0  1  0  0  3  0  0  0  0  0  0
  189.1170  178.4830  138.6650 S   0  0  0  0  0  0  0  0  0  0  0  0
  189.0630  177.2580  141.0570 C   0  0  1  0  0  3  0  0  0  0  0  0
  187.7980  178.8420  139.8710 C   0  0  1  0  0  3  0  0  0  0  0  0
  186.4250  177.8990  138.0000 C   0  0  2  0  0  3  0  0  0  0  0  0
  186.7430  176.5780  137.6670 O   0  0  0  0  0  1  0  0  0  0  0  0
  184.5840  179.2350  138.7040 C   0  0  0  0  0  2  0  0  0  0  0  0
  186.5030  178.1140  139.5010 C   0  0  2  0  0  3  0  0  0  0  0  0
  185.3410  178.9050  139.9090 N   0  0  0  0  0  2  0  0  0  0  0  0
  185.0110  178.2810  137.6090 C   0  0  2  0  0  3  0  0  0  0  0  0
  183.5760  176.5050  138.5940 C   0  0  0  0  0  3  0  0  0  0  0  0
  182.6060  175.3590  138.5390 C   0  0  0  0  0  2  0  0  0  0  0  0
  184.0480  177.1140  137.4870 C   0  0  0  0  0  0  0  0  0  0  0  0
  183.5210  176.7570  136.1040 C   0  0  2  0  0  3  0  0  0  0  0  0
  182.6300  175.5090  136.0750 C   0  0  0  0  0  2  0  0  0  0  0  0
  181.7280  175.4540  137.2990 C   0  0  1  0  0  3  0  0  0  0  0  0
  180.8430  174.2290  137.2200 C   0  0  0  0  0  1  0  0  0  0  0  0
  184.6330  176.6020  135.1170 C   0  0  0  0  0  0  0  0  0  0  0  0
  184.9220  177.5530  134.3460 O   0  0  0  0  0  0  0  0  0  0  0  0
  185.3550  175.4170  135.0510 O   0  0  0  0  0  1  0  0  0  0  0  0
  190.3170  176.1020  139.2510 C   0  0  0  0  0  2  0  0  0  0  0  0
  190.4010  176.2180  137.7410 C   0  0  0  0  0  2  0  0  0  0  0  0
  191.8490  176.4270  137.3130 C   0  0  1  0  0  3  0  0  0  0  0  0
  191.7700  173.8650  136.7740 C   0  0  0  0  0  1  0  0  0  0  0  0
  192.5210  175.1930  136.8270 C   0  0  1  0  0  0  0  0  0  0  0  0
  191.9790  176.1360  135.9370 O   0  0  0  0  0  0  0  0  0  0  0  0
  196.4920  175.1720  135.7570 S   0  0  0  0  0  0  0  0  0  0  0  0
  196.3130  173.8050  136.9450 C   0  0  2  0  0  3  0  0  0  0  0  0
  194.7780  173.9570  137.9190 S   0  0  0  0  0  0  0  0  0  0  0  0
  194.0490  175.2270  136.8360 C   0  0  1  0  0  3  0  0  0  0  0  0
  194.7100  175.2390  135.4660 C   0  0  2  0  0  3  0  0  0  0  0  0
  197.5090  173.7710  137.8740 C   0  0  0  0  0  1  0  0  0  0  0  0
  194.2910  174.0700  134.5860 C   0  0  0  0  0  1  0  0  0  0  0  0
  189.8950  177.0400  142.3130 C   0  0  0  0  0  2  0  0  0  0  0  0
  189.6400  177.2930  144.8610 C   0  0  0  0  0  0  0  0  0  0  0  0
  186.8290  177.2520  144.4810 C   0  0  0  0  0  3  0  0  0  0  0  0
  187.6800  177.1760  143.3870 C   0  0  0  0  0  3  0  0  0  0  0  0
  189.0670  177.1780  143.5570 C   0  0  0  0  0  0  0  0  0  0  0  0
  187.3590  177.3160  145.7640 C   0  0  0  0  0  3  0  0  0  0  0  0
  188.7390  177.3220  145.9710 C   0  0  0  0  0  0  0  0  0  0  0  0
  189.1740  177.3150  147.3990 C   0  0  0  0  0  1  0  0  0  0  0  0
  191.7840  178.5280  144.3370 C   0  0  0  0  0  1  0  0  0  0  0  0
  191.5520  177.4130  146.3760 O   0  0  0  0  0  1  0  0  0  0  0  0
  191.1700  177.3250  145.0390 C   0  0  0  0  0  0  0  0  0  0  0  0
  191.7740  176.0580  144.4650 C   0  0  0  0  0  1  0  0  0  0  0  0
  2 22  1  6  0  0  0
  2  4  1  0  0  0  0
  3  2  1  0  0  0  0
  4  1  1  0  0  0  0
  4 35  1  1  0  0  0
  5  3  1  6  0  0  0
  5  1  1  0  0  0  0
  6  7  1  1  0  0  0
  6  9  1  0  0  0  0
  8 10  1  0  0  0  0
  9  5  1  0  0  0  0
  9 10  1  6  0  0  0
 11 14  1  1  0  0  0
 11  6  1  0  0  0  0
 11  8  1  0  0  0  0
 13 12  1  0  0  0  0
 14 12  2  0  0  0  0
 15 19  1  6  0  0  0
 15 14  1  0  0  0  0
 16 15  1  0  0  0  0
 16 17  1  0  0  0  0
 17 18  1  6  0  0  0
 17 13  1  0  0  0  0
 20 19  2  0  0  0  0
 21 19  1  0  0  0  0
 23 22  1  0  0  0  0
 24 23  1  1  0  0  0
 26 25  1  1  0  0  0
 26 31  1  0  0  0  0
 26 24  1  0  0  0  0
 27 26  1  0  0  0  0
 27 24  1  0  0  0  0
 28 29  1  0  0  0  0
 29 33  1  1  0  0  0
 29 30  1  0  0  0  0
 31 30  1  1  0  0  0
 32 34  1  6  0  0  0
 32 28  1  0  0  0  0
 32 31  1  0  0  0  0
 35 39  1  0  0  0  0
 36 45  1  0  0  0  0
 36 41  1  0  0  0  0
 37 40  1  0  0  0  0
 38 39  1  0  0  0  0
 38 37  2  0  0  0  0
 39 36  2  0  0  0  0
 40 41  2  0  0  0  0
 41 42  1  0  0  0  0
 43 45  1  0  0  0  0
 45 44  1  0  0  0  0
 46 45  1  0  0  0  0
M  END
>  <MODEL>
2

>  <REMARK>
 VINA RESULT:      -7.5      2.431      3.132
  Name = 
  10 active torsions:
  status: ('A' for Active; 'I' for Inactive)
    1  A    between atoms: C_8  and  C_10
    2  A    between atoms: C_9  and  C_23
    3  A    between atoms: C_10  and  C_12
    4  A    between atoms: C_12  and  C_16
    5  A    between atoms: C_15  and  C_26
    6  A    between atoms: C_18  and  C_43
    7  A    between atoms: C_19  and  C_45
    8  A    between atoms: C_22  and  C_42
    9  A    between atoms: C_25  and  C_29
   10  A    between atoms: C_29  and  C_41
                            x       y       z     vdW  Elec       q    Type
                         _______ _______ _______ _____ _____    ______ ____

>  <TORSDO>
F 10

$$$$
=
 OpenBabel10232408023D

 46 51  0  0  1  0  0  0  0  0999 V2000
  183.3300  177.9800  141.8300 N   0  0  0  0  0  2  0  0  0  0  0  0
  185.3000  179.2460  141.2840 C   0  0  1  0  0  3  0  0  0  0  0  0
  184.3290  179.3630  139.7620 S   0  0  0  0  0  0  0  0  0  0  0  0
  184.7580  178.0870  142.0890 C   0  0  1  0  0  3  0  0  0  0  0  0
  183.1320  178.1440  140.3950 C   0  0  1  0  0  3  0  0  0  0  0  0
  183.2040  177.0070  138.1650 C   0  0  2  0  0  3  0  0  0  0  0  0
  184.4790  176.9510  137.5920 O   0  0  0  0  0  1  0  0  0  0  0  0
  181.4260  175.5820  138.8550 C   0  0  0  0  0  2  0  0  0  0  0  0
  183.2750  176.8040  139.6670 C   0  0  2  0  0  3  0  0  0  0  0  0
  182.1940  175.8960  140.0570 N   0  0  0  0  0  2  0  0  0  0  0  0
  182.2810  175.9180  137.6530 C   0  0  2  0  0  3  0  0  0  0  0  0
  183.6720  173.8790  137.9510 C   0  0  0  0  0  3  0  0  0  0  0  0
  184.3750  172.6350  137.4830 C   0  0  0  0  0  2  0  0  0  0  0  0
  182.9870  174.6870  137.1150 C   0  0  0  0  0  0  0  0  0  0  0  0
  182.7730  174.3140  135.6550 C   0  0  2  0  0  3  0  0  0  0  0  0
  183.6010  173.1110  135.1870 C   0  0  0  0  0  2  0  0  0  0  0  0
  183.6720  172.0430  136.2680 C   0  0  1  0  0  3  0  0  0  0  0  0
  184.4680  170.8600  135.7600 C   0  0  0  0  0  1  0  0  0  0  0  0
  183.0240  175.4770  134.7500 C   0  0  0  0  0  0  0  0  0  0  0  0
  182.0590  176.1810  134.3540 O   0  0  0  0  0  1  0  0  0  0  0  0
  184.3170  175.7910  134.3490 O   0  0  0  0  0  0  0  0  0  0  0  0
  186.7630  179.0080  140.9470 C   0  0  0  0  0  2  0  0  0  0  0  0
  186.8910  178.2250  139.6530 C   0  0  0  0  0  2  0  0  0  0  0  0
  188.3620  177.9840  139.3330 C   0  0  1  0  0  3  0  0  0  0  0  0
  187.6490  178.6150  136.8930 C   0  0  0  0  0  1  0  0  0  0  0  0
  188.7120  178.1900  137.9030 C   0  0  1  0  0  0  0  0  0  0  0  0
  188.9430  179.1850  138.8680 O   0  0  0  0  0  0  0  0  0  0  0  0
  191.4990  175.7480  136.1170 S   0  0  0  0  0  0  0  0  0  0  0  0
  191.8340  175.6260  137.9030 C   0  0  2  0  0  3  0  0  0  0  0  0
  191.0660  176.9990  138.8260 S   0  0  0  0  0  0  0  0  0  0  0  0
  190.0100  177.5280  137.4400 C   0  0  1  0  0  3  0  0  0  0  0  0
  189.8480  176.4230  136.4080 C   0  0  2  0  0  3  0  0  0  0  0  0
  193.3290  175.6170  138.1460 C   0  0  0  0  0  1  0  0  0  0  0  0
  188.9120  175.3100  136.8600 C   0  0  0  0  0  1  0  0  0  0  0  0
  184.9990  178.3420  143.5700 C   0  0  0  0  0  2  0  0  0  0  0  0
  186.8130  177.9440  145.3510 C   0  0  0  0  0  0  0  0  0  0  0  0
  188.3070  176.5640  143.3740 C   0  0  0  0  0  3  0  0  0  0  0  0
  187.0570  177.0820  143.0660 C   0  0  0  0  0  3  0  0  0  0  0  0
  186.3140  177.7790  144.0220 C   0  0  0  0  0  0  0  0  0  0  0  0
  188.8370  176.7520  144.6450 C   0  0  0  0  0  3  0  0  0  0  0  0
  188.1230  177.4410  145.6260 C   0  0  0  0  0  0  0  0  0  0  0  0
  188.8380  177.6390  146.9210 C   0  0  0  0  0  1  0  0  0  0  0  0
  186.7110  178.7720  147.7390 C   0  0  0  0  0  1  0  0  0  0  0  0
  185.6860  179.9990  146.0370 O   0  0  0  0  0  1  0  0  0  0  0  0
  185.9750  178.6880  146.4090 C   0  0  0  0  0  0  0  0  0  0  0  0
  184.6600  177.9630  146.6180 C   0  0  0  0  0  1  0  0  0  0  0  0
  1  4  1  0  0  0  0
  2 22  1  6  0  0  0
  2  4  1  0  0  0  0
  3  2  1  0  0  0  0
  4 35  1  1  0  0  0
  5  3  1  6  0  0  0
  5  1  1  0  0  0  0
  6  7  1  6  0  0  0
  6  9  1  0  0  0  0
  8 10  1  0  0  0  0
  9 10  1  1  0  0  0
  9  5  1  0  0  0  0
 11 14  1  1  0  0  0
 11  6  1  0  0  0  0
 11  8  1  0  0  0  0
 13 12  1  0  0  0  0
 14 12  2  0  0  0  0
 15 19  1  6  0  0  0
 15 14  1  0  0  0  0
 16 15  1  0  0  0  0
 16 17  1  0  0  0  0
 17 18  1  6  0  0  0
 17 13  1  0  0  0  0
 20 19  1  0  0  0  0
 21 19  2  0  0  0  0
 23 22  1  0  0  0  0
 24 23  1  6  0  0  0
 26 25  1  6  0  0  0
 26 27  1  0  0  0  0
 26 24  1  0  0  0  0
 27 24  1  0  0  0  0
 28 32  1  0  0  0  0
 28 29  1  0  0  0  0
 29 33  1  6  0  0  0
 29 30  1  0  0  0  0
 31 26  1  0  0  0  0
 31 30  1  1  0  0  0
 32 34  1  1  0  0  0
 32 31  1  0  0  0  0
 35 39  1  0  0  0  0
 36 41  1  0  0  0  0
 36 45  1  0  0  0  0
 37 40  1  0  0  0  0
 38 37  2  0  0  0  0
 38 39  1  0  0  0  0
 39 36  2  0  0  0  0
 40 41  2  0  0  0  0
 41 42  1  0  0  0  0
 44 45  1  0  0  0  0
 45 46  1  0  0  0  0
 45 43  1  0  0  0  0
M  END
>  <MODEL>
3

>  <REMARK>
 VINA RESULT:      -7.4      2.982      4.850
  Name = 
  10 active torsions:
  status: ('A' for Active; 'I' for Inactive)
    1  A    between atoms: C_8  and  C_10
    2  A    between atoms: C_9  and  C_23
    3  A    between atoms: C_10  and  C_12
    4  A    between atoms: C_12  and  C_16
    5  A    between atoms: C_15  and  C_26
    6  A    between atoms: C_18  and  C_43
    7  A    between atoms: C_19  and  C_45
    8  A    between atoms: C_22  and  C_42
    9  A    between atoms: C_25  and  C_29
   10  A    between atoms: C_29  and  C_41
                            x       y       z     vdW  Elec       q    Type
                         _______ _______ _______ _____ _____    ______ ____

>  <TORSDO>
F 10

$$$$
=
 OpenBabel10232408023D

 46 51  0  0  1  0  0  0  0  0999 V2000
  188.5650  178.9890  138.5870 N   0  0  0  0  0  2  0  0  0  0  0  0
  190.0230  177.0920  138.3400 C   0  0  1  0  0  3  0  0  0  0  0  0
  189.8170  177.6480  136.6300 S   0  0  0  0  0  0  0  0  0  0  0  0
  188.9050  177.6940  139.1580 C   0  0  1  0  0  3  0  0  0  0  0  0
  188.5250  178.8300  137.1370 C   0  0  1  0  0  3  0  0  0  0  0  0
  186.2000  178.2470  137.8630 C   0  0  2  0  0  3  0  0  0  0  0  0
  185.3270  179.3380  137.9150 O   0  0  0  0  0  1  0  0  0  0  0  0
  186.4320  176.1160  136.8270 C   0  0  0  0  0  2  0  0  0  0  0  0
  187.1420  178.3620  136.6780 C   0  0  2  0  0  3  0  0  0  0  0  0
  187.2350  177.0470  136.0400 N   0  0  0  0  0  2  0  0  0  0  0  0
  185.4800  176.9250  137.6810 C   0  0  2  0  0  3  0  0  0  0  0  0
  184.0040  177.2800  135.7110 C   0  0  0  0  0  3  0  0  0  0  0  0
  182.6790  177.3760  135.0090 C   0  0  0  0  0  2  0  0  0  0  0  0
  184.1110  177.0320  137.0330 C   0  0  0  0  0  0  0  0  0  0  0  0
  182.8880  176.7010  137.8760 C   0  0  2  0  0  3  0  0  0  0  0  0
  181.5510  176.9280  137.1590 C   0  0  0  0  0  2  0  0  0  0  0  0
  181.6370  176.5070  135.7000 C   0  0  1  0  0  3  0  0  0  0  0  0
  180.2940  176.7140  135.0340 C   0  0  0  0  0  1  0  0  0  0  0  0
  182.8960  177.4510  139.1700 C   0  0  0  0  0  0  0  0  0  0  0  0
  183.2190  176.8610  140.2330 O   0  0  0  0  0  1  0  0  0  0  0  0
  182.5560  178.7980  139.2050 O   0  0  0  0  0  0  0  0  0  0  0  0
  189.9560  175.5750  138.4000 C   0  0  0  0  0  2  0  0  0  0  0  0
  190.7930  174.9590  137.2950 C   0  0  0  0  0  2  0  0  0  0  0  0
  192.2370  174.8020  137.7590 C   0  0  1  0  0  3  0  0  0  0  0  0
  192.6270  173.8910  135.3350 C   0  0  0  0  0  1  0  0  0  0  0  0
  193.1480  174.2440  136.7260 C   0  0  1  0  0  0  0  0  0  0  0  0
  193.0740  175.6260  136.9760 O   0  0  0  0  0  0  0  0  0  0  0  0
  197.0840  173.5080  137.6640 S   0  0  0  0  0  0  0  0  0  0  0  0
  196.5340  172.0410  136.7370 C   0  0  2  0  0  3  0  0  0  0  0  0
  194.7140  171.9300  136.6720 S   0  0  0  0  0  0  0  0  0  0  0  0
  194.4480  173.6360  137.2510 C   0  0  1  0  0  3  0  0  0  0  0  0
  195.6920  174.4900  137.0620 C   0  0  2  0  0  3  0  0  0  0  0  0
  197.1020  170.7880  137.3720 C   0  0  0  0  0  1  0  0  0  0  0  0
  195.9350  174.8870  135.6130 C   0  0  0  0  0  1  0  0  0  0  0  0
  189.3680  177.8680  140.5980 C   0  0  0  0  0  2  0  0  0  0  0  0
  188.2850  177.6430  142.9210 C   0  0  0  0  0  0  0  0  0  0  0  0
  185.8760  178.6130  141.7790 C   0  0  0  0  0  3  0  0  0  0  0  0
  187.0180  178.4960  140.9990 C   0  0  0  0  0  3  0  0  0  0  0  0
  188.2090  178.0040  141.5400 C   0  0  0  0  0  0  0  0  0  0  0  0
  185.9090  178.2240  143.1130 C   0  0  0  0  0  3  0  0  0  0  0  0
  187.0810  177.7310  143.6880 C   0  0  0  0  0  0  0  0  0  0  0  0
  186.9590  177.2770  145.1040 C   0  0  0  0  0  1  0  0  0  0  0  0
  190.7280  178.1450  143.3390 C   0  0  0  0  0  1  0  0  0  0  0  0
  189.5180  176.8830  144.8870 O   0  0  0  0  0  1  0  0  0  0  0  0
  189.6090  177.1300  143.5190 C   0  0  0  0  0  0  0  0  0  0  0  0
  190.0040  175.8330  142.8380 C   0  0  0  0  0  1  0  0  0  0  0  0
  1  4  1  0  0  0  0
  2 22  1  6  0  0  0
  2  4  1  0  0  0  0
  3  2  1  0  0  0  0
  4 35  1  1  0  0  0
  5  3  1  1  0  0  0
  5  1  1  0  0  0  0
  6  7  1  6  0  0  0
  8 11  1  0  0  0  0
  9 10  1  1  0  0  0
  9  5  1  0  0  0  0
  9  6  1  0  0  0  0
 10  8  1  0  0  0  0
 11 14  1  6  0  0  0
 11  6  1  0  0  0  0
 12 14  2  0  0  0  0
 13 17  1  0  0  0  0
 13 12  1  0  0  0  0
 14 15  1  0  0  0  0
 15 19  1  1  0  0  0
 16 15  1  0  0  0  0
 17 18  1  6  0  0  0
 17 16  1  0  0  0  0
 19 21  2  0  0  0  0
 19 20  1  0  0  0  0
 23 22  1  0  0  0  0
 24 23  1  6  0  0  0
 26 25  1  6  0  0  0
 26 27  1  0  0  0  0
 26 31  1  0  0  0  0
 26 24  1  0  0  0  0
 27 24  1  0  0  0  0
 29 33  1  1  0  0  0
 29 28  1  0  0  0  0
 30 29  1  0  0  0  0
 31 30  1  6  0  0  0
 32 34  1  6  0  0  0
 32 31  1  0  0  0  0
 32 28  1  0  0  0  0
 35 39  1  0  0  0  0
 36 45  1  0  0  0  0
 36 41  1  0  0  0  0
 37 40  1  0  0  0  0
 38 39  1  0  0  0  0
 38 37  2  0  0  0  0
 39 36  2  0  0  0  0
 40 41  2  0  0  0  0
 41 42  1  0  0  0  0
 43 45  1  0  0  0  0
 45 44  1  0  0  0  0
 46 45  1  0  0  0  0
M  END
>  <MODEL>
4

>  <REMARK>
 VINA RESULT:      -7.3      2.630      3.479
  Name = 
  10 active torsions:
  status: ('A' for Active; 'I' for Inactive)
    1  A    between atoms: C_8  and  C_10
    2  A    between atoms: C_9  and  C_23
    3  A    between atoms: C_10  and  C_12
    4  A    between atoms: C_12  and  C_16
    5  A    between atoms: C_15  and  C_26
    6  A    between atoms: C_18  and  C_43
    7  A    between atoms: C_19  and  C_45
    8  A    between atoms: C_22  and  C_42
    9  A    between atoms: C_25  and  C_29
   10  A    between atoms: C_29  and  C_41
                            x       y       z     vdW  Elec       q    Type
                         _______ _______ _______ _____ _____    ______ ____

>  <TORSDO>
F 10

$$$$
=
 OpenBabel10232408023D

 46 51  0  0  1  0  0  0  0  0999 V2000
  185.9660  178.8020  138.8760 N   0  0  0  0  0  2  0  0  0  0  0  0
  187.9480  178.3550  140.1610 C   0  0  1  0  0  3  0  0  0  0  0  0
  188.5140  178.0730  138.4650 S   0  0  0  0  0  0  0  0  0  0  0  0
  186.4380  178.3030  140.1590 C   0  0  1  0  0  3  0  0  0  0  0  0
  186.8070  178.2130  137.8400 C   0  0  1  0  0  3  0  0  0  0  0  0
  187.3560  176.0340  136.7360 C   0  0  2  0  0  3  0  0  0  0  0  0
  187.8640  175.0640  137.6060 O   0  0  0  0  0  1  0  0  0  0  0  0
  185.5700  176.3840  135.2010 C   0  0  0  0  0  2  0  0  0  0  0  0
  186.2660  176.8480  137.4090 C   0  0  2  0  0  3  0  0  0  0  0  0
  185.1670  177.0150  136.4550 N   0  0  0  0  0  2  0  0  0  0  0  0
  186.7110  175.4360  135.5000 C   0  0  2  0  0  3  0  0  0  0  0  0
  185.1030  173.7590  136.3860 C   0  0  0  0  0  3  0  0  0  0  0  0
  184.5530  172.3740  136.5710 C   0  0  0  0  0  2  0  0  0  0  0  0
  186.2170  174.0110  135.6680 C   0  0  0  0  0  0  0  0  0  0  0  0
  186.9180  172.9090  134.8850 C   0  0  2  0  0  3  0  0  0  0  0  0
  186.4050  171.4970  135.1940 C   0  0  0  0  0  2  0  0  0  0  0  0
  184.8950  171.4930  135.3770 C   0  0  1  0  0  3  0  0  0  0  0  0
  184.4220  170.0810  135.6460 C   0  0  0  0  0  1  0  0  0  0  0  0
  188.4000  172.9580  135.0790 C   0  0  0  0  0  0  0  0  0  0  0  0
  188.9490  172.1780  135.8990 O   0  0  0  0  0  1  0  0  0  0  0  0
  189.1750  173.8540  134.3530 O   0  0  0  0  0  0  0  0  0  0  0  0
  188.5060  177.2770  141.0770 C   0  0  0  0  0  2  0  0  0  0  0  0
  189.9920  177.4860  141.3030 C   0  0  0  0  0  2  0  0  0  0  0  0
  190.2320  178.0610  142.6940 C   0  0  1  0  0  3  0  0  0  0  0  0
  190.6390  175.5600  143.3550 C   0  0  0  0  0  1  0  0  0  0  0  0
  190.5560  177.0390  143.7240 C   0  0  1  0  0  0  0  0  0  0  0  0
  191.5610  177.7910  143.0900 O   0  0  0  0  0  0  0  0  0  0  0  0
  190.9030  177.6030  147.7830 S   0  0  0  0  0  0  0  0  0  0  0  0
  189.2480  176.8850  147.5420 C   0  0  2  0  0  3  0  0  0  0  0  0
  188.6960  177.0320  145.8090 S   0  0  0  0  0  0  0  0  0  0  0  0
  190.3450  177.4730  145.1740 C   0  0  1  0  0  3  0  0  0  0  0  0
  191.4440  177.0680  146.1440 C   0  0  2  0  0  3  0  0  0  0  0  0
  188.2520  177.5680  148.4570 C   0  0  0  0  0  1  0  0  0  0  0  0
  191.7120  175.5690  146.1570 C   0  0  0  0  0  1  0  0  0  0  0  0
  185.9000  179.1740  141.2850 C   0  0  0  0  0  2  0  0  0  0  0  0
  183.7750  178.9310  142.7150 C   0  0  0  0  0  0  0  0  0  0  0  0
  182.2920  178.7700  140.3020 C   0  0  0  0  0  3  0  0  0  0  0  0
  183.6670  178.9580  140.2630 C   0  0  0  0  0  3  0  0  0  0  0  0
  184.4160  179.0220  141.4410 C   0  0  0  0  0  0  0  0  0  0  0  0
  181.6500  178.6300  141.5270 C   0  0  0  0  0  3  0  0  0  0  0  0
  182.3650  178.6920  142.7230 C   0  0  0  0  0  0  0  0  0  0  0  0
  181.5670  178.4480  143.9610 C   0  0  0  0  0  1  0  0  0  0  0  0
  185.7190  177.9980  144.0360 C   0  0  0  0  0  1  0  0  0  0  0  0
  185.2140  180.2750  144.1580 O   0  0  0  0  0  1  0  0  0  0  0  0
  184.6020  179.0320  144.0110 C   0  0  0  0  0  0  0  0  0  0  0  0
  183.7000  178.8140  145.2090 C   0  0  0  0  0  1  0  0  0  0  0  0
  1  4  1  0  0  0  0
  2 22  1  1  0  0  0
  3  2  1  0  0  0  0
  4  2  1  0  0  0  0
  4 35  1  1  0  0  0
  5  3  1  1  0  0  0
  5  1  1  0  0  0  0
  6  9  1  0  0  0  0
  6  7  1  1  0  0  0
  8 11  1  0  0  0  0
  8 10  1  0  0  0  0
  9 10  1  6  0  0  0
  9  5  1  0  0  0  0
 11 14  1  1  0  0  0
 11  6  1  0  0  0  0
 12 13  1  0  0  0  0
 14 12  2  0  0  0  0
 15 19  1  1  0  0  0
 15 16  1  0  0  0  0
 15 14  1  0  0  0  0
 16 17  1  0  0  0  0
 17 18  1  1  0  0  0
 17 13  1  0  0  0  0
 19 20  1  0  0  0  0
 21 19  2  0  0  0  0
 22 23  1  0  0  0  0
 24 23  1  6  0  0  0
 24 27  1  0  0  0  0
 24 26  1  0  0  0  0
 26 25  1  6  0  0  0
 26 31  1  0  0  0  0
 27 26  1  0  0  0  0
 29 28  1  0  0  0  0
 29 33  1  1  0  0  0
 30 29  1  0  0  0  0
 31 30  1  1  0  0  0
 31 32  1  0  0  0  0
 32 34  1  1  0  0  0
 32 28  1  0  0  0  0
 35 39  1  0  0  0  0
 36 41  1  0  0  0  0
 36 45  1  0  0  0  0
 37 40  1  0  0  0  0
 38 37  2  0  0  0  0
 38 39  1  0  0  0  0
 39 36  2  0  0  0  0
 40 41  2  0  0  0  0
 41 42  1  0  0  0  0
 45 43  1  0  0  0  0
 45 44  1  0  0  0  0
 45 46  1  0  0  0  0
M  END
>  <MODEL>
5

>  <REMARK>
 VINA RESULT:      -7.0      3.729      5.863
  Name = 
  10 active torsions:
  status: ('A' for Active; 'I' for Inactive)
    1  A    between atoms: C_8  and  C_10
    2  A    between atoms: C_9  and  C_23
    3  A    between atoms: C_10  and  C_12
    4  A    between atoms: C_12  and  C_16
    5  A    between atoms: C_15  and  C_26
    6  A    between atoms: C_18  and  C_43
    7  A    between atoms: C_19  and  C_45
    8  A    between atoms: C_22  and  C_42
    9  A    between atoms: C_25  and  C_29
   10  A    between atoms: C_29  and  C_41
                            x       y       z     vdW  Elec       q    Type
                         _______ _______ _______ _____ _____    ______ ____

>  <TORSDO>
F 10

$$$$
=
 OpenBabel10232408023D

 46 51  0  0  1  0  0  0  0  0999 V2000
  186.1270  177.8510  142.9950 N   0  0  0  0  0  2  0  0  0  0  0  0
  188.3230  178.1080  142.0500 C   0  0  1  0  0  3  0  0  0  0  0  0
  187.4250  179.5050  141.3320 S   0  0  0  0  0  0  0  0  0  0  0  0
  187.3020  177.1150  142.5540 C   0  0  1  0  0  3  0  0  0  0  0  0
  185.8490  178.8720  141.9920 C   0  0  1  0  0  3  0  0  0  0  0  0
  184.5980  179.4080  139.8900 C   0  0  2  0  0  3  0  0  0  0  0  0
  185.3690  179.3200  138.7270 O   0  0  0  0  0  1  0  0  0  0  0  0
  182.6170  178.5160  140.8640 C   0  0  0  0  0  2  0  0  0  0  0  0
  184.9690  178.3120  140.8720 C   0  0  2  0  0  3  0  0  0  0  0  0
  183.7320  177.7580  141.4260 N   0  0  0  0  0  2  0  0  0  0  0  0
  183.1150  179.2320  139.6270 C   0  0  2  0  0  3  0  0  0  0  0  0
  183.6010  177.4730  137.9380 C   0  0  0  0  0  3  0  0  0  0  0  0
  183.3150  176.6550  136.7110 C   0  0  0  0  0  2  0  0  0  0  0  0
  182.7810  178.4550  138.3670 C   0  0  0  0  0  0  0  0  0  0  0  0
  181.4370  178.7080  137.7000 C   0  0  2  0  0  3  0  0  0  0  0  0
  181.2340  177.9440  136.3860 C   0  0  0  0  0  2  0  0  0  0  0  0
  181.8150  176.5410  136.4760 C   0  0  1  0  0  3  0  0  0  0  0  0
  181.5690  175.8070  135.1750 C   0  0  0  0  0  1  0  0  0  0  0  0
  181.2050  180.1680  137.4710 C   0  0  0  0  0  0  0  0  0  0  0  0
  181.1930  180.9600  138.4490 O   0  0  0  0  0  1  0  0  0  0  0  0
  181.0110  180.6570  136.1850 O   0  0  0  0  0  0  0  0  0  0  0  0
  189.2020  177.4610  140.9920 C   0  0  0  0  0  2  0  0  0  0  0  0
  188.7710  177.8940  139.6030 C   0  0  0  0  0  2  0  0  0  0  0  0
  189.8240  177.4860  138.5790 C   0  0  1  0  0  3  0  0  0  0  0  0
  187.8190  176.2800  137.4040 C   0  0  0  0  0  1  0  0  0  0  0  0
  189.2970  176.6530  137.4670 C   0  0  1  0  0  0  0  0  0  0  0  0
  189.4940  178.0370  137.3210 O   0  0  0  0  0  0  0  0  0  0  0  0
  191.7440  175.0910  134.5520 S   0  0  0  0  0  0  0  0  0  0  0  0
  190.8330  173.6650  135.2220 C   0  0  2  0  0  3  0  0  0  0  0  0
  190.0870  174.0450  136.8440 S   0  0  0  0  0  0  0  0  0  0  0  0
  190.3410  175.8420  136.6980 C   0  0  1  0  0  3  0  0  0  0  0  0
  190.5570  176.2600  135.2510 C   0  0  2  0  0  3  0  0  0  0  0  0
  191.7630  172.4760  135.3510 C   0  0  0  0  0  1  0  0  0  0  0  0
  189.2790  176.2480  134.4240 C   0  0  0  0  0  1  0  0  0  0  0  0
  187.8910  176.3310  143.7190 C   0  0  0  0  0  2  0  0  0  0  0  0
  188.7760  177.4460  145.8630 C   0  0  0  0  0  0  0  0  0  0  0  0
  186.0810  177.9100  146.6130 C   0  0  0  0  0  3  0  0  0  0  0  0
  186.3700  177.2970  145.4020 C   0  0  0  0  0  3  0  0  0  0  0  0
  187.6910  177.0450  145.0230 C   0  0  0  0  0  0  0  0  0  0  0  0
  187.1150  178.2650  147.4700 C   0  0  0  0  0  3  0  0  0  0  0  0
  188.4460  178.0320  147.1250 C   0  0  0  0  0  0  0  0  0  0  0  0
  189.4530  178.3910  148.1670 C   0  0  0  0  0  1  0  0  0  0  0  0
  191.0880  176.7270  146.5960 C   0  0  0  0  0  1  0  0  0  0  0  0
  190.3320  176.2030  144.4490 O   0  0  0  0  0  1  0  0  0  0  0  0
  190.2320  177.1910  145.4260 C   0  0  0  0  0  0  0  0  0  0  0  0
  190.8220  178.4680  144.8590 C   0  0  0  0  0  1  0  0  0  0  0  0
  2 22  1  6  0  0  0
  2  4  1  0  0  0  0
  3  2  1  0  0  0  0
  4  1  1  0  0  0  0
  4 35  1  1  0  0  0
  5  3  1  6  0  0  0
  5  1  1  0  0  0  0
  6  7  1  6  0  0  0
  6  9  1  0  0  0  0
  8 10  1  0  0  0  0
  9 10  1  1  0  0  0
  9  5  1  0  0  0  0
 11 14  1  6  0  0  0
 11  6  1  0  0  0  0
 11  8  1  0  0  0  0
 12 14  2  0  0  0  0
 13 12  1  0  0  0  0
 15 19  1  6  0  0  0
 15 14  1  0  0  0  0
 16 17  1  0  0  0  0
 16 15  1  0  0  0  0
 17 18  1  6  0  0  0
 17 13  1  0  0  0  0
 19 20  1  0  0  0  0
 21 19  2  0  0  0  0
 23 22  1  0  0  0  0
 24 23  1  1  0  0  0
 26 25  1  1  0  0  0
 26 24  1  0  0  0  0
 27 26  1  0  0  0  0
 27 24  1  0  0  0  0
 28 29  1  0  0  0  0
 28 32  1  0  0  0  0
 29 33  1  1  0  0  0
 29 30  1  0  0  0  0
 31 30  1  6  0  0  0
 31 26  1  0  0  0  0
 32 34  1  6  0  0  0
 32 31  1  0  0  0  0
 35 39  1  0  0  0  0
 36 41  1  0  0  0  0
 37 40  1  0  0  0  0
 38 37  2  0  0  0  0
 39 38  1  0  0  0  0
 39 36  2  0  0  0  0
 41 40  2  0  0  0  0
 41 42  1  0  0  0  0
 44 45  1  0  0  0  0
 45 36  1  0  0  0  0
 45 43  1  0  0  0  0
 46 45  1  0  0  0  0
M  END
>  <MODEL>
6

>  <REMARK>
 VINA RESULT:      -6.9      3.642      5.603
  Name = 
  10 active torsions:
  status: ('A' for Active; 'I' for Inactive)
    1  A    between atoms: C_8  and  C_10
    2  A    between atoms: C_9  and  C_23
    3  A    between atoms: C_10  and  C_12
    4  A    between atoms: C_12  and  C_16
    5  A    between atoms: C_15  and  C_26
    6  A    between atoms: C_18  and  C_43
    7  A    between atoms: C_19  and  C_45
    8  A    between atoms: C_22  and  C_42
    9  A    between atoms: C_25  and  C_29
   10  A    between atoms: C_29  and  C_41
                            x       y       z     vdW  Elec       q    Type
                         _______ _______ _______ _____ _____    ______ ____

>  <TORSDO>
F 10

$$$$
=
 OpenBabel10232408023D

 46 51  0  0  1  0  0  0  0  0999 V2000
  188.1590  178.6980  139.1260 N   0  0  0  0  0  2  0  0  0  0  0  0
  190.2440  177.5240  138.8880 C   0  0  1  0  0  3  0  0  0  0  0  0
  189.6180  177.5490  137.1910 S   0  0  0  0  0  0  0  0  0  0  0  0
  189.0840  177.8080  139.8130 C   0  0  1  0  0  3  0  0  0  0  0  0
  188.0170  178.2110  137.7590 C   0  0  1  0  0  3  0  0  0  0  0  0
  186.5140  176.9230  136.2250 C   0  0  2  0  0  3  0  0  0  0  0  0
  187.0800  175.7470  135.7230 O   0  0  0  0  0  1  0  0  0  0  0  0
  184.6290  177.6790  137.4680 C   0  0  0  0  0  2  0  0  0  0  0  0
  186.9200  177.1470  137.6710 C   0  0  2  0  0  3  0  0  0  0  0  0
  185.7350  177.5750  138.4170 N   0  0  0  0  0  2  0  0  0  0  0  0
  184.9980  176.8890  136.2310 C   0  0  2  0  0  3  0  0  0  0  0  0
  185.1760  174.4130  136.0820 C   0  0  0  0  0  3  0  0  0  0  0  0
  184.6410  173.0100  136.1230 C   0  0  0  0  0  2  0  0  0  0  0  0
  184.3930  175.4970  136.2650 C   0  0  0  0  0  0  0  0  0  0  0  0
  182.9300  175.3570  136.6580 C   0  0  2  0  0  3  0  0  0  0  0  0
  182.3910  173.9230  136.5720 C   0  0  0  0  0  2  0  0  0  0  0  0
  183.4320  172.9200  137.0450 C   0  0  1  0  0  3  0  0  0  0  0  0
  182.8560  171.5220  136.9770 C   0  0  0  0  0  1  0  0  0  0  0  0
  182.0570  176.2690  135.8570 C   0  0  0  0  0  0  0  0  0  0  0  0
  182.1200  176.2500  134.6010 O   0  0  0  0  0  0  0  0  0  0  0  0
  181.1720  177.1320  136.4900 O   0  0  0  0  0  1  0  0  0  0  0  0
  190.8370  176.1600  139.1990 C   0  0  0  0  0  2  0  0  0  0  0  0
  191.3400  175.4950  137.9310 C   0  0  0  0  0  2  0  0  0  0  0  0
  192.8340  175.7520  137.7650 C   0  0  1  0  0  3  0  0  0  0  0  0
  192.7050  173.7650  136.0640 C   0  0  0  0  0  1  0  0  0  0  0  0
  193.5020  174.8380  136.8010 C   0  0  1  0  0  0  0  0  0  0  0  0
  193.0990  176.1330  136.4320 O   0  0  0  0  0  0  0  0  0  0  0  0
  197.5630  175.0460  136.1860 S   0  0  0  0  0  0  0  0  0  0  0  0
  197.2090  173.2770  136.4280 C   0  0  2  0  0  3  0  0  0  0  0  0
  195.5820  173.0180  137.2130 S   0  0  0  0  0  0  0  0  0  0  0  0
  195.0200  174.7290  136.9400 C   0  0  1  0  0  3  0  0  0  0  0  0
  195.8270  175.4140  135.8470 C   0  0  2  0  0  3  0  0  0  0  0  0
  198.2940  172.6460  137.2760 C   0  0  0  0  0  1  0  0  0  0  0  0
  195.4670  174.9390  134.4460 C   0  0  0  0  0  1  0  0  0  0  0  0
  189.5980  178.4740  141.0820 C   0  0  0  0  0  2  0  0  0  0  0  0
  189.3390  177.8100  143.5550 C   0  0  0  0  0  0  0  0  0  0  0  0
  186.5410  177.6560  143.1150 C   0  0  0  0  0  3  0  0  0  0  0  0
  187.3880  178.0370  142.0830 C   0  0  0  0  0  3  0  0  0  0  0  0
  188.7700  178.1020  142.2760 C   0  0  0  0  0  0  0  0  0  0  0  0
  187.0720  177.3200  144.3540 C   0  0  0  0  0  3  0  0  0  0  0  0
  188.4470  177.3750  144.5840 C   0  0  0  0  0  0  0  0  0  0  0  0
  188.8910  176.9140  145.9330 C   0  0  0  0  0  1  0  0  0  0  0  0
  191.3220  177.0110  144.9060 C   0  0  0  0  0  1  0  0  0  0  0  0
  191.5870  177.5270  142.6440 O   0  0  0  0  0  1  0  0  0  0  0  0
  190.8610  177.9120  143.7690 C   0  0  0  0  0  0  0  0  0  0  0  0
  191.2330  179.3460  144.0950 C   0  0  0  0  0  1  0  0  0  0  0  0
  1  4  1  0  0  0  0
  2 22  1  1  0  0  0
  2  4  1  0  0  0  0
  3  2  1  0  0  0  0
  4 35  1  1  0  0  0
  5  3  1  1  0  0  0
  5  1  1  0  0  0  0
  6  7  1  1  0  0  0
  6 11  1  0  0  0  0
  6  9  1  0  0  0  0
  8 10  1  0  0  0  0
  9  5  1  0  0  0  0
  9 10  1  1  0  0  0
 11 14  1  1  0  0  0
 11  8  1  0  0  0  0
 12 13  1  0  0  0  0
 12 14  2  0  0  0  0
 13 17  1  0  0  0  0
 14 15  1  0  0  0  0
 15 19  1  6  0  0  0
 16 15  1  0  0  0  0
 16 17  1  0  0  0  0
 17 18  1  6  0  0  0
 19 21  1  0  0  0  0
 20 19  2  0  0  0  0
 23 22  1  0  0  0  0
 24 23  1  6  0  0  0
 26 25  1  6  0  0  0
 26 31  1  0  0  0  0
 26 24  1  0  0  0  0
 27 26  1  0  0  0  0
 27 24  1  0  0  0  0
 28 29  1  0  0  0  0
 29 30  1  0  0  0  0
 29 33  1  1  0  0  0
 31 30  1  6  0  0  0
 32 34  1  6  0  0  0
 32 28  1  0  0  0  0
 32 31  1  0  0  0  0
 35 39  1  0  0  0  0
 36 45  1  0  0  0  0
 36 41  1  0  0  0  0
 37 40  1  0  0  0  0
 38 39  1  0  0  0  0
 38 37  2  0  0  0  0
 39 36  2  0  0  0  0
 40 41  2  0  0  0  0
 41 42  1  0  0  0  0
 44 45  1  0  0  0  0
 45 46  1  0  0  0  0
 45 43  1  0  0  0  0
M  END
>  <MODEL>
7

>  <REMARK>
 VINA RESULT:      -6.8      1.926      2.650
  Name = 
  10 active torsions:
  status: ('A' for Active; 'I' for Inactive)
    1  A    between atoms: C_8  and  C_10
    2  A    between atoms: C_9  and  C_23
    3  A    between atoms: C_10  and  C_12
    4  A    between atoms: C_12  and  C_16
    5  A    between atoms: C_15  and  C_26
    6  A    between atoms: C_18  and  C_43
    7  A    between atoms: C_19  and  C_45
    8  A    between atoms: C_22  and  C_42
    9  A    between atoms: C_25  and  C_29
   10  A    between atoms: C_29  and  C_41
                            x       y       z     vdW  Elec       q    Type
                         _______ _______ _______ _____ _____    ______ ____

>  <TORSDO>
F 10

$$$$
=
 OpenBabel10232408023D

 46 51  0  0  1  0  0  0  0  0999 V2000
  185.1770  179.4240  138.4270 N   0  0  0  0  0  2  0  0  0  0  0  0
  183.7550  177.6070  137.7470 C   0  0  1  0  0  3  0  0  0  0  0  0
  182.6050  178.6910  138.6290 S   0  0  0  0  0  0  0  0  0  0  0  0
  185.1580  177.9940  138.1550 C   0  0  1  0  0  3  0  0  0  0  0  0
  183.9820  179.7370  139.2030 C   0  0  1  0  0  3  0  0  0  0  0  0
  185.5370  178.7880  140.9210 C   0  0  2  0  0  3  0  0  0  0  0  0
  186.5570  179.6600  141.3140 O   0  0  0  0  0  1  0  0  0  0  0  0
  183.7330  177.5280  141.8300 C   0  0  0  0  0  2  0  0  0  0  0  0
  184.2370  179.5380  140.7000 C   0  0  2  0  0  3  0  0  0  0  0  0
  183.1520  178.7590  141.3000 N   0  0  0  0  0  2  0  0  0  0  0  0
  185.2250  177.7370  141.9700 C   0  0  2  0  0  3  0  0  0  0  0  0
  184.9380  179.1210  144.0150 C   0  0  0  0  0  3  0  0  0  0  0  0
  185.2470  179.5380  145.4260 C   0  0  0  0  0  2  0  0  0  0  0  0
  185.5990  178.1250  143.3890 C   0  0  0  0  0  0  0  0  0  0  0  0
  186.6180  177.2680  144.1250 C   0  0  2  0  0  3  0  0  0  0  0  0
  186.9950  177.7960  145.5150 C   0  0  0  0  0  2  0  0  0  0  0  0
  185.7780  178.3610  146.2320 C   0  0  1  0  0  3  0  0  0  0  0  0
  186.1800  178.8410  147.6100 C   0  0  0  0  0  1  0  0  0  0  0  0
  187.8570  177.0710  143.3110 C   0  0  0  0  0  0  0  0  0  0  0  0
  188.2030  175.9100  142.9720 O   0  0  0  0  0  1  0  0  0  0  0  0
  188.6250  178.1620  142.9220 O   0  0  0  0  0  0  0  0  0  0  0  0
  183.4850  176.1580  138.1180 C   0  0  0  0  0  2  0  0  0  0  0  0
  182.4830  175.5410  137.1600 C   0  0  0  0  0  2  0  0  0  0  0  0
  183.0330  174.2340  136.6000 C   0  0  1  0  0  3  0  0  0  0  0  0
  181.1400  174.5240  134.8130 C   0  0  0  0  0  1  0  0  0  0  0  0
  182.3130  173.7400  135.3970 C   0  0  1  0  0  0  0  0  0  0  0  0
  183.5200  174.4520  135.2930 O   0  0  0  0  0  0  0  0  0  0  0  0
  181.8060  169.6750  135.0310 S   0  0  0  0  0  0  0  0  0  0  0  0
  183.3610  169.8790  135.9560 C   0  0  2  0  0  3  0  0  0  0  0  0
  184.0290  171.5680  135.7840 S   0  0  0  0  0  0  0  0  0  0  0  0
  182.4950  172.2550  135.0830 C   0  0  1  0  0  3  0  0  0  0  0  0
  181.2960  171.3710  135.3880 C   0  0  2  0  0  3  0  0  0  0  0  0
  184.3830  168.8710  135.4710 C   0  0  0  0  0  1  0  0  0  0  0  0
  180.8280  171.4710  136.8340 C   0  0  0  0  0  1  0  0  0  0  0  0
  186.1220  177.6690  137.0230 C   0  0  0  0  0  2  0  0  0  0  0  0
  188.2450  176.2240  137.1870 C   0  0  0  0  0  0  0  0  0  0  0  0
  189.3060  178.1650  138.9630 C   0  0  0  0  0  3  0  0  0  0  0  0
  188.0510  178.3500  138.3990 C   0  0  0  0  0  3  0  0  0  0  0  0
  187.5050  177.3970  137.5350 C   0  0  0  0  0  0  0  0  0  0  0  0
  190.0260  177.0110  138.6790 C   0  0  0  0  0  3  0  0  0  0  0  0
  189.5140  176.0390  137.8190 C   0  0  0  0  0  0  0  0  0  0  0  0
  190.3540  174.8150  137.6620 C   0  0  0  0  0  1  0  0  0  0  0  0
  186.8390  175.8680  135.1150 C   0  0  0  0  0  1  0  0  0  0  0  0
  188.6290  174.4380  135.5670 O   0  0  0  0  0  1  0  0  0  0  0  0
  187.6500  175.1910  136.2110 C   0  0  0  0  0  0  0  0  0  0  0  0
  186.7510  174.2340  136.9700 C   0  0  0  0  0  1  0  0  0  0  0  0
  2 22  1  1  0  0  0
  2  4  1  0  0  0  0
  2  3  1  0  0  0  0
  3  5  1  0  0  0  0
  4 35  1  6  0  0  0
  4  1  1  0  0  0  0
  5  1  1  6  0  0  0
  5  9  1  0  0  0  0
  6  7  1  1  0  0  0
  6 11  1  0  0  0  0
  8 11  1  0  0  0  0
  9  6  1  0  0  0  0
  9 10  1  6  0  0  0
 10  8  1  0  0  0  0
 11 14  1  1  0  0  0
 12 13  1  0  0  0  0
 13 17  1  0  0  0  0
 14 12  2  0  0  0  0
 14 15  1  0  0  0  0
 15 19  1  6  0  0  0
 15 16  1  0  0  0  0
 16 17  1  0  0  0  0
 17 18  1  1  0  0  0
 20 19  1  0  0  0  0
 21 19  2  0  0  0  0
 23 22  1  0  0  0  0
 24 23  1  6  0  0  0
 26 25  1  6  0  0  0
 26 24  1  0  0  0  0
 27 26  1  0  0  0  0
 27 24  1  0  0  0  0
 28 32  1  0  0  0  0
 28 29  1  0  0  0  0
 29 33  1  6  0  0  0
 30 29  1  0  0  0  0
 31 32  1  0  0  0  0
 31 26  1  0  0  0  0
 31 30  1  1  0  0  0
 32 34  1  1  0  0  0
 35 39  1  0  0  0  0
 36 39  2  0  0  0  0
 36 41  1  0  0  0  0
 38 37  2  0  0  0  0
 39 38  1  0  0  0  0
 40 37  1  0  0  0  0
 41 40  2  0  0  0  0
 42 41  1  0  0  0  0
 43 45  1  0  0  0  0
 44 45  1  0  0  0  0
 45 46  1  0  0  0  0
 45 36  1  0  0  0  0
M  END
>  <MODEL>
8

>  <REMARK>
 VINA RESULT:      -6.8      3.954      9.360
  Name = 
  10 active torsions:
  status: ('A' for Active; 'I' for Inactive)
    1  A    between atoms: C_8  and  C_10
    2  A    between atoms: C_9  and  C_23
    3  A    between atoms: C_10  and  C_12
    4  A    between atoms: C_12  and  C_16
    5  A    between atoms: C_15  and  C_26
    6  A    between atoms: C_18  and  C_43
    7  A    between atoms: C_19  and  C_45
    8  A    between atoms: C_22  and  C_42
    9  A    between atoms: C_25  and  C_29
   10  A    between atoms: C_29  and  C_41
                            x       y       z     vdW  Elec       q    Type
                         _______ _______ _______ _____ _____    ______ ____

>  <TORSDO>
F 10

$$$$
=
 OpenBabel10232408023D

 46 51  0  0  1  0  0  0  0  0999 V2000
  188.0720  178.4020  141.4060 N   0  0  0  0  0  2  0  0  0  0  0  0
  189.7920  177.5440  139.9610 C   0  0  1  0  0  3  0  0  0  0  0  0
  188.9270  178.7120  138.8830 S   0  0  0  0  0  0  0  0  0  0  0  0
  188.8790  177.2250  141.1220 C   0  0  1  0  0  3  0  0  0  0  0  0
  187.6160  178.9380  140.1290 C   0  0  1  0  0  3  0  0  0  0  0  0
  186.3210  178.0310  138.1860 C   0  0  2  0  0  3  0  0  0  0  0  0
  186.6000  176.6940  137.8880 O   0  0  0  0  0  1  0  0  0  0  0  0
  184.5010  179.4540  138.7600 C   0  0  0  0  0  2  0  0  0  0  0  0
  186.3150  178.2620  139.6870 C   0  0  2  0  0  3  0  0  0  0  0  0
  185.1660  179.1080  140.0140 N   0  0  0  0  0  2  0  0  0  0  0  0
  184.9520  178.4690  137.7040 C   0  0  2  0  0  3  0  0  0  0  0  0
  183.3800  176.7710  138.6170 C   0  0  0  0  0  3  0  0  0  0  0  0
  182.3660  175.6680  138.5130 C   0  0  0  0  0  2  0  0  0  0  0  0
  183.9480  177.3420  137.5340 C   0  0  0  0  0  0  0  0  0  0  0  0
  183.4940  176.9890  136.1250 C   0  0  2  0  0  3  0  0  0  0  0  0
  182.5530  175.7800  136.0540 C   0  0  0  0  0  2  0  0  0  0  0  0
  181.5740  175.7820  137.2180 C   0  0  1  0  0  3  0  0  0  0  0  0
  180.6420  174.5960  137.0970 C   0  0  0  0  0  1  0  0  0  0  0  0
  184.6590  176.7720  135.2130 C   0  0  0  0  0  0  0  0  0  0  0  0
  185.3310  177.7560  134.8120 O   0  0  0  0  0  1  0  0  0  0  0  0
  185.0090  175.4880  134.8120 O   0  0  0  0  0  0  0  0  0  0  0  0
  190.1180  176.2750  139.1900 C   0  0  0  0  0  2  0  0  0  0  0  0
  190.4990  176.6050  137.7580 C   0  0  0  0  0  2  0  0  0  0  0  0
  190.4690  175.3400  136.9070 C   0  0  1  0  0  3  0  0  0  0  0  0
  189.0480  176.8100  135.2690 C   0  0  0  0  0  1  0  0  0  0  0  0
  189.7080  175.4840  135.6380 C   0  0  1  0  0  0  0  0  0  0  0  0
  191.1090  175.5900  135.6730 O   0  0  0  0  0  0  0  0  0  0  0  0
  187.5690  172.1570  134.5090 S   0  0  0  0  0  0  0  0  0  0  0  0
  189.1280  171.5110  135.1920 C   0  0  2  0  0  3  0  0  0  0  0  0
  190.4130  172.8030  135.2750 S   0  0  0  0  0  0  0  0  0  0  0  0
  189.2500  174.1760  134.9920 C   0  0  1  0  0  3  0  0  0  0  0  0
  187.8170  173.7650  135.2940 C   0  0  2  0  0  3  0  0  0  0  0  0
  189.6190  170.3530  134.3470 C   0  0  0  0  0  1  0  0  0  0  0  0
  187.5240  173.6590  136.7840 C   0  0  0  0  0  1  0  0  0  0  0  0
  189.7170  176.8640  142.3410 C   0  0  0  0  0  2  0  0  0  0  0  0
  189.6100  177.2550  144.8820 C   0  0  0  0  0  0  0  0  0  0  0  0
  186.7830  177.2840  144.6560 C   0  0  0  0  0  3  0  0  0  0  0  0
  187.5700  177.1250  143.5230 C   0  0  0  0  0  3  0  0  0  0  0  0
  188.9630  177.0920  143.6170 C   0  0  0  0  0  0  0  0  0  0  0  0
  187.3850  177.3960  145.9030 C   0  0  0  0  0  3  0  0  0  0  0  0
  188.7730  177.3700  146.0350 C   0  0  0  0  0  0  0  0  0  0  0  0
  189.2860  177.4220  147.4360 C   0  0  0  0  0  1  0  0  0  0  0  0
  191.7520  178.4470  144.2580 C   0  0  0  0  0  1  0  0  0  0  0  0
  191.6050  177.3050  146.2900 O   0  0  0  0  0  1  0  0  0  0  0  0
  191.1480  177.2470  144.9750 C   0  0  0  0  0  0  0  0  0  0  0  0
  191.6890  175.9760  144.3500 C   0  0  0  0  0  1  0  0  0  0  0  0
  2 22  1  6  0  0  0
  2  4  1  0  0  0  0
  3  2  1  0  0  0  0
  4  1  1  0  0  0  0
  4 35  1  1  0  0  0
  5  3  1  6  0  0  0
  5  1  1  0  0  0  0
  6  7  1  1  0  0  0
  6  9  1  0  0  0  0
  8 10  1  0  0  0  0
  9 10  1  6  0  0  0
  9  5  1  0  0  0  0
 11 14  1  1  0  0  0
 11  6  1  0  0  0  0
 11  8  1  0  0  0  0
 13 12  1  0  0  0  0
 14 12  2  0  0  0  0
 15 19  1  6  0  0  0
 15 14  1  0  0  0  0
 16 15  1  0  0  0  0
 16 17  1  0  0  0  0
 17 18  1  6  0  0  0
 17 13  1  0  0  0  0
 20 19  1  0  0  0  0
 21 19  2  0  0  0  0
 23 22  1  0  0  0  0
 24 23  1  1  0  0  0
 26 25  1  6  0  0  0
 26 27  1  0  0  0  0
 26 24  1  0  0  0  0
 27 24  1  0  0  0  0
 28 29  1  0  0  0  0
 28 32  1  0  0  0  0
 29 33  1  6  0  0  0
 29 30  1  0  0  0  0
 31 30  1  1  0  0  0
 31 32  1  0  0  0  0
 31 26  1  0  0  0  0
 32 34  1  1  0  0  0
 35 39  1  0  0  0  0
 36 45  1  0  0  0  0
 36 41  1  0  0  0  0
 37 40  1  0  0  0  0
 38 39  1  0  0  0  0
 38 37  2  0  0  0  0
 39 36  2  0  0  0  0
 40 41  2  0  0  0  0
 41 42  1  0  0  0  0
 43 45  1  0  0  0  0
 45 44  1  0  0  0  0
 46 45  1  0  0  0  0
M  END
>  <MODEL>
9

>  <REMARK>
 VINA RESULT:      -6.8      3.349      4.661
  Name = 
  10 active torsions:
  status: ('A' for Active; 'I' for Inactive)
    1  A    between atoms: C_8  and  C_10
    2  A    between atoms: C_9  and  C_23
    3  A    between atoms: C_10  and  C_12
    4  A    between atoms: C_12  and  C_16
    5  A    between atoms: C_15  and  C_26
    6  A    between atoms: C_18  and  C_43
    7  A    between atoms: C_19  and  C_45
    8  A    between atoms: C_22  and  C_42
    9  A    between atoms: C_25  and  C_29
   10  A    between atoms: C_29  and  C_41
                            x       y       z     vdW  Elec       q    Type
                         _______ _______ _______ _____ _____    ______ ____

>  <TORSDO>
F 10

$$$$
