=
 OpenBabel10232411553D

 63 68  0  0  1  0  0  0  0  0999 V2000
  189.7540  177.5400  146.6630 C   0  0  2  0  0  3  0  0  0  0  0  0
  188.8810  178.1820  144.4130 C   0  0  0  0  0  3  0  0  0  0  0  0
  188.6380  177.8950  145.7040 C   0  0  0  0  0  0  0  0  0  0  0  0
  192.4330  175.0020  146.4730 C   0  0  0  0  0  2  0  0  0  0  0  0
  192.4080  175.4930  145.1520 O   0  0  0  0  0  0  0  0  0  0  0  0
  190.8860  176.8170  143.7930 C   0  0  1  0  0  3  0  0  0  0  0  0
  191.5160  176.5780  145.1650 C   0  0  1  0  0  3  0  0  0  0  0  0
  190.2370  178.1960  143.7720 C   0  0  0  0  0  2  0  0  0  0  0  0
  191.2850  175.6050  147.2560 C   0  0  0  0  0  2  0  0  0  0  0  0
  190.4620  176.2660  146.1950 C   0  0  1  0  0  3  0  0  0  0  0  0
  189.1970  178.6420  148.5040 C   0  0  0  0  0  1  0  0  0  0  0  0
  189.2360  177.3610  147.9510 O   0  0  0  0  0  0  0  0  0  0  0  0
  187.3260  177.9240  146.1940 O   0  0  0  0  0  0  0  0  0  0  0  0
  186.2600  177.1890  145.6000 C   0  0  0  0  0  2  0  0  0  0  0  0
  186.0260  177.6840  144.1830 C   0  0  0  0  0  2  0  0  0  0  0  0
  185.2850  178.8660  144.2020 O   0  0  0  0  0  0  0  0  0  0  0  0
  184.1270  178.5640  143.4900 C   0  0  0  0  0  2  0  0  0  0  0  0
  184.4780  177.8260  142.2090 C   0  0  0  0  0  2  0  0  0  0  0  0
  183.5510  178.2830  141.0980 C   0  0  0  0  0  2  0  0  0  0  0  0
  184.1430  179.4790  140.3710 C   0  0  0  0  0  2  0  0  0  0  0  0
  183.7090  179.4560  138.9150 C   0  0  1  0  0  3  0  0  0  0  0  0
  184.4520  178.3520  138.1520 C   0  0  0  0  0  2  0  0  0  0  0  0
  180.8670  177.2010  137.7620 C   0  0  0  0  0  2  0  0  0  0  0  0
  183.5760  176.0040  137.8410 C   0  0  0  0  0  2  0  0  0  0  0  0
  181.1220  175.9350  136.9500 C   0  0  0  0  0  2  0  0  0  0  0  0
  183.3990  177.4740  137.4580 C   0  0  1  0  0  3  0  0  0  0  0  0
  182.3160  175.1460  137.5230 C   0  0  1  0  0  3  0  0  0  0  0  0
  181.3320  179.6790  139.3140 O   0  0  0  0  0  0  0  0  0  0  0  0
  182.1120  177.9450  137.9330 N   0  0  0  0  0  0  0  0  0  0  0  0
  182.2910  179.0550  138.7870 C   0  0  0  0  0  0  0  0  0  0  0  0
  181.4900  173.7160  135.7490 C   0  0  0  0  0  2  0  0  0  0  0  0
  183.8480  174.2110  135.9480 C   0  0  0  0  0  2  0  0  0  0  0  0
  184.3290  172.9100  135.2890 C   0  0  0  0  0  2  0  0  0  0  0  0
  182.6040  173.9750  136.6830 N   0  0  1  0  0  0  0  0  0  0  0  0
  183.1690  172.0170  134.8150 C   0  0  2  0  0  3  0  0  0  0  0  0
  181.8890  172.8230  134.5590 C   0  0  0  0  0  2  0  0  0  0  0  0
  182.9390  170.8280  135.7520 C   0  0  2  0  0  0  0  0  0  0  0  0
  183.7140  168.6660  136.0620 O   0  0  0  0  0  1  0  0  0  0  0  0
  181.8810  169.8660  135.4530 C   0  0  0  0  0  2  0  0  0  0  0  0
  183.2980  170.9310  137.1070 O   0  0  0  0  0  1  0  0  0  0  0  0
  183.2850  169.5340  135.1130 N   0  0  0  0  0  0  0  0  0  0  0  0
  191.9270  176.7560  142.6940 C   0  0  0  0  0  2  0  0  0  0  0  0
  191.5190  177.6890  141.5700 C   0  0  0  0  0  2  0  0  0  0  0  0
  191.8350  176.9320  139.1890 N   0  0  0  0  0  2  0  0  0  0  0  0
  189.9190  176.3510  140.3930 O   0  0  0  0  0  0  0  0  0  0  0  0
  191.0450  176.9230  140.3810 C   0  0  0  0  0  0  0  0  0  0  0  0
  191.3050  176.4960  137.9000 C   0  0  1  0  0  3  0  0  0  0  0  0
  191.5560  174.9910  137.7120 C   0  0  1  0  0  3  0  0  0  0  0  0
  190.7310  174.3900  136.5650 C   0  0  0  0  0  2  0  0  0  0  0  0
  189.5920  173.5230  137.0740 C   0  0  0  0  0  2  0  0  0  0  0  0
  189.0040  172.7360  135.9200 C   0  0  0  0  0  2  0  0  0  0  0  0
  187.4670  170.8700  135.3980 C   0  0  0  0  0  1  0  0  0  0  0  0
  187.8200  171.9350  136.4160 C   0  0  0  0  0  2  0  0  0  0  0  0
  193.0400  174.6950  137.5100 C   0  0  0  0  0  2  0  0  0  0  0  0
  193.5650  175.3660  136.2490 C   0  0  0  0  0  2  0  0  0  0  0  0
  194.0570  174.4120  135.3560 O   0  0  0  0  0  0  0  0  0  0  0  0
  194.4010  172.0950  135.7790 C   0  0  0  0  0  1  0  0  0  0  0  0
  194.7590  173.5170  136.1610 C   0  0  0  0  0  2  0  0  0  0  0  0
  189.8770  176.7820  137.8430 N   0  0  0  0  0  2  0  0  0  0  0  0
  189.7000  177.9350  136.9720 C   0  0  0  0  0  2  0  0  0  0  0  0
  187.8160  178.1310  138.4410 O   0  0  0  0  0  1  0  0  0  0  0  0
  188.5430  178.7960  137.4510 C   0  0  0  0  0  3  0  0  0  0  0  0
  187.7030  179.1000  136.3780 O   0  0  0  0  0  1  0  0  0  0  0  0
  1 12  1  1  0  0  0
  2  3  2  0  0  0  0
  3 13  1  0  0  0  0
  3  1  1  0  0  0  0
  4  9  1  0  0  0  0
  5  4  1  0  0  0  0
  6 42  1  6  0  0  0
  6  7  1  0  0  0  0
  7  5  1  6  0  0  0
  7 10  1  0  0  0  0
  8  6  1  0  0  0  0
  8  2  1  0  0  0  0
 10  1  1  0  0  0  0
 10  9  1  1  0  0  0
 12 11  1  0  0  0  0
 14 13  1  0  0  0  0
 15 16  1  0  0  0  0
 15 14  1  0  0  0  0
 17 16  1  0  0  0  0
 18 17  1  0  0  0  0
 19 18  1  0  0  0  0
 20 19  1  0  0  0  0
 21 20  1  1  0  0  0
 22 21  1  0  0  0  0
 23 29  1  0  0  0  0
 25 23  1  0  0  0  0
 26 24  1  1  0  0  0
 26 29  1  0  0  0  0
 26 22  1  0  0  0  0
 27 25  1  6  0  0  0
 27 24  1  0  0  0  0
 29 30  1  0  0  0  0
 30 21  1  0  0  0  0
 30 28  2  0  0  0  0
 32 34  1  0  0  0  0
 33 32  1  0  0  0  0
 34 31  1  6  0  0  0
 34 27  1  0  0  0  0
 35 36  1  1  0  0  0
 35 33  1  0  0  0  0
 35 37  1  0  0  0  0
 36 31  1  0  0  0  0
 37 40  1  1  0  0  0
 39 37  1  0  0  0  0
 41 39  1  0  0  0  0
 41 37  1  0  0  0  0
 41 38  1  0  0  0  0
 43 42  1  0  0  0  0
 44 46  1  0  0  0  0
 46 45  2  0  0  0  0
 46 43  1  0  0  0  0
 47 59  1  1  0  0  0
 47 44  1  0  0  0  0
 48 49  1  6  0  0  0
 48 47  1  0  0  0  0
 49 50  1  0  0  0  0
 51 53  1  0  0  0  0
 51 50  1  0  0  0  0
 52 53  1  0  0  0  0
 54 48  1  0  0  0  0
 55 54  1  0  0  0  0
 56 58  1  0  0  0  0
 56 55  1  0  0  0  0
 57 58  1  0  0  0  0
 60 62  1  0  0  0  0
 60 59  1  0  0  0  0
 62 61  1  0  0  0  0
 63 62  1  0  0  0  0
M  END
>  <MODEL>
1

>  <REMARK>
 VINA RESULT:      -5.5      0.000      0.000
  Name = 
  28 active torsions:
  status: ('A' for Active; 'I' for Inactive)
    1  A    between atoms: C_1  and  C_34
    2  A    between atoms: C_2  and  C_7
    3  A    between atoms: C_2  and  O_25
    4  A    between atoms: C_4  and  C_37
    5  A    between atoms: C_7  and  O_54
    6  A    between atoms: N_9  and  C_38
    7  A    between atoms: C_10  and  O_50
    8  A    between atoms: N_14  and  C_29
    9  A    between atoms: N_14  and  C_57
   10  A    between atoms: N_15  and  C_57
   11  A    between atoms: C_20  and  C_33
   12  A    between atoms: C_20  and  C_55
   13  A    between atoms: C_21  and  C_57
   14  A    between atoms: C_21  and  C_58
   15  A    between atoms: C_21  and  C_62
   16  A    between atoms: C_22  and  C_41
   17  A    between atoms: C_22  and  C_61
   18  A    between atoms: O_25  and  C_26
   19  A    between atoms: C_28  and  C_29
   20  A    between atoms: C_32  and  O_36
   21  A    between atoms: C_32  and  C_62
   22  A    between atoms: C_33  and  C_58
   23  A    between atoms: C_34  and  C_56
   24  A    between atoms: C_35  and  O_54
   25  A    between atoms: C_35  and  C_59
   26  A    between atoms: O_36  and  C_60
   27  A    between atoms: C_44  and  C_61
   28  A    between atoms: C_56  and  C_59
                            x       y       z     vdW  Elec       q    Type
                         _______ _______ _______ _____ _____    ______ ____

>  <TORSDO>
F 28

$$$$
=
 OpenBabel10232411553D

 63 68  0  0  1  0  0  0  0  0999 V2000
  185.1020  177.9120  145.2230 C   0  0  2  0  0  3  0  0  0  0  0  0
  187.0010  178.1130  143.6150 C   0  0  0  0  0  3  0  0  0  0  0  0
  186.5550  178.1580  144.8820 C   0  0  0  0  0  0  0  0  0  0  0  0
  181.9920  179.4410  143.9410 C   0  0  0  0  0  2  0  0  0  0  0  0
  182.7500  179.3010  142.7620 O   0  0  0  0  0  0  0  0  0  0  0  0
  185.0790  178.8760  142.2050 C   0  0  1  0  0  3  0  0  0  0  0  0
  183.8990  178.5820  143.1300 C   0  0  1  0  0  3  0  0  0  0  0  0
  186.1560  177.8170  142.4130 C   0  0  0  0  0  2  0  0  0  0  0  0
  182.8460  179.0710  145.1370 C   0  0  0  0  0  2  0  0  0  0  0  0
  184.2190  178.9670  144.5510 C   0  0  1  0  0  3  0  0  0  0  0  0
  185.6130  179.0840  147.0340 C   0  0  0  0  0  1  0  0  0  0  0  0
  184.9250  177.9450  146.6110 O   0  0  0  0  0  0  0  0  0  0  0  0
  187.4440  178.4360  145.9300 O   0  0  0  0  0  0  0  0  0  0  0  0
  188.3350  177.4650  146.4690 C   0  0  0  0  0  2  0  0  0  0  0  0
  189.7710  177.9120  146.2520 C   0  0  0  0  0  2  0  0  0  0  0  0
  190.2580  177.3990  145.0490 O   0  0  0  0  0  0  0  0  0  0  0  0
  190.8580  178.4880  144.4240 C   0  0  0  0  0  2  0  0  0  0  0  0
  191.1300  178.1680  142.9630 C   0  0  0  0  0  2  0  0  0  0  0  0
  189.8930  177.5380  142.3500 C   0  0  0  0  0  2  0  0  0  0  0  0
  190.2760  176.6310  141.1940 C   0  0  0  0  0  2  0  0  0  0  0  0
  190.8020  177.4690  140.0400 C   0  0  1  0  0  3  0  0  0  0  0  0
  192.3140  177.2640  139.8750 C   0  0  0  0  0  2  0  0  0  0  0  0
  191.0530  176.0150  136.5310 C   0  0  0  0  0  2  0  0  0  0  0  0
  193.3540  175.5510  138.3380 C   0  0  0  0  0  2  0  0  0  0  0  0
  192.3940  175.6330  135.9110 C   0  0  0  0  0  2  0  0  0  0  0  0
  192.5730  176.8640  138.4140 C   0  0  1  0  0  3  0  0  0  0  0  0
  193.2780  174.8890  136.9310 C   0  0  1  0  0  3  0  0  0  0  0  0
  189.0290  176.9580  138.4740 O   0  0  0  0  0  0  0  0  0  0  0  0
  191.2660  176.6830  137.8120 N   0  0  0  0  0  0  0  0  0  0  0  0
  190.2570  176.9990  138.7480 C   0  0  0  0  0  0  0  0  0  0  0  0
  194.7570  173.1530  136.1090 C   0  0  0  0  0  2  0  0  0  0  0  0
  194.7380  175.3500  135.0980 C   0  0  0  0  0  2  0  0  0  0  0  0
  196.1950  175.3030  134.6150 C   0  0  0  0  0  2  0  0  0  0  0  0
  194.5960  174.6020  136.3490 N   0  0  1  0  0  0  0  0  0  0  0  0
  196.8890  173.9690  134.9390 C   0  0  2  0  0  3  0  0  0  0  0  0
  195.8830  172.8230  135.1110 C   0  0  0  0  0  2  0  0  0  0  0  0
  197.8480  174.0930  136.1260 C   0  0  2  0  0  0  0  0  0  0  0  0
  198.1340  175.3980  138.0200 O   0  0  0  0  0  1  0  0  0  0  0  0
  199.0540  174.9080  135.9990 C   0  0  0  0  0  2  0  0  0  0  0  0
  197.9120  173.0610  137.0780 O   0  0  0  0  0  1  0  0  0  0  0  0
  197.8680  175.4650  136.6920 N   0  0  0  0  0  0  0  0  0  0  0  0
  184.6540  178.8540  140.7510 C   0  0  0  0  0  2  0  0  0  0  0  0
  185.8620  178.5590  139.8840 C   0  0  0  0  0  2  0  0  0  0  0  0
  184.2120  177.5090  138.2970 N   0  0  0  0  0  2  0  0  0  0  0  0
  186.2290  178.3980  137.5220 O   0  0  0  0  0  0  0  0  0  0  0  0
  185.4520  178.1920  138.4970 C   0  0  0  0  0  0  0  0  0  0  0  0
  183.8900  176.8310  137.0440 C   0  0  1  0  0  3  0  0  0  0  0  0
  182.3950  176.9980  136.7270 C   0  0  1  0  0  3  0  0  0  0  0  0
  181.6680  175.6540  136.5730 C   0  0  0  0  0  2  0  0  0  0  0  0
  182.5040  174.4910  137.0800 C   0  0  0  0  0  2  0  0  0  0  0  0
  181.7590  173.1930  136.8400 C   0  0  0  0  0  2  0  0  0  0  0  0
  183.5900  172.1460  135.5490 C   0  0  0  0  0  1  0  0  0  0  0  0
  182.7490  172.0500  136.8050 C   0  0  0  0  0  2  0  0  0  0  0  0
  181.6970  177.8620  137.7740 C   0  0  0  0  0  2  0  0  0  0  0  0
  181.5650  179.3010  137.2960 C   0  0  0  0  0  2  0  0  0  0  0  0
  180.2220  179.6310  137.1040 O   0  0  0  0  0  0  0  0  0  0  0  0
  179.9820  181.9980  137.1850 C   0  0  0  0  0  1  0  0  0  0  0  0
  180.0030  180.7000  137.9690 C   0  0  0  0  0  2  0  0  0  0  0  0
  184.7010  177.3910  135.9690 N   0  0  0  0  0  2  0  0  0  0  0  0
  185.0790  176.2890  135.0940 C   0  0  0  0  0  2  0  0  0  0  0  0
  186.9650  174.9030  134.5730 O   0  0  0  0  0  1  0  0  0  0  0  0
  186.3410  175.6110  135.6020 C   0  0  0  0  0  3  0  0  0  0  0  0
  186.0220  174.7380  136.6440 O   0  0  0  0  0  1  0  0  0  0  0  0
  1 12  1  1  0  0  0
  2  3  2  0  0  0  0
  3  1  1  0  0  0  0
  3 13  1  0  0  0  0
  4  9  1  0  0  0  0
  5  4  1  0  0  0  0
  6 42  1  6  0  0  0
  6  8  1  0  0  0  0
  6  7  1  0  0  0  0
  7  5  1  6  0  0  0
  7 10  1  0  0  0  0
  8  2  1  0  0  0  0
 10  9  1  1  0  0  0
 10  1  1  0  0  0  0
 12 11  1  0  0  0  0
 13 14  1  0  0  0  0
 15 14  1  0  0  0  0
 16 15  1  0  0  0  0
 17 16  1  0  0  0  0
 18 17  1  0  0  0  0
 19 18  1  0  0  0  0
 20 19  1  0  0  0  0
 21 20  1  1  0  0  0
 22 21  1  0  0  0  0
 23 29  1  0  0  0  0
 25 23  1  0  0  0  0
 26 24  1  1  0  0  0
 26 22  1  0  0  0  0
 27 25  1  6  0  0  0
 27 24  1  0  0  0  0
 28 30  2  0  0  0  0
 29 26  1  0  0  0  0
 29 30  1  0  0  0  0
 30 21  1  0  0  0  0
 31 34  1  0  0  0  0
 33 32  1  0  0  0  0
 34 32  1  6  0  0  0
 34 27  1  0  0  0  0
 35 33  1  1  0  0  0
 35 36  1  0  0  0  0
 35 37  1  0  0  0  0
 36 31  1  0  0  0  0
 37 41  1  0  0  0  0
 37 40  1  1  0  0  0
 39 37  1  0  0  0  0
 39 41  1  0  0  0  0
 41 38  1  0  0  0  0
 43 42  1  0  0  0  0
 44 46  1  0  0  0  0
 45 46  2  0  0  0  0
 46 43  1  0  0  0  0
 47 59  1  6  0  0  0
 47 44  1  0  0  0  0
 48 49  1  1  0  0  0
 48 47  1  0  0  0  0
 48 54  1  0  0  0  0
 49 50  1  0  0  0  0
 51 50  1  0  0  0  0
 52 53  1  0  0  0  0
 53 51  1  0  0  0  0
 55 54  1  0  0  0  0
 56 55  1  0  0  0  0
 56 58  1  0  0  0  0
 57 58  1  0  0  0  0
 60 62  1  0  0  0  0
 60 59  1  0  0  0  0
 61 62  1  0  0  0  0
 62 63  1  0  0  0  0
M  END
>  <MODEL>
2

>  <REMARK>
 VINA RESULT:      -4.7      2.481      9.567
  Name = 
  28 active torsions:
  status: ('A' for Active; 'I' for Inactive)
    1  A    between atoms: C_1  and  C_34
    2  A    between atoms: C_2  and  C_7
    3  A    between atoms: C_2  and  O_25
    4  A    between atoms: C_4  and  C_37
    5  A    between atoms: C_7  and  O_54
    6  A    between atoms: N_9  and  C_38
    7  A    between atoms: C_10  and  O_50
    8  A    between atoms: N_14  and  C_29
    9  A    between atoms: N_14  and  C_57
   10  A    between atoms: N_15  and  C_57
   11  A    between atoms: C_20  and  C_33
   12  A    between atoms: C_20  and  C_55
   13  A    between atoms: C_21  and  C_57
   14  A    between atoms: C_21  and  C_58
   15  A    between atoms: C_21  and  C_62
   16  A    between atoms: C_22  and  C_41
   17  A    between atoms: C_22  and  C_61
   18  A    between atoms: O_25  and  C_26
   19  A    between atoms: C_28  and  C_29
   20  A    between atoms: C_32  and  O_36
   21  A    between atoms: C_32  and  C_62
   22  A    between atoms: C_33  and  C_58
   23  A    between atoms: C_34  and  C_56
   24  A    between atoms: C_35  and  O_54
   25  A    between atoms: C_35  and  C_59
   26  A    between atoms: O_36  and  C_60
   27  A    between atoms: C_44  and  C_61
   28  A    between atoms: C_56  and  C_59
                            x       y       z     vdW  Elec       q    Type
                         _______ _______ _______ _____ _____    ______ ____

>  <TORSDO>
F 28

$$$$
=
 OpenBabel10232411553D

 63 68  0  0  1  0  0  0  0  0999 V2000
  190.7490  177.6060  139.7560 C   0  0  2  0  0  3  0  0  0  0  0  0
  188.4930  178.4450  140.4250 C   0  0  0  0  0  3  0  0  0  0  0  0
  189.6480  177.8450  140.7660 C   0  0  0  0  0  0  0  0  0  0  0  0
  190.7240  175.9570  136.4490 C   0  0  0  0  0  2  0  0  0  0  0  0
  189.5180  176.6840  136.4170 O   0  0  0  0  0  0  0  0  0  0  0  0
  188.0960  177.8120  138.0360 C   0  0  1  0  0  3  0  0  0  0  0  0
  189.5140  177.4700  137.5810 C   0  0  1  0  0  3  0  0  0  0  0  0
  188.1550  178.9460  139.0530 C   0  0  0  0  0  2  0  0  0  0  0  0
  191.3390  176.0620  137.8300 C   0  0  0  0  0  2  0  0  0  0  0  0
  190.2450  176.6870  138.6390 C   0  0  1  0  0  3  0  0  0  0  0  0
  192.9490  177.3900  139.5890 C   0  0  0  0  0  1  0  0  0  0  0  0
  191.8600  177.0360  140.3880 O   0  0  0  0  0  0  0  0  0  0  0  0
  189.8560  177.4260  142.0870 O   0  0  0  0  0  0  0  0  0  0  0  0
  189.6710  176.0800  142.5120 C   0  0  0  0  0  2  0  0  0  0  0  0
  190.2390  175.9020  143.9100 C   0  0  0  0  0  2  0  0  0  0  0  0
  191.0610  176.9810  144.2370 O   0  0  0  0  0  0  0  0  0  0  0  0
  190.2490  177.8210  144.9950 C   0  0  0  0  0  2  0  0  0  0  0  0
  189.5020  177.0170  146.0460 C   0  0  0  0  0  2  0  0  0  0  0  0
  188.1260  176.6570  145.5170 C   0  0  0  0  0  2  0  0  0  0  0  0
  187.0470  177.1560  146.4620 C   0  0  0  0  0  2  0  0  0  0  0  0
  186.5330  178.5050  145.9850 C   0  0  1  0  0  3  0  0  0  0  0  0
  186.6700  178.6210  144.4610 C   0  0  0  0  0  2  0  0  0  0  0  0
  182.9190  178.9280  144.8680 C   0  0  0  0  0  2  0  0  0  0  0  0
  184.8520  178.0050  142.8210 C   0  0  0  0  0  2  0  0  0  0  0  0
  182.5440  179.0810  143.3970 C   0  0  0  0  0  2  0  0  0  0  0  0
  185.2920  178.9990  143.8970 C   0  0  1  0  0  3  0  0  0  0  0  0
  183.3250  178.0800  142.5240 C   0  0  1  0  0  3  0  0  0  0  0  0
  184.5190  178.5420  147.3280 O   0  0  0  0  0  0  0  0  0  0  0  0
  184.3720  178.9370  145.0170 N   0  0  0  0  0  0  0  0  0  0  0  0
  185.0750  178.6260  146.2010 C   0  0  0  0  0  0  0  0  0  0  0  0
  184.0260  179.1740  140.4770 C   0  0  0  0  0  2  0  0  0  0  0  0
  182.9740  176.9970  140.4240 C   0  0  0  0  0  2  0  0  0  0  0  0
  182.3770  177.1550  139.0180 C   0  0  0  0  0  2  0  0  0  0  0  0
  183.0180  178.2940  141.1030 N   0  0  1  0  0  0  0  0  0  0  0  0
  182.7510  178.4940  138.3580 C   0  0  2  0  0  3  0  0  0  0  0  0
  184.0430  179.0830  138.9390 C   0  0  0  0  0  2  0  0  0  0  0  0
  181.5880  179.4900  138.3800 C   0  0  2  0  0  0  0  0  0  0  0  0
  180.1020  180.4810  136.9030 O   0  0  0  0  0  1  0  0  0  0  0  0
  181.8600  180.9210  138.2760 C   0  0  0  0  0  2  0  0  0  0  0  0
  180.3910  179.1470  139.0320 O   0  0  0  0  0  1  0  0  0  0  0  0
  181.4110  180.1760  137.0760 N   0  0  0  0  0  0  0  0  0  0  0  0
  187.2370  178.2540  136.8680 C   0  0  0  0  0  2  0  0  0  0  0  0
  187.4240  177.2850  135.7180 C   0  0  0  0  0  2  0  0  0  0  0  0
  186.0870  175.4770  134.5840 N   0  0  0  0  0  2  0  0  0  0  0  0
  185.8330  175.9110  136.8650 O   0  0  0  0  0  0  0  0  0  0  0  0
  186.4310  176.1740  135.7840 C   0  0  0  0  0  0  0  0  0  0  0  0
  184.9100  174.6170  134.4930 C   0  0  1  0  0  3  0  0  0  0  0  0
  185.2930  173.1670  134.8330 C   0  0  1  0  0  3  0  0  0  0  0  0
  186.7560  172.8450  134.4930 C   0  0  0  0  0  2  0  0  0  0  0  0
  187.6860  173.1100  135.6650 C   0  0  0  0  0  2  0  0  0  0  0  0
  188.9710  172.3300  135.4740 C   0  0  0  0  0  2  0  0  0  0  0  0
  189.9730  170.3710  134.3460 C   0  0  0  0  0  1  0  0  0  0  0  0
  188.6740  171.0630  134.7030 C   0  0  0  0  0  2  0  0  0  0  0  0
  185.0040  172.8430  136.2970 C   0  0  0  0  0  2  0  0  0  0  0  0
  184.2530  171.5270  136.4270 C   0  0  0  0  0  2  0  0  0  0  0  0
  183.8090  171.0910  135.1760 O   0  0  0  0  0  0  0  0  0  0  0  0
  181.8440  169.7990  135.5460 C   0  0  0  0  0  1  0  0  0  0  0  0
  183.3530  169.7950  135.4060 C   0  0  0  0  0  2  0  0  0  0  0  0
  183.8870  175.0990  135.4120 N   0  0  0  0  0  2  0  0  0  0  0  0
  182.7900  175.6170  134.6040 C   0  0  0  0  0  2  0  0  0  0  0  0
  181.5510  174.7200  136.4510 O   0  0  0  0  0  1  0  0  0  0  0  0
  181.4580  175.0820  135.1050 C   0  0  0  0  0  3  0  0  0  0  0  0
  181.0790  173.9740  134.3470 O   0  0  0  0  0  1  0  0  0  0  0  0
  1 12  1  1  0  0  0
  1  3  1  0  0  0  0
  2  3  2  0  0  0  0
  3 13  1  0  0  0  0
  4  9  1  0  0  0  0
  5  4  1  0  0  0  0
  6 42  1  6  0  0  0
  6  8  1  0  0  0  0
  7  5  1  6  0  0  0
  7  6  1  0  0  0  0
  7 10  1  0  0  0  0
  8  2  1  0  0  0  0
 10  9  1  6  0  0  0
 10  1  1  0  0  0  0
 11 12  1  0  0  0  0
 13 14  1  0  0  0  0
 14 15  1  0  0  0  0
 15 16  1  0  0  0  0
 16 17  1  0  0  0  0
 17 18  1  0  0  0  0
 19 18  1  0  0  0  0
 19 20  1  0  0  0  0
 21 30  1  0  0  0  0
 21 20  1  6  0  0  0
 22 21  1  0  0  0  0
 23 29  1  0  0  0  0
 25 23  1  0  0  0  0
 26 24  1  6  0  0  0
 26 22  1  0  0  0  0
 26 29  1  0  0  0  0
 27 24  1  6  0  0  0
 27 25  1  0  0  0  0
 29 30  1  0  0  0  0
 30 28  2  0  0  0  0
 31 34  1  0  0  0  0
 33 32  1  0  0  0  0
 34 32  1  6  0  0  0
 34 27  1  0  0  0  0
 35 37  1  0  0  0  0
 35 36  1  1  0  0  0
 35 33  1  0  0  0  0
 36 31  1  0  0  0  0
 37 40  1  1  0  0  0
 38 41  1  0  0  0  0
 39 37  1  0  0  0  0
 41 39  1  0  0  0  0
 41 37  1  0  0  0  0
 43 46  1  0  0  0  0
 43 42  1  0  0  0  0
 44 46  1  0  0  0  0
 46 45  2  0  0  0  0
 47 44  1  1  0  0  0
 47 48  1  0  0  0  0
 47 59  1  0  0  0  0
 48 49  1  1  0  0  0
 48 54  1  0  0  0  0
 49 50  1  0  0  0  0
 51 50  1  0  0  0  0
 52 53  1  0  0  0  0
 53 51  1  0  0  0  0
 54 55  1  0  0  0  0
 56 58  1  0  0  0  0
 56 55  1  0  0  0  0
 58 57  1  0  0  0  0
 60 62  1  0  0  0  0
 60 59  1  0  0  0  0
 62 61  1  0  0  0  0
 63 62  1  0  0  0  0
M  END
>  <MODEL>
3

>  <REMARK>
 VINA RESULT:      -4.0      2.514      7.609
  Name = 
  28 active torsions:
  status: ('A' for Active; 'I' for Inactive)
    1  A    between atoms: C_1  and  C_34
    2  A    between atoms: C_2  and  C_7
    3  A    between atoms: C_2  and  O_25
    4  A    between atoms: C_4  and  C_37
    5  A    between atoms: C_7  and  O_54
    6  A    between atoms: N_9  and  C_38
    7  A    between atoms: C_10  and  O_50
    8  A    between atoms: N_14  and  C_29
    9  A    between atoms: N_14  and  C_57
   10  A    between atoms: N_15  and  C_57
   11  A    between atoms: C_20  and  C_33
   12  A    between atoms: C_20  and  C_55
   13  A    between atoms: C_21  and  C_57
   14  A    between atoms: C_21  and  C_58
   15  A    between atoms: C_21  and  C_62
   16  A    between atoms: C_22  and  C_41
   17  A    between atoms: C_22  and  C_61
   18  A    between atoms: O_25  and  C_26
   19  A    between atoms: C_28  and  C_29
   20  A    between atoms: C_32  and  O_36
   21  A    between atoms: C_32  and  C_62
   22  A    between atoms: C_33  and  C_58
   23  A    between atoms: C_34  and  C_56
   24  A    between atoms: C_35  and  O_54
   25  A    between atoms: C_35  and  C_59
   26  A    between atoms: O_36  and  C_60
   27  A    between atoms: C_44  and  C_61
   28  A    between atoms: C_56  and  C_59
                            x       y       z     vdW  Elec       q    Type
                         _______ _______ _______ _____ _____    ______ ____

>  <TORSDO>
F 28

$$$$
=
 OpenBabel10232411553D

 63 68  0  0  1  0  0  0  0  0999 V2000
  190.7900  177.5710  139.7310 C   0  0  2  0  0  3  0  0  0  0  0  0
  188.4180  177.9650  140.4040 C   0  0  0  0  0  3  0  0  0  0  0  0
  189.6700  177.6180  140.7480 C   0  0  0  0  0  0  0  0  0  0  0  0
  191.0710  175.8460  136.4750 C   0  0  0  0  0  2  0  0  0  0  0  0
  189.7440  176.3170  136.4370 O   0  0  0  0  0  0  0  0  0  0  0  0
  188.1370  177.1910  138.0410 C   0  0  1  0  0  3  0  0  0  0  0  0
  189.5910  177.1230  137.5770 C   0  0  1  0  0  3  0  0  0  0  0  0
  187.9760  178.3450  139.0230 C   0  0  0  0  0  2  0  0  0  0  0  0
  191.6620  176.1150  137.8440 C   0  0  0  0  0  2  0  0  0  0  0  0
  190.4720  176.5350  138.6490 C   0  0  1  0  0  3  0  0  0  0  0  0
  192.9890  177.6240  139.4550 C   0  0  0  0  0  1  0  0  0  0  0  0
  191.9970  177.2540  140.3650 O   0  0  0  0  0  0  0  0  0  0  0  0
  189.9680  177.2910  142.0780 O   0  0  0  0  0  0  0  0  0  0  0  0
  189.9620  175.9550  142.5680 C   0  0  0  0  0  2  0  0  0  0  0  0
  191.1330  175.7510  143.5140 C   0  0  0  0  0  2  0  0  0  0  0  0
  191.9490  176.8830  143.5200 O   0  0  0  0  0  0  0  0  0  0  0  0
  191.5110  177.6230  144.6150 C   0  0  0  0  0  2  0  0  0  0  0  0
  191.4460  176.7410  145.8510 C   0  0  0  0  0  2  0  0  0  0  0  0
  190.0480  176.1650  145.9810 C   0  0  0  0  0  2  0  0  0  0  0  0
  189.3570  176.7230  147.2130 C   0  0  0  0  0  2  0  0  0  0  0  0
  188.7750  178.0910  146.8970 C   0  0  1  0  0  3  0  0  0  0  0  0
  188.5400  178.2360  145.3870 C   0  0  0  0  0  2  0  0  0  0  0  0
  185.0080  178.6060  146.6990 C   0  0  0  0  0  2  0  0  0  0  0  0
  186.3640  177.6890  144.2300 C   0  0  0  0  0  2  0  0  0  0  0  0
  184.2900  178.7970  145.3670 C   0  0  0  0  0  2  0  0  0  0  0  0
  187.0750  178.6520  145.1820 C   0  0  1  0  0  3  0  0  0  0  0  0
  184.8120  177.8000  144.3140 C   0  0  1  0  0  3  0  0  0  0  0  0
  187.1490  178.1380  148.6900 O   0  0  0  0  0  0  0  0  0  0  0  0
  186.4530  178.5840  146.4910 N   0  0  0  0  0  0  0  0  0  0  0  0
  187.4160  178.2350  147.4620 C   0  0  0  0  0  0  0  0  0  0  0  0
  182.9880  178.9160  143.1720 C   0  0  0  0  0  2  0  0  0  0  0  0
  185.1490  178.6700  142.1160 C   0  0  0  0  0  2  0  0  0  0  0  0
  184.6130  178.6800  140.6770 C   0  0  0  0  0  2  0  0  0  0  0  0
  184.1740  178.0490  143.0140 N   0  0  1  0  0  0  0  0  0  0  0  0
  183.0880  178.8760  140.6100 C   0  0  2  0  0  3  0  0  0  0  0  0
  182.5420  179.5830  141.8580 C   0  0  0  0  0  2  0  0  0  0  0  0
  182.3530  177.5680  140.3050 C   0  0  2  0  0  0  0  0  0  0  0  0
  180.8300  176.7310  138.7720 O   0  0  0  0  0  1  0  0  0  0  0  0
  181.0800  177.2840  140.9630 C   0  0  0  0  0  2  0  0  0  0  0  0
  183.0820  176.4430  139.8850 O   0  0  0  0  0  1  0  0  0  0  0  0
  181.0820  177.7960  139.5720 N   0  0  0  0  0  0  0  0  0  0  0  0
  187.1990  177.4160  136.8720 C   0  0  0  0  0  2  0  0  0  0  0  0
  187.4540  176.3570  135.8180 C   0  0  0  0  0  2  0  0  0  0  0  0
  186.1060  174.5870  134.6390 N   0  0  0  0  0  2  0  0  0  0  0  0
  185.6910  175.1270  136.8730 O   0  0  0  0  0  0  0  0  0  0  0  0
  186.3920  175.3100  135.8390 C   0  0  0  0  0  0  0  0  0  0  0  0
  184.8890  173.7950  134.4790 C   0  0  1  0  0  3  0  0  0  0  0  0
  185.1920  172.3100  134.7370 C   0  0  1  0  0  3  0  0  0  0  0  0
  186.6780  171.9680  134.5540 C   0  0  0  0  0  2  0  0  0  0  0  0
  187.0970  170.7750  135.3980 C   0  0  0  0  0  2  0  0  0  0  0  0
  187.8310  169.7760  134.5270 C   0  0  0  0  0  2  0  0  0  0  0  0
  189.5440  171.3980  135.2700 C   0  0  0  0  0  1  0  0  0  0  0  0
  189.2630  170.2280  134.3490 C   0  0  0  0  0  2  0  0  0  0  0  0
  184.7130  171.8760  136.1200 C   0  0  0  0  0  2  0  0  0  0  0  0
  183.3980  171.1160  136.0300 C   0  0  0  0  0  2  0  0  0  0  0  0
  182.6680  171.2610  137.2120 O   0  0  0  0  0  0  0  0  0  0  0  0
  180.9130  172.8690  137.1930 C   0  0  0  0  0  1  0  0  0  0  0  0
  181.3610  171.4800  136.7840 C   0  0  0  0  0  2  0  0  0  0  0  0
  183.8740  174.2740  135.4090 N   0  0  0  0  0  2  0  0  0  0  0  0
  183.0360  175.2210  134.6860 C   0  0  0  0  0  2  0  0  0  0  0  0
  180.9400  176.3080  135.0980 O   0  0  0  0  0  1  0  0  0  0  0  0
  182.1920  176.0350  135.6520 C   0  0  0  0  0  3  0  0  0  0  0  0
  182.8410  177.2330  135.9540 O   0  0  0  0  0  1  0  0  0  0  0  0
  1 12  1  1  0  0  0
  1  3  1  0  0  0  0
  2  3  2  0  0  0  0
  3 13  1  0  0  0  0
  4  9  1  0  0  0  0
  5  4  1  0  0  0  0
  6 42  1  6  0  0  0
  6  8  1  0  0  0  0
  7  5  1  6  0  0  0
  7  6  1  0  0  0  0
  7 10  1  0  0  0  0
  8  2  1  0  0  0  0
 10  9  1  6  0  0  0
 10  1  1  0  0  0  0
 11 12  1  0  0  0  0
 13 14  1  0  0  0  0
 14 15  1  0  0  0  0
 15 16  1  0  0  0  0
 16 17  1  0  0  0  0
 17 18  1  0  0  0  0
 18 19  1  0  0  0  0
 19 20  1  0  0  0  0
 21 20  1  6  0  0  0
 21 30  1  0  0  0  0
 22 21  1  0  0  0  0
 25 23  1  0  0  0  0
 26 24  1  6  0  0  0
 26 22  1  0  0  0  0
 26 29  1  0  0  0  0
 27 24  1  6  0  0  0
 27 25  1  0  0  0  0
 29 23  1  0  0  0  0
 29 30  1  0  0  0  0
 30 28  2  0  0  0  0
 33 32  1  0  0  0  0
 34 32  1  6  0  0  0
 34 31  1  0  0  0  0
 34 27  1  0  0  0  0
 35 33  1  1  0  0  0
 35 36  1  0  0  0  0
 36 31  1  0  0  0  0
 37 40  1  6  0  0  0
 37 35  1  0  0  0  0
 37 39  1  0  0  0  0
 38 41  1  0  0  0  0
 41 37  1  0  0  0  0
 41 39  1  0  0  0  0
 43 46  1  0  0  0  0
 43 42  1  0  0  0  0
 44 46  1  0  0  0  0
 46 45  2  0  0  0  0
 47 44  1  1  0  0  0
 47 48  1  0  0  0  0
 47 59  1  0  0  0  0
 48 49  1  1  0  0  0
 48 54  1  0  0  0  0
 49 50  1  0  0  0  0
 51 50  1  0  0  0  0
 53 51  1  0  0  0  0
 53 52  1  0  0  0  0
 55 54  1  0  0  0  0
 55 56  1  0  0  0  0
 58 57  1  0  0  0  0
 58 56  1  0  0  0  0
 60 59  1  0  0  0  0
 60 62  1  0  0  0  0
 61 62  1  0  0  0  0
 62 63  1  0  0  0  0
M  END
>  <MODEL>
4

>  <REMARK>
 VINA RESULT:      -3.7      2.517      8.131
  Name = 
  28 active torsions:
  status: ('A' for Active; 'I' for Inactive)
    1  A    between atoms: C_1  and  C_34
    2  A    between atoms: C_2  and  C_7
    3  A    between atoms: C_2  and  O_25
    4  A    between atoms: C_4  and  C_37
    5  A    between atoms: C_7  and  O_54
    6  A    between atoms: N_9  and  C_38
    7  A    between atoms: C_10  and  O_50
    8  A    between atoms: N_14  and  C_29
    9  A    between atoms: N_14  and  C_57
   10  A    between atoms: N_15  and  C_57
   11  A    between atoms: C_20  and  C_33
   12  A    between atoms: C_20  and  C_55
   13  A    between atoms: C_21  and  C_57
   14  A    between atoms: C_21  and  C_58
   15  A    between atoms: C_21  and  C_62
   16  A    between atoms: C_22  and  C_41
   17  A    between atoms: C_22  and  C_61
   18  A    between atoms: O_25  and  C_26
   19  A    between atoms: C_28  and  C_29
   20  A    between atoms: C_32  and  O_36
   21  A    between atoms: C_32  and  C_62
   22  A    between atoms: C_33  and  C_58
   23  A    between atoms: C_34  and  C_56
   24  A    between atoms: C_35  and  O_54
   25  A    between atoms: C_35  and  C_59
   26  A    between atoms: O_36  and  C_60
   27  A    between atoms: C_44  and  C_61
   28  A    between atoms: C_56  and  C_59
                            x       y       z     vdW  Elec       q    Type
                         _______ _______ _______ _____ _____    ______ ____

>  <TORSDO>
F 28

$$$$
=
 OpenBabel10232411553D

 63 68  0  0  1  0  0  0  0  0999 V2000
  182.7760  176.2410  137.1400 C   0  0  2  0  0  3  0  0  0  0  0  0
  183.5910  174.1560  138.2470 C   0  0  0  0  0  3  0  0  0  0  0  0
  183.0500  175.3830  138.3550 C   0  0  0  0  0  0  0  0  0  0  0  0
  184.9570  177.3100  134.3540 C   0  0  0  0  0  2  0  0  0  0  0  0
  185.3480  175.9680  134.5260 O   0  0  0  0  0  0  0  0  0  0  0  0
  185.0760  174.2590  136.2360 C   0  0  1  0  0  3  0  0  0  0  0  0
  184.4590  175.4290  135.4710 C   0  0  1  0  0  3  0  0  0  0  0  0
  183.9740  173.4930  136.9580 C   0  0  0  0  0  2  0  0  0  0  0  0
  183.9940  177.7010  135.4570 C   0  0  0  0  0  2  0  0  0  0  0  0
  184.0860  176.5480  136.4080 C   0  0  1  0  0  3  0  0  0  0  0  0
  180.8900  177.3870  136.9230 C   0  0  0  0  0  1  0  0  0  0  0  0
  182.1480  177.4310  137.5270 O   0  0  0  0  0  0  0  0  0  0  0  0
  182.7220  175.8960  139.6170 O   0  0  0  0  0  0  0  0  0  0  0  0
  181.4500  175.7020  140.2270 C   0  0  0  0  0  2  0  0  0  0  0  0
  180.6970  177.0210  140.2690 C   0  0  0  0  0  2  0  0  0  0  0  0
  180.5100  177.4270  141.5910 O   0  0  0  0  0  0  0  0  0  0  0  0
  181.3110  178.5580  141.7250 C   0  0  0  0  0  2  0  0  0  0  0  0
  182.7790  178.1700  141.6630 C   0  0  0  0  0  2  0  0  0  0  0  0
  183.6200  179.4220  141.4970 C   0  0  0  0  0  2  0  0  0  0  0  0
  184.9520  179.2650  142.2100 C   0  0  0  0  0  2  0  0  0  0  0  0
  184.8580  178.1380  143.2260 C   0  0  1  0  0  3  0  0  0  0  0  0
  186.1470  177.3050  143.2230 C   0  0  0  0  0  2  0  0  0  0  0  0
  186.1420  178.6050  146.7780 C   0  0  0  0  0  2  0  0  0  0  0  0
  188.1140  177.7300  144.7480 C   0  0  0  0  0  2  0  0  0  0  0  0
  187.4350  177.9530  147.2600 C   0  0  0  0  0  2  0  0  0  0  0  0
  186.6660  177.2450  144.6680 C   0  0  1  0  0  3  0  0  0  0  0  0
  188.5460  178.0900  146.2000 C   0  0  1  0  0  3  0  0  0  0  0  0
  183.9090  179.4470  145.0270 O   0  0  0  0  0  0  0  0  0  0  0  0
  185.8160  178.1360  145.4350 N   0  0  0  0  0  0  0  0  0  0  0  0
  184.8040  178.6680  144.6050 C   0  0  0  0  0  0  0  0  0  0  0  0
  189.4180  176.0780  147.2340 C   0  0  0  0  0  2  0  0  0  0  0  0
  190.6510  177.2130  145.4910 C   0  0  0  0  0  2  0  0  0  0  0  0
  192.0370  176.7460  145.9630 C   0  0  0  0  0  2  0  0  0  0  0  0
  189.7590  177.3860  146.6400 N   0  0  1  0  0  0  0  0  0  0  0  0
  191.9690  175.8180  147.1870 C   0  0  2  0  0  3  0  0  0  0  0  0
  190.6130  175.1080  147.2990 C   0  0  0  0  0  2  0  0  0  0  0  0
  192.3640  176.5390  148.4790 C   0  0  2  0  0  0  0  0  0  0  0  0
  194.2810  177.2240  149.5870 O   0  0  0  0  0  1  0  0  0  0  0  0
  192.5340  175.7730  149.7110 C   0  0  0  0  0  2  0  0  0  0  0  0
  192.0300  177.8930  148.6490 O   0  0  0  0  0  1  0  0  0  0  0  0
  193.7300  176.1730  148.9310 N   0  0  0  0  0  0  0  0  0  0  0  0
  185.7910  173.3070  135.2970 C   0  0  0  0  0  2  0  0  0  0  0  0
  187.1320  173.9000  134.9130 C   0  0  0  0  0  2  0  0  0  0  0  0
  188.8970  175.0150  136.3210 N   0  0  0  0  0  2  0  0  0  0  0  0
  188.2350  172.8150  136.7410 O   0  0  0  0  0  0  0  0  0  0  0  0
  188.0830  173.8690  136.0620 C   0  0  0  0  0  0  0  0  0  0  0  0
  190.0640  174.9600  137.1980 C   0  0  1  0  0  3  0  0  0  0  0  0
  191.3520  175.0140  136.3600 C   0  0  1  0  0  3  0  0  0  0  0  0
  192.3940  173.9780  136.8060 C   0  0  0  0  0  2  0  0  0  0  0  0
  193.3230  174.5270  137.8760 C   0  0  0  0  0  2  0  0  0  0  0  0
  194.6930  174.7710  137.2760 C   0  0  0  0  0  2  0  0  0  0  0  0
  196.4550  173.1370  137.8610 C   0  0  0  0  0  1  0  0  0  0  0  0
  195.7530  174.4080  138.2930 C   0  0  0  0  0  2  0  0  0  0  0  0
  191.0540  174.8610  134.8700 C   0  0  0  0  0  2  0  0  0  0  0  0
  191.5620  173.5250  134.3460 C   0  0  0  0  0  2  0  0  0  0  0  0
  190.8140  172.4740  134.8820 O   0  0  0  0  0  0  0  0  0  0  0  0
  192.9600  171.4800  134.6150 C   0  0  0  0  0  1  0  0  0  0  0  0
  191.4630  171.3260  134.4320 C   0  0  0  0  0  2  0  0  0  0  0  0
  190.0200  176.0770  138.1330 N   0  0  0  0  0  2  0  0  0  0  0  0
  188.8060  176.8300  137.8510 C   0  0  0  0  0  2  0  0  0  0  0  0
  187.4660  178.2340  139.2590 O   0  0  0  0  0  1  0  0  0  0  0  0
  188.7410  178.0820  138.7100 C   0  0  0  0  0  3  0  0  0  0  0  0
  189.0560  179.2020  137.9390 O   0  0  0  0  0  1  0  0  0  0  0  0
  1 12  1  1  0  0  0
  1  3  1  0  0  0  0
  2  3  2  0  0  0  0
  3 13  1  0  0  0  0
  4  5  1  0  0  0  0
  4  9  1  0  0  0  0
  6 42  1  6  0  0  0
  6  8  1  0  0  0  0
  7  5  1  6  0  0  0
  7  6  1  0  0  0  0
  7 10  1  0  0  0  0
  8  2  1  0  0  0  0
 10  9  1  6  0  0  0
 10  1  1  0  0  0  0
 11 12  1  0  0  0  0
 13 14  1  0  0  0  0
 14 15  1  0  0  0  0
 15 16  1  0  0  0  0
 16 17  1  0  0  0  0
 18 17  1  0  0  0  0
 19 18  1  0  0  0  0
 19 20  1  0  0  0  0
 21 20  1  6  0  0  0
 21 30  1  0  0  0  0
 22 21  1  0  0  0  0
 23 25  1  0  0  0  0
 26 22  1  6  0  0  0
 26 24  1  0  0  0  0
 26 29  1  0  0  0  0
 27 24  1  6  0  0  0
 27 34  1  0  0  0  0
 27 25  1  0  0  0  0
 29 23  1  0  0  0  0
 30 28  2  0  0  0  0
 30 29  1  0  0  0  0
 31 36  1  0  0  0  0
 32 33  1  0  0  0  0
 34 32  1  6  0  0  0
 34 31  1  0  0  0  0
 35 33  1  6  0  0  0
 35 36  1  0  0  0  0
 35 37  1  0  0  0  0
 37 40  1  1  0  0  0
 37 41  1  0  0  0  0
 37 39  1  0  0  0  0
 41 38  1  0  0  0  0
 41 39  1  0  0  0  0
 43 42  1  0  0  0  0
 43 46  1  0  0  0  0
 46 44  1  0  0  0  0
 46 45  2  0  0  0  0
 47 44  1  6  0  0  0
 47 59  1  0  0  0  0
 48 54  1  6  0  0  0
 48 49  1  0  0  0  0
 48 47  1  0  0  0  0
 49 50  1  0  0  0  0
 51 50  1  0  0  0  0
 51 53  1  0  0  0  0
 52 53  1  0  0  0  0
 55 54  1  0  0  0  0
 55 56  1  0  0  0  0
 58 57  1  0  0  0  0
 58 56  1  0  0  0  0
 60 59  1  0  0  0  0
 60 62  1  0  0  0  0
 62 61  1  0  0  0  0
 63 62  1  0  0  0  0
M  END
>  <MODEL>
5

>  <REMARK>
 VINA RESULT:      -3.6      2.865      9.780
  Name = 
  28 active torsions:
  status: ('A' for Active; 'I' for Inactive)
    1  A    between atoms: C_1  and  C_34
    2  A    between atoms: C_2  and  C_7
    3  A    between atoms: C_2  and  O_25
    4  A    between atoms: C_4  and  C_37
    5  A    between atoms: C_7  and  O_54
    6  A    between atoms: N_9  and  C_38
    7  A    between atoms: C_10  and  O_50
    8  A    between atoms: N_14  and  C_29
    9  A    between atoms: N_14  and  C_57
   10  A    between atoms: N_15  and  C_57
   11  A    between atoms: C_20  and  C_33
   12  A    between atoms: C_20  and  C_55
   13  A    between atoms: C_21  and  C_57
   14  A    between atoms: C_21  and  C_58
   15  A    between atoms: C_21  and  C_62
   16  A    between atoms: C_22  and  C_41
   17  A    between atoms: C_22  and  C_61
   18  A    between atoms: O_25  and  C_26
   19  A    between atoms: C_28  and  C_29
   20  A    between atoms: C_32  and  O_36
   21  A    between atoms: C_32  and  C_62
   22  A    between atoms: C_33  and  C_58
   23  A    between atoms: C_34  and  C_56
   24  A    between atoms: C_35  and  O_54
   25  A    between atoms: C_35  and  C_59
   26  A    between atoms: O_36  and  C_60
   27  A    between atoms: C_44  and  C_61
   28  A    between atoms: C_56  and  C_59
                            x       y       z     vdW  Elec       q    Type
                         _______ _______ _______ _____ _____    ______ ____

>  <TORSDO>
F 28

$$$$
=
 OpenBabel10232411553D

 63 68  0  0  1  0  0  0  0  0999 V2000
  191.0600  176.9240  146.4810 C   0  0  2  0  0  3  0  0  0  0  0  0
  189.4050  178.6830  145.8460 C   0  0  0  0  0  3  0  0  0  0  0  0
  189.8290  177.7680  146.7350 C   0  0  0  0  0  0  0  0  0  0  0  0
  192.0140  174.7790  143.6280 C   0  0  0  0  0  2  0  0  0  0  0  0
  191.4480  175.8910  142.9740 O   0  0  0  0  0  0  0  0  0  0  0  0
  190.0540  177.7830  143.6020 C   0  0  1  0  0  3  0  0  0  0  0  0
  191.1920  176.8370  143.9810 C   0  0  1  0  0  3  0  0  0  0  0  0
  190.0690  178.9870  144.5370 C   0  0  0  0  0  2  0  0  0  0  0  0
  191.8120  174.9170  145.1230 C   0  0  0  0  0  2  0  0  0  0  0  0
  190.8570  176.0640  145.2310 C   0  0  1  0  0  3  0  0  0  0  0  0
  192.5480  176.5520  148.0820 C   0  0  0  0  0  1  0  0  0  0  0  0
  191.3170  176.1110  147.5920 O   0  0  0  0  0  0  0  0  0  0  0  0
  189.1300  177.5780  147.9340 O   0  0  0  0  0  0  0  0  0  0  0  0
  187.7160  177.7170  148.0380 C   0  0  0  0  0  2  0  0  0  0  0  0
  187.0980  177.7020  146.6510 C   0  0  0  0  0  2  0  0  0  0  0  0
  185.7990  177.1960  146.7090 O   0  0  0  0  0  0  0  0  0  0  0  0
  185.2130  177.6010  145.5120 C   0  0  0  0  0  2  0  0  0  0  0  0
  184.2680  178.7650  145.7600 C   0  0  0  0  0  2  0  0  0  0  0  0
  183.7320  179.2650  144.4320 C   0  0  0  0  0  2  0  0  0  0  0  0
  184.0460  178.2740  143.3250 C   0  0  0  0  0  2  0  0  0  0  0  0
  183.7300  178.8980  141.9750 C   0  0  1  0  0  3  0  0  0  0  0  0
  184.3560  178.0720  140.8440 C   0  0  0  0  0  2  0  0  0  0  0  0
  180.6810  177.7910  139.9840 C   0  0  0  0  0  2  0  0  0  0  0  0
  183.1640  176.2200  139.6100 C   0  0  0  0  0  2  0  0  0  0  0  0
  180.8050  176.9220  138.7360 C   0  0  0  0  0  2  0  0  0  0  0  0
  183.2400  177.7290  139.8450 C   0  0  1  0  0  3  0  0  0  0  0  0
  181.8180  175.7820  138.9610 C   0  0  1  0  0  3  0  0  0  0  0  0
  181.3890  179.3450  142.4010 O   0  0  0  0  0  0  0  0  0  0  0  0
  182.0060  178.1870  140.4530 N   0  0  0  0  0  0  0  0  0  0  0  0
  182.2820  178.8250  141.6810 C   0  0  0  0  0  0  0  0  0  0  0  0
  181.7740  175.8530  136.5380 C   0  0  0  0  0  2  0  0  0  0  0  0
  183.3390  174.4310  137.7100 C   0  0  0  0  0  2  0  0  0  0  0  0
  183.4580  173.3860  136.5910 C   0  0  0  0  0  2  0  0  0  0  0  0
  181.9920  175.0030  137.7270 N   0  0  1  0  0  0  0  0  0  0  0  0
  182.6280  173.7480  135.3470 C   0  0  2  0  0  3  0  0  0  0  0  0
  182.3660  175.2570  135.2470 C   0  0  0  0  0  2  0  0  0  0  0  0
  181.3430  172.9210  135.2510 C   0  0  2  0  0  0  0  0  0  0  0  0
  180.0070  171.5970  136.6050 O   0  0  0  0  0  1  0  0  0  0  0  0
  181.4110  171.5270  134.8190 C   0  0  0  0  0  2  0  0  0  0  0  0
  180.1160  173.5660  135.0220 O   0  0  0  0  0  1  0  0  0  0  0  0
  181.2960  171.8360  136.2640 N   0  0  0  0  0  0  0  0  0  0  0  0
  190.2020  178.2750  142.1770 C   0  0  0  0  0  2  0  0  0  0  0  0
  190.7750  177.1620  141.3230 C   0  0  0  0  0  2  0  0  0  0  0  0
  189.7900  176.0290  139.3010 N   0  0  0  0  0  2  0  0  0  0  0  0
  190.2990  178.3090  139.2760 O   0  0  0  0  0  0  0  0  0  0  0  0
  190.2510  177.2290  139.9280 C   0  0  0  0  0  0  0  0  0  0  0  0
  189.5730  175.9380  137.8600 C   0  0  1  0  0  3  0  0  0  0  0  0
  190.0180  174.5580  137.3490 C   0  0  1  0  0  3  0  0  0  0  0  0
  189.1440  174.0420  136.1960 C   0  0  0  0  0  2  0  0  0  0  0  0
  189.0350  172.5270  136.1960 C   0  0  0  0  0  2  0  0  0  0  0  0
  187.7740  172.1130  136.9260 C   0  0  0  0  0  2  0  0  0  0  0  0
  186.4970  171.7320  134.8430 C   0  0  0  0  0  1  0  0  0  0  0  0
  186.5680  172.5430  136.1200 C   0  0  0  0  0  2  0  0  0  0  0  0
  191.4880  174.5630  136.9390 C   0  0  0  0  0  2  0  0  0  0  0  0
  192.1550  175.8790  137.3120 C   0  0  0  0  0  2  0  0  0  0  0  0
  192.8430  176.4060  136.2160 O   0  0  0  0  0  0  0  0  0  0  0  0
  195.1550  176.7950  135.8030 C   0  0  0  0  0  1  0  0  0  0  0  0
  194.1030  175.8160  136.2840 C   0  0  0  0  0  2  0  0  0  0  0  0
  188.1610  176.1550  137.5680 N   0  0  0  0  0  2  0  0  0  0  0  0
  187.9120  177.5860  137.6770 C   0  0  0  0  0  2  0  0  0  0  0  0
  187.0900  179.4740  136.4490 O   0  0  0  0  0  1  0  0  0  0  0  0
  187.0950  178.0790  136.4940 C   0  0  0  0  0  3  0  0  0  0  0  0
  185.7850  177.6090  136.5950 O   0  0  0  0  0  1  0  0  0  0  0  0
  1  3  1  0  0  0  0
  1 12  1  1  0  0  0
  2  3  2  0  0  0  0
  3 13  1  0  0  0  0
  4  9  1  0  0  0  0
  5  4  1  0  0  0  0
  6 42  1  6  0  0  0
  6  7  1  0  0  0  0
  6  8  1  0  0  0  0
  7  5  1  6  0  0  0
  7 10  1  0  0  0  0
  8  2  1  0  0  0  0
 10  9  1  1  0  0  0
 10  1  1  0  0  0  0
 12 11  1  0  0  0  0
 13 14  1  0  0  0  0
 15 16  1  0  0  0  0
 15 14  1  0  0  0  0
 17 18  1  0  0  0  0
 17 16  1  0  0  0  0
 19 18  1  0  0  0  0
 20 19  1  0  0  0  0
 21 20  1  1  0  0  0
 22 21  1  0  0  0  0
 23 29  1  0  0  0  0
 25 23  1  0  0  0  0
 26 24  1  1  0  0  0
 26 29  1  0  0  0  0
 26 22  1  0  0  0  0
 27 25  1  6  0  0  0
 27 24  1  0  0  0  0
 29 30  1  0  0  0  0
 30 21  1  0  0  0  0
 30 28  2  0  0  0  0
 32 34  1  0  0  0  0
 33 32  1  0  0  0  0
 34 31  1  6  0  0  0
 34 27  1  0  0  0  0
 35 36  1  1  0  0  0
 35 33  1  0  0  0  0
 36 31  1  0  0  0  0
 37 40  1  6  0  0  0
 37 35  1  0  0  0  0
 37 41  1  0  0  0  0
 39 37  1  0  0  0  0
 39 41  1  0  0  0  0
 41 38  1  0  0  0  0
 43 42  1  0  0  0  0
 44 46  1  0  0  0  0
 45 46  2  0  0  0  0
 46 43  1  0  0  0  0
 47 59  1  1  0  0  0
 47 44  1  0  0  0  0
 48 49  1  6  0  0  0
 48 47  1  0  0  0  0
 49 50  1  0  0  0  0
 50 51  1  0  0  0  0
 52 53  1  0  0  0  0
 53 51  1  0  0  0  0
 54 55  1  0  0  0  0
 54 48  1  0  0  0  0
 56 58  1  0  0  0  0
 56 55  1  0  0  0  0
 57 58  1  0  0  0  0
 59 60  1  0  0  0  0
 61 62  1  0  0  0  0
 62 63  1  0  0  0  0
 62 60  1  0  0  0  0
M  END
>  <MODEL>
6

>  <REMARK>
 VINA RESULT:      -3.0      1.819      2.452
  Name = 
  28 active torsions:
  status: ('A' for Active; 'I' for Inactive)
    1  A    between atoms: C_1  and  C_34
    2  A    between atoms: C_2  and  C_7
    3  A    between atoms: C_2  and  O_25
    4  A    between atoms: C_4  and  C_37
    5  A    between atoms: C_7  and  O_54
    6  A    between atoms: N_9  and  C_38
    7  A    between atoms: C_10  and  O_50
    8  A    between atoms: N_14  and  C_29
    9  A    between atoms: N_14  and  C_57
   10  A    between atoms: N_15  and  C_57
   11  A    between atoms: C_20  and  C_33
   12  A    between atoms: C_20  and  C_55
   13  A    between atoms: C_21  and  C_57
   14  A    between atoms: C_21  and  C_58
   15  A    between atoms: C_21  and  C_62
   16  A    between atoms: C_22  and  C_41
   17  A    between atoms: C_22  and  C_61
   18  A    between atoms: O_25  and  C_26
   19  A    between atoms: C_28  and  C_29
   20  A    between atoms: C_32  and  O_36
   21  A    between atoms: C_32  and  C_62
   22  A    between atoms: C_33  and  C_58
   23  A    between atoms: C_34  and  C_56
   24  A    between atoms: C_35  and  O_54
   25  A    between atoms: C_35  and  C_59
   26  A    between atoms: O_36  and  C_60
   27  A    between atoms: C_44  and  C_61
   28  A    between atoms: C_56  and  C_59
                            x       y       z     vdW  Elec       q    Type
                         _______ _______ _______ _____ _____    ______ ____

>  <TORSDO>
F 28

$$$$
=
 OpenBabel10232411553D

 63 68  0  0  1  0  0  0  0  0999 V2000
  184.9450  177.9340  145.5830 C   0  0  2  0  0  3  0  0  0  0  0  0
  186.8810  178.1230  144.0170 C   0  0  0  0  0  3  0  0  0  0  0  0
  186.4030  178.1940  145.2720 C   0  0  0  0  0  0  0  0  0  0  0  0
  181.8450  179.3780  144.1840 C   0  0  0  0  0  2  0  0  0  0  0  0
  182.6340  179.2190  143.0290 O   0  0  0  0  0  0  0  0  0  0  0  0
  184.9830  178.8170  142.5410 C   0  0  1  0  0  3  0  0  0  0  0  0
  183.7850  178.5280  143.4440 C   0  0  1  0  0  3  0  0  0  0  0  0
  186.0710  177.7820  142.8040 C   0  0  0  0  0  2  0  0  0  0  0  0
  182.6740  179.0540  145.4100 C   0  0  0  0  0  2  0  0  0  0  0  0
  184.0640  178.9560  144.8610 C   0  0  1  0  0  3  0  0  0  0  0  0
  185.4320  176.9120  147.4900 C   0  0  0  0  0  1  0  0  0  0  0  0
  184.7330  178.0010  146.9650 O   0  0  0  0  0  0  0  0  0  0  0  0
  187.2610  178.5140  146.3330 O   0  0  0  0  0  0  0  0  0  0  0  0
  188.1730  177.5810  146.9020 C   0  0  0  0  0  2  0  0  0  0  0  0
  189.5990  178.0060  146.5940 C   0  0  0  0  0  2  0  0  0  0  0  0
  190.0120  177.4620  145.3780 O   0  0  0  0  0  0  0  0  0  0  0  0
  190.4330  178.5580  144.6300 C   0  0  0  0  0  2  0  0  0  0  0  0
  191.1010  178.0910  143.3470 C   0  0  0  0  0  2  0  0  0  0  0  0
  190.1010  177.3030  142.5210 C   0  0  0  0  0  2  0  0  0  0  0  0
  190.8170  176.4750  141.4690 C   0  0  0  0  0  2  0  0  0  0  0  0
  191.5930  177.3930  140.5370 C   0  0  1  0  0  3  0  0  0  0  0  0
  193.0340  176.8910  140.3700 C   0  0  0  0  0  2  0  0  0  0  0  0
  191.7810  176.6730  136.8040 C   0  0  0  0  0  2  0  0  0  0  0  0
  193.7930  175.3430  138.5260 C   0  0  0  0  0  2  0  0  0  0  0  0
  193.0510  176.1360  136.1500 C   0  0  0  0  0  2  0  0  0  0  0  0
  193.3070  176.7530  138.8640 C   0  0  1  0  0  3  0  0  0  0  0  0
  193.6790  175.0190  137.0060 C   0  0  1  0  0  3  0  0  0  0  0  0
  189.8700  177.6260  138.8540 O   0  0  0  0  0  0  0  0  0  0  0  0
  192.0390  176.9980  138.2050 N   0  0  0  0  0  0  0  0  0  0  0  0
  191.0560  177.3330  139.1610 C   0  0  0  0  0  0  0  0  0  0  0  0
  194.8980  173.1220  136.1170 C   0  0  0  0  0  2  0  0  0  0  0  0
  195.1920  175.3340  135.1860 C   0  0  0  0  0  2  0  0  0  0  0  0
  196.6290  175.0990  134.6960 C   0  0  0  0  0  2  0  0  0  0  0  0
  194.9440  174.5690  136.4100 N   0  0  1  0  0  0  0  0  0  0  0  0
  197.1260  173.6690  134.9700 C   0  0  2  0  0  3  0  0  0  0  0  0
  195.9680  172.6710  135.1040 C   0  0  0  0  0  2  0  0  0  0  0  0
  198.0920  173.6120  136.1560 C   0  0  2  0  0  0  0  0  0  0  0  0
  198.2400  174.3940  138.3330 O   0  0  0  0  0  1  0  0  0  0  0  0
  199.1620  174.6000  136.2650 C   0  0  0  0  0  2  0  0  0  0  0  0
  198.3320  172.3860  136.7990 O   0  0  0  0  0  1  0  0  0  0  0  0
  197.9290  174.7720  137.0690 N   0  0  0  0  0  0  0  0  0  0  0  0
  184.5950  178.7490  141.0780 C   0  0  0  0  0  2  0  0  0  0  0  0
  185.8430  178.8720  140.2260 C   0  0  0  0  0  2  0  0  0  0  0  0
  184.7490  178.3410  138.0200 N   0  0  0  0  0  2  0  0  0  0  0  0
  186.4620  176.9980  138.8690 O   0  0  0  0  0  0  0  0  0  0  0  0
  185.7430  178.0280  139.0000 C   0  0  0  0  0  0  0  0  0  0  0  0
  184.3660  177.3990  136.9720 C   0  0  1  0  0  3  0  0  0  0  0  0
  182.8430  177.1950  136.9820 C   0  0  1  0  0  3  0  0  0  0  0  0
  182.0750  178.4780  137.3310 C   0  0  0  0  0  2  0  0  0  0  0  0
  181.2730  179.0030  136.1520 C   0  0  0  0  0  2  0  0  0  0  0  0
  181.0640  180.4960  136.3100 C   0  0  0  0  0  2  0  0  0  0  0  0
  180.9160  182.3420  137.9490 C   0  0  0  0  0  1  0  0  0  0  0  0
  181.2040  180.8660  137.7700 C   0  0  0  0  0  2  0  0  0  0  0  0
  182.3480  176.6260  135.6540 C   0  0  0  0  0  2  0  0  0  0  0  0
  182.5550  175.1200  135.5940 C   0  0  0  0  0  2  0  0  0  0  0  0
  181.3440  174.4510  135.7920 O   0  0  0  0  0  0  0  0  0  0  0  0
  182.9050  172.8800  136.6650 C   0  0  0  0  0  1  0  0  0  0  0  0
  181.6910  173.1020  135.7840 C   0  0  0  0  0  2  0  0  0  0  0  0
  184.8010  177.9110  135.6780 N   0  0  0  0  0  2  0  0  0  0  0  0
  185.8200  177.0020  135.1730 C   0  0  0  0  0  2  0  0  0  0  0  0
  187.7130  178.2220  134.3510 O   0  0  0  0  0  1  0  0  0  0  0  0
  187.2110  177.5430  135.4630 C   0  0  0  0  0  3  0  0  0  0  0  0
  188.0670  176.4930  135.7960 O   0  0  0  0  0  1  0  0  0  0  0  0
  1 12  1  1  0  0  0
  2  3  2  0  0  0  0
  3  1  1  0  0  0  0
  3 13  1  0  0  0  0
  4  9  1  0  0  0  0
  5  4  1  0  0  0  0
  6 42  1  6  0  0  0
  6  8  1  0  0  0  0
  6  7  1  0  0  0  0
  7  5  1  6  0  0  0
  7 10  1  0  0  0  0
  8  2  1  0  0  0  0
 10  9  1  1  0  0  0
 10  1  1  0  0  0  0
 12 11  1  0  0  0  0
 13 14  1  0  0  0  0
 15 14  1  0  0  0  0
 16 15  1  0  0  0  0
 17 16  1  0  0  0  0
 18 17  1  0  0  0  0
 19 18  1  0  0  0  0
 20 19  1  0  0  0  0
 21 20  1  1  0  0  0
 22 21  1  0  0  0  0
 23 29  1  0  0  0  0
 25 23  1  0  0  0  0
 26 24  1  1  0  0  0
 26 22  1  0  0  0  0
 27 25  1  6  0  0  0
 27 24  1  0  0  0  0
 28 30  2  0  0  0  0
 29 26  1  0  0  0  0
 29 30  1  0  0  0  0
 30 21  1  0  0  0  0
 31 34  1  0  0  0  0
 33 32  1  0  0  0  0
 34 32  1  6  0  0  0
 34 27  1  0  0  0  0
 35 33  1  1  0  0  0
 35 36  1  0  0  0  0
 35 37  1  0  0  0  0
 36 31  1  0  0  0  0
 37 39  1  0  0  0  0
 37 40  1  1  0  0  0
 37 41  1  0  0  0  0
 39 41  1  0  0  0  0
 41 38  1  0  0  0  0
 43 42  1  0  0  0  0
 44 46  1  0  0  0  0
 45 46  2  0  0  0  0
 46 43  1  0  0  0  0
 47 59  1  6  0  0  0
 47 48  1  0  0  0  0
 47 44  1  0  0  0  0
 48 54  1  6  0  0  0
 48 49  1  0  0  0  0
 50 51  1  0  0  0  0
 50 49  1  0  0  0  0
 51 53  1  0  0  0  0
 53 52  1  0  0  0  0
 55 54  1  0  0  0  0
 55 56  1  0  0  0  0
 58 56  1  0  0  0  0
 58 57  1  0  0  0  0
 60 62  1  0  0  0  0
 60 59  1  0  0  0  0
 61 62  1  0  0  0  0
 62 63  1  0  0  0  0
M  END
>  <MODEL>
7

>  <REMARK>
 VINA RESULT:      -3.0      2.736      9.653
  Name = 
  28 active torsions:
  status: ('A' for Active; 'I' for Inactive)
    1  A    between atoms: C_1  and  C_34
    2  A    between atoms: C_2  and  C_7
    3  A    between atoms: C_2  and  O_25
    4  A    between atoms: C_4  and  C_37
    5  A    between atoms: C_7  and  O_54
    6  A    between atoms: N_9  and  C_38
    7  A    between atoms: C_10  and  O_50
    8  A    between atoms: N_14  and  C_29
    9  A    between atoms: N_14  and  C_57
   10  A    between atoms: N_15  and  C_57
   11  A    between atoms: C_20  and  C_33
   12  A    between atoms: C_20  and  C_55
   13  A    between atoms: C_21  and  C_57
   14  A    between atoms: C_21  and  C_58
   15  A    between atoms: C_21  and  C_62
   16  A    between atoms: C_22  and  C_41
   17  A    between atoms: C_22  and  C_61
   18  A    between atoms: O_25  and  C_26
   19  A    between atoms: C_28  and  C_29
   20  A    between atoms: C_32  and  O_36
   21  A    between atoms: C_32  and  C_62
   22  A    between atoms: C_33  and  C_58
   23  A    between atoms: C_34  and  C_56
   24  A    between atoms: C_35  and  O_54
   25  A    between atoms: C_35  and  C_59
   26  A    between atoms: O_36  and  C_60
   27  A    between atoms: C_44  and  C_61
   28  A    between atoms: C_56  and  C_59
                            x       y       z     vdW  Elec       q    Type
                         _______ _______ _______ _____ _____    ______ ____

>  <TORSDO>
F 28

$$$$
=
 OpenBabel10232411553D

 63 68  0  0  1  0  0  0  0  0999 V2000
  191.3860  176.7130  146.7210 C   0  0  2  0  0  3  0  0  0  0  0  0
  190.0490  178.7370  146.1260 C   0  0  0  0  0  3  0  0  0  0  0  0
  190.3970  177.8130  147.0400 C   0  0  0  0  0  0  0  0  0  0  0  0
  191.4920  174.2300  143.9860 C   0  0  0  0  0  2  0  0  0  0  0  0
  191.0800  175.3920  143.3040 O   0  0  0  0  0  0  0  0  0  0  0  0
  190.1930  177.5730  143.9150 C   0  0  1  0  0  3  0  0  0  0  0  0
  191.1580  176.4340  144.2420 C   0  0  1  0  0  3  0  0  0  0  0  0
  190.5780  178.8060  144.7250 C   0  0  0  0  0  2  0  0  0  0  0  0
  191.5270  174.5060  145.4760 C   0  0  0  0  0  2  0  0  0  0  0  0
  190.8470  175.8350  145.5890 C   0  0  1  0  0  3  0  0  0  0  0  0
  192.9660  175.5720  147.7780 C   0  0  0  0  0  1  0  0  0  0  0  0
  191.6220  175.9390  147.8640 O   0  0  0  0  0  0  0  0  0  0  0  0
  189.8420  177.8550  148.3260 O   0  0  0  0  0  0  0  0  0  0  0  0
  188.5040  178.2700  148.5810 C   0  0  0  0  0  2  0  0  0  0  0  0
  187.7440  178.3780  147.2700 C   0  0  0  0  0  2  0  0  0  0  0  0
  186.5670  177.6320  147.3330 O   0  0  0  0  0  0  0  0  0  0  0  0
  185.8240  178.0590  146.2350 C   0  0  0  0  0  2  0  0  0  0  0  0
  184.6120  178.8490  146.7000 C   0  0  0  0  0  2  0  0  0  0  0  0
  183.8780  179.3950  145.4900 C   0  0  0  0  0  2  0  0  0  0  0  0
  184.3470  178.6990  144.2240 C   0  0  0  0  0  2  0  0  0  0  0  0
  183.7340  179.3780  143.0100 C   0  0  1  0  0  3  0  0  0  0  0  0
  184.3140  178.7870  141.7180 C   0  0  0  0  0  2  0  0  0  0  0  0
  180.6500  177.9260  141.3170 C   0  0  0  0  0  2  0  0  0  0  0  0
  183.2760  176.8720  140.4420 C   0  0  0  0  0  2  0  0  0  0  0  0
  180.7300  177.2130  139.9710 C   0  0  0  0  0  2  0  0  0  0  0  0
  183.1350  178.3420  140.8390 C   0  0  1  0  0  3  0  0  0  0  0  0
  181.9400  176.2590  139.9260 C   0  0  1  0  0  3  0  0  0  0  0  0
  181.4420  179.3520  143.7870 O   0  0  0  0  0  0  0  0  0  0  0  0
  181.9450  178.5100  141.6530 N   0  0  0  0  0  0  0  0  0  0  0  0
  182.2920  179.0720  142.9010 C   0  0  0  0  0  0  0  0  0  0  0  0
  181.5950  176.5750  137.5480 C   0  0  0  0  0  2  0  0  0  0  0  0
  183.4490  175.2590  138.3690 C   0  0  0  0  0  2  0  0  0  0  0  0
  183.5560  174.3610  137.1280 C   0  0  0  0  0  2  0  0  0  0  0  0
  182.0550  175.6430  138.5970 N   0  0  1  0  0  0  0  0  0  0  0  0
  182.5440  174.7370  136.0320 C   0  0  2  0  0  3  0  0  0  0  0  0
  182.0930  176.2000  136.1390 C   0  0  0  0  0  2  0  0  0  0  0  0
  181.3660  173.7600  135.9770 C   0  0  2  0  0  0  0  0  0  0  0  0
  180.6600  171.9340  134.7360 O   0  0  0  0  0  1  0  0  0  0  0  0
  180.1760  174.1060  135.2040 C   0  0  0  0  0  2  0  0  0  0  0  0
  181.1600  172.8600  137.0360 O   0  0  0  0  0  1  0  0  0  0  0  0
  181.1780  173.1820  134.6230 N   0  0  0  0  0  0  0  0  0  0  0  0
  190.2430  177.9280  142.4430 C   0  0  0  0  0  2  0  0  0  0  0  0
  189.2430  177.0720  141.6910 C   0  0  0  0  0  2  0  0  0  0  0  0
  188.5790  176.5530  139.3180 N   0  0  0  0  0  2  0  0  0  0  0  0
  189.7490  178.5060  139.8400 O   0  0  0  0  0  0  0  0  0  0  0  0
  189.1870  177.4510  140.2490 C   0  0  0  0  0  0  0  0  0  0  0  0
  188.7660  176.6830  137.8750 C   0  0  1  0  0  3  0  0  0  0  0  0
  189.6550  175.5400  137.3570 C   0  0  1  0  0  3  0  0  0  0  0  0
  191.1100  175.6580  137.8340 C   0  0  0  0  0  2  0  0  0  0  0  0
  192.0820  175.7900  136.6730 C   0  0  0  0  0  2  0  0  0  0  0  0
  193.4570  176.1420  137.2060 C   0  0  0  0  0  2  0  0  0  0  0  0
  195.0160  174.6240  138.3810 C   0  0  0  0  0  1  0  0  0  0  0  0
  194.3710  174.9470  137.0490 C   0  0  0  0  0  2  0  0  0  0  0  0
  189.0820  174.1750  137.7320 C   0  0  0  0  0  2  0  0  0  0  0  0
  189.4420  173.1270  136.6900 C   0  0  0  0  0  2  0  0  0  0  0  0
  189.1660  173.5990  135.4050 O   0  0  0  0  0  0  0  0  0  0  0  0
  189.4760  171.4370  134.4600 C   0  0  0  0  0  1  0  0  0  0  0  0
  188.4950  172.5450  134.7880 C   0  0  0  0  0  2  0  0  0  0  0  0
  187.4670  176.6540  137.2140 N   0  0  0  0  0  2  0  0  0  0  0  0
  187.7130  176.5380  135.7830 C   0  0  0  0  0  2  0  0  0  0  0  0
  185.4910  177.4310  135.6540 O   0  0  0  0  0  1  0  0  0  0  0  0
  186.4050  176.5940  135.0100 C   0  0  0  0  0  3  0  0  0  0  0  0
  185.8670  175.3120  134.8960 O   0  0  0  0  0  1  0  0  0  0  0  0
  1  3  1  0  0  0  0
  1 12  1  1  0  0  0
  2  3  2  0  0  0  0
  3 13  1  0  0  0  0
  4  9  1  0  0  0  0
  5  4  1  0  0  0  0
  6 42  1  6  0  0  0
  6  7  1  0  0  0  0
  6  8  1  0  0  0  0
  7  5  1  6  0  0  0
  7 10  1  0  0  0  0
  8  2  1  0  0  0  0
 10  9  1  6  0  0  0
 10  1  1  0  0  0  0
 11 12  1  0  0  0  0
 13 14  1  0  0  0  0
 15 16  1  0  0  0  0
 15 14  1  0  0  0  0
 17 18  1  0  0  0  0
 17 16  1  0  0  0  0
 19 18  1  0  0  0  0
 20 19  1  0  0  0  0
 21 20  1  1  0  0  0
 22 21  1  0  0  0  0
 23 29  1  0  0  0  0
 25 23  1  0  0  0  0
 26 24  1  1  0  0  0
 26 29  1  0  0  0  0
 26 22  1  0  0  0  0
 27 25  1  6  0  0  0
 27 24  1  0  0  0  0
 29 30  1  0  0  0  0
 30 21  1  0  0  0  0
 30 28  2  0  0  0  0
 32 34  1  0  0  0  0
 33 32  1  0  0  0  0
 34 31  1  6  0  0  0
 34 27  1  0  0  0  0
 35 36  1  1  0  0  0
 35 33  1  0  0  0  0
 36 31  1  0  0  0  0
 37 35  1  0  0  0  0
 37 40  1  1  0  0  0
 39 37  1  0  0  0  0
 41 38  1  0  0  0  0
 41 39  1  0  0  0  0
 41 37  1  0  0  0  0
 43 42  1  0  0  0  0
 44 46  1  0  0  0  0
 45 46  2  0  0  0  0
 46 43  1  0  0  0  0
 47 59  1  6  0  0  0
 47 44  1  0  0  0  0
 48 54  1  1  0  0  0
 48 49  1  0  0  0  0
 48 47  1  0  0  0  0
 50 51  1  0  0  0  0
 50 49  1  0  0  0  0
 53 51  1  0  0  0  0
 53 52  1  0  0  0  0
 55 54  1  0  0  0  0
 56 55  1  0  0  0  0
 57 58  1  0  0  0  0
 58 56  1  0  0  0  0
 60 59  1  0  0  0  0
 62 61  1  0  0  0  0
 62 60  1  0  0  0  0
 63 62  1  0  0  0  0
M  END
>  <MODEL>
8

>  <REMARK>
 VINA RESULT:      -2.9      2.192      3.709
  Name = 
  28 active torsions:
  status: ('A' for Active; 'I' for Inactive)
    1  A    between atoms: C_1  and  C_34
    2  A    between atoms: C_2  and  C_7
    3  A    between atoms: C_2  and  O_25
    4  A    between atoms: C_4  and  C_37
    5  A    between atoms: C_7  and  O_54
    6  A    between atoms: N_9  and  C_38
    7  A    between atoms: C_10  and  O_50
    8  A    between atoms: N_14  and  C_29
    9  A    between atoms: N_14  and  C_57
   10  A    between atoms: N_15  and  C_57
   11  A    between atoms: C_20  and  C_33
   12  A    between atoms: C_20  and  C_55
   13  A    between atoms: C_21  and  C_57
   14  A    between atoms: C_21  and  C_58
   15  A    between atoms: C_21  and  C_62
   16  A    between atoms: C_22  and  C_41
   17  A    between atoms: C_22  and  C_61
   18  A    between atoms: O_25  and  C_26
   19  A    between atoms: C_28  and  C_29
   20  A    between atoms: C_32  and  O_36
   21  A    between atoms: C_32  and  C_62
   22  A    between atoms: C_33  and  C_58
   23  A    between atoms: C_34  and  C_56
   24  A    between atoms: C_35  and  O_54
   25  A    between atoms: C_35  and  C_59
   26  A    between atoms: O_36  and  C_60
   27  A    between atoms: C_44  and  C_61
   28  A    between atoms: C_56  and  C_59
                            x       y       z     vdW  Elec       q    Type
                         _______ _______ _______ _____ _____    ______ ____

>  <TORSDO>
F 28

$$$$
=
 OpenBabel10232411553D

 63 68  0  0  1  0  0  0  0  0999 V2000
  188.0740  176.9000  137.2290 C   0  0  2  0  0  3  0  0  0  0  0  0
  190.1690  175.9150  136.2920 C   0  0  0  0  0  3  0  0  0  0  0  0
  188.8270  175.9070  136.3690 C   0  0  0  0  0  0  0  0  0  0  0  0
  188.4010  177.7890  140.8010 C   0  0  0  0  0  2  0  0  0  0  0  0
  189.7490  177.6690  140.4100 O   0  0  0  0  0  0  0  0  0  0  0  0
  190.9600  176.7230  138.5250 C   0  0  1  0  0  3  0  0  0  0  0  0
  189.7280  177.4810  139.0180 C   0  0  1  0  0  3  0  0  0  0  0  0
  191.0690  176.8730  137.0120 C   0  0  0  0  0  2  0  0  0  0  0  0
  187.5040  177.3480  139.6610 C   0  0  0  0  0  2  0  0  0  0  0  0
  188.4660  176.7230  138.6990 C   0  0  1  0  0  3  0  0  0  0  0  0
  186.1760  178.0080  136.9360 C   0  0  0  0  0  1  0  0  0  0  0  0
  186.6950  176.7190  137.0700 O   0  0  0  0  0  0  0  0  0  0  0  0
  188.0870  174.9660  135.6400 O   0  0  0  0  0  0  0  0  0  0  0  0
  186.8620  175.2800  134.9860 C   0  0  0  0  0  2  0  0  0  0  0  0
  186.0310  174.0190  134.8230 C   0  0  0  0  0  2  0  0  0  0  0  0
  185.3050  173.7670  135.9880 O   0  0  0  0  0  0  0  0  0  0  0  0
  185.7470  172.5160  136.4100 C   0  0  0  0  0  2  0  0  0  0  0  0
  184.8800  171.4240  135.8050 C   0  0  0  0  0  2  0  0  0  0  0  0
  183.7420  171.1040  136.7560 C   0  0  0  0  0  2  0  0  0  0  0  0
  182.4790  170.7700  135.9790 C   0  0  0  0  0  2  0  0  0  0  0  0
  181.2720  171.3650  136.6870 C   0  0  1  0  0  3  0  0  0  0  0  0
  181.7050  172.0820  137.9730 C   0  0  0  0  0  2  0  0  0  0  0  0
  180.1990  174.9560  136.0240 C   0  0  0  0  0  2  0  0  0  0  0  0
  182.2630  174.5410  138.1080 C   0  0  0  0  0  2  0  0  0  0  0  0
  180.4310  176.0680  137.0430 C   0  0  0  0  0  2  0  0  0  0  0  0
  181.1470  173.5120  137.9190 C   0  0  1  0  0  3  0  0  0  0  0  0
  181.8450  175.9690  137.6490 C   0  0  1  0  0  3  0  0  0  0  0  0
  180.2110  172.2980  134.7220 O   0  0  0  0  0  0  0  0  0  0  0  0
  180.5670  173.6650  136.5980 N   0  0  0  0  0  0  0  0  0  0  0  0
  180.6670  172.4500  135.8860 C   0  0  0  0  0  0  0  0  0  0  0  0
  182.5150  178.2550  138.0990 C   0  0  0  0  0  2  0  0  0  0  0  0
  180.7510  177.2040  139.3760 C   0  0  0  0  0  2  0  0  0  0  0  0
  180.9660  178.0440  140.6440 C   0  0  0  0  0  2  0  0  0  0  0  0
  182.0260  176.9920  138.6890 N   0  0  1  0  0  0  0  0  0  0  0  0
  182.0760  179.0960  140.4820 C   0  0  2  0  0  3  0  0  0  0  0  0
  182.3000  179.4770  139.0120 C   0  0  0  0  0  2  0  0  0  0  0  0
  183.3710  178.6790  141.1850 C   0  0  2  0  0  0  0  0  0  0  0  0
  184.5910  179.2260  143.0790 O   0  0  0  0  0  1  0  0  0  0  0  0
  184.6340  179.3060  140.8070 C   0  0  0  0  0  2  0  0  0  0  0  0
  183.4760  177.3920  141.7410 O   0  0  0  0  0  1  0  0  0  0  0  0
  183.9290  179.7670  142.0270 N   0  0  0  0  0  0  0  0  0  0  0  0
  192.2260  177.2640  139.1570 C   0  0  0  0  0  2  0  0  0  0  0  0
  193.2430  176.1460  139.2700 C   0  0  0  0  0  2  0  0  0  0  0  0
  194.4300  174.6050  137.6710 N   0  0  0  0  0  2  0  0  0  0  0  0
  194.1560  176.8720  137.1780 O   0  0  0  0  0  0  0  0  0  0  0  0
  193.9330  175.9120  137.9680 C   0  0  0  0  0  0  0  0  0  0  0  0
  195.3860  174.3620  136.5930 C   0  0  1  0  0  3  0  0  0  0  0  0
  195.7030  172.8610  136.5020 C   0  0  1  0  0  3  0  0  0  0  0  0
  196.8460  172.4380  137.4360 C   0  0  0  0  0  2  0  0  0  0  0  0
  197.0670  170.9350  137.4250 C   0  0  0  0  0  2  0  0  0  0  0  0
  198.5450  170.6440  137.2630 C   0  0  0  0  0  2  0  0  0  0  0  0
  199.1220  171.2670  134.9400 C   0  0  0  0  0  1  0  0  0  0  0  0
  199.1690  171.7090  136.3880 C   0  0  0  0  0  2  0  0  0  0  0  0
  194.4620  172.0120  136.7660 C   0  0  0  0  0  2  0  0  0  0  0  0
  194.1680  171.0930  135.5890 C   0  0  0  0  0  2  0  0  0  0  0  0
  193.3230  170.0510  135.9820 O   0  0  0  0  0  0  0  0  0  0  0  0
  194.7730  168.6610  137.2580 C   0  0  0  0  0  1  0  0  0  0  0  0
  194.1250  168.9140  135.9120 C   0  0  0  0  0  2  0  0  0  0  0  0
  194.8270  174.8390  135.3350 N   0  0  0  0  0  2  0  0  0  0  0  0
  195.9250  175.3960  134.5570 C   0  0  0  0  0  2  0  0  0  0  0  0
  196.9150  177.4930  135.1680 O   0  0  0  0  0  1  0  0  0  0  0  0
  196.9040  176.1270  135.4610 C   0  0  0  0  0  3  0  0  0  0  0  0
  198.1860  175.6020  135.2920 O   0  0  0  0  0  1  0  0  0  0  0  0
  1 12  1  1  0  0  0
  1 10  1  0  0  0  0
  2  3  2  0  0  0  0
  2  8  1  0  0  0  0
  3  1  1  0  0  0  0
  5  4  1  0  0  0  0
  6  7  1  0  0  0  0
  6 42  1  1  0  0  0
  7  5  1  1  0  0  0
  8  6  1  0  0  0  0
  9  4  1  0  0  0  0
 10  7  1  0  0  0  0
 10  9  1  1  0  0  0
 11 12  1  0  0  0  0
 13  3  1  0  0  0  0
 14 13  1  0  0  0  0
 15 14  1  0  0  0  0
 15 16  1  0  0  0  0
 16 17  1  0  0  0  0
 18 17  1  0  0  0  0
 18 19  1  0  0  0  0
 20 19  1  0  0  0  0
 21 20  1  6  0  0  0
 21 22  1  0  0  0  0
 23 29  1  0  0  0  0
 23 25  1  0  0  0  0
 26 22  1  6  0  0  0
 26 24  1  0  0  0  0
 27 25  1  1  0  0  0
 27 24  1  0  0  0  0
 27 34  1  0  0  0  0
 28 30  2  0  0  0  0
 29 26  1  0  0  0  0
 30 29  1  0  0  0  0
 30 21  1  0  0  0  0
 31 36  1  0  0  0  0
 32 33  1  0  0  0  0
 34 31  1  6  0  0  0
 34 32  1  0  0  0  0
 35 36  1  6  0  0  0
 35 33  1  0  0  0  0
 35 37  1  0  0  0  0
 37 40  1  1  0  0  0
 37 41  1  0  0  0  0
 39 37  1  0  0  0  0
 39 41  1  0  0  0  0
 41 38  1  0  0  0  0
 42 43  1  0  0  0  0
 44 46  1  0  0  0  0
 45 46  2  0  0  0  0
 46 43  1  0  0  0  0
 47 59  1  6  0  0  0
 47 44  1  0  0  0  0
 48 47  1  0  0  0  0
 48 54  1  1  0  0  0
 48 49  1  0  0  0  0
 50 49  1  0  0  0  0
 51 50  1  0  0  0  0
 52 53  1  0  0  0  0
 53 51  1  0  0  0  0
 55 56  1  0  0  0  0
 55 54  1  0  0  0  0
 58 56  1  0  0  0  0
 58 57  1  0  0  0  0
 60 59  1  0  0  0  0
 60 62  1  0  0  0  0
 61 62  1  0  0  0  0
 63 62  1  0  0  0  0
M  END
>  <MODEL>
9

>  <REMARK>
 VINA RESULT:      -2.7      3.458      7.862
  Name = 
  28 active torsions:
  status: ('A' for Active; 'I' for Inactive)
    1  A    between atoms: C_1  and  C_34
    2  A    between atoms: C_2  and  C_7
    3  A    between atoms: C_2  and  O_25
    4  A    between atoms: C_4  and  C_37
    5  A    between atoms: C_7  and  O_54
    6  A    between atoms: N_9  and  C_38
    7  A    between atoms: C_10  and  O_50
    8  A    between atoms: N_14  and  C_29
    9  A    between atoms: N_14  and  C_57
   10  A    between atoms: N_15  and  C_57
   11  A    between atoms: C_20  and  C_33
   12  A    between atoms: C_20  and  C_55
   13  A    between atoms: C_21  and  C_57
   14  A    between atoms: C_21  and  C_58
   15  A    between atoms: C_21  and  C_62
   16  A    between atoms: C_22  and  C_41
   17  A    between atoms: C_22  and  C_61
   18  A    between atoms: O_25  and  C_26
   19  A    between atoms: C_28  and  C_29
   20  A    between atoms: C_32  and  O_36
   21  A    between atoms: C_32  and  C_62
   22  A    between atoms: C_33  and  C_58
   23  A    between atoms: C_34  and  C_56
   24  A    between atoms: C_35  and  O_54
   25  A    between atoms: C_35  and  C_59
   26  A    between atoms: O_36  and  C_60
   27  A    between atoms: C_44  and  C_61
   28  A    between atoms: C_56  and  C_59
                            x       y       z     vdW  Elec       q    Type
                         _______ _______ _______ _____ _____    ______ ____

>  <TORSDO>
F 28

$$$$
