=
 OpenBabel10232409293D

 53 56  0  0  1  0  0  0  0  0999 V2000
  184.3120  178.6610  144.3480 C   0  0  0  0  0  3  0  0  0  0  0  0
  185.6940  178.4210  144.3180 C   0  0  0  0  0  0  0  0  0  0  0  0
  186.3340  178.2930  143.0570 C   0  0  0  0  0  0  0  0  0  0  0  0
  185.5850  178.4200  141.8810 C   0  0  0  0  0  3  0  0  0  0  0  0
  184.2120  178.6650  141.9290 C   0  0  0  0  0  0  0  0  0  0  0  0
  183.5750  178.7800  143.1690 C   0  0  0  0  0  3  0  0  0  0  0  0
  185.9260  178.6580  146.8760 C   0  0  0  0  0  3  0  0  0  0  0  0
  187.9210  177.8980  147.0440 N   0  0  0  0  0  0  0  0  0  0  0  0
  187.6590  177.8540  145.7500 N   0  0  0  0  0  0  0  0  0  0  0  0
  186.9100  178.3720  147.7510 N   0  0  0  0  0  0  0  0  0  0  0  0
  186.4060  178.3300  145.6180 C   0  0  0  0  0  0  0  0  0  0  0  0
  189.1750  177.4530  147.6250 C   0  0  0  0  0  2  0  0  0  0  0  0
  189.7060  176.3380  146.8580 N   0  0  0  0  0  2  0  0  0  0  0  0
  191.4530  177.3030  145.4860 C   0  0  0  0  0  1  0  0  0  0  0  0
  191.6040  177.2530  147.8540 O   0  0  0  0  0  1  0  0  0  0  0  0
  191.1410  176.5330  146.7510 C   0  0  1  0  0  3  0  0  0  0  0  0
  187.7970  178.0320  142.9060 C   0  0  0  0  0  2  0  0  0  0  0  0
  188.0760  177.3600  141.5760 C   0  0  0  0  0  2  0  0  0  0  0  0
  188.6820  178.3740  140.6280 C   0  0  0  0  0  2  0  0  0  0  0  0
  190.6280  177.1380  139.5210 C   0  0  0  0  0  0  0  0  0  0  0  0
  190.8540  176.5760  138.2800 C   0  0  0  0  0  0  0  0  0  0  0  0
  189.7040  176.7920  137.5380 C   0  0  0  0  0  0  0  0  0  0  0  0
  191.4710  177.1140  140.5830 F   0  0  0  0  0  0  0  0  0  0  0  0
  188.7970  177.4580  138.2840 N   0  0  0  0  0  0  0  0  0  0  0  0
  187.4530  177.8410  137.8750 C   0  0  0  0  0  1  0  0  0  0  0  0
  189.3580  177.6790  139.4920 C   0  0  0  0  0  0  0  0  0  0  0  0
  192.0510  175.7900  137.8710 C   0  0  0  0  0  2  0  0  0  0  0  0
  191.7830  174.4290  137.9960 O   0  0  0  0  0  1  0  0  0  0  0  0
  189.4530  176.2870  136.1530 C   0  0  0  0  0  2  0  0  0  0  0  0
  189.7230  177.2990  135.2290 O   0  0  0  0  0  1  0  0  0  0  0  0
  183.4560  178.8020  140.6440 C   0  0  2  0  0  3  0  0  0  0  0  0
  183.0410  176.5050  140.1660 O   0  0  0  0  0  0  0  0  0  0  0  0
  181.1260  177.8060  140.4690 N   0  0  0  0  0  2  0  0  0  0  0  0
  182.5450  177.6350  140.4170 C   0  0  0  0  0  0  0  0  0  0  0  0
  180.2120  176.6980  140.2390 C   0  0  0  0  0  2  0  0  0  0  0  0
  180.1170  176.4030  138.7500 C   0  0  0  0  0  2  0  0  0  0  0  0
  180.3990  174.9960  138.4940 N   0  0  0  0  0  2  0  0  0  0  0  0
  182.2830  173.2880  136.4080 C   0  0  1  0  0  3  0  0  0  0  0  0
  182.4960  173.5470  135.0380 O   0  0  0  0  0  0  0  0  0  0  0  0
  180.3050  174.7590  137.0570 C   0  0  2  0  0  3  0  0  0  0  0  0
  181.3030  175.5070  134.9690 O   0  0  0  0  0  0  0  0  0  0  0  0
  182.5270  174.8990  134.8080 N   0  0  0  0  0  0  0  0  0  0  0  0
  180.7760  173.3350  136.7100 C   0  0  2  0  0  3  0  0  0  0  0  0
  180.4010  172.4340  137.7130 O   0  0  0  0  0  1  0  0  0  0  0  0
  181.1090  175.8350  136.3230 C   0  0  0  0  0  2  0  0  0  0  0  0
  183.9540  177.3420  134.9390 O   0  0  0  0  0  0  0  0  0  0  0  0
  183.9470  175.7390  135.4780 P   0  0  0  0  0  0  0  0  0  0  0  0
  183.9170  175.7230  137.1720 O   0  0  0  0  0  1  0  0  0  0  0  0
  185.2040  175.0500  134.9980 O   0  0  0  0  0  1  0  0  0  0  0  0
  183.0830  171.6530  136.8410 P   0  0  0  0  0  2  0  0  0  0  0  0
  184.5750  172.3590  137.3830 O   0  0  0  0  0  1  0  0  0  0  0  0
  184.3960  179.0410  139.4690 C   0  0  0  0  0  2  0  0  0  0  0  0
  184.2660  180.3540  139.0140 O   0  0  0  0  0  1  0  0  0  0  0  0
  2  1  1  0  0  0  0
  2 11  1  0  0  0  0
  3  2  2  0  0  0  0
  4  5  2  0  0  0  0
  4  3  1  0  0  0  0
  5  6  1  0  0  0  0
  6  1  2  0  0  0  0
  7 10  2  0  0  0  0
  8 12  1  0  0  0  0
  8 10  1  0  0  0  0
  9  8  1  0  0  0  0
 11  9  2  0  0  0  0
 11  7  1  0  0  0  0
 13 12  1  0  0  0  0
 16 14  1  6  0  0  0
 16 13  1  0  0  0  0
 16 15  1  0  0  0  0
 17  3  1  0  0  0  0
 18 17  1  0  0  0  0
 19 18  1  0  0  0  0
 20 23  1  0  0  0  0
 21 20  1  0  0  0  0
 22 21  2  0  0  0  0
 22 24  1  0  0  0  0
 24 26  1  0  0  0  0
 25 24  1  0  0  0  0
 26 20  2  0  0  0  0
 26 19  1  0  0  0  0
 27 28  1  0  0  0  0
 27 21  1  0  0  0  0
 29 22  1  0  0  0  0
 30 29  1  0  0  0  0
 31 52  1  6  0  0  0
 31  5  1  0  0  0  0
 32 34  2  0  0  0  0
 34 33  1  0  0  0  0
 34 31  1  0  0  0  0
 35 33  1  0  0  0  0
 36 35  1  0  0  0  0
 37 36  1  0  0  0  0
 38 43  1  0  0  0  0
 38 50  1  6  0  0  0
 39 38  1  0  0  0  0
 40 37  1  1  0  0  0
 41 45  1  0  0  0  0
 42 41  1  0  0  0  0
 42 39  1  0  0  0  0
 42 47  1  0  0  0  0
 43 40  1  0  0  0  0
 43 44  1  1  0  0  0
 45 40  1  0  0  0  0
 46 47  2  0  0  0  0
 47 48  1  0  0  0  0
 49 47  1  0  0  0  0
 50 51  1  0  0  0  0
 53 52  1  0  0  0  0
M  END
>  <MODEL>
1

>  <REMARK>
 VINA RESULT:      -7.7      0.000      0.000
  Name = 
  19 active torsions:
  status: ('A' for Active; 'I' for Inactive)
    1  A    between atoms: C_2  and  C_3
    2  A    between atoms: C_4  and  N_35
    3  A    between atoms: C_4  and  N_45
    4  A    between atoms: C_5  and  C_19
    5  A    between atoms: N_6  and  C_12
    6  A    between atoms: N_6  and  C_25
    7  A    between atoms: C_10  and  P_15
    8  A    between atoms: C_12  and  C_21
    9  A    between atoms: C_13  and  C_18
   10  A    between atoms: C_13  and  C_48
   11  A    between atoms: C_18  and  C_33
   12  A    between atoms: C_21  and  N_30
   13  A    between atoms: C_22  and  C_34
   14  A    between atoms: P_23  and  N_29
   15  A    between atoms: C_24  and  C_51
   16  A    between atoms: C_34  and  C_42
   17  A    between atoms: C_34  and  C_50
   18  A    between atoms: C_41  and  C_48
   19  A    between atoms: N_45  and  C_52
                            x       y       z     vdW  Elec       q    Type
                         _______ _______ _______ _____ _____    ______ ____

>  <TORSDO>
F 19

$$$$
=
 OpenBabel10232409293D

 53 56  0  0  1  0  0  0  0  0999 V2000
  185.6930  178.4680  146.0950 C   0  0  0  0  0  3  0  0  0  0  0  0
  186.8700  177.8980  145.5850 C   0  0  0  0  0  0  0  0  0  0  0  0
  186.8910  177.4850  144.2270 C   0  0  0  0  0  0  0  0  0  0  0  0
  185.7570  177.6650  143.4280 C   0  0  0  0  0  3  0  0  0  0  0  0
  184.5970  178.2390  143.9480 C   0  0  0  0  0  0  0  0  0  0  0  0
  184.5660  178.6360  145.2900 C   0  0  0  0  0  3  0  0  0  0  0  0
  188.1800  178.3340  147.7640 C   0  0  0  0  0  3  0  0  0  0  0  0
  189.9010  177.1480  147.2930 N   0  0  0  0  0  0  0  0  0  0  0  0
  189.1220  177.0360  146.2320 N   0  0  0  0  0  0  0  0  0  0  0  0
  189.3730  177.9160  148.2310 N   0  0  0  0  0  0  0  0  0  0  0  0
  188.0300  177.7760  146.5040 C   0  0  0  0  0  0  0  0  0  0  0  0
  191.1860  176.4840  147.4200 C   0  0  0  0  0  2  0  0  0  0  0  0
  191.9440  176.6400  146.1890 N   0  0  0  0  0  2  0  0  0  0  0  0
  191.7630  175.7850  143.9300 C   0  0  0  0  0  1  0  0  0  0  0  0
  192.7520  174.5140  145.6740 O   0  0  0  0  0  1  0  0  0  0  0  0
  191.7390  175.4360  145.4020 C   0  0  1  0  0  3  0  0  0  0  0  0
  188.0860  176.8620  143.5810 C   0  0  0  0  0  2  0  0  0  0  0  0
  188.8720  177.9060  142.8140 C   0  0  0  0  0  2  0  0  0  0  0  0
  188.0620  178.3510  141.6130 C   0  0  0  0  0  2  0  0  0  0  0  0
  190.0090  177.4100  140.2480 C   0  0  0  0  0  0  0  0  0  0  0  0
  190.2140  177.0980  138.9180 C   0  0  0  0  0  0  0  0  0  0  0  0
  189.0370  177.4090  138.2580 C   0  0  0  0  0  0  0  0  0  0  0  0
  190.8840  177.2170  141.2660 F   0  0  0  0  0  0  0  0  0  0  0  0
  188.1330  177.8930  139.1370 N   0  0  0  0  0  0  0  0  0  0  0  0
  186.7670  178.3000  138.8390 C   0  0  0  0  0  1  0  0  0  0  0  0
  188.7230  177.9030  140.3510 C   0  0  0  0  0  0  0  0  0  0  0  0
  191.4210  176.4440  138.3410 C   0  0  0  0  0  2  0  0  0  0  0  0
  191.2880  175.0590  138.4260 O   0  0  0  0  0  1  0  0  0  0  0  0
  188.7590  177.1640  136.8090 C   0  0  0  0  0  2  0  0  0  0  0  0
  189.3130  178.1920  136.0440 O   0  0  0  0  0  1  0  0  0  0  0  0
  183.4110  178.4190  143.0510 C   0  0  2  0  0  3  0  0  0  0  0  0
  184.6470  179.4980  141.3230 O   0  0  0  0  0  0  0  0  0  0  0  0
  183.2860  177.7420  140.6070 N   0  0  0  0  0  2  0  0  0  0  0  0
  183.8270  178.5900  141.6230 C   0  0  0  0  0  0  0  0  0  0  0  0
  183.6560  177.8900  139.2070 C   0  0  0  0  0  2  0  0  0  0  0  0
  182.7270  177.0600  138.3340 C   0  0  0  0  0  2  0  0  0  0  0  0
  183.3160  175.7530  138.0690 N   0  0  0  0  0  2  0  0  0  0  0  0
  183.8180  173.3290  135.9050 C   0  0  1  0  0  3  0  0  0  0  0  0
  184.8020  173.2720  134.8950 O   0  0  0  0  0  0  0  0  0  0  0  0
  183.8360  175.7490  136.7060 C   0  0  2  0  0  3  0  0  0  0  0  0
  185.8690  175.2180  135.4810 O   0  0  0  0  0  0  0  0  0  0  0  0
  185.9650  173.8530  135.3320 N   0  0  0  0  0  0  0  0  0  0  0  0
  183.1090  174.6930  135.8520 C   0  0  2  0  0  3  0  0  0  0  0  0
  181.7600  174.6120  136.2120 O   0  0  0  0  0  1  0  0  0  0  0  0
  185.3490  175.5220  136.7520 C   0  0  0  0  0  2  0  0  0  0  0  0
  188.2900  173.7150  136.9430 O   0  0  0  0  0  1  0  0  0  0  0  0
  186.8180  172.9530  136.6090 P   0  0  0  0  0  0  0  0  0  0  0  0
  185.8920  172.8900  138.0270 O   0  0  0  0  0  1  0  0  0  0  0  0
  187.0870  171.5450  136.1300 O   0  0  0  0  0  0  0  0  0  0  0  0
  182.6580  171.8750  135.6950 P   0  0  0  0  0  2  0  0  0  0  0  0
  183.5560  170.8200  136.7430 O   0  0  0  0  0  1  0  0  0  0  0  0
  182.5160  179.5530  143.5350 C   0  0  0  0  0  2  0  0  0  0  0  0
  181.2690  179.4740  142.9140 O   0  0  0  0  0  1  0  0  0  0  0  0
  2  1  1  0  0  0  0
  2 11  1  0  0  0  0
  3  2  2  0  0  0  0
  4  5  2  0  0  0  0
  4  3  1  0  0  0  0
  5  6  1  0  0  0  0
  6  1  2  0  0  0  0
  7 10  2  0  0  0  0
  8 12  1  0  0  0  0
  8 10  1  0  0  0  0
  9 11  2  0  0  0  0
  9  8  1  0  0  0  0
 11  7  1  0  0  0  0
 13 12  1  0  0  0  0
 16 14  1  6  0  0  0
 16 15  1  0  0  0  0
 16 13  1  0  0  0  0
 17  3  1  0  0  0  0
 18 17  1  0  0  0  0
 19 18  1  0  0  0  0
 20 26  2  0  0  0  0
 20 23  1  0  0  0  0
 21 20  1  0  0  0  0
 22 21  2  0  0  0  0
 22 24  1  0  0  0  0
 24 26  1  0  0  0  0
 25 24  1  0  0  0  0
 26 19  1  0  0  0  0
 27 28  1  0  0  0  0
 27 21  1  0  0  0  0
 29 22  1  0  0  0  0
 30 29  1  0  0  0  0
 31 52  1  1  0  0  0
 31  5  1  0  0  0  0
 32 34  2  0  0  0  0
 33 34  1  0  0  0  0
 34 31  1  0  0  0  0
 35 33  1  0  0  0  0
 36 35  1  0  0  0  0
 37 36  1  0  0  0  0
 38 50  1  6  0  0  0
 39 42  1  0  0  0  0
 39 38  1  0  0  0  0
 40 45  1  0  0  0  0
 40 37  1  1  0  0  0
 41 45  1  0  0  0  0
 42 41  1  0  0  0  0
 42 47  1  0  0  0  0
 43 38  1  0  0  0  0
 43 44  1  1  0  0  0
 43 40  1  0  0  0  0
 47 46  1  0  0  0  0
 47 48  1  0  0  0  0
 49 47  2  0  0  0  0
 50 51  1  0  0  0  0
 53 52  1  0  0  0  0
M  END
>  <MODEL>
2

>  <REMARK>
 VINA RESULT:      -7.5      1.940      2.686
  Name = 
  19 active torsions:
  status: ('A' for Active; 'I' for Inactive)
    1  A    between atoms: C_2  and  C_3
    2  A    between atoms: C_4  and  N_35
    3  A    between atoms: C_4  and  N_45
    4  A    between atoms: C_5  and  C_19
    5  A    between atoms: N_6  and  C_12
    6  A    between atoms: N_6  and  C_25
    7  A    between atoms: C_10  and  P_15
    8  A    between atoms: C_12  and  C_21
    9  A    between atoms: C_13  and  C_18
   10  A    between atoms: C_13  and  C_48
   11  A    between atoms: C_18  and  C_33
   12  A    between atoms: C_21  and  N_30
   13  A    between atoms: C_22  and  C_34
   14  A    between atoms: P_23  and  N_29
   15  A    between atoms: C_24  and  C_51
   16  A    between atoms: C_34  and  C_42
   17  A    between atoms: C_34  and  C_50
   18  A    between atoms: C_41  and  C_48
   19  A    between atoms: N_45  and  C_52
                            x       y       z     vdW  Elec       q    Type
                         _______ _______ _______ _____ _____    ______ ____

>  <TORSDO>
F 19

$$$$
=
 OpenBabel10232409293D

 53 56  0  0  1  0  0  0  0  0999 V2000
  187.3420  177.7080  137.9560 C   0  0  0  0  0  3  0  0  0  0  0  0
  187.1540  178.1830  139.2630 C   0  0  0  0  0  0  0  0  0  0  0  0
  188.2750  178.2360  140.1340 C   0  0  0  0  0  0  0  0  0  0  0  0
  189.5330  177.8330  139.6730 C   0  0  0  0  0  3  0  0  0  0  0  0
  189.7040  177.3700  138.3680 C   0  0  0  0  0  0  0  0  0  0  0  0
  188.6010  177.3030  137.5100 C   0  0  0  0  0  3  0  0  0  0  0  0
  184.8600  179.2970  138.8790 C   0  0  0  0  0  3  0  0  0  0  0  0
  184.0130  178.8520  140.7950 N   0  0  0  0  0  0  0  0  0  0  0  0
  185.2310  178.3440  140.8470 N   0  0  0  0  0  0  0  0  0  0  0  0
  183.7530  179.4300  139.6350 N   0  0  0  0  0  0  0  0  0  0  0  0
  185.7870  178.6130  139.6490 C   0  0  0  0  0  0  0  0  0  0  0  0
  183.0590  178.7650  141.8860 C   0  0  0  0  0  2  0  0  0  0  0  0
  183.7660  178.5970  143.1460 N   0  0  0  0  0  2  0  0  0  0  0  0
  181.5850  178.6970  144.1940 C   0  0  0  0  0  1  0  0  0  0  0  0
  183.5810  179.0840  145.4190 O   0  0  0  0  0  1  0  0  0  0  0  0
  182.9850  179.2700  144.1690 C   0  0  1  0  0  3  0  0  0  0  0  0
  188.1900  178.7180  141.5460 C   0  0  0  0  0  2  0  0  0  0  0  0
  189.2400  178.0340  142.3980 C   0  0  0  0  0  2  0  0  0  0  0  0
  188.6020  176.8720  143.1310 C   0  0  0  0  0  2  0  0  0  0  0  0
  190.2130  176.7990  145.1150 C   0  0  0  0  0  0  0  0  0  0  0  0
  190.0890  176.9300  146.4850 C   0  0  0  0  0  0  0  0  0  0  0  0
  188.7440  177.1400  146.7370 C   0  0  0  0  0  0  0  0  0  0  0  0
  191.3670  176.6330  144.4220 F   0  0  0  0  0  0  0  0  0  0  0  0
  188.0550  177.1420  145.5750 N   0  0  0  0  0  0  0  0  0  0  0  0
  186.6250  177.3650  145.4160 C   0  0  0  0  0  1  0  0  0  0  0  0
  188.9450  176.9270  144.5830 C   0  0  0  0  0  0  0  0  0  0  0  0
  191.2030  176.9610  147.4730 C   0  0  0  0  0  2  0  0  0  0  0  0
  192.2780  176.2170  146.9910 O   0  0  0  0  0  1  0  0  0  0  0  0
  188.1410  177.4190  148.0770 C   0  0  0  0  0  2  0  0  0  0  0  0
  187.9990  178.7970  148.2510 O   0  0  0  0  0  1  0  0  0  0  0  0
  191.0720  176.9590  137.9190 C   0  0  2  0  0  3  0  0  0  0  0  0
  191.6090  175.6800  135.9810 O   0  0  0  0  0  0  0  0  0  0  0  0
  190.3110  174.5620  137.5660 N   0  0  0  0  0  2  0  0  0  0  0  0
  191.0250  175.7080  137.0960 C   0  0  0  0  0  0  0  0  0  0  0  0
  190.2320  173.3360  136.7870 C   0  0  0  0  0  2  0  0  0  0  0  0
  189.3080  173.5360  135.5950 C   0  0  0  0  0  2  0  0  0  0  0  0
  187.9700  173.8980  136.0480 N   0  0  0  0  0  2  0  0  0  0  0  0
  184.8590  174.8390  135.5500 C   0  0  1  0  0  3  0  0  0  0  0  0
  183.8540  174.1420  134.8470 O   0  0  0  0  0  0  0  0  0  0  0  0
  187.0290  173.6390  134.9620 C   0  0  2  0  0  3  0  0  0  0  0  0
  185.0980  172.2530  134.4520 O   0  0  0  0  0  0  0  0  0  0  0  0
  183.9820  172.7910  135.0510 N   0  0  0  0  0  0  0  0  0  0  0  0
  186.1450  174.8730  134.7060 C   0  0  2  0  0  3  0  0  0  0  0  0
  186.8770  176.0500  134.8900 O   0  0  0  0  0  1  0  0  0  0  0  0
  186.2090  172.3920  135.3020 C   0  0  0  0  0  2  0  0  0  0  0  0
  182.1510  172.9520  137.2060 O   0  0  0  0  0  1  0  0  0  0  0  0
  183.6020  172.2450  136.7030 P   0  0  0  0  0  0  0  0  0  0  0  0
  183.4480  170.5590  136.7620 O   0  0  0  0  0  0  0  0  0  0  0  0
  184.7120  172.6750  137.6350 O   0  0  0  0  0  1  0  0  0  0  0  0
  184.2100  176.5370  135.9930 P   0  0  0  0  0  2  0  0  0  0  0  0
  183.8660  176.1350  137.6480 O   0  0  0  0  0  1  0  0  0  0  0  0
  192.0320  176.8430  139.0970 C   0  0  0  0  0  2  0  0  0  0  0  0
  193.3490  176.7980  138.6360 O   0  0  0  0  0  1  0  0  0  0  0  0
  1  2  1  0  0  0  0
  2 11  1  0  0  0  0
  2  3  2  0  0  0  0
  3 17  1  0  0  0  0
  4  3  1  0  0  0  0
  5  4  2  0  0  0  0
  6  1  2  0  0  0  0
  6  5  1  0  0  0  0
  7 10  2  0  0  0  0
  7 11  1  0  0  0  0
  8  9  1  0  0  0  0
  8 12  1  0  0  0  0
 10  8  1  0  0  0  0
 11  9  2  0  0  0  0
 12 13  1  0  0  0  0
 13 16  1  0  0  0  0
 16 14  1  1  0  0  0
 16 15  1  0  0  0  0
 17 18  1  0  0  0  0
 18 19  1  0  0  0  0
 19 26  1  0  0  0  0
 20 21  1  0  0  0  0
 21 22  2  0  0  0  0
 21 27  1  0  0  0  0
 22 29  1  0  0  0  0
 23 20  1  0  0  0  0
 24 22  1  0  0  0  0
 25 24  1  0  0  0  0
 26 20  2  0  0  0  0
 26 24  1  0  0  0  0
 28 27  1  0  0  0  0
 29 30  1  0  0  0  0
 31  5  1  0  0  0  0
 31 52  1  1  0  0  0
 32 34  2  0  0  0  0
 34 33  1  0  0  0  0
 34 31  1  0  0  0  0
 35 33  1  0  0  0  0
 36 37  1  0  0  0  0
 36 35  1  0  0  0  0
 38 50  1  6  0  0  0
 39 42  1  0  0  0  0
 39 38  1  0  0  0  0
 40 45  1  0  0  0  0
 40 37  1  1  0  0  0
 41 42  1  0  0  0  0
 41 45  1  0  0  0  0
 42 47  1  0  0  0  0
 43 44  1  1  0  0  0
 43 40  1  0  0  0  0
 43 38  1  0  0  0  0
 47 48  2  0  0  0  0
 47 46  1  0  0  0  0
 47 49  1  0  0  0  0
 50 51  1  0  0  0  0
 53 52  1  0  0  0  0
M  END
>  <MODEL>
3

>  <REMARK>
 VINA RESULT:      -7.4      2.428      7.353
  Name = 
  19 active torsions:
  status: ('A' for Active; 'I' for Inactive)
    1  A    between atoms: C_2  and  C_3
    2  A    between atoms: C_4  and  N_35
    3  A    between atoms: C_4  and  N_45
    4  A    between atoms: C_5  and  C_19
    5  A    between atoms: N_6  and  C_12
    6  A    between atoms: N_6  and  C_25
    7  A    between atoms: C_10  and  P_15
    8  A    between atoms: C_12  and  C_21
    9  A    between atoms: C_13  and  C_18
   10  A    between atoms: C_13  and  C_48
   11  A    between atoms: C_18  and  C_33
   12  A    between atoms: C_21  and  N_30
   13  A    between atoms: C_22  and  C_34
   14  A    between atoms: P_23  and  N_29
   15  A    between atoms: C_24  and  C_51
   16  A    between atoms: C_34  and  C_42
   17  A    between atoms: C_34  and  C_50
   18  A    between atoms: C_41  and  C_48
   19  A    between atoms: N_45  and  C_52
                            x       y       z     vdW  Elec       q    Type
                         _______ _______ _______ _____ _____    ______ ____

>  <TORSDO>
F 19

$$$$
=
 OpenBabel10232409293D

 53 56  0  0  1  0  0  0  0  0999 V2000
  185.3430  178.4090  138.9120 C   0  0  0  0  0  3  0  0  0  0  0  0
  186.7220  178.2570  139.1260 C   0  0  0  0  0  0  0  0  0  0  0  0
  187.2030  178.2270  140.4620 C   0  0  0  0  0  0  0  0  0  0  0  0
  186.3020  178.3330  141.5270 C   0  0  0  0  0  3  0  0  0  0  0  0
  184.9330  178.4770  141.2970 C   0  0  0  0  0  0  0  0  0  0  0  0
  184.4560  178.5200  139.9820 C   0  0  0  0  0  3  0  0  0  0  0  0
  187.8860  179.0870  136.9780 C   0  0  0  0  0  3  0  0  0  0  0  0
  188.9560  177.2860  136.5310 N   0  0  0  0  0  0  0  0  0  0  0  0
  188.2780  177.0030  137.6290 N   0  0  0  0  0  0  0  0  0  0  0  0
  188.7480  178.5220  136.1110 N   0  0  0  0  0  0  0  0  0  0  0  0
  187.5940  178.1240  137.9310 C   0  0  0  0  0  0  0  0  0  0  0  0
  189.8460  176.3470  135.8710 C   0  0  0  0  0  2  0  0  0  0  0  0
  190.9190  175.9670  136.7770 N   0  0  0  0  0  2  0  0  0  0  0  0
  191.5650  174.0340  135.4690 C   0  0  0  0  0  1  0  0  0  0  0  0
  191.7930  174.0800  137.8310 O   0  0  0  0  0  1  0  0  0  0  0  0
  190.9840  174.5160  136.7800 C   0  0  1  0  0  3  0  0  0  0  0  0
  188.6490  178.0750  140.8060 C   0  0  0  0  0  2  0  0  0  0  0  0
  188.8580  178.2800  142.2930 C   0  0  0  0  0  2  0  0  0  0  0  0
  189.0290  176.9290  142.9590 C   0  0  0  0  0  2  0  0  0  0  0  0
  188.6350  177.6620  145.3770 C   0  0  0  0  0  0  0  0  0  0  0  0
  189.3680  177.6150  146.5470 C   0  0  0  0  0  0  0  0  0  0  0  0
  190.5780  177.0230  146.2280 C   0  0  0  0  0  0  0  0  0  0  0  0
  187.3650  178.1170  145.2380 F   0  0  0  0  0  0  0  0  0  0  0  0
  190.6020  176.7110  144.9140 N   0  0  0  0  0  0  0  0  0  0  0  0
  191.6840  176.0460  144.2020 C   0  0  0  0  0  1  0  0  0  0  0  0
  189.4230  177.1050  144.3880 C   0  0  0  0  0  0  0  0  0  0  0  0
  188.8930  178.0120  147.9020 C   0  0  0  0  0  2  0  0  0  0  0  0
  188.1720  176.9640  148.4720 O   0  0  0  0  0  1  0  0  0  0  0  0
  191.6670  176.6870  147.1960 C   0  0  0  0  0  2  0  0  0  0  0  0
  191.5520  175.3510  147.5870 O   0  0  0  0  0  1  0  0  0  0  0  0
  184.0080  178.5780  142.4700 C   0  0  2  0  0  3  0  0  0  0  0  0
  181.7860  179.4300  142.5920 O   0  0  0  0  0  0  0  0  0  0  0  0
  182.1050  177.7450  141.0090 N   0  0  0  0  0  2  0  0  0  0  0  0
  182.5750  178.6220  142.0350 C   0  0  0  0  0  0  0  0  0  0  0  0
  180.7170  177.7510  140.5720 C   0  0  0  0  0  2  0  0  0  0  0  0
  180.3040  176.3530  140.1370 C   0  0  0  0  0  2  0  0  0  0  0  0
  181.3630  175.7340  139.3490 N   0  0  0  0  0  2  0  0  0  0  0  0
  182.1560  173.9100  136.7300 C   0  0  1  0  0  3  0  0  0  0  0  0
  182.2840  174.3410  135.3930 O   0  0  0  0  0  0  0  0  0  0  0  0
  181.0100  175.8410  137.9370 C   0  0  2  0  0  3  0  0  0  0  0  0
  181.9590  176.5730  135.8220 O   0  0  0  0  0  0  0  0  0  0  0  0
  182.8170  175.6050  135.3500 N   0  0  0  0  0  0  0  0  0  0  0  0
  180.8360  174.4430  137.3150 C   0  0  2  0  0  3  0  0  0  0  0  0
  180.2620  173.5620  138.2360 O   0  0  0  0  0  1  0  0  0  0  0  0
  182.0760  176.6720  137.2200 C   0  0  0  0  0  2  0  0  0  0  0  0
  185.0960  177.2750  135.5350 O   0  0  0  0  0  1  0  0  0  0  0  0
  184.5220  175.7160  135.8480 P   0  0  0  0  0  0  0  0  0  0  0  0
  184.6930  175.3830  137.5010 O   0  0  0  0  0  1  0  0  0  0  0  0
  185.3380  174.7200  135.0550 O   0  0  0  0  0  0  0  0  0  0  0  0
  182.2940  172.0450  136.7750 P   0  0  0  0  0  2  0  0  0  0  0  0
  183.9700  172.0340  137.2320 O   0  0  0  0  0  1  0  0  0  0  0  0
  184.3780  179.7510  143.3690 C   0  0  0  0  0  2  0  0  0  0  0  0
  184.5230  179.3150  144.6870 O   0  0  0  0  0  1  0  0  0  0  0  0
  1  2  2  0  0  0  0
  1  6  1  0  0  0  0
  2  3  1  0  0  0  0
  3 17  1  0  0  0  0
  3  4  2  0  0  0  0
  5  4  1  0  0  0  0
  5 31  1  0  0  0  0
  6  5  2  0  0  0  0
  7 11  1  0  0  0  0
  8  9  1  0  0  0  0
  9 11  2  0  0  0  0
 10  8  1  0  0  0  0
 10  7  2  0  0  0  0
 11  2  1  0  0  0  0
 12  8  1  0  0  0  0
 12 13  1  0  0  0  0
 13 16  1  0  0  0  0
 16 14  1  6  0  0  0
 16 15  1  0  0  0  0
 17 18  1  0  0  0  0
 18 19  1  0  0  0  0
 19 26  1  0  0  0  0
 20 21  1  0  0  0  0
 21 27  1  0  0  0  0
 22 21  2  0  0  0  0
 22 29  1  0  0  0  0
 23 20  1  0  0  0  0
 24 22  1  0  0  0  0
 25 24  1  0  0  0  0
 26 24  1  0  0  0  0
 26 20  2  0  0  0  0
 27 28  1  0  0  0  0
 29 30  1  0  0  0  0
 31 52  1  6  0  0  0
 33 34  1  0  0  0  0
 34 31  1  0  0  0  0
 34 32  2  0  0  0  0
 35 33  1  0  0  0  0
 36 35  1  0  0  0  0
 37 36  1  0  0  0  0
 38 50  1  6  0  0  0
 38 43  1  0  0  0  0
 39 38  1  0  0  0  0
 40 37  1  1  0  0  0
 41 45  1  0  0  0  0
 42 39  1  0  0  0  0
 42 41  1  0  0  0  0
 42 47  1  0  0  0  0
 43 40  1  0  0  0  0
 43 44  1  1  0  0  0
 45 40  1  0  0  0  0
 46 47  1  0  0  0  0
 47 48  1  0  0  0  0
 49 47  2  0  0  0  0
 50 51  1  0  0  0  0
 52 53  1  0  0  0  0
M  END
>  <MODEL>
4

>  <REMARK>
 VINA RESULT:      -6.7      2.082      6.338
  Name = 
  19 active torsions:
  status: ('A' for Active; 'I' for Inactive)
    1  A    between atoms: C_2  and  C_3
    2  A    between atoms: C_4  and  N_35
    3  A    between atoms: C_4  and  N_45
    4  A    between atoms: C_5  and  C_19
    5  A    between atoms: N_6  and  C_12
    6  A    between atoms: N_6  and  C_25
    7  A    between atoms: C_10  and  P_15
    8  A    between atoms: C_12  and  C_21
    9  A    between atoms: C_13  and  C_18
   10  A    between atoms: C_13  and  C_48
   11  A    between atoms: C_18  and  C_33
   12  A    between atoms: C_21  and  N_30
   13  A    between atoms: C_22  and  C_34
   14  A    between atoms: P_23  and  N_29
   15  A    between atoms: C_24  and  C_51
   16  A    between atoms: C_34  and  C_42
   17  A    between atoms: C_34  and  C_50
   18  A    between atoms: C_41  and  C_48
   19  A    between atoms: N_45  and  C_52
                            x       y       z     vdW  Elec       q    Type
                         _______ _______ _______ _____ _____    ______ ____

>  <TORSDO>
F 19

$$$$
=
 OpenBabel10232409293D

 53 56  0  0  1  0  0  0  0  0999 V2000
  187.8850  177.9440  137.9880 C   0  0  0  0  0  3  0  0  0  0  0  0
  187.5700  178.1880  139.3330 C   0  0  0  0  0  0  0  0  0  0  0  0
  188.5790  177.9880  140.3140 C   0  0  0  0  0  0  0  0  0  0  0  0
  189.8550  177.5700  139.9220 C   0  0  0  0  0  3  0  0  0  0  0  0
  190.1530  177.3380  138.5790 C   0  0  0  0  0  0  0  0  0  0  0  0
  189.1600  177.5220  137.6110 C   0  0  0  0  0  3  0  0  0  0  0  0
  185.7050  179.1030  140.8620 C   0  0  0  0  0  3  0  0  0  0  0  0
  184.1680  179.2310  139.3750 N   0  0  0  0  0  0  0  0  0  0  0  0
  185.2130  178.7470  138.7280 N   0  0  0  0  0  0  0  0  0  0  0  0
  184.4220  179.4570  140.6520 N   0  0  0  0  0  0  0  0  0  0  0  0
  186.1960  178.6560  139.6450 C   0  0  0  0  0  0  0  0  0  0  0  0
  182.8890  179.5030  138.7440 C   0  0  0  0  0  2  0  0  0  0  0  0
  181.8320  179.4760  139.7430 N   0  0  0  0  0  2  0  0  0  0  0  0
  180.3250  178.4640  138.1410 C   0  0  0  0  0  1  0  0  0  0  0  0
  181.8250  177.1640  139.4420 O   0  0  0  0  0  1  0  0  0  0  0  0
  181.0180  178.3030  139.4760 C   0  0  1  0  0  3  0  0  0  0  0  0
  188.3540  178.2110  141.7730 C   0  0  0  0  0  2  0  0  0  0  0  0
  189.3580  177.4190  142.5860 C   0  0  0  0  0  2  0  0  0  0  0  0
  188.6210  176.3710  143.3960 C   0  0  0  0  0  2  0  0  0  0  0  0
  188.8430  177.1860  145.8100 C   0  0  0  0  0  0  0  0  0  0  0  0
  187.9940  177.7690  146.7300 C   0  0  0  0  0  0  0  0  0  0  0  0
  186.7640  177.8920  146.1040 C   0  0  0  0  0  0  0  0  0  0  0  0
  190.1630  176.9270  145.9810 F   0  0  0  0  0  0  0  0  0  0  0  0
  186.8410  177.4080  144.8460 N   0  0  0  0  0  0  0  0  0  0  0  0
  185.7710  177.3900  143.8590 C   0  0  0  0  0  1  0  0  0  0  0  0
  188.1040  176.9690  144.6630 C   0  0  0  0  0  0  0  0  0  0  0  0
  188.3680  178.2740  148.0810 C   0  0  0  0  0  2  0  0  0  0  0  0
  188.3080  177.2320  149.0030 O   0  0  0  0  0  1  0  0  0  0  0  0
  185.5520  178.5450  146.6870 C   0  0  0  0  0  2  0  0  0  0  0  0
  185.5460  179.9030  146.3590 O   0  0  0  0  0  1  0  0  0  0  0  0
  191.5370  176.9000  138.2090 C   0  0  2  0  0  3  0  0  0  0  0  0
  192.5060  175.2430  136.7970 O   0  0  0  0  0  0  0  0  0  0  0  0
  190.4010  174.7000  137.6460 N   0  0  0  0  0  2  0  0  0  0  0  0
  191.5240  175.5740  137.5130 C   0  0  0  0  0  0  0  0  0  0  0  0
  190.3480  173.4110  136.9730 C   0  0  0  0  0  2  0  0  0  0  0  0
  189.4420  173.4990  135.7540 C   0  0  0  0  0  2  0  0  0  0  0  0
  188.0960  173.8920  136.1520 N   0  0  0  0  0  2  0  0  0  0  0  0
  185.1290  175.1080  135.4210 C   0  0  1  0  0  3  0  0  0  0  0  0
  184.1010  174.4770  134.6890 O   0  0  0  0  0  0  0  0  0  0  0  0
  187.1980  173.6720  135.0230 C   0  0  2  0  0  3  0  0  0  0  0  0
  185.1690  172.4580  134.4560 O   0  0  0  0  0  0  0  0  0  0  0  0
  184.0800  173.1320  134.9610 N   0  0  0  0  0  0  0  0  0  0  0  0
  186.4580  174.9730  134.6580 C   0  0  2  0  0  3  0  0  0  0  0  0
  187.2930  176.0810  134.8340 O   0  0  0  0  0  1  0  0  0  0  0  0
  186.2380  172.5310  135.3670 C   0  0  0  0  0  2  0  0  0  0  0  0
  183.7480  171.0470  136.8480 O   0  0  0  0  0  1  0  0  0  0  0  0
  183.5540  172.7100  136.6080 P   0  0  0  0  0  0  0  0  0  0  0  0
  184.4620  173.5480  137.7680 O   0  0  0  0  0  1  0  0  0  0  0  0
  182.0930  173.0660  136.7700 O   0  0  0  0  0  0  0  0  0  0  0  0
  184.6310  176.8810  135.7480 P   0  0  0  0  0  2  0  0  0  0  0  0
  183.1130  176.4730  136.4890 O   0  0  0  0  0  1  0  0  0  0  0  0
  192.4640  176.9130  139.4180 C   0  0  0  0  0  2  0  0  0  0  0  0
  193.7880  176.7530  139.0040 O   0  0  0  0  0  1  0  0  0  0  0  0
  1  2  1  0  0  0  0
  2 11  1  0  0  0  0
  2  3  2  0  0  0  0
  3 17  1  0  0  0  0
  4  3  1  0  0  0  0
  5  4  2  0  0  0  0
  6  1  2  0  0  0  0
  6  5  1  0  0  0  0
  8 10  1  0  0  0  0
  9  8  1  0  0  0  0
  9 11  2  0  0  0  0
 10  7  2  0  0  0  0
 11  7  1  0  0  0  0
 12  8  1  0  0  0  0
 12 13  1  0  0  0  0
 15 16  1  0  0  0  0
 16 14  1  6  0  0  0
 16 13  1  0  0  0  0
 17 18  1  0  0  0  0
 18 19  1  0  0  0  0
 19 26  1  0  0  0  0
 20 23  1  0  0  0  0
 20 21  1  0  0  0  0
 21 27  1  0  0  0  0
 22 29  1  0  0  0  0
 22 21  2  0  0  0  0
 24 22  1  0  0  0  0
 25 24  1  0  0  0  0
 26 24  1  0  0  0  0
 26 20  2  0  0  0  0
 27 28  1  0  0  0  0
 30 29  1  0  0  0  0
 31  5  1  0  0  0  0
 31 52  1  1  0  0  0
 32 34  2  0  0  0  0
 34 33  1  0  0  0  0
 34 31  1  0  0  0  0
 35 33  1  0  0  0  0
 36 37  1  0  0  0  0
 36 35  1  0  0  0  0
 38 50  1  6  0  0  0
 39 42  1  0  0  0  0
 39 38  1  0  0  0  0
 40 45  1  0  0  0  0
 40 37  1  1  0  0  0
 41 42  1  0  0  0  0
 41 45  1  0  0  0  0
 42 47  1  0  0  0  0
 43 44  1  1  0  0  0
 43 40  1  0  0  0  0
 43 38  1  0  0  0  0
 47 49  2  0  0  0  0
 47 46  1  0  0  0  0
 47 48  1  0  0  0  0
 50 51  1  0  0  0  0
 53 52  1  0  0  0  0
M  END
>  <MODEL>
5

>  <REMARK>
 VINA RESULT:      -6.6      2.500      7.970
  Name = 
  19 active torsions:
  status: ('A' for Active; 'I' for Inactive)
    1  A    between atoms: C_2  and  C_3
    2  A    between atoms: C_4  and  N_35
    3  A    between atoms: C_4  and  N_45
    4  A    between atoms: C_5  and  C_19
    5  A    between atoms: N_6  and  C_12
    6  A    between atoms: N_6  and  C_25
    7  A    between atoms: C_10  and  P_15
    8  A    between atoms: C_12  and  C_21
    9  A    between atoms: C_13  and  C_18
   10  A    between atoms: C_13  and  C_48
   11  A    between atoms: C_18  and  C_33
   12  A    between atoms: C_21  and  N_30
   13  A    between atoms: C_22  and  C_34
   14  A    between atoms: P_23  and  N_29
   15  A    between atoms: C_24  and  C_51
   16  A    between atoms: C_34  and  C_42
   17  A    between atoms: C_34  and  C_50
   18  A    between atoms: C_41  and  C_48
   19  A    between atoms: N_45  and  C_52
                            x       y       z     vdW  Elec       q    Type
                         _______ _______ _______ _____ _____    ______ ____

>  <TORSDO>
F 19

$$$$
=
 OpenBabel10232409293D

 53 56  0  0  1  0  0  0  0  0999 V2000
  186.0680  178.8630  140.5140 C   0  0  0  0  0  3  0  0  0  0  0  0
  187.2120  178.0930  140.7710 C   0  0  0  0  0  0  0  0  0  0  0  0
  187.3480  177.4820  142.0470 C   0  0  0  0  0  0  0  0  0  0  0  0
  186.3420  177.6460  143.0060 C   0  0  0  0  0  3  0  0  0  0  0  0
  185.2080  178.4100  142.7320 C   0  0  0  0  0  0  0  0  0  0  0  0
  185.0750  179.0240  141.4820 C   0  0  0  0  0  3  0  0  0  0  0  0
  189.2890  178.7790  139.4040 C   0  0  0  0  0  3  0  0  0  0  0  0
  189.2590  177.1450  138.0190 N   0  0  0  0  0  0  0  0  0  0  0  0
  188.2130  176.9370  138.7980 N   0  0  0  0  0  0  0  0  0  0  0  0
  189.9280  178.2360  138.3490 N   0  0  0  0  0  0  0  0  0  0  0  0
  188.2090  177.9550  139.6800 C   0  0  0  0  0  0  0  0  0  0  0  0
  189.6420  176.2600  136.9330 C   0  0  0  0  0  2  0  0  0  0  0  0
  188.7590  175.1040  136.9060 N   0  0  0  0  0  2  0  0  0  0  0  0
  190.1700  173.5070  135.7560 C   0  0  0  0  0  1  0  0  0  0  0  0
  190.6290  174.2120  137.9760 O   0  0  0  0  0  1  0  0  0  0  0  0
  189.5890  173.9260  137.0890 C   0  0  1  0  0  3  0  0  0  0  0  0
  188.5250  176.6470  142.4310 C   0  0  0  0  0  2  0  0  0  0  0  0
  189.7770  177.5000  142.4920 C   0  0  0  0  0  2  0  0  0  0  0  0
  189.5880  178.5790  143.5400 C   0  0  0  0  0  2  0  0  0  0  0  0
  188.7260  178.0390  145.8860 C   0  0  0  0  0  0  0  0  0  0  0  0
  189.2260  177.3660  146.9840 C   0  0  0  0  0  0  0  0  0  0  0  0
  190.4910  176.9270  146.6310 C   0  0  0  0  0  0  0  0  0  0  0  0
  187.4930  178.5920  145.7710 F   0  0  0  0  0  0  0  0  0  0  0  0
  190.7710  177.3080  145.3650 N   0  0  0  0  0  0  0  0  0  0  0  0
  191.9850  177.0100  144.6200 C   0  0  0  0  0  1  0  0  0  0  0  0
  189.7010  177.9930  144.9090 C   0  0  0  0  0  0  0  0  0  0  0  0
  188.4940  177.0710  148.2470 C   0  0  0  0  0  2  0  0  0  0  0  0
  187.5290  178.0520  148.4690 O   0  0  0  0  0  1  0  0  0  0  0  0
  191.3870  176.0790  147.4760 C   0  0  0  0  0  2  0  0  0  0  0  0
  192.2600  176.8940  148.1990 O   0  0  0  0  0  1  0  0  0  0  0  0
  184.1550  178.5480  143.7880 C   0  0  2  0  0  3  0  0  0  0  0  0
  181.9550  179.4610  143.8410 O   0  0  0  0  0  0  0  0  0  0  0  0
  182.4860  178.2930  141.8920 N   0  0  0  0  0  2  0  0  0  0  0  0
  182.8070  178.8040  143.1870 C   0  0  0  0  0  0  0  0  0  0  0  0
  181.1820  178.5090  141.2840 C   0  0  0  0  0  2  0  0  0  0  0  0
  180.8440  177.3540  140.3530 C   0  0  0  0  0  2  0  0  0  0  0  0
  180.6870  177.8370  138.9860 N   0  0  0  0  0  2  0  0  0  0  0  0
  182.0370  177.2790  136.0400 C   0  0  1  0  0  3  0  0  0  0  0  0
  183.3980  177.0430  135.7520 O   0  0  0  0  0  0  0  0  0  0  0  0
  182.0110  178.1260  138.4440 C   0  0  2  0  0  3  0  0  0  0  0  0
  184.1090  177.0090  137.9340 O   0  0  0  0  0  0  0  0  0  0  0  0
  183.9760  176.3090  136.7570 N   0  0  0  0  0  0  0  0  0  0  0  0
  181.9140  178.5090  136.9550 C   0  0  2  0  0  3  0  0  0  0  0  0
  180.7520  179.2470  136.7110 O   0  0  0  0  0  1  0  0  0  0  0  0
  182.9190  176.9180  138.6790 C   0  0  0  0  0  2  0  0  0  0  0  0
  183.2730  173.9740  135.3160 O   0  0  0  0  0  0  0  0  0  0  0  0
  183.4140  174.6230  136.8710 P   0  0  0  0  0  0  0  0  0  0  0  0
  184.5000  173.6830  137.7690 O   0  0  0  0  0  1  0  0  0  0  0  0
  182.0600  174.5960  137.5430 O   0  0  0  0  0  1  0  0  0  0  0  0
  181.1040  177.4510  134.4270 P   0  0  0  0  0  2  0  0  0  0  0  0
  180.1680  176.0030  134.6460 O   0  0  0  0  0  1  0  0  0  0  0  0
  184.5400  179.6020  144.8200 C   0  0  0  0  0  2  0  0  0  0  0  0
  184.4860  179.0540  146.1030 O   0  0  0  0  0  1  0  0  0  0  0  0
  1  2  2  0  0  0  0
  1  6  1  0  0  0  0
  2  3  1  0  0  0  0
  3 17  1  0  0  0  0
  3  4  2  0  0  0  0
  5  4  1  0  0  0  0
  5 31  1  0  0  0  0
  6  5  2  0  0  0  0
  7 11  1  0  0  0  0
  8 10  1  0  0  0  0
  8  9  1  0  0  0  0
  9 11  2  0  0  0  0
 10  7  2  0  0  0  0
 11  2  1  0  0  0  0
 12  8  1  0  0  0  0
 13 12  1  0  0  0  0
 13 16  1  0  0  0  0
 16 14  1  6  0  0  0
 16 15  1  0  0  0  0
 17 18  1  0  0  0  0
 18 19  1  0  0  0  0
 19 26  1  0  0  0  0
 20 21  1  0  0  0  0
 21 27  1  0  0  0  0
 22 21  2  0  0  0  0
 22 29  1  0  0  0  0
 23 20  1  0  0  0  0
 24 22  1  0  0  0  0
 25 24  1  0  0  0  0
 26 24  1  0  0  0  0
 26 20  2  0  0  0  0
 27 28  1  0  0  0  0
 29 30  1  0  0  0  0
 31 52  1  1  0  0  0
 33 34  1  0  0  0  0
 34 31  1  0  0  0  0
 34 32  2  0  0  0  0
 35 33  1  0  0  0  0
 36 35  1  0  0  0  0
 37 36  1  0  0  0  0
 38 50  1  6  0  0  0
 38 43  1  0  0  0  0
 39 38  1  0  0  0  0
 39 42  1  0  0  0  0
 40 45  1  0  0  0  0
 40 37  1  6  0  0  0
 41 45  1  0  0  0  0
 42 47  1  0  0  0  0
 42 41  1  0  0  0  0
 43 44  1  1  0  0  0
 43 40  1  0  0  0  0
 46 47  2  0  0  0  0
 47 49  1  0  0  0  0
 47 48  1  0  0  0  0
 50 51  1  0  0  0  0
 52 53  1  0  0  0  0
M  END
>  <MODEL>
6

>  <REMARK>
 VINA RESULT:      -6.5      2.339      6.634
  Name = 
  19 active torsions:
  status: ('A' for Active; 'I' for Inactive)
    1  A    between atoms: C_2  and  C_3
    2  A    between atoms: C_4  and  N_35
    3  A    between atoms: C_4  and  N_45
    4  A    between atoms: C_5  and  C_19
    5  A    between atoms: N_6  and  C_12
    6  A    between atoms: N_6  and  C_25
    7  A    between atoms: C_10  and  P_15
    8  A    between atoms: C_12  and  C_21
    9  A    between atoms: C_13  and  C_18
   10  A    between atoms: C_13  and  C_48
   11  A    between atoms: C_18  and  C_33
   12  A    between atoms: C_21  and  N_30
   13  A    between atoms: C_22  and  C_34
   14  A    between atoms: P_23  and  N_29
   15  A    between atoms: C_24  and  C_51
   16  A    between atoms: C_34  and  C_42
   17  A    between atoms: C_34  and  C_50
   18  A    between atoms: C_41  and  C_48
   19  A    between atoms: N_45  and  C_52
                            x       y       z     vdW  Elec       q    Type
                         _______ _______ _______ _____ _____    ______ ____

>  <TORSDO>
F 19

$$$$
=
 OpenBabel10232409293D

 53 56  0  0  1  0  0  0  0  0999 V2000
  190.7860  175.8080  136.2560 C   0  0  0  0  0  3  0  0  0  0  0  0
  191.4800  176.0280  137.4560 C   0  0  0  0  0  0  0  0  0  0  0  0
  190.7920  176.6380  138.5380 C   0  0  0  0  0  0  0  0  0  0  0  0
  189.4450  176.9900  138.3940 C   0  0  0  0  0  3  0  0  0  0  0  0
  188.7670  176.7590  137.1970 C   0  0  0  0  0  0  0  0  0  0  0  0
  189.4450  176.1690  136.1240 C   0  0  0  0  0  3  0  0  0  0  0  0
  194.0200  176.2790  137.0810 C   0  0  0  0  0  3  0  0  0  0  0  0
  194.6150  174.4260  137.9740 N   0  0  0  0  0  0  0  0  0  0  0  0
  193.2990  174.4340  138.0770 N   0  0  0  0  0  0  0  0  0  0  0  0
  195.0850  175.5110  137.3850 N   0  0  0  0  0  0  0  0  0  0  0  0
  192.8990  175.5930  137.5200 C   0  0  0  0  0  0  0  0  0  0  0  0
  195.4540  173.3500  138.4730 C   0  0  0  0  0  2  0  0  0  0  0  0
  194.7870  172.0730  138.2730 N   0  0  0  0  0  2  0  0  0  0  0  0
  195.0780  169.9430  137.1580 C   0  0  0  0  0  1  0  0  0  0  0  0
  196.5270  171.7780  136.7490 O   0  0  0  0  0  1  0  0  0  0  0  0
  195.7760  171.1500  137.7460 C   0  0  1  0  0  3  0  0  0  0  0  0
  191.4320  176.9240  139.8560 C   0  0  0  0  0  2  0  0  0  0  0  0
  190.3750  177.2250  140.9000 C   0  0  0  0  0  2  0  0  0  0  0  0
  190.6130  176.3450  142.1110 C   0  0  0  0  0  2  0  0  0  0  0  0
  188.4100  177.0390  143.2090 C   0  0  0  0  0  0  0  0  0  0  0  0
  188.0270  177.4280  144.4780 C   0  0  0  0  0  0  0  0  0  0  0  0
  189.1730  177.4110  145.2560 C   0  0  0  0  0  0  0  0  0  0  0  0
  187.5970  176.8670  142.1380 F   0  0  0  0  0  0  0  0  0  0  0  0
  190.2280  177.0260  144.5060 N   0  0  0  0  0  0  0  0  0  0  0  0
  191.5990  176.8510  144.9650 C   0  0  0  0  0  1  0  0  0  0  0  0
  189.7710  176.8060  143.2550 C   0  0  0  0  0  0  0  0  0  0  0  0
  186.6350  177.6920  144.9380 C   0  0  0  0  0  2  0  0  0  0  0  0
  186.6610  178.5090  146.0670 O   0  0  0  0  0  1  0  0  0  0  0  0
  189.2340  177.6820  146.7250 C   0  0  0  0  0  2  0  0  0  0  0  0
  189.0940  176.4850  147.4300 O   0  0  0  0  0  1  0  0  0  0  0  0
  187.3240  177.1460  137.0940 C   0  0  2  0  0  3  0  0  0  0  0  0
  186.6860  174.8520  137.1960 O   0  0  0  0  0  0  0  0  0  0  0  0
  185.4420  176.1520  135.7080 N   0  0  0  0  0  2  0  0  0  0  0  0
  186.4740  175.9830  136.6840 C   0  0  0  0  0  0  0  0  0  0  0  0
  184.6070  175.0420  135.2750 C   0  0  0  0  0  2  0  0  0  0  0  0
  183.2020  175.2000  135.8350 C   0  0  0  0  0  2  0  0  0  0  0  0
  182.9960  176.5640  136.3070 N   0  0  0  0  0  2  0  0  0  0  0  0
  181.8450  178.9090  138.3040 C   0  0  1  0  0  3  0  0  0  0  0  0
  181.7710  178.8760  139.7120 O   0  0  0  0  0  0  0  0  0  0  0  0
  182.3470  176.5080  137.6130 C   0  0  2  0  0  3  0  0  0  0  0  0
  182.8460  176.8630  139.9660 O   0  0  0  0  0  0  0  0  0  0  0  0
  182.8570  178.2140  140.2290 N   0  0  0  0  0  0  0  0  0  0  0  0
  181.2700  177.6020  137.7300 C   0  0  2  0  0  3  0  0  0  0  0  0
  180.6250  177.7920  136.5040 O   0  0  0  0  0  1  0  0  0  0  0  0
  183.4150  176.6190  138.7030 C   0  0  0  0  0  2  0  0  0  0  0  0
  184.1850  180.4380  139.0840 O   0  0  0  0  0  0  0  0  0  0  0  0
  184.4090  179.0660  140.0460 P   0  0  0  0  0  0  0  0  0  0  0  0
  185.0220  179.5380  141.5530 O   0  0  0  0  0  1  0  0  0  0  0  0
  185.4040  178.1470  139.3730 O   0  0  0  0  0  1  0  0  0  0  0  0
  180.9640  180.4440  137.6940 P   0  0  0  0  0  2  0  0  0  0  0  0
  180.9320  181.2210  139.2480 O   0  0  0  0  0  1  0  0  0  0  0  0
  187.1370  178.3520  136.1830 C   0  0  0  0  0  2  0  0  0  0  0  0
  187.3770  179.5290  136.8950 O   0  0  0  0  0  1  0  0  0  0  0  0
  1  2  1  0  0  0  0
  2 11  1  0  0  0  0
  2  3  2  0  0  0  0
  3 17  1  0  0  0  0
  4  3  1  0  0  0  0
  5  4  2  0  0  0  0
  6  1  2  0  0  0  0
  6  5  1  0  0  0  0
  7 10  2  0  0  0  0
  7 11  1  0  0  0  0
  8  9  1  0  0  0  0
  8 12  1  0  0  0  0
 10  8  1  0  0  0  0
 11  9  2  0  0  0  0
 13 12  1  0  0  0  0
 15 16  1  0  0  0  0
 16 14  1  6  0  0  0
 16 13  1  0  0  0  0
 17 18  1  0  0  0  0
 18 19  1  0  0  0  0
 19 26  1  0  0  0  0
 20 26  2  0  0  0  0
 20 21  1  0  0  0  0
 21 27  1  0  0  0  0
 21 22  2  0  0  0  0
 22 29  1  0  0  0  0
 23 20  1  0  0  0  0
 24 25  1  0  0  0  0
 24 22  1  0  0  0  0
 26 24  1  0  0  0  0
 27 28  1  0  0  0  0
 29 30  1  0  0  0  0
 31 52  1  6  0  0  0
 31  5  1  0  0  0  0
 33 34  1  0  0  0  0
 34 31  1  0  0  0  0
 34 32  2  0  0  0  0
 35 33  1  0  0  0  0
 35 36  1  0  0  0  0
 36 37  1  0  0  0  0
 38 50  1  6  0  0  0
 38 39  1  0  0  0  0
 39 42  1  0  0  0  0
 40 37  1  6  0  0  0
 40 43  1  0  0  0  0
 40 45  1  0  0  0  0
 41 42  1  0  0  0  0
 43 44  1  6  0  0  0
 43 38  1  0  0  0  0
 45 41  1  0  0  0  0
 46 47  2  0  0  0  0
 47 42  1  0  0  0  0
 47 48  1  0  0  0  0
 49 47  1  0  0  0  0
 50 51  1  0  0  0  0
 52 53  1  0  0  0  0
M  END
>  <MODEL>
7

>  <REMARK>
 VINA RESULT:      -6.4      3.366      7.955
  Name = 
  19 active torsions:
  status: ('A' for Active; 'I' for Inactive)
    1  A    between atoms: C_2  and  C_3
    2  A    between atoms: C_4  and  N_35
    3  A    between atoms: C_4  and  N_45
    4  A    between atoms: C_5  and  C_19
    5  A    between atoms: N_6  and  C_12
    6  A    between atoms: N_6  and  C_25
    7  A    between atoms: C_10  and  P_15
    8  A    between atoms: C_12  and  C_21
    9  A    between atoms: C_13  and  C_18
   10  A    between atoms: C_13  and  C_48
   11  A    between atoms: C_18  and  C_33
   12  A    between atoms: C_21  and  N_30
   13  A    between atoms: C_22  and  C_34
   14  A    between atoms: P_23  and  N_29
   15  A    between atoms: C_24  and  C_51
   16  A    between atoms: C_34  and  C_42
   17  A    between atoms: C_34  and  C_50
   18  A    between atoms: C_41  and  C_48
   19  A    between atoms: N_45  and  C_52
                            x       y       z     vdW  Elec       q    Type
                         _______ _______ _______ _____ _____    ______ ____

>  <TORSDO>
F 19

$$$$
=
 OpenBabel10232409293D

 53 56  0  0  1  0  0  0  0  0999 V2000
  190.6290  176.9330  141.0560 C   0  0  0  0  0  3  0  0  0  0  0  0
  189.6720  177.6540  141.7880 C   0  0  0  0  0  0  0  0  0  0  0  0
  188.4810  178.0630  141.1300 C   0  0  0  0  0  0  0  0  0  0  0  0
  188.2800  177.7300  139.7860 C   0  0  0  0  0  3  0  0  0  0  0  0
  189.2390  177.0080  139.0750 C   0  0  0  0  0  0  0  0  0  0  0  0
  190.4190  176.6140  139.7150 C   0  0  0  0  0  3  0  0  0  0  0  0
  190.8300  178.8810  143.7390 C   0  0  0  0  0  3  0  0  0  0  0  0
  189.8550  177.8410  145.3370 N   0  0  0  0  0  0  0  0  0  0  0  0
  189.3640  177.2940  144.2390 N   0  0  0  0  0  0  0  0  0  0  0  0
  190.7350  178.7930  145.0800 N   0  0  0  0  0  0  0  0  0  0  0  0
  189.9640  177.9330  143.2160 C   0  0  0  0  0  0  0  0  0  0  0  0
  189.4560  177.4490  146.6770 C   0  0  0  0  0  2  0  0  0  0  0  0
  190.1480  176.2290  147.0600 N   0  0  0  0  0  2  0  0  0  0  0  0
  192.3480  175.9690  148.0400 C   0  0  0  0  0  1  0  0  0  0  0  0
  191.9830  175.7480  145.7050 O   0  0  0  0  0  1  0  0  0  0  0  0
  191.5660  176.4510  146.8370 C   0  0  1  0  0  3  0  0  0  0  0  0
  187.3990  178.8380  141.8090 C   0  0  0  0  0  2  0  0  0  0  0  0
  186.0510  178.1970  141.5470 C   0  0  0  0  0  2  0  0  0  0  0  0
  185.1880  179.1640  140.7630 C   0  0  0  0  0  2  0  0  0  0  0  0
  182.7940  178.2700  140.8650 C   0  0  0  0  0  0  0  0  0  0  0  0
  181.9630  177.5920  139.9950 C   0  0  0  0  0  0  0  0  0  0  0  0
  182.6890  177.3970  138.8320 C   0  0  0  0  0  0  0  0  0  0  0  0
  182.4740  178.7140  142.1060 F   0  0  0  0  0  0  0  0  0  0  0  0
  183.9220  177.9300  138.9680 N   0  0  0  0  0  0  0  0  0  0  0  0
  184.9690  177.9600  137.9560 C   0  0  0  0  0  1  0  0  0  0  0  0
  183.9950  178.4570  140.2080 C   0  0  0  0  0  0  0  0  0  0  0  0
  180.5300  177.2540  140.2260 C   0  0  0  0  0  2  0  0  0  0  0  0
  180.3870  175.8720  140.3330 O   0  0  0  0  0  1  0  0  0  0  0  0
  182.1700  176.7750  137.5740 C   0  0  0  0  0  2  0  0  0  0  0  0
  182.4190  175.4010  137.5930 O   0  0  0  0  0  1  0  0  0  0  0  0
  188.9740  176.6680  137.6410 C   0  0  2  0  0  3  0  0  0  0  0  0
  190.0050  174.5910  137.0950 O   0  0  0  0  0  0  0  0  0  0  0  0
  191.2260  176.4830  136.4830 N   0  0  0  0  0  2  0  0  0  0  0  0
  190.0830  175.8470  137.0590 C   0  0  0  0  0  0  0  0  0  0  0  0
  192.3290  175.7170  135.9220 C   0  0  0  0  0  2  0  0  0  0  0  0
  193.6430  176.1690  136.5400 C   0  0  0  0  0  2  0  0  0  0  0  0
  194.7170  175.2570  136.1670 N   0  0  0  0  0  2  0  0  0  0  0  0
  197.2480  173.2210  136.6860 C   0  0  1  0  0  3  0  0  0  0  0  0
  197.3900  172.2780  137.7250 O   0  0  0  0  0  0  0  0  0  0  0  0
  195.2780  174.6810  137.3850 C   0  0  2  0  0  3  0  0  0  0  0  0
  195.3020  172.5910  138.6280 O   0  0  0  0  0  0  0  0  0  0  0  0
  196.1750  171.7150  138.0250 N   0  0  0  0  0  0  0  0  0  0  0  0
  196.8110  174.5730  137.2770 C   0  0  2  0  0  3  0  0  0  0  0  0
  197.3330  175.6620  136.5720 O   0  0  0  0  0  1  0  0  0  0  0  0
  194.6140  173.3280  137.6470 C   0  0  0  0  0  2  0  0  0  0  0  0
  195.1210  171.5690  135.4000 O   0  0  0  0  0  0  0  0  0  0  0  0
  195.5140  170.6470  136.7630 P   0  0  0  0  0  0  0  0  0  0  0  0
  196.6380  169.4590  136.3240 O   0  0  0  0  0  1  0  0  0  0  0  0
  194.2620  169.9780  137.2840 O   0  0  0  0  0  1  0  0  0  0  0  0
  198.8540  173.3070  135.7310 P   0  0  0  0  0  2  0  0  0  0  0  0
  198.9990  171.5870  135.5330 O   0  0  0  0  0  1  0  0  0  0  0  0
  188.6850  177.9190  136.8190 C   0  0  0  0  0  2  0  0  0  0  0  0
  187.9070  177.5900  135.7080 O   0  0  0  0  0  1  0  0  0  0  0  0
  1  2  1  0  0  0  0
  2 11  1  0  0  0  0
  3  2  2  0  0  0  0
  3 17  1  0  0  0  0
  4  3  1  0  0  0  0
  5  6  1  0  0  0  0
  5  4  2  0  0  0  0
  6  1  2  0  0  0  0
  7 10  2  0  0  0  0
  8 12  1  0  0  0  0
  9  8  1  0  0  0  0
 10  8  1  0  0  0  0
 11  7  1  0  0  0  0
 11  9  2  0  0  0  0
 12 13  1  0  0  0  0
 15 16  1  0  0  0  0
 16 13  1  0  0  0  0
 16 14  1  1  0  0  0
 18 17  1  0  0  0  0
 19 18  1  0  0  0  0
 20 23  1  0  0  0  0
 21 27  1  0  0  0  0
 21 20  1  0  0  0  0
 22 24  1  0  0  0  0
 22 21  2  0  0  0  0
 24 26  1  0  0  0  0
 25 24  1  0  0  0  0
 26 19  1  0  0  0  0
 26 20  2  0  0  0  0
 27 28  1  0  0  0  0
 29 30  1  0  0  0  0
 29 22  1  0  0  0  0
 31 52  1  6  0  0  0
 31  5  1  0  0  0  0
 33 34  1  0  0  0  0
 34 32  2  0  0  0  0
 34 31  1  0  0  0  0
 35 33  1  0  0  0  0
 35 36  1  0  0  0  0
 37 36  1  0  0  0  0
 38 50  1  1  0  0  0
 38 43  1  0  0  0  0
 38 39  1  0  0  0  0
 39 42  1  0  0  0  0
 40 37  1  6  0  0  0
 40 45  1  0  0  0  0
 42 41  1  0  0  0  0
 43 44  1  6  0  0  0
 43 40  1  0  0  0  0
 45 41  1  0  0  0  0
 46 47  2  0  0  0  0
 47 49  1  0  0  0  0
 47 42  1  0  0  0  0
 48 47  1  0  0  0  0
 51 50  1  0  0  0  0
 53 52  1  0  0  0  0
M  END
>  <MODEL>
8

>  <REMARK>
 VINA RESULT:      -6.4      4.472      9.646
  Name = 
  19 active torsions:
  status: ('A' for Active; 'I' for Inactive)
    1  A    between atoms: C_2  and  C_3
    2  A    between atoms: C_4  and  N_35
    3  A    between atoms: C_4  and  N_45
    4  A    between atoms: C_5  and  C_19
    5  A    between atoms: N_6  and  C_12
    6  A    between atoms: N_6  and  C_25
    7  A    between atoms: C_10  and  P_15
    8  A    between atoms: C_12  and  C_21
    9  A    between atoms: C_13  and  C_18
   10  A    between atoms: C_13  and  C_48
   11  A    between atoms: C_18  and  C_33
   12  A    between atoms: C_21  and  N_30
   13  A    between atoms: C_22  and  C_34
   14  A    between atoms: P_23  and  N_29
   15  A    between atoms: C_24  and  C_51
   16  A    between atoms: C_34  and  C_42
   17  A    between atoms: C_34  and  C_50
   18  A    between atoms: C_41  and  C_48
   19  A    between atoms: N_45  and  C_52
                            x       y       z     vdW  Elec       q    Type
                         _______ _______ _______ _____ _____    ______ ____

>  <TORSDO>
F 19

$$$$
=
 OpenBabel10232409293D

 53 56  0  0  1  0  0  0  0  0999 V2000
  191.2220  177.3000  140.7610 C   0  0  0  0  0  3  0  0  0  0  0  0
  190.2700  177.6600  141.7280 C   0  0  0  0  0  0  0  0  0  0  0  0
  188.9320  177.8890  141.3110 C   0  0  0  0  0  0  0  0  0  0  0  0
  188.5890  177.7380  139.9620 C   0  0  0  0  0  3  0  0  0  0  0  0
  189.5460  177.3730  139.0160 C   0  0  0  0  0  0  0  0  0  0  0  0
  190.8680  177.1590  139.4190 C   0  0  0  0  0  3  0  0  0  0  0  0
  191.5850  178.7070  143.6850 C   0  0  0  0  0  3  0  0  0  0  0  0
  190.9000  177.3780  145.2190 N   0  0  0  0  0  0  0  0  0  0  0  0
  190.3090  176.9460  144.1200 N   0  0  0  0  0  0  0  0  0  0  0  0
  191.6710  178.4300  145.0010 N   0  0  0  0  0  0  0  0  0  0  0  0
  190.7260  177.7670  143.1370 C   0  0  0  0  0  0  0  0  0  0  0  0
  190.7070  176.7750  146.5250 C   0  0  0  0  0  2  0  0  0  0  0  0
  191.9160  176.9240  147.3200 N   0  0  0  0  0  2  0  0  0  0  0  0
  193.1370  175.6310  148.9630 C   0  0  0  0  0  1  0  0  0  0  0  0
  191.2840  174.7290  147.7850 O   0  0  0  0  0  1  0  0  0  0  0  0
  192.3770  175.5890  147.6550 C   0  0  1  0  0  3  0  0  0  0  0  0
  187.8390  178.2820  142.2510 C   0  0  0  0  0  2  0  0  0  0  0  0
  186.4880  178.1050  141.5890 C   0  0  0  0  0  2  0  0  0  0  0  0
  185.6410  179.3320  141.8600 C   0  0  0  0  0  2  0  0  0  0  0  0
  183.2110  178.7990  142.4500 C   0  0  0  0  0  0  0  0  0  0  0  0
  182.0440  178.6180  141.7320 C   0  0  0  0  0  0  0  0  0  0  0  0
  182.3780  178.7760  140.3970 C   0  0  0  0  0  0  0  0  0  0  0  0
  183.3370  178.7850  143.8000 F   0  0  0  0  0  0  0  0  0  0  0  0
  183.6960  179.0470  140.2850 N   0  0  0  0  0  0  0  0  0  0  0  0
  184.4230  179.3110  139.0510 C   0  0  0  0  0  1  0  0  0  0  0  0
  184.2110  179.0540  141.5320 C   0  0  0  0  0  0  0  0  0  0  0  0
  180.6810  178.4150  142.2990 C   0  0  0  0  0  2  0  0  0  0  0  0
  180.7820  177.8660  143.5750 O   0  0  0  0  0  1  0  0  0  0  0  0
  181.4190  178.7480  139.2500 C   0  0  0  0  0  2  0  0  0  0  0  0
  180.9230  180.0340  139.0210 O   0  0  0  0  0  1  0  0  0  0  0  0
  189.1280  177.2160  137.5860 C   0  0  2  0  0  3  0  0  0  0  0  0
  189.3220  174.8790  137.1610 O   0  0  0  0  0  0  0  0  0  0  0  0
  190.9430  176.2030  136.1270 N   0  0  0  0  0  2  0  0  0  0  0  0
  189.7870  176.0300  136.9500 C   0  0  0  0  0  0  0  0  0  0  0  0
  191.6170  175.0730  135.5060 C   0  0  0  0  0  2  0  0  0  0  0  0
  192.9830  175.5010  134.9930 C   0  0  0  0  0  2  0  0  0  0  0  0
  193.9510  175.5140  136.0830 N   0  0  0  0  0  2  0  0  0  0  0  0
  195.9480  174.0840  138.2710 C   0  0  1  0  0  3  0  0  0  0  0  0
  196.1760  172.7030  138.4480 O   0  0  0  0  0  0  0  0  0  0  0  0
  193.8960  174.2240  136.7650 C   0  0  2  0  0  3  0  0  0  0  0  0
  194.9020  172.0130  136.6670 O   0  0  0  0  0  0  0  0  0  0  0  0
  196.1540  172.0590  137.2370 N   0  0  0  0  0  0  0  0  0  0  0  0
  194.4340  174.3480  138.2020 C   0  0  2  0  0  3  0  0  0  0  0  0
  194.0780  175.5810  138.7570 O   0  0  0  0  0  1  0  0  0  0  0  0
  194.6670  173.1930  135.9390 C   0  0  0  0  0  2  0  0  0  0  0  0
  197.2320  171.7780  134.6330 O   0  0  0  0  0  0  0  0  0  0  0  0
  197.5230  172.4360  136.1630 P   0  0  0  0  0  0  0  0  0  0  0  0
  197.7330  174.1110  136.0160 O   0  0  0  0  0  1  0  0  0  0  0  0
  198.7840  171.8270  136.7320 O   0  0  0  0  0  1  0  0  0  0  0  0
  196.8080  175.0150  139.6470 P   0  0  0  0  0  2  0  0  0  0  0  0
  198.0520  175.6680  138.6260 O   0  0  0  0  0  1  0  0  0  0  0  0
  189.3560  178.4990  136.7970 C   0  0  0  0  0  2  0  0  0  0  0  0
  188.6560  179.5520  137.3880 O   0  0  0  0  0  1  0  0  0  0  0  0
  1  2  1  0  0  0  0
  2 11  1  0  0  0  0
  3  2  2  0  0  0  0
  3 17  1  0  0  0  0
  4  3  1  0  0  0  0
  5  6  1  0  0  0  0
  5  4  2  0  0  0  0
  6  1  2  0  0  0  0
  7 10  2  0  0  0  0
  8 12  1  0  0  0  0
  9  8  1  0  0  0  0
 10  8  1  0  0  0  0
 11  7  1  0  0  0  0
 11  9  2  0  0  0  0
 12 13  1  0  0  0  0
 13 16  1  0  0  0  0
 16 15  1  0  0  0  0
 16 14  1  1  0  0  0
 18 19  1  0  0  0  0
 18 17  1  0  0  0  0
 20 23  1  0  0  0  0
 21 27  1  0  0  0  0
 21 20  1  0  0  0  0
 22 21  2  0  0  0  0
 24 22  1  0  0  0  0
 24 26  1  0  0  0  0
 25 24  1  0  0  0  0
 26 19  1  0  0  0  0
 26 20  2  0  0  0  0
 27 28  1  0  0  0  0
 29 22  1  0  0  0  0
 30 29  1  0  0  0  0
 31 52  1  6  0  0  0
 31  5  1  0  0  0  0
 33 34  1  0  0  0  0
 34 32  2  0  0  0  0
 34 31  1  0  0  0  0
 35 33  1  0  0  0  0
 36 35  1  0  0  0  0
 36 37  1  0  0  0  0
 38 39  1  0  0  0  0
 38 50  1  1  0  0  0
 40 37  1  6  0  0  0
 40 43  1  0  0  0  0
 41 42  1  0  0  0  0
 42 39  1  0  0  0  0
 43 38  1  0  0  0  0
 43 44  1  6  0  0  0
 45 41  1  0  0  0  0
 45 40  1  0  0  0  0
 46 47  2  0  0  0  0
 47 49  1  0  0  0  0
 47 42  1  0  0  0  0
 48 47  1  0  0  0  0
 51 50  1  0  0  0  0
 52 53  1  0  0  0  0
M  END
>  <MODEL>
9

>  <REMARK>
 VINA RESULT:      -6.2      4.641      9.604
  Name = 
  19 active torsions:
  status: ('A' for Active; 'I' for Inactive)
    1  A    between atoms: C_2  and  C_3
    2  A    between atoms: C_4  and  N_35
    3  A    between atoms: C_4  and  N_45
    4  A    between atoms: C_5  and  C_19
    5  A    between atoms: N_6  and  C_12
    6  A    between atoms: N_6  and  C_25
    7  A    between atoms: C_10  and  P_15
    8  A    between atoms: C_12  and  C_21
    9  A    between atoms: C_13  and  C_18
   10  A    between atoms: C_13  and  C_48
   11  A    between atoms: C_18  and  C_33
   12  A    between atoms: C_21  and  N_30
   13  A    between atoms: C_22  and  C_34
   14  A    between atoms: P_23  and  N_29
   15  A    between atoms: C_24  and  C_51
   16  A    between atoms: C_34  and  C_42
   17  A    between atoms: C_34  and  C_50
   18  A    between atoms: C_41  and  C_48
   19  A    between atoms: N_45  and  C_52
                            x       y       z     vdW  Elec       q    Type
                         _______ _______ _______ _____ _____    ______ ____

>  <TORSDO>
F 19

$$$$
