=
 OpenBabel10232410243D

 42 46  0  0  1  0  0  0  0  0999 V2000
  189.7410  176.4850  138.0520 C   0  0  0  0  0  3  0  0  0  0  0  0
  190.3370  176.6520  140.8260 C   0  0  0  0  0  0  0  0  0  0  0  0
  188.8710  177.4070  138.8540 C   0  0  1  0  0  3  0  0  0  0  0  0
  188.3340  177.4670  144.8380 C   0  0  0  0  0  3  0  0  0  0  0  0
  190.1880  176.9790  143.3590 C   0  0  0  0  0  0  0  0  0  0  0  0
  190.4660  177.0400  145.7680 C   0  0  0  0  0  0  0  0  0  0  0  0
  190.8090  176.6980  142.2120 C   0  0  0  0  0  3  0  0  0  0  0  0
  187.9180  177.5400  142.5760 C   0  0  0  0  0  3  0  0  0  0  0  0
  188.0340  177.5580  141.1170 C   0  0  0  0  0  3  0  0  0  0  0  0
  189.0570  177.2140  140.3420 C   0  0  0  0  0  0  0  0  0  0  0  0
  190.8230  175.9140  138.5790 C   0  0  0  0  0  0  0  0  0  0  0  0
  189.1500  177.3300  145.9140 N   0  0  0  0  0  0  0  0  0  0  0  0
  190.9980  176.8570  144.4950 C   0  0  0  0  0  3  0  0  0  0  0  0
  188.8180  177.3110  143.5330 C   0  0  2  0  0  3  0  0  0  0  0  0
  191.1280  176.0700  139.9720 N   0  0  0  0  0  2  0  0  0  0  0  0
  191.3050  176.9030  146.9250 C   0  0  0  0  0  0  0  0  0  0  0  0
  191.9820  176.7960  147.8570 N   0  0  0  0  0  0  0  0  0  0  0  0
  189.1780  178.8460  138.4390 C   0  0  0  0  0  2  0  0  0  0  0  0
  188.6330  179.1690  137.0550 C   0  0  0  0  0  2  0  0  0  0  0  0
  187.2490  178.7460  136.9510 N   0  0  0  0  0  2  0  0  0  0  0  0
  186.4060  178.8380  138.0610 N   0  0  0  0  0  0  0  0  0  0  0  0
  182.1560  178.1410  138.1250 C   0  0  0  0  0  1  0  0  0  0  0  0
  183.5790  178.7550  141.3650 C   0  0  1  0  0  3  0  0  0  0  0  0
  183.2870  176.2950  139.1320 O   0  0  0  0  0  1  0  0  0  0  0  0
  184.6940  179.0710  140.3840 C   0  0  0  0  0  2  0  0  0  0  0  0
  185.2400  178.2800  138.0370 C   0  0  0  0  0  3  0  0  0  0  0  0
  182.4980  178.0160  140.5830 C   0  0  0  0  0  2  0  0  0  0  0  0
  184.3590  178.3660  139.1620 N   0  0  0  0  0  0  0  0  0  0  0  0
  184.0730  177.9270  142.3710 O   0  0  0  0  0  1  0  0  0  0  0  0
  183.0880  177.6730  139.2270 C   0  0  2  0  0  0  0  0  0  0  0  0
  191.6830  175.0530  137.7200 C   0  0  0  0  0  2  0  0  0  0  0  0
  192.4210  175.9010  136.6990 C   0  0  0  0  0  2  0  0  0  0  0  0
  193.8800  176.0560  137.0960 C   0  0  2  0  0  3  0  0  0  0  0  0
  194.5740  176.7590  136.1120 O   0  0  0  0  0  1  0  0  0  0  0  0
  195.1540  175.3730  139.4910 O   0  0  0  0  0  0  0  0  0  0  0  0
  193.7900  173.8630  134.8110 Cl  0  0  0  0  0  0  0  0  0  0  0  0
  194.5330  174.7200  137.3540 C   0  0  2  0  0  3  0  0  0  0  0  0
  194.5410  173.6860  136.3900 C   0  0  0  0  0  0  0  0  0  0  0  0
  195.1610  172.4720  136.6840 C   0  0  0  0  0  3  0  0  0  0  0  0
  195.7450  173.2860  138.8480 N   0  0  0  0  0  0  0  0  0  0  0  0
  195.1490  174.4820  138.5980 C   0  0  0  0  0  0  0  0  0  0  0  0
  195.7650  172.2890  137.9270 C   0  0  0  0  0  3  0  0  0  0  0  0
  1 11  2  0  0  0  0
  1  3  1  0  0  0  0
  2  7  1  0  0  0  0
  3 18  1  6  0  0  0
  3 10  1  0  0  0  0
  4 12  2  0  0  0  0
  5 14  1  0  0  0  0
  5 13  1  0  0  0  0
  6 12  1  0  0  0  0
  6 16  1  0  0  0  0
  7  5  2  0  0  0  0
  9  8  2  0  0  0  0
 10  2  2  0  0  0  0
 10  9  1  0  0  0  0
 11 15  1  0  0  0  0
 13  6  2  0  0  0  0
 14  8  1  6  0  0  0
 14  4  1  0  0  0  0
 15  2  1  0  0  0  0
 16 17  3  0  0  0  0
 19 18  1  0  0  0  0
 20 19  1  0  0  0  0
 20 21  1  0  0  0  0
 23 29  1  1  0  0  0
 24 30  1  0  0  0  0
 25 23  1  0  0  0  0
 26 21  2  0  0  0  0
 26 28  1  0  0  0  0
 27 23  1  0  0  0  0
 28 30  1  0  0  0  0
 28 25  1  0  0  0  0
 30 22  1  6  0  0  0
 30 27  1  0  0  0  0
 31 11  1  0  0  0  0
 32 33  1  0  0  0  0
 32 31  1  0  0  0  0
 33 34  1  6  0  0  0
 36 38  1  0  0  0  0
 37 33  1  1  0  0  0
 37 41  1  0  0  0  0
 38 39  2  0  0  0  0
 38 37  1  0  0  0  0
 39 42  1  0  0  0  0
 41 40  1  0  0  0  0
 41 35  2  0  0  0  0
 42 40  2  0  0  0  0
M  END
>  <MODEL>
1

>  <REMARK>
 VINA RESULT:      -9.0      0.000      0.000
  Name = 
  9 active torsions:
  status: ('A' for Active; 'I' for Inactive)
    1  A    between atoms: N_5  and  N_10
    2  A    between atoms: C_6  and  C_20
    3  A    between atoms: C_7  and  N_10
    4  A    between atoms: C_7  and  C_13
    5  A    between atoms: C_8  and  C_13
    6  A    between atoms: C_11  and  C_26
    7  A    between atoms: C_15  and  C_30
    8  A    between atoms: C_15  and  C_36
    9  A    between atoms: C_26  and  C_36
                            x       y       z     vdW  Elec       q    Type
                         _______ _______ _______ _____ _____    ______ ____

>  <TORSDO>
F 9

$$$$
=
 OpenBabel10232410243D

 42 46  0  0  1  0  0  0  0  0999 V2000
  189.7380  177.6570  137.6110 C   0  0  0  0  0  3  0  0  0  0  0  0
  189.1290  177.5960  140.3870 C   0  0  0  0  0  0  0  0  0  0  0  0
  190.7910  177.0670  138.4990 C   0  0  1  0  0  3  0  0  0  0  0  0
  191.1630  177.6900  144.4640 C   0  0  0  0  0  3  0  0  0  0  0  0
  189.2870  177.5490  142.9400 C   0  0  0  0  0  0  0  0  0  0  0  0
  188.9680  177.6380  145.3430 C   0  0  0  0  0  0  0  0  0  0  0  0
  188.6470  177.5560  141.7700 C   0  0  0  0  0  3  0  0  0  0  0  0
  191.6460  177.5210  142.2210 C   0  0  0  0  0  3  0  0  0  0  0  0
  191.5770  177.3410  140.7700 C   0  0  0  0  0  3  0  0  0  0  0  0
  190.5230  177.3390  139.9630 C   0  0  0  0  0  0  0  0  0  0  0  0
  188.5320  177.9780  138.0790 C   0  0  0  0  0  0  0  0  0  0  0  0
  190.3100  177.7100  145.5200 N   0  0  0  0  0  0  0  0  0  0  0  0
  188.4430  177.5620  144.0570 C   0  0  0  0  0  3  0  0  0  0  0  0
  190.6910  177.5970  143.1490 C   0  0  2  0  0  3  0  0  0  0  0  0
  188.2390  177.8750  139.4790 N   0  0  0  0  0  2  0  0  0  0  0  0
  188.0910  177.6590  146.4790 C   0  0  0  0  0  0  0  0  0  0  0  0
  187.3810  177.6770  147.3930 N   0  0  0  0  0  0  0  0  0  0  0  0
  190.8730  175.5650  138.2220 C   0  0  0  0  0  2  0  0  0  0  0  0
  191.4530  175.2700  136.8460 C   0  0  0  0  0  2  0  0  0  0  0  0
  192.3770  174.1530  136.9210 N   0  0  0  0  0  2  0  0  0  0  0  0
  193.5280  174.2520  137.7060 N   0  0  0  0  0  0  0  0  0  0  0  0
  197.5730  173.4870  136.4410 C   0  0  0  0  0  1  0  0  0  0  0  0
  197.3110  174.7460  139.7950 C   0  0  1  0  0  3  0  0  0  0  0  0
  197.2290  175.8410  136.6450 O   0  0  0  0  0  1  0  0  0  0  0  0
  195.8820  174.4400  139.3800 C   0  0  0  0  0  2  0  0  0  0  0  0
  194.6890  174.3380  137.1450 C   0  0  0  0  0  3  0  0  0  0  0  0
  198.1580  174.7060  138.5260 C   0  0  0  0  0  2  0  0  0  0  0  0
  195.8820  174.4360  137.9300 N   0  0  0  0  0  0  0  0  0  0  0  0
  197.3660  176.0230  140.3490 O   0  0  0  0  0  1  0  0  0  0  0  0
  197.1960  174.6390  137.3530 C   0  0  2  0  0  0  0  0  0  0  0  0
  187.5040  178.5070  137.1400 C   0  0  0  0  0  2  0  0  0  0  0  0
  186.1880  177.7750  137.3340 C   0  0  0  0  0  2  0  0  0  0  0  0
  185.9210  176.8480  136.1590 C   0  0  2  0  0  3  0  0  0  0  0  0
  184.6510  177.0890  135.6360 O   0  0  0  0  0  1  0  0  0  0  0  0
  188.1670  175.2890  135.5700 O   0  0  0  0  0  0  0  0  0  0  0  0
  183.5650  175.4690  137.7680 Cl  0  0  0  0  0  0  0  0  0  0  0  0
  186.0680  175.3970  136.5480 C   0  0  2  0  0  3  0  0  0  0  0  0
  185.0650  174.7030  137.2640 C   0  0  0  0  0  0  0  0  0  0  0  0
  185.2550  173.3620  137.5950 C   0  0  0  0  0  3  0  0  0  0  0  0
  187.3920  173.3960  136.5370 N   0  0  0  0  0  0  0  0  0  0  0  0
  187.2430  174.7050  136.1980 C   0  0  0  0  0  0  0  0  0  0  0  0
  186.4320  172.7180  137.2190 C   0  0  0  0  0  3  0  0  0  0  0  0
  1 11  2  0  0  0  0
  1  3  1  0  0  0  0
  2  7  1  0  0  0  0
  3 18  1  1  0  0  0
  3 10  1  0  0  0  0
  4 12  2  0  0  0  0
  5 14  1  0  0  0  0
  5 13  1  0  0  0  0
  6 12  1  0  0  0  0
  6 16  1  0  0  0  0
  7  5  2  0  0  0  0
  9  8  2  0  0  0  0
 10  2  2  0  0  0  0
 10  9  1  0  0  0  0
 11 15  1  0  0  0  0
 13  6  2  0  0  0  0
 14  8  1  1  0  0  0
 14  4  1  0  0  0  0
 15  2  1  0  0  0  0
 16 17  3  0  0  0  0
 19 20  1  0  0  0  0
 19 18  1  0  0  0  0
 20 21  1  0  0  0  0
 23 29  1  6  0  0  0
 24 30  1  0  0  0  0
 25 23  1  0  0  0  0
 26 21  2  0  0  0  0
 26 28  1  0  0  0  0
 27 23  1  0  0  0  0
 28 25  1  0  0  0  0
 30 22  1  6  0  0  0
 30 28  1  0  0  0  0
 30 27  1  0  0  0  0
 31 32  1  0  0  0  0
 31 11  1  0  0  0  0
 33 34  1  1  0  0  0
 33 32  1  0  0  0  0
 35 41  2  0  0  0  0
 37 33  1  1  0  0  0
 37 38  1  0  0  0  0
 38 39  2  0  0  0  0
 38 36  1  0  0  0  0
 40 42  2  0  0  0  0
 41 40  1  0  0  0  0
 41 37  1  0  0  0  0
 42 39  1  0  0  0  0
M  END
>  <MODEL>
2

>  <REMARK>
 VINA RESULT:      -9.0      3.053      8.338
  Name = 
  9 active torsions:
  status: ('A' for Active; 'I' for Inactive)
    1  A    between atoms: N_5  and  N_10
    2  A    between atoms: C_6  and  C_20
    3  A    between atoms: C_7  and  N_10
    4  A    between atoms: C_7  and  C_13
    5  A    between atoms: C_8  and  C_13
    6  A    between atoms: C_11  and  C_26
    7  A    between atoms: C_15  and  C_30
    8  A    between atoms: C_15  and  C_36
    9  A    between atoms: C_26  and  C_36
                            x       y       z     vdW  Elec       q    Type
                         _______ _______ _______ _____ _____    ______ ____

>  <TORSDO>
F 9

$$$$
=
 OpenBabel10232410243D

 42 46  0  0  1  0  0  0  0  0999 V2000
  188.5950  177.8150  137.8220 C   0  0  0  0  0  3  0  0  0  0  0  0
  188.6520  177.5120  140.6480 C   0  0  0  0  0  0  0  0  0  0  0  0
  189.8670  177.2680  138.3960 C   0  0  1  0  0  3  0  0  0  0  0  0
  191.5630  177.5220  144.1550 C   0  0  0  0  0  3  0  0  0  0  0  0
  189.4010  177.3090  143.0860 C   0  0  0  0  0  0  0  0  0  0  0  0
  189.6420  177.2060  145.4970 C   0  0  0  0  0  0  0  0  0  0  0  0
  188.5080  177.3340  142.0950 C   0  0  0  0  0  3  0  0  0  0  0  0
  191.5240  177.5490  141.8540 C   0  0  0  0  0  3  0  0  0  0  0  0
  191.1350  177.4620  140.4460 C   0  0  0  0  0  3  0  0  0  0  0  0
  189.9250  177.4160  139.9000 C   0  0  0  0  0  0  0  0  0  0  0  0
  187.5090  177.9890  138.5750 C   0  0  0  0  0  0  0  0  0  0  0  0
  190.9780  177.3910  145.3730 N   0  0  0  0  0  0  0  0  0  0  0  0
  188.8400  177.1680  144.3610 C   0  0  0  0  0  3  0  0  0  0  0  0
  190.8070  177.4730  142.9760 C   0  0  2  0  0  3  0  0  0  0  0  0
  187.5570  177.7660  139.9910 N   0  0  0  0  0  2  0  0  0  0  0  0
  189.0520  177.0680  146.7990 C   0  0  0  0  0  0  0  0  0  0  0  0
  188.5780  176.9610  147.8490 N   0  0  0  0  0  0  0  0  0  0  0  0
  189.9960  175.8030  137.9770 C   0  0  0  0  0  2  0  0  0  0  0  0
  190.2950  175.6570  136.4920 C   0  0  0  0  0  2  0  0  0  0  0  0
  191.6440  176.1100  136.2060 N   0  0  0  0  0  2  0  0  0  0  0  0
  192.7230  175.5760  136.9150 N   0  0  0  0  0  0  0  0  0  0  0  0
  196.3340  173.9300  135.2410 C   0  0  0  0  0  1  0  0  0  0  0  0
  196.3490  174.1240  138.8270 C   0  0  1  0  0  3  0  0  0  0  0  0
  196.7880  176.0850  136.1650 O   0  0  0  0  0  1  0  0  0  0  0  0
  194.9220  174.4530  138.4250 C   0  0  0  0  0  2  0  0  0  0  0  0
  193.8710  175.4370  136.3380 C   0  0  0  0  0  3  0  0  0  0  0  0
  197.1930  174.1910  137.5580 C   0  0  0  0  0  2  0  0  0  0  0  0
  194.9890  174.8890  137.0440 N   0  0  0  0  0  0  0  0  0  0  0  0
  196.8020  175.0780  139.7370 O   0  0  0  0  0  1  0  0  0  0  0  0
  196.3210  174.8080  136.4790 C   0  0  2  0  0  0  0  0  0  0  0  0
  186.2550  178.4820  137.9410 C   0  0  0  0  0  2  0  0  0  0  0  0
  185.0460  178.0010  138.7240 C   0  0  0  0  0  2  0  0  0  0  0  0
  183.9810  179.0840  138.7680 C   0  0  2  0  0  3  0  0  0  0  0  0
  184.5780  180.3420  138.8520 O   0  0  0  0  0  1  0  0  0  0  0  0
  181.2450  178.6000  138.4460 O   0  0  0  0  0  0  0  0  0  0  0  0
  185.1130  179.1690  141.7270 Cl  0  0  0  0  0  0  0  0  0  0  0  0
  183.0200  178.8760  139.9120 C   0  0  2  0  0  3  0  0  0  0  0  0
  183.4380  178.9000  141.2630 C   0  0  0  0  0  0  0  0  0  0  0  0
  182.5050  178.7030  142.2800 C   0  0  0  0  0  3  0  0  0  0  0  0
  180.7770  178.4540  140.6540 N   0  0  0  0  0  0  0  0  0  0  0  0
  181.6590  178.6410  139.6360 C   0  0  0  0  0  0  0  0  0  0  0  0
  181.1670  178.4820  141.9550 C   0  0  0  0  0  3  0  0  0  0  0  0
  1  3  1  0  0  0  0
  1 11  2  0  0  0  0
  2  7  1  0  0  0  0
  3 18  1  1  0  0  0
  3 10  1  0  0  0  0
  4 12  2  0  0  0  0
  5 13  1  0  0  0  0
  6 16  1  0  0  0  0
  7  5  2  0  0  0  0
  9  8  2  0  0  0  0
 10  9  1  0  0  0  0
 10  2  2  0  0  0  0
 11 15  1  0  0  0  0
 12  6  1  0  0  0  0
 13  6  2  0  0  0  0
 14  8  1  6  0  0  0
 14  5  1  0  0  0  0
 14  4  1  0  0  0  0
 15  2  1  0  0  0  0
 16 17  3  0  0  0  0
 19 18  1  0  0  0  0
 20 19  1  0  0  0  0
 20 21  1  0  0  0  0
 23 29  1  1  0  0  0
 24 30  1  0  0  0  0
 25 23  1  0  0  0  0
 26 21  2  0  0  0  0
 26 28  1  0  0  0  0
 27 23  1  0  0  0  0
 28 25  1  0  0  0  0
 30 22  1  6  0  0  0
 30 28  1  0  0  0  0
 30 27  1  0  0  0  0
 31 11  1  0  0  0  0
 31 32  1  0  0  0  0
 32 33  1  0  0  0  0
 33 34  1  1  0  0  0
 35 41  2  0  0  0  0
 37 33  1  6  0  0  0
 37 38  1  0  0  0  0
 38 36  1  0  0  0  0
 38 39  2  0  0  0  0
 40 42  2  0  0  0  0
 41 37  1  0  0  0  0
 41 40  1  0  0  0  0
 42 39  1  0  0  0  0
M  END
>  <MODEL>
3

>  <REMARK>
 VINA RESULT:      -8.8      2.671      9.450
  Name = 
  9 active torsions:
  status: ('A' for Active; 'I' for Inactive)
    1  A    between atoms: N_5  and  N_10
    2  A    between atoms: C_6  and  C_20
    3  A    between atoms: C_7  and  N_10
    4  A    between atoms: C_7  and  C_13
    5  A    between atoms: C_8  and  C_13
    6  A    between atoms: C_11  and  C_26
    7  A    between atoms: C_15  and  C_30
    8  A    between atoms: C_15  and  C_36
    9  A    between atoms: C_26  and  C_36
                            x       y       z     vdW  Elec       q    Type
                         _______ _______ _______ _____ _____    ______ ____

>  <TORSDO>
F 9

$$$$
=
 OpenBabel10232410243D

 42 46  0  0  1  0  0  0  0  0999 V2000
  188.7450  178.4520  139.6660 C   0  0  0  0  0  3  0  0  0  0  0  0
  190.4450  176.4820  138.5220 C   0  0  0  0  0  0  0  0  0  0  0  0
  188.3990  178.0190  138.2720 C   0  0  1  0  0  3  0  0  0  0  0  0
  191.9990  175.0560  134.4810 C   0  0  0  0  0  3  0  0  0  0  0  0
  191.7510  175.0070  136.8900 C   0  0  0  0  0  0  0  0  0  0  0  0
  193.2520  173.4910  135.7360 C   0  0  0  0  0  0  0  0  0  0  0  0
  191.3510  175.4130  138.0960 C   0  0  0  0  0  3  0  0  0  0  0  0
  190.4640  176.5000  135.4060 C   0  0  0  0  0  3  0  0  0  0  0  0
  189.5590  177.2120  136.3100 C   0  0  0  0  0  3  0  0  0  0  0  0
  189.5050  177.2060  137.6370 C   0  0  0  0  0  0  0  0  0  0  0  0
  189.6860  177.8320  140.3750 C   0  0  0  0  0  0  0  0  0  0  0  0
  192.9090  174.0500  134.5500 N   0  0  0  0  0  0  0  0  0  0  0  0
  192.6850  173.9640  136.9150 C   0  0  0  0  0  3  0  0  0  0  0  0
  191.3830  175.5600  135.6340 C   0  0  2  0  0  3  0  0  0  0  0  0
  190.4860  176.7970  139.7840 N   0  0  0  0  0  2  0  0  0  0  0  0
  194.2150  172.4270  135.7770 C   0  0  0  0  0  0  0  0  0  0  0  0
  194.9910  171.5680  135.8060 N   0  0  0  0  0  0  0  0  0  0  0  0
  187.0900  177.2300  138.3210 C   0  0  0  0  0  2  0  0  0  0  0  0
  185.9160  178.0390  137.7870 C   0  0  0  0  0  2  0  0  0  0  0  0
  185.6190  179.1400  138.6850 N   0  0  0  0  0  2  0  0  0  0  0  0
  184.6150  179.0040  139.6470 N   0  0  0  0  0  0  0  0  0  0  0  0
  185.1550  177.9570  143.7900 C   0  0  0  0  0  1  0  0  0  0  0  0
  181.7690  178.7880  142.9280 C   0  0  1  0  0  3  0  0  0  0  0  0
  184.6690  180.2880  143.6090 O   0  0  0  0  0  1  0  0  0  0  0  0
  182.5000  178.7040  141.6000 C   0  0  0  0  0  2  0  0  0  0  0  0
  184.9160  179.0310  140.9040 C   0  0  0  0  0  3  0  0  0  0  0  0
  182.8350  178.8180  144.0190 C   0  0  0  0  0  2  0  0  0  0  0  0
  183.9040  178.8890  141.9070 N   0  0  0  0  0  0  0  0  0  0  0  0
  181.0270  179.9680  142.9710 O   0  0  0  0  0  1  0  0  0  0  0  0
  184.1720  179.0160  143.3250 C   0  0  2  0  0  0  0  0  0  0  0  0
  189.9480  178.2670  141.7750 C   0  0  0  0  0  2  0  0  0  0  0  0
  188.7990  177.8530  142.6770 C   0  0  0  0  0  2  0  0  0  0  0  0
  189.0910  176.5070  143.3200 C   0  0  2  0  0  3  0  0  0  0  0  0
  187.9080  175.7890  143.4900 O   0  0  0  0  0  1  0  0  0  0  0  0
  191.7820  175.8570  143.7190 O   0  0  0  0  0  0  0  0  0  0  0  0
  187.4840  177.6650  145.7940 Cl  0  0  0  0  0  0  0  0  0  0  0  0
  189.8110  176.6620  144.6370 C   0  0  2  0  0  3  0  0  0  0  0  0
  189.1700  177.1680  145.7920 C   0  0  0  0  0  0  0  0  0  0  0  0
  189.8860  177.2870  146.9830 C   0  0  0  0  0  3  0  0  0  0  0  0
  191.8340  176.4310  145.9060 N   0  0  0  0  0  0  0  0  0  0  0  0
  191.1690  176.3020  144.7270 C   0  0  0  0  0  0  0  0  0  0  0  0
  191.2270  176.9090  147.0230 C   0  0  0  0  0  3  0  0  0  0  0  0
  1 11  2  0  0  0  0
  2 15  1  0  0  0  0
  3 18  1  1  0  0  0
  3  1  1  0  0  0  0
  4 12  2  0  0  0  0
  5 13  1  0  0  0  0
  5  7  2  0  0  0  0
  6 16  1  0  0  0  0
  6 13  2  0  0  0  0
  7  2  1  0  0  0  0
  8 14  1  0  0  0  0
  8  9  2  0  0  0  0
  9 10  1  0  0  0  0
 10  3  1  0  0  0  0
 10  2  2  0  0  0  0
 11 31  1  0  0  0  0
 12  6  1  0  0  0  0
 14  4  1  6  0  0  0
 14  5  1  0  0  0  0
 15 11  1  0  0  0  0
 16 17  3  0  0  0  0
 19 18  1  0  0  0  0
 19 20  1  0  0  0  0
 20 21  1  0  0  0  0
 21 26  2  0  0  0  0
 23 29  1  6  0  0  0
 23 27  1  0  0  0  0
 25 28  1  0  0  0  0
 25 23  1  0  0  0  0
 26 28  1  0  0  0  0
 28 30  1  0  0  0  0
 30 24  1  0  0  0  0
 30 22  1  1  0  0  0
 30 27  1  0  0  0  0
 31 32  1  0  0  0  0
 32 33  1  0  0  0  0
 33 34  1  1  0  0  0
 35 41  2  0  0  0  0
 37 33  1  6  0  0  0
 37 41  1  0  0  0  0
 37 38  1  0  0  0  0
 38 36  1  0  0  0  0
 38 39  2  0  0  0  0
 39 42  1  0  0  0  0
 40 42  2  0  0  0  0
 41 40  1  0  0  0  0
M  END
>  <MODEL>
4

>  <REMARK>
 VINA RESULT:      -8.7      3.170      7.418
  Name = 
  9 active torsions:
  status: ('A' for Active; 'I' for Inactive)
    1  A    between atoms: N_5  and  N_10
    2  A    between atoms: C_6  and  C_20
    3  A    between atoms: C_7  and  N_10
    4  A    between atoms: C_7  and  C_13
    5  A    between atoms: C_8  and  C_13
    6  A    between atoms: C_11  and  C_26
    7  A    between atoms: C_15  and  C_30
    8  A    between atoms: C_15  and  C_36
    9  A    between atoms: C_26  and  C_36
                            x       y       z     vdW  Elec       q    Type
                         _______ _______ _______ _____ _____    ______ ____

>  <TORSDO>
F 9

$$$$
=
 OpenBabel10232410243D

 42 46  0  0  1  0  0  0  0  0999 V2000
  189.7230  177.7820  137.5160 C   0  0  0  0  0  3  0  0  0  0  0  0
  189.0950  177.6950  140.2870 C   0  0  0  0  0  0  0  0  0  0  0  0
  190.7490  177.1380  138.4000 C   0  0  1  0  0  3  0  0  0  0  0  0
  191.1050  177.6410  144.3770 C   0  0  0  0  0  3  0  0  0  0  0  0
  189.2350  177.5970  142.8400 C   0  0  0  0  0  0  0  0  0  0  0  0
  188.9040  177.6550  145.2420 C   0  0  0  0  0  0  0  0  0  0  0  0
  188.6030  177.6480  141.6660 C   0  0  0  0  0  3  0  0  0  0  0  0
  191.5960  177.4940  142.1340 C   0  0  0  0  0  3  0  0  0  0  0  0
  191.5300  177.3420  140.6790 C   0  0  0  0  0  3  0  0  0  0  0  0
  190.4810  177.3940  139.8660 C   0  0  0  0  0  0  0  0  0  0  0  0
  188.5270  178.1390  137.9820 C   0  0  0  0  0  0  0  0  0  0  0  0
  190.2460  177.6740  145.4280 N   0  0  0  0  0  0  0  0  0  0  0  0
  188.3840  177.6220  143.9510 C   0  0  0  0  0  3  0  0  0  0  0  0
  190.6380  177.5890  143.0570 C   0  0  2  0  0  3  0  0  0  0  0  0
  188.2220  178.0230  139.3790 N   0  0  0  0  0  2  0  0  0  0  0  0
  188.0200  177.6890  146.3730 C   0  0  0  0  0  0  0  0  0  0  0  0
  187.3110  177.7170  147.2870 N   0  0  0  0  0  0  0  0  0  0  0  0
  190.7770  175.6390  138.0950 C   0  0  0  0  0  2  0  0  0  0  0  0
  190.8060  175.3610  136.5990 C   0  0  0  0  0  2  0  0  0  0  0  0
  192.1690  175.4310  136.1040 N   0  0  0  0  0  2  0  0  0  0  0  0
  193.2360  175.1180  136.9510 N   0  0  0  0  0  0  0  0  0  0  0  0
  197.1300  173.7130  135.7620 C   0  0  0  0  0  1  0  0  0  0  0  0
  196.8220  174.3420  139.2850 C   0  0  1  0  0  3  0  0  0  0  0  0
  197.2720  176.0020  136.4270 O   0  0  0  0  0  1  0  0  0  0  0  0
  195.4070  174.4510  138.7450 C   0  0  0  0  0  2  0  0  0  0  0  0
  194.4360  175.0440  136.4780 C   0  0  0  0  0  3  0  0  0  0  0  0
  197.7580  174.3520  138.0800 C   0  0  0  0  0  2  0  0  0  0  0  0
  195.5430  174.7200  137.3270 N   0  0  0  0  0  0  0  0  0  0  0  0
  197.0920  175.4460  140.0920 O   0  0  0  0  0  1  0  0  0  0  0  0
  196.9190  174.7270  136.8710 C   0  0  2  0  0  0  0  0  0  0  0  0
  187.5260  178.7230  137.0470 C   0  0  0  0  0  2  0  0  0  0  0  0
  186.7910  177.6180  136.3080 C   0  0  0  0  0  2  0  0  0  0  0  0
  185.8960  176.8480  137.2660 C   0  0  2  0  0  3  0  0  0  0  0  0
  185.9150  175.4890  136.9530 O   0  0  0  0  0  1  0  0  0  0  0  0
  184.7750  178.3610  139.3340 O   0  0  0  0  0  0  0  0  0  0  0  0
  184.0750  176.2410  134.7450 Cl  0  0  0  0  0  0  0  0  0  0  0  0
  184.4820  177.3750  137.2560 C   0  0  2  0  0  3  0  0  0  0  0  0
  183.6010  177.1490  136.1730 C   0  0  0  0  0  0  0  0  0  0  0  0
  182.3040  177.6600  136.2200 C   0  0  0  0  0  3  0  0  0  0  0  0
  182.7470  178.6070  138.3630 N   0  0  0  0  0  0  0  0  0  0  0  0
  184.0190  178.1260  138.3530 C   0  0  0  0  0  0  0  0  0  0  0  0
  181.8900  178.3900  137.3320 C   0  0  0  0  0  3  0  0  0  0  0  0
  1 11  2  0  0  0  0
  1  3  1  0  0  0  0
  2  7  1  0  0  0  0
  3 18  1  1  0  0  0
  3 10  1  0  0  0  0
  4 12  2  0  0  0  0
  5 14  1  0  0  0  0
  5 13  1  0  0  0  0
  6 12  1  0  0  0  0
  6 16  1  0  0  0  0
  7  5  2  0  0  0  0
  9  8  2  0  0  0  0
 10  2  2  0  0  0  0
 10  9  1  0  0  0  0
 11 15  1  0  0  0  0
 13  6  2  0  0  0  0
 14  8  1  1  0  0  0
 14  4  1  0  0  0  0
 15  2  1  0  0  0  0
 16 17  3  0  0  0  0
 19 18  1  0  0  0  0
 20 19  1  0  0  0  0
 20 21  1  0  0  0  0
 23 29  1  1  0  0  0
 24 30  1  0  0  0  0
 25 23  1  0  0  0  0
 26 21  2  0  0  0  0
 26 28  1  0  0  0  0
 27 23  1  0  0  0  0
 28 25  1  0  0  0  0
 30 22  1  6  0  0  0
 30 28  1  0  0  0  0
 30 27  1  0  0  0  0
 31 11  1  0  0  0  0
 32 31  1  0  0  0  0
 32 33  1  0  0  0  0
 33 34  1  6  0  0  0
 36 38  1  0  0  0  0
 37 33  1  6  0  0  0
 37 41  1  0  0  0  0
 38 39  2  0  0  0  0
 38 37  1  0  0  0  0
 39 42  1  0  0  0  0
 41 40  1  0  0  0  0
 41 35  2  0  0  0  0
 42 40  2  0  0  0  0
M  END
>  <MODEL>
5

>  <REMARK>
 VINA RESULT:      -8.6      2.431      8.926
  Name = 
  9 active torsions:
  status: ('A' for Active; 'I' for Inactive)
    1  A    between atoms: N_5  and  N_10
    2  A    between atoms: C_6  and  C_20
    3  A    between atoms: C_7  and  N_10
    4  A    between atoms: C_7  and  C_13
    5  A    between atoms: C_8  and  C_13
    6  A    between atoms: C_11  and  C_26
    7  A    between atoms: C_15  and  C_30
    8  A    between atoms: C_15  and  C_36
    9  A    between atoms: C_26  and  C_36
                            x       y       z     vdW  Elec       q    Type
                         _______ _______ _______ _____ _____    ______ ____

>  <TORSDO>
F 9

$$$$
=
 OpenBabel10232410243D

 42 46  0  0  1  0  0  0  0  0999 V2000
  189.7300  176.6430  138.3780 C   0  0  0  0  0  3  0  0  0  0  0  0
  190.3580  176.7710  141.1470 C   0  0  0  0  0  0  0  0  0  0  0  0
  188.8020  177.4650  139.2220 C   0  0  1  0  0  3  0  0  0  0  0  0
  188.3670  177.2960  145.2130 C   0  0  0  0  0  3  0  0  0  0  0  0
  190.2280  177.0070  143.6910 C   0  0  0  0  0  0  0  0  0  0  0  0
  190.5420  177.0160  146.0960 C   0  0  0  0  0  0  0  0  0  0  0  0
  190.8490  176.8130  142.5270 C   0  0  0  0  0  3  0  0  0  0  0  0
  187.9060  177.4050  142.9610 C   0  0  0  0  0  3  0  0  0  0  0  0
  187.9950  177.4770  141.5010 C   0  0  0  0  0  3  0  0  0  0  0  0
  189.0280  177.2420  140.7010 C   0  0  0  0  0  0  0  0  0  0  0  0
  190.8630  176.1450  138.8700 C   0  0  0  0  0  0  0  0  0  0  0  0
  189.2100  177.1930  146.2720 N   0  0  0  0  0  0  0  0  0  0  0  0
  191.0650  176.9160  144.8100 C   0  0  0  0  0  3  0  0  0  0  0  0
  188.8390  177.2210  143.8960 C   0  0  2  0  0  3  0  0  0  0  0  0
  191.1790  176.2830  140.2630 N   0  0  0  0  0  2  0  0  0  0  0  0
  191.4100  176.9130  147.2350 C   0  0  0  0  0  0  0  0  0  0  0  0
  192.1070  176.8290  148.1560 N   0  0  0  0  0  0  0  0  0  0  0  0
  188.9840  178.9360  138.8490 C   0  0  0  0  0  2  0  0  0  0  0  0
  188.8610  179.1640  137.3490 C   0  0  0  0  0  2  0  0  0  0  0  0
  187.4630  179.2610  136.9710 N   0  0  0  0  0  2  0  0  0  0  0  0
  186.6280  178.1480  137.0960 N   0  0  0  0  0  0  0  0  0  0  0  0
  183.4050  177.6600  139.9110 C   0  0  0  0  0  1  0  0  0  0  0  0
  183.6890  174.9730  137.5440 C   0  0  1  0  0  3  0  0  0  0  0  0
  182.5130  178.0890  137.7370 O   0  0  0  0  0  1  0  0  0  0  0  0
  184.9410  175.8080  137.3380 C   0  0  0  0  0  2  0  0  0  0  0  0
  185.5020  178.2520  137.7220 C   0  0  0  0  0  3  0  0  0  0  0  0
  182.7370  175.8070  138.3960 C   0  0  0  0  0  2  0  0  0  0  0  0
  184.6330  177.1230  137.8650 N   0  0  0  0  0  0  0  0  0  0  0  0
  183.1010  174.7150  136.3070 O   0  0  0  0  0  1  0  0  0  0  0  0
  183.3160  177.2090  138.4650 C   0  0  2  0  0  0  0  0  0  0  0  0
  191.7750  175.3850  137.9710 C   0  0  0  0  0  2  0  0  0  0  0  0
  193.0540  176.1690  137.7360 C   0  0  0  0  0  2  0  0  0  0  0  0
  193.4320  176.1320  136.2640 C   0  0  2  0  0  3  0  0  0  0  0  0
  192.6310  175.2140  135.5850 O   0  0  0  0  0  1  0  0  0  0  0  0
  195.3570  177.9950  135.4610 O   0  0  0  0  0  0  0  0  0  0  0  0
  194.4080  173.1690  136.8220 Cl  0  0  0  0  0  0  0  0  0  0  0  0
  194.8930  175.8070  136.0700 C   0  0  2  0  0  3  0  0  0  0  0  0
  195.4130  174.5110  136.2940 C   0  0  0  0  0  0  0  0  0  0  0  0
  196.7720  174.2690  136.0970 C   0  0  0  0  0  3  0  0  0  0  0  0
  197.0960  176.5490  135.4770 N   0  0  0  0  0  0  0  0  0  0  0  0
  195.7770  176.8230  135.6600 C   0  0  0  0  0  0  0  0  0  0  0  0
  197.6050  175.3070  135.6830 C   0  0  0  0  0  3  0  0  0  0  0  0
  1 11  2  0  0  0  0
  1  3  1  0  0  0  0
  2  7  1  0  0  0  0
  3 18  1  1  0  0  0
  3 10  1  0  0  0  0
  4 12  2  0  0  0  0
  5 14  1  0  0  0  0
  5 13  1  0  0  0  0
  6 12  1  0  0  0  0
  6 16  1  0  0  0  0
  7  5  2  0  0  0  0
  9  8  2  0  0  0  0
 10  2  2  0  0  0  0
 10  9  1  0  0  0  0
 11 15  1  0  0  0  0
 13  6  2  0  0  0  0
 14  8  1  6  0  0  0
 14  4  1  0  0  0  0
 15  2  1  0  0  0  0
 16 17  3  0  0  0  0
 19 18  1  0  0  0  0
 20 21  1  0  0  0  0
 20 19  1  0  0  0  0
 21 26  2  0  0  0  0
 23 29  1  6  0  0  0
 23 27  1  0  0  0  0
 24 30  1  0  0  0  0
 25 23  1  0  0  0  0
 25 28  1  0  0  0  0
 26 28  1  0  0  0  0
 27 30  1  0  0  0  0
 28 30  1  0  0  0  0
 30 22  1  1  0  0  0
 31 11  1  0  0  0  0
 32 31  1  0  0  0  0
 33 34  1  6  0  0  0
 33 32  1  0  0  0  0
 35 41  2  0  0  0  0
 37 33  1  1  0  0  0
 37 38  1  0  0  0  0
 38 36  1  0  0  0  0
 39 38  2  0  0  0  0
 40 41  1  0  0  0  0
 40 42  2  0  0  0  0
 41 37  1  0  0  0  0
 42 39  1  0  0  0  0
M  END
>  <MODEL>
6

>  <REMARK>
 VINA RESULT:      -8.4      1.727      2.338
  Name = 
  9 active torsions:
  status: ('A' for Active; 'I' for Inactive)
    1  A    between atoms: N_5  and  N_10
    2  A    between atoms: C_6  and  C_20
    3  A    between atoms: C_7  and  N_10
    4  A    between atoms: C_7  and  C_13
    5  A    between atoms: C_8  and  C_13
    6  A    between atoms: C_11  and  C_26
    7  A    between atoms: C_15  and  C_30
    8  A    between atoms: C_15  and  C_36
    9  A    between atoms: C_26  and  C_36
                            x       y       z     vdW  Elec       q    Type
                         _______ _______ _______ _____ _____    ______ ____

>  <TORSDO>
F 9

$$$$
=
 OpenBabel10232410243D

 42 46  0  0  1  0  0  0  0  0999 V2000
  188.4110  177.4350  138.8470 C   0  0  0  0  0  3  0  0  0  0  0  0
  190.9980  176.3150  138.4850 C   0  0  0  0  0  0  0  0  0  0  0  0
  188.6830  176.8380  137.4980 C   0  0  1  0  0  3  0  0  0  0  0  0
  194.0850  175.5040  135.2310 C   0  0  0  0  0  3  0  0  0  0  0  0
  193.1890  175.4570  137.4800 C   0  0  0  0  0  0  0  0  0  0  0  0
  195.4280  174.6650  136.9870 C   0  0  0  0  0  0  0  0  0  0  0  0
  192.3310  175.7080  138.4700 C   0  0  0  0  0  3  0  0  0  0  0  0
  191.9120  176.2070  135.5080 C   0  0  0  0  0  3  0  0  0  0  0  0
  190.5810  176.5110  136.0360 C   0  0  0  0  0  3  0  0  0  0  0  0
  190.1510  176.5390  137.2920 C   0  0  0  0  0  0  0  0  0  0  0  0
  189.2710  177.2980  139.8560 C   0  0  0  0  0  0  0  0  0  0  0  0
  195.2530  174.9770  135.6800 N   0  0  0  0  0  0  0  0  0  0  0  0
  194.4060  174.9050  137.9000 C   0  0  0  0  0  3  0  0  0  0  0  0
  193.0160  175.7510  136.1010 C   0  0  2  0  0  3  0  0  0  0  0  0
  190.5450  176.6710  139.6520 N   0  0  0  0  0  2  0  0  0  0  0  0
  196.6740  174.1060  137.4320 C   0  0  0  0  0  0  0  0  0  0  0  0
  197.6780  173.6540  137.7880 N   0  0  0  0  0  0  0  0  0  0  0  0
  187.8340  175.5750  137.3470 C   0  0  0  0  0  2  0  0  0  0  0  0
  186.9630  175.6190  136.1000 C   0  0  0  0  0  2  0  0  0  0  0  0
  186.1240  176.8040  136.1170 N   0  0  0  0  0  2  0  0  0  0  0  0
  185.0960  176.9170  137.0560 N   0  0  0  0  0  0  0  0  0  0  0  0
  185.2570  179.0470  140.7960 C   0  0  0  0  0  1  0  0  0  0  0  0
  182.0170  177.6990  140.0270 C   0  0  1  0  0  3  0  0  0  0  0  0
  183.9600  180.2880  139.2210 O   0  0  0  0  0  1  0  0  0  0  0  0
  182.9470  177.0990  138.9860 C   0  0  0  0  0  2  0  0  0  0  0  0
  185.1380  177.8470  137.9520 C   0  0  0  0  0  3  0  0  0  0  0  0
  182.7830  178.8330  140.7010 C   0  0  0  0  0  2  0  0  0  0  0  0
  184.0970  177.9780  138.9260 N   0  0  0  0  0  0  0  0  0  0  0  0
  180.8880  178.2130  139.3930 O   0  0  0  0  0  1  0  0  0  0  0  0
  184.0430  179.0640  139.8860 C   0  0  2  0  0  0  0  0  0  0  0  0
  188.9230  177.8620  141.1890 C   0  0  0  0  0  2  0  0  0  0  0  0
  190.0600  177.6310  142.1690 C   0  0  0  0  0  2  0  0  0  0  0  0
  189.7440  176.4540  143.0780 C   0  0  2  0  0  3  0  0  0  0  0  0
  188.6060  175.7880  142.6220 O   0  0  0  0  0  1  0  0  0  0  0  0
  191.7800  176.3980  144.9950 O   0  0  0  0  0  0  0  0  0  0  0  0
  186.9050  177.5260  143.9900 Cl  0  0  0  0  0  0  0  0  0  0  0  0
  189.5650  176.8880  144.5120 C   0  0  2  0  0  3  0  0  0  0  0  0
  188.3330  177.3770  145.0050 C   0  0  0  0  0  0  0  0  0  0  0  0
  188.2270  177.7620  146.3400 C   0  0  0  0  0  3  0  0  0  0  0  0
  190.5180  177.1990  146.6920 N   0  0  0  0  0  0  0  0  0  0  0  0
  190.6600  176.8160  145.3950 C   0  0  0  0  0  0  0  0  0  0  0  0
  189.3370  177.6630  147.1780 C   0  0  0  0  0  3  0  0  0  0  0  0
  1 11  2  0  0  0  0
  2 15  1  0  0  0  0
  3 18  1  1  0  0  0
  3  1  1  0  0  0  0
  4 12  2  0  0  0  0
  5 13  1  0  0  0  0
  5  7  2  0  0  0  0
  6 16  1  0  0  0  0
  6 13  2  0  0  0  0
  7  2  1  0  0  0  0
  8  9  2  0  0  0  0
  8 14  1  0  0  0  0
  9 10  1  0  0  0  0
 10  3  1  0  0  0  0
 10  2  2  0  0  0  0
 11 31  1  0  0  0  0
 12  6  1  0  0  0  0
 14  4  1  6  0  0  0
 14  5  1  0  0  0  0
 15 11  1  0  0  0  0
 16 17  3  0  0  0  0
 19 20  1  0  0  0  0
 19 18  1  0  0  0  0
 20 21  1  0  0  0  0
 21 26  2  0  0  0  0
 23 29  1  6  0  0  0
 23 27  1  0  0  0  0
 24 30  1  0  0  0  0
 25 23  1  0  0  0  0
 26 28  1  0  0  0  0
 28 25  1  0  0  0  0
 28 30  1  0  0  0  0
 30 27  1  0  0  0  0
 30 22  1  1  0  0  0
 31 32  1  0  0  0  0
 32 33  1  0  0  0  0
 33 34  1  6  0  0  0
 35 41  2  0  0  0  0
 36 38  1  0  0  0  0
 37 33  1  6  0  0  0
 37 38  1  0  0  0  0
 37 41  1  0  0  0  0
 38 39  2  0  0  0  0
 39 42  1  0  0  0  0
 40 42  2  0  0  0  0
 41 40  1  0  0  0  0
M  END
>  <MODEL>
7

>  <REMARK>
 VINA RESULT:      -8.4      2.934      7.221
  Name = 
  9 active torsions:
  status: ('A' for Active; 'I' for Inactive)
    1  A    between atoms: N_5  and  N_10
    2  A    between atoms: C_6  and  C_20
    3  A    between atoms: C_7  and  N_10
    4  A    between atoms: C_7  and  C_13
    5  A    between atoms: C_8  and  C_13
    6  A    between atoms: C_11  and  C_26
    7  A    between atoms: C_15  and  C_30
    8  A    between atoms: C_15  and  C_36
    9  A    between atoms: C_26  and  C_36
                            x       y       z     vdW  Elec       q    Type
                         _______ _______ _______ _____ _____    ______ ____

>  <TORSDO>
F 9

$$$$
=
 OpenBabel10232410243D

 42 46  0  0  1  0  0  0  0  0999 V2000
  189.4230  178.5900  142.1070 C   0  0  0  0  0  3  0  0  0  0  0  0
  190.1830  176.9730  139.8960 C   0  0  0  0  0  0  0  0  0  0  0  0
  188.5710  178.7170  140.8800 C   0  0  1  0  0  3  0  0  0  0  0  0
  190.0300  176.8990  135.3420 C   0  0  0  0  0  2  0  0  0  0  0  0
  190.5400  176.0320  137.5440 C   0  0  0  0  0  0  0  0  0  0  0  0
  191.2170  174.8630  135.5300 C   0  0  0  0  0  0  0  0  0  0  0  0
  190.6400  176.0280  138.8750 C   0  0  0  0  0  3  0  0  0  0  0  0
  189.2330  178.0850  137.1450 C   0  0  0  0  0  3  0  0  0  0  0  0
  188.8440  178.5300  138.4850 C   0  0  0  0  0  3  0  0  0  0  0  0
  189.2060  178.0620  139.6740 C   0  0  0  0  0  0  0  0  0  0  0  0
  190.3700  177.6580  142.2040 C   0  0  0  0  0  0  0  0  0  0  0  0
  190.6590  175.8380  134.7740 N   0  0  0  0  0  0  0  0  0  0  0  0
  191.1700  174.9500  136.9180 C   0  0  0  0  0  3  0  0  0  0  0  0
  189.9360  177.0290  136.7330 C   0  0  0  0  0  0  0  0  0  0  0  0
  190.6860  176.8160  141.0870 N   0  0  0  0  0  2  0  0  0  0  0  0
  191.8740  173.7520  134.9000 C   0  0  0  0  0  0  0  0  0  0  0  0
  192.4010  172.8540  134.3940 N   0  0  0  0  0  0  0  0  0  0  0  0
  187.1980  178.1140  141.1790 C   0  0  0  0  0  2  0  0  0  0  0  0
  186.1950  179.1690  141.6240 C   0  0  0  0  0  2  0  0  0  0  0  0
  185.2840  179.4830  140.5390 N   0  0  0  0  0  2  0  0  0  0  0  0
  185.3760  178.7910  139.3290 N   0  0  0  0  0  0  0  0  0  0  0  0
  182.5510  175.9300  137.7860 C   0  0  0  0  0  1  0  0  0  0  0  0
  185.2220  176.7090  135.5140 C   0  0  1  0  0  3  0  0  0  0  0  0
  182.3380  177.9890  136.5950 O   0  0  0  0  0  1  0  0  0  0  0  0
  185.6250  177.3580  136.8260 C   0  0  0  0  0  2  0  0  0  0  0  0
  184.3260  178.2360  138.8190 C   0  0  0  0  0  3  0  0  0  0  0  0
  183.7530  176.3190  135.6450 C   0  0  0  0  0  2  0  0  0  0  0  0
  184.3990  177.5190  137.5820 N   0  0  0  0  0  0  0  0  0  0  0  0
  185.3670  177.6330  134.4800 O   0  0  0  0  0  1  0  0  0  0  0  0
  183.2350  176.9690  136.9160 C   0  0  2  0  0  0  0  0  0  0  0  0
  191.1480  177.5400  143.4690 C   0  0  0  0  0  2  0  0  0  0  0  0
  190.4530  178.2990  144.5860 C   0  0  0  0  0  2  0  0  0  0  0  0
  190.2740  177.4030  145.8010 C   0  0  2  0  0  3  0  0  0  0  0  0
  190.3520  176.0620  145.4240 O   0  0  0  0  0  1  0  0  0  0  0  0
  190.0930  178.3510  148.4260 O   0  0  0  0  0  0  0  0  0  0  0  0
  187.5640  176.9140  144.2330 Cl  0  0  0  0  0  0  0  0  0  0  0  0
  188.9710  177.6790  146.5110 C   0  0  2  0  0  3  0  0  0  0  0  0
  187.7160  177.4860  145.8880 C   0  0  0  0  0  0  0  0  0  0  0  0
  186.5450  177.7560  146.5940 C   0  0  0  0  0  3  0  0  0  0  0  0
  187.8330  178.4050  148.4940 N   0  0  0  0  0  0  0  0  0  0  0  0
  188.9960  178.1540  147.8360 C   0  0  0  0  0  0  0  0  0  0  0  0
  186.6220  178.2160  147.9080 C   0  0  0  0  0  3  0  0  0  0  0  0
  1 11  2  0  0  0  0
  2 15  1  0  0  0  0
  3 18  1  1  0  0  0
  3  1  1  0  0  0  0
  4 14  1  0  0  0  0
  5  7  1  0  0  0  0
  6 13  1  0  0  0  0
  7  2  2  0  0  0  0
  8  9  1  0  0  0  0
  9 10  2  0  0  0  0
 10  2  1  0  0  0  0
 10  3  1  0  0  0  0
 11 31  1  0  0  0  0
 12  4  1  0  0  0  0
 12  6  2  0  0  0  0
 13  5  2  0  0  0  0
 14  8  2  0  0  0  0
 14  5  1  0  0  0  0
 15 11  1  0  0  0  0
 16  6  1  0  0  0  0
 17 16  3  0  0  0  0
 18 19  1  0  0  0  0
 20 19  1  0  0  0  0
 21 20  1  0  0  0  0
 23 29  1  6  0  0  0
 23 27  1  0  0  0  0
 23 25  1  0  0  0  0
 24 30  1  0  0  0  0
 25 28  1  0  0  0  0
 26 21  2  0  0  0  0
 27 30  1  0  0  0  0
 28 26  1  0  0  0  0
 30 28  1  0  0  0  0
 30 22  1  1  0  0  0
 31 32  1  0  0  0  0
 32 33  1  0  0  0  0
 33 34  1  6  0  0  0
 36 38  1  0  0  0  0
 37 33  1  6  0  0  0
 37 41  1  0  0  0  0
 38 37  1  0  0  0  0
 38 39  2  0  0  0  0
 39 42  1  0  0  0  0
 41 35  2  0  0  0  0
 41 40  1  0  0  0  0
 42 40  2  0  0  0  0
M  END
>  <MODEL>
8

>  <REMARK>
 VINA RESULT:      -8.4      3.609      8.065
  Name = 
  9 active torsions:
  status: ('A' for Active; 'I' for Inactive)
    1  A    between atoms: N_5  and  N_10
    2  A    between atoms: C_6  and  C_20
    3  A    between atoms: C_7  and  N_10
    4  A    between atoms: C_7  and  C_13
    5  A    between atoms: C_8  and  C_13
    6  A    between atoms: C_11  and  C_26
    7  A    between atoms: C_15  and  C_30
    8  A    between atoms: C_15  and  C_36
    9  A    between atoms: C_26  and  C_36
                            x       y       z     vdW  Elec       q    Type
                         _______ _______ _______ _____ _____    ______ ____

>  <TORSDO>
F 9

$$$$
=
 OpenBabel10232410243D

 42 46  0  0  1  0  0  0  0  0999 V2000
  189.2410  178.0460  139.7000 C   0  0  0  0  0  3  0  0  0  0  0  0
  190.8100  176.0360  138.4450 C   0  0  0  0  0  0  0  0  0  0  0  0
  188.9120  177.7600  138.2660 C   0  0  1  0  0  3  0  0  0  0  0  0
  192.3860  174.8150  134.3460 C   0  0  0  0  0  3  0  0  0  0  0  0
  192.0460  174.5910  136.7330 C   0  0  0  0  0  0  0  0  0  0  0  0
  193.4550  173.0490  135.5000 C   0  0  0  0  0  0  0  0  0  0  0  0
  191.6370  174.9290  137.9570 C   0  0  0  0  0  3  0  0  0  0  0  0
  190.9450  176.3060  135.3440 C   0  0  0  0  0  3  0  0  0  0  0  0
  190.0710  177.0180  136.2780 C   0  0  0  0  0  3  0  0  0  0  0  0
  189.9680  176.9080  137.5970 C   0  0  0  0  0  0  0  0  0  0  0  0
  190.1000  177.2900  140.3820 C   0  0  0  0  0  0  0  0  0  0  0  0
  193.2030  173.7310  134.3560 N   0  0  0  0  0  0  0  0  0  0  0  0
  192.8860  173.4710  136.6970 C   0  0  0  0  0  3  0  0  0  0  0  0
  191.7720  175.2740  135.5180 C   0  0  2  0  0  3  0  0  0  0  0  0
  190.8300  176.2410  139.7300 N   0  0  0  0  0  2  0  0  0  0  0  0
  194.3220  171.9050  135.4790 C   0  0  0  0  0  0  0  0  0  0  0  0
  195.0210  170.9820  135.4650 N   0  0  0  0  0  0  0  0  0  0  0  0
  187.5400  177.0880  138.2090 C   0  0  0  0  0  2  0  0  0  0  0  0
  186.4590  178.0390  137.7150 C   0  0  0  0  0  2  0  0  0  0  0  0
  185.9430  178.8270  138.8190 N   0  0  0  0  0  2  0  0  0  0  0  0
  184.6050  179.2270  138.8260 N   0  0  0  0  0  0  0  0  0  0  0  0
  181.2150  176.8340  139.9840 C   0  0  0  0  0  1  0  0  0  0  0  0
  180.3970  180.2510  139.2350 C   0  0  1  0  0  3  0  0  0  0  0  0
  181.7010  178.4210  141.7010 O   0  0  0  0  0  1  0  0  0  0  0  0
  181.8420  180.0900  138.7940 C   0  0  0  0  0  2  0  0  0  0  0  0
  183.7330  178.5590  139.5080 C   0  0  0  0  0  3  0  0  0  0  0  0
  180.0560  179.0300  140.0840 C   0  0  0  0  0  2  0  0  0  0  0  0
  182.3560  178.9480  139.5250 N   0  0  0  0  0  0  0  0  0  0  0  0
  180.2790  181.4030  140.0100 O   0  0  0  0  0  1  0  0  0  0  0  0
  181.3590  178.2990  140.3530 C   0  0  2  0  0  0  0  0  0  0  0  0
  190.3460  177.5850  141.8210 C   0  0  0  0  0  2  0  0  0  0  0  0
  189.0460  177.9610  142.5100 C   0  0  0  0  0  2  0  0  0  0  0  0
  188.7120  176.9500  143.5950 C   0  0  2  0  0  3  0  0  0  0  0  0
  188.2410  175.7690  143.0220 O   0  0  0  0  0  1  0  0  0  0  0  0
  189.1470  177.1000  146.3530 O   0  0  0  0  0  0  0  0  0  0  0  0
  185.9460  178.0320  142.4900 Cl  0  0  0  0  0  0  0  0  0  0  0  0
  187.7080  177.4990  144.5790 C   0  0  2  0  0  3  0  0  0  0  0  0
  186.4500  178.0000  144.1740 C   0  0  0  0  0  0  0  0  0  0  0  0
  185.5620  178.4940  145.1290 C   0  0  0  0  0  3  0  0  0  0  0  0
  187.1390  178.0130  146.8520 N   0  0  0  0  0  0  0  0  0  0  0  0
  188.0310  177.5260  145.9500 C   0  0  0  0  0  0  0  0  0  0  0  0
  185.9240  178.4910  146.4750 C   0  0  0  0  0  3  0  0  0  0  0  0
  1 11  2  0  0  0  0
  2 15  1  0  0  0  0
  3 18  1  1  0  0  0
  3  1  1  0  0  0  0
  4 12  2  0  0  0  0
  5  7  2  0  0  0  0
  6 13  2  0  0  0  0
  7  2  1  0  0  0  0
  8 14  1  0  0  0  0
  8  9  2  0  0  0  0
  9 10  1  0  0  0  0
 10  3  1  0  0  0  0
 10  2  2  0  0  0  0
 11 31  1  0  0  0  0
 12  6  1  0  0  0  0
 13  5  1  0  0  0  0
 14  4  1  6  0  0  0
 14  5  1  0  0  0  0
 15 11  1  0  0  0  0
 16  6  1  0  0  0  0
 17 16  3  0  0  0  0
 19 18  1  0  0  0  0
 19 20  1  0  0  0  0
 20 21  1  0  0  0  0
 21 26  2  0  0  0  0
 23 29  1  1  0  0  0
 23 27  1  0  0  0  0
 25 23  1  0  0  0  0
 25 28  1  0  0  0  0
 26 28  1  0  0  0  0
 27 30  1  0  0  0  0
 28 30  1  0  0  0  0
 30 22  1  6  0  0  0
 30 24  1  0  0  0  0
 31 32  1  0  0  0  0
 32 33  1  0  0  0  0
 33 34  1  6  0  0  0
 36 38  1  0  0  0  0
 37 33  1  6  0  0  0
 37 41  1  0  0  0  0
 38 37  1  0  0  0  0
 38 39  2  0  0  0  0
 39 42  1  0  0  0  0
 41 35  2  0  0  0  0
 41 40  1  0  0  0  0
 42 40  2  0  0  0  0
M  END
>  <MODEL>
9

>  <REMARK>
 VINA RESULT:      -8.3      3.282      7.939
  Name = 
  9 active torsions:
  status: ('A' for Active; 'I' for Inactive)
    1  A    between atoms: N_5  and  N_10
    2  A    between atoms: C_6  and  C_20
    3  A    between atoms: C_7  and  N_10
    4  A    between atoms: C_7  and  C_13
    5  A    between atoms: C_8  and  C_13
    6  A    between atoms: C_11  and  C_26
    7  A    between atoms: C_15  and  C_30
    8  A    between atoms: C_15  and  C_36
    9  A    between atoms: C_26  and  C_36
                            x       y       z     vdW  Elec       q    Type
                         _______ _______ _______ _____ _____    ______ ____

>  <TORSDO>
F 9

$$$$
