=
 OpenBabel10232411323D

 27 29  0  0  1  0  0  0  0  0999 V2000
  191.1740  176.9930  140.2240 N   0  0  0  0  0  0  0  0  0  0  0  0
  191.4780  176.9520  138.9110 C   0  0  0  0  0  0  0  0  0  0  0  0
  190.4070  177.3630  138.1180 C   0  0  0  0  0  3  0  0  0  0  0  0
  189.1650  177.6050  141.5410 C   0  0  1  0  0  3  0  0  0  0  0  0
  188.0970  178.1550  138.9040 C   0  0  0  0  0  0  0  0  0  0  0  0
  186.9930  178.5750  142.4230 N   0  0  0  0  0  2  0  0  0  0  0  0
  189.9290  177.4210  140.3030 N   0  0  0  0  0  0  0  0  0  0  0  0
  189.4500  177.6470  139.0760 C   0  0  0  0  0  0  0  0  0  0  0  0
  187.3410  178.4510  140.0830 N   0  0  0  0  0  0  0  0  0  0  0  0
  187.6060  178.3890  137.7320 N   0  0  0  0  0  2  0  0  0  0  0  0
  187.7950  178.2320  141.2910 C   0  0  0  0  0  0  0  0  0  0  0  0
  192.7260  176.5410  138.4400 O   0  0  0  0  0  0  0  0  0  0  0  0
  192.9420  176.2010  137.0790 C   0  0  0  0  0  1  0  0  0  0  0  0
  189.0420  176.2860  142.3030 C   0  0  0  0  0  2  0  0  0  0  0  0
  190.1420  176.1280  143.3530 C   0  0  0  0  0  2  0  0  0  0  0  0
  191.3050  177.1700  145.2710 N   0  0  0  0  0  0  0  0  0  0  0  0
  188.9190  177.2230  145.2450 C   0  0  0  0  0  3  0  0  0  0  0  0
  188.4490  177.1050  147.6740 C   0  0  0  0  0  1  0  0  0  0  0  0
  190.1390  177.2610  144.3770 C   0  0  2  0  0  3  0  0  0  0  0  0
  189.3380  177.1590  146.4840 C   0  0  0  0  0  0  0  0  0  0  0  0
  190.7450  177.1330  146.5560 N   0  0  0  0  0  0  0  0  0  0  0  0
  185.6720  179.1700  142.2950 C   0  0  0  0  0  2  0  0  0  0  0  0
  184.6200  178.2420  142.8800 C   0  0  0  0  0  2  0  0  0  0  0  0
  182.8760  178.9820  144.4370 C   0  0  0  0  0  2  0  0  0  0  0  0
  184.1650  178.7130  144.2250 C   0  0  0  0  0  0  0  0  0  0  0  0
  185.1870  179.1380  145.2270 C   0  0  0  0  0  2  0  0  0  0  0  0
  185.0050  178.3740  146.5260 C   0  0  0  0  0  1  0  0  0  0  0  0
  1  7  1  0  0  0  0
  2  1  2  0  0  0  0
  3  2  1  0  0  0  0
  3  8  2  0  0  0  0
  4 14  1  6  0  0  0
  5  8  1  0  0  0  0
  5  9  1  0  0  0  0
  7  4  1  0  0  0  0
  8  7  1  0  0  0  0
  9 11  2  0  0  0  0
 10  5  2  0  0  0  0
 11  4  1  0  0  0  0
 11  6  1  0  0  0  0
 12  2  1  0  0  0  0
 13 12  1  0  0  0  0
 14 15  1  0  0  0  0
 16 21  2  0  0  0  0
 17 20  2  0  0  0  0
 19 15  1  6  0  0  0
 19 17  1  0  0  0  0
 19 16  1  0  0  0  0
 20 21  1  0  0  0  0
 20 18  1  0  0  0  0
 22  6  1  0  0  0  0
 22 23  1  0  0  0  0
 23 25  1  0  0  0  0
 25 24  2  0  0  0  0
 25 26  1  0  0  0  0
 26 27  1  0  0  0  0
M  END
>  <MODEL>
1

>  <REMARK>
 VINA RESULT:      -8.1      0.000      0.000
  Name = 
  8 active torsions:
  status: ('A' for Active; 'I' for Inactive)
    1  A    between atoms: C_3  and  O_10
    2  A    between atoms: C_6  and  C_23
    3  A    between atoms: N_8  and  C_24
    4  A    between atoms: C_9  and  C_25
    5  A    between atoms: C_14  and  C_24
    6  A    between atoms: C_14  and  C_25
    7  A    between atoms: C_17  and  C_18
    8  A    between atoms: C_18  and  C_23
                            x       y       z     vdW  Elec       q    Type
                         _______ _______ _______ _____ _____    ______ ____

>  <TORSDO>
F 8

$$$$
=
 OpenBabel10232411323D

 27 29  0  0  1  0  0  0  0  0999 V2000
  186.7880  178.9070  140.8380 N   0  0  0  0  0  0  0  0  0  0  0  0
  185.5230  178.9990  141.2980 C   0  0  0  0  0  0  0  0  0  0  0  0
  185.3890  178.4180  142.5590 C   0  0  0  0  0  3  0  0  0  0  0  0
  188.9010  177.9370  141.6970 C   0  0  1  0  0  3  0  0  0  0  0  0
  187.2190  177.3040  143.9690 C   0  0  0  0  0  0  0  0  0  0  0  0
  190.8190  177.0510  143.1020 N   0  0  0  0  0  2  0  0  0  0  0  0
  187.4770  178.2790  141.7710 N   0  0  0  0  0  0  0  0  0  0  0  0
  186.6780  177.9780  142.7980 C   0  0  0  0  0  0  0  0  0  0  0  0
  188.6250  177.0370  143.9950 N   0  0  0  0  0  0  0  0  0  0  0  0
  186.4740  177.0030  144.9800 N   0  0  0  0  0  2  0  0  0  0  0  0
  189.4200  177.3240  142.9950 C   0  0  0  0  0  0  0  0  0  0  0  0
  184.5010  179.6080  140.5700 O   0  0  0  0  0  0  0  0  0  0  0  0
  184.3210  179.3710  139.1820 C   0  0  0  0  0  1  0  0  0  0  0  0
  189.1780  177.0260  140.5020 C   0  0  0  0  0  2  0  0  0  0  0  0
  190.1590  177.6580  139.5150 C   0  0  0  0  0  2  0  0  0  0  0  0
  188.9710  179.1180  137.9110 N   0  0  0  0  0  0  0  0  0  0  0  0
  188.4940  176.7800  137.8610 C   0  0  0  0  0  3  0  0  0  0  0  0
  186.1130  176.8300  137.1840 C   0  0  0  0  0  1  0  0  0  0  0  0
  189.5720  177.7900  138.1110 C   0  0  2  0  0  3  0  0  0  0  0  0
  187.4210  177.4490  137.5210 C   0  0  0  0  0  0  0  0  0  0  0  0
  187.6510  178.8390  137.5270 N   0  0  0  0  0  0  0  0  0  0  0  0
  191.4150  176.4630  144.2910 C   0  0  0  0  0  2  0  0  0  0  0  0
  191.3990  177.4630  145.4350 C   0  0  0  0  0  2  0  0  0  0  0  0
  191.9600  176.0410  147.3530 C   0  0  0  0  0  2  0  0  0  0  0  0
  191.0560  176.8010  146.7330 C   0  0  0  0  0  0  0  0  0  0  0  0
  189.6310  176.7720  147.1770 C   0  0  0  0  0  2  0  0  0  0  0  0
  189.3280  177.9650  148.0640 C   0  0  0  0  0  1  0  0  0  0  0  0
  1  2  2  0  0  0  0
  1  7  1  0  0  0  0
  2  3  1  0  0  0  0
  3  8  2  0  0  0  0
  4 14  1  6  0  0  0
  4  7  1  0  0  0  0
  4 11  1  0  0  0  0
  5  9  1  0  0  0  0
  5 10  2  0  0  0  0
  6 22  1  0  0  0  0
  7  8  1  0  0  0  0
  8  5  1  0  0  0  0
 11  6  1  0  0  0  0
 11  9  2  0  0  0  0
 12  2  1  0  0  0  0
 13 12  1  0  0  0  0
 15 14  1  0  0  0  0
 16 19  1  0  0  0  0
 17 19  1  0  0  0  0
 18 20  1  0  0  0  0
 19 15  1  1  0  0  0
 20 21  1  0  0  0  0
 20 17  2  0  0  0  0
 21 16  2  0  0  0  0
 22 23  1  0  0  0  0
 23 25  1  0  0  0  0
 25 26  1  0  0  0  0
 25 24  2  0  0  0  0
 26 27  1  0  0  0  0
M  END
>  <MODEL>
2

>  <REMARK>
 VINA RESULT:      -7.9      2.650      6.719
  Name = 
  8 active torsions:
  status: ('A' for Active; 'I' for Inactive)
    1  A    between atoms: C_3  and  O_10
    2  A    between atoms: C_6  and  C_23
    3  A    between atoms: N_8  and  C_24
    4  A    between atoms: C_9  and  C_25
    5  A    between atoms: C_14  and  C_24
    6  A    between atoms: C_14  and  C_25
    7  A    between atoms: C_17  and  C_18
    8  A    between atoms: C_18  and  C_23
                            x       y       z     vdW  Elec       q    Type
                         _______ _______ _______ _____ _____    ______ ____

>  <TORSDO>
F 8

$$$$
=
 OpenBabel10232411323D

 27 29  0  0  1  0  0  0  0  0999 V2000
  186.1970  178.4990  142.0420 N   0  0  0  0  0  0  0  0  0  0  0  0
  184.9490  179.0110  141.9980 C   0  0  0  0  0  0  0  0  0  0  0  0
  184.3790  179.0910  143.2690 C   0  0  0  0  0  3  0  0  0  0  0  0
  187.6850  177.6570  143.8360 C   0  0  1  0  0  3  0  0  0  0  0  0
  185.4430  178.4200  145.5040 C   0  0  0  0  0  0  0  0  0  0  0  0
  188.9010  177.1670  146.0090 N   0  0  0  0  0  2  0  0  0  0  0  0
  186.4480  178.2440  143.3110 N   0  0  0  0  0  0  0  0  0  0  0  0
  185.3940  178.5820  144.0590 C   0  0  0  0  0  0  0  0  0  0  0  0
  186.6650  177.9470  146.0810 N   0  0  0  0  0  0  0  0  0  0  0  0
  184.4420  178.7420  146.2550 N   0  0  0  0  0  2  0  0  0  0  0  0
  187.7050  177.6080  145.3620 C   0  0  0  0  0  0  0  0  0  0  0  0
  184.3380  179.4020  140.8060 O   0  0  0  0  0  0  0  0  0  0  0  0
  184.2500  178.5330  139.6870 C   0  0  0  0  0  1  0  0  0  0  0  0
  187.9270  176.2740  143.2330 C   0  0  0  0  0  2  0  0  0  0  0  0
  189.3590  176.1140  142.7210 C   0  0  0  0  0  2  0  0  0  0  0  0
  189.2740  177.2730  140.5380 N   0  0  0  0  0  0  0  0  0  0  0  0
  191.3160  177.3580  141.7720 C   0  0  0  0  0  3  0  0  0  0  0  0
  192.9520  177.4180  139.9130 C   0  0  0  0  0  1  0  0  0  0  0  0
  189.8240  177.3170  141.9030 C   0  0  2  0  0  3  0  0  0  0  0  0
  191.5820  177.3760  140.4890 C   0  0  0  0  0  0  0  0  0  0  0  0
  190.4070  177.3350  139.7140 N   0  0  0  0  0  0  0  0  0  0  0  0
  189.0210  177.0780  147.4560 C   0  0  0  0  0  2  0  0  0  0  0  0
  190.4460  177.3930  147.8830 C   0  0  0  0  0  2  0  0  0  0  0  0
  192.2490  175.7320  147.8170 C   0  0  0  0  0  2  0  0  0  0  0  0
  191.4350  176.5480  147.1450 C   0  0  0  0  0  0  0  0  0  0  0  0
  191.6900  176.8260  145.7000 C   0  0  0  0  0  2  0  0  0  0  0  0
  191.9450  175.5330  144.9480 C   0  0  0  0  0  1  0  0  0  0  0  0
  1  7  1  0  0  0  0
  2  1  2  0  0  0  0
  2  3  1  0  0  0  0
  3  8  2  0  0  0  0
  4 14  1  6  0  0  0
  4 11  1  0  0  0  0
  5  9  1  0  0  0  0
  5 10  2  0  0  0  0
  6 22  1  0  0  0  0
  7  4  1  0  0  0  0
  7  8  1  0  0  0  0
  8  5  1  0  0  0  0
 11  6  1  0  0  0  0
 11  9  2  0  0  0  0
 12  2  1  0  0  0  0
 13 12  1  0  0  0  0
 15 14  1  0  0  0  0
 16 19  1  0  0  0  0
 17 19  1  0  0  0  0
 18 20  1  0  0  0  0
 19 15  1  1  0  0  0
 20 17  2  0  0  0  0
 21 20  1  0  0  0  0
 21 16  2  0  0  0  0
 22 23  1  0  0  0  0
 25 24  2  0  0  0  0
 25 23  1  0  0  0  0
 26 25  1  0  0  0  0
 27 26  1  0  0  0  0
M  END
>  <MODEL>
3

>  <REMARK>
 VINA RESULT:      -7.8      2.652      6.690
  Name = 
  8 active torsions:
  status: ('A' for Active; 'I' for Inactive)
    1  A    between atoms: C_3  and  O_10
    2  A    between atoms: C_6  and  C_23
    3  A    between atoms: N_8  and  C_24
    4  A    between atoms: C_9  and  C_25
    5  A    between atoms: C_14  and  C_24
    6  A    between atoms: C_14  and  C_25
    7  A    between atoms: C_17  and  C_18
    8  A    between atoms: C_18  and  C_23
                            x       y       z     vdW  Elec       q    Type
                         _______ _______ _______ _____ _____    ______ ____

>  <TORSDO>
F 8

$$$$
=
 OpenBabel10232411323D

 27 29  0  0  1  0  0  0  0  0999 V2000
  189.0100  178.1420  142.5630 N   0  0  0  0  0  0  0  0  0  0  0  0
  190.1190  177.5920  142.0280 C   0  0  0  0  0  0  0  0  0  0  0  0
  189.9650  177.3380  140.6650 C   0  0  0  0  0  3  0  0  0  0  0  0
  186.7760  178.7790  141.6970 C   0  0  1  0  0  3  0  0  0  0  0  0
  187.9100  177.8210  139.2090 C   0  0  0  0  0  0  0  0  0  0  0  0
  184.7800  179.4910  140.3020 N   0  0  0  0  0  2  0  0  0  0  0  0
  188.1380  178.2490  141.5780 N   0  0  0  0  0  0  0  0  0  0  0  0
  188.6740  177.7820  140.4470 C   0  0  0  0  0  0  0  0  0  0  0  0
  186.6110  178.4220  139.2450 N   0  0  0  0  0  0  0  0  0  0  0  0
  188.4000  177.3820  138.0970 N   0  0  0  0  0  2  0  0  0  0  0  0
  186.0720  178.8810  140.3460 C   0  0  0  0  0  0  0  0  0  0  0  0
  191.2640  177.3250  142.7800 O   0  0  0  0  0  0  0  0  0  0  0  0
  191.5710  178.0480  143.9630 C   0  0  0  0  0  1  0  0  0  0  0  0
  185.9580  177.9520  142.6890 C   0  0  0  0  0  2  0  0  0  0  0  0
  185.2870  178.8280  143.7470 C   0  0  0  0  0  2  0  0  0  0  0  0
  184.4960  178.9840  146.0850 N   0  0  0  0  0  0  0  0  0  0  0  0
  186.4640  177.7040  145.6530 C   0  0  0  0  0  3  0  0  0  0  0  0
  187.7140  178.0920  147.7560 C   0  0  0  0  0  1  0  0  0  0  0  0
  185.1380  178.1120  145.0880 C   0  0  2  0  0  3  0  0  0  0  0  0
  186.5510  178.2450  146.8430 C   0  0  0  0  0  0  0  0  0  0  0  0
  185.4070  179.0080  147.1520 N   0  0  0  0  0  0  0  0  0  0  0  0
  184.0220  179.6320  139.0690 C   0  0  0  0  0  2  0  0  0  0  0  0
  182.5400  179.4230  139.3370 C   0  0  0  0  0  2  0  0  0  0  0  0
  182.8040  177.0260  139.7850 C   0  0  0  0  0  2  0  0  0  0  0  0
  182.3050  178.2020  140.1700 C   0  0  0  0  0  0  0  0  0  0  0  0
  181.2930  178.2570  141.2650 C   0  0  0  0  0  2  0  0  0  0  0  0
  181.8810  178.9190  142.4980 C   0  0  0  0  0  1  0  0  0  0  0  0
  2  1  2  0  0  0  0
  2 12  1  0  0  0  0
  3  2  1  0  0  0  0
  4 14  1  1  0  0  0
  5  9  1  0  0  0  0
  5  8  1  0  0  0  0
  6 11  1  0  0  0  0
  7  4  1  0  0  0  0
  7  1  1  0  0  0  0
  8  3  2  0  0  0  0
  8  7  1  0  0  0  0
  9 11  2  0  0  0  0
 10  5  2  0  0  0  0
 11  4  1  0  0  0  0
 12 13  1  0  0  0  0
 14 15  1  0  0  0  0
 16 21  2  0  0  0  0
 17 20  2  0  0  0  0
 19 15  1  6  0  0  0
 19 17  1  0  0  0  0
 19 16  1  0  0  0  0
 20 21  1  0  0  0  0
 20 18  1  0  0  0  0
 22 23  1  0  0  0  0
 22  6  1  0  0  0  0
 23 25  1  0  0  0  0
 24 25  2  0  0  0  0
 25 26  1  0  0  0  0
 26 27  1  0  0  0  0
M  END
>  <MODEL>
4

>  <REMARK>
 VINA RESULT:      -7.7      2.614      4.045
  Name = 
  8 active torsions:
  status: ('A' for Active; 'I' for Inactive)
    1  A    between atoms: C_3  and  O_10
    2  A    between atoms: C_6  and  C_23
    3  A    between atoms: N_8  and  C_24
    4  A    between atoms: C_9  and  C_25
    5  A    between atoms: C_14  and  C_24
    6  A    between atoms: C_14  and  C_25
    7  A    between atoms: C_17  and  C_18
    8  A    between atoms: C_18  and  C_23
                            x       y       z     vdW  Elec       q    Type
                         _______ _______ _______ _____ _____    ______ ____

>  <TORSDO>
F 8

$$$$
=
 OpenBabel10232411323D

 27 29  0  0  1  0  0  0  0  0999 V2000
  190.6700  176.9180  145.7510 N   0  0  0  0  0  0  0  0  0  0  0  0
  190.7530  177.0280  147.0930 C   0  0  0  0  0  0  0  0  0  0  0  0
  189.5590  177.4880  147.6490 C   0  0  0  0  0  3  0  0  0  0  0  0
  188.9120  177.3620  144.0600 C   0  0  1  0  0  3  0  0  0  0  0  0
  187.3850  178.0690  146.4180 C   0  0  0  0  0  0  0  0  0  0  0  0
  186.7490  177.7040  142.7790 N   0  0  0  0  0  2  0  0  0  0  0  0
  189.4500  177.2980  145.4230 N   0  0  0  0  0  0  0  0  0  0  0  0
  188.7720  177.6410  146.5220 C   0  0  0  0  0  0  0  0  0  0  0  0
  186.7770  178.0520  145.1220 N   0  0  0  0  0  0  0  0  0  0  0  0
  186.7000  178.4020  147.4620 N   0  0  0  0  0  2  0  0  0  0  0  0
  187.4290  177.7230  144.0360 C   0  0  0  0  0  0  0  0  0  0  0  0
  191.9110  176.7090  147.8030 O   0  0  0  0  0  0  0  0  0  0  0  0
  192.4310  175.3880  147.8390 C   0  0  0  0  0  1  0  0  0  0  0  0
  189.7320  178.3220  143.1980 C   0  0  0  0  0  2  0  0  0  0  0  0
  190.5550  177.5830  142.1440 C   0  0  0  0  0  2  0  0  0  0  0  0
  190.4990  176.2240  140.0780 N   0  0  0  0  0  0  0  0  0  0  0  0
  189.0440  178.1110  140.2170 C   0  0  0  0  0  3  0  0  0  0  0  0
  188.9810  178.7950  137.8370 C   0  0  0  0  0  1  0  0  0  0  0  0
  189.6920  177.0220  141.0150 C   0  0  2  0  0  3  0  0  0  0  0  0
  189.4040  177.9310  138.9700 C   0  0  0  0  0  0  0  0  0  0  0  0
  190.2610  176.8210  138.8320 N   0  0  0  0  0  0  0  0  0  0  0  0
  185.3390  178.0370  142.6460 C   0  0  0  0  0  2  0  0  0  0  0  0
  185.1550  179.1300  141.6050 C   0  0  0  0  0  2  0  0  0  0  0  0
  183.3850  177.6460  140.7810 C   0  0  0  0  0  2  0  0  0  0  0  0
  184.0790  178.7750  140.6280 C   0  0  0  0  0  0  0  0  0  0  0  0
  183.9800  179.5400  139.3500 C   0  0  0  0  0  2  0  0  0  0  0  0
  182.5480  179.5480  138.8470 C   0  0  0  0  0  1  0  0  0  0  0  0
  1  2  2  0  0  0  0
  2  3  1  0  0  0  0
  2 12  1  0  0  0  0
  4 14  1  6  0  0  0
  4  7  1  0  0  0  0
  5  8  1  0  0  0  0
  5 10  2  0  0  0  0
  6 11  1  0  0  0  0
  7  1  1  0  0  0  0
  7  8  1  0  0  0  0
  8  3  2  0  0  0  0
  9  5  1  0  0  0  0
 11  4  1  0  0  0  0
 11  9  2  0  0  0  0
 12 13  1  0  0  0  0
 15 14  1  0  0  0  0
 16 19  1  0  0  0  0
 17 19  1  0  0  0  0
 18 20  1  0  0  0  0
 19 15  1  1  0  0  0
 20 17  2  0  0  0  0
 21 20  1  0  0  0  0
 21 16  2  0  0  0  0
 22  6  1  0  0  0  0
 23 22  1  0  0  0  0
 25 24  2  0  0  0  0
 25 23  1  0  0  0  0
 26 25  1  0  0  0  0
 27 26  1  0  0  0  0
M  END
>  <MODEL>
5

>  <REMARK>
 VINA RESULT:      -7.5      2.772      6.378
  Name = 
  8 active torsions:
  status: ('A' for Active; 'I' for Inactive)
    1  A    between atoms: C_3  and  O_10
    2  A    between atoms: C_6  and  C_23
    3  A    between atoms: N_8  and  C_24
    4  A    between atoms: C_9  and  C_25
    5  A    between atoms: C_14  and  C_24
    6  A    between atoms: C_14  and  C_25
    7  A    between atoms: C_17  and  C_18
    8  A    between atoms: C_18  and  C_23
                            x       y       z     vdW  Elec       q    Type
                         _______ _______ _______ _____ _____    ______ ____

>  <TORSDO>
F 8

$$$$
=
 OpenBabel10232411323D

 27 29  0  0  1  0  0  0  0  0999 V2000
  186.4630  177.8360  144.1420 N   0  0  0  0  0  0  0  0  0  0  0  0
  185.2330  178.3840  144.2280 C   0  0  0  0  0  0  0  0  0  0  0  0
  184.8150  178.9100  143.0060 C   0  0  0  0  0  3  0  0  0  0  0  0
  188.1430  177.5710  142.3380 C   0  0  1  0  0  3  0  0  0  0  0  0
  186.0890  178.8940  140.7800 C   0  0  0  0  0  0  0  0  0  0  0  0
  189.3880  177.3140  140.1430 N   0  0  0  0  0  2  0  0  0  0  0  0
  186.8530  177.9960  142.8920 N   0  0  0  0  0  0  0  0  0  0  0  0
  185.9020  178.6280  142.1990 C   0  0  0  0  0  0  0  0  0  0  0  0
  187.2870  178.4100  140.1640 N   0  0  0  0  0  0  0  0  0  0  0  0
  185.1870  179.4980  140.0800 N   0  0  0  0  0  2  0  0  0  0  0  0
  188.2300  177.7930  140.8310 C   0  0  0  0  0  0  0  0  0  0  0  0
  184.4990  178.4020  145.4150 O   0  0  0  0  0  0  0  0  0  0  0  0
  185.1260  178.3460  146.6880 C   0  0  0  0  0  1  0  0  0  0  0  0
  189.2980  178.2550  143.0690 C   0  0  0  0  0  2  0  0  0  0  0  0
  190.1600  177.2550  143.8390 C   0  0  0  0  0  2  0  0  0  0  0  0
  191.3030  176.7430  145.9720 N   0  0  0  0  0  0  0  0  0  0  0  0
  189.3020  178.0410  146.0580 C   0  0  0  0  0  3  0  0  0  0  0  0
  188.3900  177.3030  148.2390 C   0  0  0  0  0  1  0  0  0  0  0  0
  190.5210  177.7510  145.2380 C   0  0  2  0  0  3  0  0  0  0  0  0
  189.3960  177.3170  147.1450 C   0  0  0  0  0  0  0  0  0  0  0  0
  190.5680  176.5350  147.1480 N   0  0  0  0  0  0  0  0  0  0  0  0
  189.5720  177.4800  138.7100 C   0  0  0  0  0  2  0  0  0  0  0  0
  189.5420  176.1270  138.0170 C   0  0  0  0  0  2  0  0  0  0  0  0
  191.9810  176.3820  137.9890 C   0  0  0  0  0  2  0  0  0  0  0  0
  190.9230  175.5880  137.8150 C   0  0  0  0  0  0  0  0  0  0  0  0
  191.0930  174.2580  137.1590 C   0  0  0  0  0  2  0  0  0  0  0  0
  189.7440  173.5940  136.9510 C   0  0  0  0  0  1  0  0  0  0  0  0
  1  2  2  0  0  0  0
  2 12  1  0  0  0  0
  3  2  1  0  0  0  0
  4  7  1  0  0  0  0
  4 14  1  1  0  0  0
  5  8  1  0  0  0  0
  6 11  1  0  0  0  0
  7  1  1  0  0  0  0
  8  7  1  0  0  0  0
  8  3  2  0  0  0  0
  9  5  1  0  0  0  0
  9 11  2  0  0  0  0
 10  5  2  0  0  0  0
 11  4  1  0  0  0  0
 12 13  1  0  0  0  0
 14 15  1  0  0  0  0
 16 21  2  0  0  0  0
 17 20  2  0  0  0  0
 19 15  1  6  0  0  0
 19 16  1  0  0  0  0
 19 17  1  0  0  0  0
 20 21  1  0  0  0  0
 20 18  1  0  0  0  0
 22  6  1  0  0  0  0
 23 22  1  0  0  0  0
 25 24  2  0  0  0  0
 25 23  1  0  0  0  0
 26 25  1  0  0  0  0
 27 26  1  0  0  0  0
M  END
>  <MODEL>
6

>  <REMARK>
 VINA RESULT:      -7.4      2.546      6.386
  Name = 
  8 active torsions:
  status: ('A' for Active; 'I' for Inactive)
    1  A    between atoms: C_3  and  O_10
    2  A    between atoms: C_6  and  C_23
    3  A    between atoms: N_8  and  C_24
    4  A    between atoms: C_9  and  C_25
    5  A    between atoms: C_14  and  C_24
    6  A    between atoms: C_14  and  C_25
    7  A    between atoms: C_17  and  C_18
    8  A    between atoms: C_18  and  C_23
                            x       y       z     vdW  Elec       q    Type
                         _______ _______ _______ _____ _____    ______ ____

>  <TORSDO>
F 8

$$$$
=
 OpenBabel10232411323D

 27 29  0  0  1  0  0  0  0  0999 V2000
  187.2050  177.4140  144.3530 N   0  0  0  0  0  0  0  0  0  0  0  0
  185.9880  177.9050  144.6650 C   0  0  0  0  0  0  0  0  0  0  0  0
  185.3900  178.5350  143.5750 C   0  0  0  0  0  3  0  0  0  0  0  0
  188.6180  177.3940  142.3160 C   0  0  1  0  0  3  0  0  0  0  0  0
  186.3360  178.7900  141.2040 C   0  0  0  0  0  0  0  0  0  0  0  0
  189.5450  177.4050  139.9540 N   0  0  0  0  0  2  0  0  0  0  0  0
  187.4110  177.7130  143.0850 N   0  0  0  0  0  0  0  0  0  0  0  0
  186.3570  178.3750  142.5990 C   0  0  0  0  0  0  0  0  0  0  0  0
  187.4450  178.4140  140.3800 N   0  0  0  0  0  0  0  0  0  0  0  0
  185.3300  179.4270  140.7030 N   0  0  0  0  0  2  0  0  0  0  0  0
  188.4860  177.7690  140.8420 C   0  0  0  0  0  0  0  0  0  0  0  0
  185.4290  177.7760  145.9370 O   0  0  0  0  0  0  0  0  0  0  0  0
  185.5660  178.7880  146.9240 C   0  0  0  0  0  1  0  0  0  0  0  0
  189.8500  178.0430  142.9460 C   0  0  0  0  0  2  0  0  0  0  0  0
  190.6820  177.0380  143.7430 C   0  0  0  0  0  2  0  0  0  0  0  0
  191.6870  176.5030  145.9380 N   0  0  0  0  0  0  0  0  0  0  0  0
  189.8590  178.0380  145.8880 C   0  0  0  0  0  3  0  0  0  0  0  0
  188.7970  177.5320  148.0670 C   0  0  0  0  0  1  0  0  0  0  0  0
  191.0590  177.5600  145.1280 C   0  0  2  0  0  3  0  0  0  0  0  0
  189.8310  177.3660  147.0110 C   0  0  0  0  0  0  0  0  0  0  0  0
  190.8960  176.4480  147.0950 N   0  0  0  0  0  0  0  0  0  0  0  0
  189.5210  177.7200  138.5340 C   0  0  0  0  0  2  0  0  0  0  0  0
  189.2700  176.4600  137.7220 C   0  0  0  0  0  2  0  0  0  0  0  0
  187.3280  175.1650  136.9710 C   0  0  0  0  0  2  0  0  0  0  0  0
  187.8330  176.3490  137.3190 C   0  0  0  0  0  0  0  0  0  0  0  0
  187.0600  177.5960  137.0460 C   0  0  0  0  0  2  0  0  0  0  0  0
  185.5790  177.2860  136.9290 C   0  0  0  0  0  1  0  0  0  0  0  0
  1  2  2  0  0  0  0
  2 12  1  0  0  0  0
  3  2  1  0  0  0  0
  4 14  1  1  0  0  0
  4  7  1  0  0  0  0
  5  8  1  0  0  0  0
  6 11  1  0  0  0  0
  7  1  1  0  0  0  0
  8  7  1  0  0  0  0
  8  3  2  0  0  0  0
  9 11  2  0  0  0  0
  9  5  1  0  0  0  0
 10  5  2  0  0  0  0
 11  4  1  0  0  0  0
 12 13  1  0  0  0  0
 14 15  1  0  0  0  0
 16 21  2  0  0  0  0
 17 20  2  0  0  0  0
 19 15  1  6  0  0  0
 19 17  1  0  0  0  0
 19 16  1  0  0  0  0
 20 21  1  0  0  0  0
 20 18  1  0  0  0  0
 22  6  1  0  0  0  0
 23 22  1  0  0  0  0
 24 25  2  0  0  0  0
 25 23  1  0  0  0  0
 26 25  1  0  0  0  0
 27 26  1  0  0  0  0
M  END
>  <MODEL>
7

>  <REMARK>
 VINA RESULT:      -7.4      2.574      5.826
  Name = 
  8 active torsions:
  status: ('A' for Active; 'I' for Inactive)
    1  A    between atoms: C_3  and  O_10
    2  A    between atoms: C_6  and  C_23
    3  A    between atoms: N_8  and  C_24
    4  A    between atoms: C_9  and  C_25
    5  A    between atoms: C_14  and  C_24
    6  A    between atoms: C_14  and  C_25
    7  A    between atoms: C_17  and  C_18
    8  A    between atoms: C_18  and  C_23
                            x       y       z     vdW  Elec       q    Type
                         _______ _______ _______ _____ _____    ______ ____

>  <TORSDO>
F 8

$$$$
=
 OpenBabel10232411323D

 27 29  0  0  1  0  0  0  0  0999 V2000
  190.2530  176.7580  144.7340 N   0  0  0  0  0  0  0  0  0  0  0  0
  190.7050  176.8540  146.0010 C   0  0  0  0  0  0  0  0  0  0  0  0
  189.7320  177.3660  146.8590 C   0  0  0  0  0  3  0  0  0  0  0  0
  188.1220  177.2940  143.5860 C   0  0  1  0  0  3  0  0  0  0  0  0
  187.3340  178.0560  146.2680 C   0  0  0  0  0  0  0  0  0  0  0  0
  185.7090  177.7460  142.9440 N   0  0  0  0  0  2  0  0  0  0  0  0
  189.0090  177.1970  144.7500 N   0  0  0  0  0  0  0  0  0  0  0  0
  188.6740  177.5630  145.9900 C   0  0  0  0  0  0  0  0  0  0  0  0
  186.3940  178.0760  145.1880 N   0  0  0  0  0  0  0  0  0  0  0  0
  186.9770  178.4130  147.4570 N   0  0  0  0  0  2  0  0  0  0  0  0
  186.7070  177.7240  143.9670 C   0  0  0  0  0  0  0  0  0  0  0  0
  191.9970  176.4770  146.3690 O   0  0  0  0  0  0  0  0  0  0  0  0
  192.2570  175.7490  147.5590 C   0  0  0  0  0  1  0  0  0  0  0  0
  188.7180  178.2210  142.5270 C   0  0  0  0  0  2  0  0  0  0  0  0
  188.9520  177.4980  141.2000 C   0  0  0  0  0  2  0  0  0  0  0  0
  187.2400  178.7760  139.9550 N   0  0  0  0  0  0  0  0  0  0  0  0
  188.9530  177.6840  138.7020 C   0  0  0  0  0  3  0  0  0  0  0  0
  187.7000  177.1190  136.6410 C   0  0  0  0  0  1  0  0  0  0  0  0
  188.6580  178.3860  139.9920 C   0  0  2  0  0  3  0  0  0  0  0  0
  187.8480  177.7080  137.9980 C   0  0  0  0  0  0  0  0  0  0  0  0
  186.8040  178.3510  138.6910 N   0  0  0  0  0  0  0  0  0  0  0  0
  184.3340  178.1450  143.2000 C   0  0  0  0  0  2  0  0  0  0  0  0
  183.6410  178.5030  141.8960 C   0  0  0  0  0  2  0  0  0  0  0  0
  181.3530  178.7580  141.0510 C   0  0  0  0  0  2  0  0  0  0  0  0
  182.1750  178.7230  142.1010 C   0  0  0  0  0  0  0  0  0  0  0  0
  181.6900  179.1720  143.4390 C   0  0  0  0  0  2  0  0  0  0  0  0
  180.2570  178.7250  143.6610 C   0  0  0  0  0  1  0  0  0  0  0  0
  1  7  1  0  0  0  0
  1  2  2  0  0  0  0
  2 12  1  0  0  0  0
  2  3  1  0  0  0  0
  4 14  1  6  0  0  0
  4 11  1  0  0  0  0
  4  7  1  0  0  0  0
  5 10  2  0  0  0  0
  6 22  1  0  0  0  0
  6 11  1  0  0  0  0
  7  8  1  0  0  0  0
  8  5  1  0  0  0  0
  8  3  2  0  0  0  0
  9  5  1  0  0  0  0
 11  9  2  0  0  0  0
 12 13  1  0  0  0  0
 15 14  1  0  0  0  0
 16 19  1  0  0  0  0
 17 19  1  0  0  0  0
 18 20  1  0  0  0  0
 19 15  1  1  0  0  0
 20 21  1  0  0  0  0
 20 17  2  0  0  0  0
 21 16  2  0  0  0  0
 23 25  1  0  0  0  0
 23 22  1  0  0  0  0
 24 25  2  0  0  0  0
 25 26  1  0  0  0  0
 26 27  1  0  0  0  0
M  END
>  <MODEL>
8

>  <REMARK>
 VINA RESULT:      -7.4      2.517      6.267
  Name = 
  8 active torsions:
  status: ('A' for Active; 'I' for Inactive)
    1  A    between atoms: C_3  and  O_10
    2  A    between atoms: C_6  and  C_23
    3  A    between atoms: N_8  and  C_24
    4  A    between atoms: C_9  and  C_25
    5  A    between atoms: C_14  and  C_24
    6  A    between atoms: C_14  and  C_25
    7  A    between atoms: C_17  and  C_18
    8  A    between atoms: C_18  and  C_23
                            x       y       z     vdW  Elec       q    Type
                         _______ _______ _______ _____ _____    ______ ____

>  <TORSDO>
F 8

$$$$
=
 OpenBabel10232411323D

 27 29  0  0  1  0  0  0  0  0999 V2000
  189.6640  177.2950  145.8630 N   0  0  0  0  0  0  0  0  0  0  0  0
  190.9100  176.9080  146.2050 C   0  0  0  0  0  0  0  0  0  0  0  0
  191.7350  176.7730  145.0880 C   0  0  0  0  0  3  0  0  0  0  0  0
  188.5060  177.7940  143.7290 C   0  0  1  0  0  3  0  0  0  0  0  0
  191.1200  177.1960  142.6330 C   0  0  0  0  0  0  0  0  0  0  0  0
  187.8630  178.4430  141.3620 N   0  0  0  0  0  2  0  0  0  0  0  0
  189.6600  177.4120  144.5490 N   0  0  0  0  0  0  0  0  0  0  0  0
  190.8680  177.1100  144.0640 C   0  0  0  0  0  0  0  0  0  0  0  0
  190.0580  177.6620  141.7950 N   0  0  0  0  0  0  0  0  0  0  0  0
  192.2780  176.9150  142.1330 N   0  0  0  0  0  2  0  0  0  0  0  0
  188.8680  177.9580  142.2550 C   0  0  0  0  0  0  0  0  0  0  0  0
  191.2910  176.6810  147.5280 O   0  0  0  0  0  0  0  0  0  0  0  0
  192.3550  175.8030  147.8640 C   0  0  0  0  0  1  0  0  0  0  0  0
  187.3590  176.8000  143.9120 C   0  0  0  0  0  2  0  0  0  0  0  0
  186.4360  177.1970  145.0640 C   0  0  0  0  0  2  0  0  0  0  0  0
  185.0260  178.9890  146.0220 N   0  0  0  0  0  0  0  0  0  0  0  0
  184.7010  178.4150  143.7280 C   0  0  0  0  0  3  0  0  0  0  0  0
  182.2730  178.8510  143.5050 C   0  0  0  0  0  1  0  0  0  0  0  0
  185.7280  178.5270  144.8140 C   0  0  2  0  0  3  0  0  0  0  0  0
  183.5620  178.8040  144.2440 C   0  0  0  0  0  0  0  0  0  0  0  0
  183.7000  179.1630  145.5990 N   0  0  0  0  0  0  0  0  0  0  0  0
  188.1030  178.6290  139.9390 C   0  0  0  0  0  2  0  0  0  0  0  0
  188.4640  177.3020  139.2900 C   0  0  0  0  0  2  0  0  0  0  0  0
  189.3660  178.2060  137.1970 C   0  0  0  0  0  2  0  0  0  0  0  0
  189.5640  177.4680  138.2900 C   0  0  0  0  0  0  0  0  0  0  0  0
  190.7670  176.5880  138.3840 C   0  0  0  0  0  2  0  0  0  0  0  0
  190.6870  175.4690  137.3630 C   0  0  0  0  0  1  0  0  0  0  0  0
  1  2  2  0  0  0  0
  2 12  1  0  0  0  0
  3  2  1  0  0  0  0
  4 14  1  6  0  0  0
  4  7  1  0  0  0  0
  5  8  1  0  0  0  0
  6 11  1  0  0  0  0
  7  1  1  0  0  0  0
  8  7  1  0  0  0  0
  8  3  2  0  0  0  0
  9 11  2  0  0  0  0
  9  5  1  0  0  0  0
 10  5  2  0  0  0  0
 11  4  1  0  0  0  0
 12 13  1  0  0  0  0
 14 15  1  0  0  0  0
 17 20  2  0  0  0  0
 17 19  1  0  0  0  0
 18 20  1  0  0  0  0
 19 15  1  1  0  0  0
 19 16  1  0  0  0  0
 20 21  1  0  0  0  0
 21 16  2  0  0  0  0
 22  6  1  0  0  0  0
 23 22  1  0  0  0  0
 24 25  2  0  0  0  0
 25 26  1  0  0  0  0
 25 23  1  0  0  0  0
 27 26  1  0  0  0  0
M  END
>  <MODEL>
9

>  <REMARK>
 VINA RESULT:      -7.2      2.624      6.518
  Name = 
  8 active torsions:
  status: ('A' for Active; 'I' for Inactive)
    1  A    between atoms: C_3  and  O_10
    2  A    between atoms: C_6  and  C_23
    3  A    between atoms: N_8  and  C_24
    4  A    between atoms: C_9  and  C_25
    5  A    between atoms: C_14  and  C_24
    6  A    between atoms: C_14  and  C_25
    7  A    between atoms: C_17  and  C_18
    8  A    between atoms: C_18  and  C_23
                            x       y       z     vdW  Elec       q    Type
                         _______ _______ _______ _____ _____    ______ ____

>  <TORSDO>
F 8

$$$$
