=
 OpenBabel10232409433D

 35 39  0  0  1  0  0  0  0  0999 V2000
  189.3910  177.1400  142.2330 C   0  0  0  0  0  0  0  0  0  0  0  0
  189.5100  176.9310  140.8520 C   0  0  0  0  0  3  0  0  0  0  0  0
  190.5090  177.6270  142.9460 C   0  0  0  0  0  0  0  0  0  0  0  0
  191.7780  177.6670  140.9080 N   0  0  0  0  0  0  0  0  0  0  0  0
  191.7000  177.8820  142.2470 C   0  0  0  0  0  3  0  0  0  0  0  0
  190.7120  177.2090  140.1980 C   0  0  0  0  0  0  0  0  0  0  0  0
  192.0060  176.0790  138.4620 C   0  0  2  0  0  3  0  0  0  0  0  0
  190.6940  175.5750  138.4750 O   0  0  0  0  0  0  0  0  0  0  0  0
  190.8400  176.9510  138.7320 C   0  0  1  0  0  3  0  0  0  0  0  0
  192.4210  176.2520  137.1330 O   0  0  0  0  0  0  0  0  0  0  0  0
  193.3830  175.2620  136.8470 C   0  0  0  0  0  0  0  0  0  0  0  0
  193.6070  174.4530  137.9530 F   0  0  0  0  0  0  0  0  0  0  0  0
  192.9830  174.4850  135.7690 F   0  0  0  0  0  0  0  0  0  0  0  0
  194.5700  175.8840  136.5160 F   0  0  0  0  0  0  0  0  0  0  0  0
  188.0970  176.8350  142.8870 C   0  0  0  0  0  0  0  0  0  0  0  0
  187.8620  175.6840  143.3440 O   0  0  0  0  0  0  0  0  0  0  0  0
  187.1060  177.8610  143.0090 N   0  0  0  0  0  2  0  0  0  0  0  0
  184.2140  179.5370  145.0760 N   0  0  0  0  0  0  0  0  0  0  0  0
  185.8290  177.7190  145.0820 C   0  0  0  0  0  2  0  0  0  0  0  0
  185.5350  179.1410  145.5500 C   0  0  0  0  0  2  0  0  0  0  0  0
  184.7670  178.5860  142.8920 C   0  0  1  0  0  3  0  0  0  0  0  0
  185.7760  177.6190  143.5500 C   0  0  1  0  0  3  0  0  0  0  0  0
  184.0160  177.9240  141.7700 C   0  0  0  0  0  3  0  0  0  0  0  0
  180.4200  179.7440  141.8250 Cl  0  0  0  0  0  0  0  0  0  0  0  0
  182.5260  179.6730  143.4250 N   0  0  0  0  0  0  0  0  0  0  0  0
  182.0230  179.2370  142.3080 C   0  0  0  0  0  0  0  0  0  0  0  0
  182.7560  178.2590  141.4790 C   0  0  0  0  0  3  0  0  0  0  0  0
  183.8320  179.2770  143.8620 C   0  0  0  0  0  0  0  0  0  0  0  0
  190.4290  177.8550  144.3260 O   0  0  0  0  0  0  0  0  0  0  0  0
  191.5170  177.6490  145.2200 C   0  0  0  0  0  2  0  0  0  0  0  0
  190.9580  176.7160  146.6790 S   0  0  0  0  0  0  0  0  0  0  0  0
  189.2480  177.3020  146.5040 C   0  0  0  0  0  2  0  0  0  0  0  0
  187.7980  178.4510  148.1370 C   0  0  0  0  0  2  0  0  0  0  0  0
  188.5160  177.1540  147.8230 C   0  0  0  0  0  3  0  0  0  0  0  0
  189.1040  178.1230  148.8280 C   0  0  0  0  0  2  0  0  0  0  0  0
  1 15  1  0  0  0  0
  1  3  1  0  0  0  0
  2  1  2  0  0  0  0
  3 29  1  0  0  0  0
  4  5  1  0  0  0  0
  5  3  2  0  0  0  0
  6  2  1  0  0  0  0
  6  4  2  0  0  0  0
  7 10  1  6  0  0  0
  7  8  1  0  0  0  0
  7  9  1  0  0  0  0
  8  9  1  0  0  0  0
  9  6  1  1  0  0  0
 11 10  1  0  0  0  0
 11 12  1  0  0  0  0
 13 11  1  0  0  0  0
 14 11  1  0  0  0  0
 15 17  1  0  0  0  0
 15 16  2  0  0  0  0
 18 20  1  0  0  0  0
 19 20  1  0  0  0  0
 21 23  1  6  0  0  0
 21 22  1  0  0  0  0
 21 28  1  0  0  0  0
 22 17  1  6  0  0  0
 22 19  1  0  0  0  0
 24 26  1  0  0  0  0
 25 28  1  0  0  0  0
 26 25  2  0  0  0  0
 27 23  2  0  0  0  0
 27 26  1  0  0  0  0
 28 18  2  0  0  0  0
 29 30  1  0  0  0  0
 30 31  1  0  0  0  0
 32 31  1  0  0  0  0
 32 34  1  0  0  0  0
 33 35  1  0  0  0  0
 34 33  1  0  0  0  0
 34 35  1  0  0  0  0
M  END
>  <MODEL>
1

>  <REMARK>
 VINA RESULT:      -7.8      0.000      0.000
  Name = 
  10 active torsions:
  status: ('A' for Active; 'I' for Inactive)
    1  A    between atoms: C_1  and  O_34
    2  A    between atoms: C_5  and  C_15
    3  A    between atoms: C_9  and  N_31
    4  A    between atoms: O_10  and  C_11
    5  A    between atoms: O_10  and  C_30
    6  A    between atoms: C_14  and  O_34
    7  A    between atoms: S_16  and  C_17
    8  A    between atoms: S_16  and  C_30
    9  A    between atoms: C_17  and  C_22
   10  A    between atoms: C_25  and  C_35
                            x       y       z     vdW  Elec       q    Type
                         _______ _______ _______ _____ _____    ______ ____

>  <TORSDO>
F 10

$$$$
=
 OpenBabel10232409433D

 35 39  0  0  1  0  0  0  0  0999 V2000
  189.2130  177.1400  141.9620 C   0  0  0  0  0  0  0  0  0  0  0  0
  189.1430  177.1340  140.5620 C   0  0  0  0  0  3  0  0  0  0  0  0
  190.4580  177.3910  142.5800 C   0  0  0  0  0  0  0  0  0  0  0  0
  191.4760  177.6090  140.4160 N   0  0  0  0  0  0  0  0  0  0  0  0
  191.5820  177.6230  141.7710 C   0  0  0  0  0  3  0  0  0  0  0  0
  190.2860  177.3810  139.7980 C   0  0  0  0  0  0  0  0  0  0  0  0
  188.8090  177.5160  137.8580 C   0  0  2  0  0  3  0  0  0  0  0  0
  189.7350  178.5720  137.8180 O   0  0  0  0  0  0  0  0  0  0  0  0
  190.2090  177.3390  138.3070 C   0  0  1  0  0  3  0  0  0  0  0  0
  188.6600  176.9830  136.5680 O   0  0  0  0  0  0  0  0  0  0  0  0
  187.2900  176.7260  136.3610 C   0  0  0  0  0  0  0  0  0  0  0  0
  186.6490  176.4510  137.5610 F   0  0  0  0  0  0  0  0  0  0  0  0
  186.6760  177.8020  135.7350 F   0  0  0  0  0  0  0  0  0  0  0  0
  187.1690  175.6200  135.5410 F   0  0  0  0  0  0  0  0  0  0  0  0
  187.9760  176.8770  142.7340 C   0  0  0  0  0  0  0  0  0  0  0  0
  187.8300  175.7960  143.3680 O   0  0  0  0  0  0  0  0  0  0  0  0
  186.9400  177.8630  142.7690 N   0  0  0  0  0  2  0  0  0  0  0  0
  184.2310  179.6110  145.0170 N   0  0  0  0  0  0  0  0  0  0  0  0
  185.8340  177.7850  144.9420 C   0  0  0  0  0  2  0  0  0  0  0  0
  185.5850  179.2210  145.3920 C   0  0  0  0  0  2  0  0  0  0  0  0
  184.6010  178.5970  142.8220 C   0  0  1  0  0  3  0  0  0  0  0  0
  185.6570  177.6430  143.4220 C   0  0  1  0  0  3  0  0  0  0  0  0
  183.7580  177.9100  141.7840 C   0  0  0  0  0  3  0  0  0  0  0  0
  180.1850  179.7510  142.0810 Cl  0  0  0  0  0  0  0  0  0  0  0  0
  182.4150  179.7110  143.5060 N   0  0  0  0  0  0  0  0  0  0  0  0
  181.8210  179.2480  142.4460 C   0  0  0  0  0  0  0  0  0  0  0  0
  182.4810  178.2440  141.5870 C   0  0  0  0  0  3  0  0  0  0  0  0
  183.7500  179.3200  143.8460 C   0  0  0  0  0  0  0  0  0  0  0  0
  190.5690  177.4120  143.9760 O   0  0  0  0  0  0  0  0  0  0  0  0
  191.5000  176.6180  144.7020 C   0  0  0  0  0  2  0  0  0  0  0  0
  191.2220  176.8060  146.4910 S   0  0  0  0  0  0  0  0  0  0  0  0
  189.4560  177.1620  146.2640 C   0  0  0  0  0  2  0  0  0  0  0  0
  187.9380  178.2690  147.8650 C   0  0  0  0  0  2  0  0  0  0  0  0
  188.7260  177.0060  147.5840 C   0  0  0  0  0  3  0  0  0  0  0  0
  189.2560  178.0270  148.5680 C   0  0  0  0  0  2  0  0  0  0  0  0
  1  3  1  0  0  0  0
  1 15  1  0  0  0  0
  2  1  2  0  0  0  0
  3 29  1  0  0  0  0
  4  5  1  0  0  0  0
  5  3  2  0  0  0  0
  6  4  2  0  0  0  0
  6  2  1  0  0  0  0
  7 10  1  6  0  0  0
  7  9  1  0  0  0  0
  8  7  1  0  0  0  0
  8  9  1  0  0  0  0
  9  6  1  1  0  0  0
 11 10  1  0  0  0  0
 11 12  1  0  0  0  0
 13 11  1  0  0  0  0
 14 11  1  0  0  0  0
 15 17  1  0  0  0  0
 15 16  2  0  0  0  0
 18 20  1  0  0  0  0
 19 20  1  0  0  0  0
 21 23  1  6  0  0  0
 21 22  1  0  0  0  0
 21 28  1  0  0  0  0
 22 17  1  6  0  0  0
 22 19  1  0  0  0  0
 24 26  1  0  0  0  0
 25 28  1  0  0  0  0
 26 25  2  0  0  0  0
 27 23  2  0  0  0  0
 27 26  1  0  0  0  0
 28 18  2  0  0  0  0
 29 30  1  0  0  0  0
 30 31  1  0  0  0  0
 32 31  1  0  0  0  0
 32 34  1  0  0  0  0
 33 35  1  0  0  0  0
 34 33  1  0  0  0  0
 34 35  1  0  0  0  0
M  END
>  <MODEL>
2

>  <REMARK>
 VINA RESULT:      -7.5      2.323      2.629
  Name = 
  10 active torsions:
  status: ('A' for Active; 'I' for Inactive)
    1  A    between atoms: C_1  and  O_34
    2  A    between atoms: C_5  and  C_15
    3  A    between atoms: C_9  and  N_31
    4  A    between atoms: O_10  and  C_11
    5  A    between atoms: O_10  and  C_30
    6  A    between atoms: C_14  and  O_34
    7  A    between atoms: S_16  and  C_17
    8  A    between atoms: S_16  and  C_30
    9  A    between atoms: C_17  and  C_22
   10  A    between atoms: C_25  and  C_35
                            x       y       z     vdW  Elec       q    Type
                         _______ _______ _______ _____ _____    ______ ____

>  <TORSDO>
F 10

$$$$
=
 OpenBabel10232409433D

 35 39  0  0  1  0  0  0  0  0999 V2000
  184.5090  178.8190  142.3010 C   0  0  0  0  0  0  0  0  0  0  0  0
  183.6740  178.4590  141.2330 C   0  0  0  0  0  3  0  0  0  0  0  0
  183.9400  178.9870  143.5830 C   0  0  0  0  0  0  0  0  0  0  0  0
  181.7820  178.4410  142.6850 N   0  0  0  0  0  0  0  0  0  0  0  0
  182.5590  178.7890  143.7430 C   0  0  0  0  0  3  0  0  0  0  0  0
  182.3070  178.2630  141.4430 C   0  0  0  0  0  0  0  0  0  0  0  0
  181.5190  176.4660  139.9880 C   0  0  2  0  0  3  0  0  0  0  0  0
  180.4370  176.9950  140.7120 O   0  0  0  0  0  0  0  0  0  0  0  0
  181.4200  177.9120  140.2940 C   0  0  1  0  0  3  0  0  0  0  0  0
  181.1220  176.2400  138.6610 O   0  0  0  0  0  0  0  0  0  0  0  0
  182.0600  175.3710  138.0700 C   0  0  0  0  0  0  0  0  0  0  0  0
  183.2880  175.4540  138.7130 F   0  0  0  0  0  0  0  0  0  0  0  0
  181.6020  174.0610  138.0970 F   0  0  0  0  0  0  0  0  0  0  0  0
  182.2350  175.7430  136.7510 F   0  0  0  0  0  0  0  0  0  0  0  0
  185.9540  179.0140  142.0350 C   0  0  0  0  0  0  0  0  0  0  0  0
  186.3540  179.9810  141.3330 O   0  0  0  0  0  0  0  0  0  0  0  0
  186.9050  178.1000  142.5900 N   0  0  0  0  0  2  0  0  0  0  0  0
  190.1240  175.8800  142.1990 N   0  0  0  0  0  0  0  0  0  0  0  0
  189.1170  177.6570  143.5170 C   0  0  0  0  0  2  0  0  0  0  0  0
  189.3740  176.1570  143.4180 C   0  0  0  0  0  2  0  0  0  0  0  0
  188.6270  177.3930  140.9940 C   0  0  1  0  0  3  0  0  0  0  0  0
  188.3310  178.1650  142.2990 C   0  0  1  0  0  3  0  0  0  0  0  0
  188.7320  178.3180  139.8140 C   0  0  0  0  0  3  0  0  0  0  0  0
  191.3890  176.4880  137.3990 Cl  0  0  0  0  0  0  0  0  0  0  0  0
  190.5660  176.1630  139.8930 N   0  0  0  0  0  0  0  0  0  0  0  0
  190.4330  176.8740  138.8130 C   0  0  0  0  0  0  0  0  0  0  0  0
  189.5430  178.0520  138.7870 C   0  0  0  0  0  3  0  0  0  0  0  0
  189.8090  176.4500  141.0750 C   0  0  0  0  0  0  0  0  0  0  0  0
  184.7410  179.3400  144.6760 O   0  0  0  0  0  0  0  0  0  0  0  0
  184.7950  178.5900  145.8850 C   0  0  0  0  0  2  0  0  0  0  0  0
  186.3600  177.6660  145.9780 S   0  0  0  0  0  0  0  0  0  0  0  0
  186.8470  178.4820  147.5250 C   0  0  0  0  0  2  0  0  0  0  0  0
  189.1830  178.3400  148.3110 C   0  0  0  0  0  2  0  0  0  0  0  0
  187.8500  177.6210  148.2690 C   0  0  0  0  0  3  0  0  0  0  0  0
  188.9590  177.2190  147.3190 C   0  0  0  0  0  2  0  0  0  0  0  0
  1  3  1  0  0  0  0
  2  6  1  0  0  0  0
  2  1  2  0  0  0  0
  3  5  2  0  0  0  0
  3 29  1  0  0  0  0
  4  5  1  0  0  0  0
  6  4  2  0  0  0  0
  7 10  1  6  0  0  0
  7  9  1  0  0  0  0
  7  8  1  0  0  0  0
  9  8  1  0  0  0  0
  9  6  1  1  0  0  0
 11 13  1  0  0  0  0
 11 10  1  0  0  0  0
 11 12  1  0  0  0  0
 14 11  1  0  0  0  0
 15  1  1  0  0  0  0
 15 17  1  0  0  0  0
 16 15  2  0  0  0  0
 18 20  1  0  0  0  0
 20 19  1  0  0  0  0
 21 23  1  6  0  0  0
 21 28  1  0  0  0  0
 21 22  1  0  0  0  0
 22 17  1  1  0  0  0
 22 19  1  0  0  0  0
 24 26  1  0  0  0  0
 25 28  1  0  0  0  0
 26 25  2  0  0  0  0
 27 26  1  0  0  0  0
 27 23  2  0  0  0  0
 28 18  2  0  0  0  0
 29 30  1  0  0  0  0
 30 31  1  0  0  0  0
 31 32  1  0  0  0  0
 32 34  1  0  0  0  0
 34 33  1  0  0  0  0
 35 34  1  0  0  0  0
 35 33  1  0  0  0  0
M  END
>  <MODEL>
3

>  <REMARK>
 VINA RESULT:      -7.3      4.724      7.714
  Name = 
  10 active torsions:
  status: ('A' for Active; 'I' for Inactive)
    1  A    between atoms: C_1  and  O_34
    2  A    between atoms: C_5  and  C_15
    3  A    between atoms: C_9  and  N_31
    4  A    between atoms: O_10  and  C_11
    5  A    between atoms: O_10  and  C_30
    6  A    between atoms: C_14  and  O_34
    7  A    between atoms: S_16  and  C_17
    8  A    between atoms: S_16  and  C_30
    9  A    between atoms: C_17  and  C_22
   10  A    between atoms: C_25  and  C_35
                            x       y       z     vdW  Elec       q    Type
                         _______ _______ _______ _____ _____    ______ ____

>  <TORSDO>
F 10

$$$$
=
 OpenBabel10232409433D

 35 39  0  0  1  0  0  0  0  0999 V2000
  189.7610  176.9480  138.3910 C   0  0  0  0  0  0  0  0  0  0  0  0
  191.1430  176.8800  138.1660 C   0  0  0  0  0  3  0  0  0  0  0  0
  188.9060  176.1230  137.6260 C   0  0  0  0  0  0  0  0  0  0  0  0
  190.8150  175.2270  136.4780 N   0  0  0  0  0  0  0  0  0  0  0  0
  189.4700  175.2650  136.6670 C   0  0  0  0  0  3  0  0  0  0  0  0
  191.6600  176.0030  137.2090 C   0  0  0  0  0  0  0  0  0  0  0  0
  193.7650  174.8990  137.7670 C   0  0  2  0  0  3  0  0  0  0  0  0
  193.4840  174.7150  136.4020 O   0  0  0  0  0  0  0  0  0  0  0  0
  193.1310  175.9610  136.9530 C   0  0  1  0  0  3  0  0  0  0  0  0
  195.1310  175.1820  137.9240 O   0  0  0  0  0  0  0  0  0  0  0  0
  195.6590  174.2680  138.8570 C   0  0  0  0  0  0  0  0  0  0  0  0
  195.7470  174.8420  140.1180 F   0  0  0  0  0  0  0  0  0  0  0  0
  194.8820  173.1210  138.9150 F   0  0  0  0  0  0  0  0  0  0  0  0
  196.9300  173.9120  138.4530 F   0  0  0  0  0  0  0  0  0  0  0  0
  189.2560  177.8890  139.4170 C   0  0  0  0  0  0  0  0  0  0  0  0
  189.0480  179.1000  139.1350 O   0  0  0  0  0  0  0  0  0  0  0  0
  188.9930  177.4160  140.7420 N   0  0  0  0  0  2  0  0  0  0  0  0
  186.3830  177.7890  143.6570 N   0  0  0  0  0  0  0  0  0  0  0  0
  187.1560  178.7850  141.5780 C   0  0  0  0  0  2  0  0  0  0  0  0
  186.1330  177.8540  142.2220 C   0  0  0  0  0  2  0  0  0  0  0  0
  188.7710  177.5610  143.1800 C   0  0  1  0  0  3  0  0  0  0  0  0
  188.5880  178.2930  141.8320 C   0  0  1  0  0  3  0  0  0  0  0  0
  190.0580  177.9500  143.8530 C   0  0  0  0  0  3  0  0  0  0  0  0
  189.2080  177.6620  147.7820 Cl  0  0  0  0  0  0  0  0  0  0  0  0
  187.8070  177.6160  145.5370 N   0  0  0  0  0  0  0  0  0  0  0  0
  188.9990  177.7280  146.0460 C   0  0  0  0  0  0  0  0  0  0  0  0
  190.1690  177.9880  145.1830 C   0  0  0  0  0  3  0  0  0  0  0  0
  187.5900  177.6720  144.1220 C   0  0  0  0  0  0  0  0  0  0  0  0
  187.5200  176.1570  137.8240 O   0  0  0  0  0  0  0  0  0  0  0  0
  186.5860  175.5400  136.9460 C   0  0  0  0  0  2  0  0  0  0  0  0
  185.3890  176.7700  136.3400 S   0  0  0  0  0  0  0  0  0  0  0  0
  185.4390  177.7070  137.8940 C   0  0  0  0  0  2  0  0  0  0  0  0
  184.2030  179.3090  139.3090 C   0  0  0  0  0  2  0  0  0  0  0  0
  184.0770  178.3120  138.1750 C   0  0  0  0  0  3  0  0  0  0  0  0
  183.6420  177.9280  139.5730 C   0  0  0  0  0  2  0  0  0  0  0  0
  1 15  1  0  0  0  0
  2  1  1  0  0  0  0
  3 29  1  0  0  0  0
  3  1  2  0  0  0  0
  4  5  2  0  0  0  0
  4  6  1  0  0  0  0
  5  3  1  0  0  0  0
  6  2  2  0  0  0  0
  7 10  1  6  0  0  0
  8  9  1  0  0  0  0
  8  7  1  0  0  0  0
  9  6  1  1  0  0  0
  9  7  1  0  0  0  0
 10 11  1  0  0  0  0
 11 13  1  0  0  0  0
 11 12  1  0  0  0  0
 14 11  1  0  0  0  0
 15 17  1  0  0  0  0
 16 15  2  0  0  0  0
 18 28  2  0  0  0  0
 19 22  1  0  0  0  0
 19 20  1  0  0  0  0
 20 18  1  0  0  0  0
 21 23  1  1  0  0  0
 21 28  1  0  0  0  0
 22 17  1  6  0  0  0
 22 21  1  0  0  0  0
 23 27  2  0  0  0  0
 25 26  2  0  0  0  0
 26 24  1  0  0  0  0
 27 26  1  0  0  0  0
 28 25  1  0  0  0  0
 30 29  1  0  0  0  0
 31 30  1  0  0  0  0
 31 32  1  0  0  0  0
 32 34  1  0  0  0  0
 33 35  1  0  0  0  0
 34 33  1  0  0  0  0
 34 35  1  0  0  0  0
M  END
>  <MODEL>
4

>  <REMARK>
 VINA RESULT:      -7.3      3.731      6.296
  Name = 
  10 active torsions:
  status: ('A' for Active; 'I' for Inactive)
    1  A    between atoms: C_1  and  O_34
    2  A    between atoms: C_5  and  C_15
    3  A    between atoms: C_9  and  N_31
    4  A    between atoms: O_10  and  C_11
    5  A    between atoms: O_10  and  C_30
    6  A    between atoms: C_14  and  O_34
    7  A    between atoms: S_16  and  C_17
    8  A    between atoms: S_16  and  C_30
    9  A    between atoms: C_17  and  C_22
   10  A    between atoms: C_25  and  C_35
                            x       y       z     vdW  Elec       q    Type
                         _______ _______ _______ _____ _____    ______ ____

>  <TORSDO>
F 10

$$$$
=
 OpenBabel10232409433D

 35 39  0  0  1  0  0  0  0  0999 V2000
  189.0920  177.6640  140.9510 C   0  0  0  0  0  0  0  0  0  0  0  0
  188.6850  178.0840  142.2250 C   0  0  0  0  0  3  0  0  0  0  0  0
  190.1320  176.7130  140.8480 C   0  0  0  0  0  0  0  0  0  0  0  0
  190.3010  176.6540  143.2420 N   0  0  0  0  0  0  0  0  0  0  0  0
  190.7220  176.2230  142.0240 C   0  0  0  0  0  3  0  0  0  0  0  0
  189.2950  177.5610  143.3680 C   0  0  0  0  0  0  0  0  0  0  0  0
  187.5610  177.4670  145.0850 C   0  0  2  0  0  3  0  0  0  0  0  0
  188.7600  176.9440  145.5980 O   0  0  0  0  0  0  0  0  0  0  0  0
  188.8770  178.0380  144.7200 C   0  0  1  0  0  3  0  0  0  0  0  0
  186.9540  178.2740  146.0600 O   0  0  0  0  0  0  0  0  0  0  0  0
  185.6080  178.4640  145.6880 C   0  0  0  0  0  0  0  0  0  0  0  0
  184.7510  178.0420  146.6960 F   0  0  0  0  0  0  0  0  0  0  0  0
  185.3650  179.7970  145.3900 F   0  0  0  0  0  0  0  0  0  0  0  0
  185.3530  177.7130  144.5580 F   0  0  0  0  0  0  0  0  0  0  0  0
  188.4170  178.2420  139.7650 C   0  0  0  0  0  0  0  0  0  0  0  0
  188.9640  179.1620  139.0980 O   0  0  0  0  0  0  0  0  0  0  0  0
  187.1350  177.7450  139.3680 N   0  0  0  0  0  2  0  0  0  0  0  0
  184.5430  176.8530  136.5520 N   0  0  0  0  0  0  0  0  0  0  0  0
  186.7970  177.6730  136.9540 C   0  0  0  0  0  2  0  0  0  0  0  0
  185.9420  176.4490  136.6380 C   0  0  0  0  0  2  0  0  0  0  0  0
  184.8550  178.1840  138.5800 C   0  0  1  0  0  3  0  0  0  0  0  0
  186.3630  178.3230  138.2770 C   0  0  1  0  0  3  0  0  0  0  0  0
  184.2850  179.4540  139.1490 C   0  0  0  0  0  3  0  0  0  0  0  0
  180.4730  179.4580  137.8390 Cl  0  0  0  0  0  0  0  0  0  0  0  0
  182.6500  178.0480  137.3130 N   0  0  0  0  0  0  0  0  0  0  0  0
  182.1580  179.0230  138.0200 C   0  0  0  0  0  0  0  0  0  0  0  0
  183.0210  179.8170  138.9170 C   0  0  0  0  0  3  0  0  0  0  0  0
  184.0250  177.6640  137.4250 C   0  0  0  0  0  0  0  0  0  0  0  0
  190.5630  176.2630  139.5930 O   0  0  0  0  0  0  0  0  0  0  0  0
  191.7830  176.6770  138.9880 C   0  0  0  0  0  2  0  0  0  0  0  0
  191.8180  176.1690  137.2410 S   0  0  0  0  0  0  0  0  0  0  0  0
  190.0250  175.8850  137.2000 C   0  0  0  0  0  2  0  0  0  0  0  0
  189.0850  173.6140  136.9710 C   0  0  0  0  0  2  0  0  0  0  0  0
  189.7010  174.7760  136.2180 C   0  0  0  0  0  3  0  0  0  0  0  0
  190.5390  173.5590  136.5510 C   0  0  0  0  0  2  0  0  0  0  0  0
  1  2  1  0  0  0  0
  2  6  2  0  0  0  0
  3  1  2  0  0  0  0
  3  5  1  0  0  0  0
  4  6  1  0  0  0  0
  5  4  2  0  0  0  0
  7  8  1  0  0  0  0
  7 10  1  1  0  0  0
  9  6  1  6  0  0  0
  9  7  1  0  0  0  0
  9  8  1  0  0  0  0
 11 10  1  0  0  0  0
 11 12  1  0  0  0  0
 13 11  1  0  0  0  0
 14 11  1  0  0  0  0
 15  1  1  0  0  0  0
 16 15  2  0  0  0  0
 17 15  1  0  0  0  0
 18 20  1  0  0  0  0
 18 28  2  0  0  0  0
 19 22  1  0  0  0  0
 20 19  1  0  0  0  0
 21 23  1  6  0  0  0
 22 21  1  0  0  0  0
 22 17  1  1  0  0  0
 24 26  1  0  0  0  0
 25 28  1  0  0  0  0
 25 26  2  0  0  0  0
 26 27  1  0  0  0  0
 27 23  2  0  0  0  0
 28 21  1  0  0  0  0
 29  3  1  0  0  0  0
 30 29  1  0  0  0  0
 31 30  1  0  0  0  0
 32 31  1  0  0  0  0
 34 35  1  0  0  0  0
 34 33  1  0  0  0  0
 34 32  1  0  0  0  0
 35 33  1  0  0  0  0
M  END
>  <MODEL>
5

>  <REMARK>
 VINA RESULT:      -7.2      5.035      7.827
  Name = 
  10 active torsions:
  status: ('A' for Active; 'I' for Inactive)
    1  A    between atoms: C_1  and  O_34
    2  A    between atoms: C_5  and  C_15
    3  A    between atoms: C_9  and  N_31
    4  A    between atoms: O_10  and  C_11
    5  A    between atoms: O_10  and  C_30
    6  A    between atoms: C_14  and  O_34
    7  A    between atoms: S_16  and  C_17
    8  A    between atoms: S_16  and  C_30
    9  A    between atoms: C_17  and  C_22
   10  A    between atoms: C_25  and  C_35
                            x       y       z     vdW  Elec       q    Type
                         _______ _______ _______ _____ _____    ______ ____

>  <TORSDO>
F 10

$$$$
=
 OpenBabel10232409433D

 35 39  0  0  1  0  0  0  0  0999 V2000
  189.6400  176.9700  138.2910 C   0  0  0  0  0  0  0  0  0  0  0  0
  191.0260  176.8850  138.0950 C   0  0  0  0  0  3  0  0  0  0  0  0
  188.7900  176.1590  137.5070 C   0  0  0  0  0  0  0  0  0  0  0  0
  190.7100  175.2420  136.3940 N   0  0  0  0  0  0  0  0  0  0  0  0
  189.3620  175.2970  136.5570 C   0  0  0  0  0  3  0  0  0  0  0  0
  191.5500  176.0050  137.1450 C   0  0  0  0  0  0  0  0  0  0  0  0
  193.6410  174.9300  137.8040 C   0  0  2  0  0  3  0  0  0  0  0  0
  193.3840  174.6670  136.4480 O   0  0  0  0  0  0  0  0  0  0  0  0
  193.0250  175.9440  136.9190 C   0  0  1  0  0  3  0  0  0  0  0  0
  195.0040  175.2180  137.9690 O   0  0  0  0  0  0  0  0  0  0  0  0
  195.5850  174.1640  138.7020 C   0  0  0  0  0  0  0  0  0  0  0  0
  195.8840  174.5660  139.9970 F   0  0  0  0  0  0  0  0  0  0  0  0
  194.7410  173.0630  138.7330 F   0  0  0  0  0  0  0  0  0  0  0  0
  196.7620  173.7920  138.0810 F   0  0  0  0  0  0  0  0  0  0  0  0
  189.1270  177.9150  139.3110 C   0  0  0  0  0  0  0  0  0  0  0  0
  188.9790  179.1370  139.0400 O   0  0  0  0  0  0  0  0  0  0  0  0
  188.7860  177.4320  140.6150 N   0  0  0  0  0  2  0  0  0  0  0  0
  186.0600  177.8680  143.4120 N   0  0  0  0  0  0  0  0  0  0  0  0
  186.9700  178.8650  141.3890 C   0  0  0  0  0  2  0  0  0  0  0  0
  185.8810  177.9670  141.9680 C   0  0  0  0  0  2  0  0  0  0  0  0
  188.4570  177.5470  143.0420 C   0  0  1  0  0  3  0  0  0  0  0  0
  188.3680  178.3080  141.7010 C   0  0  1  0  0  3  0  0  0  0  0  0
  189.7260  177.8700  143.7800 C   0  0  0  0  0  3  0  0  0  0  0  0
  188.6810  177.5540  147.6600 Cl  0  0  0  0  0  0  0  0  0  0  0  0
  187.3860  177.6040  145.3520 N   0  0  0  0  0  0  0  0  0  0  0  0
  188.5560  177.6570  145.9170 C   0  0  0  0  0  0  0  0  0  0  0  0
  189.7750  177.8810  145.1140 C   0  0  0  0  0  3  0  0  0  0  0  0
  187.2380  177.6920  143.9300 C   0  0  0  0  0  0  0  0  0  0  0  0
  187.4010  176.2110  137.6780 O   0  0  0  0  0  0  0  0  0  0  0  0
  186.4940  176.5490  136.6340 C   0  0  0  0  0  2  0  0  0  0  0  0
  184.7800  176.4580  137.2400 S   0  0  0  0  0  0  0  0  0  0  0  0
  184.5490  174.7800  136.5850 C   0  0  0  0  0  2  0  0  0  0  0  0
  185.7950  172.8590  137.5050 C   0  0  0  0  0  2  0  0  0  0  0  0
  184.6060  173.7730  137.7160 C   0  0  0  0  0  3  0  0  0  0  0  0
  184.4030  172.3820  137.1520 C   0  0  0  0  0  2  0  0  0  0  0  0
  1 15  1  0  0  0  0
  2  1  1  0  0  0  0
  3 29  1  0  0  0  0
  3  1  2  0  0  0  0
  4  5  2  0  0  0  0
  4  6  1  0  0  0  0
  5  3  1  0  0  0  0
  6  2  2  0  0  0  0
  7 10  1  6  0  0  0
  8  9  1  0  0  0  0
  8  7  1  0  0  0  0
  9  6  1  1  0  0  0
  9  7  1  0  0  0  0
 10 11  1  0  0  0  0
 11 13  1  0  0  0  0
 11 12  1  0  0  0  0
 14 11  1  0  0  0  0
 15 17  1  0  0  0  0
 16 15  2  0  0  0  0
 18 28  2  0  0  0  0
 19 22  1  0  0  0  0
 19 20  1  0  0  0  0
 20 18  1  0  0  0  0
 21 23  1  1  0  0  0
 21 28  1  0  0  0  0
 22 17  1  6  0  0  0
 22 21  1  0  0  0  0
 23 27  2  0  0  0  0
 25 26  2  0  0  0  0
 26 24  1  0  0  0  0
 27 26  1  0  0  0  0
 28 25  1  0  0  0  0
 30 31  1  0  0  0  0
 30 29  1  0  0  0  0
 32 31  1  0  0  0  0
 32 34  1  0  0  0  0
 33 34  1  0  0  0  0
 35 33  1  0  0  0  0
 35 34  1  0  0  0  0
M  END
>  <MODEL>
6

>  <REMARK>
 VINA RESULT:      -7.2      4.086      6.615
  Name = 
  10 active torsions:
  status: ('A' for Active; 'I' for Inactive)
    1  A    between atoms: C_1  and  O_34
    2  A    between atoms: C_5  and  C_15
    3  A    between atoms: C_9  and  N_31
    4  A    between atoms: O_10  and  C_11
    5  A    between atoms: O_10  and  C_30
    6  A    between atoms: C_14  and  O_34
    7  A    between atoms: S_16  and  C_17
    8  A    between atoms: S_16  and  C_30
    9  A    between atoms: C_17  and  C_22
   10  A    between atoms: C_25  and  C_35
                            x       y       z     vdW  Elec       q    Type
                         _______ _______ _______ _____ _____    ______ ____

>  <TORSDO>
F 10

$$$$
=
 OpenBabel10232409433D

 35 39  0  0  1  0  0  0  0  0999 V2000
  188.2210  178.0500  142.3510 C   0  0  0  0  0  0  0  0  0  0  0  0
  189.4250  178.1540  143.0620 C   0  0  0  0  0  3  0  0  0  0  0  0
  187.0330  177.7690  143.0620 C   0  0  0  0  0  0  0  0  0  0  0  0
  188.2850  177.7070  145.1090 N   0  0  0  0  0  0  0  0  0  0  0  0
  187.1000  177.6000  144.4550 C   0  0  0  0  0  3  0  0  0  0  0  0
  189.4410  177.9890  144.4490 C   0  0  0  0  0  0  0  0  0  0  0  0
  191.0960  176.7380  145.7380 C   0  0  2  0  0  3  0  0  0  0  0  0
  191.6930  177.2460  144.5720 O   0  0  0  0  0  0  0  0  0  0  0  0
  190.7330  178.0670  145.1940 C   0  0  1  0  0  3  0  0  0  0  0  0
  191.9780  176.9000  146.8170 O   0  0  0  0  0  0  0  0  0  0  0  0
  192.2570  175.6230  147.3440 C   0  0  0  0  0  0  0  0  0  0  0  0
  193.2310  175.6950  148.3310 F   0  0  0  0  0  0  0  0  0  0  0  0
  191.1070  175.0420  147.8580 F   0  0  0  0  0  0  0  0  0  0  0  0
  192.7310  174.8200  146.3240 F   0  0  0  0  0  0  0  0  0  0  0  0
  188.2480  178.2350  140.8810 C   0  0  0  0  0  0  0  0  0  0  0  0
  187.5930  179.1640  140.3370 O   0  0  0  0  0  0  0  0  0  0  0  0
  189.0340  177.3540  140.0720 N   0  0  0  0  0  2  0  0  0  0  0  0
  189.4050  175.1190  136.8610 N   0  0  0  0  0  0  0  0  0  0  0  0
  190.4120  176.9520  138.1010 C   0  0  0  0  0  2  0  0  0  0  0  0
  190.4320  175.4490  137.8420 C   0  0  0  0  0  2  0  0  0  0  0  0
  187.8560  176.5790  138.0660 C   0  0  1  0  0  3  0  0  0  0  0  0
  189.0380  177.4060  138.6160 C   0  0  1  0  0  3  0  0  0  0  0  0
  186.6840  177.4520  137.7130 C   0  0  0  0  0  3  0  0  0  0  0  0
  184.9450  175.5190  134.6330 Cl  0  0  0  0  0  0  0  0  0  0  0  0
  187.2300  175.3030  135.9520 N   0  0  0  0  0  0  0  0  0  0  0  0
  186.1150  175.9670  135.8550 C   0  0  0  0  0  0  0  0  0  0  0  0
  185.8580  177.1420  136.7110 C   0  0  0  0  0  3  0  0  0  0  0  0
  188.2170  175.6400  136.9330 C   0  0  0  0  0  0  0  0  0  0  0  0
  185.8090  177.6640  142.3890 O   0  0  0  0  0  0  0  0  0  0  0  0
  184.7130  178.5450  142.6110 C   0  0  0  0  0  2  0  0  0  0  0  0
  183.3590  178.1630  141.4560 S   0  0  0  0  0  0  0  0  0  0  0  0
  184.0940  179.1660  140.1320 C   0  0  0  0  0  2  0  0  0  0  0  0
  182.5610  180.1940  138.4940 C   0  0  0  0  0  2  0  0  0  0  0  0
  183.3400  178.9400  138.8370 C   0  0  0  0  0  3  0  0  0  0  0  0
  181.8520  179.0080  139.1110 C   0  0  0  0  0  2  0  0  0  0  0  0
  1  3  2  0  0  0  0
  1  2  1  0  0  0  0
  2  6  2  0  0  0  0
  3  5  1  0  0  0  0
  5  4  2  0  0  0  0
  6  4  1  0  0  0  0
  7 10  1  1  0  0  0
  8  9  1  0  0  0  0
  8  7  1  0  0  0  0
  9  6  1  6  0  0  0
  9  7  1  0  0  0  0
 10 11  1  0  0  0  0
 11 13  1  0  0  0  0
 11 12  1  0  0  0  0
 14 11  1  0  0  0  0
 15  1  1  0  0  0  0
 16 15  2  0  0  0  0
 17 15  1  0  0  0  0
 18 28  2  0  0  0  0
 18 20  1  0  0  0  0
 19 22  1  0  0  0  0
 20 19  1  0  0  0  0
 21 23  1  6  0  0  0
 21 22  1  0  0  0  0
 22 17  1  1  0  0  0
 24 26  1  0  0  0  0
 25 28  1  0  0  0  0
 26 25  2  0  0  0  0
 26 27  1  0  0  0  0
 27 23  2  0  0  0  0
 28 21  1  0  0  0  0
 29 30  1  0  0  0  0
 29  3  1  0  0  0  0
 31 30  1  0  0  0  0
 32 31  1  0  0  0  0
 33 34  1  0  0  0  0
 33 35  1  0  0  0  0
 34 35  1  0  0  0  0
 34 32  1  0  0  0  0
M  END
>  <MODEL>
7

>  <REMARK>
 VINA RESULT:      -7.2      4.665      7.941
  Name = 
  10 active torsions:
  status: ('A' for Active; 'I' for Inactive)
    1  A    between atoms: C_1  and  O_34
    2  A    between atoms: C_5  and  C_15
    3  A    between atoms: C_9  and  N_31
    4  A    between atoms: O_10  and  C_11
    5  A    between atoms: O_10  and  C_30
    6  A    between atoms: C_14  and  O_34
    7  A    between atoms: S_16  and  C_17
    8  A    between atoms: S_16  and  C_30
    9  A    between atoms: C_17  and  C_22
   10  A    between atoms: C_25  and  C_35
                            x       y       z     vdW  Elec       q    Type
                         _______ _______ _______ _____ _____    ______ ____

>  <TORSDO>
F 10

$$$$
=
 OpenBabel10232409433D

 35 39  0  0  1  0  0  0  0  0999 V2000
  189.1120  177.6550  141.0360 C   0  0  0  0  0  0  0  0  0  0  0  0
  188.7440  178.1290  142.3030 C   0  0  0  0  0  3  0  0  0  0  0  0
  190.1050  176.6540  140.9460 C   0  0  0  0  0  0  0  0  0  0  0  0
  190.3070  176.6560  143.3390 N   0  0  0  0  0  0  0  0  0  0  0  0
  190.6890  176.1710  142.1280 C   0  0  0  0  0  3  0  0  0  0  0  0
  189.3450  177.6110  143.4520 C   0  0  0  0  0  0  0  0  0  0  0  0
  187.7870  177.4300  145.3240 C   0  0  2  0  0  3  0  0  0  0  0  0
  189.0880  177.1300  145.7630 O   0  0  0  0  0  0  0  0  0  0  0  0
  188.9710  178.1460  144.7950 C   0  0  1  0  0  3  0  0  0  0  0  0
  187.1470  178.2290  146.2840 O   0  0  0  0  0  0  0  0  0  0  0  0
  185.8180  178.4330  145.8620 C   0  0  0  0  0  0  0  0  0  0  0  0
  184.9190  178.0470  146.8470 F   0  0  0  0  0  0  0  0  0  0  0  0
  185.6080  179.7630  145.5270 F   0  0  0  0  0  0  0  0  0  0  0  0
  185.5890  177.6610  144.7390 F   0  0  0  0  0  0  0  0  0  0  0  0
  188.4460  178.2300  139.8430 C   0  0  0  0  0  0  0  0  0  0  0  0
  188.9920  179.1580  139.1870 O   0  0  0  0  0  0  0  0  0  0  0  0
  187.1750  177.7200  139.4280 N   0  0  0  0  0  2  0  0  0  0  0  0
  184.5460  176.8330  136.6450 N   0  0  0  0  0  0  0  0  0  0  0  0
  186.8210  177.6040  137.0180 C   0  0  0  0  0  2  0  0  0  0  0  0
  185.9340  176.3960  136.7320 C   0  0  0  0  0  2  0  0  0  0  0  0
  184.9030  178.2000  138.6420 C   0  0  1  0  0  3  0  0  0  0  0  0
  186.4120  178.2940  138.3280 C   0  0  1  0  0  3  0  0  0  0  0  0
  184.3670  179.4950  139.1860 C   0  0  0  0  0  3  0  0  0  0  0  0
  180.5490  179.5670  137.8970 Cl  0  0  0  0  0  0  0  0  0  0  0  0
  182.6870  178.0920  137.3900 N   0  0  0  0  0  0  0  0  0  0  0  0
  182.2240  179.0930  138.0780 C   0  0  0  0  0  0  0  0  0  0  0  0
  183.1120  179.8850  138.9530 C   0  0  0  0  0  3  0  0  0  0  0  0
  184.0530  177.6760  137.5030 C   0  0  0  0  0  0  0  0  0  0  0  0
  190.4960  176.1490  139.7000 O   0  0  0  0  0  0  0  0  0  0  0  0
  191.5410  176.7150  138.9170 C   0  0  0  0  0  2  0  0  0  0  0  0
  191.1650  176.5330  137.1460 S   0  0  0  0  0  0  0  0  0  0  0  0
  192.8040  175.8400  136.7830 C   0  0  0  0  0  2  0  0  0  0  0  0
  194.5720  174.6630  138.0400 C   0  0  0  0  0  2  0  0  0  0  0  0
  193.0920  174.6810  137.7170 C   0  0  0  0  0  3  0  0  0  0  0  0
  194.0080  173.6980  137.0200 C   0  0  0  0  0  2  0  0  0  0  0  0
  1  2  1  0  0  0  0
  2  6  2  0  0  0  0
  3  1  2  0  0  0  0
  3  5  1  0  0  0  0
  4  6  1  0  0  0  0
  5  4  2  0  0  0  0
  7  8  1  0  0  0  0
  7 10  1  1  0  0  0
  9  6  1  6  0  0  0
  9  7  1  0  0  0  0
  9  8  1  0  0  0  0
 11 10  1  0  0  0  0
 11 12  1  0  0  0  0
 13 11  1  0  0  0  0
 14 11  1  0  0  0  0
 15  1  1  0  0  0  0
 16 15  2  0  0  0  0
 17 15  1  0  0  0  0
 18 20  1  0  0  0  0
 18 28  2  0  0  0  0
 19 22  1  0  0  0  0
 20 19  1  0  0  0  0
 21 23  1  6  0  0  0
 22 21  1  0  0  0  0
 22 17  1  1  0  0  0
 24 26  1  0  0  0  0
 25 28  1  0  0  0  0
 25 26  2  0  0  0  0
 26 27  1  0  0  0  0
 27 23  2  0  0  0  0
 28 21  1  0  0  0  0
 29  3  1  0  0  0  0
 30 29  1  0  0  0  0
 31 30  1  0  0  0  0
 32 31  1  0  0  0  0
 32 34  1  0  0  0  0
 34 33  1  0  0  0  0
 35 34  1  0  0  0  0
 35 33  1  0  0  0  0
M  END
>  <MODEL>
8

>  <REMARK>
 VINA RESULT:      -7.1      4.906      7.871
  Name = 
  10 active torsions:
  status: ('A' for Active; 'I' for Inactive)
    1  A    between atoms: C_1  and  O_34
    2  A    between atoms: C_5  and  C_15
    3  A    between atoms: C_9  and  N_31
    4  A    between atoms: O_10  and  C_11
    5  A    between atoms: O_10  and  C_30
    6  A    between atoms: C_14  and  O_34
    7  A    between atoms: S_16  and  C_17
    8  A    between atoms: S_16  and  C_30
    9  A    between atoms: C_17  and  C_22
   10  A    between atoms: C_25  and  C_35
                            x       y       z     vdW  Elec       q    Type
                         _______ _______ _______ _____ _____    ______ ____

>  <TORSDO>
F 10

$$$$
=
 OpenBabel10232409433D

 35 39  0  0  1  0  0  0  0  0999 V2000
  188.3600  177.9270  140.9990 C   0  0  0  0  0  0  0  0  0  0  0  0
  188.8500  177.5230  139.7500 C   0  0  0  0  0  3  0  0  0  0  0  0
  188.9920  177.4450  142.1670 C   0  0  0  0  0  0  0  0  0  0  0  0
  190.5340  176.2050  140.8070 N   0  0  0  0  0  0  0  0  0  0  0  0
  190.0870  176.5750  142.0350 C   0  0  0  0  0  3  0  0  0  0  0  0
  189.9490  176.6650  139.6680 C   0  0  0  0  0  0  0  0  0  0  0  0
  191.9240  176.1700  138.3190 C   0  0  2  0  0  3  0  0  0  0  0  0
  191.1540  175.0050  138.4710 O   0  0  0  0  0  0  0  0  0  0  0  0
  190.4440  176.2130  138.3330 C   0  0  1  0  0  3  0  0  0  0  0  0
  192.3820  176.2530  136.9950 O   0  0  0  0  0  0  0  0  0  0  0  0
  193.6260  175.5940  136.9250 C   0  0  0  0  0  0  0  0  0  0  0  0
  194.2300  175.5400  138.1740 F   0  0  0  0  0  0  0  0  0  0  0  0
  193.4760  174.3120  136.4180 F   0  0  0  0  0  0  0  0  0  0  0  0
  194.4520  176.3030  136.0740 F   0  0  0  0  0  0  0  0  0  0  0  0
  187.1940  178.8400  141.0410 C   0  0  0  0  0  0  0  0  0  0  0  0
  187.3140  180.0200  141.4700 O   0  0  0  0  0  0  0  0  0  0  0  0
  185.9190  178.3810  140.5800 N   0  0  0  0  0  2  0  0  0  0  0  0
  182.0610  178.3180  139.8330 N   0  0  0  0  0  0  0  0  0  0  0  0
  184.1500  179.4260  139.2660 C   0  0  0  0  0  2  0  0  0  0  0  0
  183.1560  178.3380  138.8700 C   0  0  0  0  0  2  0  0  0  0  0  0
  183.7070  178.4910  141.6330 C   0  0  1  0  0  3  0  0  0  0  0  0
  184.7050  179.1800  140.6770 C   0  0  1  0  0  3  0  0  0  0  0  0
  183.7550  179.0890  143.0110 C   0  0  0  0  0  3  0  0  0  0  0  0
  179.9830  178.6690  144.3680 Cl  0  0  0  0  0  0  0  0  0  0  0  0
  181.1940  178.3870  142.0310 N   0  0  0  0  0  0  0  0  0  0  0  0
  181.3570  178.6970  143.2840 C   0  0  0  0  0  0  0  0  0  0  0  0
  182.6700  179.1470  143.7870 C   0  0  0  0  0  3  0  0  0  0  0  0
  182.2890  178.4040  141.1090 C   0  0  0  0  0  0  0  0  0  0  0  0
  188.5360  177.8300  143.4340 O   0  0  0  0  0  0  0  0  0  0  0  0
  188.1060  176.9070  144.4280 C   0  0  0  0  0  2  0  0  0  0  0  0
  189.0100  177.1930  145.9810 S   0  0  0  0  0  0  0  0  0  0  0  0
  187.5800  177.9940  146.7640 C   0  0  0  0  0  2  0  0  0  0  0  0
  185.6320  179.2410  145.9030 C   0  0  0  0  0  2  0  0  0  0  0  0
  186.3810  177.9260  145.8380 C   0  0  0  0  0  3  0  0  0  0  0  0
  185.1140  178.0360  146.6600 C   0  0  0  0  0  2  0  0  0  0  0  0
  1 15  1  0  0  0  0
  1  3  1  0  0  0  0
  2  1  2  0  0  0  0
  3 29  1  0  0  0  0
  4  5  1  0  0  0  0
  5  3  2  0  0  0  0
  6  2  1  0  0  0  0
  6  4  2  0  0  0  0
  7 10  1  6  0  0  0
  7  9  1  0  0  0  0
  7  8  1  0  0  0  0
  9  8  1  0  0  0  0
  9  6  1  1  0  0  0
 11 10  1  0  0  0  0
 11 12  1  0  0  0  0
 13 11  1  0  0  0  0
 14 11  1  0  0  0  0
 15 16  2  0  0  0  0
 17 15  1  0  0  0  0
 18 28  2  0  0  0  0
 19 22  1  0  0  0  0
 20 19  1  0  0  0  0
 20 18  1  0  0  0  0
 21 23  1  1  0  0  0
 22 17  1  6  0  0  0
 22 21  1  0  0  0  0
 23 27  2  0  0  0  0
 25 26  2  0  0  0  0
 26 27  1  0  0  0  0
 26 24  1  0  0  0  0
 28 21  1  0  0  0  0
 28 25  1  0  0  0  0
 29 30  1  0  0  0  0
 30 31  1  0  0  0  0
 31 32  1  0  0  0  0
 33 35  1  0  0  0  0
 34 33  1  0  0  0  0
 34 35  1  0  0  0  0
 34 32  1  0  0  0  0
M  END
>  <MODEL>
9

>  <REMARK>
 VINA RESULT:      -7.1      1.862      2.920
  Name = 
  10 active torsions:
  status: ('A' for Active; 'I' for Inactive)
    1  A    between atoms: C_1  and  O_34
    2  A    between atoms: C_5  and  C_15
    3  A    between atoms: C_9  and  N_31
    4  A    between atoms: O_10  and  C_11
    5  A    between atoms: O_10  and  C_30
    6  A    between atoms: C_14  and  O_34
    7  A    between atoms: S_16  and  C_17
    8  A    between atoms: S_16  and  C_30
    9  A    between atoms: C_17  and  C_22
   10  A    between atoms: C_25  and  C_35
                            x       y       z     vdW  Elec       q    Type
                         _______ _______ _______ _____ _____    ______ ____

>  <TORSDO>
F 10

$$$$
