=
 OpenBabel10232408303D

 45 48  0  0  1  0  0  0  0  0999 V2000
  185.2240  178.2860  142.8410 C   0  0  0  0  0  3  0  0  0  0  0  0
  186.4910  178.1560  142.5560 C   0  0  0  0  0  0  0  0  0  0  0  0
  187.7590  178.0280  142.2650 C   0  0  0  0  0  0  0  0  0  0  0  0
  189.2680  177.3060  140.3890 C   0  0  0  0  0  2  0  0  0  0  0  0
  187.1410  178.4270  139.8640 C   0  0  0  0  0  2  0  0  0  0  0  0
  188.2650  178.3440  140.8850 C   0  0  1  0  0  3  0  0  0  0  0  0
  187.0410  177.7330  137.5430 N   0  0  0  0  0  0  0  0  0  0  0  0
  189.0290  177.1450  138.8980 C   0  0  0  0  0  2  0  0  0  0  0  0
  187.6940  177.7570  138.6680 C   0  0  0  0  0  0  0  0  0  0  0  0
  188.1910  177.7380  135.4530 N   0  0  0  0  0  2  0  0  0  0  0  0
  187.4470  177.1180  136.3100 C   0  0  0  0  0  0  0  0  0  0  0  0
  187.1180  175.6860  136.0770 C   0  0  0  0  0  2  0  0  0  0  0  0
  188.3540  174.9460  135.5810 C   0  0  0  0  0  2  0  0  0  0  0  0
  189.1010  174.2540  136.7170 C   0  0  1  0  0  3  0  0  0  0  0  0
  188.8810  172.8760  136.6810 O   0  0  0  0  0  1  0  0  0  0  0  0
  190.8720  174.6050  136.6530 S   0  0  1  0  0  0  0  0  0  0  0  0
  191.2910  174.5840  138.1160 O   0  0  0  0  0  0  0  0  0  0  0  0
  191.5810  173.0840  136.0030 C   0  0  0  0  0  1  0  0  0  0  0  0
  185.4530  177.8470  145.2800 O   0  0  0  0  0  1  0  0  0  0  0  0
  184.4000  179.9010  144.5850 C   0  0  0  0  0  2  0  0  0  0  0  0
  183.3070  178.8380  144.5710 C   0  0  2  0  0  3  0  0  0  0  0  0
  184.7500  178.4730  144.2510 C   0  0  1  0  0  0  0  0  0  0  0  0
  182.4530  179.0110  143.3210 C   0  0  0  0  0  2  0  0  0  0  0  0
  180.9920  178.7530  143.6420 C   0  0  0  0  0  2  0  0  0  0  0  0
  180.1820  178.6470  142.3610 C   0  0  0  0  0  2  0  0  0  0  0  0
  181.8630  178.3090  138.9200 N   0  0  0  0  0  0  0  0  0  0  0  0
  181.7620  178.9400  137.5990 C   0  0  0  0  0  2  0  0  0  0  0  0
  180.2720  179.8000  139.7680 O   0  0  0  0  0  0  0  0  0  0  0  0
  181.0330  178.1920  141.2720 N   0  0  0  0  0  2  0  0  0  0  0  0
  183.2880  177.0510  140.3120 O   0  0  0  0  0  0  0  0  0  0  0  0
  182.0780  177.9510  136.4810 C   0  0  0  0  0  2  0  0  0  0  0  0
  183.4540  177.3530  136.7200 C   0  0  0  0  0  2  0  0  0  0  0  0
  183.4440  176.5260  137.9990 C   0  0  0  0  0  2  0  0  0  0  0  0
  181.0290  178.8130  139.9810 C   0  0  0  0  0  0  0  0  0  0  0  0
  182.8830  177.3110  139.1480 C   0  0  0  0  0  0  0  0  0  0  0  0
  188.6520  177.5290  143.2630 N   0  0  0  0  0  2  0  0  0  0  0  0
  188.6090  177.9800  144.5910 N   0  0  0  0  0  2  0  0  0  0  0  0
  191.7120  176.4130  147.0510 C   0  0  0  0  0  0  0  0  0  0  0  0
  188.1640  177.3730  147.4170 N   0  0  0  0  0  1  0  0  0  0  0  0
  189.4800  177.5810  146.8370 C   0  0  2  0  0  3  0  0  0  0  0  0
  190.9140  177.2330  144.8350 C   0  0  0  0  0  2  0  0  0  0  0  0
  189.4910  177.1280  145.3770 C   0  0  2  0  0  3  0  0  0  0  0  0
  192.5970  175.8620  147.8140 N   0  0  0  0  0  2  0  0  0  0  0  0
  191.8360  176.2630  145.5660 C   0  0  0  0  0  2  0  0  0  0  0  0
  190.4750  176.8520  147.6190 N   0  0  0  0  0  2  0  0  0  0  0  0
  1 22  1  0  0  0  0
  2  1  2  0  0  0  0
  3  2  2  0  0  0  0
  3 36  1  0  0  0  0
  4  6  1  0  0  0  0
  5  6  1  0  0  0  0
  6  3  1  1  0  0  0
  7  9  2  0  0  0  0
  8  4  1  0  0  0  0
  9  8  1  0  0  0  0
  9  5  1  0  0  0  0
 10 11  2  0  0  0  0
 11  7  1  0  0  0  0
 12 11  1  0  0  0  0
 13 12  1  0  0  0  0
 13 14  1  0  0  0  0
 14 15  1  6  0  0  0
 16 18  1  6  0  0  0
 16 14  1  0  0  0  0
 16 17  2  0  0  0  0
 21 23  1  6  0  0  0
 21 20  1  0  0  0  0
 22 21  1  0  0  0  0
 22 20  1  0  0  0  0
 22 19  1  1  0  0  0
 23 24  1  0  0  0  0
 25 24  1  0  0  0  0
 26 35  1  0  0  0  0
 26 34  1  0  0  0  0
 27 26  1  0  0  0  0
 28 34  2  0  0  0  0
 29 25  1  0  0  0  0
 31 32  1  0  0  0  0
 31 27  1  0  0  0  0
 32 33  1  0  0  0  0
 33 35  1  0  0  0  0
 34 29  1  0  0  0  0
 35 30  2  0  0  0  0
 36 37  1  0  0  0  0
 38 45  1  0  0  0  0
 38 43  2  0  0  0  0
 40 39  1  1  0  0  0
 40 45  1  0  0  0  0
 41 42  1  0  0  0  0
 41 44  1  0  0  0  0
 42 37  1  6  0  0  0
 42 40  1  0  0  0  0
 44 38  1  0  0  0  0
M  END
>  <MODEL>
1

>  <REMARK>
 VINA RESULT:      -8.2      0.000      0.000
  Name = 
  14 active torsions:
  status: ('A' for Active; 'I' for Inactive)
    1  A    between atoms: S_3  and  C_14
    2  A    between atoms: C_6  and  C_23
    3  A    between atoms: C_6  and  C_33
    4  A    between atoms: N_8  and  N_15
    5  A    between atoms: N_8  and  C_25
    6  A    between atoms: C_10  and  C_42
    7  A    between atoms: C_14  and  C_45
    8  A    between atoms: N_15  and  C_43
    9  A    between atoms: C_17  and  C_37
   10  A    between atoms: C_17  and  C_45
   11  A    between atoms: C_18  and  N_21
   12  A    between atoms: C_18  and  C_23
   13  A    between atoms: C_24  and  C_43
   14  A    between atoms: N_27  and  C_37
                            x       y       z     vdW  Elec       q    Type
                         _______ _______ _______ _____ _____    ______ ____

>  <TORSDO>
F 14

$$$$
=
 OpenBabel10232408303D

 45 48  0  0  1  0  0  0  0  0999 V2000
  185.4610  178.1530  142.8000 C   0  0  0  0  0  3  0  0  0  0  0  0
  186.7400  178.1180  142.5440 C   0  0  0  0  0  0  0  0  0  0  0  0
  188.0200  178.0840  142.2810 C   0  0  0  0  0  0  0  0  0  0  0  0
  189.7520  177.5280  140.5460 C   0  0  0  0  0  2  0  0  0  0  0  0
  187.4700  178.1110  139.8310 C   0  0  0  0  0  2  0  0  0  0  0  0
  188.5270  178.3690  140.8950 C   0  0  1  0  0  3  0  0  0  0  0  0
  187.6510  177.1940  137.5940 N   0  0  0  0  0  0  0  0  0  0  0  0
  189.6380  177.1790  139.0740 C   0  0  0  0  0  2  0  0  0  0  0  0
  188.2200  177.4650  138.7330 C   0  0  0  0  0  0  0  0  0  0  0  0
  188.7510  177.2580  135.4780 N   0  0  0  0  0  2  0  0  0  0  0  0
  188.2480  176.5670  136.4480 C   0  0  0  0  0  0  0  0  0  0  0  0
  188.4130  175.0880  136.4410 C   0  0  0  0  0  2  0  0  0  0  0  0
  187.0670  174.4170  136.6810 C   0  0  0  0  0  2  0  0  0  0  0  0
  187.1090  172.9230  136.3730 C   0  0  1  0  0  3  0  0  0  0  0  0
  187.8720  172.2470  137.3270 O   0  0  0  0  0  1  0  0  0  0  0  0
  185.4480  172.2190  136.2900 S   0  0  1  0  0  0  0  0  0  0  0  0
  184.8480  172.5610  137.6470 O   0  0  0  0  0  0  0  0  0  0  0  0
  184.5760  173.3240  135.1690 C   0  0  0  0  0  1  0  0  0  0  0  0
  185.5660  177.7100  145.2480 O   0  0  0  0  0  1  0  0  0  0  0  0
  184.6650  179.8200  144.5080 C   0  0  0  0  0  2  0  0  0  0  0  0
  183.5120  178.8230  144.4520 C   0  0  2  0  0  3  0  0  0  0  0  0
  184.9430  178.3730  144.1900 C   0  0  1  0  0  0  0  0  0  0  0  0
  182.7210  179.0410  143.1690 C   0  0  0  0  0  2  0  0  0  0  0  0
  181.2330  178.8990  143.4380 C   0  0  0  0  0  2  0  0  0  0  0  0
  180.4560  178.9390  142.1330 C   0  0  0  0  0  2  0  0  0  0  0  0
  182.2020  177.2980  139.1260 N   0  0  0  0  0  0  0  0  0  0  0  0
  182.1170  176.0370  138.3810 C   0  0  0  0  0  2  0  0  0  0  0  0
  180.3890  176.6490  140.4560 O   0  0  0  0  0  0  0  0  0  0  0  0
  181.3520  178.6950  141.0130 N   0  0  0  0  0  2  0  0  0  0  0  0
  182.9330  179.5330  138.9850 O   0  0  0  0  0  0  0  0  0  0  0  0
  183.4770  175.6180  137.8320 C   0  0  0  0  0  2  0  0  0  0  0  0
  184.0380  176.7450  136.9800 C   0  0  0  0  0  2  0  0  0  0  0  0
  184.3100  177.9660  137.8480 C   0  0  0  0  0  2  0  0  0  0  0  0
  181.2720  177.5150  140.2060 C   0  0  0  0  0  0  0  0  0  0  0  0
  183.1080  178.3270  138.6700 C   0  0  0  0  0  0  0  0  0  0  0  0
  188.9310  177.7170  143.3200 N   0  0  0  0  0  2  0  0  0  0  0  0
  188.6630  177.9820  144.6720 N   0  0  0  0  0  2  0  0  0  0  0  0
  191.7550  176.3970  147.1350 C   0  0  0  0  0  0  0  0  0  0  0  0
  188.2450  177.4800  147.5230 N   0  0  0  0  0  1  0  0  0  0  0  0
  189.5570  177.6280  146.9160 C   0  0  2  0  0  3  0  0  0  0  0  0
  190.9470  177.1710  144.9050 C   0  0  0  0  0  2  0  0  0  0  0  0
  189.5310  177.1290  145.4720 C   0  0  2  0  0  3  0  0  0  0  0  0
  192.6340  175.8440  147.9010 N   0  0  0  0  0  2  0  0  0  0  0  0
  191.8500  176.1960  145.6530 C   0  0  0  0  0  2  0  0  0  0  0  0
  190.5410  176.8930  147.7070 N   0  0  0  0  0  2  0  0  0  0  0  0
  1 22  1  0  0  0  0
  2  1  2  0  0  0  0
  3  2  2  0  0  0  0
  3 36  1  0  0  0  0
  4  6  1  0  0  0  0
  5  6  1  0  0  0  0
  6  3  1  1  0  0  0
  7  9  2  0  0  0  0
  8  4  1  0  0  0  0
  9  8  1  0  0  0  0
  9  5  1  0  0  0  0
 10 11  2  0  0  0  0
 11  7  1  0  0  0  0
 12 11  1  0  0  0  0
 12 13  1  0  0  0  0
 14 13  1  0  0  0  0
 14 15  1  1  0  0  0
 16 18  1  6  0  0  0
 16 14  1  0  0  0  0
 16 17  2  0  0  0  0
 21 23  1  6  0  0  0
 21 20  1  0  0  0  0
 22 21  1  0  0  0  0
 22 20  1  0  0  0  0
 22 19  1  1  0  0  0
 23 24  1  0  0  0  0
 25 24  1  0  0  0  0
 26 34  1  0  0  0  0
 27 26  1  0  0  0  0
 29 25  1  0  0  0  0
 31 27  1  0  0  0  0
 32 31  1  0  0  0  0
 32 33  1  0  0  0  0
 33 35  1  0  0  0  0
 34 28  2  0  0  0  0
 34 29  1  0  0  0  0
 35 30  2  0  0  0  0
 35 26  1  0  0  0  0
 36 37  1  0  0  0  0
 38 45  1  0  0  0  0
 38 43  2  0  0  0  0
 40 39  1  1  0  0  0
 40 45  1  0  0  0  0
 41 42  1  0  0  0  0
 41 44  1  0  0  0  0
 42 37  1  6  0  0  0
 42 40  1  0  0  0  0
 44 38  1  0  0  0  0
M  END
>  <MODEL>
2

>  <REMARK>
 VINA RESULT:      -8.1      1.554      2.075
  Name = 
  14 active torsions:
  status: ('A' for Active; 'I' for Inactive)
    1  A    between atoms: S_3  and  C_14
    2  A    between atoms: C_6  and  C_23
    3  A    between atoms: C_6  and  C_33
    4  A    between atoms: N_8  and  N_15
    5  A    between atoms: N_8  and  C_25
    6  A    between atoms: C_10  and  C_42
    7  A    between atoms: C_14  and  C_45
    8  A    between atoms: N_15  and  C_43
    9  A    between atoms: C_17  and  C_37
   10  A    between atoms: C_17  and  C_45
   11  A    between atoms: C_18  and  N_21
   12  A    between atoms: C_18  and  C_23
   13  A    between atoms: C_24  and  C_43
   14  A    between atoms: N_27  and  C_37
                            x       y       z     vdW  Elec       q    Type
                         _______ _______ _______ _____ _____    ______ ____

>  <TORSDO>
F 14

$$$$
=
 OpenBabel10232408303D

 45 48  0  0  1  0  0  0  0  0999 V2000
  189.6930  177.8010  142.2710 C   0  0  0  0  0  3  0  0  0  0  0  0
  189.8240  177.7020  140.9770 C   0  0  0  0  0  0  0  0  0  0  0  0
  189.9480  177.6050  139.6790 C   0  0  0  0  0  0  0  0  0  0  0  0
  189.4080  178.4820  137.3860 C   0  0  0  0  0  2  0  0  0  0  0  0
  187.7550  177.0930  138.5680 C   0  0  0  0  0  2  0  0  0  0  0  0
  188.8670  178.1110  138.7650 C   0  0  1  0  0  3  0  0  0  0  0  0
  186.4330  176.5340  136.6150 N   0  0  0  0  0  0  0  0  0  0  0  0
  188.3360  178.1010  136.3800 C   0  0  0  0  0  2  0  0  0  0  0  0
  187.4290  177.1930  137.1300 C   0  0  0  0  0  0  0  0  0  0  0  0
  185.7490  177.6230  134.6060 N   0  0  0  0  0  2  0  0  0  0  0  0
  186.0050  176.5280  135.2430 C   0  0  0  0  0  0  0  0  0  0  0  0
  185.9890  175.2390  134.4990 C   0  0  0  0  0  2  0  0  0  0  0  0
  184.7700  174.4220  134.9070 C   0  0  0  0  0  2  0  0  0  0  0  0
  185.1550  173.0390  135.4230 C   0  0  1  0  0  3  0  0  0  0  0  0
  186.5190  172.8080  135.2350 O   0  0  0  0  0  1  0  0  0  0  0  0
  184.7220  172.8400  137.1650 S   0  0  1  0  0  0  0  0  0  0  0  0
  186.0430  173.0620  137.8870 O   0  0  0  0  0  0  0  0  0  0  0  0
  183.7930  174.3340  137.5430 C   0  0  0  0  0  1  0  0  0  0  0  0
  192.0670  177.2080  142.7300 O   0  0  0  0  0  1  0  0  0  0  0  0
  191.1220  179.1040  143.8810 C   0  0  0  0  0  2  0  0  0  0  0  0
  190.7350  177.8760  144.6980 C   0  0  2  0  0  3  0  0  0  0  0  0
  190.8830  177.7890  143.1840 C   0  0  1  0  0  0  0  0  0  0  0  0
  189.2820  178.0030  145.1390 C   0  0  0  0  0  2  0  0  0  0  0  0
  189.1340  177.5780  146.5890 C   0  0  0  0  0  2  0  0  0  0  0  0
  187.6640  177.4770  146.9610 C   0  0  0  0  0  2  0  0  0  0  0  0
  184.7800  178.5830  144.6710 N   0  0  0  0  0  0  0  0  0  0  0  0
  183.4720  179.2310  144.8150 C   0  0  0  0  0  2  0  0  0  0  0  0
  185.1710  178.8360  146.9640 O   0  0  0  0  0  0  0  0  0  0  0  0
  186.8380  177.7120  145.7870 N   0  0  0  0  0  2  0  0  0  0  0  0
  186.5080  178.1260  143.1360 O   0  0  0  0  0  0  0  0  0  0  0  0
  182.4840  178.7380  143.7620 C   0  0  0  0  0  2  0  0  0  0  0  0
  183.0780  178.9570  142.3810 C   0  0  0  0  0  2  0  0  0  0  0  0
  184.3200  178.0930  142.2070 C   0  0  0  0  0  2  0  0  0  0  0  0
  185.5840  178.4010  145.8540 C   0  0  0  0  0  0  0  0  0  0  0  0
  185.2760  178.2800  143.3480 C   0  0  0  0  0  0  0  0  0  0  0  0
  191.1040  176.9590  139.1400 N   0  0  0  0  0  2  0  0  0  0  0  0
  191.0730  175.6260  138.7020 N   0  0  0  0  0  2  0  0  0  0  0  0
  193.6260  176.1840  135.3390 C   0  0  0  0  0  0  0  0  0  0  0  0
  193.8790  176.3880  139.0180 N   0  0  0  0  0  1  0  0  0  0  0  0
  193.1290  176.5740  137.7870 C   0  0  2  0  0  3  0  0  0  0  0  0
  191.3880  175.6230  136.2870 C   0  0  0  0  0  2  0  0  0  0  0  0
  192.0670  175.4840  137.6470 C   0  0  2  0  0  3  0  0  0  0  0  0
  194.4560  176.2850  134.3550 N   0  0  0  0  0  2  0  0  0  0  0  0
  192.3860  175.3620  135.1640 C   0  0  0  0  0  2  0  0  0  0  0  0
  194.0500  176.5570  136.6540 N   0  0  0  0  0  2  0  0  0  0  0  0
  1 22  1  0  0  0  0
  2  1  2  0  0  0  0
  3  2  2  0  0  0  0
  4  6  1  0  0  0  0
  5  6  1  0  0  0  0
  6  3  1  1  0  0  0
  7  9  2  0  0  0  0
  8  9  1  0  0  0  0
  8  4  1  0  0  0  0
  9  5  1  0  0  0  0
 10 11  2  0  0  0  0
 11  7  1  0  0  0  0
 12 13  1  0  0  0  0
 12 11  1  0  0  0  0
 13 14  1  0  0  0  0
 14 15  1  1  0  0  0
 14 16  1  0  0  0  0
 16 18  1  1  0  0  0
 16 17  2  0  0  0  0
 20 21  1  0  0  0  0
 21 23  1  6  0  0  0
 22 19  1  6  0  0  0
 22 20  1  0  0  0  0
 22 21  1  0  0  0  0
 23 24  1  0  0  0  0
 24 25  1  0  0  0  0
 26 27  1  0  0  0  0
 26 34  1  0  0  0  0
 29 34  1  0  0  0  0
 29 25  1  0  0  0  0
 30 35  2  0  0  0  0
 31 27  1  0  0  0  0
 32 31  1  0  0  0  0
 33 32  1  0  0  0  0
 33 35  1  0  0  0  0
 34 28  2  0  0  0  0
 35 26  1  0  0  0  0
 36  3  1  0  0  0  0
 37 36  1  0  0  0  0
 38 45  1  0  0  0  0
 40 39  1  1  0  0  0
 41 42  1  0  0  0  0
 42 40  1  0  0  0  0
 42 37  1  1  0  0  0
 43 38  2  0  0  0  0
 44 38  1  0  0  0  0
 44 41  1  0  0  0  0
 45 40  1  0  0  0  0
M  END
>  <MODEL>
3

>  <REMARK>
 VINA RESULT:      -8.0      3.123      6.808
  Name = 
  14 active torsions:
  status: ('A' for Active; 'I' for Inactive)
    1  A    between atoms: S_3  and  C_14
    2  A    between atoms: C_6  and  C_23
    3  A    between atoms: C_6  and  C_33
    4  A    between atoms: N_8  and  N_15
    5  A    between atoms: N_8  and  C_25
    6  A    between atoms: C_10  and  C_42
    7  A    between atoms: C_14  and  C_45
    8  A    between atoms: N_15  and  C_43
    9  A    between atoms: C_17  and  C_37
   10  A    between atoms: C_17  and  C_45
   11  A    between atoms: C_18  and  N_21
   12  A    between atoms: C_18  and  C_23
   13  A    between atoms: C_24  and  C_43
   14  A    between atoms: N_27  and  C_37
                            x       y       z     vdW  Elec       q    Type
                         _______ _______ _______ _____ _____    ______ ____

>  <TORSDO>
F 14

$$$$
=
 OpenBabel10232408303D

 45 48  0  0  1  0  0  0  0  0999 V2000
  189.6560  177.7820  142.4300 C   0  0  0  0  0  3  0  0  0  0  0  0
  189.7200  177.7830  141.1270 C   0  0  0  0  0  0  0  0  0  0  0  0
  189.7780  177.7870  139.8210 C   0  0  0  0  0  0  0  0  0  0  0  0
  189.1330  178.8740  137.6490 C   0  0  0  0  0  2  0  0  0  0  0  0
  187.5470  177.3510  138.7550 C   0  0  0  0  0  2  0  0  0  0  0  0
  188.6550  178.3620  139.0050 C   0  0  1  0  0  3  0  0  0  0  0  0
  186.1510  176.9640  136.8110 N   0  0  0  0  0  0  0  0  0  0  0  0
  188.0250  178.5760  136.6540 C   0  0  0  0  0  2  0  0  0  0  0  0
  187.1600  177.5850  137.3480 C   0  0  0  0  0  0  0  0  0  0  0  0
  186.4540  176.9740  134.4450 N   0  0  0  0  0  2  0  0  0  0  0  0
  185.6660  177.0850  135.4640 C   0  0  0  0  0  0  0  0  0  0  0  0
  184.2010  177.2040  135.2340 C   0  0  0  0  0  2  0  0  0  0  0  0
  183.4430  176.5580  136.3860 C   0  0  0  0  0  2  0  0  0  0  0  0
  182.5330  177.5520  137.1020 C   0  0  1  0  0  3  0  0  0  0  0  0
  181.8390  178.3350  136.1770 O   0  0  0  0  0  1  0  0  0  0  0  0
  181.3730  176.7120  138.2030 S   0  0  1  0  0  0  0  0  0  0  0  0
  181.0460  175.4250  137.4580 O   0  0  0  0  0  0  0  0  0  0  0  0
  182.4130  176.1460  139.5580 C   0  0  0  0  0  1  0  0  0  0  0  0
  191.9890  176.9910  142.7890 O   0  0  0  0  0  1  0  0  0  0  0  0
  191.2870  179.0140  143.8970 C   0  0  0  0  0  2  0  0  0  0  0  0
  190.8380  177.8630  144.7910 C   0  0  2  0  0  3  0  0  0  0  0  0
  190.8910  177.6980  143.2780 C   0  0  1  0  0  0  0  0  0  0  0  0
  189.4310  178.1430  145.3030 C   0  0  0  0  0  2  0  0  0  0  0  0
  189.1460  177.3090  146.5390 C   0  0  0  0  0  2  0  0  0  0  0  0
  187.7030  177.4930  146.9770 C   0  0  0  0  0  2  0  0  0  0  0  0
  184.7790  178.5850  144.7310 N   0  0  0  0  0  0  0  0  0  0  0  0
  183.4710  179.2300  144.8940 C   0  0  0  0  0  2  0  0  0  0  0  0
  185.2060  178.8450  147.0170 O   0  0  0  0  0  0  0  0  0  0  0  0
  186.8560  177.7230  145.8160 N   0  0  0  0  0  2  0  0  0  0  0  0
  186.4830  178.1290  143.1690 O   0  0  0  0  0  0  0  0  0  0  0  0
  182.4680  178.7310  143.8590 C   0  0  0  0  0  2  0  0  0  0  0  0
  183.0400  178.9490  142.4670 C   0  0  0  0  0  2  0  0  0  0  0  0
  184.2810  178.0870  142.2760 C   0  0  0  0  0  2  0  0  0  0  0  0
  185.6020  178.4080  145.9010 C   0  0  0  0  0  0  0  0  0  0  0  0
  185.2540  178.2800  143.4010 C   0  0  0  0  0  0  0  0  0  0  0  0
  190.9020  177.1840  139.1760 N   0  0  0  0  0  2  0  0  0  0  0  0
  190.9380  175.8140  138.8730 N   0  0  0  0  0  2  0  0  0  0  0  0
  193.7460  174.8750  135.8120 C   0  0  0  0  0  0  0  0  0  0  0  0
  190.5330  173.5510  137.0640 N   0  0  0  0  0  1  0  0  0  0  0  0
  191.8260  174.1720  137.2990 C   0  0  2  0  0  3  0  0  0  0  0  0
  193.0250  176.3090  137.7210 C   0  0  0  0  0  2  0  0  0  0  0  0
  191.6500  175.6580  137.6120 C   0  0  2  0  0  3  0  0  0  0  0  0
  194.5270  174.6010  134.8200 N   0  0  0  0  0  2  0  0  0  0  0  0
  193.7460  176.2620  136.3770 C   0  0  0  0  0  2  0  0  0  0  0  0
  192.6740  173.9800  136.1260 N   0  0  0  0  0  2  0  0  0  0  0  0
  1 22  1  0  0  0  0
  2  1  2  0  0  0  0
  3  2  2  0  0  0  0
  4  6  1  0  0  0  0
  5  6  1  0  0  0  0
  6  3  1  6  0  0  0
  7  9  2  0  0  0  0
  8  9  1  0  0  0  0
  8  4  1  0  0  0  0
  9  5  1  0  0  0  0
 10 11  2  0  0  0  0
 11  7  1  0  0  0  0
 12 11  1  0  0  0  0
 12 13  1  0  0  0  0
 13 14  1  0  0  0  0
 14 15  1  6  0  0  0
 14 16  1  0  0  0  0
 16 18  1  1  0  0  0
 17 16  2  0  0  0  0
 20 21  1  0  0  0  0
 21 23  1  6  0  0  0
 22 19  1  6  0  0  0
 22 20  1  0  0  0  0
 22 21  1  0  0  0  0
 23 24  1  0  0  0  0
 24 25  1  0  0  0  0
 26 27  1  0  0  0  0
 26 34  1  0  0  0  0
 29 34  1  0  0  0  0
 29 25  1  0  0  0  0
 30 35  2  0  0  0  0
 31 27  1  0  0  0  0
 32 31  1  0  0  0  0
 33 32  1  0  0  0  0
 33 35  1  0  0  0  0
 34 28  2  0  0  0  0
 35 26  1  0  0  0  0
 36  3  1  0  0  0  0
 37 36  1  0  0  0  0
 38 45  1  0  0  0  0
 38 44  1  0  0  0  0
 40 39  1  6  0  0  0
 40 42  1  0  0  0  0
 42 41  1  0  0  0  0
 42 37  1  1  0  0  0
 43 38  2  0  0  0  0
 44 41  1  0  0  0  0
 45 40  1  0  0  0  0
M  END
>  <MODEL>
4

>  <REMARK>
 VINA RESULT:      -8.0      3.149      7.263
  Name = 
  14 active torsions:
  status: ('A' for Active; 'I' for Inactive)
    1  A    between atoms: S_3  and  C_14
    2  A    between atoms: C_6  and  C_23
    3  A    between atoms: C_6  and  C_33
    4  A    between atoms: N_8  and  N_15
    5  A    between atoms: N_8  and  C_25
    6  A    between atoms: C_10  and  C_42
    7  A    between atoms: C_14  and  C_45
    8  A    between atoms: N_15  and  C_43
    9  A    between atoms: C_17  and  C_37
   10  A    between atoms: C_17  and  C_45
   11  A    between atoms: C_18  and  N_21
   12  A    between atoms: C_18  and  C_23
   13  A    between atoms: C_24  and  C_43
   14  A    between atoms: N_27  and  C_37
                            x       y       z     vdW  Elec       q    Type
                         _______ _______ _______ _____ _____    ______ ____

>  <TORSDO>
F 14

$$$$
=
 OpenBabel10232408303D

 45 48  0  0  1  0  0  0  0  0999 V2000
  189.4920  177.6230  141.8570 C   0  0  0  0  0  3  0  0  0  0  0  0
  189.6080  177.7350  140.5620 C   0  0  0  0  0  0  0  0  0  0  0  0
  189.7190  177.8500  139.2650 C   0  0  0  0  0  0  0  0  0  0  0  0
  188.6720  177.8660  136.9790 C   0  0  0  0  0  2  0  0  0  0  0  0
  187.2250  177.8050  138.9690 C   0  0  0  0  0  2  0  0  0  0  0  0
  188.5550  178.3140  138.4340 C   0  0  1  0  0  3  0  0  0  0  0  0
  185.2270  177.0540  137.8210 N   0  0  0  0  0  0  0  0  0  0  0  0
  187.2660  177.5490  136.5050 C   0  0  0  0  0  2  0  0  0  0  0  0
  186.4690  177.4350  137.7540 C   0  0  0  0  0  0  0  0  0  0  0  0
  183.7720  177.5320  135.9910 N   0  0  0  0  0  2  0  0  0  0  0  0
  184.3740  176.6610  136.7330 C   0  0  0  0  0  0  0  0  0  0  0  0
  184.2920  175.2210  136.3670 C   0  0  0  0  0  2  0  0  0  0  0  0
  184.0100  174.3880  137.6110 C   0  0  0  0  0  2  0  0  0  0  0  0
  184.8200  173.0950  137.6300 C   0  0  1  0  0  3  0  0  0  0  0  0
  183.9950  171.9950  137.3880 O   0  0  0  0  0  1  0  0  0  0  0  0
  186.1670  173.1420  136.4280 S   0  0  1  0  0  0  0  0  0  0  0  0
  187.3660  172.6350  137.2170 O   0  0  0  0  0  0  0  0  0  0  0  0
  185.7960  171.7710  135.3230 C   0  0  0  0  0  1  0  0  0  0  0  0
  191.9280  177.2840  142.2410 O   0  0  0  0  0  1  0  0  0  0  0  0
  190.7740  178.9070  143.6000 C   0  0  0  0  0  2  0  0  0  0  0  0
  190.5560  177.5570  144.2740 C   0  0  2  0  0  3  0  0  0  0  0  0
  190.6880  177.6580  142.7600 C   0  0  1  0  0  0  0  0  0  0  0  0
  189.1060  177.4510  144.7300 C   0  0  0  0  0  2  0  0  0  0  0  0
  189.0370  177.3550  146.2440 C   0  0  0  0  0  2  0  0  0  0  0  0
  187.6410  177.7060  146.7310 C   0  0  0  0  0  2  0  0  0  0  0  0
  184.6060  178.6550  144.5690 N   0  0  0  0  0  0  0  0  0  0  0  0
  183.2790  179.2480  144.7680 C   0  0  0  0  0  2  0  0  0  0  0  0
  185.0940  178.9570  146.8380 O   0  0  0  0  0  0  0  0  0  0  0  0
  186.7500  177.8890  145.5960 N   0  0  0  0  0  2  0  0  0  0  0  0
  186.2770  178.2510  142.9580 O   0  0  0  0  0  0  0  0  0  0  0  0
  182.2650  178.6980  143.7700 C   0  0  0  0  0  2  0  0  0  0  0  0
  182.7820  178.9230  142.3600 C   0  0  0  0  0  2  0  0  0  0  0  0
  184.0510  178.1110  142.1360 C   0  0  0  0  0  2  0  0  0  0  0  0
  185.4720  178.5240  145.7140 C   0  0  0  0  0  0  0  0  0  0  0  0
  185.0510  178.3550  143.2280 C   0  0  0  0  0  0  0  0  0  0  0  0
  190.9470  177.4740  138.6380 N   0  0  0  0  0  2  0  0  0  0  0  0
  191.4720  176.1770  138.7510 N   0  0  0  0  0  2  0  0  0  0  0  0
  193.8380  174.6260  135.5680 C   0  0  0  0  0  0  0  0  0  0  0  0
  190.6850  173.7680  137.2900 N   0  0  0  0  0  1  0  0  0  0  0  0
  192.0430  174.2860  137.3160 C   0  0  2  0  0  3  0  0  0  0  0  0
  193.4530  176.3340  137.3440 C   0  0  0  0  0  2  0  0  0  0  0  0
  192.0250  175.8080  137.4550 C   0  0  2  0  0  3  0  0  0  0  0  0
  194.4790  174.1660  134.5460 N   0  0  0  0  0  2  0  0  0  0  0  0
  194.0140  176.0630  135.9520 C   0  0  0  0  0  2  0  0  0  0  0  0
  192.7380  173.8800  136.0970 N   0  0  0  0  0  2  0  0  0  0  0  0
  1 22  1  0  0  0  0
  2  1  2  0  0  0  0
  3  2  2  0  0  0  0
  4  6  1  0  0  0  0
  6  5  1  0  0  0  0
  6  3  1  1  0  0  0
  8  4  1  0  0  0  0
  8  9  1  0  0  0  0
  9  7  2  0  0  0  0
  9  5  1  0  0  0  0
 10 11  2  0  0  0  0
 11  7  1  0  0  0  0
 12 11  1  0  0  0  0
 12 13  1  0  0  0  0
 13 14  1  0  0  0  0
 14 15  1  6  0  0  0
 16 18  1  6  0  0  0
 16 17  2  0  0  0  0
 16 14  1  0  0  0  0
 20 21  1  0  0  0  0
 21 23  1  6  0  0  0
 22 19  1  6  0  0  0
 22 20  1  0  0  0  0
 22 21  1  0  0  0  0
 23 24  1  0  0  0  0
 24 25  1  0  0  0  0
 26 27  1  0  0  0  0
 26 34  1  0  0  0  0
 29 34  1  0  0  0  0
 29 25  1  0  0  0  0
 30 35  2  0  0  0  0
 31 27  1  0  0  0  0
 32 31  1  0  0  0  0
 33 32  1  0  0  0  0
 33 35  1  0  0  0  0
 34 28  2  0  0  0  0
 35 26  1  0  0  0  0
 36 37  1  0  0  0  0
 36  3  1  0  0  0  0
 38 44  1  0  0  0  0
 38 45  1  0  0  0  0
 40 39  1  6  0  0  0
 40 42  1  0  0  0  0
 41 42  1  0  0  0  0
 42 37  1  1  0  0  0
 43 38  2  0  0  0  0
 44 41  1  0  0  0  0
 45 40  1  0  0  0  0
M  END
>  <MODEL>
5

>  <REMARK>
 VINA RESULT:      -7.8      2.993      6.790
  Name = 
  14 active torsions:
  status: ('A' for Active; 'I' for Inactive)
    1  A    between atoms: S_3  and  C_14
    2  A    between atoms: C_6  and  C_23
    3  A    between atoms: C_6  and  C_33
    4  A    between atoms: N_8  and  N_15
    5  A    between atoms: N_8  and  C_25
    6  A    between atoms: C_10  and  C_42
    7  A    between atoms: C_14  and  C_45
    8  A    between atoms: N_15  and  C_43
    9  A    between atoms: C_17  and  C_37
   10  A    between atoms: C_17  and  C_45
   11  A    between atoms: C_18  and  N_21
   12  A    between atoms: C_18  and  C_23
   13  A    between atoms: C_24  and  C_43
   14  A    between atoms: N_27  and  C_37
                            x       y       z     vdW  Elec       q    Type
                         _______ _______ _______ _____ _____    ______ ____

>  <TORSDO>
F 14

$$$$
=
 OpenBabel10232408303D

 45 48  0  0  1  0  0  0  0  0999 V2000
  186.9750  178.1090  141.8640 C   0  0  0  0  0  3  0  0  0  0  0  0
  187.8130  178.0890  140.8640 C   0  0  0  0  0  0  0  0  0  0  0  0
  188.6550  178.0620  139.8640 C   0  0  0  0  0  0  0  0  0  0  0  0
  189.3710  176.1180  138.4410 C   0  0  0  0  0  2  0  0  0  0  0  0
  191.0710  177.4040  139.6720 C   0  0  0  0  0  2  0  0  0  0  0  0
  189.6280  176.9260  139.7100 C   0  0  1  0  0  3  0  0  0  0  0  0
  192.9740  176.6260  138.3870 N   0  0  0  0  0  0  0  0  0  0  0  0
  190.7290  175.6930  137.9120 C   0  0  0  0  0  2  0  0  0  0  0  0
  191.6960  176.5690  138.6250 C   0  0  0  0  0  0  0  0  0  0  0  0
  194.2870  176.4650  136.4020 N   0  0  0  0  0  2  0  0  0  0  0  0
  193.7130  175.8840  137.4030 C   0  0  0  0  0  0  0  0  0  0  0  0
  193.9390  174.4290  137.6190 C   0  0  0  0  0  2  0  0  0  0  0  0
  195.2140  173.9930  136.9100 C   0  0  0  0  0  2  0  0  0  0  0  0
  196.3740  173.8020  137.8830 C   0  0  1  0  0  3  0  0  0  0  0  0
  196.6100  172.4440  138.1040 O   0  0  0  0  0  1  0  0  0  0  0  0
  197.8760  174.6080  137.2860 S   0  0  1  0  0  0  0  0  0  0  0  0
  198.3310  175.4400  138.4770 O   0  0  0  0  0  0  0  0  0  0  0  0
  199.0810  173.2720  137.2370 C   0  0  0  0  0  1  0  0  0  0  0  0
  185.5880  179.9140  140.8560 O   0  0  0  0  0  1  0  0  0  0  0  0
  184.4600  178.0480  141.8840 C   0  0  0  0  0  2  0  0  0  0  0  0
  184.7790  179.0240  143.0110 C   0  0  2  0  0  3  0  0  0  0  0  0
  185.7010  178.8990  141.8060 C   0  0  1  0  0  0  0  0  0  0  0  0
  185.2840  178.2480  144.2210 C   0  0  0  0  0  2  0  0  0  0  0  0
  184.6770  178.8070  145.4950 C   0  0  0  0  0  2  0  0  0  0  0  0
  185.6810  178.7340  146.6330 C   0  0  0  0  0  2  0  0  0  0  0  0
  189.1850  177.1550  146.5170 N   0  0  0  0  0  0  0  0  0  0  0  0
  190.2020  176.7060  147.4740 C   0  0  0  0  0  2  0  0  0  0  0  0
  187.7360  177.6710  148.2800 O   0  0  0  0  0  0  0  0  0  0  0  0
  186.9380  178.1810  146.1520 N   0  0  0  0  0  2  0  0  0  0  0  0
  188.4400  176.9130  144.2950 O   0  0  0  0  0  0  0  0  0  0  0  0
  191.6120  176.8900  146.9210 C   0  0  0  0  0  2  0  0  0  0  0  0
  191.7230  176.1620  145.5920 C   0  0  0  0  0  2  0  0  0  0  0  0
  190.7990  176.8080  144.5680 C   0  0  0  0  0  2  0  0  0  0  0  0
  187.9400  177.6630  147.0350 C   0  0  0  0  0  0  0  0  0  0  0  0
  189.4050  176.9440  145.1050 C   0  0  0  0  0  0  0  0  0  0  0  0
  188.6780  179.1590  138.9490 N   0  0  0  0  0  2  0  0  0  0  0  0
  188.4750  178.9810  137.5710 N   0  0  0  0  0  2  0  0  0  0  0  0
  184.7300  177.2430  136.5280 C   0  0  0  0  0  0  0  0  0  0  0  0
  188.2390  177.0470  135.3900 N   0  0  0  0  0  1  0  0  0  0  0  0
  187.1180  177.8080  135.9160 C   0  0  2  0  0  3  0  0  0  0  0  0
  186.0790  178.7800  137.9560 C   0  0  0  0  0  2  0  0  0  0  0  0
  187.3280  178.1000  137.4010 C   0  0  2  0  0  3  0  0  0  0  0  0
  183.6340  176.6300  136.2300 N   0  0  0  0  0  2  0  0  0  0  0  0
  184.8860  177.8320  137.8970 C   0  0  0  0  0  2  0  0  0  0  0  0
  185.8820  177.0590  135.7000 N   0  0  0  0  0  2  0  0  0  0  0  0
  2  1  2  0  0  0  0
  3  2  2  0  0  0  0
  4  6  1  0  0  0  0
  5  6  1  0  0  0  0
  6  3  1  6  0  0  0
  7  9  2  0  0  0  0
  8  4  1  0  0  0  0
  8  9  1  0  0  0  0
  9  5  1  0  0  0  0
 10 11  2  0  0  0  0
 11 12  1  0  0  0  0
 11  7  1  0  0  0  0
 13 12  1  0  0  0  0
 13 14  1  0  0  0  0
 14 15  1  6  0  0  0
 16 18  1  1  0  0  0
 16 14  1  0  0  0  0
 16 17  2  0  0  0  0
 20 21  1  0  0  0  0
 21 23  1  1  0  0  0
 22 19  1  6  0  0  0
 22  1  1  0  0  0  0
 22 20  1  0  0  0  0
 22 21  1  0  0  0  0
 23 24  1  0  0  0  0
 24 25  1  0  0  0  0
 26 34  1  0  0  0  0
 26 27  1  0  0  0  0
 29 25  1  0  0  0  0
 29 34  1  0  0  0  0
 30 35  2  0  0  0  0
 31 27  1  0  0  0  0
 32 31  1  0  0  0  0
 33 35  1  0  0  0  0
 33 32  1  0  0  0  0
 34 28  2  0  0  0  0
 35 26  1  0  0  0  0
 36  3  1  0  0  0  0
 37 36  1  0  0  0  0
 38 44  1  0  0  0  0
 40 39  1  1  0  0  0
 40 42  1  0  0  0  0
 42 37  1  6  0  0  0
 42 41  1  0  0  0  0
 43 38  2  0  0  0  0
 44 41  1  0  0  0  0
 45 40  1  0  0  0  0
 45 38  1  0  0  0  0
M  END
>  <MODEL>
6

>  <REMARK>
 VINA RESULT:      -7.8      3.176      8.104
  Name = 
  14 active torsions:
  status: ('A' for Active; 'I' for Inactive)
    1  A    between atoms: S_3  and  C_14
    2  A    between atoms: C_6  and  C_23
    3  A    between atoms: C_6  and  C_33
    4  A    between atoms: N_8  and  N_15
    5  A    between atoms: N_8  and  C_25
    6  A    between atoms: C_10  and  C_42
    7  A    between atoms: C_14  and  C_45
    8  A    between atoms: N_15  and  C_43
    9  A    between atoms: C_17  and  C_37
   10  A    between atoms: C_17  and  C_45
   11  A    between atoms: C_18  and  N_21
   12  A    between atoms: C_18  and  C_23
   13  A    between atoms: C_24  and  C_43
   14  A    between atoms: N_27  and  C_37
                            x       y       z     vdW  Elec       q    Type
                         _______ _______ _______ _____ _____    ______ ____

>  <TORSDO>
F 14

$$$$
=
 OpenBabel10232408303D

 45 48  0  0  1  0  0  0  0  0999 V2000
  186.8390  178.3780  136.8230 C   0  0  0  0  0  3  0  0  0  0  0  0
  188.0120  178.1130  137.3300 C   0  0  0  0  0  0  0  0  0  0  0  0
  189.1850  177.8510  137.8440 C   0  0  0  0  0  0  0  0  0  0  0  0
  188.4280  177.9730  140.2380 C   0  0  0  0  0  2  0  0  0  0  0  0
  190.8200  177.6740  139.7420 C   0  0  0  0  0  2  0  0  0  0  0  0
  189.5310  178.3030  139.2360 C   0  0  1  0  0  3  0  0  0  0  0  0
  191.4530  176.8890  141.9470 N   0  0  0  0  0  0  0  0  0  0  0  0
  189.1170  177.6060  141.5400 C   0  0  0  0  0  2  0  0  0  0  0  0
  190.5290  177.3500  141.1540 C   0  0  0  0  0  0  0  0  0  0  0  0
  191.4200  175.3000  143.7260 N   0  0  0  0  0  2  0  0  0  0  0  0
  191.3150  176.5260  143.3300 C   0  0  0  0  0  0  0  0  0  0  0  0
  191.1860  177.6050  144.3480 C   0  0  0  0  0  2  0  0  0  0  0  0
  190.2200  177.1690  145.4420 C   0  0  0  0  0  2  0  0  0  0  0  0
  188.7840  177.5830  145.1370 C   0  0  1  0  0  3  0  0  0  0  0  0
  188.0980  176.5440  144.5040 O   0  0  0  0  0  1  0  0  0  0  0  0
  187.9090  178.0890  146.6340 S   0  0  1  0  0  0  0  0  0  0  0  0
  186.6190  177.2820  146.5810 O   0  0  0  0  0  0  0  0  0  0  0  0
  188.8360  177.2900  147.9540 C   0  0  0  0  0  1  0  0  0  0  0  0
  186.4030  178.0380  134.3960 O   0  0  0  0  0  1  0  0  0  0  0  0
  186.5680  176.0920  135.8090 C   0  0  0  0  0  2  0  0  0  0  0  0
  185.1270  176.5790  135.9230 C   0  0  2  0  0  3  0  0  0  0  0  0
  186.2660  177.5650  135.7010 C   0  0  1  0  0  0  0  0  0  0  0  0
  184.6880  176.5090  137.3800 C   0  0  0  0  0  2  0  0  0  0  0  0
  183.2410  176.9500  137.5150 C   0  0  0  0  0  2  0  0  0  0  0  0
  183.1710  178.4060  137.9410 C   0  0  0  0  0  2  0  0  0  0  0  0
  184.0350  178.9410  141.6500 N   0  0  0  0  0  0  0  0  0  0  0  0
  185.2160  179.2910  142.4460 C   0  0  0  0  0  2  0  0  0  0  0  0
  185.2700  179.2020  139.6800 O   0  0  0  0  0  0  0  0  0  0  0  0
  183.0700  178.4960  139.3900 N   0  0  0  0  0  2  0  0  0  0  0  0
  181.6790  178.9100  141.6710 O   0  0  0  0  0  0  0  0  0  0  0  0
  185.1800  178.6310  143.8210 C   0  0  0  0  0  2  0  0  0  0  0  0
  183.8880  179.0140  144.5230 C   0  0  0  0  0  2  0  0  0  0  0  0
  182.6970  178.4400  143.7670 C   0  0  0  0  0  2  0  0  0  0  0  0
  184.1690  178.8990  140.2150 C   0  0  0  0  0  0  0  0  0  0  0  0
  182.7590  178.7920  142.3100 C   0  0  0  0  0  0  0  0  0  0  0  0
  190.1570  177.1770  137.0430 N   0  0  0  0  0  2  0  0  0  0  0  0
  189.8180  176.0950  136.2160 N   0  0  0  0  0  2  0  0  0  0  0  0
  193.3840  173.8120  136.6710 C   0  0  0  0  0  0  0  0  0  0  0  0
  189.8100  173.1780  135.9900 N   0  0  0  0  0  1  0  0  0  0  0  0
  190.8590  173.9310  136.6580 C   0  0  2  0  0  3  0  0  0  0  0  0
  192.2150  176.0150  136.6360 C   0  0  0  0  0  2  0  0  0  0  0  0
  191.0220  175.3030  136.0050 C   0  0  2  0  0  3  0  0  0  0  0  0
  194.4510  173.0860  136.7200 N   0  0  0  0  0  2  0  0  0  0  0  0
  193.5070  175.2650  136.3280 C   0  0  0  0  0  2  0  0  0  0  0  0
  192.1060  173.1730  136.6030 N   0  0  0  0  0  2  0  0  0  0  0  0
  1  2  2  0  0  0  0
  2  3  2  0  0  0  0
  4  8  1  0  0  0  0
  5  9  1  0  0  0  0
  6  3  1  6  0  0  0
  6  5  1  0  0  0  0
  6  4  1  0  0  0  0
  7 11  1  0  0  0  0
  9  8  1  0  0  0  0
  9  7  2  0  0  0  0
 11 10  2  0  0  0  0
 11 12  1  0  0  0  0
 12 13  1  0  0  0  0
 14 15  1  1  0  0  0
 14 13  1  0  0  0  0
 14 16  1  0  0  0  0
 16 18  1  1  0  0  0
 17 16  2  0  0  0  0
 20 21  1  0  0  0  0
 21 23  1  1  0  0  0
 22 19  1  6  0  0  0
 22 20  1  0  0  0  0
 22 21  1  0  0  0  0
 22  1  1  0  0  0  0
 23 24  1  0  0  0  0
 24 25  1  0  0  0  0
 25 29  1  0  0  0  0
 26 35  1  0  0  0  0
 26 27  1  0  0  0  0
 27 31  1  0  0  0  0
 28 34  2  0  0  0  0
 29 34  1  0  0  0  0
 30 35  2  0  0  0  0
 31 32  1  0  0  0  0
 33 32  1  0  0  0  0
 34 26  1  0  0  0  0
 35 33  1  0  0  0  0
 36  3  1  0  0  0  0
 37 36  1  0  0  0  0
 38 43  2  0  0  0  0
 40 39  1  6  0  0  0
 42 37  1  1  0  0  0
 42 41  1  0  0  0  0
 42 40  1  0  0  0  0
 44 41  1  0  0  0  0
 44 38  1  0  0  0  0
 45 40  1  0  0  0  0
 45 38  1  0  0  0  0
M  END
>  <MODEL>
7

>  <REMARK>
 VINA RESULT:      -7.4      3.083      7.975
  Name = 
  14 active torsions:
  status: ('A' for Active; 'I' for Inactive)
    1  A    between atoms: S_3  and  C_14
    2  A    between atoms: C_6  and  C_23
    3  A    between atoms: C_6  and  C_33
    4  A    between atoms: N_8  and  N_15
    5  A    between atoms: N_8  and  C_25
    6  A    between atoms: C_10  and  C_42
    7  A    between atoms: C_14  and  C_45
    8  A    between atoms: N_15  and  C_43
    9  A    between atoms: C_17  and  C_37
   10  A    between atoms: C_17  and  C_45
   11  A    between atoms: C_18  and  N_21
   12  A    between atoms: C_18  and  C_23
   13  A    between atoms: C_24  and  C_43
   14  A    between atoms: N_27  and  C_37
                            x       y       z     vdW  Elec       q    Type
                         _______ _______ _______ _____ _____    ______ ____

>  <TORSDO>
F 14

$$$$
=
 OpenBabel10232408303D

 45 48  0  0  1  0  0  0  0  0999 V2000
  186.1380  178.3800  139.3450 C   0  0  0  0  0  3  0  0  0  0  0  0
  187.3240  178.3170  139.8860 C   0  0  0  0  0  0  0  0  0  0  0  0
  188.5140  178.2550  140.4220 C   0  0  0  0  0  0  0  0  0  0  0  0
  190.8720  177.4030  140.2310 C   0  0  0  0  0  2  0  0  0  0  0  0
  189.4620  177.5170  138.2170 C   0  0  0  0  0  2  0  0  0  0  0  0
  189.7420  178.1780  139.5570 C   0  0  1  0  0  3  0  0  0  0  0  0
  190.8060  176.0170  136.8670 N   0  0  0  0  0  0  0  0  0  0  0  0
  191.5870  176.6340  139.1350 C   0  0  0  0  0  2  0  0  0  0  0  0
  190.6450  176.6620  137.9860 C   0  0  0  0  0  0  0  0  0  0  0  0
  191.9320  173.9140  136.8800 N   0  0  0  0  0  2  0  0  0  0  0  0
  191.8940  175.1510  136.5070 C   0  0  0  0  0  0  0  0  0  0  0  0
  192.9340  175.6530  135.5670 C   0  0  0  0  0  2  0  0  0  0  0  0
  194.1380  176.1570  136.3510 C   0  0  0  0  0  2  0  0  0  0  0  0
  195.4520  175.8600  135.6350 C   0  0  1  0  0  3  0  0  0  0  0  0
  196.1970  177.0290  135.4710 O   0  0  0  0  0  1  0  0  0  0  0  0
  196.4220  174.6210  136.5220 S   0  0  1  0  0  0  0  0  0  0  0  0
  197.6050  175.4140  137.0600 O   0  0  0  0  0  0  0  0  0  0  0  0
  195.4440  174.2950  137.9960 C   0  0  0  0  0  1  0  0  0  0  0  0
  185.1830  179.5370  141.3310 O   0  0  0  0  0  1  0  0  0  0  0  0
  184.0370  179.7580  139.2220 C   0  0  0  0  0  2  0  0  0  0  0  0
  183.5440  178.4530  139.8380 C   0  0  2  0  0  3  0  0  0  0  0  0
  184.9640  178.9440  140.0880 C   0  0  1  0  0  0  0  0  0  0  0  0
  183.4750  177.3820  138.7570 C   0  0  0  0  0  2  0  0  0  0  0  0
  182.8330  176.1210  139.3070 C   0  0  0  0  0  2  0  0  0  0  0  0
  182.7550  175.0550  138.2270 C   0  0  0  0  0  2  0  0  0  0  0  0
  186.0640  174.0050  136.5740 N   0  0  0  0  0  0  0  0  0  0  0  0
  186.9610  172.8440  136.5890 C   0  0  0  0  0  2  0  0  0  0  0  0
  184.5680  172.8840  137.9810 O   0  0  0  0  0  0  0  0  0  0  0  0
  183.9720  175.0670  137.4290 N   0  0  0  0  0  2  0  0  0  0  0  0
  185.4430  175.9000  135.3200 O   0  0  0  0  0  0  0  0  0  0  0  0
  188.4150  173.2580  136.3860 C   0  0  0  0  0  2  0  0  0  0  0  0
  188.5320  174.0480  135.0940 C   0  0  0  0  0  2  0  0  0  0  0  0
  187.7530  175.3520  135.2110 C   0  0  0  0  0  2  0  0  0  0  0  0
  184.8510  173.9390  137.3500 C   0  0  0  0  0  0  0  0  0  0  0  0
  186.3510  175.1050  135.6820 C   0  0  0  0  0  0  0  0  0  0  0  0
  188.6320  178.2030  141.8450 N   0  0  0  0  0  2  0  0  0  0  0  0
  187.6520  177.6010  142.6500 N   0  0  0  0  0  2  0  0  0  0  0  0
  189.8040  177.2230  146.3060 C   0  0  0  0  0  0  0  0  0  0  0  0
  186.2770  177.2870  145.2130 N   0  0  0  0  0  1  0  0  0  0  0  0
  187.6500  177.7440  145.0880 C   0  0  2  0  0  3  0  0  0  0  0  0
  189.7810  177.5070  143.8280 C   0  0  0  0  0  2  0  0  0  0  0  0
  188.3060  177.1170  143.8580 C   0  0  2  0  0  3  0  0  0  0  0  0
  190.4140  177.0240  147.4260 N   0  0  0  0  0  2  0  0  0  0  0  0
  190.5150  176.9110  145.0240 C   0  0  0  0  0  2  0  0  0  0  0  0
  188.3850  177.4050  146.3040 N   0  0  0  0  0  2  0  0  0  0  0  0
  1  2  2  0  0  0  0
  1 22  1  0  0  0  0
  2  3  2  0  0  0  0
  3 36  1  0  0  0  0
  5  6  1  0  0  0  0
  6  4  1  0  0  0  0
  6  3  1  1  0  0  0
  7  9  2  0  0  0  0
  8  4  1  0  0  0  0
  9  5  1  0  0  0  0
  9  8  1  0  0  0  0
 11  7  1  0  0  0  0
 11 10  2  0  0  0  0
 12 13  1  0  0  0  0
 12 11  1  0  0  0  0
 14 15  1  1  0  0  0
 14 13  1  0  0  0  0
 14 16  1  0  0  0  0
 16 17  2  0  0  0  0
 16 18  1  1  0  0  0
 20 21  1  0  0  0  0
 20 22  1  0  0  0  0
 21 23  1  6  0  0  0
 21 22  1  0  0  0  0
 22 19  1  1  0  0  0
 23 24  1  0  0  0  0
 25 24  1  0  0  0  0
 26 27  1  0  0  0  0
 26 34  1  0  0  0  0
 29 25  1  0  0  0  0
 30 35  2  0  0  0  0
 31 27  1  0  0  0  0
 32 33  1  0  0  0  0
 32 31  1  0  0  0  0
 33 35  1  0  0  0  0
 34 29  1  0  0  0  0
 34 28  2  0  0  0  0
 35 26  1  0  0  0  0
 36 37  1  0  0  0  0
 38 43  2  0  0  0  0
 40 39  1  1  0  0  0
 40 45  1  0  0  0  0
 41 42  1  0  0  0  0
 41 44  1  0  0  0  0
 42 37  1  6  0  0  0
 42 40  1  0  0  0  0
 44 38  1  0  0  0  0
 45 38  1  0  0  0  0
M  END
>  <MODEL>
8

>  <REMARK>
 VINA RESULT:      -7.4      2.991      4.895
  Name = 
  14 active torsions:
  status: ('A' for Active; 'I' for Inactive)
    1  A    between atoms: S_3  and  C_14
    2  A    between atoms: C_6  and  C_23
    3  A    between atoms: C_6  and  C_33
    4  A    between atoms: N_8  and  N_15
    5  A    between atoms: N_8  and  C_25
    6  A    between atoms: C_10  and  C_42
    7  A    between atoms: C_14  and  C_45
    8  A    between atoms: N_15  and  C_43
    9  A    between atoms: C_17  and  C_37
   10  A    between atoms: C_17  and  C_45
   11  A    between atoms: C_18  and  N_21
   12  A    between atoms: C_18  and  C_23
   13  A    between atoms: C_24  and  C_43
   14  A    between atoms: N_27  and  C_37
                            x       y       z     vdW  Elec       q    Type
                         _______ _______ _______ _____ _____    ______ ____

>  <TORSDO>
F 14

$$$$
=
 OpenBabel10232408303D

 45 48  0  0  1  0  0  0  0  0999 V2000
  188.1790  176.4980  138.2240 C   0  0  0  0  0  3  0  0  0  0  0  0
  188.0810  175.5430  137.3400 C   0  0  0  0  0  0  0  0  0  0  0  0
  187.9760  174.5870  136.4550 C   0  0  0  0  0  0  0  0  0  0  0  0
  186.2230  172.9610  137.2330 C   0  0  0  0  0  2  0  0  0  0  0  0
  185.5350  174.9940  136.0280 C   0  0  0  0  0  2  0  0  0  0  0  0
  186.6420  173.9600  136.1570 C   0  0  1  0  0  3  0  0  0  0  0  0
  183.2110  174.9350  136.7150 N   0  0  0  0  0  0  0  0  0  0  0  0
  184.7180  173.0870  137.3820 C   0  0  0  0  0  2  0  0  0  0  0  0
  184.3850  174.3730  136.7180 C   0  0  0  0  0  0  0  0  0  0  0  0
  181.4550  173.3440  136.9880 N   0  0  0  0  0  2  0  0  0  0  0  0
  182.0110  174.4550  137.3430 C   0  0  0  0  0  0  0  0  0  0  0  0
  181.4740  175.1870  138.5230 C   0  0  0  0  0  2  0  0  0  0  0  0
  182.5990  175.9440  139.2170 C   0  0  0  0  0  2  0  0  0  0  0  0
  182.2340  177.4030  139.4720 C   0  0  1  0  0  3  0  0  0  0  0  0
  182.6030  177.7820  140.7640 O   0  0  0  0  0  1  0  0  0  0  0  0
  183.0030  178.4970  138.2570 S   0  0  1  0  0  0  0  0  0  0  0  0
  183.1200  179.8230  138.9970 O   0  0  0  0  0  0  0  0  0  0  0  0
  184.7050  177.9180  138.1830 C   0  0  0  0  0  1  0  0  0  0  0  0
  190.0760  177.5940  137.0410 O   0  0  0  0  0  1  0  0  0  0  0  0
  188.9810  178.8080  138.8130 C   0  0  0  0  0  2  0  0  0  0  0  0
  190.0150  177.9140  139.4880 C   0  0  2  0  0  3  0  0  0  0  0  0
  189.3200  177.4700  138.2070 C   0  0  1  0  0  0  0  0  0  0  0  0
  189.4030  177.2900  140.7350 C   0  0  0  0  0  2  0  0  0  0  0  0
  190.4750  176.5940  141.5550 C   0  0  0  0  0  2  0  0  0  0  0  0
  189.8870  176.0730  142.8560 C   0  0  0  0  0  2  0  0  0  0  0  0
  187.0010  177.8800  144.6420 N   0  0  0  0  0  0  0  0  0  0  0  0
  186.6910  178.3490  145.9970 C   0  0  0  0  0  2  0  0  0  0  0  0
  189.1210  177.1900  145.3520 O   0  0  0  0  0  0  0  0  0  0  0  0
  188.6170  176.7290  143.1250 N   0  0  0  0  0  2  0  0  0  0  0  0
  186.4630  178.1770  142.3670 O   0  0  0  0  0  0  0  0  0  0  0  0
  185.1940  178.2840  146.2830 C   0  0  0  0  0  2  0  0  0  0  0  0
  184.4500  179.0790  145.2240 C   0  0  0  0  0  2  0  0  0  0  0  0
  184.6300  178.4220  143.8610 C   0  0  0  0  0  2  0  0  0  0  0  0
  188.2850  177.2690  144.4100 C   0  0  0  0  0  0  0  0  0  0  0  0
  186.0800  178.1710  143.5680 C   0  0  0  0  0  0  0  0  0  0  0  0
  189.1580  174.1040  135.8130 N   0  0  0  0  0  2  0  0  0  0  0  0
  190.1250  173.3550  136.5030 N   0  0  0  0  0  2  0  0  0  0  0  0
  194.0830  174.8220  137.0730 C   0  0  0  0  0  0  0  0  0  0  0  0
  192.3230  172.5560  134.7460 N   0  0  0  0  0  1  0  0  0  0  0  0
  192.5160  173.1040  136.0780 C   0  0  2  0  0  3  0  0  0  0  0  0
  191.6870  174.7360  137.7620 C   0  0  0  0  0  2  0  0  0  0  0  0
  191.3870  174.0770  136.4190 C   0  0  2  0  0  3  0  0  0  0  0  0
  195.2780  175.3020  137.1580 N   0  0  0  0  0  2  0  0  0  0  0  0
  192.9440  175.5940  137.6670 C   0  0  0  0  0  2  0  0  0  0  0  0
  193.8160  173.7660  136.1450 N   0  0  0  0  0  2  0  0  0  0  0  0
  2  1  2  0  0  0  0
  3  2  2  0  0  0  0
  4  8  1  0  0  0  0
  5  6  1  0  0  0  0
  5  9  1  0  0  0  0
  6  3  1  1  0  0  0
  6  4  1  0  0  0  0
  7  9  2  0  0  0  0
  7 11  1  0  0  0  0
  9  8  1  0  0  0  0
 10 11  2  0  0  0  0
 11 12  1  0  0  0  0
 12 13  1  0  0  0  0
 13 14  1  0  0  0  0
 14 15  1  1  0  0  0
 16 18  1  1  0  0  0
 16 17  2  0  0  0  0
 16 14  1  0  0  0  0
 20 21  1  0  0  0  0
 21 23  1  1  0  0  0
 22 19  1  6  0  0  0
 22  1  1  0  0  0  0
 22 20  1  0  0  0  0
 22 21  1  0  0  0  0
 23 24  1  0  0  0  0
 24 25  1  0  0  0  0
 25 29  1  0  0  0  0
 26 27  1  0  0  0  0
 27 31  1  0  0  0  0
 29 34  1  0  0  0  0
 30 35  2  0  0  0  0
 32 31  1  0  0  0  0
 33 32  1  0  0  0  0
 34 26  1  0  0  0  0
 34 28  2  0  0  0  0
 35 33  1  0  0  0  0
 35 26  1  0  0  0  0
 36  3  1  0  0  0  0
 36 37  1  0  0  0  0
 38 43  2  0  0  0  0
 38 44  1  0  0  0  0
 40 39  1  6  0  0  0
 40 45  1  0  0  0  0
 40 42  1  0  0  0  0
 42 37  1  1  0  0  0
 42 41  1  0  0  0  0
 44 41  1  0  0  0  0
 45 38  1  0  0  0  0
M  END
>  <MODEL>
9

>  <REMARK>
 VINA RESULT:      -7.4      3.284      8.440
  Name = 
  14 active torsions:
  status: ('A' for Active; 'I' for Inactive)
    1  A    between atoms: S_3  and  C_14
    2  A    between atoms: C_6  and  C_23
    3  A    between atoms: C_6  and  C_33
    4  A    between atoms: N_8  and  N_15
    5  A    between atoms: N_8  and  C_25
    6  A    between atoms: C_10  and  C_42
    7  A    between atoms: C_14  and  C_45
    8  A    between atoms: N_15  and  C_43
    9  A    between atoms: C_17  and  C_37
   10  A    between atoms: C_17  and  C_45
   11  A    between atoms: C_18  and  N_21
   12  A    between atoms: C_18  and  C_23
   13  A    between atoms: C_24  and  C_43
   14  A    between atoms: N_27  and  C_37
                            x       y       z     vdW  Elec       q    Type
                         _______ _______ _______ _____ _____    ______ ____

>  <TORSDO>
F 14

$$$$
