=
 OpenBabel10222422093D

 29 33  0  0  1  0  0  0  0  0999 V2000
  190.9430  177.1260  143.0940 C   0  0  1  0  0  0  0  0  0  0  0  0
  191.4240  176.3090  144.1260 C   0  0  0  0  0  0  0  0  0  0  0  0
  190.5910  176.6060  140.8680 C   0  0  0  0  0  0  0  0  0  0  0  0
  190.8140  177.1100  146.6630 C   0  0  0  0  0  0  0  0  0  0  0  0
  190.6430  177.5150  144.4070 C   0  0  0  0  0  0  0  0  0  0  0  0
  192.0600  177.7880  142.3030 C   0  0  0  0  0  2  0  0  0  0  0  0
  191.9370  175.4470  145.0450 C   0  0  0  0  0  3  0  0  0  0  0  0
  190.1480  176.1210  139.7900 O   0  0  0  0  0  0  0  0  0  0  0  0
  191.7880  177.3710  140.9380 N   0  0  0  0  0  0  0  0  0  0  0  0
  190.2940  177.9850  145.6340 C   0  0  0  0  0  3  0  0  0  0  0  0
  191.5960  175.9070  146.3640 C   0  0  0  0  0  3  0  0  0  0  0  0
  189.9280  176.4260  142.1890 C   0  0  2  0  0  3  0  0  0  0  0  0
  188.5820  177.0990  142.2210 C   0  0  0  0  0  0  0  0  0  0  0  0
  186.9920  178.7270  141.3730 C   0  0  0  0  0  3  0  0  0  0  0  0
  186.4250  177.3710  143.2960 C   0  0  0  0  0  3  0  0  0  0  0  0
  187.6740  176.7470  143.2240 C   0  0  0  0  0  3  0  0  0  0  0  0
  186.0710  178.3520  142.3600 C   0  0  0  0  0  0  0  0  0  0  0  0
  188.2380  178.1020  141.3010 C   0  0  0  0  0  3  0  0  0  0  0  0
  184.7100  179.8610  143.7030 N   0  0  0  0  0  2  0  0  0  0  0  0
  184.0030  178.5750  143.6240 C   0  0  0  0  0  2  0  0  0  0  0  0
  184.7550  179.0590  142.4660 C   0  0  2  0  0  3  0  0  0  0  0  0
  192.5720  177.7890  139.7890 C   0  0  0  0  0  2  0  0  0  0  0  0
  193.4240  176.7540  139.4020 O   0  0  0  0  0  0  0  0  0  0  0  0
  193.1090  176.5240  138.0600 C   0  0  0  0  0  2  0  0  0  0  0  0
  194.7440  174.6440  138.2080 C   0  0  0  0  0  1  0  0  0  0  0  0
  193.3760  175.0700  137.7080 C   0  0  0  0  0  2  0  0  0  0  0  0
  190.5770  177.4000  148.0110 O   0  0  0  0  0  0  0  0  0  0  0  0
  188.2000  177.3020  148.2650 C   0  0  0  0  0  1  0  0  0  0  0  0
  189.4470  178.1400  148.4570 C   0  0  0  0  0  2  0  0  0  0  0  0
  1  6  1  6  0  0  0
  1  2  1  0  0  0  0
  1  5  1  0  0  0  0
  2  5  2  0  0  0  0
  2  7  1  0  0  0  0
  3  9  1  0  0  0  0
  3 12  1  0  0  0  0
  4 27  1  0  0  0  0
  5 10  1  0  0  0  0
  7 11  2  0  0  0  0
  8  3  2  0  0  0  0
  9  6  1  0  0  0  0
 10  4  2  0  0  0  0
 11  4  1  0  0  0  0
 12 13  1  6  0  0  0
 12  1  1  0  0  0  0
 13 16  1  0  0  0  0
 14 17  2  0  0  0  0
 16 15  2  0  0  0  0
 17 15  1  0  0  0  0
 18 14  1  0  0  0  0
 18 13  2  0  0  0  0
 20 19  1  0  0  0  0
 21 17  1  1  0  0  0
 21 20  1  0  0  0  0
 21 19  1  0  0  0  0
 22  9  1  0  0  0  0
 23 22  1  0  0  0  0
 24 23  1  0  0  0  0
 26 24  1  0  0  0  0
 26 25  1  0  0  0  0
 27 29  1  0  0  0  0
 28 29  1  0  0  0  0
M  END
>  <MODEL>
1

>  <REMARK>
 VINA RESULT:      -7.6      0.000      0.000
  Name = 
  8 active torsions:
  status: ('A' for Active; 'I' for Inactive)
    1  A    between atoms: C_3  and  C_28
    2  A    between atoms: O_7  and  C_15
    3  A    between atoms: O_7  and  C_26
    4  A    between atoms: C_9  and  O_24
    5  A    between atoms: C_15  and  N_19
    6  A    between atoms: C_18  and  O_24
    7  A    between atoms: C_21  and  C_23
    8  A    between atoms: C_26  and  C_29
                            x       y       z     vdW  Elec       q    Type
                         _______ _______ _______ _____ _____    ______ ____

>  <TORSDO>
F 8

$$$$
=
 OpenBabel10222422093D

 29 33  0  0  1  0  0  0  0  0999 V2000
  185.1230  178.3280  142.4860 C   0  0  1  0  0  0  0  0  0  0  0  0
  185.1260  178.8930  143.7680 C   0  0  0  0  0  0  0  0  0  0  0  0
  184.5230  179.2910  140.4710 C   0  0  0  0  0  0  0  0  0  0  0  0
  186.7280  177.6680  145.6080 C   0  0  0  0  0  0  0  0  0  0  0  0
  185.9390  177.7180  143.4500 C   0  0  0  0  0  0  0  0  0  0  0  0
  183.7700  177.7490  142.1050 C   0  0  0  0  0  2  0  0  0  0  0  0
  185.0520  179.5210  144.9730 C   0  0  0  0  0  3  0  0  0  0  0  0
  184.4820  180.0060  139.4310 O   0  0  0  0  0  0  0  0  0  0  0  0
  183.4540  178.4390  140.8660 N   0  0  0  0  0  0  0  0  0  0  0  0
  186.7610  177.0490  144.3000 C   0  0  0  0  0  3  0  0  0  0  0  0
  185.9060  178.8440  145.9110 C   0  0  0  0  0  3  0  0  0  0  0  0
  185.6780  179.2630  141.4100 C   0  0  2  0  0  3  0  0  0  0  0  0
  186.9070  178.6990  140.7480 C   0  0  0  0  0  0  0  0  0  0  0  0
  189.2750  178.1640  140.7520 C   0  0  0  0  0  3  0  0  0  0  0  0
  187.9420  177.7350  138.7780 C   0  0  0  0  0  3  0  0  0  0  0  0
  186.8140  178.2420  139.4300 C   0  0  0  0  0  3  0  0  0  0  0  0
  189.1750  177.6780  139.4420 C   0  0  0  0  0  0  0  0  0  0  0  0
  188.1480  178.6680  141.4020 C   0  0  0  0  0  3  0  0  0  0  0  0
  190.7360  175.8250  139.1900 N   0  0  0  0  0  2  0  0  0  0  0  0
  191.4970  176.9850  139.6720 C   0  0  0  0  0  2  0  0  0  0  0  0
  190.3960  177.1840  138.7300 C   0  0  2  0  0  3  0  0  0  0  0  0
  182.2580  178.1930  140.0800 C   0  0  0  0  0  2  0  0  0  0  0  0
  181.3340  179.2150  140.2990 O   0  0  0  0  0  0  0  0  0  0  0  0
  180.4290  178.6790  141.2180 C   0  0  0  0  0  2  0  0  0  0  0  0
  180.6400  178.7090  143.7050 C   0  0  0  0  0  1  0  0  0  0  0  0
  180.3820  179.5460  142.4650 C   0  0  0  0  0  2  0  0  0  0  0  0
  187.5000  177.1430  146.6490 O   0  0  0  0  0  0  0  0  0  0  0  0
  189.1190  178.0140  148.1820 C   0  0  0  0  0  1  0  0  0  0  0  0
  188.8850  177.4290  146.8040 C   0  0  0  0  0  2  0  0  0  0  0  0
  1  6  1  6  0  0  0
  1  5  1  0  0  0  0
  1  2  1  0  0  0  0
  2  7  1  0  0  0  0
  3  9  1  0  0  0  0
  3 12  1  0  0  0  0
  4 11  1  0  0  0  0
  4 27  1  0  0  0  0
  5  2  2  0  0  0  0
  5 10  1  0  0  0  0
  7 11  2  0  0  0  0
  8  3  2  0  0  0  0
  9  6  1  0  0  0  0
 10  4  2  0  0  0  0
 12 13  1  6  0  0  0
 12  1  1  0  0  0  0
 13 18  1  0  0  0  0
 14 18  2  0  0  0  0
 15 16  1  0  0  0  0
 15 17  2  0  0  0  0
 16 13  2  0  0  0  0
 17 14  1  0  0  0  0
 19 20  1  0  0  0  0
 21 19  1  0  0  0  0
 21 17  1  1  0  0  0
 21 20  1  0  0  0  0
 22 23  1  0  0  0  0
 22  9  1  0  0  0  0
 23 24  1  0  0  0  0
 24 26  1  0  0  0  0
 26 25  1  0  0  0  0
 27 29  1  0  0  0  0
 29 28  1  0  0  0  0
M  END
>  <MODEL>
2

>  <REMARK>
 VINA RESULT:      -7.5      3.188      7.609
  Name = 
  8 active torsions:
  status: ('A' for Active; 'I' for Inactive)
    1  A    between atoms: C_3  and  C_28
    2  A    between atoms: O_7  and  C_15
    3  A    between atoms: O_7  and  C_26
    4  A    between atoms: C_9  and  O_24
    5  A    between atoms: C_15  and  N_19
    6  A    between atoms: C_18  and  O_24
    7  A    between atoms: C_21  and  C_23
    8  A    between atoms: C_26  and  C_29
                            x       y       z     vdW  Elec       q    Type
                         _______ _______ _______ _____ _____    ______ ____

>  <TORSDO>
F 8

$$$$
=
 OpenBabel10222422093D

 29 33  0  0  1  0  0  0  0  0999 V2000
  185.0600  178.3320  142.3410 C   0  0  1  0  0  0  0  0  0  0  0  0
  185.0130  178.9210  143.6120 C   0  0  0  0  0  0  0  0  0  0  0  0
  184.4990  179.2430  140.2910 C   0  0  0  0  0  0  0  0  0  0  0  0
  186.5860  177.7660  145.5210 C   0  0  0  0  0  0  0  0  0  0  0  0
  185.8600  177.7590  143.3400 C   0  0  0  0  0  0  0  0  0  0  0  0
  183.7320  177.7160  141.9320 C   0  0  0  0  0  2  0  0  0  0  0  0
  184.8910  179.5700  144.8010 C   0  0  0  0  0  3  0  0  0  0  0  0
  184.4740  179.9370  139.2370 O   0  0  0  0  0  0  0  0  0  0  0  0
  183.4380  178.3760  140.6710 N   0  0  0  0  0  0  0  0  0  0  0  0
  186.6720  177.1240  144.2270 C   0  0  0  0  0  3  0  0  0  0  0  0
  185.7310  178.9290  145.7760 C   0  0  0  0  0  3  0  0  0  0  0  0
  185.6260  179.2580  141.2630 C   0  0  2  0  0  3  0  0  0  0  0  0
  186.8860  178.7090  140.6480 C   0  0  0  0  0  0  0  0  0  0  0  0
  189.2670  178.2410  140.7260 C   0  0  0  0  0  3  0  0  0  0  0  0
  187.9960  177.7160  138.7350 C   0  0  0  0  0  3  0  0  0  0  0  0
  186.8380  178.2100  139.3440 C   0  0  0  0  0  3  0  0  0  0  0  0
  189.2130  177.7120  139.4300 C   0  0  0  0  0  0  0  0  0  0  0  0
  188.1110  178.7330  141.3330 C   0  0  0  0  0  3  0  0  0  0  0  0
  190.7490  175.8410  139.1620 N   0  0  0  0  0  2  0  0  0  0  0  0
  191.5030  176.9540  139.7540 C   0  0  0  0  0  2  0  0  0  0  0  0
  190.4640  177.2320  138.7620 C   0  0  2  0  0  3  0  0  0  0  0  0
  182.2710  178.0880  139.8560 C   0  0  0  0  0  2  0  0  0  0  0  0
  182.2630  176.7370  139.5100 O   0  0  0  0  0  0  0  0  0  0  0  0
  182.4450  176.7280  138.1250 C   0  0  0  0  0  2  0  0  0  0  0  0
  184.4780  177.1660  136.7460 C   0  0  0  0  0  1  0  0  0  0  0  0
  183.8510  176.2600  137.7900 C   0  0  0  0  0  2  0  0  0  0  0  0
  187.3390  177.2790  146.5940 O   0  0  0  0  0  0  0  0  0  0  0  0
  189.0180  177.9340  148.1670 C   0  0  0  0  0  1  0  0  0  0  0  0
  187.5550  178.0210  147.7880 C   0  0  0  0  0  2  0  0  0  0  0  0
  1  6  1  6  0  0  0
  1  5  1  0  0  0  0
  1  2  1  0  0  0  0
  2  7  1  0  0  0  0
  3  9  1  0  0  0  0
  3 12  1  0  0  0  0
  4 11  1  0  0  0  0
  4 27  1  0  0  0  0
  5  2  2  0  0  0  0
  5 10  1  0  0  0  0
  7 11  2  0  0  0  0
  8  3  2  0  0  0  0
  9  6  1  0  0  0  0
 10  4  2  0  0  0  0
 12 13  1  6  0  0  0
 12  1  1  0  0  0  0
 13 18  1  0  0  0  0
 14 18  2  0  0  0  0
 15 16  1  0  0  0  0
 15 17  2  0  0  0  0
 16 13  2  0  0  0  0
 17 14  1  0  0  0  0
 19 20  1  0  0  0  0
 21 19  1  0  0  0  0
 21 17  1  1  0  0  0
 21 20  1  0  0  0  0
 22  9  1  0  0  0  0
 23 22  1  0  0  0  0
 24 23  1  0  0  0  0
 25 26  1  0  0  0  0
 26 24  1  0  0  0  0
 27 29  1  0  0  0  0
 29 28  1  0  0  0  0
M  END
>  <MODEL>
3

>  <REMARK>
 VINA RESULT:      -7.3      3.373      6.831
  Name = 
  8 active torsions:
  status: ('A' for Active; 'I' for Inactive)
    1  A    between atoms: C_3  and  C_28
    2  A    between atoms: O_7  and  C_15
    3  A    between atoms: O_7  and  C_26
    4  A    between atoms: C_9  and  O_24
    5  A    between atoms: C_15  and  N_19
    6  A    between atoms: C_18  and  O_24
    7  A    between atoms: C_21  and  C_23
    8  A    between atoms: C_26  and  C_29
                            x       y       z     vdW  Elec       q    Type
                         _______ _______ _______ _____ _____    ______ ____

>  <TORSDO>
F 8

$$$$
=
 OpenBabel10222422093D

 29 33  0  0  1  0  0  0  0  0999 V2000
  188.8510  177.4570  141.7700 C   0  0  1  0  0  0  0  0  0  0  0  0
  187.8300  178.3930  141.5550 C   0  0  0  0  0  0  0  0  0  0  0  0
  191.1010  177.6120  141.2570 C   0  0  0  0  0  0  0  0  0  0  0  0
  185.6040  178.1070  143.1100 C   0  0  0  0  0  0  0  0  0  0  0  0
  187.6970  177.3340  142.5560 C   0  0  0  0  0  0  0  0  0  0  0  0
  189.0910  176.5660  140.5620 C   0  0  0  0  0  2  0  0  0  0  0  0
  186.9080  179.3500  141.2650 C   0  0  0  0  0  3  0  0  0  0  0  0
  192.3190  177.9410  141.2260 O   0  0  0  0  0  0  0  0  0  0  0  0
  190.5040  176.7620  140.2850 N   0  0  0  0  0  0  0  0  0  0  0  0
  186.6290  177.1190  143.3710 C   0  0  0  0  0  3  0  0  0  0  0  0
  185.7530  179.1610  142.1020 C   0  0  0  0  0  3  0  0  0  0  0  0
  190.1440  178.0800  142.2970 C   0  0  2  0  0  3  0  0  0  0  0  0
  190.5150  177.5520  143.6570 C   0  0  0  0  0  0  0  0  0  0  0  0
  191.6710  175.9650  145.0850 C   0  0  0  0  0  3  0  0  0  0  0  0
  190.2580  177.6670  146.0660 C   0  0  0  0  0  3  0  0  0  0  0  0
  189.9540  178.1500  144.7890 C   0  0  0  0  0  3  0  0  0  0  0  0
  191.1320  176.5820  146.2210 C   0  0  0  0  0  0  0  0  0  0  0  0
  191.3670  176.4480  143.8120 C   0  0  0  0  0  3  0  0  0  0  0  0
  192.3630  176.9110  148.2970 N   0  0  0  0  0  2  0  0  0  0  0  0
  192.8270  175.6510  147.6990 C   0  0  0  0  0  2  0  0  0  0  0  0
  191.4180  176.0310  147.5830 C   0  0  2  0  0  3  0  0  0  0  0  0
  191.2270  176.0790  139.2260 C   0  0  0  0  0  2  0  0  0  0  0  0
  190.3250  175.6010  138.2760 O   0  0  0  0  0  0  0  0  0  0  0  0
  190.5780  176.3670  137.1350 C   0  0  0  0  0  2  0  0  0  0  0  0
  189.2160  178.4520  137.2960 C   0  0  0  0  0  1  0  0  0  0  0  0
  189.3050  177.0640  136.6870 C   0  0  0  0  0  2  0  0  0  0  0  0
  184.4090  178.0810  143.8340 O   0  0  0  0  0  0  0  0  0  0  0  0
  185.2500  179.0160  145.8700 C   0  0  0  0  0  1  0  0  0  0  0  0
  184.1110  179.0080  144.8710 C   0  0  0  0  0  2  0  0  0  0  0  0
  1  6  1  6  0  0  0
  1 12  1  0  0  0  0
  1  5  1  0  0  0  0
  2  1  1  0  0  0  0
  2  5  1  0  0  0  0
  3 12  1  0  0  0  0
  4 10  1  0  0  0  0
  4 27  1  0  0  0  0
  5 10  2  0  0  0  0
  7  2  2  0  0  0  0
  7 11  1  0  0  0  0
  8  3  2  0  0  0  0
  9  6  1  0  0  0  0
  9  3  1  0  0  0  0
 11  4  2  0  0  0  0
 12 13  1  1  0  0  0
 13 18  2  0  0  0  0
 13 16  1  0  0  0  0
 14 17  2  0  0  0  0
 15 17  1  0  0  0  0
 16 15  2  0  0  0  0
 18 14  1  0  0  0  0
 20 19  1  0  0  0  0
 21 17  1  6  0  0  0
 21 20  1  0  0  0  0
 21 19  1  0  0  0  0
 22  9  1  0  0  0  0
 23 22  1  0  0  0  0
 24 23  1  0  0  0  0
 26 24  1  0  0  0  0
 26 25  1  0  0  0  0
 27 29  1  0  0  0  0
 29 28  1  0  0  0  0
M  END
>  <MODEL>
4

>  <REMARK>
 VINA RESULT:      -7.1      2.554      5.485
  Name = 
  8 active torsions:
  status: ('A' for Active; 'I' for Inactive)
    1  A    between atoms: C_3  and  C_28
    2  A    between atoms: O_7  and  C_15
    3  A    between atoms: O_7  and  C_26
    4  A    between atoms: C_9  and  O_24
    5  A    between atoms: C_15  and  N_19
    6  A    between atoms: C_18  and  O_24
    7  A    between atoms: C_21  and  C_23
    8  A    between atoms: C_26  and  C_29
                            x       y       z     vdW  Elec       q    Type
                         _______ _______ _______ _____ _____    ______ ____

>  <TORSDO>
F 8

$$$$
=
 OpenBabel10222422093D

 29 33  0  0  1  0  0  0  0  0999 V2000
  189.2870  177.5240  141.0560 C   0  0  1  0  0  0  0  0  0  0  0  0
  189.5230  176.8710  139.8380 C   0  0  0  0  0  0  0  0  0  0  0  0
  187.5140  177.2810  142.5210 C   0  0  0  0  0  0  0  0  0  0  0  0
  192.1130  176.8500  138.9780 C   0  0  0  0  0  0  0  0  0  0  0  0
  190.6100  177.4980  140.5920 C   0  0  0  0  0  0  0  0  0  0  0  0
  188.4130  178.7580  140.8990 C   0  0  0  0  0  2  0  0  0  0  0  0
  189.6360  176.2140  138.6530 C   0  0  0  0  0  3  0  0  0  0  0  0
  186.6890  176.8340  143.3650 O   0  0  0  0  0  0  0  0  0  0  0  0
  187.3120  178.4970  141.8110 N   0  0  0  0  0  0  0  0  0  0  0  0
  191.9230  177.5330  140.2390 C   0  0  0  0  0  3  0  0  0  0  0  0
  191.0120  176.2290  138.2350 C   0  0  0  0  0  3  0  0  0  0  0  0
  188.7820  176.5910  142.1570 C   0  0  2  0  0  3  0  0  0  0  0  0
  189.7270  176.5310  143.3280 C   0  0  0  0  0  0  0  0  0  0  0  0
  191.6790  175.6200  144.4470 C   0  0  0  0  0  3  0  0  0  0  0  0
  190.3040  177.2680  145.5650 C   0  0  0  0  0  3  0  0  0  0  0  0
  189.4600  177.3190  144.4510 C   0  0  0  0  0  3  0  0  0  0  0  0
  191.4280  176.4310  145.5620 C   0  0  0  0  0  0  0  0  0  0  0  0
  190.8360  175.6720  143.3360 C   0  0  0  0  0  3  0  0  0  0  0  0
  191.7450  175.3600  147.7260 N   0  0  0  0  0  2  0  0  0  0  0  0
  191.5900  176.8020  147.9620 C   0  0  0  0  0  2  0  0  0  0  0  0
  192.3040  176.3360  146.7720 C   0  0  2  0  0  3  0  0  0  0  0  0
  186.2170  179.4220  142.0480 C   0  0  0  0  0  2  0  0  0  0  0  0
  185.1020  179.0280  141.3090 O   0  0  0  0  0  0  0  0  0  0  0  0
  184.1170  178.7760  142.2670 C   0  0  0  0  0  2  0  0  0  0  0  0
  183.6670  178.9380  144.7170 C   0  0  0  0  0  1  0  0  0  0  0  0
  184.4370  179.5270  143.5490 C   0  0  0  0  0  2  0  0  0  0  0  0
  193.3910  176.7620  138.4170 O   0  0  0  0  0  0  0  0  0  0  0  0
  194.4790  174.7480  137.7200 C   0  0  0  0  0  1  0  0  0  0  0  0
  193.6840  175.9590  137.2800 C   0  0  0  0  0  2  0  0  0  0  0  0
  1  6  1  6  0  0  0
  1 12  1  0  0  0  0
  2  5  1  0  0  0  0
  2  1  1  0  0  0  0
  3  8  2  0  0  0  0
  4 10  1  0  0  0  0
  5  1  1  0  0  0  0
  6  9  1  0  0  0  0
  7  2  2  0  0  0  0
  9 22  1  0  0  0  0
  9  3  1  0  0  0  0
 10  5  2  0  0  0  0
 11  7  1  0  0  0  0
 11  4  2  0  0  0  0
 12  3  1  0  0  0  0
 12 13  1  1  0  0  0
 13 18  2  0  0  0  0
 13 16  1  0  0  0  0
 14 17  2  0  0  0  0
 16 15  2  0  0  0  0
 17 15  1  0  0  0  0
 18 14  1  0  0  0  0
 19 20  1  0  0  0  0
 21 17  1  6  0  0  0
 21 19  1  0  0  0  0
 21 20  1  0  0  0  0
 23 22  1  0  0  0  0
 23 24  1  0  0  0  0
 24 26  1  0  0  0  0
 26 25  1  0  0  0  0
 27  4  1  0  0  0  0
 29 28  1  0  0  0  0
 29 27  1  0  0  0  0
M  END
>  <MODEL>
5

>  <REMARK>
 VINA RESULT:      -6.9      2.342      7.559
  Name = 
  8 active torsions:
  status: ('A' for Active; 'I' for Inactive)
    1  A    between atoms: C_3  and  C_28
    2  A    between atoms: O_7  and  C_15
    3  A    between atoms: O_7  and  C_26
    4  A    between atoms: C_9  and  O_24
    5  A    between atoms: C_15  and  N_19
    6  A    between atoms: C_18  and  O_24
    7  A    between atoms: C_21  and  C_23
    8  A    between atoms: C_26  and  C_29
                            x       y       z     vdW  Elec       q    Type
                         _______ _______ _______ _____ _____    ______ ____

>  <TORSDO>
F 8

$$$$
=
 OpenBabel10222422093D

 29 33  0  0  1  0  0  0  0  0999 V2000
  189.4970  177.6160  141.5360 C   0  0  1  0  0  0  0  0  0  0  0  0
  189.9160  178.2180  142.7300 C   0  0  0  0  0  0  0  0  0  0  0  0
  188.9440  178.6060  139.5210 C   0  0  0  0  0  0  0  0  0  0  0  0
  191.2690  176.6040  144.4680 C   0  0  0  0  0  0  0  0  0  0  0  0
  190.1960  176.8090  142.4460 C   0  0  0  0  0  0  0  0  0  0  0  0
  187.9840  177.5510  141.4130 C   0  0  0  0  0  2  0  0  0  0  0  0
  190.2740  178.9010  143.8500 C   0  0  0  0  0  3  0  0  0  0  0  0
  188.9830  179.2210  138.4190 O   0  0  0  0  0  0  0  0  0  0  0  0
  187.7270  178.2320  140.1550 N   0  0  0  0  0  0  0  0  0  0  0  0
  190.8600  175.9380  143.2510 C   0  0  0  0  0  3  0  0  0  0  0  0
  190.9790  178.0160  144.7380 C   0  0  0  0  0  3  0  0  0  0  0  0
  190.1560  178.2140  140.2920 C   0  0  2  0  0  3  0  0  0  0  0  0
  190.9760  177.1990  139.5410 C   0  0  0  0  0  0  0  0  0  0  0  0
  193.1050  176.3440  138.7480 C   0  0  0  0  0  3  0  0  0  0  0  0
  191.0490  175.2300  138.1270 C   0  0  0  0  0  3  0  0  0  0  0  0
  190.3180  176.1740  138.8540 C   0  0  0  0  0  3  0  0  0  0  0  0
  192.4480  175.3000  138.0840 C   0  0  0  0  0  0  0  0  0  0  0  0
  192.3750  177.2850  139.4750 C   0  0  0  0  0  3  0  0  0  0  0  0
  194.3100  173.7300  138.0760 N   0  0  0  0  0  2  0  0  0  0  0  0
  194.6090  174.7790  137.0920 C   0  0  0  0  0  2  0  0  0  0  0  0
  193.2300  174.3210  137.2650 C   0  0  2  0  0  3  0  0  0  0  0  0
  186.4060  178.3950  139.5740 C   0  0  0  0  0  2  0  0  0  0  0  0
  185.6720  179.3100  140.3270 O   0  0  0  0  0  0  0  0  0  0  0  0
  184.3860  178.7670  140.3840 C   0  0  0  0  0  2  0  0  0  0  0  0
  184.9010  179.1220  142.8000 C   0  0  0  0  0  1  0  0  0  0  0  0
  184.0690  178.3330  141.8050 C   0  0  0  0  0  2  0  0  0  0  0  0
  191.9710  175.8980  145.4500 O   0  0  0  0  0  0  0  0  0  0  0  0
  192.7210  175.4400  147.6760 C   0  0  0  0  0  1  0  0  0  0  0  0
  191.5430  175.8220  146.8040 C   0  0  0  0  0  2  0  0  0  0  0  0
  1  6  1  6  0  0  0
  1  5  1  0  0  0  0
  1  2  1  0  0  0  0
  2  7  1  0  0  0  0
  3  9  1  0  0  0  0
  3 12  1  0  0  0  0
  4 11  1  0  0  0  0
  4 27  1  0  0  0  0
  5  2  2  0  0  0  0
  5 10  1  0  0  0  0
  7 11  2  0  0  0  0
  8  3  2  0  0  0  0
  9  6  1  0  0  0  0
 10  4  2  0  0  0  0
 12 13  1  6  0  0  0
 12  1  1  0  0  0  0
 14 18  2  0  0  0  0
 15 16  1  0  0  0  0
 16 13  2  0  0  0  0
 17 15  2  0  0  0  0
 17 14  1  0  0  0  0
 18 13  1  0  0  0  0
 20 21  1  0  0  0  0
 20 19  1  0  0  0  0
 21 19  1  0  0  0  0
 21 17  1  1  0  0  0
 22  9  1  0  0  0  0
 22 23  1  0  0  0  0
 23 24  1  0  0  0  0
 24 26  1  0  0  0  0
 26 25  1  0  0  0  0
 27 29  1  0  0  0  0
 29 28  1  0  0  0  0
M  END
>  <MODEL>
6

>  <REMARK>
 VINA RESULT:      -6.8      2.318      6.684
  Name = 
  8 active torsions:
  status: ('A' for Active; 'I' for Inactive)
    1  A    between atoms: C_3  and  C_28
    2  A    between atoms: O_7  and  C_15
    3  A    between atoms: O_7  and  C_26
    4  A    between atoms: C_9  and  O_24
    5  A    between atoms: C_15  and  N_19
    6  A    between atoms: C_18  and  O_24
    7  A    between atoms: C_21  and  C_23
    8  A    between atoms: C_26  and  C_29
                            x       y       z     vdW  Elec       q    Type
                         _______ _______ _______ _____ _____    ______ ____

>  <TORSDO>
F 8

$$$$
=
 OpenBabel10222422093D

 29 33  0  0  1  0  0  0  0  0999 V2000
  188.3200  177.5520  142.8990 C   0  0  1  0  0  0  0  0  0  0  0  0
  189.1200  178.0120  143.9540 C   0  0  0  0  0  0  0  0  0  0  0  0
  186.8880  178.7450  141.5290 C   0  0  0  0  0  0  0  0  0  0  0  0
  191.2320  176.4200  144.6290 C   0  0  0  0  0  0  0  0  0  0  0  0
  189.4120  176.7540  143.2650 C   0  0  0  0  0  0  0  0  0  0  0  0
  186.9050  177.2170  143.3410 C   0  0  0  0  0  2  0  0  0  0  0  0
  189.8250  178.5510  144.9840 C   0  0  0  0  0  3  0  0  0  0  0  0
  186.4050  179.5330  140.6700 O   0  0  0  0  0  0  0  0  0  0  0  0
  186.0840  178.0390  142.4680 N   0  0  0  0  0  0  0  0  0  0  0  0
  190.4390  175.9040  143.5350 C   0  0  0  0  0  3  0  0  0  0  0  0
  190.9240  177.6820  145.3090 C   0  0  0  0  0  3  0  0  0  0  0  0
  188.3430  178.4690  141.6750 C   0  0  2  0  0  3  0  0  0  0  0  0
  188.8920  177.7750  140.4570 C   0  0  0  0  0  0  0  0  0  0  0  0
  188.5960  176.7140  138.2930 C   0  0  0  0  0  3  0  0  0  0  0  0
  190.7940  176.8100  139.3020 C   0  0  0  0  0  3  0  0  0  0  0  0
  190.2570  177.4760  140.4080 C   0  0  0  0  0  3  0  0  0  0  0  0
  189.9680  176.4410  138.2310 C   0  0  0  0  0  0  0  0  0  0  0  0
  188.0610  177.3800  139.3970 C   0  0  0  0  0  3  0  0  0  0  0  0
  190.6330  174.2490  137.4030 N   0  0  0  0  0  2  0  0  0  0  0  0
  191.8300  175.1020  137.4140 C   0  0  0  0  0  2  0  0  0  0  0  0
  190.5310  175.6830  137.0690 C   0  0  2  0  0  3  0  0  0  0  0  0
  184.6320  178.0390  142.4790 C   0  0  0  0  0  2  0  0  0  0  0  0
  184.1670  179.2070  143.0840 O   0  0  0  0  0  0  0  0  0  0  0  0
  183.8290  178.8190  144.3830 C   0  0  0  0  0  2  0  0  0  0  0  0
  185.2300  178.4140  146.4080 C   0  0  0  0  0  1  0  0  0  0  0  0
  184.7970  179.4390  145.3760 C   0  0  0  0  0  2  0  0  0  0  0  0
  192.3470  175.7070  145.0820 O   0  0  0  0  0  0  0  0  0  0  0  0
  192.3570  175.7880  147.4730 C   0  0  0  0  0  1  0  0  0  0  0  0
  192.3240  174.8960  146.2500 C   0  0  0  0  0  2  0  0  0  0  0  0
  1  5  1  0  0  0  0
  1  6  1  1  0  0  0
  1  2  1  0  0  0  0
  2  7  1  0  0  0  0
  3 12  1  0  0  0  0
  3  9  1  0  0  0  0
  4 27  1  0  0  0  0
  4 11  1  0  0  0  0
  5 10  1  0  0  0  0
  5  2  2  0  0  0  0
  7 11  2  0  0  0  0
  8  3  2  0  0  0  0
  9 22  1  0  0  0  0
  9  6  1  0  0  0  0
 10  4  2  0  0  0  0
 12 13  1  6  0  0  0
 12  1  1  0  0  0  0
 14 18  1  0  0  0  0
 15 16  2  0  0  0  0
 16 13  1  0  0  0  0
 17 14  2  0  0  0  0
 17 15  1  0  0  0  0
 18 13  2  0  0  0  0
 19 20  1  0  0  0  0
 21 19  1  0  0  0  0
 21 20  1  0  0  0  0
 21 17  1  1  0  0  0
 22 23  1  0  0  0  0
 23 24  1  0  0  0  0
 24 26  1  0  0  0  0
 26 25  1  0  0  0  0
 27 29  1  0  0  0  0
 29 28  1  0  0  0  0
M  END
>  <MODEL>
7

>  <REMARK>
 VINA RESULT:      -6.6      2.580      6.586
  Name = 
  8 active torsions:
  status: ('A' for Active; 'I' for Inactive)
    1  A    between atoms: C_3  and  C_28
    2  A    between atoms: O_7  and  C_15
    3  A    between atoms: O_7  and  C_26
    4  A    between atoms: C_9  and  O_24
    5  A    between atoms: C_15  and  N_19
    6  A    between atoms: C_18  and  O_24
    7  A    between atoms: C_21  and  C_23
    8  A    between atoms: C_26  and  C_29
                            x       y       z     vdW  Elec       q    Type
                         _______ _______ _______ _____ _____    ______ ____

>  <TORSDO>
F 8

$$$$
=
 OpenBabel10222422093D

 29 33  0  0  1  0  0  0  0  0999 V2000
  190.0910  177.0370  140.0380 C   0  0  1  0  0  0  0  0  0  0  0  0
  191.4640  177.3180  140.0080 C   0  0  0  0  0  0  0  0  0  0  0  0
  188.3590  178.3200  140.8760 C   0  0  0  0  0  0  0  0  0  0  0  0
  192.9230  175.9360  138.1610 C   0  0  0  0  0  0  0  0  0  0  0  0
  190.8640  176.3410  139.0980 C   0  0  0  0  0  0  0  0  0  0  0  0
  189.6540  176.3910  141.3440 C   0  0  0  0  0  2  0  0  0  0  0  0
  192.7770  177.6670  140.0660 C   0  0  0  0  0  3  0  0  0  0  0  0
  187.5000  179.2260  141.0650 O   0  0  0  0  0  0  0  0  0  0  0  0
  188.6090  177.2830  141.8170 N   0  0  0  0  0  0  0  0  0  0  0  0
  191.5130  175.6120  138.1510 C   0  0  0  0  0  3  0  0  0  0  0  0
  193.5080  176.9160  139.0810 C   0  0  0  0  0  3  0  0  0  0  0  0
  189.2180  178.2350  139.6630 C   0  0  2  0  0  3  0  0  0  0  0  0
  188.3960  177.9730  138.4290 C   0  0  0  0  0  0  0  0  0  0  0  0
  186.7610  176.6700  137.1940 C   0  0  0  0  0  3  0  0  0  0  0  0
  187.8510  178.5560  136.1390 C   0  0  0  0  0  3  0  0  0  0  0  0
  188.5810  178.7880  137.3090 C   0  0  0  0  0  3  0  0  0  0  0  0
  186.9240  177.5060  136.0820 C   0  0  0  0  0  0  0  0  0  0  0  0
  187.4890  176.9040  138.3610 C   0  0  0  0  0  3  0  0  0  0  0  0
  184.7260  177.2950  135.0540 N   0  0  0  0  0  2  0  0  0  0  0  0
  185.3970  175.9930  134.9400 C   0  0  0  0  0  2  0  0  0  0  0  0
  186.1800  177.2230  134.8140 C   0  0  2  0  0  3  0  0  0  0  0  0
  187.8420  177.0640  143.0310 C   0  0  0  0  0  2  0  0  0  0  0  0
  188.6680  176.5210  144.0150 O   0  0  0  0  0  0  0  0  0  0  0  0
  189.0110  177.6080  144.8240 C   0  0  0  0  0  2  0  0  0  0  0  0
  190.9970  178.8860  144.0170 C   0  0  0  0  0  1  0  0  0  0  0  0
  190.5220  177.7430  144.8970 C   0  0  0  0  0  2  0  0  0  0  0  0
  193.7910  175.3020  137.2670 O   0  0  0  0  0  0  0  0  0  0  0  0
  195.0830  173.6520  138.4230 C   0  0  0  0  0  1  0  0  0  0  0  0
  194.0770  173.9090  137.3200 C   0  0  0  0  0  2  0  0  0  0  0  0
  1  6  1  1  0  0  0
  2  1  1  0  0  0  0
  2  7  1  0  0  0  0
  3  8  2  0  0  0  0
  3  9  1  0  0  0  0
  4 11  1  0  0  0  0
  5  2  2  0  0  0  0
  5  1  1  0  0  0  0
  6  9  1  0  0  0  0
  9 22  1  0  0  0  0
 10  4  2  0  0  0  0
 10  5  1  0  0  0  0
 11  7  2  0  0  0  0
 12 13  1  6  0  0  0
 12  1  1  0  0  0  0
 12  3  1  0  0  0  0
 14 18  2  0  0  0  0
 15 16  1  0  0  0  0
 16 13  2  0  0  0  0
 17 15  2  0  0  0  0
 17 14  1  0  0  0  0
 18 13  1  0  0  0  0
 20 19  1  0  0  0  0
 21 20  1  0  0  0  0
 21 19  1  0  0  0  0
 21 17  1  1  0  0  0
 22 23  1  0  0  0  0
 23 24  1  0  0  0  0
 24 26  1  0  0  0  0
 25 26  1  0  0  0  0
 27 29  1  0  0  0  0
 27  4  1  0  0  0  0
 29 28  1  0  0  0  0
M  END
>  <MODEL>
8

>  <REMARK>
 VINA RESULT:      -6.3      3.580      7.144
  Name = 
  8 active torsions:
  status: ('A' for Active; 'I' for Inactive)
    1  A    between atoms: C_3  and  C_28
    2  A    between atoms: O_7  and  C_15
    3  A    between atoms: O_7  and  C_26
    4  A    between atoms: C_9  and  O_24
    5  A    between atoms: C_15  and  N_19
    6  A    between atoms: C_18  and  O_24
    7  A    between atoms: C_21  and  C_23
    8  A    between atoms: C_26  and  C_29
                            x       y       z     vdW  Elec       q    Type
                         _______ _______ _______ _____ _____    ______ ____

>  <TORSDO>
F 8

$$$$
=
 OpenBabel10222422093D

 29 33  0  0  1  0  0  0  0  0999 V2000
  190.7590  177.0990  142.1780 C   0  0  1  0  0  0  0  0  0  0  0  0
  191.6500  177.3540  141.1260 C   0  0  0  0  0  0  0  0  0  0  0  0
  190.4880  178.2440  144.1680 C   0  0  0  0  0  0  0  0  0  0  0  0
  190.9680  176.2980  138.7030 C   0  0  0  0  0  0  0  0  0  0  0  0
  190.4320  176.5680  140.9220 C   0  0  0  0  0  0  0  0  0  0  0  0
  191.3760  176.2390  143.2690 C   0  0  0  0  0  2  0  0  0  0  0  0
  192.5780  177.6630  140.1820 C   0  0  0  0  0  3  0  0  0  0  0  0
  190.2230  179.1170  145.0400 O   0  0  0  0  0  0  0  0  0  0  0  0
  191.2050  177.0510  144.4630 N   0  0  0  0  0  0  0  0  0  0  0  0
  190.0170  176.0070  139.7550 C   0  0  0  0  0  3  0  0  0  0  0  0
  192.1830  177.0860  138.9250 C   0  0  0  0  0  3  0  0  0  0  0  0
  190.1000  178.3610  142.7360 C   0  0  2  0  0  3  0  0  0  0  0  0
  188.6040  178.3390  142.5720 C   0  0  0  0  0  0  0  0  0  0  0  0
  186.5880  178.8790  141.3310 C   0  0  0  0  0  3  0  0  0  0  0  0
  186.4270  177.7850  143.4850 C   0  0  0  0  0  3  0  0  0  0  0  0
  187.8210  177.7980  143.5950 C   0  0  0  0  0  3  0  0  0  0  0  0
  185.8040  178.3100  142.3430 C   0  0  0  0  0  0  0  0  0  0  0  0
  187.9790  178.8900  141.4420 C   0  0  0  0  0  3  0  0  0  0  0  0
  183.8680  177.6630  141.0140 N   0  0  0  0  0  2  0  0  0  0  0  0
  183.8880  179.1300  141.0850 C   0  0  0  0  0  2  0  0  0  0  0  0
  184.3110  178.3450  142.2450 C   0  0  2  0  0  3  0  0  0  0  0  0
  191.6070  176.6330  145.7940 C   0  0  0  0  0  2  0  0  0  0  0  0
  190.5320  176.0180  146.4370 O   0  0  0  0  0  0  0  0  0  0  0  0
  190.1890  176.8970  147.4670 C   0  0  0  0  0  2  0  0  0  0  0  0
  188.2820  178.0380  148.6030 C   0  0  0  0  0  1  0  0  0  0  0  0
  188.7110  177.2380  147.3860 C   0  0  0  0  0  2  0  0  0  0  0  0
  190.7450  175.8180  137.4090 O   0  0  0  0  0  0  0  0  0  0  0  0
  189.3500  177.5680  136.5610 C   0  0  0  0  0  1  0  0  0  0  0  0
  189.5470  176.0710  136.6850 C   0  0  0  0  0  2  0  0  0  0  0  0
  1 12  1  0  0  0  0
  1  6  1  1  0  0  0
  2  1  1  0  0  0  0
  3  9  1  0  0  0  0
  3  8  2  0  0  0  0
  4 11  2  0  0  0  0
  4 10  1  0  0  0  0
  5  2  1  0  0  0  0
  5  1  1  0  0  0  0
  6  9  1  0  0  0  0
  7  2  2  0  0  0  0
  9 22  1  0  0  0  0
 10  5  2  0  0  0  0
 11  7  1  0  0  0  0
 12 13  1  1  0  0  0
 12  3  1  0  0  0  0
 13 16  1  0  0  0  0
 14 18  1  0  0  0  0
 14 17  2  0  0  0  0
 15 16  2  0  0  0  0
 17 15  1  0  0  0  0
 18 13  2  0  0  0  0
 19 20  1  0  0  0  0
 19 21  1  0  0  0  0
 20 21  1  0  0  0  0
 21 17  1  6  0  0  0
 22 23  1  0  0  0  0
 23 24  1  0  0  0  0
 26 24  1  0  0  0  0
 26 25  1  0  0  0  0
 27  4  1  0  0  0  0
 28 29  1  0  0  0  0
 29 27  1  0  0  0  0
M  END
>  <MODEL>
9

>  <REMARK>
 VINA RESULT:      -6.3      1.914      6.377
  Name = 
  8 active torsions:
  status: ('A' for Active; 'I' for Inactive)
    1  A    between atoms: C_3  and  C_28
    2  A    between atoms: O_7  and  C_15
    3  A    between atoms: O_7  and  C_26
    4  A    between atoms: C_9  and  O_24
    5  A    between atoms: C_15  and  N_19
    6  A    between atoms: C_18  and  O_24
    7  A    between atoms: C_21  and  C_23
    8  A    between atoms: C_26  and  C_29
                            x       y       z     vdW  Elec       q    Type
                         _______ _______ _______ _____ _____    ______ ____

>  <TORSDO>
F 8

$$$$
